drugbank_target|P02649 Apolipoprotein E (DB01593; DB09130; DB14487; DB14533; DB14548)
 OpenBabel12092119483D

  0  0  0     0  0            999 V3000
M  V30 BEGIN CTAB
M  V30 COUNTS 5094 5127 0 0 0
M  V30 BEGIN ATOM
M  V30 1 H -0.908 1.98254 -0.117106 0
M  V30 2 N 0 1.576 0 0
M  V30 3 C 0.933 2.03868 1.02534 0
M  V30 4 C 1.911 0.928543 1.3348 0
M  V30 5 O 3.095 1.19667 1.45644 0
M  V30 6 C 0.222 2.43627 2.35294 0
M  V30 7 C -0.732 3.65373 2.2001 0
M  V30 8 S 0.101 5.13292 1.52614 0
M  V30 9 C 1.257 5.56322 2.86805 0
M  V30 10 H 1.49 2.90518 0.631377 0
M  V30 11 H -0.977 1.52953 0.210867 0
M  V30 12 H 0.981 2.67203 3.11629 0
M  V30 13 H -0.358 1.57376 2.7183 0
M  V30 14 H -1.165 3.90944 3.18086 0
M  V30 15 H -1.563 3.418 1.51819 0
M  V30 16 H 0.729 5.58782 3.83104 0
M  V30 17 H 1.672 6.56266 2.65933 0
M  V30 18 H 2.08 4.83886 2.90714 0
M  V30 19 N 1.4781 -0.272755 1.55222 0
M  V30 20 C 2.4251 -1.33716 1.88119 0
M  V30 21 C 3.3951 -1.49066 0.73271 0
M  V30 22 O 4.5801 -1.63469 0.984002 0
M  V30 23 C 1.7201 -2.69238 2.15882 0
M  V30 24 C 0.8331 -2.62108 3.43399 0
M  V30 25 C -0.0319 -3.89811 3.60861 0
M  V30 26 C -0.9929 -3.77193 4.8207 0
M  V30 27 N -1.8559 -4.9673 4.96189 0
M  V30 28 H 2.9841 -1.04962 2.78903 0
M  V30 29 H 0.5211 -0.507088 1.38083 0
M  V30 30 H 2.4791 -3.48089 2.29978 0
M  V30 31 H 1.1091 -2.96194 1.28331 0
M  V30 32 H 0.1611 -1.74967 3.37773 0
M  V30 33 H 1.4731 -2.48685 4.32386 0
M  V30 34 H 0.6271 -4.77103 3.74777 0
M  V30 35 H -0.6339 -4.06102 2.7006 0
M  V30 36 H -1.6289 -2.88284 4.68159 0
M  V30 37 H -0.4039 -3.62421 5.74307 0
M  V30 38 H -2.4579 -5.13431 4.08319 0
M  V30 39 H -2.5409 -4.85839 5.79221 0
M  V30 40 H -1.2729 -5.85594 5.1449 0
M  V30 41 N 2.9562 -1.48159 -0.537278 0
M  V30 42 C 4.2022 -1.56035 -1.29541 0
M  V30 43 C 4.5352 -0.230377 -1.92829 0
M  V30 44 O 3.8102 0.762952 -1.78911 0
M  V30 45 C 4.0932 -2.69323 -2.39034 0
M  V30 46 C 3.9462 -4.12002 -1.80485 0
M  V30 47 C 5.2652 -2.78408 -3.40847 0
M  V30 48 H 2.3842 -0.567992 -0.469632 0
M  V30 49 H 5.0262 -1.80302 -0.599277 0
M  V30 50 H 3.1762 -2.48763 -2.98412 0
M  V30 51 H 4.8482 -4.43981 -1.25215 0
M  V30 52 H 3.0912 -4.19344 -1.11055 0
M  V30 53 H 3.7622 -4.87077 -2.59731 0
M  V30 54 H 6.2382 -2.97012 -2.91416 0
M  V30 55 H 5.1142 -3.59416 -4.14863 0
M  V30 56 H 5.3752 -1.86269 -4.00944 0
M  V30 57 N 4.4343 0.785586 -1.36625 0
M  V30 58 C 5.3643 1.91259 -1.33949 0
M  V30 59 C 6.3453 1.68795 -0.210325 0
M  V30 60 O 7.5303 1.89854 -0.408561 0
M  V30 61 C 4.6603 3.28339 -1.13186 0
M  V30 62 C 3.6143 3.65335 -2.22967 0
M  V30 63 C 2.9403 5.00806 -1.87342 0
M  V30 64 C 4.2403 3.7352 -3.65075 0
M  V30 65 H 5.9343 1.93755 -2.28253 0
M  V30 66 H 3.4803 0.930788 -1.09874 0
M  V30 67 H 5.4333 4.06804 -1.09948 0
M  V30 68 H 4.1573 3.2624 -0.153332 0
M  V30 69 H 2.8163 2.89169 -2.25337 0
M  V30 70 H 2.4643 4.95233 -0.880545 0
M  V30 71 H 2.1643 5.26529 -2.60846 0
M  V30 72 H 3.6883 5.81687 -1.85667 0
M  V30 73 H 5.1023 4.42168 -3.64911 0
M  V30 74 H 3.4993 4.10731 -4.37516 0
M  V30 75 H 4.5693 2.74527 -3.99703 0
M  V30 76 N 5.9124 1.20967 1.01018 0
M  V30 77 C 7.1584 1.0353 1.7508 0
M  V30 78 C 7.5134 -0.42734 1.87594 0
M  V30 79 O 6.8064 -1.31298 1.3954 0
M  V30 80 C 7.0004 1.65997 3.16512 0
M  V30 81 C 6.8294 3.18184 3.17788 0
M  V30 82 C 5.5994 3.87198 3.24662 0
M  V30 83 C 7.7974 4.15334 3.03319 0
M  V30 84 N 5.7794 5.26618 3.15509 0
M  V30 85 C 7.1504 5.41472 3.02007 0
M  V30 86 C 9.2054 4.06449 2.87583 0
M  V30 87 C 7.9084 6.5975 2.86571 0
M  V30 88 C 9.9344 5.24357 2.73503 0
M  V30 89 C 9.2964 6.49404 2.72862 0
M  V30 90 H 5.3954 0.433137 0.651089 0
M  V30 91 H 7.9794 1.5324 1.20107 0
M  V30 92 H 6.1504 1.18863 3.69765 0
M  V30 93 H 7.8824 1.41816 3.79039 0
M  V30 94 H 4.6374 3.38093 3.31648 0
M  V30 95 H 5.0614 5.99626 3.14289 0
M  V30 96 H 9.7034 3.10573 2.86887 0
M  V30 97 H 7.4214 7.55792 2.86015 0
M  V30 98 H 11.0074 5.19299 2.62334 0
M  V30 99 H 9.8874 7.39105 2.62093 0
M  V30 100 N 7.3905 -1.2043 1.01659 0
M  V30 101 C 8.3535 -2.21433 0.591616 0
M  V30 102 C 9.3535 -1.57203 -0.338226 0
M  V30 103 O 10.5435 -1.73737 -0.126918 0
M  V30 104 C 7.6755 -3.40628 -0.136058 0
M  V30 105 H 8.8685 -2.60545 1.48514 0
M  V30 106 H 6.4215 -1.33893 0.806379 0
M  V30 107 H 7.1565 -3.07019 -1.04449 0
M  V30 108 H 6.9415 -3.88475 0.531917 0
M  V30 109 H 8.4315 -4.15475 -0.420735 0
M  V30 110 N 8.8686 -0.792821 -1.36206 0
M  V30 111 C 9.8316 -0.199459 -2.2833 0
M  V30 112 C 10.8316 0.605189 -1.48977 0
M  V30 113 O 12.0216 0.425685 -1.68919 0
M  V30 114 C 9.1536 0.723523 -3.33134 0
M  V30 115 H 10.3466 -1.01181 -2.82316 0
M  V30 116 H 7.8996 -0.562485 -1.45828 0
M  V30 117 H 8.6346 1.56008 -2.84309 0
M  V30 118 H 8.4196 0.148436 -3.91819 0
M  V30 119 H 9.9096 1.13344 -4.01924 0
M  V30 120 N 10.3467 1.47872 -0.545128 0
M  V30 121 C 11.2767 2.32661 0.197793 0
M  V30 122 C 12.2577 1.43041 0.920504 0
M  V30 123 O 13.4427 1.71912 0.90333 0
M  V30 124 C 10.5727 3.24569 1.23582 0
M  V30 125 C 9.5267 4.23333 0.630323 0
M  V30 126 C 8.8527 5.0448 1.77211 0
M  V30 127 C 10.1527 5.20704 -0.407974 0
M  V30 128 H 11.8467 2.95024 -0.510045 0
M  V30 129 H 9.3927 1.4187 -0.246731 0
M  V30 130 H 11.3457 3.8272 1.76362 0
M  V30 131 H 10.0697 2.60236 1.97344 0
M  V30 132 H 8.7287 3.6639 0.123922 0
M  V30 133 H 8.3767 4.36561 2.49847 0
M  V30 134 H 8.0767 5.71339 1.37281 0
M  V30 135 H 9.6007 5.65487 2.3034 0
M  V30 136 H 11.0147 5.7329 0.033305 0
M  V30 137 H 9.4117 5.95699 -0.725486 0
M  V30 138 H 10.4817 4.66917 -1.30828 0
M  V30 139 N 11.8248 0.280983 1.55075 0
M  V30 140 C 12.7548 -0.597469 2.25727 0
M  V30 141 C 13.7358 -1.15417 1.24952 0
M  V30 142 O 14.9208 -1.18722 1.53684 0
M  V30 143 C 12.0508 -1.7789 2.98283 0
M  V30 144 C 11.0048 -1.35347 4.06036 0
M  V30 145 C 10.3308 -2.61846 4.66198 0
M  V30 146 C 11.6308 -0.499354 5.19907 0
M  V30 147 H 13.3248 -0.00824265 2.99399 0
M  V30 148 H 10.8708 -0.0025244 1.44 0
M  V30 149 H 12.8238 -2.39937 3.46422 0
M  V30 150 H 11.5478 -2.39405 2.22155 0
M  V30 151 H 10.2068 -0.756156 3.58717 0
M  V30 152 H 9.8548 -3.21632 3.86732 0
M  V30 153 H 9.5548 -2.3409 5.38958 0
M  V30 154 H 11.0788 -3.24732 5.1709 0
M  V30 155 H 12.4928 -1.02498 5.64063 0
M  V30 156 H 10.8898 -0.316424 5.99265 0
M  V30 157 H 11.9598 0.480459 4.82514 0
M  V30 158 N 13.3029 -1.57598 0.00835791 0
M  V30 159 C 14.5489 -1.91211 -0.675732 0
M  V30 160 C 14.8819 -0.883139 -1.72958 0
M  V30 161 O 14.1569 0.097016 -1.94258 0
M  V30 162 C 14.4399 -3.35379 -1.31123 0
M  V30 163 C 14.2929 -4.48999 -0.268356 0
M  V30 164 C 15.6119 -3.7912 -2.23508 0
M  V30 165 H 12.7309 -0.695374 -0.244179 0
M  V30 166 H 15.3729 -1.89901 0.0613655 0
M  V30 167 H 13.5229 -3.36626 -1.93946 0
M  V30 168 H 15.1949 -4.59887 0.360844 0
M  V30 169 H 13.4379 -4.31873 0.408482 0
M  V30 170 H 14.1089 -5.46851 -0.752218 0
M  V30 171 H 16.5849 -3.79477 -1.70693 0
M  V30 172 H 15.4609 -4.80729 -2.64936 0
M  V30 173 H 15.7219 -3.13455 -3.11766 0
M  V30 174 N 14.781 0.264519 -1.55364 0
M  V30 175 C 16.009 1.013 -1.80405 0
M  V30 176 C 16.424 1.79618 -0.581622 0
M  V30 177 O 15.781 1.76879 0.449468 0
M  V30 178 C 15.832 1.96487 -3.03439 0
M  V30 179 O 15.553 1.21341 -4.20961 0
M  V30 180 C 17.054 2.83079 -3.41147 0
M  V30 181 H 14.274 0.298875 -0.600762 0
M  V30 182 H 16.818 0.292736 -2.02394 0
M  V30 183 H 14.973 2.63965 -2.83551 0
M  V30 184 H 15.387 1.85573 -4.90574 0
M  V30 185 H 16.861 3.4565 -4.30384 0
M  V30 186 H 17.338 3.53286 -2.60932 0
M  V30 187 H 17.944 2.2108 -3.63323 0
M  V30 188 N 16.2591 1.48442 0.529413 0
M  V30 189 C 17.5061 1.56488 1.28521 0
M  V30 190 C 17.8341 0.239042 1.93025 0
M  V30 191 O 17.0891 -0.770713 1.79885 0
M  V30 192 C 17.3881 2.6523 2.39558 0
M  V30 193 C 17.0541 4.07648 1.92702 0
M  V30 194 C 15.7161 4.46411 1.79641 0
M  V30 195 C 18.0681 4.96896 1.573 0
M  V30 196 C 15.3961 5.72226 1.29514 0
M  V30 197 C 17.7481 6.23202 1.08636 0
M  V30 198 C 16.4121 6.60821 0.941919 0
M  V30 199 H 15.6821 0.572631 0.470292 0
M  V30 200 H 18.3291 1.82161 0.59072 0
M  V30 201 H 16.6341 2.33419 3.14679 0
M  V30 202 H 18.3311 2.68671 2.97686 0
M  V30 203 H 14.9211 3.77036 2.03819 0
M  V30 204 H 19.1051 4.67626 1.66251 0
M  V30 205 H 14.3611 6.00097 1.17019 0
M  V30 206 H 18.5351 6.91753 0.803136 0
M  V30 207 H 16.1621 7.58198 0.5513 0
M  V30 208 N 17.7372 -0.778329 1.37039 0
M  V30 209 C 18.6672 -1.90546 1.34962 0
M  V30 210 C 19.6482 -1.68681 0.219274 0
M  V30 211 O 20.8332 -1.89634 0.418624 0
M  V30 212 C 17.9632 -3.27734 1.14925 0
M  V30 213 C 16.9172 -3.64147 2.24902 0
M  V30 214 C 16.2432 -4.99806 1.89996 0
M  V30 215 C 17.5432 -3.71579 3.67051 0
M  V30 216 H 19.2372 -1.92541 2.29277 0
M  V30 217 H 16.7832 -0.924948 1.10366 0
M  V30 218 H 18.7362 -4.06215 1.12104 0
M  V30 219 H 17.4602 -3.26154 0.170631 0
M  V30 220 H 16.1192 -2.8797 2.26868 0
M  V30 221 H 15.7672 -4.94759 0.906796 0
M  V30 222 H 15.4672 -5.25139 2.63634 0
M  V30 223 H 16.9912 -5.80694 1.88749 0
M  V30 224 H 18.4052 -4.40227 3.67251 0
M  V30 225 H 16.8022 -4.08405 4.39688 0
M  V30 226 H 17.8722 -2.72404 4.01154 0
M  V30 227 N 19.2153 -1.21501 -1.00376 0
M  V30 228 C 20.1783 -0.976927 -2.07337 0
M  V30 229 C 21.1783 0.0525322 -1.60714 0
M  V30 230 O 22.3683 -0.184869 -1.73216 0
M  V30 231 C 19.5003 -0.473423 -3.37597 0
M  V30 232 H 20.6933 -1.92587 -2.29892 0
M  V30 233 H 18.2463 -1.03217 -1.17371 0
M  V30 234 H 18.9813 0.480379 -3.20722 0
M  V30 235 H 18.7663 -1.216 -3.72768 0
M  V30 236 H 20.2563 -0.32675 -4.1632 0
M  V30 237 N 20.6934 1.19889 -1.02296 0
M  V30 238 C 21.9414 1.89046 -0.714558 0
M  V30 239 C 22.2624 1.79636 0.758681 0
M  V30 240 O 21.5324 1.20292 1.54618 0
M  V30 241 H 20.1124 0.699802 -0.261317 0
M  V30 242 H 22.7744 1.45574 -1.29592 0
M  V30 243 H 21.8704 2.95524 -1.0036 0
M  V30 244 N 22.1715 0.800033 1.35784 0
M  V30 245 C 23.4115 0.382891 2.00782 0
M  V30 246 C 23.7755 -1.02891 1.62103 0
M  V30 247 O 24.9765 -1.54771 2.19771 0
M  V30 248 C 23.2475 0.553299 3.53091 0
M  V30 249 S 24.8065 0.225608 4.3822 0
M  V30 250 H 21.6245 0.145737 0.695904 0
M  V30 251 H 24.2265 1.04085 1.65489 0
M  V30 252 H 22.9305 1.58091 3.78729 0
M  V30 253 H 22.4615 -0.120214 3.93216 0
M  V30 254 H 24.4765 -0.969074 4.86645 0
M  V30 255 N 23.6496 -1.47581 0.552962 0
M  V30 256 C 24.5816 -2.27997 -0.234533 0
M  V30 257 C 25.5946 -1.36753 -0.883321 0
M  V30 258 O 26.7836 -1.61612 -0.757889 0
M  V30 259 C 23.8836 -3.10879 -1.34935 0
M  V30 260 C 23.0566 -4.30056 -0.798158 0
M  V30 261 C 22.1156 -4.94567 -1.79694 0
M  V30 262 O 21.1416 -5.53087 -1.34474 0
M  V30 263 N 22.3436 -4.88878 -3.13015 0
M  V30 264 H 25.1086 -2.96222 0.455255 0
M  V30 265 H 22.6696 -1.57163 0.388761 0
M  V30 266 H 24.6616 -3.50903 -2.01616 0
M  V30 267 H 23.2316 -2.44924 -1.94244 0
M  V30 268 H 22.4516 -3.94174 0.0453079 0
M  V30 269 H 23.7396 -5.07152 -0.409173 0
M  V30 270 H 23.1376 -4.42526 -3.52402 0
M  V30 271 H 21.6946 -5.32934 -3.75266 0
M  V30 272 N 25.1277 -0.289203 -1.54924 0
M  V30 273 C 26.0907 0.579144 -2.21762 0
M  V30 274 C 27.0907 1.07047 -1.1999 0
M  V30 275 O 28.2807 0.968384 -1.44803 0
M  V30 276 C 25.4127 1.80055 -2.8947 0
M  V30 277 H 26.6057 -0.00464908 -2.999 0
M  V30 278 H 24.1587 -0.0399306 -1.56249 0
M  V30 279 H 24.8937 2.42449 -2.15381 0
M  V30 280 H 24.6787 1.45602 -3.64064 0
M  V30 281 H 26.1687 2.41773 -3.40493 0
M  V30 282 N 26.6058 1.57591 -0.0167156 0
M  V30 283 C 27.5528 2.09462 0.969251 0
M  V30 284 C 28.5228 0.99381 1.33089 0
M  V30 285 O 29.7078 1.26726 1.42636 0
M  V30 286 C 26.8478 2.61622 2.25051 0
M  V30 287 C 25.9608 3.85666 1.94642 0
M  V30 288 C 25.0958 4.26266 3.16972 0
M  V30 289 C 24.1348 5.43101 2.82326 0
M  V30 290 N 23.2718 5.78915 3.97243 0
M  V30 291 H 28.1118 2.93428 0.519997 0
M  V30 292 H 25.6488 1.45044 0.245087 0
M  V30 293 H 27.6068 2.89949 2.99976 0
M  V30 294 H 26.2368 1.80505 2.67615 0
M  V30 295 H 25.2888 3.64145 1.10013 0
M  V30 296 H 26.6008 4.70678 1.65117 0
M  V30 297 H 25.7548 4.55963 4.00228 0
M  V30 298 H 24.4938 3.39996 3.49648 0
M  V30 299 H 23.4988 5.1311 1.97479 0
M  V30 300 H 24.7238 6.3106 2.50879 0
M  V30 301 H 22.6698 4.95602 4.29785 0
M  V30 302 H 22.5868 6.58539 3.71299 0
M  V30 303 H 23.8548 6.13212 4.81239 0
M  V30 304 N 28.0839 -0.256276 1.55502 0
M  V30 305 C 29.3299 -0.987079 1.77157 0
M  V30 306 C 29.6629 -1.85327 0.580315 0
M  V30 307 O 28.9379 -1.89874 -0.421686 0
M  V30 308 C 29.2209 -1.85553 3.08613 0
M  V30 309 C 29.0739 -1.01816 4.38125 0
M  V30 310 C 30.3929 -2.8397 3.36228 0
M  V30 311 H 27.5119 -0.357428 0.644526 0
M  V30 312 H 30.1539 -0.258239 1.88237 0
M  V30 313 H 28.3039 -2.47695 2.99298 0
M  V30 314 H 29.9759 -0.416159 4.59419 0
M  V30 315 H 28.2189 -0.322178 4.32602 0
M  V30 316 H 28.8899 -1.65939 5.26468 0
M  V30 317 H 31.3659 -2.31964 3.45445 0
M  V30 318 H 30.2419 -3.41864 4.29442 0
M  V30 319 H 30.5029 -3.59955 2.56681 0
M  V30 320 N 29.562 -1.4872 -0.521534 0
M  V30 321 C 30.472 -1.66569 -1.65203 0
M  V30 322 C 31.488 -0.548197 -1.65139 0
M  V30 323 O 32.664 -0.820339 -1.83936 0
M  V30 324 C 29.729 -1.70917 -3.01642 0
M  V30 325 C 28.79 -2.94356 -3.12495 0
M  V30 326 C 28.023 -2.98487 -4.42426 0
M  V30 327 O 28.246 -2.10786 -5.30024 0
M  V30 328 O 27.18 -3.90746 -4.57822 0
M  V30 329 H 31.006 -2.62298 -1.5308 0
M  V30 330 H 28.591 -1.3222 -0.695565 0
M  V30 331 H 30.473 -1.7625 -3.82771 0
M  V30 332 H 29.148 -0.783633 -3.14071 0
M  V30 333 H 28.055 -2.94552 -2.3063 0
M  V30 334 H 29.388 -3.86322 -3.04986 0
M  V30 335 N 31.0401 0.771051 -1.3745 0
M  V30 336 C 31.9721 1.89352 -1.29146 0
M  V30 337 C 32.9851 1.61477 -0.207124 0
M  V30 338 O 34.1741 1.72382 -0.463324 0
M  V30 339 C 31.2741 3.24596 -0.974195 0
M  V30 340 C 30.4471 3.80111 -2.16413 0
M  V30 341 C 29.5061 4.93832 -1.81703 0
M  V30 342 O 28.5321 5.09382 -2.54006 0
M  V30 343 N 29.7341 5.75483 -0.761573 0
M  V30 344 H 32.4991 1.96991 -2.25864 0
M  V30 345 H 30.0601 0.950191 -1.31084 0
M  V30 346 H 32.0521 3.98193 -0.722828 0
M  V30 347 H 30.6221 3.12454 -0.0955527 0
M  V30 348 H 29.8421 2.98284 -2.57721 0
M  V30 349 H 31.1301 4.13932 -2.95867 0
M  V30 350 H 30.5281 5.65469 -0.161609 0
M  V30 351 H 29.0851 6.49302 -0.570064 0
M  V30 352 N 32.5182 1.22032 0.997298 0
M  V30 353 C 33.4812 0.987909 2.06816 0
M  V30 354 C 34.4812 -0.0440084 1.6074 0
M  V30 355 O 35.6712 0.194053 1.73116 0
M  V30 356 C 32.8032 0.49132 3.37341 0
M  V30 357 H 33.9962 1.93803 2.28868 0
M  V30 358 H 31.5492 1.03838 1.16822 0
M  V30 359 H 32.2842 -0.463364 3.20973 0
M  V30 360 H 32.0692 1.23575 3.72118 0
M  V30 361 H 33.5592 0.348824 4.16141 0
M  V30 362 N 33.9963 -1.19345 1.0293 0
M  V30 363 C 35.2423 -1.89318 0.727083 0
M  V30 364 C 35.5753 -1.79446 -0.742483 0
M  V30 365 O 34.8503 -1.1871 -1.54072 0
M  V30 366 C 35.1333 -3.40238 1.17942 0
M  V30 367 C 34.9863 -3.58979 2.71024 0
M  V30 368 C 36.3053 -4.33479 0.760548 0
M  V30 369 H 33.4243 -0.687475 0.265606 0
M  V30 370 H 36.0663 -1.40477 1.2793 0
M  V30 371 H 34.2163 -3.81964 0.709608 0
M  V30 372 H 35.8883 -3.26421 3.25955 0
M  V30 373 H 34.1313 -3.02018 3.11396 0
M  V30 374 H 34.8023 -4.64823 2.9773 0
M  V30 375 H 37.2783 -3.99469 1.16464 0
M  V30 376 H 36.1543 -5.37664 1.10493 0
M  V30 377 H 36.4153 -4.40813 -0.337063 0
M  V30 378 N 35.4744 -0.807222 -1.35358 0
M  V30 379 C 36.3844 -0.219594 -2.3357 0
M  V30 380 C 37.4004 0.637734 -1.61892 0
M  V30 381 O 38.5764 0.549336 -1.93763 0
M  V30 382 C 35.6414 0.62158 -3.41083 0
M  V30 383 C 34.7024 -0.256315 -4.28534 0
M  V30 384 C 33.9354 0.544807 -5.30912 0
M  V30 385 O 34.1584 1.77944 -5.41934 0
M  V30 386 O 33.0924 -0.0646478 -6.01865 0
M  V30 387 H 36.9184 -1.03208 -2.85625 0
M  V30 388 H 34.5034 -0.569025 -1.38139 0
M  V30 389 H 36.3854 1.10067 -4.06772 0
M  V30 390 H 35.0604 1.41165 -2.91297 0
M  V30 391 H 33.9674 -0.782559 -3.65823 0
M  V30 392 H 35.3004 -1.01034 -4.81719 0
M  V30 393 N 36.9525 1.47285 -0.560781 0
M  V30 394 C 38.1805 2.06855 -0.0430262 0
M  V30 395 C 38.5955 1.41291 1.25229 0
M  V30 396 O 37.9525 0.510648 1.7521 0
M  V30 397 C 38.0035 3.61178 0.152518 0
M  V30 398 O 37.7245 4.24285 -1.0915 0
M  V30 399 C 39.2255 4.37624 0.707145 0
M  V30 400 H 36.4455 0.669319 -0.0474652 0
M  V30 401 H 38.9895 1.89237 -0.77521 0
M  V30 402 H 37.1445 3.78298 0.834843 0
M  V30 403 H 37.5585 5.16868 -0.891482 0
M  V30 404 H 39.0325 5.46271 0.793244 0
M  V30 405 H 39.5095 4.04152 1.71923 0
M  V30 406 H 40.1155 4.25257 0.0604027 0
M  V30 407 N 38.4306 0.297415 1.54768 0
M  V30 408 C 39.3406 -0.58983 2.27064 0
M  V30 409 C 40.3566 -1.15144 1.30453 0
M  V30 410 O 41.5326 -1.17699 1.63428 0
M  V30 411 C 38.5976 -1.74714 2.9946 0
M  V30 412 C 37.6586 -1.21997 4.11601 0
M  V30 413 C 36.8916 -2.32212 4.80535 0
M  V30 414 O 37.1146 -3.52036 4.48806 0
M  V30 415 O 36.0486 -1.99106 5.68014 0
M  V30 416 H 39.8746 -0.00348199 3.037 0
M  V30 417 H 37.4596 0.0640035 1.49263 0
M  V30 418 H 39.3416 -2.42147 3.44881 0
M  V30 419 H 38.0166 -2.32016 2.25722 0
M  V30 420 H 36.9236 -0.511458 3.70587 0
M  V30 421 H 38.2566 -0.692419 4.87305 0
M  V30 422 N 39.9087 -1.5758 0.0250728 0
M  V30 423 C 41.3197 -1.79476 -0.514323 0
M  V30 424 C 41.6707 -0.934956 -1.72491 0
M  V30 425 O 40.7957 -0.144245 -2.15919 0
M  V30 426 C 41.3907 -3.25503 -0.939842 0
M  V30 427 C 39.9497 -3.48408 -1.42438 0
M  V30 428 C 39.0967 -2.74583 -0.387201 0
M  V30 429 H 42.0477 -1.567 0.25113 0
M  V30 430 H 42.0687 -3.34992 -1.80445 0
M  V30 431 H 41.5807 -3.88056 -0.0585628 0
M  V30 432 H 39.6817 -2.91103 -2.32572 0
M  V30 433 H 39.7947 -4.57119 -1.43455 0
M  V30 434 H 38.1587 -2.39942 -0.854409 0
M  V30 435 H 38.9417 -3.39849 0.485543 0
M  V30 436 N 41.3868 0.248026 -1.55636 0
M  V30 437 C 42.2968 1.32859 -1.93354 0
M  V30 438 C 43.3128 1.52719 -0.833838 0
M  V30 439 O 44.4888 1.66363 -1.13513 0
M  V30 440 C 41.5538 2.66337 -2.21958 0
M  V30 441 C 40.6148 2.55008 -3.45354 0
M  V30 442 C 39.8478 3.82121 -3.72584 0
M  V30 443 O 40.0708 4.83951 -3.01907 0
M  V30 444 O 39.0048 3.80822 -4.6611 0
M  V30 445 H 42.8308 1.03862 -2.85388 0
M  V30 446 H 40.4158 0.448686 -1.42503 0
M  V30 447 H 42.2978 3.45216 -2.4167 0
M  V30 448 H 40.9728 2.95068 -1.33103 0
M  V30 449 H 39.8798 1.7442 -3.30951 0
M  V30 450 H 41.2128 2.31222 -4.34508 0
M  V30 451 N 42.8649 1.48995 0.513639 0
M  V30 452 C 44.2759 1.5119 1.09537 0
M  V30 453 C 44.6269 0.290906 1.94031 0
M  V30 454 O 43.7519 -0.60049 2.07902 0
M  V30 455 C 44.3469 2.73964 1.99322 0
M  V30 456 C 42.9059 2.78978 2.52682 0
M  V30 457 C 42.0529 2.44934 1.30009 0
M  V30 458 H 45.0039 1.55875 0.298125 0
M  V30 459 H 45.0249 2.53409 2.83838 0
M  V30 460 H 44.5369 3.62813 1.37799 0
M  V30 461 H 42.6379 1.94378 3.1788 0
M  V30 462 H 42.7509 3.8083 2.90698 0
M  V30 463 H 41.1149 1.9644 1.62122 0
M  V30 464 H 41.8979 3.36043 0.702131 0
M  V30 465 N 44.343 -0.763751 1.37857 0
M  V30 466 C 45.253 -1.90817 1.36478 0
M  V30 467 C 46.269 -1.71997 0.263248 0
M  V30 468 O 47.445 -1.95095 0.499979 0
M  V30 469 C 44.51 -3.2605 1.17864 0
M  V30 470 C 43.571 -3.57467 2.3773 0
M  V30 471 C 42.804 -4.86249 2.19995 0
M  V30 472 O 43.027 -5.57884 1.18836 0
M  V30 473 O 41.961 -5.16911 3.08361 0
M  V30 474 H 45.787 -1.94933 2.32884 0
M  V30 475 H 43.372 -0.907619 1.1867 0
M  V30 476 H 45.254 -4.06924 1.09504 0
M  V30 477 H 43.929 -3.22769 0.245372 0
M  V30 478 H 42.836 -2.76796 2.51664 0
M  V30 479 H 44.169 -3.655 3.29652 0
M  V30 480 N 45.8211 -1.22559 -0.990812 0
M  V30 481 C 46.7511 -1.0218 -2.09956 0
M  V30 482 C 47.7321 0.0579394 -1.70001 0
M  V30 483 O 48.9171 -0.104684 -1.93918 0
M  V30 484 C 46.0471 -0.601023 -3.4206 0
M  V30 485 C 45.0011 -1.62694 -3.95872 0
M  V30 486 C 44.3271 -1.06193 -5.24049 0
M  V30 487 C 45.6271 -3.01743 -4.2632 0
M  V30 488 H 47.3211 -1.94916 -2.27262 0
M  V30 489 H 44.8671 -0.938566 -1.09211 0
M  V30 490 H 46.8201 -0.445561 -4.19038 0
M  V30 491 H 45.5441 0.362005 -3.24588 0
M  V30 492 H 44.2031 -1.77021 -3.21028 0
M  V30 493 H 43.8511 -0.0901903 -5.02919 0
M  V30 494 H 43.5511 -1.74732 -5.61019 0
M  V30 495 H 45.0751 -0.918092 -6.03658 0
M  V30 496 H 46.4891 -2.90777 -4.94087 0
M  V30 497 H 44.8861 -3.67425 -4.74467 0
M  V30 498 H 45.9561 -3.51518 -3.34011 0
M  V30 499 N 47.2992 1.18797 -1.03562 0
M  V30 500 C 48.7152 1.40671 -0.753917 0
M  V30 501 C 48.9152 1.9043 0.658686 0
M  V30 502 O 47.9712 2.08538 1.42366 0
M  V30 503 C 49.2842 2.41192 -1.79574 0
M  V30 504 C 50.8322 2.54928 -1.81606 0
M  V30 505 C 51.3072 3.58709 -2.84766 0
M  V30 506 N 52.7982 3.66212 -2.83625 0
M  V30 507 C 53.5332 4.46225 -3.60098 0
M  V30 508 N 53.0292 5.29888 -4.46308 0
M  V30 509 N 54.8222 4.40939 -3.4861 0
M  V30 510 H 46.9732 0.848221 -1.94728 0
M  V30 511 H 49.2362 0.435081 -0.842264 0
M  V30 512 H 48.9422 2.11669 -2.80872 0
M  V30 513 H 48.8162 3.40467 -1.62365 0
M  V30 514 H 51.2032 2.83771 -0.809817 0
M  V30 515 H 51.2842 1.55784 -2.02891 0
M  V30 516 H 50.9282 3.30607 -3.85566 0
M  V30 517 H 50.8582 4.57519 -2.60737 0
M  V30 518 H 53.3492 3.06466 -2.21105 0
M  V30 519 H 53.6622 5.88078 -5.01382 0
M  V30 520 H 52.0072 5.29326 -4.50377 0
M  V30 521 H 55.1982 3.74624 -2.80668 0
M  V30 522 H 55.3712 5.03056 -4.08459 0
M  V30 523 N 48.7773 0.814389 1.34928 0
M  V30 524 C 49.7093 0.187834 2.28429 0
M  V30 525 C 50.7223 -0.617374 1.5064 0
M  V30 526 O 51.9113 -0.448454 1.72775 0
M  V30 527 C 49.0113 -0.755962 3.30361 0
M  V30 528 C 48.1843 0.00456686 4.374 0
M  V30 529 C 47.2433 -0.858876 5.19143 0
M  V30 530 O 46.2693 -0.306968 5.68372 0
M  V30 531 N 47.4713 -2.17988 5.38016 0
M  V30 532 H 50.2363 0.991105 2.82838 0
M  V30 533 H 47.7973 0.670561 1.4736 0
M  V30 534 H 49.7893 -1.338 3.81942 0
M  V30 535 H 48.3593 -1.46001 2.7641 0
M  V30 536 H 47.5793 0.767865 3.86649 0
M  V30 537 H 48.8673 0.528422 5.06049 0
M  V30 538 H 48.2653 -2.65212 4.99679 0
M  V30 539 H 46.8223 -2.71098 5.92747 0
M  V30 540 N 50.2554 -1.46986 0.568584 0
M  V30 541 C 51.1874 -2.28233 -0.210337 0
M  V30 542 C 52.2004 -1.37682 -0.868767 0
M  V30 543 O 53.3894 -1.62406 -0.740705 0
M  V30 544 C 50.4894 -3.12293 -1.3163 0
M  V30 545 C 49.6624 -4.30878 -0.7525 0
M  V30 546 C 48.7214 -4.96445 -1.74439 0
M  V30 547 O 47.7474 -5.54482 -1.286 0
M  V30 548 N 48.9494 -4.92171 -3.07812 0
M  V30 549 H 51.7144 -2.95723 0.486648 0
M  V30 550 H 49.2754 -1.56742 0.405409 0
M  V30 551 H 51.2674 -3.53022 -1.97883 0
M  V30 552 H 49.8374 -2.46971 -1.91636 0
M  V30 553 H 49.0574 -3.94104 0.0871128 0
M  V30 554 H 50.3454 -5.07558 -0.35536 0
M  V30 555 H 49.7434 -4.46239 -3.47688 0
M  V30 556 H 48.3004 -5.36884 -3.69592 0
M  V30 557 N 51.7335 -0.305618 -1.54608 0
M  V30 558 C 52.9615 0.304775 -2.04643 0
M  V30 559 C 53.3765 1.47167 -1.18268 0
M  V30 560 O 52.7335 1.81296 -0.209328 0
M  V30 561 C 52.7845 0.756564 -3.53495 0
M  V30 562 O 52.5055 -0.36389 -4.36586 0
M  V30 563 C 54.0065 1.43163 -4.19546 0
M  V30 564 H 51.2265 0.0655481 -0.667791 0
M  V30 565 H 53.7705 -0.446592 -1.99564 0
M  V30 566 H 51.9255 1.45794 -3.58919 0
M  V30 567 H 52.3395 -0.0113121 -5.24499 0
M  V30 568 H 53.8135 1.69886 -5.25207 0
M  V30 569 H 54.2905 2.37318 -3.69563 0
M  V30 570 H 54.8965 0.773307 -4.18211 0
M  V30 571 N 53.2116 1.57565 -0.0334293 0
M  V30 572 C 54.1216 2.13943 0.962572 0
M  V30 573 C 55.1376 1.09276 1.35406 0
M  V30 574 O 56.3136 1.41355 1.4346 0
M  V30 575 C 53.3786 2.65887 2.22497 0
M  V30 576 C 52.4396 3.85286 1.8935 0
M  V30 577 C 51.6726 4.34743 3.09571 0
M  V30 578 O 51.8956 3.83352 4.22371 0
M  V30 579 O 50.8296 5.26538 2.91618 0
M  V30 580 H 54.6556 2.99333 0.513169 0
M  V30 581 H 52.2406 1.4822 0.18743 0
M  V30 582 H 54.1226 2.99346 2.96598 0
M  V30 583 H 52.7976 1.83578 2.6661 0
M  V30 584 H 51.7046 3.56746 1.1262 0
M  V30 585 H 53.0376 4.68771 1.5005 0
M  V30 586 N 54.6897 -0.239769 1.55765 0
M  V30 587 C 55.9357 -0.963942 1.79108 0
M  V30 588 C 56.2907 -1.82689 0.60352 0
M  V30 589 O 55.5837 -1.87313 -0.403033 0
M  V30 590 C 55.7777 -1.852 3.05672 0
M  V30 591 C 55.6067 -1.07651 4.36625 0
M  V30 592 C 54.3767 -0.778738 4.99263 0
M  V30 593 C 56.5747 -0.45062 5.12322 0
M  V30 594 N 54.5567 0.0200708 6.13897 0
M  V30 595 C 55.9277 0.212429 6.19636 0
M  V30 596 C 57.9827 -0.361806 4.96584 0
M  V30 597 C 56.6857 0.955772 7.12922 0
M  V30 598 C 58.7117 0.368023 5.90254 0
M  V30 599 C 58.0737 1.01968 6.96981 0
M  V30 600 H 54.1727 -0.333601 0.707272 0
M  V30 601 H 56.7567 -0.236425 1.93259 0
M  V30 602 H 54.9277 -2.55149 2.92837 0
M  V30 603 H 56.6597 -2.51228 3.1728 0
M  V30 604 H 53.4147 -1.09229 4.60832 0
M  V30 605 H 53.8387 0.407777 6.75771 0
M  V30 606 H 58.4807 -0.851286 4.14141 0
M  V30 607 H 56.1987 1.45683 7.9486 0
M  V30 608 H 59.7847 0.437504 5.80153 0
M  V30 609 H 58.6647 1.5754 7.68213 0
M  V30 610 N 56.1678 -1.49265 -0.50573 0
M  V30 611 C 57.0998 -1.617 -1.62437 0
M  V30 612 C 58.1128 -0.499924 -1.54934 0
M  V30 613 O 59.3018 -0.771785 -1.60953 0
M  V30 614 C 56.4018 -1.5533 -3.01207 0
M  V30 615 C 55.5748 -2.8249 -3.33943 0
M  V30 616 C 54.6338 -2.69238 -4.52103 0
M  V30 617 O 53.6598 -3.43167 -4.5412 0
M  V30 618 N 54.8618 -1.80468 -5.51735 0
M  V30 619 H 57.6268 -2.58177 -1.52199 0
M  V30 620 H 55.1878 -1.46294 -0.693511 0
M  V30 621 H 57.1798 -1.44125 -3.78167 0
M  V30 622 H 55.7498 -0.667297 -3.05395 0
M  V30 623 H 54.9698 -3.08081 -2.45926 0
M  V30 624 H 56.2578 -3.66802 -3.5261 0
M  V30 625 H 55.6558 -1.19653 -5.52901 0
M  V30 626 H 54.2128 -1.75188 -6.27816 0
M  V30 627 N 57.6459 0.756429 -1.3826 0
M  V30 628 C 58.8709 1.55077 -1.37717 0
M  V30 629 C 59.2959 1.88073 0.03164 0
M  V30 630 O 58.6539 1.50364 1.01293 0
M  V30 631 C 58.7019 2.8283 -2.23695 0
M  V30 632 O 57.8059 3.77862 -1.6521 0
M  V30 633 H 57.1469 0.469152 -0.469885 0
M  V30 634 H 59.6769 0.935019 -1.81985 0
M  V30 635 H 59.6869 3.31783 -2.37453 0
M  V30 636 H 58.3619 2.58144 -3.2609 0
M  V30 637 H 56.9389 3.36555 -1.60578 0
M  V30 638 N 59.124 1.23083 0.984299 0
M  V30 639 C 60.372 1.05848 1.72165 0
M  V30 640 C 60.693 -0.406049 1.90726 0
M  V30 641 O 59.963 -1.29139 1.47309 0
M  V30 642 H 58.543 0.388685 0.637913 0
M  V30 643 H 61.205 1.54736 1.18503 0
M  V30 644 H 60.301 1.54327 2.71274 0
M  V30 645 N 60.6021 -1.18246 1.0419 0
M  V30 646 C 61.5341 -2.2142 0.592088 0
M  V30 647 C 62.5471 -1.59233 -0.338909 0
M  V30 648 O 63.7361 -1.78002 -0.133231 0
M  V30 649 C 60.8361 -3.38546 -0.154854 0
M  V30 650 C 60.0091 -4.3031 0.784328 0
M  V30 651 C 59.0681 -5.26138 0.0804583 0
M  V30 652 O 58.0941 -5.64738 0.711292 0
M  V30 653 N 59.2961 -5.68261 -1.18574 0
M  V30 654 H 62.0611 -2.60636 1.47949 0
M  V30 655 H 59.6221 -1.33044 0.922544 0
M  V30 656 H 61.6141 -3.99678 -0.635606 0
M  V30 657 H 60.1841 -2.98012 -0.943811 0
M  V30 658 H 59.4041 -3.66764 1.44491 0
M  V30 659 H 60.6921 -4.8852 1.42218 0
M  V30 660 H 60.0901 -5.38957 -1.71876 0
M  V30 661 H 58.6471 -6.31584 -1.61074 0
M  V30 662 N 62.0802 -0.821533 -1.34494 0
M  V30 663 C 63.4962 -0.507117 -1.51329 0
M  V30 664 C 63.6962 0.968964 -1.76673 0
M  V30 665 O 62.7522 1.75348 -1.81685 0
M  V30 666 C 64.0652 -1.36544 -2.67911 0
M  V30 667 C 65.6132 -1.36242 -2.81793 0
M  V30 668 C 66.0882 -2.2052 -4.01416 0
M  V30 669 N 67.5792 -2.18136 -4.08621 0
M  V30 670 C 68.3142 -2.80095 -5.00334 0
M  V30 671 N 67.8102 -3.51039 -5.9728 0
M  V30 672 N 69.6032 -2.69656 -4.93196 0
M  V30 673 H 61.7542 -1.77729 -1.16302 0
M  V30 674 H 64.0172 -0.757291 -0.570276 0
M  V30 675 H 63.7232 -2.41361 -2.55808 0
M  V30 676 H 63.5972 -1.02917 -3.62888 0
M  V30 677 H 65.9842 -0.322041 -2.93338 0
M  V30 678 H 66.0652 -1.73866 -1.87628 0
M  V30 679 H 65.7092 -3.24607 -3.90631 0
M  V30 680 H 65.6392 -1.80247 -4.94791 0
M  V30 681 H 68.1302 -1.6653 -3.39229 0
M  V30 682 H 68.4432 -3.95565 -6.63889 0
M  V30 683 H 66.7882 -3.55145 -5.97409 0
M  V30 684 H 69.9792 -2.13808 -4.16418 0
M  V30 685 H 70.1522 -3.1823 -5.64476 0
M  V30 686 N 63.5583 1.46682 -0.576371 0
M  V30 687 C 64.8043 2.03287 -0.0679305 0
M  V30 688 C 65.1593 1.44063 1.27529 0
M  V30 689 O 64.4523 0.593973 1.82161 0
M  V30 690 C 64.6463 3.57345 0.062886 0
M  V30 691 C 64.4753 4.31509 -1.26611 0
M  V30 692 C 63.2453 4.70664 -1.83856 0
M  V30 693 C 65.4433 4.65444 -2.18783 0
M  V30 694 N 63.4253 5.29552 -3.10561 0
M  V30 695 C 64.7963 5.24835 -3.30072 0
M  V30 696 C 66.8513 4.47375 -2.18542 0
M  V30 697 C 65.5543 5.68063 -4.41244 0
M  V30 698 C 67.5803 4.91614 -3.28739 0
M  V30 699 C 66.9423 5.51071 -4.38748 0
M  V30 700 H 63.0413 0.779083 -0.0674836 0
M  V30 701 H 65.6253 1.78918 -0.767877 0
M  V30 702 H 63.7963 3.8144 0.731988 0
M  V30 703 H 65.5283 4.00592 0.575134 0
M  V30 704 H 62.2833 4.53224 -1.37424 0
M  V30 705 H 62.7073 5.63523 -3.75195 0
M  V30 706 H 67.3493 4.00747 -1.34765 0
M  V30 707 H 65.0673 6.13672 -5.25768 0
M  V30 708 H 68.6533 4.79389 -3.29662 0
M  V30 709 H 67.5333 5.84678 -5.22611 0
M  V30 710 N 65.0364 0.313813 1.54444 0
M  V30 711 C 65.9464 -0.565714 2.27677 0
M  V30 712 C 66.9624 -1.13754 1.31666 0
M  V30 713 O 68.1384 -1.15959 1.64668 0
M  V30 714 C 65.2034 -1.71528 3.01296 0
M  V30 715 C 64.2644 -1.17624 4.12872 0
M  V30 716 C 63.4974 -2.27102 4.8297 0
M  V30 717 O 63.7204 -3.47256 4.52514 0
M  V30 718 O 62.6544 -1.9307 5.70094 0
M  V30 719 H 66.4804 0.0287296 3.03686 0
M  V30 720 H 64.0654 0.0798312 1.49187 0
M  V30 721 H 65.9474 -2.38476 3.4743 0
M  V30 722 H 64.6224 -2.29608 2.2817 0
M  V30 723 H 63.5294 -0.472124 3.71109 0
M  V30 724 H 64.8624 -0.640695 4.88012 0
M  V30 725 N 66.5145 -1.57545 0.0417849 0
M  V30 726 C 67.4445 -2.14009 -0.933929 0
M  V30 727 C 68.4255 -1.05938 -1.33083 0
M  V30 728 O 69.6105 -1.33833 -1.40721 0
M  V30 729 C 66.7405 -2.67747 -2.21199 0
M  V30 730 C 65.6945 -3.80718 -1.95544 0
M  V30 731 C 65.0205 -4.20935 -3.29724 0
M  V30 732 C 66.3205 -5.06258 -1.28452 0
M  V30 733 H 68.0145 -2.95788 -0.463645 0
M  V30 734 H 65.5605 -1.42285 -0.221573 0
M  V30 735 H 67.5135 -3.05886 -2.89848 0
M  V30 736 H 66.2375 -1.83147 -2.70416 0
M  V30 737 H 64.8965 -3.43037 -1.2931 0
M  V30 738 H 64.5445 -3.33298 -3.76724 0
M  V30 739 H 64.2445 -4.9707 -3.13361 0
M  V30 740 H 65.7685 -4.61666 -3.9962 0
M  V30 741 H 67.1825 -5.41903 -1.8712 0
M  V30 742 H 65.5795 -5.87475 -1.22445 0
M  V30 743 H 66.6495 -4.84207 -0.259219 0
M  V30 744 N 67.9926 0.231505 -1.5589 0
M  V30 745 C 68.9556 1.27028 -1.90779 0
M  V30 746 C 69.9556 1.40308 -0.785507 0
M  V30 747 O 71.1456 1.38744 -1.05336 0
M  V30 748 C 68.2776 2.64566 -2.14983 0
M  V30 749 H 69.4706 0.973017 -2.83677 0
M  V30 750 H 67.0236 0.471486 -1.49019 0
M  V30 751 H 67.7586 2.99406 -1.24604 0
M  V30 752 H 67.5436 2.56305 -2.96732 0
M  V30 753 H 69.0336 3.39543 -2.43105 0
M  V30 754 N 69.4707 1.49531 0.497807 0
M  V30 755 C 70.4007 1.6935 1.60757 0
M  V30 756 C 71.3817 0.542218 1.61227 0
M  V30 757 O 72.5667 0.778417 1.77917 0
M  V30 758 C 69.6967 1.76298 2.99226 0
M  V30 759 C 68.6507 2.91248 3.13622 0
M  V30 760 C 67.9767 2.83312 4.53474 0
M  V30 761 C 69.2767 4.3214 2.93346 0
M  V30 762 H 70.9707 2.62263 1.44425 0
M  V30 763 H 68.5167 1.26208 0.693367 0
M  V30 764 H 70.4697 1.88749 3.76765 0
M  V30 765 H 69.1937 0.799871 3.16654 0
M  V30 766 H 67.8527 2.78404 2.38509 0
M  V30 767 H 67.5007 1.84902 4.67782 0
M  V30 768 H 67.2007 3.60465 4.64046 0
M  V30 769 H 68.7247 2.97775 5.33069 0
M  V30 770 H 70.1387 4.45649 3.60652 0
M  V30 771 H 68.5357 5.1054 3.15387 0
M  V30 772 H 69.6057 4.46363 1.89441 0
M  V30 773 N 70.9488 -0.749086 1.3866 0
M  V30 774 C 72.1968 -1.50535 1.34847 0
M  V30 775 C 72.5178 -1.94909 -0.0595016 0
M  V30 776 O 71.7878 -1.67973 -1.00806 0
M  V30 777 H 70.3678 -0.558395 0.49619 0
M  V30 778 H 73.0298 -0.890165 1.73384 0
M  V30 779 H 72.1258 -2.39413 2.00219 0
M  V30 780 N 72.4269 -1.23603 -0.977757 0
M  V30 781 C 73.8429 -0.999251 -1.24447 0
M  V30 782 C 74.0429 0.298053 -1.99283 0
M  V30 783 O 73.0989 1.01681 -2.31122 0
M  V30 784 C 74.4119 -2.20784 -2.04144 0
M  V30 785 C 75.9599 -2.25303 -2.17273 0
M  V30 786 C 76.4349 -3.45755 -3.00362 0
M  V30 787 N 77.9259 -3.4601 -3.07947 0
M  V30 788 C 78.6609 -4.35868 -3.72568 0
M  V30 789 N 78.1569 -5.35966 -4.38991 0
M  V30 790 N 79.9499 -4.23605 -3.6948 0
M  V30 791 H 72.1009 -2.06986 -0.476483 0
M  V30 792 H 74.3639 -0.907801 -0.273134 0
M  V30 793 H 74.0699 -3.14945 -1.56533 0
M  V30 794 H 73.9439 -2.22085 -3.04891 0
M  V30 795 H 76.3309 -1.3168 -2.64092 0
M  V30 796 H 76.4119 -2.28033 -1.15907 0
M  V30 797 H 76.0559 -4.39687 -2.5424 0
M  V30 798 H 75.9859 -3.40266 -4.01904 0
M  V30 799 H 78.4769 -2.73588 -2.60688 0
M  V30 800 H 78.7899 -6.00783 -4.86086 0
M  V30 801 H 77.1349 -5.39863 -4.37691 0
M  V30 802 H 80.3259 -3.44647 -3.16759 0
M  V30 803 H 80.4989 -4.93836 -4.1956 0
M  V30 804 N 73.905 1.17692 -1.04816 0
M  V30 805 C 75.152 1.87859 -0.75599 0
M  V30 806 C 75.48 1.80812 0.716752 0
M  V30 807 O 74.735 1.20819 1.53952 0
M  V30 808 C 75.034 3.37462 -1.17703 0
M  V30 809 C 74.7 3.64713 -2.65133 0
M  V30 810 C 73.362 3.71859 -3.05408 0
M  V30 811 C 75.714 3.76492 -3.60421 0
M  V30 812 C 73.042 3.88271 -4.39843 0
M  V30 813 C 75.394 3.94421 -4.94585 0
M  V30 814 C 74.058 3.99806 -5.3452 0
M  V30 815 H 73.328 0.687425 -0.276636 0
M  V30 816 H 75.975 1.39255 -1.31455 0
M  V30 817 H 74.28 3.88097 -0.537395 0
M  V30 818 H 75.977 3.90109 -0.928218 0
M  V30 819 H 72.567 3.59772 -2.32942 0
M  V30 820 H 76.751 3.70295 -3.30447 0
M  V30 821 H 72.007 3.90687 -4.70291 0
M  V30 822 H 76.181 4.02477 -5.68318 0
M  V30 823 H 73.808 4.12276 -6.38696 0
M  V30 824 N 75.3831 0.828654 1.34056 0
M  V30 825 C 76.6291 0.429279 1.98818 0
M  V30 826 C 76.9841 -0.998011 1.64492 0
M  V30 827 O 76.2771 -1.68652 0.909228 0
M  V30 828 C 76.4711 0.575226 3.52741 0
M  V30 829 C 76.3001 2.01515 4.02022 0
M  V30 830 C 75.0701 2.64825 4.30344 0
M  V30 831 C 77.2681 2.98261 4.18981 0
M  V30 832 N 75.2501 3.99998 4.65698 0
M  V30 833 C 76.6211 4.18356 4.57578 0
M  V30 834 C 78.6761 2.94802 4.01243 0
M  V30 835 C 77.3791 5.35454 4.80293 0
M  V30 836 C 79.4051 4.11121 4.25128 0
M  V30 837 C 78.7671 5.29969 4.64018 0
M  V30 838 H 74.8661 0.205304 0.754569 0
M  V30 839 H 77.4501 1.07457 1.62361 0
M  V30 840 H 75.6211 -0.0401962 3.88379 0
M  V30 841 H 77.3531 0.148292 4.04428 0
M  V30 842 H 74.1081 2.16027 4.21461 0
M  V30 843 H 74.5321 4.69653 4.87601 0
M  V30 844 H 79.1741 2.04054 3.70299 0
M  V30 845 H 76.8921 6.26755 5.10102 0
M  V30 846 H 80.4781 4.0985 4.12934 0
M  V30 847 H 79.3581 6.18479 4.82134 0
M  V30 848 N 76.8612 -1.46375 0.584142 0
M  V30 849 C 78.1382 -1.956 0.0033388 0
M  V30 850 C 78.5182 -1.52679 -1.45782 0
M  V30 851 O 77.8662 -0.77816 -2.14842 0
M  V30 852 C 78.0762 -3.48551 0.176891 0
M  V30 853 C 79.4242 -4.24576 0.0454609 0
M  V30 854 O 80.4482 -3.56043 0.105801 0
M  V30 855 O 79.3072 -5.46427 -0.0890376 0
M  V30 856 H 76.4012 -0.825547 -0.0490066 0
M  V30 857 H 78.9472 -1.56652 0.65256 0
M  V30 858 H 77.7192 -3.72683 1.1926 0
M  V30 859 H 77.3422 -3.94332 -0.508695 0
M  V30 860 N 78.3393 -0.321999 -1.54275 0
M  V30 861 C 79.5693 0.282642 -2.04658 0
M  V30 862 C 79.9773 1.46453 -1.19784 0
M  V30 863 O 79.3203 1.82367 -0.220932 0
M  V30 864 C 79.3823 0.781857 -3.50895 0
M  V30 865 C 79.0463 -0.277517 -4.56157 0
M  V30 866 C 80.0433 -1.11307 -5.07845 0
M  V30 867 C 77.7283 -0.425256 -5.00497 0
M  V30 868 C 79.7223 -2.08211 -6.02434 0
M  V30 869 C 77.4093 -1.39771 -5.94901 0
M  V30 870 C 78.4073 -2.2246 -6.45756 0
M  V30 871 O 78.0953 -3.18054 -7.38307 0
M  V30 872 H 77.8273 0.0622636 -0.673126 0
M  V30 873 H 80.3813 -0.465792 -2.00049 0
M  V30 874 H 78.6113 1.58118 -3.52896 0
M  V30 875 H 80.3003 1.30467 -3.84361 0
M  V30 876 H 81.0663 -1.00991 -4.74369 0
M  V30 877 H 76.9453 0.20847 -4.60528 0
M  V30 878 H 80.4893 -2.72791 -6.42052 0
M  V30 879 H 76.3863 -1.50152 -6.27794 0
M  V30 880 H 77.1543 -3.13275 -7.56175 0
M  V30 881 N 79.8174 1.5752 -0.0501392 0
M  V30 882 C 80.7474 2.14502 0.922566 0
M  V30 883 C 81.7284 1.06642 1.3252 0
M  V30 884 O 82.9134 1.34577 1.4001 0
M  V30 885 C 80.0434 2.68916 2.19776 0
M  V30 886 C 78.9974 3.8175 1.93523 0
M  V30 887 C 78.3234 4.22677 3.27487 0
M  V30 888 C 79.6234 5.06932 1.25765 0
M  V30 889 H 81.3174 2.9603 0.447952 0
M  V30 890 H 78.8634 1.42401 0.214024 0
M  V30 891 H 80.8164 3.07419 2.88222 0
M  V30 892 H 79.5404 1.84578 2.69441 0
M  V30 893 H 78.1994 3.43718 1.27489 0
M  V30 894 H 77.8474 3.35291 3.74952 0
M  V30 895 H 77.5474 4.98725 3.1072 0
M  V30 896 H 79.0714 4.63779 3.97166 0
M  V30 897 H 80.4854 5.42888 1.84244 0
M  V30 898 H 78.8824 5.88116 1.19328 0
M  V30 899 H 79.9524 4.84337 0.233536 0
M  V30 900 N 81.2955 -0.223234 1.56011 0
M  V30 901 C 82.7115 -0.572856 1.48965 0
M  V30 902 C 82.9115 -1.87225 0.74492 0
M  V30 903 O 81.9675 -2.50899 0.283896 0
M  V30 904 C 83.2805 -0.653646 2.9351 0
M  V30 905 C 84.8285 -0.744386 3.0402 0
M  V30 906 C 85.3035 -0.856535 4.49919 0
M  V30 907 N 86.7945 -0.9208 4.53955 0
M  V30 908 C 87.5295 -1.02726 5.64123 0
M  V30 909 N 87.0255 -1.09777 6.84047 0
M  V30 910 N 88.8185 -1.06226 5.51971 0
M  V30 911 H 80.9695 0.629462 2.02858 0
M  V30 912 H 83.2325 0.220621 0.921971 0
M  V30 913 H 82.9385 0.231518 3.50937 0
M  V30 914 H 82.8125 -1.51781 3.45315 0
M  V30 915 H 85.1995 -1.61999 2.46658 0
M  V30 916 H 85.2805 0.14541 2.55386 0
M  V30 917 H 84.9245 0.0146069 5.07898 0
M  V30 918 H 84.8545 -1.76172 4.96257 0
M  V30 919 H 87.3455 -0.876694 3.6759 0
M  V30 920 H 87.6585 -1.17872 7.63758 0
M  V30 921 H 86.0035 -1.06693 6.86762 0
M  V30 922 H 89.1945 -1.00382 4.5721 0
M  V30 923 H 89.3675 -1.14177 6.37862 0
M  V30 924 N 82.7736 -1.49793 -0.48987 0
M  V30 925 C 84.0196 -1.61049 -1.24236 0
M  V30 926 C 84.3746 -0.298412 -1.90072 0
M  V30 927 O 83.6676 0.702262 -1.78266 0
M  V30 928 C 83.8616 -2.71488 -2.32441 0
M  V30 929 C 83.6906 -4.13308 -1.77218 0
M  V30 930 C 82.4606 -4.79955 -1.58023 0
M  V30 931 C 84.6586 -4.98176 -1.27772 0
M  V30 932 N 82.6406 -6.06052 -0.978465 0
M  V30 933 C 84.0116 -6.14843 -0.798 0
M  V30 934 C 86.0666 -4.84091 -1.16449 0
M  V30 935 C 84.7696 -7.18975 -0.216245 0
M  V30 936 C 86.7956 -5.88382 -0.596698 0
M  V30 937 C 86.1576 -7.04285 -0.127262 0
M  V30 938 H 82.2566 -0.643611 -0.444172 0
M  V30 939 H 84.8406 -1.86842 -0.54754 0
M  V30 940 H 83.0116 -2.47449 -2.99372 0
M  V30 941 H 84.7436 -2.72205 -2.99477 0
M  V30 942 H 81.4986 -4.36936 -1.82712 0
M  V30 943 H 81.9226 -6.73407 -0.696534 0
M  V30 944 H 86.5646 -3.94786 -1.5134 0
M  V30 945 H 84.2826 -8.0797 0.144903 0
M  V30 946 H 87.8686 -5.79545 -0.511716 0
M  V30 947 H 86.7486 -7.83606 0.30523 0
M  V30 948 N 84.2517 0.741722 -1.39055 0
M  V30 949 C 85.4977 1.50336 -1.36113 0
M  V30 950 C 85.8307 1.94148 0.0450796 0
M  V30 951 O 85.1057 1.66301 1.00868 0
M  V30 952 C 85.3887 2.74773 -2.32749 0
M  V30 953 C 85.2417 2.37023 -3.82283 0
M  V30 954 C 86.5607 3.76846 -2.27322 0
M  V30 955 H 83.6797 0.545351 -0.495743 0
M  V30 956 H 86.3217 0.848624 -1.69995 0
M  V30 957 H 84.4717 3.30639 -2.03986 0
M  V30 958 H 86.1437 1.8684 -4.21768 0
M  V30 959 H 84.3867 1.69334 -3.99385 0
M  V30 960 H 85.0577 3.26104 -4.45376 0
M  V30 961 H 87.5337 3.30548 -2.5274 0
M  V30 962 H 86.4097 4.6159 -2.97028 0
M  V30 963 H 86.6707 4.23286 -1.27599 0
M  V30 964 N 85.7298 1.2412 0.971189 0
M  V30 965 C 86.6618 0.988349 2.06795 0
M  V30 966 C 87.6748 -0.0409541 1.62748 0
M  V30 967 O 88.8638 0.195673 1.77424 0
M  V30 968 C 85.9638 0.469023 3.35639 0
M  V30 969 C 85.1368 1.56065 4.08611 0
M  V30 970 C 84.1958 1.04458 5.15728 0
M  V30 971 O 83.2218 1.73553 5.42096 0
M  V30 972 N 84.4238 -0.122817 5.8037 0
M  V30 973 H 87.1888 1.93265 2.29061 0
M  V30 974 H 84.7498 1.15102 1.13856 0
M  V30 975 H 86.7418 0.108613 4.04554 0
M  V30 976 H 85.3118 -0.380919 3.1027 0
M  V30 977 H 84.5318 2.09341 3.34021 0
M  V30 978 H 85.8198 2.29449 4.54126 0
M  V30 979 H 85.2178 -0.700563 5.61345 0
M  V30 980 H 83.7748 -0.424404 6.50417 0
M  V30 981 N 87.2079 -1.17134 1.05439 0
M  V30 982 C 88.4359 -1.91372 0.786414 0
M  V30 983 C 88.8509 -1.76955 -0.658202 0
M  V30 984 O 88.2079 -1.10838 -1.44987 0
M  V30 985 C 88.2589 -3.42356 1.1608 0
M  V30 986 O 87.9799 -3.56332 2.54871 0
M  V30 987 C 89.4809 -4.33663 0.919322 0
M  V30 988 H 86.7009 -0.607118 0.285743 0
M  V30 989 H 89.2449 -1.48525 1.40572 0
M  V30 990 H 87.3999 -3.82939 0.586191 0
M  V30 991 H 87.8139 -4.49896 2.69618 0
M  V30 992 H 89.2879 -5.38099 1.231 0
M  V30 993 H 89.7649 -4.38959 -0.145359 0
M  V30 994 H 90.3709 -3.98796 1.47789 0
M  V30 995 N 88.686 -0.835752 -1.33615 0
M  V30 996 C 89.616 -0.281739 -2.31794 0
M  V30 997 C 90.597 0.608833 -1.58831 0
M  V30 998 O 91.782 0.533035 -1.86741 0
M  V30 999 C 88.912 0.546612 -3.42971 0
M  V30 1000 C 87.866 -0.247904 -4.27281 0
M  V30 1001 C 87.192 0.704001 -5.30045 0
M  V30 1002 C 88.492 -1.46324 -5.01385 0
M  V30 1003 H 90.186 -1.10206 -2.78379 0
M  V30 1004 H 87.732 -0.531388 -1.33837 0
M  V30 1005 H 89.685 0.944467 -4.1068 0
M  V30 1006 H 88.409 1.40011 -2.95067 0
M  V30 1007 H 87.068 -0.627281 -3.61194 0
M  V30 1008 H 86.716 1.55381 -4.78399 0
M  V30 1009 H 86.416 0.176524 -5.87335 0
M  V30 1010 H 87.94 1.09944 -6.0062 0
M  V30 1011 H 89.354 -1.13871 -5.61877 0
M  V30 1012 H 87.751 -1.92728 -5.6831 0
M  V30 1013 H 88.821 -2.23467 -4.30338 0
M  V30 1014 N 90.1641 1.46063 -0.591896 0
M  V30 1015 C 91.3891 2.07226 -0.0850314 0
M  V30 1016 C 91.8141 1.43625 1.21463 0
M  V30 1017 O 91.1721 0.523305 1.73583 0
M  V30 1018 C 91.2201 3.60554 0.0576567 0
M  V30 1019 O 90.3241 3.97128 1.11188 0
M  V30 1020 H 89.6651 0.660615 -0.0669568 0
M  V30 1021 H 92.1951 1.8756 -0.81745 0
M  V30 1022 H 92.2051 4.07165 0.2609 0
M  V30 1023 H 90.8801 4.06235 -0.891416 0
M  V30 1024 H 89.4571 3.62213 0.886356 0
M  V30 1025 N 91.6422 0.330177 1.54103 0
M  V30 1026 C 92.5522 -0.541534 2.28264 0
M  V30 1027 C 93.5682 -1.12351 1.32866 0
M  V30 1028 O 94.7442 -1.14206 1.65888 0
M  V30 1029 C 91.8092 -1.68322 3.03098 0
M  V30 1030 C 90.8702 -1.13238 4.14096 0
M  V30 1031 C 90.1032 -2.21966 4.85352 0
M  V30 1032 O 90.3262 -3.42437 4.56172 0
M  V30 1033 O 89.2602 -1.87013 5.7211 0
M  V30 1034 H 93.0862 0.060938 3.03639 0
M  V30 1035 H 90.6712 0.09565 1.49093 0
M  V30 1036 H 92.5532 -2.34777 3.49939 0
M  V30 1037 H 91.2282 -2.27176 2.30593 0
M  V30 1038 H 90.1352 -0.432736 3.71589 0
M  V30 1039 H 91.4682 -0.588898 4.88664 0
M  V30 1040 N 93.1203 -1.57491 0.0584922 0
M  V30 1041 C 94.0523 -2.08916 -0.942694 0
M  V30 1042 C 95.0653 -1.0185 -1.27006 0
M  V30 1043 O 96.2543 -1.29398 -1.22957 0
M  V30 1044 C 93.3543 -2.52341 -2.26224 0
M  V30 1045 C 92.5273 -3.82827 -2.1157 0
M  V30 1046 C 91.5863 -4.12487 -3.26712 0
M  V30 1047 O 90.6123 -4.82295 -3.02292 0
M  V30 1048 N 91.8143 -3.64978 -4.5141 0
M  V30 1049 H 94.5793 -2.95437 -0.503722 0
M  V30 1050 H 92.1403 -1.61397 -0.12757 0
M  V30 1051 H 94.1323 -2.69254 -3.02133 0
M  V30 1052 H 92.7023 -1.7103 -2.61663 0
M  V30 1053 H 91.9223 -3.75425 -1.20208 0
M  V30 1054 H 93.2103 -4.68263 -1.99015 0
M  V30 1055 H 92.6083 -3.08558 -4.7414 0
M  V30 1056 H 91.1653 -3.87115 -5.2439 0
M  V30 1057 N 94.5984 0.214957 -1.56127 0
M  V30 1058 C 95.8444 0.939762 -1.79712 0
M  V30 1059 C 96.1774 1.83723 -0.629247 0
M  V30 1060 O 95.4524 1.90925 0.371197 0
M  V30 1061 C 95.7354 1.77306 -3.13424 0
M  V30 1062 C 95.5884 0.90164 -4.40671 0
M  V30 1063 C 96.9074 2.74956 -3.43638 0
M  V30 1064 H 94.0264 0.340214 -0.653776 0
M  V30 1065 H 96.6684 0.20824 -1.88855 0
M  V30 1066 H 94.8184 2.39673 -3.0576 0
M  V30 1067 H 96.4904 0.294206 -4.60361 0
M  V30 1068 H 94.7334 0.207368 -4.33304 0
M  V30 1069 H 95.4044 1.51923 -5.30682 0
M  V30 1070 H 97.8804 2.22724 -3.51473 0
M  V30 1071 H 96.7564 3.30358 -4.38355 0
M  V30 1072 H 97.0174 3.53023 -2.66134 0
M  V30 1073 N 96.0765 1.50051 0.48192 0
M  V30 1074 C 97.0085 1.64263 1.59844 0
M  V30 1075 C 98.0215 0.52451 1.54119 0
M  V30 1076 O 99.2105 0.797293 1.59704 0
M  V30 1077 C 96.3105 1.60102 2.98698 0
M  V30 1078 C 95.4835 2.87767 3.29407 0
M  V30 1079 C 94.5425 2.76397 4.47762 0
M  V30 1080 O 93.5685 3.50348 4.48603 0
M  V30 1081 N 94.7705 1.89222 5.48794 0
M  V30 1082 H 97.5355 2.60566 1.48073 0
M  V30 1083 H 95.0965 1.47379 0.670149 0
M  V30 1084 H 97.0885 1.50123 3.75826 0
M  V30 1085 H 95.6585 0.715798 3.04294 0
M  V30 1086 H 94.8785 3.11954 2.40994 0
M  V30 1087 H 96.1665 3.72365 3.4673 0
M  V30 1088 H 95.5645 1.28434 5.50928 0
M  V30 1089 H 94.1215 1.85154 6.24949 0
M  V30 1090 N 97.5546 -0.734337 1.39446 0
M  V30 1091 C 98.4646 -1.87879 1.40495 0
M  V30 1092 C 99.4806 -1.714 0.299672 0
M  V30 1093 O 100.657 -1.93991 0.541249 0
M  V30 1094 C 97.7216 -3.23477 1.24754 0
M  V30 1095 C 96.7826 -3.52344 2.45259 0
M  V30 1096 C 96.0156 -4.81473 2.30259 0
M  V30 1097 O 96.2386 -5.55237 1.30643 0
M  V30 1098 O 95.1726 -5.10254 3.19256 0
M  V30 1099 H 98.9986 -1.89949 2.36966 0
M  V30 1100 H 96.5836 -0.882243 1.20569 0
M  V30 1101 H 98.4656 -4.04509 1.18111 0
M  V30 1102 H 97.1406 -3.22176 0.313781 0
M  V30 1103 H 96.0476 -2.71396 2.57478 0
M  V30 1104 H 97.3806 -3.58426 3.37331 0
M  V30 1105 N 99.0327 -1.24633 -0.964593 0
M  V30 1106 C 99.9427 -1.05859 -2.09359 0
M  V30 1107 C 100.959 0.00148855 -1.74 0
M  V30 1108 O 102.135 -0.197346 -2.00431 0
M  V30 1109 C 99.1997 -0.668879 -3.40187 0
M  V30 1110 C 98.2607 -1.80578 -3.89474 0
M  V30 1111 C 97.4937 -1.43457 -5.14058 0
M  V30 1112 O 97.7167 -0.325775 -5.69469 0
M  V30 1113 O 96.6507 -2.2613 -5.57807 0
M  V30 1114 H 100.477 -2.00516 -2.28094 0
M  V30 1115 H 98.0617 -1.03481 -1.0776 0
M  V30 1116 H 99.9437 -0.463211 -4.18846 0
M  V30 1117 H 98.6187 0.248536 -3.22744 0
M  V30 1118 H 97.5257 -2.06623 -3.11862 0
M  V30 1119 H 98.8587 -2.70208 -4.11398 0
M  V30 1120 N 100.511 1.16574 -1.06058 0
M  V30 1121 C 101.441 2.23057 -0.690488 0
M  V30 1122 C 102.422 1.67141 0.315901 0
M  V30 1123 O 103.607 1.93253 0.191556 0
M  V30 1124 C 100.737 3.47222 -0.073625 0
M  V30 1125 C 99.6908 4.16016 -1.00573 0
M  V30 1126 C 99.0168 5.34104 -0.252289 0
M  V30 1127 C 100.317 4.67264 -2.33371 0
M  V30 1128 H 102.011 2.54271 -1.58072 0
M  V30 1129 H 99.5568 1.22218 -0.76149 0
M  V30 1130 H 101.51 4.20939 0.19714 0
M  V30 1131 H 100.234 3.15302 0.85161 0
M  V30 1132 H 98.8928 3.44223 -1.2612 0
M  V30 1133 H 98.5408 4.98437 0.675988 0
M  V30 1134 H 98.2408 5.81072 -0.873455 0
M  V30 1135 H 99.7648 6.10599 0.0109857 0
M  V30 1136 H 101.179 5.32573 -2.12223 0
M  V30 1137 H 99.5758 5.24843 -2.90963 0
M  V30 1138 H 100.646 3.83602 -2.96611 0
M  V30 1139 N 101.989 0.842826 1.3317 0
M  V30 1140 C 102.919 0.294028 2.31641 0
M  V30 1141 C 103.9 -0.600401 1.59151 0
M  V30 1142 O 105.085 -0.523124 1.87022 0
M  V30 1143 C 102.215 -0.528416 3.43257 0
M  V30 1144 C 101.169 0.27056 4.27144 0
M  V30 1145 C 100.495 -0.675881 5.30411 0
M  V30 1146 C 101.795 1.48981 5.00602 0
M  V30 1147 H 103.489 1.11681 2.77791 0
M  V30 1148 H 101.035 0.538478 1.33553 0
M  V30 1149 H 102.988 -0.922674 4.11175 0
M  V30 1150 H 101.712 -1.38445 2.95805 0
M  V30 1151 H 100.371 0.646427 3.60856 0
M  V30 1152 H 100.019 -1.52842 4.79216 0
M  V30 1153 H 99.7189 -0.145374 5.8742 0
M  V30 1154 H 101.243 -1.06757 6.01195 0
M  V30 1155 H 102.657 1.16849 5.61266 0
M  V30 1156 H 101.054 1.95739 5.6728 0
M  V30 1157 H 102.124 2.25746 4.29147 0
M  V30 1158 N 103.467 -1.45747 0.599634 0
M  V30 1159 C 104.692 -2.07178 0.0960198 0
M  V30 1160 C 105.117 -1.44268 -1.207 0
M  V30 1161 O 104.475 -0.532503 -1.73303 0
M  V30 1162 C 104.523 -3.60579 -0.0385348 0
M  V30 1163 O 103.627 -3.97713 -1.0908 0
M  V30 1164 H 102.968 -0.660251 0.0704593 0
M  V30 1165 H 105.498 -1.87124 0.827385 0
M  V30 1166 H 105.508 -4.07298 -0.239304 0
M  V30 1167 H 104.183 -4.05756 0.912947 0
M  V30 1168 H 102.76 -3.62678 -0.867135 0
M  V30 1169 N 104.945 -0.338344 -1.53925 0
M  V30 1170 C 106.17 0.263987 -2.05713 0
M  V30 1171 C 106.595 1.43847 -1.21201 0
M  V30 1172 O 105.953 1.79904 -0.224535 0
M  V30 1173 C 106.001 0.662 -3.54471 0
M  V30 1174 O 105.105 1.76265 -3.72833 0
M  V30 1175 H 104.446 0.0448722 -0.662482 0
M  V30 1176 H 106.976 -0.491048 -1.9862 0
M  V30 1177 H 106.986 0.940594 -3.9701 0
M  V30 1178 H 105.661 -0.196937 -4.15433 0
M  V30 1179 H 104.238 1.48173 -3.42198 0
M  V30 1180 N 106.423 1.57458 -0.0668435 0
M  V30 1181 C 107.355 2.09413 0.931601 0
M  V30 1182 C 108.368 1.02522 1.26464 0
M  V30 1183 O 109.557 1.30049 1.22269 0
M  V30 1184 C 106.657 2.53537 2.24882 0
M  V30 1185 C 105.83 3.83944 2.09537 0
M  V30 1186 C 104.889 4.14214 3.2452 0
M  V30 1187 O 103.915 4.83891 2.9973 0
M  V30 1188 N 105.117 3.67367 4.49469 0
M  V30 1189 H 107.882 2.95699 0.488048 0
M  V30 1190 H 105.443 1.61462 0.119009 0
M  V30 1191 H 107.435 2.70853 3.00701 0
M  V30 1192 H 106.005 1.72415 2.60753 0
M  V30 1193 H 105.225 3.76057 1.18215 0
M  V30 1194 H 106.513 4.69312 1.96529 0
M  V30 1195 H 105.911 3.11068 4.72497 0
M  V30 1196 H 104.468 3.89891 5.2233 0
M  V30 1197 N 107.901 -0.206675 1.56239 0
M  V30 1198 C 109.147 -0.930218 1.80208 0
M  V30 1199 C 109.48 -1.83387 0.638981 0
M  V30 1200 O 108.755 -1.91119 -0.361066 0
M  V30 1201 C 109.038 -1.75641 3.1436 0
M  V30 1202 C 108.891 -0.878257 4.41142 0
M  V30 1203 C 110.21 -2.73129 3.45092 0
M  V30 1204 H 107.329 -0.336742 0.655571 0
M  V30 1205 H 109.971 -0.198222 1.88963 0
M  V30 1206 H 108.121 -2.38048 3.07027 0
M  V30 1207 H 109.793 -0.269787 4.6051 0
M  V30 1208 H 108.036 -0.184385 4.33408 0
M  V30 1209 H 108.707 -1.49106 5.3148 0
M  V30 1210 H 111.183 -2.20856 3.52649 0
M  V30 1211 H 110.059 -3.28028 4.40101 0
M  V30 1212 H 110.32 -3.51606 2.68003 0
M  V30 1213 N 109.379 -1.50304 -0.473955 0
M  V30 1214 C 110.607 -1.64902 -1.24959 0
M  V30 1215 C 111.022 -0.331198 -1.85872 0
M  V30 1216 O 110.379 0.68652 -1.69095 0
M  V30 1217 C 110.43 -2.73803 -2.36038 0
M  V30 1218 O 110.151 -4.00477 -1.77624 0
M  V30 1219 C 111.652 -2.99349 -3.26964 0
M  V30 1220 H 108.872 -0.554383 -0.378022 0
M  V30 1221 H 111.416 -1.9651 -0.566054 0
M  V30 1222 H 109.571 -2.44898 -3.00173 0
M  V30 1223 H 109.985 -4.60678 -2.5075 0
M  V30 1224 H 111.459 -3.79217 -4.01121 0
M  V30 1225 H 111.936 -2.10307 -3.85574 0
M  V30 1226 H 112.542 -3.29774 -2.68569 0
M  V30 1227 N 110.857 0.726932 -1.39834 0
M  V30 1228 C 111.789 1.85147 -1.35104 0
M  V30 1229 C 112.802 1.60736 -0.258392 0
M  V30 1230 O 113.991 1.70821 -0.517931 0
M  V30 1231 C 111.091 3.21332 -1.07697 0
M  V30 1232 C 110.264 3.73033 -2.28396 0
M  V30 1233 C 109.323 4.87802 -1.97322 0
M  V30 1234 O 108.349 5.01043 -2.70083 0
M  V30 1235 N 109.551 5.72768 -0.944273 0
M  V30 1236 H 112.316 1.89706 -2.32017 0
M  V30 1237 H 109.877 0.908006 -1.3404 0
M  V30 1238 H 111.869 3.95691 -0.849144 0
M  V30 1239 H 110.439 3.11992 -0.194909 0
M  V30 1240 H 109.659 2.89934 -2.6708 0
M  V30 1241 H 110.947 4.0431 -3.08887 0
M  V30 1242 H 110.345 5.64669 -0.341427 0
M  V30 1243 H 108.902 6.4716 -0.776346 0
M  V30 1244 N 112.336 1.25143 0.95797 0
M  V30 1245 C 113.246 1.06968 2.08794 0
M  V30 1246 C 114.262 0.00773911 1.73998 0
M  V30 1247 O 115.438 0.207972 2.00323 0
M  V30 1248 C 112.503 0.68691 3.39827 0
M  V30 1249 C 111.564 1.82641 3.88511 0
M  V30 1250 C 110.797 1.46181 5.1329 0
M  V30 1251 O 111.02 0.355971 5.69288 0
M  V30 1252 O 109.954 2.29085 5.566 0
M  V30 1253 H 113.78 2.01723 2.27027 0
M  V30 1254 H 111.365 1.04051 1.07209 0
M  V30 1255 H 113.247 0.485417 4.18595 0
M  V30 1256 H 111.922 -0.231417 3.22872 0
M  V30 1257 H 110.829 2.08274 3.10762 0
M  V30 1258 H 112.162 2.72386 4.09959 0
M  V30 1259 N 113.814 -1.1601 1.06675 0
M  V30 1260 C 114.744 -2.22688 0.702307 0
M  V30 1261 C 115.725 -1.67306 -0.307032 0
M  V30 1262 O 116.91 -1.93352 -0.181305 0
M  V30 1263 C 114.04 -3.47178 0.092038 0
M  V30 1264 C 112.994 -4.15477 1.02777 0
M  V30 1265 C 112.32 -5.33963 0.28061 0
M  V30 1266 C 113.62 -4.66019 2.35846 0
M  V30 1267 H 115.314 -2.53429 1.59419 0
M  V30 1268 H 112.86 -1.21813 0.767961 0
M  V30 1269 H 114.813 -4.21037 -0.174814 0
M  V30 1270 H 113.537 -3.15749 -0.834877 0
M  V30 1271 H 112.196 -3.43549 1.27944 0
M  V30 1272 H 111.844 -4.98788 -0.649545 0
M  V30 1273 H 111.544 -5.806 0.904258 0
M  V30 1274 H 113.068 -6.10596 0.021396 0
M  V30 1275 H 114.482 -5.3144 2.15045 0
M  V30 1276 H 112.879 -5.23293 2.93743 0
M  V30 1277 H 113.949 -3.82023 2.98641 0
M  V30 1278 N 115.292 -0.849877 -1.32721 0
M  V30 1279 C 116.708 -0.539102 -1.50219 0
M  V30 1280 C 116.908 0.931271 -1.78689 0
M  V30 1281 O 115.964 1.71455 -1.85363 0
M  V30 1282 C 117.277 -1.42196 -2.64954 0
M  V30 1283 C 118.825 -1.42189 -2.78839 0
M  V30 1284 C 119.3 -2.28985 -3.96648 0
M  V30 1285 N 120.791 -2.26754 -4.03902 0
M  V30 1286 C 121.526 -2.90644 -4.94281 0
M  V30 1287 N 121.022 -3.63629 -5.897 0
M  V30 1288 N 122.815 -2.80057 -4.87365 0
M  V30 1289 H 114.966 -1.80156 -1.12506 0
M  V30 1290 H 117.229 -0.769217 -0.554085 0
M  V30 1291 H 116.935 -2.46733 -2.50631 0
M  V30 1292 H 116.809 -1.10591 -3.60624 0
M  V30 1293 H 119.196 -0.38419 -2.92588 0
M  V30 1294 H 119.277 -1.77807 -1.83898 0
M  V30 1295 H 118.921 -3.32819 -3.83658 0
M  V30 1296 H 118.851 -1.90702 -4.90857 0
M  V30 1297 H 121.342 -1.73688 -3.3562 0
M  V30 1298 H 121.655 -4.09558 -6.55349 0
M  V30 1299 H 120 -3.67737 -5.89741 0
M  V30 1300 H 123.191 -2.22593 -4.11789 0
M  V30 1301 H 123.364 -3.30132 -5.57599 0
M  V30 1302 N 116.77 1.45427 -0.607355 0
M  V30 1303 C 117.733 2.28974 0.101693 0
M  V30 1304 C 118.733 1.39754 0.795329 0
M  V30 1305 O 119.923 1.61878 0.643527 0
M  V30 1306 C 117.055 3.20768 1.15414 0
M  V30 1307 H 118.248 2.93147 -0.632844 0
M  V30 1308 H 115.801 1.51945 -0.366391 0
M  V30 1309 H 116.536 2.61395 1.91945 0
M  V30 1310 H 116.321 3.86489 0.66098 0
M  V30 1311 H 117.811 3.83589 1.65073 0
M  V30 1312 N 118.248 0.346503 1.53744 0
M  V30 1313 C 119.178 -0.501193 2.28058 0
M  V30 1314 C 120.159 -1.10014 1.29734 0
M  V30 1315 O 121.344 -1.12097 1.58581 0
M  V30 1316 C 118.474 -1.65078 3.05559 0
M  V30 1317 C 117.428 -1.18003 4.11411 0
M  V30 1318 C 116.754 -2.41837 4.76884 0
M  V30 1319 C 118.054 -0.278394 5.21558 0
M  V30 1320 H 119.748 0.11875 2.99164 0
M  V30 1321 H 117.294 0.0585531 1.43881 0
M  V30 1322 H 119.247 -2.25028 3.56287 0
M  V30 1323 H 117.971 -2.29767 2.32109 0
M  V30 1324 H 116.63 -0.603331 3.61601 0
M  V30 1325 H 116.278 -3.0494 4.00026 0
M  V30 1326 H 115.978 -2.1102 5.48402 0
M  V30 1327 H 117.502 -3.02508 5.30397 0
M  V30 1328 H 118.916 -0.784823 5.67903 0
M  V30 1329 H 117.313 -0.0619707 6.00068 0
M  V30 1330 H 118.383 0.684677 4.80042 0
M  V30 1331 N 119.726 -1.57421 0.075193 0
M  V30 1332 C 120.659 -2.08528 -0.926904 0
M  V30 1333 C 121.637 -0.991171 -1.28898 0
M  V30 1334 O 122.821 -1.26479 -1.39769 0
M  V30 1335 C 119.948 -2.54576 -2.23402 0
M  V30 1336 C 118.994 -3.75454 -2.02327 0
M  V30 1337 S 119.827 -5.19989 -1.27951 0
M  V30 1338 C 120.983 -5.69372 -2.59935 0
M  V30 1339 H 121.216 -2.932 -0.492048 0
M  V30 1340 H 118.749 -1.53785 -0.137651 0
M  V30 1341 H 120.707 -2.81767 -2.98526 0
M  V30 1342 H 119.368 -1.70166 -2.64012 0
M  V30 1343 H 118.561 -4.05675 -2.99071 0
M  V30 1344 H 118.163 -3.48654 -1.35339 0
M  V30 1345 H 120.455 -5.76424 -3.56008 0
M  V30 1346 H 121.398 -6.68207 -2.34319 0
M  V30 1347 H 121.806 -4.97205 -2.67296 0
M  V30 1348 N 121.204 0.198386 -1.56346 0
M  V30 1349 C 122.481 0.944982 -1.71258 0
M  V30 1350 C 122.861 2.0151 -0.629048 0
M  V30 1351 O 122.209 2.25639 0.360473 0
M  V30 1352 C 122.419 1.5344 -3.1346 0
M  V30 1353 C 123.767 2.01778 -3.73591 0
M  V30 1354 O 124.791 1.63288 -3.16568 0
M  V30 1355 O 123.65 2.72594 -4.73661 0
M  V30 1356 H 120.744 0.442939 -0.69838 0
M  V30 1357 H 123.29 0.188342 -1.68652 0
M  V30 1358 H 122.062 0.762869 -3.83792 0
M  V30 1359 H 121.685 2.35596 -3.20282 0
M  V30 1360 N 122.682 1.50554 0.465978 0
M  V30 1361 C 123.592 1.72585 1.58907 0
M  V30 1362 C 124.608 0.60911 1.6299 0
M  V30 1363 O 125.784 0.88804 1.80765 0
M  V30 1364 C 122.849 1.81995 2.95091 0
M  V30 1365 C 121.91 3.05751 3.01355 0
M  V30 1366 C 121.143 3.14702 4.31043 0
M  V30 1367 O 121.366 2.30313 5.21835 0
M  V30 1368 O 120.3 4.07468 4.43005 0
M  V30 1369 H 124.126 2.67799 1.43239 0
M  V30 1370 H 121.711 1.34711 0.646013 0
M  V30 1371 H 123.593 1.90335 3.75966 0
M  V30 1372 H 122.268 0.899659 3.10947 0
M  V30 1373 H 121.175 3.02908 2.19539 0
M  V30 1374 H 122.508 3.97375 2.90437 0
M  V30 1375 N 124.16 -0.719506 1.40217 0
M  V30 1376 C 125.388 -1.50864 1.41589 0
M  V30 1377 C 125.803 -1.88794 0.0145275 0
M  V30 1378 O 125.16 -1.55174 -0.960594 0
M  V30 1379 C 125.211 -2.78646 2.30302 0
M  V30 1380 O 124.932 -2.42321 3.64983 0
M  V30 1381 C 126.433 -3.72569 2.40224 0
M  V30 1382 H 123.653 -0.465709 0.48307 0
M  V30 1383 H 126.197 -0.88785 1.84221 0
M  V30 1384 H 124.352 -3.37019 1.91042 0
M  V30 1385 H 124.766 -3.24514 4.12057 0
M  V30 1386 H 126.24 -4.5908 3.06512 0
M  V30 1387 H 126.717 -4.15403 1.42608 0
M  V30 1388 H 127.323 -3.20109 2.80019 0
M  V30 1389 N 125.638 -1.25649 -0.95132 0
M  V30 1390 C 126.571 -1.00644 -2.04807 0
M  V30 1391 C 127.549 0.0654271 -1.62468 0
M  V30 1392 O 128.733 -0.074911 -1.88351 0
M  V30 1393 C 125.86 -0.522052 -3.34653 0
M  V30 1394 C 124.906 -1.58495 -3.95957 0
M  V30 1395 S 125.739 -3.17108 -4.31512 0
M  V30 1396 C 126.895 -2.70412 -5.64471 0
M  V30 1397 H 127.128 -1.93508 -2.25703 0
M  V30 1398 H 124.661 -1.09216 -1.09139 0
M  V30 1399 H 126.619 -0.24923 -4.09743 0
M  V30 1400 H 125.28 0.386146 -3.11717 0
M  V30 1401 H 124.473 -1.1968 -4.89584 0
M  V30 1402 H 124.075 -1.80862 -3.2736 0
M  V30 1403 H 126.367 -2.14245 -6.42733 0
M  V30 1404 H 127.31 -3.62693 -6.08161 0
M  V30 1405 H 127.718 -2.10302 -5.23864 0
M  V30 1406 N 127.117 1.15442 -1.07289 0
M  V30 1407 C 128.064 2.20161 -0.692653 0
M  V30 1408 C 129.034 1.63073 0.31564 0
M  V30 1409 O 130.219 1.89725 0.202235 0
M  V30 1410 C 127.359 3.44967 -0.0959509 0
M  V30 1411 C 126.472 4.16256 -1.15564 0
M  V30 1412 C 125.607 5.28609 -0.524011 0
M  V30 1413 C 124.646 5.91715 -1.56653 0
M  V30 1414 N 123.783 6.9554 -0.957531 0
M  V30 1415 H 128.623 2.52037 -1.59002 0
M  V30 1416 H 126.16 1.2378 -0.794798 0
M  V30 1417 H 128.118 4.16341 0.267628 0
M  V30 1418 H 126.748 3.1361 0.764772 0
M  V30 1419 H 125.8 3.43385 -1.6368 0
M  V30 1420 H 127.112 4.59268 -1.94613 0
M  V30 1421 H 126.266 6.06604 -0.108032 0
M  V30 1422 H 125.005 4.86787 0.29825 0
M  V30 1423 H 124.01 5.12433 -1.9923 0
M  V30 1424 H 125.235 6.35614 -2.39107 0
M  V30 1425 H 123.181 6.55814 -0.156162 0
M  V30 1426 H 123.098 7.36977 -1.68526 0
M  V30 1427 H 124.366 7.77435 -0.567032 0
M  V30 1428 N 128.595 0.856903 1.32268 0
M  V30 1429 C 129.505 0.306131 2.32594 0
M  V30 1430 C 130.521 -0.577209 1.64147 0
M  V30 1431 O 131.697 -0.477043 1.95669 0
M  V30 1432 C 128.762 -0.494561 3.43154 0
M  V30 1433 C 127.823 0.415186 4.27288 0
M  V30 1434 C 127.056 -0.347387 5.32568 0
M  V30 1435 O 127.279 -1.57708 5.48165 0
M  V30 1436 O 126.213 0.287982 6.01211 0
M  V30 1437 H 130.039 1.13737 2.81598 0
M  V30 1438 H 127.624 0.619902 1.35932 0
M  V30 1439 H 129.506 -0.948944 4.10576 0
M  V30 1440 H 128.181 -1.30257 2.96336 0
M  V30 1441 H 127.088 0.917793 3.62667 0
M  V30 1442 H 128.421 1.18844 4.77637 0
M  V30 1443 N 130.073 -1.45103 0.615059 0
M  V30 1444 C 131.003 -2.33339 -0.0865619 0
M  V30 1445 C 131.984 -1.4727 -0.851209 0
M  V30 1446 O 133.169 -1.76026 -0.820281 0
M  V30 1447 C 130.299 -3.30095 -1.07956 0
M  V30 1448 C 129.253 -4.25858 -0.427628 0
M  V30 1449 C 128.579 -5.12361 -1.5294 0
M  V30 1450 C 129.879 -5.18165 0.655944 0
M  V30 1451 H 131.573 -2.92254 0.650224 0
M  V30 1452 H 129.119 -1.40532 0.314138 0
M  V30 1453 H 131.072 -3.90698 -1.57901 0
M  V30 1454 H 129.796 -2.69355 -1.84703 0
M  V30 1455 H 128.455 -3.66564 0.0510292 0
M  V30 1456 H 128.103 -4.47984 -2.28734 0
M  V30 1457 H 127.803 -5.77238 -1.09865 0
M  V30 1458 H 129.327 -5.75833 -2.03098 0
M  V30 1459 H 130.741 -5.72796 0.240257 0
M  V30 1460 H 129.138 -5.91559 1.00888 0
M  V30 1461 H 130.208 -4.60144 1.52957 0
M  V30 1462 N 131.551 -0.354651 -1.53558 0
M  V30 1463 C 132.498 0.496968 -2.25386 0
M  V30 1464 C 133.468 1.0865 -1.25636 0
M  V30 1465 O 134.653 1.12104 -1.54394 0
M  V30 1466 C 131.793 1.63637 -3.03837 0
M  V30 1467 C 130.906 1.07307 -4.18461 0
M  V30 1468 C 130.041 2.18068 -4.84376 0
M  V30 1469 C 129.08 1.59147 -5.91049 0
M  V30 1470 N 128.217 2.63695 -6.50699 0
M  V30 1471 H 133.057 -0.122075 -2.9775 0
M  V30 1472 H 130.594 -0.0720154 -1.46924 0
M  V30 1473 H 132.552 2.30734 -3.47589 0
M  V30 1474 H 131.182 2.22623 -2.33749 0
M  V30 1475 H 130.234 0.292708 -3.79272 0
M  V30 1476 H 131.546 0.602193 -4.95152 0
M  V30 1477 H 130.7 2.93007 -5.31255 0
M  V30 1478 H 129.439 2.68504 -4.07133 0
M  V30 1479 H 128.444 0.827175 -5.43542 0
M  V30 1480 H 129.669 1.09549 -6.70206 0
M  V30 1481 H 127.615 3.13365 -5.76315 0
M  V30 1482 H 127.532 2.21263 -7.22896 0
M  V30 1483 H 128.8 3.3837 -7.02229 0
M  V30 1484 N 133.029 1.57378 -0.0835403 0
M  V30 1485 C 133.992 2.12252 0.864959 0
M  V30 1486 C 134.992 1.04916 1.21858 0
M  V30 1487 O 136.182 1.30853 1.14991 0
M  V30 1488 C 133.314 2.63358 2.16461 0
M  V30 1489 H 134.507 2.97371 0.388676 0
M  V30 1490 H 132.06 1.55423 0.165317 0
M  V30 1491 H 132.795 1.81727 2.686 0
M  V30 1492 H 132.58 3.41826 1.92087 0
M  V30 1493 H 134.07 3.05847 2.84337 0
M  V30 1494 N 134.507 -0.190092 1.56449 0
M  V30 1495 C 135.737 -0.92443 1.84764 0
M  V30 1496 C 136.145 -1.77146 0.664529 0
M  V30 1497 O 135.488 -1.79812 -0.375957 0
M  V30 1498 C 135.55 -1.86651 3.07248 0
M  V30 1499 C 135.214 -1.20094 4.40938 0
M  V30 1500 C 136.211 -0.575445 5.16706 0
M  V30 1501 C 133.896 -1.2033 4.87674 0
M  V30 1502 C 135.89 0.0388111 6.37388 0
M  V30 1503 C 133.577 -0.585214 6.08291 0
M  V30 1504 C 134.575 0.0347578 6.82991 0
M  V30 1505 O 134.263 0.643147 8.01323 0
M  V30 1506 H 133.995 -0.274974 0.617548 0
M  V30 1507 H 136.549 -0.200788 2.04416 0
M  V30 1508 H 134.779 -2.62998 2.83494 0
M  V30 1509 H 136.468 -2.46907 3.22167 0
M  V30 1510 H 137.234 -0.565728 4.81689 0
M  V30 1511 H 133.113 -1.67526 4.29484 0
M  V30 1512 H 136.657 0.523329 6.95634 0
M  V30 1513 H 132.554 -0.592451 6.42775 0
M  V30 1514 H 133.322 0.540545 8.16713 0
M  V30 1515 N 135.985 -1.50799 -0.457987 0
M  V30 1516 C 136.932 -1.70617 -1.5543 0
M  V30 1517 C 137.902 -0.547562 -1.56815 0
M  V30 1518 O 139.087 -0.779647 -1.74144 0
M  V30 1519 C 136.227 -1.81831 -2.93311 0
M  V30 1520 C 135.34 -3.09278 -3.01615 0
M  V30 1521 C 134.475 -3.11209 -4.30491 0
M  V30 1522 C 133.514 -4.33055 -4.32585 0
M  V30 1523 N 132.651 -4.32652 -5.52952 0
M  V30 1524 H 137.491 -2.64207 -1.37836 0
M  V30 1525 H 135.028 -1.30959 -0.669937 0
M  V30 1526 H 136.986 -1.86314 -3.73287 0
M  V30 1527 H 135.616 -0.916685 -3.0951 0
M  V30 1528 H 134.668 -3.14203 -2.1443 0
M  V30 1529 H 135.98 -3.99233 -2.99022 0
M  V30 1530 H 135.134 -3.14494 -5.18824 0
M  V30 1531 H 133.873 -2.19106 -4.35711 0
M  V30 1532 H 132.878 -4.29969 -3.42647 0
M  V30 1533 H 134.103 -5.264 -4.29046 0
M  V30 1534 H 132.049 -3.43409 -5.58933 0
M  V30 1535 H 131.966 -5.16392 -5.52155 0
M  V30 1536 H 133.234 -4.40101 -6.43375 0
M  V30 1537 N 137.463 0.71206 -1.40597 0
M  V30 1538 C 138.688 1.50617 -1.42581 0
M  V30 1539 C 139.113 1.88079 -0.0282102 0
M  V30 1540 O 138.471 1.53511 0.964579 0
M  V30 1541 C 138.519 2.7557 -2.3258 0
M  V30 1542 O 137.623 3.72414 -1.77148 0
M  V30 1543 H 136.964 0.453966 -0.484573 0
M  V30 1544 H 139.494 0.876649 -1.84868 0
M  V30 1545 H 139.504 3.2406 -2.47889 0
M  V30 1546 H 138.179 2.47639 -3.34138 0
M  V30 1547 H 136.756 3.31276 -1.71204 0
M  V30 1548 N 138.941 1.26152 0.944643 0
M  V30 1549 C 139.851 1.09176 2.07648 0
M  V30 1550 C 140.867 0.0261935 1.7398 0
M  V30 1551 O 142.043 0.229208 2.00091 0
M  V30 1552 C 139.108 0.722915 3.39079 0
M  V30 1553 C 138.169 1.86752 3.86552 0
M  V30 1554 C 137.402 1.51617 5.11711 0
M  V30 1555 O 137.625 0.416331 5.68879 0
M  V30 1556 O 136.559 2.34975 5.54139 0
M  V30 1557 H 140.385 2.0412 2.24875 0
M  V30 1558 H 137.97 1.05182 1.061 0
M  V30 1559 H 139.852 0.529787 4.18056 0
M  V30 1560 H 138.527 -0.197159 3.23099 0
M  V30 1561 H 137.434 2.11558 3.08535 0
M  V30 1562 H 138.767 2.76719 4.07047 0
M  V30 1563 N 140.419 -1.14872 1.07899 0
M  V30 1564 C 141.349 -2.2193 0.725887 0
M  V30 1565 C 142.33 -1.67622 -0.28927 0
M  V30 1566 O 143.515 -1.93533 -0.160787 0
M  V30 1567 C 140.645 -3.47061 0.128856 0
M  V30 1568 C 139.599 -4.14363 1.07178 0
M  V30 1569 C 138.925 -5.33636 0.337229 0
M  V30 1570 C 140.225 -4.63492 2.40775 0
M  V30 1571 H 141.919 -2.51724 1.62097 0
M  V30 1572 H 139.465 -1.20991 0.780838 0
M  V30 1573 H 141.418 -4.21199 -0.130147 0
M  V30 1574 H 140.142 -3.16617 -0.80134 0
M  V30 1575 H 138.801 -3.42173 1.3158 0
M  V30 1576 H 138.449 -4.99449 -0.596606 0
M  V30 1577 H 138.149 -5.79609 0.965788 0
M  V30 1578 H 139.673 -6.10539 0.0861567 0
M  V30 1579 H 141.087 -5.2913 2.20669 0
M  V30 1580 H 139.484 -5.20148 2.99276 0
M  V30 1581 H 140.554 -3.78834 3.02676 0
M  V30 1582 N 141.898 -0.863906 -1.31812 0
M  V30 1583 C 142.808 -0.318461 -2.32428 0
M  V30 1584 C 143.824 0.568496 -1.64451 0
M  V30 1585 O 145 0.46666 -1.95919 0
M  V30 1586 C 142.065 0.476355 -3.43412 0
M  V30 1587 C 141.126 -0.43784 -4.27061 0
M  V30 1588 C 140.359 0.319138 -5.32745 0
M  V30 1589 O 140.582 1.54799 -5.48993 0
M  V30 1590 O 139.516 -0.319861 -6.01049 0
M  V30 1591 H 143.342 -1.15229 -2.80991 0
M  V30 1592 H 140.927 -0.627103 -1.35602 0
M  V30 1593 H 142.809 0.927156 -4.11074 0
M  V30 1594 H 141.484 1.28683 -2.97022 0
M  V30 1595 H 140.391 -0.937013 -3.62175 0
M  V30 1596 H 141.724 -1.21375 -4.77 0
M  V30 1597 N 143.376 1.44774 -0.622745 0
M  V30 1598 C 144.286 2.34433 0.0886031 0
M  V30 1599 C 145.302 1.52131 0.844529 0
M  V30 1600 O 146.478 1.84886 0.798691 0
M  V30 1601 C 143.543 3.29986 1.0635 0
M  V30 1602 C 142.604 4.28195 0.307873 0
M  V30 1603 C 141.837 5.19183 1.23633 0
M  V30 1604 O 142.06 5.13918 2.47476 0
M  V30 1605 O 140.994 5.97515 0.725189 0
M  V30 1606 H 144.82 2.96693 -0.648599 0
M  V30 1607 H 142.405 1.44408 -0.382957 0
M  V30 1608 H 144.287 3.88825 1.6246 0
M  V30 1609 H 142.962 2.70269 1.78146 0
M  V30 1610 H 141.869 3.72927 -0.296064 0
M  V30 1611 H 143.202 4.90808 -0.3699 0
M  V30 1612 N 144.854 0.36279 1.53368 0
M  V30 1613 C 145.786 -0.519668 2.23231 0
M  V30 1614 C 146.799 -1.04844 1.24546 0
M  V30 1615 O 147.988 -0.955296 1.50786 0
M  V30 1616 C 145.088 -1.72995 2.9142 0
M  V30 1617 C 144.261 -1.33316 4.16588 0
M  V30 1618 C 143.32 -2.40521 4.68013 0
M  V30 1619 O 142.346 -2.03027 5.3176 0
M  V30 1620 N 143.548 -3.72065 4.45587 0
M  V30 1621 H 146.313 0.078751 2.99597 0
M  V30 1622 H 143.874 0.187833 1.60807 0
M  V30 1623 H 145.866 -2.44184 3.22733 0
M  V30 1624 H 144.436 -2.2353 2.18525 0
M  V30 1625 H 143.656 -0.451236 3.91609 0
M  V30 1626 H 144.944 -1.04432 4.97967 0
M  V30 1627 H 144.342 -4.05304 3.94646 0
M  V30 1628 H 142.899 -4.39366 4.81457 0
M  V30 1629 N 146.332 -1.57332 0.0918853 0
M  V30 1630 C 147.262 -2.16872 -0.865371 0
M  V30 1631 C 148.243 -1.10118 -1.29646 0
M  V30 1632 O 149.428 -1.38242 -1.36392 0
M  V30 1633 C 146.558 -2.74649 -2.12569 0
M  V30 1634 C 145.512 -3.86747 -1.83333 0
M  V30 1635 C 144.838 -4.31212 -3.16166 0
M  V30 1636 C 146.138 -5.10089 -1.1228 0
M  V30 1637 H 147.832 -2.97114 -0.369307 0
M  V30 1638 H 145.378 -1.42918 -0.176194 0
M  V30 1639 H 147.331 -3.14952 -2.7997 0
M  V30 1640 H 146.055 -1.91657 -2.64452 0
M  V30 1641 H 144.714 -3.46978 -1.18331 0
M  V30 1642 H 144.362 -3.45115 -3.6593 0
M  V30 1643 H 144.062 -5.06788 -2.97388 0
M  V30 1644 H 145.586 -4.74146 -3.84731 0
M  V30 1645 H 147 -5.47582 -1.69785 0
M  V30 1646 H 145.397 -5.91073 -1.03693 0
M  V30 1647 H 146.467 -4.84786 -0.105041 0
M  V30 1648 N 147.81 0.181792 -1.56548 0
M  V30 1649 C 149.038 0.915947 -1.85521 0
M  V30 1650 C 149.453 1.76282 -0.676016 0
M  V30 1651 O 148.81 1.79012 0.355077 0
M  V30 1652 C 148.861 1.80126 -3.13427 0
M  V30 1653 O 148.582 0.988562 -4.26801 0
M  V30 1654 C 150.083 2.64597 -3.55673 0
M  V30 1655 H 147.303 0.26661 -0.61576 0
M  V30 1656 H 149.847 0.185039 -2.03661 0
M  V30 1657 H 148.002 2.48563 -2.97145 0
M  V30 1658 H 148.416 1.59308 -4.99721 0
M  V30 1659 H 149.89 3.2235 -4.48101 0
M  V30 1660 H 150.367 3.38958 -2.79292 0
M  V30 1661 H 150.973 2.0151 -3.74532 0
M  V30 1662 N 149.288 1.51039 0.449983 0
M  V30 1663 C 150.699 1.557 1.03026 0
M  V30 1664 C 151.05 0.372939 1.92623 0
M  V30 1665 O 150.175 -0.511771 2.10261 0
M  V30 1666 C 150.77 2.82171 1.87523 0
M  V30 1667 C 149.329 2.89444 2.40622 0
M  V30 1668 C 148.476 2.50228 1.19504 0
M  V30 1669 H 151.427 1.56999 0.231745 0
M  V30 1670 H 151.448 2.65219 2.72835 0
M  V30 1671 H 150.96 3.68331 1.22286 0
M  V30 1672 H 149.061 2.07685 3.0935 0
M  V30 1673 H 149.174 3.92816 2.74285 0
M  V30 1674 H 147.538 2.03139 1.53644 0
M  V30 1675 H 148.321 3.38719 0.558972 0
M  V30 1676 N 150.766 -0.704594 1.40972 0
M  V30 1677 C 152.012 -1.46675 1.40051 0
M  V30 1678 C 152.345 -1.94199 0.00641102 0
M  V30 1679 O 151.62 -1.68916 -0.964235 0
M  V30 1680 C 151.903 -2.68505 2.39952 0
M  V30 1681 C 151.756 -2.26805 3.88432 0
M  V30 1682 C 153.075 -3.70686 2.37233 0
M  V30 1683 H 150.194 -0.532015 0.510028 0
M  V30 1684 H 152.836 -0.803255 1.72185 0
M  V30 1685 H 150.986 -3.25114 2.1268 0
M  V30 1686 H 152.658 -1.75592 4.26574 0
M  V30 1687 H 150.901 -1.58685 4.03734 0
M  V30 1688 H 151.572 -3.14181 4.53866 0
M  V30 1689 H 154.048 -3.23731 2.61415 0
M  V30 1690 H 152.924 -4.53553 3.09162 0
M  V30 1691 H 153.185 -4.19754 1.38777 0
M  V30 1692 N 152.244 -1.26651 -0.937939 0
M  V30 1693 C 153.207 -1.08546 -2.01867 0
M  V30 1694 C 154.207 -0.0327327 -1.60767 0
M  V30 1695 O 155.397 -0.276427 -1.71993 0
M  V30 1696 C 152.529 -0.651711 -3.34613 0
M  V30 1697 H 153.722 -2.04502 -2.1936 0
M  V30 1698 H 151.275 -1.09294 -1.11734 0
M  V30 1699 H 152.01 0.309696 -3.22818 0
M  V30 1700 H 151.795 -1.41189 -3.65798 0
M  V30 1701 H 153.285 -0.546973 -4.14002 0
M  V30 1702 N 153.722 1.14298 -1.08507 0
M  V30 1703 C 154.632 2.23027 -0.727753 0
M  V30 1704 C 155.648 1.71952 0.26619 0
M  V30 1705 O 156.824 2.011 0.109882 0
M  V30 1706 C 153.889 3.46403 -0.143541 0
M  V30 1707 C 152.95 4.12413 -1.19223 0
M  V30 1708 C 152.183 5.29899 -0.635798 0
M  V30 1709 O 152.406 5.67796 0.544393 0
M  V30 1710 O 151.34 5.85717 -1.38634 0
M  V30 1711 H 155.166 2.55945 -1.63481 0
M  V30 1712 H 152.751 1.22248 -0.858817 0
M  V30 1713 H 154.633 4.21018 0.179404 0
M  V30 1714 H 153.308 3.15206 0.736659 0
M  V30 1715 H 152.215 3.39667 -1.56772 0
M  V30 1716 H 153.548 4.47718 -2.04474 0
M  V30 1717 N 155.201 0.870884 1.31352 0
M  V30 1718 C 156.111 0.330783 2.32256 0
M  V30 1719 C 157.127 -0.559767 1.6475 0
M  V30 1720 O 158.303 -0.456263 1.96164 0
M  V30 1721 C 155.368 -0.458137 3.4366 0
M  V30 1722 C 154.429 0.460482 4.26823 0
M  V30 1723 C 153.662 -0.290881 5.32907 0
M  V30 1724 O 153.885 -1.51885 5.49806 0
M  V30 1725 O 152.819 0.351732 6.00871 0
M  V30 1726 H 156.645 1.16718 2.80376 0
M  V30 1727 H 154.23 0.634285 1.35267 0
M  V30 1728 H 156.112 -0.905343 4.1156 0
M  V30 1729 H 154.787 -1.27106 2.97701 0
M  V30 1730 H 153.694 0.956207 3.61673 0
M  V30 1731 H 155.027 1.23903 4.7635 0
M  V30 1732 N 156.679 -1.44442 0.630414 0
M  V30 1733 C 157.907 -2.06414 0.141671 0
M  V30 1734 C 158.322 -1.47105 -1.18345 0
M  V30 1735 O 157.679 -0.593662 -1.72574 0
M  V30 1736 C 157.73 -3.61494 0.0199784 0
M  V30 1737 O 157.451 -4.18594 1.29269 0
M  V30 1738 C 158.952 -4.40499 -0.497544 0
M  V30 1739 H 156.172 -0.666292 0.0793452 0
M  V30 1740 H 158.716 -1.85323 0.864614 0
M  V30 1741 H 156.871 -3.8185 -0.653402 0
M  V30 1742 H 157.285 -5.12026 1.13707 0
M  V30 1743 H 158.759 -5.49433 -0.531708 0
M  V30 1744 H 159.236 -4.11895 -1.52445 0
M  V30 1745 H 159.842 -4.25061 0.142562 0
M  V30 1746 N 158.157 -0.370918 -1.53173 0
M  V30 1747 C 159.573 -0.0200818 -1.59587 0
M  V30 1748 C 159.773 1.46279 -1.38581 0
M  V30 1749 O 158.829 2.22506 -1.19363 0
M  V30 1750 C 160.142 -0.4808 -2.96831 0
M  V30 1751 C 161.69 -0.435477 -3.09956 0
M  V30 1752 C 162.165 -0.872092 -4.4962 0
M  V30 1753 N 163.656 -0.827364 -4.55751 0
M  V30 1754 C 164.391 -1.13683 -5.62018 0
M  V30 1755 N 163.887 -1.51584 -6.76014 0
M  V30 1756 N 165.68 -1.05927 -5.52029 0
M  V30 1757 H 157.831 -1.33652 -1.65079 0
M  V30 1758 H 160.094 -0.546634 -0.774529 0
M  V30 1759 H 159.8 -1.51577 -3.1736 0
M  V30 1760 H 159.674 0.129796 -3.76977 0
M  V30 1761 H 162.061 0.590371 -2.89134 0
M  V30 1762 H 162.142 -1.08164 -2.31806 0
M  V30 1763 H 161.786 -1.89608 -4.71181 0
M  V30 1764 H 161.716 -0.203127 -5.26208 0
M  V30 1765 H 164.207 -0.548216 -3.73902 0
M  V30 1766 H 164.52 -1.73609 -7.53047 0
M  V30 1767 H 162.865 -1.55454 -6.77391 0
M  V30 1768 H 166.056 -0.762321 -4.61851 0
M  V30 1769 H 166.229 -1.30378 -6.34749 0
M  V30 1770 N 159.635 1.57281 -0.100228 0
M  V30 1771 C 160.598 2.13158 0.842398 0
M  V30 1772 C 161.598 1.06202 1.20738 0
M  V30 1773 O 162.788 1.32066 1.13597 0
M  V30 1774 C 159.92 2.65639 2.13655 0
M  V30 1775 H 161.113 2.97766 0.357114 0
M  V30 1776 H 158.666 1.5559 0.148823 0
M  V30 1777 H 159.401 1.84566 2.66657 0
M  V30 1778 H 159.186 3.43844 1.88451 0
M  V30 1779 H 160.676 3.08846 2.81077 0
M  V30 1780 N 161.113 -0.173488 1.56642 0
M  V30 1781 C 162.529 -0.525174 1.50712 0
M  V30 1782 C 162.729 -1.8476 0.804107 0
M  V30 1783 O 161.785 -2.49869 0.363574 0
M  V30 1784 C 163.098 -0.559937 2.95441 0
M  V30 1785 C 164.646 -0.647288 3.06234 0
M  V30 1786 C 165.121 -0.712963 4.52417 0
M  V30 1787 N 166.612 -0.775911 4.56655 0
M  V30 1788 C 167.347 -0.847264 5.67106 0
M  V30 1789 N 166.843 -0.879585 6.87194 0
M  V30 1790 N 168.636 -0.886117 5.55071 0
M  V30 1791 H 160.787 0.693681 2.00753 0
M  V30 1792 H 163.05 0.249841 0.914485 0
M  V30 1793 H 162.756 0.343049 3.50023 0
M  V30 1794 H 162.63 -1.40718 3.49969 0
M  V30 1795 H 165.017 -1.5407 2.51687 0
M  V30 1796 H 165.098 0.226586 2.54794 0
M  V30 1797 H 164.742 0.176183 5.07594 0
M  V30 1798 H 164.672 -1.60295 5.0161 0
M  V30 1799 H 167.163 -0.759304 3.70193 0
M  V30 1800 H 167.476 -0.935144 7.67121 0
M  V30 1801 H 165.821 -0.847898 6.89808 0
M  V30 1802 H 169.012 -0.857853 4.60172 0
M  V30 1803 H 169.185 -0.938263 6.41171 0
M  V30 1804 N 162.591 -1.51276 -0.441967 0
M  V30 1805 C 163.521 -1.752 -1.54361 0
M  V30 1806 C 164.502 -0.601682 -1.59103 0
M  V30 1807 O 165.687 -0.843913 -1.74905 0
M  V30 1808 C 162.817 -1.87282 -2.92477 0
M  V30 1809 C 161.771 -3.02687 -3.02596 0
M  V30 1810 C 161.097 -2.99947 -4.42647 0
M  V30 1811 C 162.397 -4.4273 -2.77106 0
M  V30 1812 H 164.091 -2.67442 -1.34592 0
M  V30 1813 H 161.637 -1.28694 -0.646048 0
M  V30 1814 H 163.59 -2.02602 -3.695 0
M  V30 1815 H 162.314 -0.916844 -3.13467 0
M  V30 1816 H 160.973 -2.87065 -2.28012 0
M  V30 1817 H 160.621 -2.02136 -4.60597 0
M  V30 1818 H 160.321 -3.77439 -4.50348 0
M  V30 1819 H 161.845 -3.17354 -5.2165 0
M  V30 1820 H 163.259 -4.58727 -3.43864 0
M  V30 1821 H 161.656 -5.21893 -2.96222 0
M  V30 1822 H 162.726 -4.53087 -1.72744 0
M  V30 1823 N 164.069 0.697108 -1.41344 0
M  V30 1824 C 165.294 1.49096 -1.44171 0
M  V30 1825 C 165.719 1.88038 -0.0481568 0
M  V30 1826 O 165.077 1.54525 0.948243 0
M  V30 1827 C 165.125 2.73088 -2.3549 0
M  V30 1828 O 164.229 3.70514 -1.81088 0
M  V30 1829 H 163.57 0.448801 -0.489361 0
M  V30 1830 H 166.1 0.856992 -1.85787 0
M  V30 1831 H 166.11 3.21413 -2.51312 0
M  V30 1832 H 164.785 2.44081 -3.36745 0
M  V30 1833 H 163.362 3.29441 -1.74708 0
M  V30 1834 N 165.547 1.27147 0.931209 0
M  V30 1835 C 166.494 1.09568 2.03134 0
M  V30 1836 C 167.464 -0.00222433 1.661 0
M  V30 1837 O 168.649 0.159439 1.90133 0
M  V30 1838 C 165.789 0.745231 3.36957 0
M  V30 1839 C 164.902 1.92041 3.86968 0
M  V30 1840 C 164.037 1.51216 5.09222 0
M  V30 1841 C 163.076 2.65504 5.5152 0
M  V30 1842 N 162.213 2.25291 6.64972 0
M  V30 1843 H 167.053 2.03708 2.17502 0
M  V30 1844 H 164.59 1.01411 1.06556 0
M  V30 1845 H 166.548 0.522878 4.1391 0
M  V30 1846 H 165.178 -0.159202 3.22407 0
M  V30 1847 H 164.23 2.25541 3.06326 0
M  V30 1848 H 165.542 2.77787 4.1429 0
M  V30 1849 H 164.696 1.25084 5.93666 0
M  V30 1850 H 163.435 0.625749 4.83669 0
M  V30 1851 H 162.44 2.92354 4.65628 0
M  V30 1852 H 163.665 3.54761 5.7907 0
M  V30 1853 H 161.611 1.39098 6.41083 0
M  V30 1854 H 161.528 3.04577 6.91931 0
M  V30 1855 H 162.796 2.02398 7.52765 0
M  V30 1856 N 167.025 -1.13721 1.09112 0
M  V30 1857 C 167.935 -2.22638 0.73957 0
M  V30 1858 C 168.951 -1.72091 -0.257068 0
M  V30 1859 O 170.127 -2.01155 -0.0992154 0
M  V30 1860 C 167.192 -3.46322 0.16191 0
M  V30 1861 C 166.253 -4.11775 1.21408 0
M  V30 1862 C 165.486 -5.29555 0.663891 0
M  V30 1863 O 165.709 -5.68077 -0.514274 0
M  V30 1864 O 164.643 -5.84973 1.41738 0
M  V30 1865 H 168.469 -2.55074 1.64836 0
M  V30 1866 H 166.054 -1.21791 0.865289 0
M  V30 1867 H 167.936 -4.21107 -0.157073 0
M  V30 1868 H 166.611 -3.15593 -0.719932 0
M  V30 1869 H 165.518 -3.3883 1.58571 0
M  V30 1870 H 166.851 -4.46627 2.06845 0
M  V30 1871 N 168.503 -0.877838 -1.30888 0
M  V30 1872 C 169.433 -0.35534 -2.3078 0
M  V30 1873 C 170.414 0.557994 -1.60687 0
M  V30 1874 O 171.599 0.473355 -1.88343 0
M  V30 1875 C 168.729 0.437221 -3.44537 0
M  V30 1876 C 167.683 -0.383715 -4.26276 0
M  V30 1877 C 167.009 0.535014 -5.32017 0
M  V30 1878 C 168.309 -1.62201 -4.96476 0
M  V30 1879 H 170.003 -1.19007 -2.74732 0
M  V30 1880 H 167.549 -0.573698 -1.32078 0
M  V30 1881 H 169.502 0.813334 -4.13477 0
M  V30 1882 H 168.226 1.30553 -2.99372 0
M  V30 1883 H 166.885 -0.741874 -3.59015 0
M  V30 1884 H 166.533 1.40083 -4.831 0
M  V30 1885 H 166.233 -0.0104211 -5.87599 0
M  V30 1886 H 167.757 0.907799 -6.03814 0
M  V30 1887 H 169.171 -1.31689 -5.5797 0
M  V30 1888 H 167.568 -2.10711 -5.61891 0
M  V30 1889 H 168.638 -2.37044 -4.23011 0
M  V30 1890 N 169.982 1.44106 -0.638065 0
M  V30 1891 C 170.914 2.28976 0.101205 0
M  V30 1892 C 171.927 1.4167 0.802088 0
M  V30 1893 O 173.116 1.65755 0.662375 0
M  V30 1894 C 170.216 3.18217 1.16581 0
M  V30 1895 C 169.389 4.33978 0.546066 0
M  V30 1896 C 168.448 5.04202 1.50554 0
M  V30 1897 O 167.474 5.59986 1.01999 0
M  V30 1898 N 168.676 5.06296 2.8398 0
M  V30 1899 H 171.441 2.93064 -0.627186 0
M  V30 1900 H 169.002 1.54629 -0.479731 0
M  V30 1901 H 170.994 3.62061 1.80815 0
M  V30 1902 H 169.564 2.55833 1.79634 0
M  V30 1903 H 168.784 3.93239 -0.275046 0
M  V30 1904 H 170.072 5.08675 0.112793 0
M  V30 1905 H 169.47 4.62319 3.26002 0
M  V30 1906 H 168.027 5.53907 3.43556 0
M  V30 1907 N 171.46 0.379036 1.52974 0
M  V30 1908 C 172.423 -0.448865 2.24762 0
M  V30 1909 C 173.423 -0.998689 1.26027 0
M  V30 1910 O 174.613 -0.882313 1.50203 0
M  V30 1911 C 171.745 -1.62872 2.99476 0
M  V30 1912 H 172.938 0.179491 2.99362 0
M  V30 1913 H 170.491 0.13096 1.5575 0
M  V30 1914 H 171.226 -2.29479 2.29151 0
M  V30 1915 H 171.011 -1.24128 3.71934 0
M  V30 1916 H 172.501 -2.2151 3.5401 0
M  V30 1917 N 172.938 -1.57226 0.108567 0
M  V30 1918 C 173.901 -2.13602 -0.831082 0
M  V30 1919 C 174.901 -1.06841 -1.20173 0
M  V30 1920 O 176.091 -1.32666 -1.12895 0
M  V30 1921 C 173.223 -2.66769 -2.12243 0
M  V30 1922 H 174.416 -2.97951 -0.341317 0
M  V30 1923 H 171.969 -1.55667 -0.14057 0
M  V30 1924 H 172.704 -1.85977 -2.65675 0
M  V30 1925 H 172.489 -3.44839 -1.86625 0
M  V30 1926 H 173.979 -3.10332 -2.79435 0
M  V30 1927 N 174.416 0.165178 -1.56732 0
M  V30 1928 C 175.348 1.22911 -1.93457 0
M  V30 1929 C 176.361 1.40152 -0.828333 0
M  V30 1930 O 177.55 1.40046 -1.10677 0
M  V30 1931 C 174.65 2.59686 -2.17753 0
M  V30 1932 C 173.823 2.63663 -3.48999 0
M  V30 1933 C 172.882 3.81845 -3.62051 0
M  V30 1934 O 171.908 3.67559 -4.34613 0
M  V30 1935 N 173.11 4.98557 -2.97357 0
M  V30 1936 H 175.875 0.917118 -2.85323 0
M  V30 1937 H 173.436 0.354895 -1.57962 0
M  V30 1938 H 175.428 3.37225 -2.23743 0
M  V30 1939 H 173.998 2.83251 -1.32242 0
M  V30 1940 H 173.218 1.72173 -3.54612 0
M  V30 1941 H 174.506 2.63336 -4.35352 0
M  V30 1942 H 173.904 5.13065 -2.38287 0
M  V30 1943 H 172.461 5.73936 -3.08934 0
M  V30 1944 N 175.894 1.51508 0.433938 0
M  V30 1945 C 176.857 1.72473 1.50949 0
M  V30 1946 C 177.857 0.594725 1.49398 0
M  V30 1947 O 179.047 0.862315 1.5136 0
M  V30 1948 C 176.179 1.78431 2.90474 0
M  V30 1949 H 177.372 2.68467 1.33662 0
M  V30 1950 H 174.925 1.41549 0.662836 0
M  V30 1951 H 175.66 0.842645 3.13161 0
M  V30 1952 H 175.445 2.60558 2.93005 0
M  V30 1953 H 176.935 1.96479 3.68491 0
M  V30 1954 N 177.372 -0.689602 1.41712 0
M  V30 1955 C 178.788 -1.00093 1.24312 0
M  V30 1956 C 178.988 -2.01036 0.136729 0
M  V30 1957 O 178.044 -2.47562 -0.496918 0
M  V30 1958 C 179.357 -1.51985 2.59463 0
M  V30 1959 C 180.905 -1.63838 2.66695 0
M  V30 1960 C 181.38 -2.1913 4.02177 0
M  V30 1961 N 182.871 -2.26483 4.04054 0
M  V30 1962 C 183.606 -2.70306 5.0569 0
M  V30 1963 N 183.102 -3.13691 6.17713 0
M  V30 1964 N 184.895 -2.69923 4.9305 0
M  V30 1965 H 177.046 -0.0210029 2.1239 0
M  V30 1966 H 179.309 -0.0718733 0.945272 0
M  V30 1967 H 179.015 -0.85269 3.41207 0
M  V30 1968 H 178.889 -2.50103 2.82362 0
M  V30 1969 H 181.276 -2.29664 1.85306 0
M  V30 1970 H 181.357 -0.642492 2.476 0
M  V30 1971 H 181.001 -1.53918 4.84016 0
M  V30 1972 H 180.931 -3.19482 4.18615 0
M  V30 1973 H 183.422 -1.95874 3.23174 0
M  V30 1974 H 183.735 -3.45773 6.9113 0
M  V30 1975 H 182.08 -3.11585 6.21241 0
M  V30 1976 H 185.271 -2.35382 4.04614 0
M  V30 1977 H 185.444 -3.03758 5.72394 0
M  V30 1978 N 178.85 -1.27639 -0.924453 0
M  V30 1979 C 179.78 -1.13166 -2.04244 0
M  V30 1980 C 180.761 -0.032256 -1.70069 0
M  V30 1981 O 181.946 -0.207328 -1.9309 0
M  V30 1982 C 179.076 -0.781496 -3.38393 0
M  V30 1983 C 178.03 -1.83449 -3.86692 0
M  V30 1984 C 177.356 -1.33822 -5.17683 0
M  V30 1985 C 178.656 -3.23917 -4.09726 0
M  V30 1986 H 180.35 -2.06689 -2.1661 0
M  V30 1987 H 177.896 -0.995136 -1.04082 0
M  V30 1988 H 179.849 -0.667057 -4.16087 0
M  V30 1989 H 178.573 0.189439 -3.2605 0
M  V30 1990 H 177.232 -1.93789 -3.11193 0
M  V30 1991 H 176.88 -0.35665 -5.01734 0
M  V30 1992 H 176.58 -2.04224 -5.50968 0
M  V30 1993 H 178.104 -1.23679 -5.97943 0
M  V30 1994 H 179.518 -3.16559 -4.77978 0
M  V30 1995 H 177.915 -3.92059 -4.54324 0
M  V30 1996 H 178.985 -3.68729 -3.14908 0
M  V30 1997 N 180.328 1.1314 -1.09713 0
M  V30 1998 C 181.576 1.84119 -0.833338 0
M  V30 1999 C 181.897 1.84097 0.642904 0
M  V30 2000 O 181.167 1.29881 1.46655 0
M  V30 2001 H 179.747 0.681766 -0.305293 0
M  V30 2002 H 182.409 1.37038 -1.38588 0
M  V30 2003 H 181.505 2.88543 -1.18951 0
M  V30 2004 N 181.806 0.884767 1.30421 0
M  V30 2005 C 182.769 0.356277 2.26414 0
M  V30 2006 C 183.769 -0.501124 1.52792 0
M  V30 2007 O 184.959 -0.30831 1.7145 0
M  V30 2008 C 182.091 -0.492316 3.37326 0
M  V30 2009 H 183.284 1.20389 2.74675 0
M  V30 2010 H 180.837 0.661607 1.41607 0
M  V30 2011 H 181.572 -1.36052 2.94381 0
M  V30 2012 H 181.357 0.121832 3.91911 0
M  V30 2013 H 182.847 -0.853871 4.08777 0
M  V30 2014 N 183.284 -1.43765 0.645699 0
M  V30 2015 C 184.561 -1.9541 0.0862963 0
M  V30 2016 C 184.941 -1.58725 -1.39175 0
M  V30 2017 O 184.289 -0.868581 -2.11348 0
M  V30 2018 C 184.499 -3.47488 0.324565 0
M  V30 2019 C 185.847 -4.24001 0.225497 0
M  V30 2020 O 186.871 -3.55274 0.256715 0
M  V30 2021 O 185.73 -5.46313 0.142801 0
M  V30 2022 H 182.824 -0.826882 -0.0139483 0
M  V30 2023 H 185.37 -1.53743 0.718415 0
M  V30 2024 H 184.142 -3.67289 1.3496 0
M  V30 2025 H 183.765 -3.96135 -0.340987 0
M  V30 2026 N 184.763 -0.387143 -1.52771 0
M  V30 2027 C 185.696 0.493123 -2.22808 0
M  V30 2028 C 186.674 1.0658 -1.22798 0
M  V30 2029 O 187.858 1.11785 -1.51777 0
M  V30 2030 C 184.985 1.68238 -2.93962 0
M  V30 2031 C 184.031 1.23515 -4.08223 0
M  V30 2032 S 184.864 0.21848 -5.35054 0
M  V30 2033 C 186.02 1.41357 -6.09729 0
M  V30 2034 H 186.253 -0.101625 -2.97126 0
M  V30 2035 H 183.786 -0.171323 -1.53447 0
M  V30 2036 H 185.744 2.36443 -3.35567 0
M  V30 2037 H 184.405 2.24842 -2.19328 0
M  V30 2038 H 183.598 2.12304 -4.57103 0
M  V30 2039 H 183.2 0.632044 -3.68621 0
M  V30 2040 H 185.492 2.34101 -6.3577 0
M  V30 2041 H 186.435 0.965736 -7.01484 0
M  V30 2042 H 186.843 1.6294 -5.40473 0
M  V30 2043 N 186.241 1.57166 -0.116904 0
M  V30 2044 C 187.151 2.18745 0.847812 0
M  V30 2045 C 188.167 1.163 1.29423 0
M  V30 2046 O 189.343 1.48761 1.35765 0
M  V30 2047 C 186.408 2.77307 2.0809 0
M  V30 2048 C 185.469 3.94781 1.68661 0
M  V30 2049 C 184.702 4.50541 2.86091 0
M  V30 2050 O 184.925 4.05202 4.01456 0
M  V30 2051 O 183.859 5.41256 2.63298 0
M  V30 2052 H 187.685 3.01632 0.353778 0
M  V30 2053 H 185.27 1.49005 0.108599 0
M  V30 2054 H 187.152 3.14647 2.80313 0
M  V30 2055 H 185.827 1.97452 2.56504 0
M  V30 2056 H 184.734 3.62214 0.935518 0
M  V30 2057 H 186.067 4.76065 1.24991 0
M  V30 2058 N 187.719 -0.156864 1.56817 0
M  V30 2059 C 188.996 -0.899244 1.73704 0
M  V30 2060 C 189.376 -1.99771 0.682254 0
M  V30 2061 O 188.724 -2.26515 -0.300522 0
M  V30 2062 C 188.934 -1.45075 3.17418 0
M  V30 2063 C 190.282 -1.91802 3.7881 0
M  V30 2064 O 191.306 -1.54838 3.20786 0
M  V30 2065 O 190.165 -2.5994 4.80722 0
M  V30 2066 H 187.259 -0.424267 0.709878 0
M  V30 2067 H 189.805 -0.143561 1.69092 0
M  V30 2068 H 188.577 -0.660846 3.85679 0
M  V30 2069 H 188.2 -2.27021 3.26416 0
M  V30 2070 N 189.197 -1.51736 -0.425897 0
M  V30 2071 C 190.443 -1.65214 -1.1761 0
M  V30 2072 C 190.776 -0.372778 -1.90589 0
M  V30 2073 O 190.051 0.628139 -1.84078 0
M  V30 2074 C 190.334 -2.86312 -2.18398 0
M  V30 2075 C 190.187 -4.24254 -1.49426 0
M  V30 2076 C 191.506 -3.02925 -3.19256 0
M  V30 2077 H 188.625 -0.601263 -0.426206 0
M  V30 2078 H 191.267 -1.8425 -0.463882 0
M  V30 2079 H 189.417 -2.70213 -2.79137 0
M  V30 2080 H 191.089 -4.52046 -0.919362 0
M  V30 2081 H 189.332 -4.26426 -0.796432 0
M  V30 2082 H 190.003 -5.05001 -2.22885 0
M  V30 2083 H 192.479 -3.1781 -2.68581 0
M  V30 2084 H 191.355 -3.89199 -3.8706 0
M  V30 2085 H 191.616 -2.15497 -3.86023 0
M  V30 2086 N 190.675 0.682077 -1.42076 0
M  V30 2087 C 191.915 1.45424 -1.43636 0
M  V30 2088 C 192.279 1.91939 -0.0484001 0
M  V30 2089 O 193.48 2.6873 0.0612514 0
M  V30 2090 C 191.751 2.62427 -2.42625 0
M  V30 2091 S 193.31 3.51379 -2.62827 0
M  V30 2092 H 190.128 0.496779 -0.508657 0
M  V30 2093 H 192.73 0.794645 -1.78621 0
M  V30 2094 H 191.434 2.26481 -3.42249 0
M  V30 2095 H 190.965 3.33266 -2.09039 0
M  V30 2096 H 192.98 4.58141 -1.9058 0
M  V30 2097 N 192.153 1.28127 0.917671 0
M  V30 2098 C 193.401 1.14825 1.66312 0
M  V30 2099 C 193.722 -0.304379 1.9261 0
M  V30 2100 O 192.992 -1.21149 1.53947 0
M  V30 2101 H 191.572 0.421953 0.616413 0
M  V30 2102 H 194.234 1.608 1.10134 0
M  V30 2103 H 193.33 1.68489 2.62712 0
M  V30 2104 N 193.631 -1.12557 1.10312 0
M  V30 2105 C 195.047 -1.36036 0.834649 0
M  V30 2106 C 195.247 -1.93946 -0.546539 0
M  V30 2107 O 194.303 -2.16484 -1.29966 0
M  V30 2108 C 195.616 -2.30312 1.9333 0
M  V30 2109 C 197.164 -2.43906 1.9616 0
M  V30 2110 C 197.639 -3.41496 3.05195 0
M  V30 2111 N 199.13 -3.49053 3.04494 0
M  V30 2112 C 199.865 -4.24471 3.85502 0
M  V30 2113 N 199.361 -5.02966 4.76442 0
M  V30 2114 N 201.154 -4.19864 3.73725 0
M  V30 2115 H 193.305 -0.733246 1.99342 0
M  V30 2116 H 195.568 -0.385234 0.866198 0
M  V30 2117 H 195.274 -1.94933 2.92735 0
M  V30 2118 H 195.148 -3.30421 1.81939 0
M  V30 2119 H 197.535 -2.78567 0.973886 0
M  V30 2120 H 197.616 -1.4369 2.11629 0
M  V30 2121 H 197.26 -3.07565 4.04186 0
M  V30 2122 H 197.19 -4.41539 2.86968 0
M  V30 2123 H 199.681 -2.93053 2.38596 0
M  V30 2124 H 199.994 -5.57846 5.34815 0
M  V30 2125 H 198.339 -5.02167 4.80472 0
M  V30 2126 H 201.53 -3.57623 3.02032 0
M  V30 2127 H 201.703 -4.78386 4.37093 0
M  V30 2128 N 195.109 -0.891671 -1.2995 0
M  V30 2129 C 196.039 -0.379797 -2.30391 0
M  V30 2130 C 197.02 0.540919 -1.6127 0
M  V30 2131 O 198.205 0.453352 -1.88834 0
M  V30 2132 C 195.335 0.400654 -3.44981 0
M  V30 2133 C 194.289 -0.428905 -4.25846 0
M  V30 2134 C 193.615 0.478557 -5.32554 0
M  V30 2135 C 194.915 -1.67458 -4.94727 0
M  V30 2136 H 196.609 -1.21914 -2.73454 0
M  V30 2137 H 194.155 -0.587675 -1.31462 0
M  V30 2138 H 196.108 0.769434 -4.14316 0
M  V30 2139 H 194.832 1.27371 -3.0074 0
M  V30 2140 H 193.491 -0.779911 -3.58208 0
M  V30 2141 H 193.139 1.34951 -4.84559 0
M  V30 2142 H 192.839 -0.0727433 -5.87555 0
M  V30 2143 H 194.363 0.843705 -6.04743 0
M  V30 2144 H 195.777 -1.376 -5.56542 0
M  V30 2145 H 194.174 -2.16659 -5.59624 0
M  V30 2146 H 195.244 -2.41518 -4.20473 0
M  V30 2147 N 196.587 1.43421 -0.653314 0
M  V30 2148 C 197.833 2.02111 -0.166992 0
M  V30 2149 C 198.166 1.51423 1.21592 0
M  V30 2150 O 197.441 0.707389 1.8118 0
M  V30 2151 C 197.724 3.5966 -0.177948 0
M  V30 2152 C 197.577 4.20579 -1.59478 0
M  V30 2153 C 198.896 4.37413 0.4856 0
M  V30 2154 H 196.015 0.734374 -0.0621557 0
M  V30 2155 H 198.657 1.70717 -0.834016 0
M  V30 2156 H 196.807 3.86537 0.390032 0
M  V30 2157 H 198.479 4.04732 -2.21336 0
M  V30 2158 H 196.722 3.77226 -2.14204 0
M  V30 2159 H 197.393 5.29665 -1.5543 0
M  V30 2160 H 199.869 4.161 0.00234528 0
M  V30 2161 H 198.745 5.47075 0.447207 0
M  V30 2162 H 199.006 4.13672 1.55974 0
M  V30 2163 N 198.065 0.39524 1.52563 0
M  V30 2164 C 198.997 -0.472201 2.24283 0
M  V30 2165 C 200.01 -1.02178 1.26742 0
M  V30 2166 O 201.199 -0.923097 1.52778 0
M  V30 2167 C 198.299 -1.66775 2.95024 0
M  V30 2168 C 197.472 -1.2445 4.19322 0
M  V30 2169 C 196.531 -2.30539 4.7301 0
M  V30 2170 O 195.557 -1.91702 5.35947 0
M  V30 2171 N 196.759 -3.6253 4.53379 0
M  V30 2172 H 199.524 0.142282 2.99362 0
M  V30 2173 H 197.085 0.2219 1.60372 0
M  V30 2174 H 199.077 -2.37283 3.27839 0
M  V30 2175 H 197.647 -2.18845 2.23217 0
M  V30 2176 H 196.867 -0.368069 3.92478 0
M  V30 2177 H 198.155 -0.938457 5.0007 0
M  V30 2178 H 197.553 -3.96841 4.03154 0
M  V30 2179 H 196.11 -4.29055 4.90668 0
M  V30 2180 N 199.544 -1.57102 0.125237 0
M  V30 2181 C 200.774 -1.99472 -0.538015 0
M  V30 2182 C 201.182 -1.00395 -1.60366 0
M  V30 2183 O 200.525 0.0103875 -1.83697 0
M  V30 2184 C 200.587 -3.38262 -1.21734 0
M  V30 2185 C 200.251 -4.56021 -0.298897 0
M  V30 2186 C 201.248 -5.17817 0.464943 0
M  V30 2187 C 198.933 -5.01869 -0.208149 0
M  V30 2188 C 200.927 -6.23852 1.3072 0
M  V30 2189 C 198.614 -6.07763 0.637736 0
M  V30 2190 C 199.612 -6.68622 1.39403 0
M  V30 2191 O 199.3 -7.7247 2.22586 0
M  V30 2192 H 199.032 -0.659934 -0.146501 0
M  V30 2193 H 201.586 -2.04321 0.210267 0
M  V30 2194 H 199.816 -3.30185 -2.01282 0
M  V30 2195 H 201.505 -3.6488 -1.77813 0
M  V30 2196 H 202.271 -4.83308 0.404741 0
M  V30 2197 H 198.15 -4.54241 -0.786522 0
M  V30 2198 H 201.694 -6.71284 1.898 0
M  V30 2199 H 197.591 -6.41701 0.699309 0
M  V30 2200 H 198.359 -7.89595 2.15596 0
M  V30 2201 N 201.022 0.148545 -1.56898 0
M  V30 2202 C 202.438 0.501131 -1.51528 0
M  V30 2203 C 202.638 1.83458 -0.833399 0
M  V30 2204 O 201.694 2.49259 -0.40328 0
M  V30 2205 C 203.007 0.512864 -2.96294 0
M  V30 2206 C 204.555 0.598487 -3.07225 0
M  V30 2207 C 205.03 0.640897 -4.53494 0
M  V30 2208 N 206.521 0.703163 -4.57832 0
M  V30 2209 C 207.256 0.756935 -5.68382 0
M  V30 2210 N 206.752 0.770147 -6.88506 0
M  V30 2211 N 208.545 0.797698 -5.56411 0
M  V30 2212 H 200.696 -0.725532 -1.99624 0
M  V30 2213 H 202.959 -0.264358 -0.910395 0
M  V30 2214 H 202.665 -0.398691 -3.49433 0
M  V30 2215 H 202.539 1.35133 -3.52163 0
M  V30 2216 H 204.926 1.50046 -2.54106 0
M  V30 2217 H 205.007 -0.267093 -2.54402 0
M  V30 2218 H 204.651 -0.256915 -5.0725 0
M  V30 2219 H 204.581 1.52295 -5.04097 0
M  V30 2220 H 207.072 0.700314 -3.71354 0
M  V30 2221 H 207.385 0.812983 -7.68512 0
M  V30 2222 H 205.73 0.738049 -6.9107 0
M  V30 2223 H 208.921 0.784535 -4.61479 0
M  V30 2224 H 209.094 0.83614 -6.42583 0
M  V30 2225 N 202.5 1.5196 0.417844 0
M  V30 2226 C 203.748 1.65263 1.16329 0
M  V30 2227 C 204.069 0.380634 1.91249 0
M  V30 2228 O 203.339 -0.604214 1.86349 0
M  V30 2229 H 201.919 0.60912 0.432414 0
M  V30 2230 H 204.581 1.88969 0.477162 0
M  V30 2231 H 203.677 2.4896 1.88217 0
M  V30 2232 N 203.978 -0.674533 1.42435 0
M  V30 2233 C 204.888 -1.81751 1.48337 0
M  V30 2234 C 205.904 -1.69975 0.372099 0
M  V30 2235 O 207.08 -1.91521 0.62304 0
M  V30 2236 C 204.145 -3.17895 1.38361 0
M  V30 2237 C 203.206 -3.41625 2.59982 0
M  V30 2238 C 202.439 -4.71274 2.50473 0
M  V30 2239 O 202.662 -5.49197 1.54075 0
M  V30 2240 O 201.596 -4.96254 3.4061 0
M  V30 2241 H 205.422 -1.79728 2.44809 0
M  V30 2242 H 203.007 -0.830312 1.24202 0
M  V30 2243 H 204.889 -3.99136 1.35161 0
M  V30 2244 H 203.564 -3.20555 0.450144 0
M  V30 2245 H 202.471 -2.60231 2.68757 0
M  V30 2246 H 203.804 -3.43796 3.52229 0
M  V30 2247 N 205.456 -1.28612 -0.910864 0
M  V30 2248 C 206.702 -1.16106 -1.66274 0
M  V30 2249 C 207.035 0.289113 -1.92036 0
M  V30 2250 O 206.31 1.21 -1.52281 0
M  V30 2251 C 206.593 -1.96309 -3.01885 0
M  V30 2252 C 206.446 -3.49405 -2.8326 0
M  V30 2253 C 207.765 -1.78076 -4.02463 0
M  V30 2254 H 204.884 -0.423152 -0.603417 0
M  V30 2255 H 207.526 -1.57961 -1.05586 0
M  V30 2256 H 205.676 -1.60742 -3.53687 0
M  V30 2257 H 207.348 -3.94894 -2.38446 0
M  V30 2258 H 205.591 -3.74893 -2.18261 0
M  V30 2259 H 206.262 -4.00784 -3.79574 0
M  V30 2260 H 208.738 -2.0912 -3.59733 0
M  V30 2261 H 207.614 -2.36561 -4.95308 0
M  V30 2262 H 207.875 -0.733008 -4.35981 0
M  V30 2263 N 206.934 1.1197 -1.10907 0
M  V30 2264 C 207.866 2.17592 -0.720175 0
M  V30 2265 C 208.879 1.60938 0.245495 0
M  V30 2266 O 210.068 1.78476 0.0292245 0
M  V30 2267 C 207.168 3.38873 -0.0427917 0
M  V30 2268 C 206.341 4.25006 -1.03388 0
M  V30 2269 C 205.4 5.24774 -0.387075 0
M  V30 2270 O 204.426 5.59631 -1.03934 0
M  V30 2271 N 205.628 5.74208 0.852407 0
M  V30 2272 H 208.393 2.51567 -1.62893 0
M  V30 2273 H 205.954 1.27439 -0.998543 0
M  V30 2274 H 207.946 4.02703 0.401501 0
M  V30 2275 H 206.516 3.03007 0.768456 0
M  V30 2276 H 205.736 3.57716 -1.65629 0
M  V30 2277 H 207.024 4.79397 -1.70458 0
M  V30 2278 H 206.422 5.48062 1.40161 0
M  V30 2279 H 204.979 6.39901 1.23977 0
M  V30 2280 N 208.412 0.89855 1.29475 0
M  V30 2281 C 209.375 0.380272 2.26023 0
M  V30 2282 C 210.375 -0.484891 1.53315 0
M  V30 2283 O 211.565 -0.290108 1.71767 0
M  V30 2284 C 208.697 -0.45651 3.3783 0
M  V30 2285 H 209.89 1.23295 2.73383 0
M  V30 2286 H 207.443 0.676589 1.40897 0
M  V30 2287 H 208.178 -1.32922 2.95808 0
M  V30 2288 H 207.963 0.163393 3.91759 0
M  V30 2289 H 209.453 -0.810466 4.0966 0
M  V30 2290 N 209.89 -1.43072 0.660911 0
M  V30 2291 C 210.823 -2.28074 -0.0758862 0
M  V30 2292 C 211.801 -1.40271 -0.822362 0
M  V30 2293 O 212.985 -1.69713 -0.820352 0
M  V30 2294 C 210.112 -3.19843 -1.11437 0
M  V30 2295 C 209.158 -4.23957 -0.465069 0
M  V30 2296 S 209.991 -5.29978 0.767078 0
M  V30 2297 C 211.147 -6.25314 -0.270682 0
M  V30 2298 H 211.38 -2.90216 0.645139 0
M  V30 2299 H 208.913 -1.47697 0.449995 0
M  V30 2300 H 210.871 -3.73257 -1.70849 0
M  V30 2301 H 209.532 -2.56863 -1.80776 0
M  V30 2302 H 208.725 -4.88299 -1.24819 0
M  V30 2303 H 208.327 -3.73959 0.0551242 0
M  V30 2304 H 210.619 -6.67932 -1.13459 0
M  V30 2305 H 211.562 -7.07293 0.337916 0
M  V30 2306 H 211.97 -5.61195 -0.609937 0
M  V30 2307 N 211.368 -0.403325 -1.52352 0
M  V30 2308 C 212.298 0.416205 -2.29761 0
M  V30 2309 C 213.279 1.05123 -1.33728 0
M  V30 2310 O 214.464 1.06134 -1.62632 0
M  V30 2311 C 211.594 1.53624 -3.11475 0
M  V30 2312 C 210.548 1.02653 -4.15507 0
M  V30 2313 C 209.874 2.23971 -4.85532 0
M  V30 2314 C 211.174 0.08463 -5.22231 0
M  V30 2315 H 212.868 -0.229701 -2.98518 0
M  V30 2316 H 210.414 -0.111913 -1.43564 0
M  V30 2317 H 212.367 2.1165 -3.64393 0
M  V30 2318 H 211.091 2.20994 -2.40477 0
M  V30 2319 H 209.75 0.46871 -3.63591 0
M  V30 2320 H 209.398 2.89883 -4.11068 0
M  V30 2321 H 209.098 1.90521 -5.55856 0
M  V30 2322 H 210.622 2.82614 -5.41259 0
M  V30 2323 H 212.036 0.573509 -5.70424 0
M  V30 2324 H 210.433 -0.160783 -5.99885 0
M  V30 2325 H 211.503 -0.86237 -4.7717 0
M  V30 2326 N 212.846 1.57033 -0.133567 0
M  V30 2327 C 214.094 1.953 0.519848 0
M  V30 2328 C 214.415 1.01866 1.66278 0
M  V30 2329 O 213.685 0.0776513 1.95746 0
M  V30 2330 H 212.265 0.721091 0.195032 0
M  V30 2331 H 214.927 1.93809 -0.205921 0
M  V30 2332 H 214.023 2.98695 0.904854 0
M  V30 2333 N 214.325 -0.140222 1.56975 0
M  V30 2334 C 215.257 -1.19818 1.95388 0
M  V30 2335 C 216.27 -1.38816 0.850525 0
M  V30 2336 O 217.459 -1.38267 1.12891 0
M  V30 2337 C 214.559 -2.56189 2.21857 0
M  V30 2338 C 213.732 -2.58077 3.5315 0
M  V30 2339 C 212.791 -3.76037 3.6808 0
M  V30 2340 O 211.817 -3.60598 4.40406 0
M  V30 2341 N 213.019 -4.93763 3.05251 0
M  V30 2342 H 215.784 -0.871609 2.86746 0
M  V30 2343 H 213.345 -0.32972 1.58507 0
M  V30 2344 H 215.337 -3.33623 2.2908 0
M  V30 2345 H 213.907 -2.81111 1.36731 0
M  V30 2346 H 213.127 -1.6651 3.57307 0
M  V30 2347 H 214.415 -2.56377 4.39486 0
M  V30 2348 H 213.813 -5.09209 2.46419 0
M  V30 2349 H 212.37 -5.68949 3.18026 0
M  V30 2350 N 215.803 -1.52179 -0.40978 0
M  V30 2351 C 217.028 -1.70347 -1.18308 0
M  V30 2352 C 217.453 -0.411887 -1.83535 0
M  V30 2353 O 216.811 0.630587 -1.6998 0
M  V30 2354 C 216.859 -2.83977 -2.22238 0
M  V30 2355 O 215.963 -2.495 -3.28365 0
M  V30 2356 H 215.304 -0.567103 -0.345384 0
M  V30 2357 H 217.834 -1.98879 -0.480445 0
M  V30 2358 H 217.844 -3.0887 -2.66577 0
M  V30 2359 H 216.519 -3.77685 -1.74146 0
M  V30 2360 H 215.096 -2.35277 -2.89308 0
M  V30 2361 N 217.281 0.66697 -1.42791 0
M  V30 2362 C 218.509 1.45505 -1.47091 0
M  V30 2363 C 218.924 1.8861 -0.0845873 0
M  V30 2364 O 218.281 1.58632 0.90234 0
M  V30 2365 C 218.332 2.69906 -2.40485 0
M  V30 2366 O 218.053 2.28608 -3.73725 0
M  V30 2367 C 219.554 3.63396 -2.53886 0
M  V30 2368 H 216.774 0.447459 -0.500022 0
M  V30 2369 H 219.318 0.818866 -1.8739 0
M  V30 2370 H 217.473 3.29696 -2.03419 0
M  V30 2371 H 217.887 3.08997 -4.23817 0
M  V30 2372 H 219.361 4.47387 -3.2334 0
M  V30 2373 H 219.838 4.09824 -1.57927 0
M  V30 2374 H 220.444 3.09495 -2.91706 0
M  V30 2375 N 218.759 1.29093 0.90403 0
M  V30 2376 C 219.669 1.15727 2.0407 0
M  V30 2377 C 220.685 0.0815308 1.73809 0
M  V30 2378 O 221.861 0.292749 1.99261 0
M  V30 2379 C 218.926 0.830424 3.36608 0
M  V30 2380 C 217.987 1.98955 3.80415 0
M  V30 2381 C 217.22 1.6782 5.06628 0
M  V30 2382 O 217.443 0.597105 5.67266 0
M  V30 2383 O 216.377 2.52486 5.46383 0
M  V30 2384 H 220.203 2.11171 2.18267 0
M  V30 2385 H 217.788 1.08504 1.027 0
M  V30 2386 H 219.67 0.662521 4.16159 0
M  V30 2387 H 218.345 -0.0942678 3.23563 0
M  V30 2388 H 217.252 2.21267 3.01648 0
M  V30 2389 H 218.585 2.89529 3.98037 0
M  V30 2390 N 220.237 -1.11381 1.11499 0
M  V30 2391 C 221.147 -2.21019 0.786628 0
M  V30 2392 C 222.163 -1.72597 -0.220507 0
M  V30 2393 O 223.339 -2.01321 -0.0565251 0
M  V30 2394 C 220.404 -3.459 0.235333 0
M  V30 2395 C 219.465 -4.09107 1.30115 0
M  V30 2396 C 218.698 -5.28027 0.776068 0
M  V30 2397 O 218.921 -5.6904 -0.393661 0
M  V30 2398 O 217.855 -5.81835 1.54114 0
M  V30 2399 H 221.681 -2.51521 1.70209 0
M  V30 2400 H 219.266 -1.19928 0.890928 0
M  V30 2401 H 221.148 -4.21346 -0.067715 0
M  V30 2402 H 219.823 -3.17049 -0.652828 0
M  V30 2403 H 218.73 -3.35391 1.65722 0
M  V30 2404 H 220.063 -4.42139 2.16273 0
M  V30 2405 N 221.715 -0.905404 -1.28997 0
M  V30 2406 C 222.645 -0.404212 -2.29975 0
M  V30 2407 C 223.626 0.523784 -1.61835 0
M  V30 2408 O 224.811 0.433298 -1.89304 0
M  V30 2409 C 221.941 0.364042 -3.45387 0
M  V30 2410 C 220.895 -0.474048 -4.25367 0
M  V30 2411 C 220.221 0.422045 -5.33032 0
M  V30 2412 C 221.521 -1.72696 -4.92923 0
M  V30 2413 H 223.215 -1.24807 -2.72146 0
M  V30 2414 H 220.761 -0.601585 -1.30832 0
M  V30 2415 H 222.714 0.725447 -4.15109 0
M  V30 2416 H 221.438 1.24174 -3.02074 0
M  V30 2417 H 220.097 -0.81786 -3.57361 0
M  V30 2418 H 219.745 1.29804 -4.85963 0
M  V30 2419 H 219.445 -0.135057 -5.87445 0
M  V30 2420 H 220.969 0.779517 -6.05604 0
M  V30 2421 H 222.383 -1.43495 -5.55051 0
M  V30 2422 H 220.78 -2.22582 -5.57295 0
M  V30 2423 H 221.85 -2.45964 -4.17887 0
M  V30 2424 N 223.193 1.4272 -0.668489 0
M  V30 2425 C 224.609 1.55992 -0.33745 0
M  V30 2426 C 224.809 1.64933 1.15756 0
M  V30 2427 O 223.865 1.61278 1.94282 0
M  V30 2428 C 225.178 2.81314 -1.06222 0
M  V30 2429 C 226.726 2.95078 -1.04394 0
M  V30 2430 C 227.201 4.23252 -1.74991 0
M  V30 2431 N 228.692 4.3015 -1.71829 0
M  V30 2432 C 229.427 5.28127 -2.23315 0
M  V30 2433 N 228.923 6.32293 -2.83156 0
M  V30 2434 N 230.716 5.19882 -2.13726 0
M  V30 2435 H 222.867 1.3516 -1.63846 0
M  V30 2436 H 225.13 0.650174 -0.689912 0
M  V30 2437 H 224.836 2.80823 -2.11734 0
M  V30 2438 H 224.71 3.72012 -0.62344 0
M  V30 2439 H 227.097 2.951 0.0028244 0
M  V30 2440 H 227.178 2.05627 -1.52155 0
M  V30 2441 H 226.822 4.2399 -2.79633 0
M  V30 2442 H 226.752 5.11626 -1.24685 0
M  V30 2443 H 229.243 3.55499 -1.28175 0
M  V30 2444 H 229.556 7.03398 -3.20079 0
M  V30 2445 H 227.901 6.32873 -2.87223 0
M  V30 2446 H 231.092 4.37423 -1.66669 0
M  V30 2447 H 231.265 5.96077 -2.54158 0
M  V30 2448 N 224.671 0.411399 1.52136 0
M  V30 2449 C 225.917 -0.163888 2.02137 0
M  V30 2450 C 226.25 -1.44597 1.29636 0
M  V30 2451 O 225.525 -1.90272 0.403353 0
M  V30 2452 C 225.808 -0.40927 3.57767 0
M  V30 2453 C 225.661 0.889643 4.40914 0
M  V30 2454 C 226.98 -1.19042 4.23694 0
M  V30 2455 H 224.099 -0.0580896 0.734707 0
M  V30 2456 H 226.741 0.54531 1.82007 0
M  V30 2457 H 224.891 -1.0134 3.7505 0
M  V30 2458 H 226.563 1.52575 4.35337 0
M  V30 2459 H 224.806 1.50011 4.07037 0
M  V30 2460 H 225.477 0.672314 5.4789 0
M  V30 2461 H 227.953 -0.678942 4.10524 0
M  V30 2462 H 226.829 -1.33086 5.32522 0
M  V30 2463 H 227.09 -2.21166 3.82803 0
M  V30 2464 N 226.149 -1.5696 0.141893 0
M  V30 2465 C 227.565 -1.58151 -0.21456 0
M  V30 2466 C 227.765 -1.1559 -1.65049 0
M  V30 2467 O 226.821 -0.853832 -2.37626 0
M  V30 2468 C 228.134 -3.00674 0.0395576 0
M  V30 2469 C 229.682 -3.1299 -0.0245529 0
M  V30 2470 C 230.157 -4.57554 0.202167 0
M  V30 2471 N 231.648 -4.62961 0.148919 0
M  V30 2472 C 232.383 -5.7262 0.298924 0
M  V30 2473 N 231.879 -6.90947 0.50637 0
M  V30 2474 N 233.672 -5.61601 0.236886 0
M  V30 2475 H 225.823 -1.8292 1.07953 0
M  V30 2476 H 228.086 -0.846425 0.42693 0
M  V30 2477 H 227.792 -3.36183 1.03315 0
M  V30 2478 H 227.666 -3.70981 -0.682143 0
M  V30 2479 H 230.053 -2.77326 -1.00869 0
M  V30 2480 H 230.134 -2.4518 0.729396 0
M  V30 2481 H 229.778 -4.93922 1.18338 0
M  V30 2482 H 229.708 -5.23484 -0.572044 0
M  V30 2483 H 232.199 -3.77899 -0.00697015 0
M  V30 2484 H 232.512 -7.7038 0.611076 0
M  V30 2485 H 230.857 -6.92878 0.542628 0
M  V30 2486 H 234.048 -4.68039 0.0756209 0
M  V30 2487 H 234.221 -6.47015 0.357227 0
M  V30 2488 N 227.627 0.131896 -1.57047 0
M  V30 2489 C 228.557 1.16384 -2.02428 0
M  V30 2490 C 229.538 1.43936 -0.90644 0
M  V30 2491 O 230.723 1.54599 -1.17528 0
M  V30 2492 C 227.853 2.49328 -2.4177 0
M  V30 2493 C 226.807 2.36266 -3.56879 0
M  V30 2494 C 226.133 3.74057 -3.8208 0
M  V30 2495 C 227.433 1.834 -4.89042 0
M  V30 2496 H 229.127 0.786433 -2.88887 0
M  V30 2497 H 226.673 0.376855 -1.38981 0
M  V30 2498 H 228.626 3.21759 -2.7212 0
M  V30 2499 H 227.35 2.88934 -1.52266 0
M  V30 2500 H 226.009 1.66286 -3.26718 0
M  V30 2501 H 225.657 4.11125 -2.89803 0
M  V30 2502 H 225.357 3.66174 -4.59554 0
M  V30 2503 H 226.881 4.48012 -4.1487 0
M  V30 2504 H 228.295 2.45636 -5.18011 0
M  V30 2505 H 226.692 1.8637 -5.70426 0
M  V30 2506 H 227.762 0.790662 -4.7841 0
M  V30 2507 N 229.106 1.52395 0.401703 0
M  V30 2508 C 230.069 1.75636 1.47257 0
M  V30 2509 C 231.069 0.62628 1.48103 0
M  V30 2510 O 232.259 0.894227 1.49497 0
M  V30 2511 C 229.391 1.84553 2.86624 0
M  V30 2512 H 230.584 2.71241 1.27938 0
M  V30 2513 H 228.137 1.42923 0.632662 0
M  V30 2514 H 228.872 0.908882 3.11303 0
M  V30 2515 H 228.657 2.66715 2.87412 0
M  V30 2516 H 230.147 2.04251 3.64241 0
M  V30 2517 N 230.584 -0.659388 1.43143 0
M  V30 2518 C 231.809 -1.45221 1.48073 0
M  V30 2519 C 232.234 -1.87845 0.097995 0
M  V30 2520 O 231.592 -1.56985 -0.90694 0
M  V30 2521 C 231.64 -2.66748 2.42647 0
M  V30 2522 O 230.744 -3.65583 1.90848 0
M  V30 2523 H 230.085 -0.435669 0.501088 0
M  V30 2524 H 232.615 -0.807432 1.87994 0
M  V30 2525 H 232.625 -3.14637 2.59745 0
M  V30 2526 H 231.3 -2.35067 3.43098 0
M  V30 2527 H 229.877 -3.24693 1.83381 0
M  V30 2528 N 232.062 -1.29571 -0.897171 0
M  V30 2529 C 233.012 -1.11539 -1.98855 0
M  V30 2530 C 233.996 -0.0340716 -1.60864 0
M  V30 2531 O 235.188 -0.256062 -1.75138 0
M  V30 2532 C 232.317 -0.796603 -3.3393 0
M  V30 2533 C 231.403 -1.91758 -3.78272 0
M  V30 2534 N 231.794 -3.16143 -3.94826 0
M  V30 2535 C 230.092 -1.81119 -4.07568 0
M  V30 2536 C 230.793 -3.89293 -4.32233 0
M  V30 2537 N 229.769 -3.17255 -4.41419 0
M  V30 2538 H 233.571 -2.05894 -2.09726 0
M  V30 2539 H 231.085 -1.20732 -1.08616 0
M  V30 2540 H 233.082 -0.648459 -4.11826 0
M  V30 2541 H 231.742 0.139003 -3.24402 0
M  V30 2542 H 232.753 -3.5157 -3.80288 0
M  V30 2543 H 229.43 -0.948461 -4.06584 0
M  V30 2544 H 230.82 -4.9635 -4.52865 0
M  V30 2545 N 233.54 1.10788 -1.12088 0
M  V30 2546 C 234.47 2.19083 -0.807755 0
M  V30 2547 C 235.451 1.6858 0.226859 0
M  V30 2548 O 236.636 1.93997 0.0888475 0
M  V30 2549 C 233.766 3.46344 -0.257576 0
M  V30 2550 C 232.72 4.101 -1.22483 0
M  V30 2551 C 232.046 5.32016 -0.535052 0
M  V30 2552 C 233.346 4.54236 -2.57811 0
M  V30 2553 H 235.04 2.45534 -1.71328 0
M  V30 2554 H 232.586 1.1801 -0.825205 0
M  V30 2555 H 234.539 4.21392 -0.0262679 0
M  V30 2556 H 233.263 3.19373 0.683278 0
M  V30 2557 H 231.922 3.37054 -1.44189 0
M  V30 2558 H 231.57 5.01319 0.410827 0
M  V30 2559 H 231.27 5.75625 -1.18024 0
M  V30 2560 H 232.794 6.09799 -0.312695 0
M  V30 2561 H 234.208 5.20575 -2.40155 0
M  V30 2562 H 232.605 5.08682 -3.18375 0
M  V30 2563 H 233.675 3.6734 -3.16528 0
M  V30 2564 N 235.018 0.912232 1.28515 0
M  V30 2565 C 236.434 0.610159 1.47476 0
M  V30 2566 C 236.634 -0.844955 1.82928 0
M  V30 2567 O 235.69 -1.62416 1.93332 0
M  V30 2568 C 237.003 1.54675 2.57868 0
M  V30 2569 C 238.551 1.55331 2.71738 0
M  V30 2570 C 239.026 2.47649 3.85272 0
M  V30 2571 N 240.517 2.45767 3.92623 0
M  V30 2572 C 241.252 3.13896 4.79851 0
M  V30 2573 N 240.748 3.9135 5.71679 0
M  V30 2574 N 242.541 3.02991 4.73448 0
M  V30 2575 H 234.692 1.85318 1.03783 0
M  V30 2576 H 236.955 0.794777 0.516753 0
M  V30 2577 H 236.661 2.5841 2.38574 0
M  V30 2578 H 236.535 1.27671 3.54937 0
M  V30 2579 H 238.922 0.52335 2.90422 0
M  V30 2580 H 239.003 1.86378 1.75205 0
M  V30 2581 H 238.647 3.50745 3.67342 0
M  V30 2582 H 238.577 2.13904 4.81199 0
M  V30 2583 H 241.068 1.89503 3.26951 0
M  V30 2584 H 241.381 4.40359 6.35062 0
M  V30 2585 H 239.726 3.95455 5.71524 0
M  V30 2586 H 242.917 2.41987 4.007 0
M  V30 2587 H 243.09 3.5636 5.41213 0
M  V30 2588 N 236.496 -1.42363 0.676048 0
M  V30 2589 C 237.443 -2.308 -0.00150904 0
M  V30 2590 C 238.413 -1.46032 -0.791444 0
M  V30 2591 O 239.598 -1.74861 -0.76344 0
M  V30 2592 C 236.738 -3.31883 -0.945919 0
M  V30 2593 C 235.851 -4.31741 -0.149675 0
M  V30 2594 C 234.986 -5.19898 -1.08995 0
M  V30 2595 C 234.025 -6.11434 -0.285465 0
M  V30 2596 N 233.162 -6.92138 -1.17851 0
M  V30 2597 H 238.002 -2.88187 0.758455 0
M  V30 2598 H 235.539 -1.41952 0.38576 0
M  V30 2599 H 237.497 -3.89019 -1.50731 0
M  V30 2600 H 236.127 -2.76093 -1.6725 0
M  V30 2601 H 235.179 -3.76713 0.528359 0
M  V30 2602 H 236.491 -4.96534 0.474866 0
M  V30 2603 H 235.645 -5.81772 -1.72123 0
M  V30 2604 H 234.384 -4.55284 -1.74837 0
M  V30 2605 H 233.389 -5.48627 0.359018 0
M  V30 2606 H 234.614 -6.78097 0.368883 0
M  V30 2607 H 232.56 -6.30152 -1.82332 0
M  V30 2608 H 232.477 -7.53542 -0.609082 0
M  V30 2609 H 233.745 -7.58499 -1.79722 0
M  V30 2610 N 237.974 -0.419461 -1.51915 0
M  V30 2611 C 238.904 0.391813 -2.30189 0
M  V30 2612 C 239.885 1.03699 -1.34836 0
M  V30 2613 O 241.07 1.04403 -1.63748 0
M  V30 2614 C 238.2 1.50312 -3.13087 0
M  V30 2615 C 237.154 0.9824 -4.16573 0
M  V30 2616 C 236.48 2.18809 -4.8788 0
M  V30 2617 C 237.78 0.0292356 -5.22292 0
M  V30 2618 H 239.474 -0.26135 -2.98257 0
M  V30 2619 H 237.02 -0.127134 -1.43438 0
M  V30 2620 H 238.973 2.07773 -3.66617 0
M  V30 2621 H 237.697 2.18431 -2.42807 0
M  V30 2622 H 236.356 0.430119 -3.64068 0
M  V30 2623 H 236.004 2.85507 -4.14119 0
M  V30 2624 H 235.704 1.84615 -5.57845 0
M  V30 2625 H 237.228 2.76858 -5.44226 0
M  V30 2626 H 238.642 0.512976 -5.71 0
M  V30 2627 H 237.039 -0.2244 -5.9968 0
M  V30 2628 H 238.109 -0.912931 -4.76228 0
M  V30 2629 N 239.452 1.56882 -0.150215 0
M  V30 2630 C 240.868 1.58263 0.20617 0
M  V30 2631 C 241.068 1.16464 1.64434 0
M  V30 2632 O 240.124 0.866422 2.3717 0
M  V30 2633 C 241.437 3.00649 -0.0555025 0
M  V30 2634 C 242.985 3.12999 0.00795388 0
M  V30 2635 C 243.46 4.5744 -0.226429 0
M  V30 2636 N 244.951 4.62875 -0.173469 0
M  V30 2637 C 245.686 5.72454 -0.329288 0
M  V30 2638 N 245.182 6.90669 -0.543005 0
M  V30 2639 N 246.975 5.61467 -0.266666 0
M  V30 2640 H 239.126 1.82345 -1.08922 0
M  V30 2641 H 241.389 0.844149 -0.431413 0
M  V30 2642 H 241.095 3.3563 -1.05096 0
M  V30 2643 H 240.969 3.71337 0.66246 0
M  V30 2644 H 243.356 2.77857 0.993966 0
M  V30 2645 H 243.437 2.4479 -0.742388 0
M  V30 2646 H 243.081 4.93287 -1.20956 0
M  V30 2647 H 243.011 5.2378 0.544274 0
M  V30 2648 H 245.502 3.77898 -0.0130709 0
M  V30 2649 H 245.815 7.70045 -0.651922 0
M  V30 2650 H 244.16 6.92581 -0.579366 0
M  V30 2651 H 247.351 4.67992 -0.100441 0
M  V30 2652 H 247.524 6.46816 -0.391535 0
M  V30 2653 N 240.93 -0.123565 1.57115 0
M  V30 2654 C 241.877 -1.15177 2.00007 0
M  V30 2655 C 242.847 -1.41403 0.871454 0
M  V30 2656 O 244.032 -1.53346 1.13533 0
M  V30 2657 C 241.172 -2.47436 2.40561 0
M  V30 2658 C 240.285 -2.28184 3.66819 0
M  V30 2659 C 239.42 -3.53641 3.96373 0
M  V30 2660 C 238.459 -3.29528 5.15827 0
M  V30 2661 N 237.596 -4.47175 5.41275 0
M  V30 2662 H 242.436 -0.779008 2.87638 0
M  V30 2663 H 239.973 -0.373166 1.42288 0
M  V30 2664 H 241.931 -3.24584 2.62109 0
M  V30 2665 H 240.561 -2.82614 1.55978 0
M  V30 2666 H 239.613 -1.41976 3.52912 0
M  V30 2667 H 240.925 -2.0634 4.5412 0
M  V30 2668 H 240.079 -4.39209 4.18545 0
M  V30 2669 H 238.818 -3.78512 3.07538 0
M  V30 2670 H 237.823 -2.42349 4.93505 0
M  V30 2671 H 239.048 -3.06031 6.06236 0
M  V30 2672 H 236.994 -4.72175 4.55397 0
M  V30 2673 H 236.911 -4.28419 6.22891 0
M  V30 2674 H 238.179 -5.3389 5.67963 0
M  V30 2675 N 242.408 -1.52605 -0.393616 0
M  V30 2676 C 243.824 -1.41753 -0.733357 0
M  V30 2677 C 244.024 -0.534293 -1.94287 0
M  V30 2678 O 243.08 -0.0059787 -2.52499 0
M  V30 2679 C 244.393 -2.84531 -0.972772 0
M  V30 2680 C 245.941 -2.93978 -1.07453 0
M  V30 2681 C 246.416 -4.37756 -1.3466 0
M  V30 2682 N 247.907 -4.4106 -1.41492 0
M  V30 2683 C 248.642 -5.49387 -1.642 0
M  V30 2684 N 248.138 -6.67806 -1.8441 0
M  V30 2685 N 249.931 -5.36923 -1.66342 0
M  V30 2686 H 242.082 -2.08555 0.402328 0
M  V30 2687 H 244.345 -0.940654 0.117789 0
M  V30 2688 H 244.051 -3.51353 -0.156204 0
M  V30 2689 H 243.925 -3.26508 -1.88871 0
M  V30 2690 H 246.312 -2.27326 -1.88167 0
M  V30 2691 H 246.393 -2.55435 -0.136605 0
M  V30 2692 H 246.037 -5.04972 -0.544581 0
M  V30 2693 H 245.967 -4.73848 -2.2973 0
M  V30 2694 H 248.458 -3.55705 -1.27601 0
M  V30 2695 H 248.771 -7.46141 -2.01231 0
M  V30 2696 H 247.116 -6.70843 -1.81644 0
M  V30 2697 H 250.307 -4.43381 -1.50102 0
M  V30 2698 H 250.48 -6.21416 -1.837 0
M  V30 2699 N 243.887 0.651787 -1.4349 0
M  V30 2700 C 244.817 1.77621 -1.51569 0
M  V30 2701 C 245.798 1.66022 -0.370253 0
M  V30 2702 O 246.983 1.85095 -0.587658 0
M  V30 2703 C 244.113 3.16056 -1.43966 0
M  V30 2704 C 243.067 3.4242 -2.56774 0
M  V30 2705 C 242.393 4.8067 -2.34223 0
M  V30 2706 C 243.693 3.37023 -3.99015 0
M  V30 2707 H 245.387 1.71117 -2.45681 0
M  V30 2708 H 242.933 0.821825 -1.18246 0
M  V30 2709 H 244.886 3.94472 -1.48221 0
M  V30 2710 H 243.61 3.23293 -0.463586 0
M  V30 2711 H 242.269 2.66375 -2.51873 0
M  V30 2712 H 241.917 4.84585 -1.34856 0
M  V30 2713 H 241.617 4.9927 -3.09844 0
M  V30 2714 H 243.141 5.61342 -2.40265 0
M  V30 2715 H 244.555 4.05374 -4.05395 0
M  V30 2716 H 242.952 3.67159 -4.74673 0
M  V30 2717 H 244.022 2.3518 -4.2405 0
M  V30 2718 N 245.365 1.30045 0.890287 0
M  V30 2719 C 246.295 1.18541 2.01172 0
M  V30 2720 C 247.276 0.0773356 1.69924 0
M  V30 2721 O 248.461 0.25845 1.92473 0
M  V30 2722 C 245.591 0.870941 3.36202 0
M  V30 2723 C 244.545 1.93637 3.81692 0
M  V30 2724 C 243.871 1.475 5.13953 0
M  V30 2725 C 245.171 3.34666 4.00994 0
M  V30 2726 H 246.865 2.12359 2.11054 0
M  V30 2727 H 244.411 1.02238 1.01407 0
M  V30 2728 H 246.364 0.777141 4.14172 0
M  V30 2729 H 245.088 -0.102926 3.26438 0
M  V30 2730 H 243.747 2.01972 3.05946 0
M  V30 2731 H 243.395 0.489551 5.00612 0
M  V30 2732 H 243.095 2.1876 5.4536 0
M  V30 2733 H 244.619 1.39489 5.94454 0
M  V30 2734 H 246.033 3.2912 4.69417 0
M  V30 2735 H 244.43 4.03966 4.43769 0
M  V30 2736 H 245.5 3.76949 3.05021 0
M  V30 2737 N 246.843 -1.10192 1.12674 0
M  V30 2738 C 248.259 -1.34235 0.863317 0
M  V30 2739 C 248.459 -1.95062 -0.505277 0
M  V30 2740 O 247.515 -2.19192 -1.25345 0
M  V30 2741 C 248.828 -2.2616 1.98172 0
M  V30 2742 C 250.376 -2.3969 2.0129 0
M  V30 2743 C 250.851 -3.34946 3.1237 0
M  V30 2744 N 252.342 -3.42515 3.11829 0
M  V30 2745 C 253.077 -4.16199 3.94419 0
M  V30 2746 N 252.573 -4.92747 4.87004 0
M  V30 2747 N 254.366 -4.11843 3.82547 0
M  V30 2748 H 246.517 -0.690798 2.00853 0
M  V30 2749 H 248.78 -0.366774 0.874174 0
M  V30 2750 H 248.486 -1.8868 2.96804 0
M  V30 2751 H 248.36 -3.26488 1.88906 0
M  V30 2752 H 250.747 -2.76438 1.03276 0
M  V30 2753 H 250.828 -1.39169 2.14629 0
M  V30 2754 H 250.472 -2.98923 4.10619 0
M  V30 2755 H 250.402 -4.35353 2.96269 0
M  V30 2756 H 252.893 -2.87926 2.44759 0
M  V30 2757 H 253.206 -5.46376 5.46528 0
M  V30 2758 H 251.551 -4.91862 4.91016 0
M  V30 2759 H 254.742 -3.51136 3.0955 0
M  V30 2760 H 254.915 -4.69007 4.47142 0
M  V30 2761 N 248.321 -0.919034 -1.28029 0
M  V30 2762 C 249.598 -0.473668 -1.89778 0
M  V30 2763 C 249.978 1.04783 -1.83259 0
M  V30 2764 O 249.326 1.8982 -1.27202 0
M  V30 2765 C 249.536 -1.00998 -3.34066 0
M  V30 2766 C 250.884 -1.06525 -4.1102 0
M  V30 2767 O 251.908 -0.958996 -3.43048 0
M  V30 2768 O 250.767 -1.22776 -5.3253 0
M  V30 2769 H 247.861 -0.15098 -0.813101 0
M  V30 2770 H 250.407 -1.01016 -1.36359 0
M  V30 2771 H 249.179 -2.05392 -3.33061 0
M  V30 2772 H 248.802 -0.454626 -3.94992 0
M  V30 2773 N 249.799 1.42003 -0.683588 0
M  V30 2774 C 250.762 2.29191 -0.0198243 0
M  V30 2775 C 251.762 1.43773 0.72013 0
M  V30 2776 O 252.952 1.65061 0.556815 0
M  V30 2777 C 250.084 3.26435 0.982487 0
M  V30 2778 H 251.277 2.8938 -0.787345 0
M  V30 2779 H 248.83 1.49789 -0.446418 0
M  V30 2780 H 249.565 2.71203 1.77819 0
M  V30 2781 H 249.35 3.89449 0.455182 0
M  V30 2782 H 250.84 3.918 1.44508 0
M  V30 2783 N 251.277 0.427512 1.51691 0
M  V30 2784 C 252.554 -0.201684 1.94557 0
M  V30 2785 C 252.934 -1.60981 1.36559 0
M  V30 2786 O 252.282 -2.21814 0.548702 0
M  V30 2787 C 252.492 -0.189394 3.48486 0
M  V30 2788 C 253.84 -0.39978 4.22714 0
M  V30 2789 O 254.864 -0.267945 3.55191 0
M  V30 2790 O 253.723 -0.661249 5.42485 0
M  V30 2791 H 250.817 -0.135261 0.815864 0
M  V30 2792 H 253.363 0.484782 1.62628 0
M  V30 2793 H 252.135 0.795431 3.8313 0
M  V30 2794 H 251.758 -0.919187 3.86829 0
M  V30 2795 N 252.755 -1.56801 0.158532 0
M  V30 2796 C 254.032 -1.88131 -0.535357 0
M  V30 2797 C 254.412 -1.06638 -1.82186 0
M  V30 2798 O 253.76 -0.156533 -2.27963 0
M  V30 2799 C 253.97 -3.39949 -0.789653 0
M  V30 2800 C 255.318 -4.09416 -1.12533 0
M  V30 2801 O 256.342 -3.45194 -0.878622 0
M  V30 2802 O 255.201 -5.22855 -1.59014 0
M  V30 2803 H 252.295 -0.780143 -0.27442 0
M  V30 2804 H 254.841 -1.68564 0.19601 0
M  V30 2805 H 253.613 -3.91115 0.120353 0
M  V30 2806 H 253.236 -3.65084 -1.57479 0
M  V30 2807 N 254.233 0.115231 -1.57178 0
M  V30 2808 C 255.163 1.1423 -2.03651 0
M  V30 2809 C 256.144 1.42967 -0.921655 0
M  V30 2810 O 257.329 1.53343 -1.19162 0
M  V30 2811 C 254.459 2.4675 -2.44401 0
M  V30 2812 C 253.413 2.32467 -3.59365 0
M  V30 2813 C 252.739 3.69984 -3.86026 0
M  V30 2814 C 254.039 1.78203 -4.90959 0
M  V30 2815 H 255.733 0.755749 -2.89705 0
M  V30 2816 H 253.279 0.362093 -1.39373 0
M  V30 2817 H 255.232 3.18854 -2.75517 0
M  V30 2818 H 253.956 2.87302 -1.55322 0
M  V30 2819 H 252.615 1.62811 -3.28463 0
M  V30 2820 H 252.263 4.08028 -2.94147 0
M  V30 2821 H 251.963 3.61279 -4.63412 0
M  V30 2822 H 253.487 4.43587 -4.19599 0
M  V30 2823 H 254.901 2.40128 -5.20587 0
M  V30 2824 H 253.298 1.8031 -5.72371 0
M  V30 2825 H 254.368 0.739876 -4.79222 0
M  V30 2826 N 255.711 1.52812 0.385517 0
M  V30 2827 C 256.643 1.74096 1.49074 0
M  V30 2828 C 257.656 0.621462 1.50472 0
M  V30 2829 O 258.845 0.897245 1.54311 0
M  V30 2830 C 255.945 1.78774 2.87911 0
M  V30 2831 C 255.118 3.08134 3.10439 0
M  V30 2832 C 254.177 3.04313 4.29278 0
M  V30 2833 O 253.203 3.78168 4.25415 0
M  V30 2834 N 254.405 2.23741 5.35649 0
M  V30 2835 H 257.17 2.69455 1.31202 0
M  V30 2836 H 254.731 1.51343 0.575065 0
M  V30 2837 H 256.723 1.73721 3.65518 0
M  V30 2838 H 255.293 0.907869 2.99126 0
M  V30 2839 H 254.513 3.26649 2.20667 0
M  V30 2840 H 255.801 3.93662 3.22347 0
M  V30 2841 H 255.199 1.63211 5.41645 0
M  V30 2842 H 253.756 2.24524 6.11909 0
M  V30 2843 N 257.189 -0.644168 1.43834 0
M  V30 2844 C 258.136 -1.75671 1.49694 0
M  V30 2845 C 259.106 -1.6246 0.345809 0
M  V30 2846 O 260.291 -1.82573 0.554234 0
M  V30 2847 C 257.431 -3.13867 1.43463 0
M  V30 2848 C 256.544 -3.38147 2.6885 0
M  V30 2849 C 255.679 -4.66241 2.54544 0
M  V30 2850 C 254.718 -4.83657 3.75157 0
M  V30 2851 N 253.855 -6.03016 3.59605 0
M  V30 2852 H 258.695 -1.69998 2.44754 0
M  V30 2853 H 256.232 -0.829458 1.21484 0
M  V30 2854 H 258.19 -3.9377 1.37843 0
M  V30 2855 H 256.82 -3.18588 0.519783 0
M  V30 2856 H 255.872 -2.52276 2.84712 0
M  V30 2857 H 257.184 -3.46899 3.58417 0
M  V30 2858 H 256.338 -5.54285 2.46683 0
M  V30 2859 H 255.077 -4.59826 1.62516 0
M  V30 2860 H 254.082 -3.94046 3.83416 0
M  V30 2861 H 255.307 -4.91896 4.68204 0
M  V30 2862 H 253.253 -5.97715 2.7032 0
M  V30 2863 H 253.17 -6.12766 4.42779 0
M  V30 2864 H 254.438 -6.93657 3.55613 0
M  V30 2865 N 258.668 -1.30515 -0.883378 0
M  V30 2866 C 260.084 -1.08881 -1.16692 0
M  V30 2867 C 260.284 0.149409 -2.00945 0
M  V30 2868 O 259.34 0.84257 -2.38027 0
M  V30 2869 C 260.653 -2.35319 -1.87204 0
M  V30 2870 C 262.201 -2.40799 -1.99962 0
M  V30 2871 C 262.676 -3.67083 -2.73887 0
M  V30 2872 N 264.167 -3.679 -2.81432 0
M  V30 2873 C 264.902 -4.62303 -3.3921 0
M  V30 2874 N 264.398 -5.67052 -3.98025 0
M  V30 2875 N 266.191 -4.49845 -3.3704 0
M  V30 2876 H 258.342 -2.09951 -0.321633 0
M  V30 2877 H 260.605 -0.92556 -0.205043 0
M  V30 2878 H 260.311 -3.25689 -1.3274 0
M  V30 2879 H 260.185 -2.44089 -2.87577 0
M  V30 2880 H 262.572 -1.50907 -2.53597 0
M  V30 2881 H 262.653 -2.36003 -0.98673 0
M  V30 2882 H 262.297 -4.57334 -2.20925 0
M  V30 2883 H 262.227 -3.69141 -3.75556 0
M  V30 2884 H 264.718 -2.92171 -2.39676 0
M  V30 2885 H 265.031 -6.35184 -4.40183 0
M  V30 2886 H 263.376 -5.70842 -3.96439 0
M  V30 2887 H 266.567 -3.67194 -2.90321 0
M  V30 2888 H 266.74 -5.23597 -3.81772 0
M  V30 2889 N 260.146 1.09593 -1.13257 0
M  V30 2890 C 261.076 2.18214 -0.830946 0
M  V30 2891 C 262.057 1.68812 0.208966 0
M  V30 2892 O 263.242 1.9408 0.0682666 0
M  V30 2893 C 260.372 3.46051 -0.294296 0
M  V30 2894 C 259.326 4.08778 -1.26826 0
M  V30 2895 C 258.652 5.31419 -0.591449 0
M  V30 2896 C 259.952 4.51476 -2.62615 0
M  V30 2897 H 261.646 2.43703 -1.73923 0
M  V30 2898 H 259.192 1.17128 -0.837675 0
M  V30 2899 H 261.145 4.2134 -0.0709606 0
M  V30 2900 H 259.869 3.20079 0.649366 0
M  V30 2901 H 258.528 3.35505 -1.47756 0
M  V30 2902 H 258.176 5.01727 0.357633 0
M  V30 2903 H 257.876 5.74341 -1.24123 0
M  V30 2904 H 259.4 6.09433 -0.377355 0
M  V30 2905 H 260.814 5.17999 -2.45663 0
M  V30 2906 H 259.211 5.05277 -3.23752 0
M  V30 2907 H 260.281 3.63962 -3.20406 0
M  V30 2908 N 261.624 0.925811 1.2754 0
M  V30 2909 C 262.587 0.428129 2.25166 0
M  V30 2910 C 263.587 -0.452261 1.54309 0
M  V30 2911 O 264.777 -0.253608 1.72344 0
M  V30 2912 C 261.909 -0.384749 3.38722 0
M  V30 2913 H 263.102 1.29066 2.70706 0
M  V30 2914 H 260.655 0.706323 1.3943 0
M  V30 2915 H 261.39 -1.26618 2.98561 0
M  V30 2916 H 261.175 0.246454 3.91325 0
M  V30 2917 H 262.665 -0.723389 4.11287 0
M  V30 2918 N 263.102 -1.41638 0.69111 0
M  V30 2919 C 264.348 -2.01598 0.220519 0
M  V30 2920 C 264.681 -1.54594 -1.17535 0
M  V30 2921 O 263.956 -0.755177 -1.79241 0
M  V30 2922 C 264.239 -3.59062 0.273243 0
M  V30 2923 C 264.092 -4.16203 1.70573 0
M  V30 2924 C 265.411 -4.38546 -0.369457 0
M  V30 2925 H 262.53 -0.732468 0.0816045 0
M  V30 2926 H 265.172 -1.68445 0.878986 0
M  V30 2927 H 263.322 -3.87435 -0.287411 0
M  V30 2928 H 264.994 -3.98722 2.31989 0
M  V30 2929 H 263.237 -3.71414 2.2413 0
M  V30 2930 H 263.908 -5.25358 1.69419 0
M  V30 2931 H 266.384 -4.1596 0.107977 0
M  V30 2932 H 265.26 -5.48069 -0.302002 0
M  V30 2933 H 265.521 -4.17662 -1.44951 0
M  V30 2934 N 264.58 -0.43555 -1.51462 0
M  V30 2935 C 265.81 0.130053 -2.0619 0
M  V30 2936 C 266.218 1.37164 -1.30317 0
M  V30 2937 O 265.561 1.80225 -0.355598 0
M  V30 2938 C 265.623 0.519418 -3.55728 0
M  V30 2939 C 265.287 -0.615119 -4.52841 0
M  V30 2940 C 266.284 -1.48671 -4.9819 0
M  V30 2941 C 263.969 -0.795341 -4.95963 0
M  V30 2942 C 265.963 -2.52324 -5.8533 0
M  V30 2943 C 263.65 -1.83514 -5.82894 0
M  V30 2944 C 264.648 -2.69748 -6.27475 0
M  V30 2945 O 264.336 -3.71944 -7.1268 0
M  V30 2946 H 264.068 0.0121612 -0.675891 0
M  V30 2947 H 266.622 -0.6129 -1.96043 0
M  V30 2948 H 264.852 1.31505 -3.63653 0
M  V30 2949 H 266.541 1.01597 -3.92979 0
M  V30 2950 H 267.307 -1.359 -4.65571 0
M  V30 2951 H 263.186 -0.133713 -4.60806 0
M  V30 2952 H 266.73 -3.19665 -6.20048 0
M  V30 2953 H 262.627 -1.96306 -6.14926 0
M  V30 2954 H 263.395 -3.68503 -7.30854 0
M  V30 2955 N 266.058 1.56714 -0.166846 0
M  V30 2956 C 266.99 2.14914 0.796537 0
M  V30 2957 C 268.003 1.10357 1.19688 0
M  V30 2958 O 269.192 1.37561 1.13751 0
M  V30 2959 C 266.292 2.67326 2.08303 0
M  V30 2960 C 265.465 3.96493 1.84696 0
M  V30 2961 C 264.524 4.34014 2.97521 0
M  V30 2962 O 263.55 5.01973 2.6835 0
M  V30 2963 N 264.752 3.95208 4.25196 0
M  V30 2964 H 267.517 2.98205 0.299006 0
M  V30 2965 H 265.078 1.61892 0.0160839 0
M  V30 2966 H 267.07 2.89428 2.82867 0
M  V30 2967 H 265.64 1.88649 2.4926 0
M  V30 2968 H 264.86 3.82814 0.940602 0
M  V30 2969 H 266.148 4.8086 1.66285 0
M  V30 2970 H 265.546 3.40487 4.51758 0
M  V30 2971 H 264.103 4.2232 4.96477 0
M  V30 2972 N 267.536 -0.106894 1.57237 0
M  V30 2973 C 268.499 -1.11466 2.0027 0
M  V30 2974 C 269.499 -1.33623 0.894519 0
M  V30 2975 O 270.689 -1.29935 1.16028 0
M  V30 2976 C 267.821 -2.46646 2.35327 0
M  V30 2977 H 269.014 -0.744516 2.90512 0
M  V30 2978 H 266.567 -0.351576 1.52295 0
M  V30 2979 H 267.302 -2.88558 1.48003 0
M  V30 2980 H 267.087 -2.31915 3.16161 0
M  V30 2981 H 268.577 -3.19151 2.69318 0
M  V30 2982 N 269.014 -1.53014 -0.377408 0
M  V30 2983 C 270.262 -1.6829 -1.11906 0
M  V30 2984 C 270.583 -0.431206 -1.90173 0
M  V30 2985 O 269.853 0.554595 -1.87886 0
M  V30 2986 H 268.433 -0.620371 -0.416112 0
M  V30 2987 H 271.095 -1.90167 -0.426893 0
M  V30 2988 H 270.191 -2.53862 -1.8155 0
M  V30 2989 N 270.492 0.636531 -1.44174 0
M  V30 2990 C 271.455 1.73063 -1.50273 0
M  V30 2991 C 272.455 1.56113 -0.385397 0
M  V30 2992 O 273.645 1.61707 -0.64781 0
M  V30 2993 C 270.777 3.12096 -1.37145 0
M  V30 2994 H 271.97 1.69031 -2.47727 0
M  V30 2995 H 269.523 0.849706 -1.31186 0
M  V30 2996 H 270.258 3.21728 -0.407636 0
M  V30 2997 H 270.043 3.25805 -2.18159 0
M  V30 2998 H 271.533 3.91846 -1.44382 0
M  V30 2999 N 271.97 1.30982 0.876444 0
M  V30 3000 C 273.386 1.09498 1.16113 0
M  V30 3001 C 273.586 -0.13875 2.01022 0
M  V30 3002 O 272.642 -0.829935 2.38471 0
M  V30 3003 C 273.955 2.36308 1.85954 0
M  V30 3004 C 275.503 2.41856 1.98683 0
M  V30 3005 C 275.978 3.6853 2.71937 0
M  V30 3006 N 277.469 3.69387 2.79477 0
M  V30 3007 C 278.204 4.64096 3.36753 0
M  V30 3008 N 277.7 5.69155 3.95012 0
M  V30 3009 N 279.493 4.51626 3.3465 0
M  V30 3010 H 271.644 2.10118 0.310494 0
M  V30 3011 H 273.907 0.926634 0.200131 0
M  V30 3012 H 273.613 3.26388 1.31011 0
M  V30 3013 H 273.487 2.4561 2.86278 0
M  V30 3014 H 275.874 1.52249 2.52793 0
M  V30 3015 H 275.955 2.36523 0.9742 0
M  V30 3016 H 275.599 4.58499 2.18496 0
M  V30 3017 H 275.529 3.71127 3.73593 0
M  V30 3018 H 278.02 2.93438 2.38123 0
M  V30 3019 H 278.333 6.3751 4.36808 0
M  V30 3020 H 276.678 5.72937 3.93406 0
M  V30 3021 H 279.869 3.68728 2.8837 0
M  V30 3022 H 280.042 5.25614 3.7899 0
M  V30 3023 N 273.449 -1.08991 1.13837 0
M  V30 3024 C 274.359 -2.19301 0.833333 0
M  V30 3025 C 275.375 -1.73026 -0.183847 0
M  V30 3026 O 276.551 -2.01395 -0.0138092 0
M  V30 3027 C 273.616 -3.45323 0.308651 0
M  V30 3028 C 272.677 -4.06255 1.38764 0
M  V30 3029 C 271.91 -5.26262 0.887896 0
M  V30 3030 O 272.133 -5.69747 -0.27287 0
M  V30 3031 O 271.067 -5.78435 1.66421 0
M  V30 3032 H 274.893 -2.47854 1.75506 0
M  V30 3033 H 272.478 -1.18012 0.916166 0
M  V30 3034 H 274.36 -4.21394 0.0216739 0
M  V30 3035 H 273.035 -3.18362 -0.585431 0
M  V30 3036 H 271.942 -3.318 1.72799 0
M  V30 3037 H 273.275 -4.37452 2.25602 0
M  V30 3038 N 274.927 -0.932562 -1.27047 0
M  V30 3039 C 276.175 -0.574422 -1.93765 0
M  V30 3040 C 276.496 0.887993 -1.73608 0
M  V30 3041 O 275.766 1.62999 -1.08665 0
M  V30 3042 H 274.346 -0.209451 -0.717035 0
M  V30 3043 H 277.008 -1.18601 -1.5466 0
M  V30 3044 H 276.104 -0.784841 -3.02071 0
M  V30 3045 N 276.405 1.4127 -0.698611 0
M  V30 3046 C 277.368 2.29158 -0.044132 0
M  V30 3047 C 278.368 1.44529 0.704841 0
M  V30 3048 O 279.558 1.65643 0.539276 0
M  V30 3049 C 276.69 3.27459 0.947809 0
M  V30 3050 H 277.883 2.88529 -0.817994 0
M  V30 3051 H 275.436 1.49307 -0.46228 0
M  V30 3052 H 276.171 2.73073 1.74933 0
M  V30 3053 H 275.956 3.8991 0.41385 0
M  V30 3054 H 277.446 3.93311 1.40344 0
M  V30 3055 N 277.883 0.443576 1.51229 0
M  V30 3056 C 278.793 -0.370721 2.31652 0
M  V30 3057 C 279.809 -1.02186 1.40833 0
M  V30 3058 O 280.985 -1.01586 1.73903 0
M  V30 3059 C 278.05 -1.45376 3.14749 0
M  V30 3060 C 277.111 -0.822099 4.21355 0
M  V30 3061 C 276.344 -1.85353 5.0048 0
M  V30 3062 O 276.567 -3.07656 4.80316 0
M  V30 3063 O 275.501 -1.4406 5.84406 0
M  V30 3064 H 279.327 0.286002 3.0235 0
M  V30 3065 H 276.912 0.20598 1.47973 0
M  V30 3066 H 278.794 -2.08173 3.66391 0
M  V30 3067 H 277.469 -2.09445 2.46809 0
M  V30 3068 H 276.376 -0.155909 3.73775 0
M  V30 3069 H 277.709 -0.224797 4.91686 0
M  V30 3070 N 279.361 -1.56624 0.175154 0
M  V30 3071 C 280.777 -1.58571 -0.180966 0
M  V30 3072 C 280.977 -1.19065 -1.6256 0
M  V30 3073 O 280.033 -0.904044 -2.35761 0
M  V30 3074 C 281.346 -3.00522 0.103326 0
M  V30 3075 C 282.894 -3.12972 0.0418426 0
M  V30 3076 C 283.369 -4.57022 0.299175 0
M  V30 3077 N 284.86 -4.62541 0.247086 0
M  V30 3078 C 285.595 -5.71857 0.420318 0
M  V30 3079 N 285.091 -6.89717 0.652816 0
M  V30 3080 N 286.884 -5.60972 0.355957 0
M  V30 3081 H 279.035 -1.80589 1.11809 0
M  V30 3082 H 281.298 -0.837178 0.444788 0
M  V30 3083 H 281.004 -3.33916 1.10422 0
M  V30 3084 H 280.878 -3.72344 -0.603299 0
M  V30 3085 H 283.265 -2.79403 -0.949636 0
M  V30 3086 H 283.346 -2.43578 0.781238 0
M  V30 3087 H 282.99 -4.913 1.28788 0
M  V30 3088 H 282.92 -5.24579 -0.460876 0
M  V30 3089 H 285.411 -3.77829 0.0731895 0
M  V30 3090 H 285.724 -7.68911 0.774347 0
M  V30 3091 H 284.069 -6.91572 0.689476 0
M  V30 3092 H 287.26 -4.67773 0.174882 0
M  V30 3093 H 287.433 -6.46111 0.494388 0
M  V30 3094 N 280.839 0.0985539 -1.57292 0
M  V30 3095 C 282.087 0.801092 -1.85545 0
M  V30 3096 C 282.408 1.79438 -0.763353 0
M  V30 3097 O 281.678 1.94763 0.21073 0
M  V30 3098 H 280.258 0.29884 -0.684619 0
M  V30 3099 H 282.92 0.0810064 -1.94732 0
M  V30 3100 H 282.016 1.3338 -2.82163 0
M  V30 3101 N 282.317 1.53212 0.369288 0
M  V30 3102 C 283.247 1.82365 1.45826 0
M  V30 3103 C 284.228 0.676907 1.56051 0
M  V30 3104 O 285.413 0.926401 1.70679 0
M  V30 3105 C 282.543 2.01023 2.83208 0
M  V30 3106 C 281.497 3.1678 2.8781 0
M  V30 3107 C 280.823 3.20724 4.27832 0
M  V30 3108 C 282.123 4.55447 2.55667 0
M  V30 3109 H 283.817 2.73559 1.21678 0
M  V30 3110 H 281.363 1.3163 0.583911 0
M  V30 3111 H 283.316 2.20001 3.59413 0
M  V30 3112 H 282.04 1.06536 3.08736 0
M  V30 3113 H 280.699 2.97616 2.14056 0
M  V30 3114 H 280.347 2.23882 4.50429 0
M  V30 3115 H 280.047 3.98496 4.31827 0
M  V30 3116 H 281.571 3.41881 5.05915 0
M  V30 3117 H 282.985 4.74611 3.21586 0
M  V30 3118 H 281.382 5.35432 2.70984 0
M  V30 3119 H 282.452 4.60812 1.5093 0
M  V30 3120 N 283.795 -0.628877 1.44509 0
M  V30 3121 C 285.02 -1.42048 1.5112 0
M  V30 3122 C 285.445 -1.87594 0.137818 0
M  V30 3123 O 284.803 -1.58873 -0.873437 0
M  V30 3124 C 284.851 -2.61541 2.48251 0
M  V30 3125 O 283.955 -3.61453 1.98559 0
M  V30 3126 H 283.296 -0.424942 0.510216 0
M  V30 3127 H 285.826 -0.767374 1.89664 0
M  V30 3128 H 285.836 -3.09057 2.66361 0
M  V30 3129 H 284.511 -2.27736 3.48007 0
M  V30 3130 H 283.088 -3.20731 1.90227 0
M  V30 3131 N 285.273 -1.31445 -0.869486 0
M  V30 3132 C 286.236 -1.19094 -1.9583 0
M  V30 3133 C 287.236 -0.117906 -1.60367 0
M  V30 3134 O 288.426 -0.367208 -1.70286 0
M  V30 3135 C 285.558 -0.828165 -3.30688 0
M  V30 3136 H 286.751 -2.15842 -2.08212 0
M  V30 3137 H 284.304 -1.15063 -1.05784 0
M  V30 3138 H 285.039 0.138142 -3.24006 0
M  V30 3139 H 284.824 -1.6038 -3.578 0
M  V30 3140 H 286.314 -0.765658 -4.10521 0
M  V30 3141 N 286.751 1.08385 -1.14413 0
M  V30 3142 C 288 1.80153 -0.907076 0
M  V30 3143 C 288.313 1.87176 0.567851 0
M  V30 3144 O 289.519 2.55359 0.922172 0
M  V30 3145 C 287.975 3.23687 -1.57336 0
M  V30 3146 C 287.583 3.24897 -3.08457 0
M  V30 3147 C 289.327 4.00136 -1.41744 0
M  V30 3148 C 287.234 4.6302 -3.67921 0
M  V30 3149 H 286.164 0.675139 -0.335714 0
M  V30 3150 H 288.815 1.21733 -1.37307 0
M  V30 3151 H 287.197 3.82234 -1.03505 0
M  V30 3152 H 288.371 2.76055 -3.68958 0
M  V30 3153 H 286.686 2.61943 -3.2369 0
M  V30 3154 H 289.283 5.02201 -1.83572 0
M  V30 3155 H 289.626 4.14709 -0.363576 0
M  V30 3156 H 290.159 3.48058 -1.92614 0
M  V30 3157 H 286.898 4.5365 -4.73161 0
M  V30 3158 H 286.418 5.12143 -3.12201 0
M  V30 3159 H 288.097 5.31994 -3.68227 0
M  V30 3160 N 288.23 0.939286 1.26551 0
M  V30 3161 C 289.646 0.641304 1.46149 0
M  V30 3162 C 289.846 -0.805964 1.84679 0
M  V30 3163 O 288.902 -1.58278 1.96734 0
M  V30 3164 C 290.215 1.6011 2.54529 0
M  V30 3165 C 291.763 1.6106 2.68382 0
M  V30 3166 C 292.238 2.55765 3.79932 0
M  V30 3167 N 293.729 2.5404 3.87322 0
M  V30 3168 C 294.464 3.24004 4.73085 0
M  V30 3169 N 293.96 4.03388 5.63249 0
M  V30 3170 N 295.753 3.12965 4.66914 0
M  V30 3171 H 287.904 1.87478 0.998285 0
M  V30 3172 H 290.167 0.805559 0.499779 0
M  V30 3173 H 289.873 2.63412 2.33039 0
M  V30 3174 H 289.747 1.35171 3.52149 0
M  V30 3175 H 292.134 0.584835 2.89247 0
M  V30 3176 H 292.215 1.90053 1.71212 0
M  V30 3177 H 291.859 3.58458 3.5982 0
M  V30 3178 H 291.789 2.24063 4.76554 0
M  V30 3179 H 294.28 1.96396 3.22858 0
M  V30 3180 H 294.593 4.5373 6.25579 0
M  V30 3181 H 292.938 4.07489 5.63008 0
M  V30 3182 H 296.129 2.50432 3.95476 0
M  V30 3183 H 296.302 3.67759 5.33533 0
M  V30 3184 N 289.708 -1.40897 0.706093 0
M  V30 3185 C 290.618 -2.3455 0.0482286 0
M  V30 3186 C 291.634 -1.56796 -0.754396 0
M  V30 3187 O 292.81 -1.89228 -0.689538 0
M  V30 3188 C 289.875 -3.35625 -0.869303 0
M  V30 3189 C 288.936 -4.29261 -0.0576994 0
M  V30 3190 C 288.169 -5.25508 -0.931531 0
M  V30 3191 O 288.392 -5.27472 -2.17092 0
M  V30 3192 O 287.326 -6.00727 -0.375587 0
M  V30 3193 H 291.152 -2.92407 0.820476 0
M  V30 3194 H 288.737 -1.4193 0.4665 0
M  V30 3195 H 290.619 -3.97635 -1.39514 0
M  V30 3196 H 289.294 -2.80196 -1.62086 0
M  V30 3197 H 288.201 -3.70566 0.512988 0
M  V30 3198 H 289.534 -4.87817 0.655426 0
M  V30 3199 N 291.186 -0.45159 -1.50991 0
M  V30 3200 C 292.602 -0.104647 -1.59257 0
M  V30 3201 C 292.802 1.38728 -1.4614 0
M  V30 3202 O 291.858 2.15866 -1.30989 0
M  V30 3203 C 293.171 -0.637468 -2.93865 0
M  V30 3204 C 294.719 -0.599166 -3.07212 0
M  V30 3205 C 295.194 -1.1092 -4.44366 0
M  V30 3206 N 296.685 -1.06778 -4.50725 0
M  V30 3207 C 297.42 -1.43314 -5.55201 0
M  V30 3208 N 296.916 -1.87204 -6.67028 0
M  V30 3209 N 298.709 -1.3504 -5.45638 0
M  V30 3210 H 290.86 -1.42214 -1.57762 0
M  V30 3211 H 293.123 -0.586921 -0.744465 0
M  V30 3212 H 292.829 -1.68187 -3.08879 0
M  V30 3213 H 292.703 -0.0702139 -3.77135 0
M  V30 3214 H 295.09 0.436277 -2.91857 0
M  V30 3215 H 295.171 -1.20299 -2.25747 0
M  V30 3216 H 294.815 -2.14318 -4.60467 0
M  V30 3217 H 294.745 -0.481773 -5.24392 0
M  V30 3218 H 297.236 -0.745643 -3.70471 0
M  V30 3219 H 297.549 -2.13282 -7.42786 0
M  V30 3220 H 295.894 -1.91142 -6.68199 0
M  V30 3221 H 299.085 -1.00607 -4.57161 0
M  V30 3222 H 299.258 -1.63841 -6.26945 0
M  V30 3223 N 292.664 1.56529 -0.183458 0
M  V30 3224 C 293.594 2.21549 0.737456 0
M  V30 3225 C 294.575 1.17489 1.23005 0
M  V30 3226 O 295.76 1.45959 1.281 0
M  V30 3227 C 292.89 2.86575 1.96194 0
M  V30 3228 C 291.844 3.96778 1.60473 0
M  V30 3229 C 291.17 4.48911 2.90487 0
M  V30 3230 C 292.47 5.15767 0.823497 0
M  V30 3231 H 294.164 2.98761 0.195453 0
M  V30 3232 H 291.71 1.43702 0.0925686 0
M  V30 3233 H 293.663 3.30739 2.61131 0
M  V30 3234 H 292.387 2.06749 2.52828 0
M  V30 3235 H 291.046 3.53286 0.978997 0
M  V30 3236 H 290.694 3.65862 3.45186 0
M  V30 3237 H 290.394 5.23265 2.67335 0
M  V30 3238 H 291.918 4.95771 3.56432 0
M  V30 3239 H 293.332 5.56549 1.37571 0
M  V30 3240 H 291.729 5.96114 0.690551 0
M  V30 3241 H 292.799 4.84574 -0.177782 0
M  V30 3242 N 294.142 -0.090211 1.57342 0
M  V30 3243 C 295.39 -0.791241 1.85967 0
M  V30 3244 C 295.711 -1.7903 0.772859 0
M  V30 3245 O 294.981 -1.94872 -0.200398 0
M  V30 3246 H 293.561 -0.295205 0.686195 0
M  V30 3247 H 296.223 -0.0706782 1.94772 0
M  V30 3248 H 295.319 -1.31882 2.82867 0
M  V30 3249 N 295.62 -1.53406 -0.361157 0
M  V30 3250 C 297.031 -1.61442 -0.937728 0
M  V30 3251 C 297.382 -0.48461 -1.90121 0
M  V30 3252 O 296.507 0.388312 -2.12888 0
M  V30 3253 C 297.102 -2.92624 -1.70753 0
M  V30 3254 C 295.661 -3.02981 -2.23337 0
M  V30 3255 C 294.808 -2.5677 -1.04712 0
M  V30 3256 H 297.759 -1.58083 -0.139816 0
M  V30 3257 H 297.78 -2.80675 -2.56908 0
M  V30 3258 H 297.292 -3.74834 -1.00604 0
M  V30 3259 H 295.393 -2.25368 -2.96715 0
M  V30 3260 H 295.506 -4.0814 -2.50916 0
M  V30 3261 H 293.87 -2.11752 -1.41539 0
M  V30 3262 H 294.653 -3.41402 -0.360539 0
M  V30 3263 N 297.098 0.621204 -1.44841 0
M  V30 3264 C 298.028 1.74366 -1.55303 0
M  V30 3265 C 299.009 1.65199 -0.405385 0
M  V30 3266 O 300.194 1.83807 -0.626787 0
M  V30 3267 C 297.324 3.12931 -1.50637 0
M  V30 3268 C 296.278 3.36896 -2.63979 0
M  V30 3269 C 295.604 4.75594 -2.44366 0
M  V30 3270 C 296.904 3.28483 -4.06074 0
M  V30 3271 H 298.598 1.65867 -2.49256 0
M  V30 3272 H 296.144 0.796558 -1.19962 0
M  V30 3273 H 298.097 3.9124 -1.56555 0
M  V30 3274 H 296.821 3.22237 -0.532057 0
M  V30 3275 H 295.48 2.60972 -2.57467 0
M  V30 3276 H 295.128 4.81616 -1.45105 0
M  V30 3277 H 294.828 4.92586 -3.20364 0
M  V30 3278 H 296.352 5.5612 -2.52117 0
M  V30 3279 H 297.766 3.96684 -4.13902 0
M  V30 3280 H 296.163 3.57008 -4.82354 0
M  V30 3281 H 297.233 2.26133 -4.28943 0
M  V30 3282 N 298.576 1.31904 0.862503 0
M  V30 3283 C 299.822 1.22197 1.61851 0
M  V30 3284 C 300.155 -0.217641 1.92977 0
M  V30 3285 O 299.43 -1.15264 1.56666 0
M  V30 3286 C 299.713 2.07378 2.94391 0
M  V30 3287 C 299.566 3.59678 2.70096 0
M  V30 3288 C 300.885 1.92891 3.95577 0
M  V30 3289 H 298.004 0.445255 0.587296 0
M  V30 3290 H 300.646 1.6177 0.99651 0
M  V30 3291 H 298.796 1.73758 3.47477 0
M  V30 3292 H 300.468 4.03472 2.23625 0
M  V30 3293 H 298.711 3.82735 2.04197 0
M  V30 3294 H 299.382 4.14595 3.64438 0
M  V30 3295 H 301.858 2.22327 3.51724 0
M  V30 3296 H 300.734 2.54781 4.86187 0
M  V30 3297 H 300.995 0.894315 4.3296 0
M  V30 3298 N 300.054 -1.07777 1.14986 0
M  V30 3299 C 300.964 -2.18404 0.856546 0
M  V30 3300 C 301.98 -1.73211 -0.165485 0
M  V30 3301 O 303.156 -2.01399 0.00755219 0
M  V30 3302 C 300.221 -3.44977 0.34526 0
M  V30 3303 C 299.282 -4.0476 1.43065 0
M  V30 3304 C 298.515 -5.25291 0.943663 0
M  V30 3305 O 298.738 -5.70004 -0.212426 0
M  V30 3306 O 297.672 -5.76638 1.72547 0
M  V30 3307 H 301.498 -2.45978 1.78125 0
M  V30 3308 H 299.083 -1.17033 0.928631 0
M  V30 3309 H 300.965 -4.21348 0.0663671 0
M  V30 3310 H 299.64 -3.18965 -0.551631 0
M  V30 3311 H 298.547 -3.29949 1.76309 0
M  V30 3312 H 299.88 -4.35035 2.30229 0
M  V30 3313 N 301.532 -0.945985 -1.26051 0
M  V30 3314 C 302.464 -0.416662 -2.25381 0
M  V30 3315 C 303.477 0.462712 -1.56086 0
M  V30 3316 O 304.666 0.272383 -1.7641 0
M  V30 3317 C 301.766 0.419812 -3.3629 0
M  V30 3318 C 300.939 -0.444531 -4.35135 0
M  V30 3319 C 299.998 0.332305 -5.2515 0
M  V30 3320 O 299.024 -0.266324 -5.68577 0
M  V30 3321 N 300.226 1.62763 -5.57215 0
M  V30 3322 H 302.991 -1.27059 -2.71433 0
M  V30 3323 H 300.552 -0.815392 -1.39868 0
M  V30 3324 H 302.544 0.947013 -3.93464 0
M  V30 3325 H 301.114 1.17456 -2.89694 0
M  V30 3326 H 300.334 -1.15291 -3.76964 0
M  V30 3327 H 301.622 -1.03478 -4.98166 0
M  V30 3328 H 301.02 2.13603 -5.23823 0
M  V30 3329 H 299.577 2.10097 -6.17011 0
M  V30 3330 N 303.011 1.40521 -0.713556 0
M  V30 3331 C 304.259 2.00527 -0.251692 0
M  V30 3332 C 304.58 1.56857 1.15848 0
M  V30 3333 O 303.85 0.807127 1.785 0
M  V30 3334 H 302.43 0.741551 -0.0900646 0
M  V30 3335 H 305.092 1.71887 -0.918733 0
M  V30 3336 H 304.188 3.10813 -0.283192 0
M  V30 3337 N 304.489 0.459591 1.5075 0
M  V30 3338 C 305.905 0.113092 1.59199 0
M  V30 3339 C 306.105 -1.37951 1.46874 0
M  V30 3340 O 305.161 -2.15168 1.32132 0
M  V30 3341 C 306.474 0.653043 2.93523 0
M  V30 3342 C 308.022 0.615449 3.0689 0
M  V30 3343 C 308.497 1.13275 4.43771 0
M  V30 3344 N 309.988 1.09167 4.50152 0
M  V30 3345 C 310.723 1.46256 5.54434 0
M  V30 3346 N 310.219 1.90739 6.66026 0
M  V30 3347 N 312.012 1.37932 5.44914 0
M  V30 3348 H 304.163 1.43049 1.57005 0
M  V30 3349 H 306.426 0.590861 0.741341 0
M  V30 3350 H 306.132 1.69822 3.07983 0
M  V30 3351 H 306.006 0.0902132 3.77092 0
M  V30 3352 H 308.393 -0.420793 2.92084 0
M  V30 3353 H 308.474 1.21495 2.25106 0
M  V30 3354 H 308.118 2.16757 4.59324 0
M  V30 3355 H 308.048 0.509576 5.24129 0
M  V30 3356 H 310.539 0.76528 3.7007 0
M  V30 3357 H 310.852 2.17218 7.41644 0
M  V30 3358 H 309.197 1.94683 6.67176 0
M  V30 3359 H 312.388 1.0303 4.56621 0
M  V30 3360 H 312.561 1.67164 6.26067 0
M  V30 3361 N 305.967 -1.56429 0.191757 0
M  V30 3362 C 307.213 -1.97777 -0.448554 0
M  V30 3363 C 307.546 -1.07847 -1.61501 0
M  V30 3364 O 306.821 -0.129774 -1.94067 0
M  V30 3365 C 307.104 -3.48362 -0.911906 0
M  V30 3366 C 306.957 -4.4907 0.256136 0
M  V30 3367 C 308.276 -4.02561 -1.77857 0
M  V30 3368 H 305.395 -0.719071 -0.161572 0
M  V30 3369 H 308.037 -1.87896 0.282007 0
M  V30 3370 H 306.187 -3.56914 -1.53442 0
M  V30 3371 H 307.859 -4.5256 0.893733 0
M  V30 3372 H 306.102 -4.24181 0.908436 0
M  V30 3373 H 306.773 -5.51889 -0.11053 0
M  V30 3374 H 309.249 -3.96767 -1.25359 0
M  V30 3375 H 308.125 -5.08301 -2.07174 0
M  V30 3376 H 308.386 -3.47616 -2.73158 0
M  V30 3377 N 307.445 0.0818655 -1.57387 0
M  V30 3378 C 308.861 0.436412 -1.53517 0
M  V30 3379 C 309.061 1.79758 -0.910459 0
M  V30 3380 O 308.117 2.47324 -0.508636 0
M  V30 3381 C 309.43 0.386734 -2.98203 0
M  V30 3382 C 310.978 0.467644 -3.09487 0
M  V30 3383 C 311.453 0.447978 -4.55804 0
M  V30 3384 N 312.944 0.508348 -4.60402 0
M  V30 3385 C 313.679 0.515184 -5.71081 0
M  V30 3386 N 313.175 0.477435 -6.91153 0
M  V30 3387 N 314.968 0.560988 -5.59294 0
M  V30 3388 H 307.119 -0.809546 -1.96367 0
M  V30 3389 H 309.382 -0.302733 -0.898363 0
M  V30 3390 H 309.088 -0.546539 -3.47427 0
M  V30 3391 H 308.962 1.20075 -3.57578 0
M  V30 3392 H 311.349 1.39134 -2.60242 0
M  V30 3393 H 311.43 -0.374753 -2.5304 0
M  V30 3394 H 311.074 -0.471826 -5.05704 0
M  V30 3395 H 311.004 1.30777 -5.10103 0
M  V30 3396 H 313.495 0.54218 -3.7399 0
M  V30 3397 H 313.808 0.486299 -7.71268 0
M  V30 3398 H 312.153 0.444278 -6.93579 0
M  V30 3399 H 315.344 0.5881 -4.64391 0
M  V30 3400 H 315.517 0.562846 -6.45551 0
M  V30 3401 N 308.923 1.53595 0.353017 0
M  V30 3402 C 309.886 1.80232 1.41594 0
M  V30 3403 C 310.886 0.673081 1.46035 0
M  V30 3404 O 312.076 0.941335 1.46576 0
M  V30 3405 C 309.208 1.93578 2.80607 0
M  V30 3406 H 310.401 2.75174 1.19244 0
M  V30 3407 H 307.954 1.44864 0.586872 0
M  V30 3408 H 308.689 1.00746 3.08254 0
M  V30 3409 H 308.474 2.75724 2.78781 0
M  V30 3410 H 309.964 2.15735 3.57558 0
M  V30 3411 N 310.401 -0.613514 1.45168 0
M  V30 3412 C 311.364 -1.7065 1.53007 0
M  V30 3413 C 312.364 -1.5548 0.410184 0
M  V30 3414 O 313.554 -1.60656 0.673455 0
M  V30 3415 C 310.686 -3.09875 1.42093 0
M  V30 3416 H 311.879 -1.65068 2.50385 0
M  V30 3417 H 309.432 -0.828728 1.32521 0
M  V30 3418 H 310.167 -3.21039 0.458769 0
M  V30 3419 H 309.952 -3.22293 2.23315 0
M  V30 3420 H 311.442 -3.895 1.50598 0
M  V30 3421 N 311.879 -1.3236 -0.855495 0
M  V30 3422 C 313.107 -1.2587 -1.64208 0
M  V30 3423 C 313.522 0.173457 -1.88002 0
M  V30 3424 O 312.879 1.11027 -1.44842 0
M  V30 3425 C 312.93 -2.01424 -3.00184 0
M  V30 3426 O 312.651 -3.39051 -2.77445 0
M  V30 3427 C 314.152 -2.01948 -3.94629 0
M  V30 3428 H 311.372 -0.434318 -0.511477 0
M  V30 3429 H 313.916 -1.74469 -1.0668 0
M  V30 3430 H 312.071 -1.56549 -3.5436 0
M  V30 3431 H 312.485 -3.77711 -3.63916 0
M  V30 3432 H 313.959 -2.59297 -4.87308 0
M  V30 3433 H 314.436 -1.00554 -4.27534 0
M  V30 3434 H 315.042 -2.46767 -3.4639 0
M  V30 3435 N 313.357 1.07166 -1.15556 0
M  V30 3436 C 314.603 1.80065 -0.932984 0
M  V30 3437 C 314.936 1.86586 0.53845 0
M  V30 3438 O 314.211 1.35098 1.39924 0
M  V30 3439 C 314.494 3.25022 -1.55025 0
M  V30 3440 C 314.347 3.26634 -3.09242 0
M  V30 3441 C 315.666 4.22341 -1.2376 0
M  V30 3442 H 312.785 0.653697 -0.340366 0
M  V30 3443 H 315.427 1.25389 -1.4275 0
M  V30 3444 H 313.577 3.71712 -1.12972 0
M  V30 3445 H 315.249 2.88173 -3.60214 0
M  V30 3446 H 313.492 2.65539 -3.43033 0
M  V30 3447 H 314.163 4.28854 -3.47546 0
M  V30 3448 H 316.639 3.8405 -1.60139 0
M  V30 3449 H 315.515 5.22053 -1.69564 0
M  V30 3450 H 315.776 4.41828 -0.154938 0
M  V30 3451 N 314.835 0.952656 1.25548 0
M  V30 3452 C 316.083 0.605176 1.92826 0
M  V30 3453 C 316.404 -0.860261 1.74999 0
M  V30 3454 O 315.674 -1.6125 1.11244 0
M  V30 3455 H 314.254 0.220832 0.713612 0
M  V30 3456 H 316.916 1.21047 1.52754 0
M  V30 3457 H 316.012 0.832798 3.00784 0
M  V30 3458 N 316.313 -1.40141 0.720998 0
M  V30 3459 C 317.538 -2.05618 0.271258 0
M  V30 3460 C 317.963 -1.53978 -1.08039 0
M  V30 3461 O 317.321 -0.677463 -1.68167 0
M  V30 3462 C 317.369 -3.59609 0.267197 0
M  V30 3463 O 316.473 -4.05526 -0.749814 0
M  V30 3464 H 315.814 -0.651904 0.126162 0
M  V30 3465 H 318.344 -1.79439 0.982997 0
M  V30 3466 H 318.354 -4.0786 0.106744 0
M  V30 3467 H 317.029 -3.96559 1.25354 0
M  V30 3468 H 315.606 -3.68722 -0.556644 0
M  V30 3469 N 317.792 -0.46758 -1.50504 0
M  V30 3470 C 318.722 0.318381 -2.31319 0
M  V30 3471 C 319.703 0.993564 -1.38066 0
M  V30 3472 O 320.888 0.991411 -1.66987 0
M  V30 3473 C 318.018 1.40275 -3.17711 0
M  V30 3474 C 316.972 0.849373 -4.19487 0
M  V30 3475 C 316.298 2.03177 -4.94594 0
M  V30 3476 C 317.598 -0.136942 -5.2212 0
M  V30 3477 H 319.292 -0.356106 -2.97275 0
M  V30 3478 H 316.838 -0.172703 -1.42961 0
M  V30 3479 H 318.791 1.96004 -3.73042 0
M  V30 3480 H 317.515 2.10596 -2.49634 0
M  V30 3481 H 316.174 0.314076 -3.65252 0
M  V30 3482 H 315.822 2.72187 -4.22993 0
M  V30 3483 H 315.522 1.66774 -5.63436 0
M  V30 3484 H 317.046 2.59403 -5.52759 0
M  V30 3485 H 318.46 0.331056 -5.72343 0
M  V30 3486 H 316.857 -0.41507 -5.98663 0
M  V30 3487 H 317.927 -1.06398 -4.73083 0
M  V30 3488 N 319.27 1.56325 -0.20005 0
M  V30 3489 C 320.233 2.18084 0.705132 0
M  V30 3490 C 321.233 1.13666 1.1374 0
M  V30 3491 O 322.423 1.39023 1.04968 0
M  V30 3492 C 319.555 2.78689 1.96329 0
M  V30 3493 H 320.748 2.99435 0.167023 0
M  V30 3494 H 318.301 1.56221 0.0495725 0
M  V30 3495 H 319.036 2.0115 2.5438 0
M  V30 3496 H 318.821 3.55133 1.66202 0
M  V30 3497 H 320.311 3.26096 2.60866 0
M  V30 3498 N 320.748 -0.0735177 1.57428 0
M  V30 3499 C 321.996 -0.771472 1.86796 0
M  V30 3500 C 322.317 -1.78201 0.791804 0
M  V30 3501 O 321.587 -1.95074 -0.179718 0
M  V30 3502 H 320.167 -0.28791 0.689287 0
M  V30 3503 H 322.829 -0.0500161 1.94836 0
M  V30 3504 H 321.925 -1.28874 2.8425 0
M  V30 3505 N 322.226 -1.5378 -0.344866 0
M  V30 3506 C 323.158 -1.77988 -1.44406 0
M  V30 3507 C 324.171 -0.661138 -1.48771 0
M  V30 3508 O 325.36 -0.937842 -1.51877 0
M  V30 3509 C 322.46 -1.86345 -2.8307 0
M  V30 3510 C 321.633 -3.16256 -3.0216 0
M  V30 3511 C 320.692 -3.15588 -4.21059 0
M  V30 3512 O 319.718 -3.89314 -4.15239 0
M  V30 3513 N 320.92 -2.37864 -5.29529 0
M  V30 3514 H 323.685 -2.72839 -1.24012 0
M  V30 3515 H 321.246 -1.52814 -0.534737 0
M  V30 3516 H 323.238 -1.83351 -3.60783 0
M  V30 3517 H 321.808 -0.986858 -2.96614 0
M  V30 3518 H 321.028 -3.32385 -2.11929 0
M  V30 3519 H 322.316 -4.0207 -3.11797 0
M  V30 3520 H 321.714 -1.77514 -5.37127 0
M  V30 3521 H 320.271 -2.40668 -6.05741 0
M  V30 3522 N 323.704 0.605807 -1.45491 0
M  V30 3523 C 325.115 1.18777 -1.44045 0
M  V30 3524 C 325.466 1.95471 -0.169001 0
M  V30 3525 O 324.591 2.0374 0.729324 0
M  V30 3526 C 325.186 2.16064 -2.60963 0
M  V30 3527 C 323.745 2.69633 -2.62631 0
M  V30 3528 C 322.892 1.45072 -2.36325 0
M  V30 3529 H 325.843 0.395017 -1.53705 0
M  V30 3530 H 325.864 2.9913 -2.35163 0
M  V30 3531 H 325.376 1.60217 -3.53486 0
M  V30 3532 H 323.477 3.29414 -1.74119 0
M  V30 3533 H 323.59 3.13944 -3.61906 0
M  V30 3534 H 321.954 1.74089 -1.85917 0
M  V30 3535 H 322.737 0.910899 -3.30995 0
M  V30 3536 N 325.182 1.32811 0.848464 0
M  V30 3537 C 326.112 1.24882 1.97299 0
M  V30 3538 C 327.093 0.131357 1.69592 0
M  V30 3539 O 328.278 0.319553 1.91553 0
M  V30 3540 C 325.408 0.97746 3.33261 0
M  V30 3541 C 324.362 2.05682 3.75338 0
M  V30 3542 C 323.688 1.63777 5.09 0
M  V30 3543 C 324.988 3.47254 3.90144 0
M  V30 3544 H 326.682 2.18966 2.04191 0
M  V30 3545 H 324.228 1.05413 0.981029 0
M  V30 3546 H 326.181 0.908513 4.1149 0
M  V30 3547 H 324.905 0.000980011 3.266 0
M  V30 3548 H 323.564 2.11603 2.99366 0
M  V30 3549 H 323.212 0.648569 4.98801 0
M  V30 3550 H 322.912 2.36 5.38124 0
M  V30 3551 H 324.436 1.5833 5.89715 0
M  V30 3552 H 325.85 3.43888 4.58709 0
M  V30 3553 H 324.247 4.1788 4.30693 0
M  V30 3554 H 325.317 3.86462 2.92874 0
M  V30 3555 N 326.66 -1.06551 1.16123 0
M  V30 3556 C 327.592 -2.13908 0.823171 0
M  V30 3557 C 328.605 -1.61926 -0.16843 0
M  V30 3558 O 329.794 -1.78412 0.055962 0
M  V30 3559 C 326.894 -3.38283 0.204424 0
M  V30 3560 C 326.067 -4.19589 1.23548 0
M  V30 3561 C 325.126 -5.2233 0.637011 0
M  V30 3562 O 324.152 -5.54034 1.30516 0
M  V30 3563 N 325.354 -5.77621 -0.577474 0
M  V30 3564 H 328.119 -2.43508 1.74711 0
M  V30 3565 H 325.68 -1.2253 1.05821 0
M  V30 3566 H 327.672 -4.0416 -0.208909 0
M  V30 3567 H 326.242 -3.06329 -0.623012 0
M  V30 3568 H 325.462 -3.49406 1.82507 0
M  V30 3569 H 326.75 -4.70718 1.93137 0
M  V30 3570 H 326.148 -5.54125 -1.13853 0
M  V30 3571 H 324.705 -6.45087 -0.933053 0
M  V30 3572 N 328.138 -0.959301 -1.25041 0
M  V30 3573 C 329.048 -0.489994 -2.29426 0
M  V30 3574 C 330.064 0.444944 -1.68215 0
M  V30 3575 O 331.24 0.320046 -1.98841 0
M  V30 3576 C 328.305 0.220309 -3.45999 0
M  V30 3577 C 327.366 -0.753418 -4.22637 0
M  V30 3578 C 326.599 -0.076918 -5.33645 0
M  V30 3579 O 326.822 1.13649 -5.58963 0
M  V30 3580 O 325.756 -0.764824 -5.97021 0
M  V30 3581 H 329.582 -1.35755 -2.71669 0
M  V30 3582 H 327.167 -0.725961 -1.30576 0
M  V30 3583 H 329.049 0.619677 -4.16819 0
M  V30 3584 H 327.724 1.06296 -3.0575 0
M  V30 3585 H 326.631 -1.20308 -3.54227 0
M  V30 3586 H 327.964 -1.56423 -4.66683 0
M  V30 3587 N 329.616 1.39756 -0.72842 0
M  V30 3588 C 331.032 1.5442 -0.403308 0
M  V30 3589 C 331.232 1.69694 1.08656 0
M  V30 3590 O 330.288 1.69373 1.87267 0
M  V30 3591 C 331.601 2.76555 -1.18058 0
M  V30 3592 C 333.149 2.90384 -1.16815 0
M  V30 3593 C 333.624 4.15449 -1.92785 0
M  V30 3594 N 335.115 4.22475 -1.89918 0
M  V30 3595 C 335.85 5.1818 -2.45514 0
M  V30 3596 N 335.346 6.19714 -3.09719 0
M  V30 3597 N 337.139 5.1035 -2.35584 0
M  V30 3598 H 329.29 1.28089 -1.69431 0
M  V30 3599 H 331.553 0.620327 -0.716867 0
M  V30 3600 H 331.259 2.7159 -2.23455 0
M  V30 3601 H 331.133 3.69033 -0.780662 0
M  V30 3602 H 333.52 2.94846 -0.12234 0
M  V30 3603 H 333.601 1.98988 -1.6074 0
M  V30 3604 H 333.245 4.11749 -2.97364 0
M  V30 3605 H 333.175 5.05877 -1.46272 0
M  V30 3606 H 335.666 3.49743 -1.43138 0
M  V30 3607 H 335.979 6.8919 -3.49625 0
M  V30 3608 H 334.324 6.20121 -3.13807 0
M  V30 3609 H 337.515 4.2996 -1.85072 0
M  V30 3610 H 337.688 5.84761 -2.79211 0
M  V30 3611 N 331.094 0.475555 1.50254 0
M  V30 3612 C 332.057 -0.305016 2.27161 0
M  V30 3613 C 333.057 -0.916519 1.32123 0
M  V30 3614 O 334.247 -0.785003 1.5551 0
M  V30 3615 C 331.379 -1.43496 3.09227 0
M  V30 3616 H 332.572 0.369511 2.97615 0
M  V30 3617 H 330.125 0.229747 1.54602 0
M  V30 3618 H 330.86 -2.14441 2.43281 0
M  V30 3619 H 330.645 -1.00223 3.79075 0
M  V30 3620 H 332.135 -1.98548 3.67381 0
M  V30 3621 N 332.573 -1.56217 0.208337 0
M  V30 3622 C 333.505 -2.1695 -0.739276 0
M  V30 3623 C 334.518 -1.13492 -1.1672 0
M  V30 3624 O 335.707 -1.40529 -1.10063 0
M  V30 3625 C 332.807 -2.72755 -2.01142 0
M  V30 3626 C 331.98 -4.0125 -1.74118 0
M  V30 3627 C 331.039 -4.41749 -2.85909 0
M  V30 3628 O 330.065 -5.08912 -2.54946 0
M  V30 3629 N 331.267 -4.06342 -4.14568 0
M  V30 3630 H 334.032 -2.98893 -0.219837 0
M  V30 3631 H 331.593 -1.61878 0.0268445 0
M  V30 3632 H 333.585 -2.96826 -2.75094 0
M  V30 3633 H 332.155 -1.95191 -2.4417 0
M  V30 3634 H 331.375 -3.85173 -0.838775 0
M  V30 3635 H 332.663 -4.851 -1.53477 0
M  V30 3636 H 332.061 -3.52345 -4.42571 0
M  V30 3637 H 330.618 -4.35335 -4.85105 0
M  V30 3638 N 334.051 0.0651679 -1.57465 0
M  V30 3639 C 335.014 1.06117 -2.03155 0
M  V30 3640 C 336.014 1.31204 -0.929632 0
M  V30 3641 O 337.204 1.26813 -1.19432 0
M  V30 3642 C 334.336 2.4032 -2.41783 0
M  V30 3643 H 335.529 0.667231 -2.92383 0
M  V30 3644 H 333.082 0.311075 -1.53173 0
M  V30 3645 H 333.817 2.84532 -1.55601 0
M  V30 3646 H 333.602 2.23451 -3.22199 0
M  V30 3647 H 335.092 3.11898 -2.77685 0
M  V30 3648 N 335.529 1.53961 0.336706 0
M  V30 3649 C 336.775 1.7273 1.07406 0
M  V30 3650 C 337.13 0.488095 1.86106 0
M  V30 3651 O 336.423 -0.519379 1.84426 0
M  V30 3652 C 336.617 2.93493 2.03953 0
M  V30 3653 C 336.446 4.29039 1.34744 0
M  V30 3654 C 335.216 4.93416 1.08942 0
M  V30 3655 C 337.414 5.08501 0.770115 0
M  V30 3656 N 335.396 6.12821 0.363864 0
M  V30 3657 C 336.767 6.19752 0.175472 0
M  V30 3658 C 338.822 4.93349 0.671633 0
M  V30 3659 C 337.525 7.17503 -0.508081 0
M  V30 3660 C 339.551 5.914 0.0018076 0
M  V30 3661 C 338.913 7.01993 -0.581835 0
M  V30 3662 H 335.012 0.685026 0.377177 0
M  V30 3663 H 337.596 1.91403 0.356815 0
M  V30 3664 H 335.767 2.76308 2.72962 0
M  V30 3665 H 337.499 3.00949 2.70577 0
M  V30 3666 H 334.254 4.53099 1.37833 0
M  V30 3667 H 334.678 6.76998 0.0156092 0
M  V30 3668 H 339.32 4.08007 1.1086 0
M  V30 3669 H 337.038 8.02414 -0.956918 0
M  V30 3670 H 340.624 5.81753 -0.0738538 0
M  V30 3671 H 339.504 7.76561 -1.09192 0
M  V30 3672 N 337.007 -0.598083 1.45811 0
M  V30 3673 C 338.255 -1.35413 1.50026 0
M  V30 3674 C 338.576 -1.94444 0.147177 0
M  V30 3675 O 337.846 -1.77701 -0.824571 0
M  V30 3676 H 336.426 -0.502727 0.552517 0
M  V30 3677 H 339.088 -0.701606 1.81834 0
M  V30 3678 H 338.184 -2.16871 2.2444 0
M  V30 3679 N 338.485 -1.33259 -0.841409 0
M  V30 3680 C 339.395 -1.25332 -1.98316 0
M  V30 3681 C 340.411 -0.164364 -1.73222 0
M  V30 3682 O 341.587 -0.387486 -1.97637 0
M  V30 3683 C 338.652 -0.990078 -3.32262 0
M  V30 3684 C 337.713 -2.16879 -3.70489 0
M  V30 3685 C 336.946 -1.91801 -4.98044 0
M  V30 3686 O 337.169 -0.867075 -5.63771 0
M  V30 3687 O 336.103 -2.78267 -5.33714 0
M  V30 3688 H 339.929 -2.21344 -2.07944 0
M  V30 3689 H 337.514 -1.1328 -0.974058 0
M  V30 3690 H 339.396 -0.860321 -4.12524 0
M  V30 3691 H 338.071 -0.0602155 -3.23644 0
M  V30 3692 H 336.978 -2.35407 -2.90748 0
M  V30 3693 H 338.311 -3.0819 -3.8377 0
M  V30 3694 N 339.963 1.05934 -1.16686 0
M  V30 3695 C 341.379 1.30938 -0.912542 0
M  V30 3696 C 341.579 1.96803 0.432533 0
M  V30 3697 O 340.635 2.23693 1.17123 0
M  V30 3698 C 341.948 2.18649 -2.06429 0
M  V30 3699 C 343.496 2.32055 -2.10047 0
M  V30 3700 C 343.971 3.23122 -3.24586 0
M  V30 3701 N 345.462 3.30706 -3.24327 0
M  V30 3702 C 346.197 4.01273 -4.09594 0
M  V30 3703 N 345.693 4.74332 -5.04956 0
M  V30 3704 N 347.486 3.97361 -3.97569 0
M  V30 3705 H 339.637 0.615777 -2.03278 0
M  V30 3706 H 341.9 0.334077 -0.887185 0
M  V30 3707 H 341.606 1.77534 -3.03603 0
M  V30 3708 H 341.48 3.19252 -2.00894 0
M  V30 3709 H 343.867 2.72415 -1.13464 0
M  V30 3710 H 343.948 1.31107 -2.19647 0
M  V30 3711 H 343.592 2.83477 -4.2143 0
M  V30 3712 H 343.522 4.24057 -3.12223 0
M  V30 3713 H 346.013 2.78644 -2.55276 0
M  V30 3714 H 346.326 5.25716 -5.6643 0
M  V30 3715 H 344.671 4.733 -5.08933 0
M  V30 3716 H 347.862 3.39405 -3.22369 0
M  V30 3717 H 348.035 4.52089 -4.64241 0
M  V30 3718 N 341.441 0.965919 1.2453 0
M  V30 3719 C 342.371 0.513476 2.27784 0
M  V30 3720 C 343.352 -0.445974 1.6415 0
M  V30 3721 O 344.537 -0.342485 1.91156 0
M  V30 3722 C 341.667 -0.198839 3.4673 0
M  V30 3723 C 340.621 0.676456 4.2262 0
M  V30 3724 C 339.947 -0.167248 5.34438 0
M  V30 3725 C 341.247 1.96017 4.84123 0
M  V30 3726 H 342.941 1.3765 2.65881 0
M  V30 3727 H 340.487 0.663321 1.27813 0
M  V30 3728 H 342.44 -0.526567 4.18097 0
M  V30 3729 H 341.164 -1.0962 3.07654 0
M  V30 3730 H 339.823 0.98743 3.53052 0
M  V30 3731 H 339.471 -1.0647 4.91603 0
M  V30 3732 H 339.171 0.415181 5.86131 0
M  V30 3733 H 340.695 -0.489688 6.08633 0
M  V30 3734 H 342.109 1.69814 5.47573 0
M  V30 3735 H 340.506 2.48918 5.4604 0
M  V30 3736 H 341.576 2.65622 4.05676 0
M  V30 3737 N 342.919 -1.39368 0.735821 0
M  V30 3738 C 344.335 -1.54204 0.411492 0
M  V30 3739 C 344.535 -1.70268 -1.07755 0
M  V30 3740 O 343.591 -1.70364 -1.86366 0
M  V30 3741 C 344.904 -2.75925 1.19523 0
M  V30 3742 C 346.452 -2.89761 1.18354 0
M  V30 3743 C 346.927 -4.14421 1.94986 0
M  V30 3744 N 348.418 -4.21462 1.92156 0
M  V30 3745 C 349.153 -5.16871 2.48258 0
M  V30 3746 N 348.649 -6.18063 3.13001 0
M  V30 3747 N 350.442 -5.09093 2.38287 0
M  V30 3748 H 342.593 -1.27189 1.70108 0
M  V30 3749 H 344.856 -0.616517 0.720147 0
M  V30 3750 H 344.562 -2.70401 2.24892 0
M  V30 3751 H 344.436 -3.68614 0.800222 0
M  V30 3752 H 346.823 -2.94777 0.137975 0
M  V30 3753 H 346.904 -1.98133 1.61793 0
M  V30 3754 H 346.548 -4.10166 2.99543 0
M  V30 3755 H 346.478 -5.05095 1.48953 0
M  V30 3756 H 348.969 -3.48979 1.44991 0
M  V30 3757 H 349.282 -6.87326 3.53275 0
M  V30 3758 H 347.627 -6.18448 3.17091 0
M  V30 3759 H 350.818 -4.28973 1.8735 0
M  V30 3760 H 350.991 -5.83272 2.82308 0
M  V30 3761 N 344.397 -0.483516 -1.5 0
M  V30 3762 C 345.36 0.292965 -2.2732 0
M  V30 3763 C 346.36 0.909499 -1.32608 0
M  V30 3764 O 347.55 0.776745 -1.55924 0
M  V30 3765 C 344.682 1.41854 -3.09984 0
M  V30 3766 H 345.875 -0.385289 -2.97415 0
M  V30 3767 H 343.428 -0.237942 -1.54478 0
M  V30 3768 H 344.163 2.13148 -2.44414 0
M  V30 3769 H 343.948 0.982114 -3.79601 0
M  V30 3770 H 345.438 1.96597 -3.68429 0
M  V30 3771 N 345.875 1.56104 -0.216619 0
M  V30 3772 C 347.291 1.58995 0.13886 0
M  V30 3773 C 347.491 1.23333 1.59346 0
M  V30 3774 O 346.547 0.966234 2.33281 0
M  V30 3775 C 347.86 3.00143 -0.182968 0
M  V30 3776 C 349.408 3.12751 -0.124807 0
M  V30 3777 C 349.883 4.56068 -0.420241 0
M  V30 3778 N 351.374 4.61723 -0.369634 0
M  V30 3779 C 352.109 5.70542 -0.571789 0
M  V30 3780 N 351.605 6.87744 -0.835453 0
M  V30 3781 N 353.398 5.59831 -0.504563 0
M  V30 3782 H 345.549 1.77562 -1.16557 0
M  V30 3783 H 347.812 0.825091 -0.466828 0
M  V30 3784 H 347.518 3.30871 -1.19237 0
M  V30 3785 H 347.392 3.73813 0.504367 0
M  V30 3786 H 349.779 2.81822 0.875223 0
M  V30 3787 H 349.86 2.41421 -0.845544 0
M  V30 3788 H 349.504 4.87713 -1.41769 0
M  V30 3789 H 349.434 5.25617 0.321631 0
M  V30 3790 H 351.925 3.77502 -0.173338 0
M  V30 3791 H 352.238 7.66587 -0.977938 0
M  V30 3792 H 350.583 6.895 -0.872592 0
M  V30 3793 H 353.774 4.67145 -0.298842 0
M  V30 3794 H 353.947 6.44573 -0.665519 0
M  V30 3795 N 347.353 -0.0568162 1.57498 0
M  V30 3796 C 348.286 -1.09817 2.00039 0
M  V30 3797 C 349.264 -1.3674 0.879819 0
M  V30 3798 O 350.448 -1.49863 1.14338 0
M  V30 3799 C 347.575 -2.43924 2.34986 0
M  V30 3800 C 346.621 -2.33039 3.57204 0
M  V30 3801 S 347.454 -1.7102 5.07457 0
M  V30 3802 C 348.61 -3.06674 5.45621 0
M  V30 3803 H 348.843 -0.735701 2.88053 0
M  V30 3804 H 346.376 -0.265871 1.52094 0
M  V30 3805 H 348.334 -3.2106 2.55795 0
M  V30 3806 H 346.995 -2.77327 1.47474 0
M  V30 3807 H 346.188 -3.31973 3.79223 0
M  V30 3808 H 345.79 -1.64043 3.36104 0
M  V30 3809 H 348.082 -4.03 5.44608 0
M  V30 3810 H 349.025 -2.8942 6.46252 0
M  V30 3811 H 349.433 -3.07969 4.73091 0
M  V30 3812 N 348.832 -1.54138 -0.328536 0
M  V30 3813 C 349.742 -1.86192 -1.42723 0
M  V30 3814 C 350.758 -0.753382 -1.56844 0
M  V30 3815 O 351.934 -1.04718 -1.72035 0
M  V30 3816 C 348.999 -2.07824 -2.77507 0
M  V30 3817 C 348.06 -3.31641 -2.72603 0
M  V30 3818 C 347.293 -3.52232 -4.00959 0
M  V30 3819 O 347.516 -2.7636 -4.9898 0
M  V30 3820 O 346.45 -4.45699 -4.0452 0
M  V30 3821 H 350.276 -2.79608 -1.18547 0
M  V30 3822 H 347.861 -1.3998 -0.522104 0
M  V30 3823 H 349.743 -2.23411 -3.57303 0
M  V30 3824 H 348.418 -1.17596 -3.01584 0
M  V30 3825 H 347.325 -3.21444 -1.91376 0
M  V30 3826 H 348.658 -4.2191 -2.53481 0
M  V30 3827 N 350.31 0.590341 -1.46126 0
M  V30 3828 C 351.22 1.72793 -1.58681 0
M  V30 3829 C 352.236 1.67516 -0.470566 0
M  V30 3830 O 353.412 1.87562 -0.733642 0
M  V30 3831 C 350.477 3.09287 -1.5666 0
M  V30 3832 C 349.538 3.25886 -2.79458 0
M  V30 3833 C 348.771 4.55869 -2.77524 0
M  V30 3834 O 348.994 5.3928 -1.85832 0
M  V30 3835 O 347.928 4.75552 -3.68964 0
M  V30 3836 H 351.754 1.65149 -2.54872 0
M  V30 3837 H 349.339 0.756486 -1.28832 0
M  V30 3838 H 351.221 3.90577 -1.58202 0
M  V30 3839 H 349.896 3.17385 -0.636271 0
M  V30 3840 H 348.803 2.44119 -2.83472 0
M  V30 3841 H 350.136 3.22675 -3.71674 0
M  V30 3842 N 351.788 1.33704 0.83433 0
M  V30 3843 C 352.721 1.18675 1.94914 0
M  V30 3844 C 353.699 0.0811145 1.62398 0
M  V30 3845 O 354.883 0.244186 1.86912 0
M  V30 3846 C 352.01 0.821231 3.28593 0
M  V30 3847 C 351.056 1.93501 3.80079 0
M  V30 3848 S 351.889 3.54671 4.01209 0
M  V30 3849 C 353.045 3.20136 5.37833 0
M  V30 3850 H 353.278 2.13043 2.07364 0
M  V30 3851 H 350.811 1.18598 0.988624 0
M  V30 3852 H 352.769 0.617123 4.05835 0
M  V30 3853 H 351.43 -0.103927 3.13928 0
M  V30 3854 H 350.623 1.63273 4.76821 0
M  V30 3855 H 350.225 2.09601 3.09747 0
M  V30 3856 H 352.517 2.71242 6.20833 0
M  V30 3857 H 353.46 4.15975 5.73036 0
M  V30 3858 H 353.868 2.56613 5.02802 0
M  V30 3859 N 353.266 -1.05314 1.17247 0
M  V30 3860 C 354.514 -1.77941 0.958194 0
M  V30 3861 C 354.835 -1.88089 -0.514556 0
M  V30 3862 O 354.105 -1.39676 -1.37359 0
M  V30 3863 H 352.685 -0.659116 0.351533 0
M  V30 3864 H 355.347 -1.27166 1.47699 0
M  V30 3865 H 354.443 -2.79663 1.38546 0
M  V30 3866 N 354.744 -0.972509 -1.24016 0
M  V30 3867 C 355.969 -0.654417 -1.96805 0
M  V30 3868 C 356.394 0.770398 -1.716 0
M  V30 3869 O 355.752 1.52361 -0.982647 0
M  V30 3870 C 355.8 -0.941031 -3.48105 0
M  V30 3871 O 354.904 -0.0289472 -4.1239 0
M  V30 3872 H 354.245 -0.24692 -0.616382 0
M  V30 3873 H 356.775 -1.30396 -1.57664 0
M  V30 3874 H 356.785 -0.87452 -3.98517 0
M  V30 3875 H 355.46 -1.97939 -3.65777 0
M  V30 3876 H 354.037 -0.149192 -3.72601 0
M  V30 3877 N 356.222 1.38976 -0.743202 0
M  V30 3878 C 357.638 1.53984 -0.419664 0
M  V30 3879 C 357.838 1.70837 1.0685 0
M  V30 3880 O 356.894 1.7135 1.8546 0
M  V30 3881 C 358.207 2.75287 -1.20985 0
M  V30 3882 C 359.755 2.89129 -1.19889 0
M  V30 3883 C 360.23 4.13381 -1.97181 0
M  V30 3884 N 361.721 4.20437 -1.94389 0
M  V30 3885 C 362.456 5.15547 -2.50996 0
M  V30 3886 N 361.952 6.16395 -3.16274 0
M  V30 3887 N 363.745 5.07822 -2.40984 0
M  V30 3888 H 355.896 1.26285 -1.7078 0
M  V30 3889 H 358.159 0.612689 -0.723406 0
M  V30 3890 H 357.865 2.69204 -2.26323 0
M  V30 3891 H 357.739 3.68184 -0.819759 0
M  V30 3892 H 360.126 2.947 -0.153606 0
M  V30 3893 H 360.207 1.97272 -1.62841 0
M  V30 3894 H 359.851 4.08572 -3.01714 0
M  V30 3895 H 359.781 5.04298 -1.51629 0
M  V30 3896 H 362.272 3.48205 -1.46839 0
M  V30 3897 H 362.585 6.85443 -3.56915 0
M  V30 3898 H 360.93 6.16758 -3.20367 0
M  V30 3899 H 364.121 4.27973 -1.89622 0
M  V30 3900 H 364.294 5.81767 -2.85397 0
M  V30 3901 N 357.7 0.491464 1.49741 0
M  V30 3902 C 358.928 -0.0535151 2.06831 0
M  V30 3903 C 359.343 -1.31683 1.35296 0
M  V30 3904 O 358.7 -1.77402 0.42836 0
M  V30 3905 C 358.751 -0.320835 3.60073 0
M  V30 3906 O 358.472 0.892394 4.28915 0
M  V30 3907 C 359.973 -0.910519 4.33848 0
M  V30 3908 H 357.193 0.0161909 0.670805 0
M  V30 3909 H 359.737 0.68609 1.92647 0
M  V30 3910 H 357.892 -1.0104 3.73991 0
M  V30 3911 H 358.306 0.649401 5.20464 0
M  V30 3912 H 359.78 -1.04721 5.41976 0
M  V30 3913 H 360.257 -1.90589 3.95692 0
M  V30 3914 H 360.863 -0.258712 4.24512 0
M  V30 3915 N 359.178 -1.55987 0.224894 0
M  V30 3916 C 360.594 -1.59066 -0.130426 0
M  V30 3917 C 360.794 -1.24176 -1.5869 0
M  V30 3918 O 359.85 -0.978592 -2.32766 0
M  V30 3919 C 361.163 -3.00042 0.198883 0
M  V30 3920 C 362.711 -3.1268 0.141391 0
M  V30 3921 C 363.186 -4.55839 0.444422 0
M  V30 3922 N 364.677 -4.6152 0.394115 0
M  V30 3923 C 365.412 -5.70231 0.602038 0
M  V30 3924 N 364.908 -6.87291 0.871914 0
M  V30 3925 N 366.701 -5.59555 0.534245 0
M  V30 3926 H 358.852 -1.76941 1.17497 0
M  V30 3927 H 361.115 -0.822604 0.471197 0
M  V30 3928 H 360.821 -3.30234 1.2099 0
M  V30 3929 H 360.695 -3.74075 -0.484535 0
M  V30 3930 H 363.082 -2.82283 -0.860265 0
M  V30 3931 H 363.163 -2.40969 0.858335 0
M  V30 3932 H 362.807 -4.86954 1.44353 0
M  V30 3933 H 362.737 -5.2578 -0.293752 0
M  V30 3934 H 365.228 -3.77405 0.193356 0
M  V30 3935 H 365.541 -7.66058 1.01858 0
M  V30 3936 H 363.886 -6.89028 0.909145 0
M  V30 3937 H 367.077 -4.6698 0.323612 0
M  V30 3938 H 367.25 -6.44211 0.699693 0
M  V30 3939 N 360.656 0.0484629 -1.57525 0
M  V30 3940 C 361.933 0.777447 -1.79486 0
M  V30 3941 C 362.313 1.94597 -0.818251 0
M  V30 3942 O 361.661 2.28047 0.143767 0
M  V30 3943 C 361.871 1.22864 -3.26658 0
M  V30 3944 C 363.219 1.65251 -3.91123 0
M  V30 3945 O 364.243 1.32372 -3.3069 0
M  V30 3946 O 363.102 2.26207 -4.97486 0
M  V30 3947 H 360.196 0.374357 -0.737419 0
M  V30 3948 H 362.742 0.0267359 -1.69679 0
M  V30 3949 H 361.514 0.393589 -3.89316 0
M  V30 3950 H 361.137 2.03996 -3.41279 0
M  V30 3951 N 362.134 1.5431 0.320358 0
M  V30 3952 C 363.55 1.45091 0.664889 0
M  V30 3953 C 363.75 0.626382 1.91517 0
M  V30 3954 O 362.806 0.126443 2.52183 0
M  V30 3955 C 364.119 2.88848 0.83591 0
M  V30 3956 C 365.667 2.9877 0.933046 0
M  V30 3957 C 366.142 4.43683 1.13621 0
M  V30 3958 N 367.633 4.47309 1.20287 0
M  V30 3959 C 368.368 5.56595 1.37801 0
M  V30 3960 N 367.864 6.75844 1.52338 0
M  V30 3961 N 369.657 5.44248 1.40535 0
M  V30 3962 H 361.808 2.06398 -0.501374 0
M  V30 3963 H 364.071 0.933963 -0.162534 0
M  V30 3964 H 363.777 3.51698 -0.0116092 0
M  V30 3965 H 363.651 3.35148 1.73078 0
M  V30 3966 H 366.038 2.36045 1.77107 0
M  V30 3967 H 366.119 2.55796 0.0145782 0
M  V30 3968 H 365.763 5.06995 0.303032 0
M  V30 3969 H 365.693 4.84269 2.0686 0
M  V30 3970 H 368.184 3.61388 1.10485 0
M  V30 3971 H 368.497 7.54892 1.65403 0
M  V30 3972 H 366.842 6.78746 1.4943 0
M  V30 3973 H 370.033 4.50038 1.28777 0
M  V30 3974 H 370.206 6.29473 1.53842 0
M  V30 3975 N 363.613 -0.582584 1.46437 0
M  V30 3976 C 364.543 -1.70187 1.59871 0
M  V30 3977 C 365.524 -1.64066 0.449042 0
M  V30 3978 O 366.709 -1.82081 0.6753 0
M  V30 3979 C 363.839 -3.08827 1.58881 0
M  V30 3980 C 362.793 -3.29779 2.72819 0
M  V30 3981 C 362.119 -4.68947 2.5689 0
M  V30 3982 C 363.419 -3.17601 4.1464 0
M  V30 3983 H 365.113 -1.592 2.53566 0
M  V30 3984 H 362.659 -0.764472 1.22032 0
M  V30 3985 H 364.612 -3.86951 1.66873 0
M  V30 3986 H 363.336 -3.20713 0.617306 0
M  V30 3987 H 361.995 -2.54054 2.64296 0
M  V30 3988 H 361.643 -4.77599 1.57823 0
M  V30 3989 H 361.343 -4.83919 3.33312 0
M  V30 3990 H 362.867 -5.4924 2.66773 0
M  V30 3991 H 364.281 -3.8557 4.24274 0
M  V30 3992 H 362.678 -3.44094 4.9165 0
M  V30 3993 H 363.748 -2.14681 4.34788 0
M  V30 3994 N 365.091 -1.34144 -0.827227 0
M  V30 3995 C 366.368 -1.16844 -1.56865 0
M  V30 3996 C 366.748 0.260654 -2.09485 0
M  V30 3997 O 366.096 1.26138 -1.9053 0
M  V30 3998 C 366.306 -2.21939 -2.6934 0
M  V30 3999 C 367.654 -2.56695 -3.3822 0
M  V30 4000 O 368.678 -2.20695 -2.79593 0
M  V30 4001 O 367.537 -3.18518 -4.44082 0
M  V30 4002 H 364.631 -0.452669 -0.692112 0
M  V30 4003 H 367.177 -1.45763 -0.868973 0
M  V30 4004 H 365.949 -3.17882 -2.28182 0
M  V30 4005 H 365.572 -1.94172 -3.46962 0
M  V30 4006 N 366.569 1.04691 -1.17803 0
M  V30 4007 C 367.479 2.16057 -0.914151 0
M  V30 4008 C 368.495 1.73589 0.119503 0
M  V30 4009 O 369.671 2.01308 -0.0609468 0
M  V30 4010 C 366.736 3.4394 -0.436603 0
M  V30 4011 C 365.797 4.00825 -1.53746 0
M  V30 4012 C 365.03 5.22604 -1.0826 0
M  V30 4013 O 365.253 5.70367 0.0612244 0
M  V30 4014 O 364.187 5.7186 -1.87775 0
M  V30 4015 H 368.013 2.41169 -1.84584 0
M  V30 4016 H 365.598 1.1453 -0.959334 0
M  V30 4017 H 367.48 4.21024 -0.178057 0
M  V30 4018 H 366.155 3.20316 0.466869 0
M  V30 4019 H 365.062 3.25158 -1.84995 0
M  V30 4020 H 366.395 4.28778 -2.41683 0
M  V30 4021 N 368.047 0.979072 1.23499 0
M  V30 4022 C 369.293 0.648178 1.92163 0
M  V30 4023 C 369.626 -0.816049 1.76222 0
M  V30 4024 O 368.901 -1.58849 1.12237 0
M  V30 4025 C 369.184 1.03773 3.44824 0
M  V30 4026 C 369.037 2.55948 3.69879 0
M  V30 4027 C 370.356 0.580653 4.36253 0
M  V30 4028 H 367.475 0.236952 0.69787 0
M  V30 4029 H 370.117 1.22012 1.45647 0
M  V30 4030 H 368.267 0.551058 3.84572 0
M  V30 4031 H 369.939 3.12179 3.3962 0
M  V30 4032 H 368.182 2.98641 3.14636 0
M  V30 4033 H 368.853 2.78255 4.76737 0
M  V30 4034 H 371.329 0.998465 4.03943 0
M  V30 4035 H 370.205 0.881663 5.41773 0
M  V30 4036 H 370.466 -0.519052 4.39042 0
M  V30 4037 N 369.525 -1.3858 0.750561 0
M  V30 4038 C 370.472 -2.30483 0.120835 0
M  V30 4039 C 371.442 -1.50022 -0.712923 0
M  V30 4040 O 372.627 -1.78662 -0.669676 0
M  V30 4041 C 369.767 -3.36431 -0.768666 0
M  V30 4042 C 368.88 -4.31927 0.0793922 0
M  V30 4043 C 368.015 -5.24944 -0.81283 0
M  V30 4044 C 367.054 -6.12088 0.0390447 0
M  V30 4045 N 366.191 -6.97412 -0.809969 0
M  V30 4046 H 371.031 -2.83761 0.91015 0
M  V30 4047 H 368.568 -1.39707 0.460463 0
M  V30 4048 H 370.526 -3.96462 -1.29898 0
M  V30 4049 H 369.156 -2.8457 -1.5238 0
M  V30 4050 H 368.208 -3.73382 0.727303 0
M  V30 4051 H 369.52 -4.93319 0.737401 0
M  V30 4052 H 368.674 -5.90078 -1.41042 0
M  V30 4053 H 367.413 -4.63911 -1.50458 0
M  V30 4054 H 366.418 -5.45952 0.649328 0
M  V30 4055 H 367.643 -6.75189 0.727809 0
M  V30 4056 H 365.589 -6.38931 -1.48672 0
M  V30 4057 H 365.506 -7.55712 -0.208789 0
M  V30 4058 H 366.774 -7.66959 -1.39263 0
M  V30 4059 N 371.003 -0.499398 -1.49478 0
M  V30 4060 C 371.913 0.284489 -2.32869 0
M  V30 4061 C 372.929 0.968885 -1.44529 0
M  V30 4062 O 374.105 0.95062 -1.77553 0
M  V30 4063 C 371.17 1.33594 -3.19928 0
M  V30 4064 C 370.231 0.665149 -4.24116 0
M  V30 4065 C 369.464 1.6665 -5.07014 0
M  V30 4066 O 369.687 2.89618 -4.91404 0
M  V30 4067 O 368.621 1.22271 -5.8935 0
M  V30 4068 H 372.447 -0.39802 -3.01081 0
M  V30 4069 H 370.032 -0.260758 -1.47107 0
M  V30 4070 H 371.914 1.94431 -3.73864 0
M  V30 4071 H 370.589 2.0014 -2.54412 0
M  V30 4072 H 369.496 0.0170769 -3.74096 0
M  V30 4073 H 370.829 0.0421555 -4.92182 0
M  V30 4074 N 372.481 1.55866 -0.233164 0
M  V30 4075 C 373.413 2.18099 0.704668 0
M  V30 4076 C 374.426 1.15334 1.14899 0
M  V30 4077 O 375.615 1.42262 1.07814 0
M  V30 4078 C 372.715 2.7592 1.96777 0
M  V30 4079 C 371.888 4.03969 1.67713 0
M  V30 4080 C 370.947 4.46242 2.78845 0
M  V30 4081 O 369.973 5.12903 2.46818 0
M  V30 4082 N 371.175 4.12886 4.08051 0
M  V30 4083 H 373.94 2.99205 0.172258 0
M  V30 4084 H 371.501 1.61815 -0.0525945 0
M  V30 4085 H 373.493 3.01165 2.70337 0
M  V30 4086 H 372.063 1.99051 2.41034 0
M  V30 4087 H 371.283 3.86459 0.777391 0
M  V30 4088 H 372.571 4.8748 1.4574 0
M  V30 4089 H 371.969 3.59342 4.3691 0
M  V30 4090 H 370.526 4.42997 4.78118 0
M  V30 4091 N 373.959 -0.0401083 1.57549 0
M  V30 4092 C 375.205 -0.734211 1.89043 0
M  V30 4093 C 375.538 -1.75591 0.829535 0
M  V30 4094 O 374.813 -1.93868 -0.156706 0
M  V30 4095 C 375.096 -1.41374 3.31188 0
M  V30 4096 C 374.949 -0.406299 4.47961 0
M  V30 4097 C 376.268 -2.35061 3.72068 0
M  V30 4098 H 373.387 -0.265447 0.687537 0
M  V30 4099 H 376.029 0.00294087 1.9 0
M  V30 4100 H 374.179 -2.04206 3.30503 0
M  V30 4101 H 375.851 0.219255 4.60779 0
M  V30 4102 H 374.094 0.275485 4.32924 0
M  V30 4103 H 374.765 -0.920022 5.44279 0
M  V30 4104 H 377.241 -1.82282 3.74049 0
M  V30 4105 H 376.117 -2.79593 4.72355 0
M  V30 4106 H 376.378 -3.21258 3.0372 0
M  V30 4107 N 375.437 -1.54477 -0.31217 0
M  V30 4108 C 376.4 -1.83923 -1.36766 0
M  V30 4109 C 377.4 -0.711563 -1.44199 0
M  V30 4110 O 378.59 -0.979866 -1.44029 0
M  V30 4111 C 375.722 -2.0095 -2.75376 0
M  V30 4112 H 376.915 -2.78239 -1.11906 0
M  V30 4113 H 374.468 -1.46369 -0.548257 0
M  V30 4114 H 375.203 -1.08883 -3.05475 0
M  V30 4115 H 374.988 -2.83018 -2.71373 0
M  V30 4116 H 376.478 -2.2514 -3.51713 0
M  V30 4117 N 376.915 0.57481 -1.46744 0
M  V30 4118 C 377.825 1.711 -1.60505 0
M  V30 4119 C 378.841 1.67008 -0.488307 0
M  V30 4120 O 380.017 1.86774 -0.753495 0
M  V30 4121 C 377.082 3.07608 -1.59932 0
M  V30 4122 C 376.143 3.22904 -2.82898 0
M  V30 4123 C 375.376 4.529 -2.82343 0
M  V30 4124 O 375.599 5.37278 -1.91542 0
M  V30 4125 O 374.533 4.71611 -3.73987 0
M  V30 4126 H 378.359 1.62436 -2.56609 0
M  V30 4127 H 375.944 0.742779 -1.29627 0
M  V30 4128 H 377.826 3.88877 -1.62336 0
M  V30 4129 H 376.501 3.16692 -0.669898 0
M  V30 4130 H 375.408 2.41099 -2.86046 0
M  V30 4131 H 376.741 3.18715 -3.75076 0
M  V30 4132 N 378.394 1.34581 0.820102 0
M  V30 4133 C 379.64 1.27285 1.57881 0
M  V30 4134 C 379.973 -0.156137 1.93571 0
M  V30 4135 O 379.248 -1.10222 1.60254 0
M  V30 4136 C 379.531 2.16639 2.87645 0
M  V30 4137 C 379.384 3.68088 2.58517 0
M  V30 4138 C 380.703 2.05378 3.8924 0
M  V30 4139 H 377.822 0.463714 0.572833 0
M  V30 4140 H 380.464 1.64859 0.944539 0
M  V30 4141 H 378.614 1.84725 3.41773 0
M  V30 4142 H 380.286 4.10382 2.10676 0
M  V30 4143 H 378.529 3.89038 1.91917 0
M  V30 4144 H 379.2 4.2598 3.51063 0
M  V30 4145 H 381.676 2.33404 3.44473 0
M  V30 4146 H 380.552 2.7012 4.77835 0
M  V30 4147 H 380.813 1.0316 4.29896 0
M  V30 4148 N 379.872 -1.04064 1.18357 0
M  V30 4149 C 381.288 -1.2947 0.933258 0
M  V30 4150 C 381.488 -1.97466 -0.401169 0
M  V30 4151 O 380.544 -2.25528 -1.13549 0
M  V30 4152 C 381.857 -2.15337 2.09882 0
M  V30 4153 C 383.405 -2.28683 2.13712 0
M  V30 4154 C 383.88 -3.17917 3.29686 0
M  V30 4155 N 385.371 -3.25504 3.29547 0
M  V30 4156 C 386.106 -3.94706 4.15926 0
M  V30 4157 N 385.602 -4.66239 5.12439 0
M  V30 4158 N 387.395 -3.90986 4.0384 0
M  V30 4159 H 379.546 -0.583359 2.04232 0
M  V30 4160 H 381.809 -0.319921 0.892387 0
M  V30 4161 H 381.515 -1.72682 3.06389 0
M  V30 4162 H 381.389 -3.16015 2.05947 0
M  V30 4163 H 383.776 -2.70575 1.17784 0
M  V30 4164 H 383.857 -1.27596 2.21705 0
M  V30 4165 H 383.501 -2.76736 4.25887 0
M  V30 4166 H 383.431 -4.19036 3.1893 0
M  V30 4167 H 385.922 -2.74547 2.59677 0
M  V30 4168 H 386.235 -5.16638 5.74722 0
M  V30 4169 H 384.58 -4.65143 5.16398 0
M  V30 4170 H 387.771 -3.34234 3.27727 0
M  V30 4171 H 387.944 -4.44646 4.71375 0
M  V30 4172 N 381.35 -0.985608 -1.22978 0
M  V30 4173 C 382.313 -0.535071 -2.22867 0
M  V30 4174 C 383.313 0.378123 -1.56291 0
M  V30 4175 O 384.503 0.171092 -1.73358 0
M  V30 4176 C 381.635 0.222702 -3.40172 0
M  V30 4177 H 382.828 -1.41835 -2.6424 0
M  V30 4178 H 380.381 -0.772042 -1.35901 0
M  V30 4179 H 381.116 1.12229 -3.04262 0
M  V30 4180 H 380.901 -0.43288 -3.89703 0
M  V30 4181 H 382.391 0.526335 -4.1427 0
M  V30 4182 N 382.828 1.3818 -0.7579 0
M  V30 4183 C 383.775 2.30416 -0.133057 0
M  V30 4184 C 384.745 1.50398 0.704957 0
M  V30 4185 O 385.93 1.79014 0.660192 0
M  V30 4186 C 383.07 3.36834 0.750813 0
M  V30 4187 C 382.183 4.31879 -0.102297 0
M  V30 4188 C 381.318 5.25368 0.784979 0
M  V30 4189 C 380.357 6.12058 -0.0715046 0
M  V30 4190 N 379.494 6.97832 0.772972 0
M  V30 4191 H 384.334 2.83274 -0.925186 0
M  V30 4192 H 381.871 1.39461 -0.467866 0
M  V30 4193 H 383.829 3.97145 1.27794 0
M  V30 4194 H 382.459 2.85374 1.50868 0
M  V30 4195 H 381.511 3.72991 -0.747095 0
M  V30 4196 H 382.823 4.92921 -0.763552 0
M  V30 4197 H 381.977 5.90818 1.37911 0
M  V30 4198 H 380.716 4.64703 1.47996 0
M  V30 4199 H 379.721 5.456 -0.678272 0
M  V30 4200 H 380.946 6.74793 -0.763606 0
M  V30 4201 H 378.892 6.3971 1.45282 0
M  V30 4202 H 378.809 7.55812 0.168709 0
M  V30 4203 H 380.077 7.67687 1.35194 0
M  V30 4204 N 384.306 0.507319 1.49211 0
M  V30 4205 C 385.236 -0.256939 2.32082 0
M  V30 4206 C 386.217 -0.956609 1.40652 0
M  V30 4207 O 387.402 -0.946788 1.69557 0
M  V30 4208 C 384.532 -1.31802 3.21318 0
M  V30 4209 C 383.486 -0.737855 4.21592 0
M  V30 4210 C 382.812 -1.89992 4.99807 0
M  V30 4211 C 384.112 0.275325 5.21574 0
M  V30 4212 H 385.806 0.434798 2.96226 0
M  V30 4213 H 383.352 0.210546 1.42452 0
M  V30 4214 H 385.305 -1.86045 3.78107 0
M  V30 4215 H 384.029 -2.03903 2.5513 0
M  V30 4216 H 382.688 -0.217126 3.65956 0
M  V30 4217 H 382.336 -2.60877 4.30061 0
M  V30 4218 H 382.036 -1.51777 5.6766 0
M  V30 4219 H 383.56 -2.44657 5.59442 0
M  V30 4220 H 384.974 -0.179193 5.7302 0
M  V30 4221 H 383.371 0.573649 5.97352 0
M  V30 4222 H 384.441 1.18903 4.70096 0
M  V30 4223 N 385.784 -1.5574 0.241426 0
M  V30 4224 C 386.694 -2.2479 -0.671305 0
M  V30 4225 C 387.71 -1.26217 -1.19772 0
M  V30 4226 O 388.886 -1.59079 -1.23514 0
M  V30 4227 C 385.951 -2.92966 -1.85396 0
M  V30 4228 C 385.012 -4.06935 -1.36756 0
M  V30 4229 C 384.245 -4.71851 -2.49384 0
M  V30 4230 O 384.468 -4.35823 -3.67987 0
M  V30 4231 O 383.402 -5.60467 -2.19454 0
M  V30 4232 H 387.228 -3.0349 -0.112966 0
M  V30 4233 H 384.813 -1.49397 0.0101513 0
M  V30 4234 H 386.695 -3.35927 -2.54423 0
M  V30 4235 H 385.37 -2.17211 -2.40002 0
M  V30 4236 H 384.277 -3.68503 -0.644726 0
M  V30 4237 H 385.61 -4.84492 -0.867647 0
M  V30 4238 N 387.262 0.0317525 -1.57568 0
M  V30 4239 C 388.172 1.05021 -2.0978 0
M  V30 4240 C 389.188 1.39809 -1.03583 0
M  V30 4241 O 390.364 1.49182 -1.35302 0
M  V30 4242 C 387.429 2.33301 -2.56459 0
M  V30 4243 C 386.49 2.0512 -3.77127 0
M  V30 4244 C 385.723 3.27283 -4.2157 0
M  V30 4245 O 385.946 4.37861 -3.65559 0
M  V30 4246 O 384.88 3.13141 -5.14029 0
M  V30 4247 H 388.706 0.636505 -2.96955 0
M  V30 4248 H 386.291 0.248559 -1.47318 0
M  V30 4249 H 388.173 3.08722 -2.86825 0
M  V30 4250 H 386.848 2.73973 -1.72397 0
M  V30 4251 H 385.755 1.27276 -3.51784 0
M  V30 4252 H 387.088 1.69305 -4.62165 0
M  V30 4253 N 388.74 1.54641 0.303973 0
M  V30 4254 C 389.672 1.81754 1.39636 0
M  V30 4255 C 390.685 0.70035 1.46966 0
M  V30 4256 O 391.874 0.97778 1.49338 0
M  V30 4257 C 388.974 1.93785 2.7803 0
M  V30 4258 C 388.147 3.24156 2.93669 0
M  V30 4259 C 387.206 3.26641 4.12544 0
M  V30 4260 O 386.232 4.00187 4.04771 0
M  V30 4261 N 387.434 2.5182 5.23036 0
M  V30 4262 H 390.199 2.76031 1.16734 0
M  V30 4263 H 387.76 1.54178 0.494033 0
M  V30 4264 H 389.752 1.92852 3.55795 0
M  V30 4265 H 388.322 1.06515 2.93893 0
M  V30 4266 H 387.542 3.37887 2.03042 0
M  V30 4267 H 388.83 4.10195 3.01027 0
M  V30 4268 H 388.228 1.91692 5.32232 0
M  V30 4269 H 386.785 2.56644 5.99147 0
M  V30 4270 N 390.218 -0.567019 1.47046 0
M  V30 4271 C 391.181 -1.65696 1.58359 0
M  V30 4272 C 392.181 -1.54097 0.459441 0
M  V30 4273 O 393.371 -1.58432 0.724225 0
M  V30 4274 C 390.503 -3.05197 1.51879 0
M  V30 4275 H 391.696 -1.57019 2.5551 0
M  V30 4276 H 389.249 -0.786148 1.3509 0
M  V30 4277 H 389.984 -3.19417 0.560673 0
M  V30 4278 H 389.769 -3.15025 2.33455 0
M  V30 4279 H 391.259 -3.84511 1.62913 0
M  V30 4280 N 391.696 -1.35014 -0.812953 0
M  V30 4281 C 392.628 -1.23262 -1.93233 0
M  V30 4282 C 393.641 -0.157371 -1.62038 0
M  V30 4283 O 394.83 -0.410096 -1.73725 0
M  V30 4284 C 391.93 -0.87392 -3.27438 0
M  V30 4285 C 391.103 -2.04622 -3.86586 0
M  V30 4286 C 390.162 -1.66432 -4.99186 0
M  V30 4287 O 389.188 -2.38222 -5.16951 0
M  V30 4288 N 390.39 -0.584248 -5.77552 0
M  V30 4289 H 393.155 -2.19699 -2.03844 0
M  V30 4290 H 390.716 -1.281 -0.99005 0
M  V30 4291 H 392.708 -0.600039 -4.00227 0
M  V30 4292 H 391.278 0.00057392 -3.126 0
M  V30 4293 H 390.498 -2.48427 -3.06068 0
M  V30 4294 H 391.786 -2.82999 -4.22835 0
M  V30 4295 H 391.184 0.0123526 -5.65699 0
M  V30 4296 H 389.741 -0.37013 -6.50748 0
M  V30 4297 N 393.175 1.03435 -1.18907 0
M  V30 4298 C 394.107 2.1165 -0.879595 0
M  V30 4299 C 395.12 1.62316 0.125439 0
M  V30 4300 O 396.309 1.78201 -0.103245 0
M  V30 4301 C 393.409 3.37622 -0.294042 0
M  V30 4302 C 392.582 4.16166 -1.34629 0
M  V30 4303 C 391.641 5.20457 -0.775274 0
M  V30 4304 O 390.667 5.50379 -1.4516 0
M  V30 4305 N 391.869 5.78949 0.424126 0
M  V30 4306 H 394.634 2.38791 -1.81105 0
M  V30 4307 H 392.195 1.19681 -1.09032 0
M  V30 4308 H 394.187 4.04572 0.101679 0
M  V30 4309 H 392.757 3.07873 0.541575 0
M  V30 4310 H 391.977 3.44444 -1.91707 0
M  V30 4311 H 393.265 4.65432 -2.05549 0
M  V30 4312 H 392.663 5.56948 0.991209 0
M  V30 4313 H 391.22 6.47334 0.761691 0
M  V30 4314 N 394.653 0.992116 1.22453 0
M  V30 4315 C 395.902 0.662992 1.90492 0
M  V30 4316 C 396.215 -0.808407 1.78113 0
M  V30 4317 O 397.421 -1.24908 2.41061 0
M  V30 4318 C 395.877 1.1353 3.41524 0
M  V30 4319 C 395.485 2.63187 3.62542 0
M  V30 4320 C 397.229 0.880465 4.15269 0
M  V30 4321 C 395.136 3.04024 5.0727 0
M  V30 4322 H 394.066 0.244278 0.713333 0
M  V30 4323 H 396.717 1.20157 1.38688 0
M  V30 4324 H 395.099 0.52485 3.92506 0
M  V30 4325 H 396.273 3.2957 3.22056 0
M  V30 4326 H 394.588 2.86543 3.02129 0
M  V30 4327 H 397.185 1.16128 5.21937 0
M  V30 4328 H 397.528 -0.183408 4.15896 0
M  V30 4329 H 398.061 1.45307 3.70312 0
M  V30 4330 H 394.8 4.09584 5.11782 0
M  V30 4331 H 394.32 2.42343 5.48662 0
M  V30 4332 H 395.999 2.95282 5.75689 0
M  V30 4333 N 396.131 -1.37776 0.765217 0
M  V30 4334 C 397.547 -1.53297 0.444108 0
M  V30 4335 C 397.747 -1.72515 -1.04119 0
M  V30 4336 O 396.803 -1.74278 -1.82711 0
M  V30 4337 C 398.116 -2.73328 1.25349 0
M  V30 4338 C 399.664 -2.87185 1.24473 0
M  V30 4339 C 400.139 -4.10191 2.03733 0
M  V30 4340 N 401.63 -4.17291 2.01053 0
M  V30 4341 C 402.365 -5.11488 2.59166 0
M  V30 4342 N 401.861 -6.11285 3.26041 0
M  V30 4343 N 403.654 -5.03924 2.49032 0
M  V30 4344 H 395.805 -1.23552 1.72768 0
M  V30 4345 H 398.068 -0.601103 0.733062 0
M  V30 4346 H 397.774 -2.6557 2.30577 0
M  V30 4347 H 397.648 -3.66834 0.87823 0
M  V30 4348 H 400.035 -2.94418 0.20047 0
M  V30 4349 H 400.116 -1.94657 1.65959 0
M  V30 4350 H 399.76 -4.0372 3.08176 0
M  V30 4351 H 399.69 -5.01821 1.59633 0
M  V30 4352 H 402.181 -3.45825 1.5236 0
M  V30 4353 H 402.494 -6.79678 3.67774 0
M  V30 4354 H 400.839 -6.11583 3.30138 0
M  V30 4355 H 404.03 -4.24902 1.96407 0
M  V30 4356 H 404.203 -5.77152 2.94617 0
M  V30 4357 N 397.609 -0.515225 -1.4894 0
M  V30 4358 C 398.539 0.244628 -2.32215 0
M  V30 4359 C 399.52 0.949136 -1.41157 0
M  V30 4360 O 400.705 0.937783 -1.70057 0
M  V30 4361 C 397.835 1.30096 -3.22013 0
M  V30 4362 C 396.789 0.715486 -4.21977 0
M  V30 4363 C 396.115 1.87339 -5.00808 0
M  V30 4364 C 397.415 -0.302982 -5.2142 0
M  V30 4365 H 399.109 -0.450501 -2.95991 0
M  V30 4366 H 396.655 -0.218098 -1.42339 0
M  V30 4367 H 398.608 1.84037 -3.79089 0
M  V30 4368 H 397.332 2.02547 -2.56207 0
M  V30 4369 H 395.991 0.197715 -3.66066 0
M  V30 4370 H 395.639 2.58592 -4.31438 0
M  V30 4371 H 395.339 1.48764 -5.68457 0
M  V30 4372 H 396.863 2.41686 -5.60732 0
M  V30 4373 H 398.277 0.148802 -5.73107 0
M  V30 4374 H 396.674 -0.60532 -5.97039 0
M  V30 4375 H 397.744 -1.21395 -4.69459 0
M  V30 4376 N 399.087 1.5561 -0.249682 0
M  V30 4377 C 400.019 2.18834 0.681496 0
M  V30 4378 C 401.032 1.16546 1.1367 0
M  V30 4379 O 402.221 1.43397 1.06299 0
M  V30 4380 C 399.321 2.77992 1.9384 0
M  V30 4381 C 398.494 4.05725 1.63419 0
M  V30 4382 C 397.553 4.49174 2.74096 0
M  V30 4383 O 396.579 5.15492 2.41364 0
M  V30 4384 N 397.781 4.17191 4.03649 0
M  V30 4385 H 400.546 2.9937 0.140514 0
M  V30 4386 H 398.107 1.6175 -0.0697541 0
M  V30 4387 H 400.099 3.04015 2.67127 0
M  V30 4388 H 398.669 2.01596 2.38909 0
M  V30 4389 H 397.889 3.87261 0.736358 0
M  V30 4390 H 399.177 4.88999 1.40562 0
M  V30 4391 H 398.575 3.63955 4.33074 0
M  V30 4392 H 397.132 4.48043 4.73393 0
M  V30 4393 N 400.565 -0.0233959 1.57583 0
M  V30 4394 C 401.528 -1.00693 2.05897 0
M  V30 4395 C 402.528 -1.28693 0.964092 0
M  V30 4396 O 403.718 -1.23602 1.22753 0
M  V30 4397 C 400.85 -2.33825 2.4807 0
M  V30 4398 H 402.043 -0.589476 2.9405 0
M  V30 4399 H 399.596 -0.270354 1.53944 0
M  V30 4400 H 400.331 -2.80307 1.6309 0
M  V30 4401 H 400.116 -2.1483 3.2801 0
M  V30 4402 H 401.606 -3.04426 2.85857 0
M  V30 4403 N 402.043 -1.548 -0.295768 0
M  V30 4404 C 402.953 -1.89177 -1.38742 0
M  V30 4405 C 403.969 -0.786481 -1.55211 0
M  V30 4406 O 405.145 -1.08344 -1.69775 0
M  V30 4407 C 402.21 -2.13663 -2.73036 0
M  V30 4408 C 401.271 -3.37349 -2.65508 0
M  V30 4409 C 400.504 -3.60658 -3.93398 0
M  V30 4410 O 400.727 -2.86882 -4.93006 0
M  V30 4411 O 399.661 -4.54179 -3.94975 0
M  V30 4412 H 403.487 -2.82059 -1.12589 0
M  V30 4413 H 401.072 -1.41056 -0.492295 0
M  V30 4414 H 402.954 -2.3094 -3.52484 0
M  V30 4415 H 401.629 -1.23967 -2.99022 0
M  V30 4416 H 400.536 -3.25431 -1.84514 0
M  V30 4417 H 401.869 -4.27192 -2.44474 0
M  V30 4418 N 403.521 0.559213 -1.47345 0
M  V30 4419 C 404.484 1.64854 -1.59235 0
M  V30 4420 C 405.484 1.53851 -0.467607 0
M  V30 4421 O 406.674 1.58045 -0.732617 0
M  V30 4422 C 403.806 3.04388 -1.53496 0
M  V30 4423 H 404.999 1.55662 -2.56339 0
M  V30 4424 H 402.552 0.778973 -1.35505 0
M  V30 4425 H 403.287 3.19115 -0.577604 0
M  V30 4426 H 403.072 3.13783 -2.35123 0
M  V30 4427 H 404.562 3.83642 -1.6495 0
M  V30 4428 N 404.999 1.35443 0.805782 0
M  V30 4429 C 406.246 1.28761 1.56291 0
M  V30 4430 C 406.574 -0.137747 1.94012 0
M  V30 4431 O 405.829 -1.1032 1.61642 0
M  V30 4432 C 406.128 2.14045 2.86216 0
M  V30 4433 C 405.794 3.62826 2.67709 0
M  V30 4434 C 404.456 4.0338 2.6237 0
M  V30 4435 C 406.808 4.57227 2.50186 0
M  V30 4436 C 404.136 5.36501 2.37451 0
M  V30 4437 C 406.488 5.90547 2.26797 0
M  V30 4438 C 405.152 6.30245 2.1988 0
M  V30 4439 H 404.422 0.471171 0.571908 0
M  V30 4440 H 407.069 1.67347 0.930974 0
M  V30 4441 H 405.374 1.68342 3.53791 0
M  V30 4442 H 407.071 2.0621 3.43917 0
M  V30 4443 H 403.661 3.30644 2.72713 0
M  V30 4444 H 407.845 4.2678 2.53323 0
M  V30 4445 H 403.101 5.66259 2.30567 0
M  V30 4446 H 407.275 6.63274 2.12228 0
M  V30 4447 H 404.902 7.33328 2.00333 0
M  V30 4448 N 406.477 -1.02803 1.19454 0
M  V30 4449 C 407.409 -2.11181 0.890807 0
M  V30 4450 C 408.422 -1.6238 -0.116829 0
M  V30 4451 O 409.611 -1.78144 0.112694 0
M  V30 4452 C 406.711 -3.37461 0.311942 0
M  V30 4453 C 405.884 -4.15446 1.36834 0
M  V30 4454 C 404.943 -5.20039 0.802864 0
M  V30 4455 O 403.969 -5.49602 1.48077 0
M  V30 4456 N 405.171 -5.79165 -0.393417 0
M  V30 4457 H 407.936 -2.37827 1.82369 0
M  V30 4458 H 405.497 -1.19101 1.09666 0
M  V30 4459 H 407.489 -4.0462 -0.0802225 0
M  V30 4460 H 406.059 -3.08156 -0.52524 0
M  V30 4461 H 405.279 -3.43423 1.93531 0
M  V30 4462 H 406.567 -4.64335 2.08015 0
M  V30 4463 H 405.965 -5.57466 -0.961658 0
M  V30 4464 H 404.522 -6.47729 -0.727351 0
M  V30 4465 N 407.956 -0.998596 -1.21925 0
M  V30 4466 C 408.919 -0.558679 -2.22287 0
M  V30 4467 C 409.919 0.361525 -1.56683 0
M  V30 4468 O 411.109 0.152695 -1.73529 0
M  V30 4469 C 408.241 0.18661 -3.40389 0
M  V30 4470 H 409.434 -1.4463 -2.62721 0
M  V30 4471 H 406.987 -0.786413 -1.35075 0
M  V30 4472 H 407.722 1.08996 -3.05435 0
M  V30 4473 H 407.507 -0.474188 -3.89222 0
M  V30 4474 H 408.997 0.482367 -4.14805 0
M  V30 4475 N 409.434 1.37368 -0.772513 0
M  V30 4476 C 410.85 1.53059 -0.452231 0
M  V30 4477 C 411.05 1.73065 1.03203 0
M  V30 4478 O 410.106 1.75245 1.81784 0
M  V30 4479 C 411.419 2.72659 -1.26797 0
M  V30 4480 C 412.967 2.86521 -1.25995 0
M  V30 4481 C 413.442 4.09105 -2.05905 0
M  V30 4482 N 414.933 4.16219 -2.03263 0
M  V30 4483 C 415.668 5.10107 -2.61875 0
M  V30 4484 N 415.164 6.09547 -3.29278 0
M  V30 4485 N 416.957 5.02596 -2.51701 0
M  V30 4486 H 409.108 1.22634 -1.7342 0
M  V30 4487 H 411.371 0.597206 -0.736239 0
M  V30 4488 H 411.077 2.64343 -2.31982 0
M  V30 4489 H 410.951 3.66363 -0.897672 0
M  V30 4490 H 413.338 2.94308 -0.216081 0
M  V30 4491 H 413.419 1.93774 -1.66989 0
M  V30 4492 H 413.063 4.0208 -3.10313 0
M  V30 4493 H 412.993 5.00968 -1.62292 0
M  V30 4494 H 415.484 3.45012 -1.54192 0
M  V30 4495 H 415.797 6.77718 -3.71374 0
M  V30 4496 H 414.142 6.09824 -3.33377 0
M  V30 4497 H 417.333 4.23855 -1.98657 0
M  V30 4498 H 417.506 5.75582 -2.97673 0
M  V30 4499 N 410.912 0.523116 1.48665 0
M  V30 4500 C 411.842 -0.23231 2.32342 0
M  V30 4501 C 412.823 -0.941637 1.41659 0
M  V30 4502 O 414.008 -0.928751 1.70552 0
M  V30 4503 C 411.138 -1.28387 3.22698 0
M  V30 4504 C 410.092 -0.693098 4.22351 0
M  V30 4505 C 409.418 -1.8468 5.01794 0
M  V30 4506 C 410.718 0.33063 5.21252 0
M  V30 4507 H 412.412 0.466192 2.95748 0
M  V30 4508 H 409.958 0.225643 1.42221 0
M  V30 4509 H 411.911 -1.82024 3.80059 0
M  V30 4510 H 410.635 -2.01186 2.57278 0
M  V30 4511 H 409.294 -0.178299 3.66166 0
M  V30 4512 H 408.942 -2.56301 4.32804 0
M  V30 4513 H 408.642 -1.45747 5.69238 0
M  V30 4514 H 410.166 -2.38709 5.62006 0
M  V30 4515 H 411.58 -0.118407 5.73178 0
M  V30 4516 H 409.977 0.636974 5.9671 0
M  V30 4517 H 411.047 1.23883 4.68808 0
M  V30 4518 N 412.39 -1.55475 0.257931 0
M  V30 4519 C 413.337 -2.21837 -0.636939 0
M  V30 4520 C 414.307 -1.18596 -1.16294 0
M  V30 4521 O 415.492 -1.47081 -1.21539 0
M  V30 4522 C 412.632 -2.9301 -1.82317 0
M  V30 4523 C 411.745 -4.10931 -1.33265 0
M  V30 4524 C 410.88 -4.69791 -2.47931 0
M  V30 4525 C 409.919 -5.7994 -1.95796 0
M  V30 4526 N 409.056 -6.32935 -3.0387 0
M  V30 4527 H 413.896 -2.9793 -0.0643591 0
M  V30 4528 H 411.433 -1.47086 -0.0200031 0
M  V30 4529 H 413.391 -3.3248 -2.52018 0
M  V30 4530 H 412.021 -2.1937 -2.36805 0
M  V30 4531 H 411.073 -3.76699 -0.52931 0
M  V30 4532 H 412.385 -4.90417 -0.910654 0
M  V30 4533 H 411.539 -5.11892 -3.25656 0
M  V30 4534 H 410.278 -3.89545 -2.93438 0
M  V30 4535 H 409.283 -5.37305 -1.16546 0
M  V30 4536 H 410.508 -6.62043 -1.51246 0
M  V30 4537 H 408.454 -5.55591 -3.48791 0
M  V30 4538 H 408.371 -7.07645 -2.66035 0
M  V30 4539 H 409.639 -6.79695 -3.81621 0
M  V30 4540 N 413.868 0.0150385 -1.57593 0
M  V30 4541 C 415.093 0.718067 -1.94573 0
M  V30 4542 C 415.518 1.6734 -0.859005 0
M  V30 4543 O 414.876 1.80362 0.184147 0
M  V30 4544 C 414.924 1.43918 -3.30636 0
M  V30 4545 O 414.028 2.55299 -3.23876 0
M  V30 4546 H 413.369 0.192125 -0.635597 0
M  V30 4547 H 415.899 -0.0336708 -2.04572 0
M  V30 4548 H 415.909 1.80598 -3.65853 0
M  V30 4549 H 414.584 0.738619 -4.09289 0
M  V30 4550 H 413.161 2.21058 -3.00312 0
M  V30 4551 N 415.346 1.54954 0.287554 0
M  V30 4552 C 416.592 1.76059 1.01856 0
M  V30 4553 C 416.947 0.547056 1.84459 0
M  V30 4554 O 416.24 -0.460442 1.85985 0
M  V30 4555 C 416.434 2.99833 1.94512 0
M  V30 4556 C 416.263 4.33108 1.21026 0
M  V30 4557 C 415.033 4.96632 0.931896 0
M  V30 4558 C 417.231 5.10694 0.607949 0
M  V30 4559 N 415.213 6.13668 0.168716 0
M  V30 4560 C 416.584 6.19996 -0.0217865 0
M  V30 4561 C 418.639 4.95236 0.514338 0
M  V30 4562 C 417.342 7.15524 -0.736092 0
M  V30 4563 C 419.368 5.91106 -0.186343 0
M  V30 4564 C 418.73 6.99786 -0.804875 0
M  V30 4565 H 414.829 0.696679 0.355193 0
M  V30 4566 H 417.413 1.92441 0.295741 0
M  V30 4567 H 415.584 2.84853 2.64033 0
M  V30 4568 H 417.316 3.09405 2.60865 0
M  V30 4569 H 414.071 4.57255 1.23348 0
M  V30 4570 H 414.495 6.76705 -0.199781 0
M  V30 4571 H 419.137 4.11328 0.978234 0
M  V30 4572 H 416.855 7.98964 -1.21172 0
M  V30 4573 H 420.441 5.81224 -0.258897 0
M  V30 4574 H 419.321 7.72694 -1.33843 0
M  V30 4575 N 416.824 -0.551391 1.4764 0
M  V30 4576 C 418.071 -1.3083 1.54563 0
M  V30 4577 C 418.399 -1.93359 0.210361 0
M  V30 4578 O 417.654 -1.78721 -0.797332 0
M  V30 4579 C 417.953 -2.43469 2.61644 0
M  V30 4580 C 417.619 -1.98732 4.04742 0
M  V30 4581 C 416.281 -1.86248 4.43695 0
M  V30 4582 C 418.633 -1.64659 4.94507 0
M  V30 4583 C 415.961 -1.37995 5.70241 0
M  V30 4584 C 418.313 -1.17875 6.21521 0
M  V30 4585 C 416.977 -1.03992 6.5935 0
M  V30 4586 H 416.247 -0.478741 0.565587 0
M  V30 4587 H 418.894 -0.617697 1.81264 0
M  V30 4588 H 417.199 -3.18109 2.28722 0
M  V30 4589 H 418.896 -3.01642 2.64222 0
M  V30 4590 H 415.486 -2.09393 3.73968 0
M  V30 4591 H 419.67 -1.73174 4.65107 0
M  V30 4592 H 414.926 -1.25915 5.98294 0
M  V30 4593 H 419.1 -0.905739 6.90485 0
M  V30 4594 H 416.727 -0.663794 7.57296 0
M  V30 4595 N 418.302 -1.35869 -0.798587 0
M  V30 4596 C 419.212 -1.31578 -1.94228 0
M  V30 4597 C 420.228 -0.21939 -1.72611 0
M  V30 4598 O 421.404 -0.450167 -1.96305 0
M  V30 4599 C 418.469 -1.09528 -3.28944 0
M  V30 4600 C 417.53 -2.28556 -3.63402 0
M  V30 4601 C 416.763 -2.07549 -4.9169 0
M  V30 4602 O 416.986 -1.046 -5.60727 0
M  V30 4603 O 415.92 -2.95106 -5.24591 0
M  V30 4604 H 419.746 -2.27847 -2.00796 0
M  V30 4605 H 417.331 -1.16322 -0.937526 0
M  V30 4606 H 419.213 -0.991127 -4.09579 0
M  V30 4607 H 417.888 -0.16315 -3.23289 0
M  V30 4608 H 416.795 -2.44538 -2.83112 0
M  V30 4609 H 418.128 -3.20244 -3.73771 0
M  V30 4610 N 419.78 1.02168 -1.19998 0
M  V30 4611 C 421.191 1.57135 -1.00825 0
M  V30 4612 C 421.542 1.91276 0.436818 0
M  V30 4613 O 420.667 1.71679 1.3174 0
M  V30 4614 C 421.262 2.85514 -1.82393 0
M  V30 4615 C 419.821 3.37027 -1.67601 0
M  V30 4616 C 418.968 2.10388 -1.80644 0
M  V30 4617 H 421.919 0.846106 -1.34264 0
M  V30 4618 H 421.94 3.56711 -1.32429 0
M  V30 4619 H 421.452 2.60634 -2.87561 0
M  V30 4620 H 419.553 3.66878 -0.650485 0
M  V30 4621 H 419.666 4.09572 -2.4857 0
M  V30 4622 H 418.03 2.22601 -1.23778 0
M  V30 4623 H 418.813 1.8794 -2.87286 0
M  V30 4624 N 421.258 1.00505 1.21394 0
M  V30 4625 C 422.188 0.585684 2.26035 0
M  V30 4626 C 423.169 -0.393525 1.65485 0
M  V30 4627 O 424.354 -0.281497 1.92149 0
M  V30 4628 C 421.484 -0.0884283 3.47187 0
M  V30 4629 C 420.438 0.810567 4.20254 0
M  V30 4630 C 419.764 0.00286382 5.347 0
M  V30 4631 C 421.064 2.1132 4.77641 0
M  V30 4632 H 422.758 1.46039 2.61368 0
M  V30 4633 H 420.304 0.703648 1.25638 0
M  V30 4634 H 422.257 -0.393286 4.19561 0
M  V30 4635 H 420.981 -0.997766 3.10986 0
M  V30 4636 H 419.64 1.09925 3.49731 0
M  V30 4637 H 419.288 -0.907765 4.94741 0
M  V30 4638 H 418.988 0.601444 5.84514 0
M  V30 4639 H 420.512 -0.295808 6.09883 0
M  V30 4640 H 421.926 1.87148 5.41893 0
M  V30 4641 H 420.323 2.66164 5.37845 0
M  V30 4642 H 421.393 2.78393 3.9702 0
M  V30 4643 N 422.737 -1.36956 0.779787 0
M  V30 4644 C 423.983 -1.99787 0.348281 0
M  V30 4645 C 424.316 -1.61756 -1.07465 0
M  V30 4646 O 423.591 -0.867639 -1.74075 0
M  V30 4647 C 423.874 -3.56597 0.50104 0
M  V30 4648 C 423.727 -4.04513 1.96697 0
M  V30 4649 C 425.046 -4.40008 -0.0898097 0
M  V30 4650 H 422.165 -0.725796 0.128022 0
M  V30 4651 H 424.807 -1.62514 0.984331 0
M  V30 4652 H 422.957 -3.88479 -0.0404347 0
M  V30 4653 H 424.629 -3.83161 2.56876 0
M  V30 4654 H 422.872 -3.56408 2.47297 0
M  V30 4655 H 423.543 -5.1352 2.02486 0
M  V30 4656 H 426.019 -4.14431 0.372293 0
M  V30 4657 H 424.895 -5.4888 0.0471605 0
M  V30 4658 H 425.156 -4.26035 -1.18096 0
M  V30 4659 N 424.215 -0.530993 -1.48385 0
M  V30 4660 C 425.125 0.23503 -2.3342 0
M  V30 4661 C 426.141 0.93801 -1.46552 0
M  V30 4662 O 427.317 0.912745 -1.7953 0
M  V30 4663 C 424.382 1.26778 -3.22689 0
M  V30 4664 C 423.443 0.575038 -4.25431 0
M  V30 4665 C 422.676 1.55858 -5.10435 0
M  V30 4666 O 422.899 2.79129 -4.97437 0
M  V30 4667 O 421.833 1.09742 -5.91811 0
M  V30 4668 H 425.659 -0.461794 -3.00169 0
M  V30 4669 H 423.244 -0.291903 -1.46521 0
M  V30 4670 H 425.126 1.86457 -3.77904 0
M  V30 4671 H 423.801 1.94699 -2.586 0
M  V30 4672 H 422.708 -0.0622782 -3.74048 0
M  V30 4673 H 424.041 -0.062253 -4.92161 0
M  V30 4674 N 425.693 1.55336 -0.266172 0
M  V30 4675 C 426.97 1.91372 0.404486 0
M  V30 4676 C 427.35 1.18935 1.74407 0
M  V30 4677 O 426.698 0.3132 2.26343 0
M  V30 4678 C 426.908 3.44581 0.553593 0
M  V30 4679 C 428.256 4.16196 0.840618 0
M  V30 4680 O 429.28 3.50426 0.638739 0
M  V30 4681 O 428.139 5.32567 1.22618 0
M  V30 4682 H 425.233 0.797194 0.220025 0
M  V30 4683 H 427.779 1.66813 -0.311664 0
M  V30 4684 H 426.551 3.89357 -0.389498 0
M  V30 4685 H 426.174 3.75065 1.31955 0
M  V30 4686 N 427.171 -0.0066808 1.57599 0
M  V30 4687 C 428.104 -1.03397 2.03431 0
M  V30 4688 C 429.082 -1.33872 0.922877 0
M  V30 4689 O 430.266 -1.4615 1.19048 0
M  V30 4690 C 427.393 -2.36325 2.42628 0
M  V30 4691 C 426.439 -2.21557 3.64438 0
M  V30 4692 S 427.272 -1.54789 5.12641 0
M  V30 4693 C 428.428 -2.8916 5.55101 0
M  V30 4694 H 428.661 -0.643687 2.90248 0
M  V30 4695 H 426.194 -0.217349 1.52863 0
M  V30 4696 H 428.152 -3.12759 2.65879 0
M  V30 4697 H 426.813 -2.72495 1.56222 0
M  V30 4698 H 426.006 -3.1974 3.89592 0
M  V30 4699 H 425.608 -1.53267 3.41153 0
M  V30 4700 H 427.9 -3.8547 5.57153 0
M  V30 4701 H 428.843 -2.68713 6.55133 0
M  V30 4702 H 429.251 -2.92762 4.82649 0
M  V30 4703 N 428.649 -1.55105 -0.279332 0
M  V30 4704 C 429.581 -1.83952 -1.36727 0
M  V30 4705 C 430.594 -0.723642 -1.45833 0
M  V30 4706 O 431.783 -1.00141 -1.47763 0
M  V30 4707 C 428.883 -1.98183 -2.74912 0
M  V30 4708 C 428.056 -3.28787 -2.88475 0
M  V30 4709 C 427.115 -3.33162 -4.07295 0
M  V30 4710 O 426.141 -4.06576 -3.98353 0
M  V30 4711 N 427.343 -2.60109 -5.18964 0
M  V30 4712 H 430.108 -2.77853 -1.12328 0
M  V30 4713 H 427.669 -1.54945 -0.469442 0
M  V30 4714 H 429.661 -1.98488 -3.52682 0
M  V30 4715 H 428.231 -1.11177 -2.92162 0
M  V30 4716 H 427.451 -3.41075 -1.97641 0
M  V30 4717 H 428.739 -4.14933 -2.94463 0
M  V30 4718 H 428.137 -2.00136 -5.29115 0
M  V30 4719 H 426.694 -2.66143 -5.94988 0
M  V30 4720 N 430.127 0.543554 -1.4793 0
M  V30 4721 C 431.543 0.870806 -1.3375 0
M  V30 4722 C 431.743 1.9864 -0.338261 0
M  V30 4723 O 430.799 2.51305 0.245371 0
M  V30 4724 C 432.112 1.25114 -2.73435 0
M  V30 4725 C 433.66 1.3618 -2.81823 0
M  V30 4726 C 434.135 1.77563 -4.22179 0
M  V30 4727 N 435.626 1.8469 -4.24787 0
M  V30 4728 C 436.361 2.18067 -5.30315 0
M  V30 4729 N 435.857 2.49963 -6.46135 0
M  V30 4730 N 437.65 2.18958 -5.17701 0
M  V30 4731 H 429.801 -0.19275 -2.11524 0
M  V30 4732 H 432.064 -0.0235777 -0.947707 0
M  V30 4733 H 431.77 0.50514 -3.48053 0
M  V30 4734 H 431.644 2.20431 -3.06088 0
M  V30 4735 H 434.031 2.09859 -2.07468 0
M  V30 4736 H 434.112 0.390169 -2.52807 0
M  V30 4737 H 433.756 1.04449 -4.97044 0
M  V30 4738 H 433.686 2.75753 -4.48629 0
M  V30 4739 H 436.177 1.62372 -3.41239 0
M  V30 4740 H 436.49 2.74497 -7.22406 0
M  V30 4741 H 434.835 2.47513 -6.49432 0
M  V30 4742 H 438.026 1.93488 -4.2624 0
M  V30 4743 H 438.199 2.44639 -6.00047 0
M  V30 4744 N 431.605 1.3629 0.791371 0
M  V30 4745 C 432.537 1.26321 1.91248 0
M  V30 4746 C 433.55 0.18313 1.61767 0
M  V30 4747 O 434.739 0.437682 1.73051 0
M  V30 4748 C 431.839 0.925901 3.26007 0
M  V30 4749 C 431.012 2.10746 3.83281 0
M  V30 4750 C 430.071 1.74352 4.96475 0
M  V30 4751 O 429.097 2.46416 5.13096 0
M  V30 4752 N 430.299 0.676058 5.7655 0
M  V30 4753 H 433.064 2.22915 2.00323 0
M  V30 4754 H 430.625 1.29659 0.969546 0
M  V30 4755 H 432.617 0.663636 3.99222 0
M  V30 4756 H 431.187 0.0491581 3.12561 0
M  V30 4757 H 430.407 2.53264 3.02077 0
M  V30 4758 H 431.695 2.8969 4.18279 0
M  V30 4759 H 431.093 0.0776467 5.65647 0
M  V30 4760 H 429.65 0.473612 6.50077 0
M  V30 4761 N 433.083 -1.0153 1.20538 0
M  V30 4762 C 434.329 -1.75517 1.02787 0
M  V30 4763 C 434.684 -1.87411 -0.435289 0
M  V30 4764 O 433.977 -1.38982 -1.31889 0
M  V30 4765 C 434.171 -3.17213 1.64654 0
M  V30 4766 C 434 -3.19134 3.16834 0
M  V30 4767 C 432.77 -3.26301 3.85818 0
M  V30 4768 C 434.968 -3.05077 4.14044 0
M  V30 4769 N 432.95 -3.17739 5.25276 0
M  V30 4770 C 434.321 -3.04299 5.40187 0
M  V30 4771 C 436.376 -2.89303 4.05226 0
M  V30 4772 C 435.079 -2.89365 6.58529 0
M  V30 4773 C 437.105 -2.75723 5.23193 0
M  V30 4774 C 436.467 -2.75612 6.48242 0
M  V30 4775 H 432.566 -0.652919 0.430373 0
M  V30 4776 H 435.15 -1.20755 1.52729 0
M  V30 4777 H 433.321 -3.70266 1.17294 0
M  V30 4778 H 435.053 -3.79637 1.40208 0
M  V30 4779 H 431.808 -3.33078 3.36684 0
M  V30 4780 H 432.232 -3.16829 5.98288 0
M  V30 4781 H 436.874 -2.88201 3.09354 0
M  V30 4782 H 434.592 -2.89216 7.54573 0
M  V30 4783 H 438.178 -2.64533 5.18183 0
M  V30 4784 H 437.058 -2.65224 7.37988 0
M  V30 4785 N 434.561 -1.01147 -1.20859 0
M  V30 4786 C 435.524 -0.582224 -2.21682 0
M  V30 4787 C 436.524 0.344887 -1.57058 0
M  V30 4788 O 437.714 0.134281 -1.73682 0
M  V30 4789 C 434.846 0.150496 -3.40568 0
M  V30 4790 H 436.039 -1.47408 -2.61172 0
M  V30 4791 H 433.592 -0.800695 -1.34233 0
M  V30 4792 H 434.327 1.0575 -3.06574 0
M  V30 4793 H 434.112 -0.515444 -3.88697 0
M  V30 4794 H 435.602 0.438344 -4.15293 0
M  V30 4795 N 436.039 1.36541 -0.78704 0
M  V30 4796 C 437.287 1.98911 -0.357633 0
M  V30 4797 C 437.608 1.62778 1.07371 0
M  V30 4798 O 436.878 0.900612 1.73971 0
M  V30 4799 H 435.458 0.735734 -0.129246 0
M  V30 4800 H 438.12 1.66776 -1.00855 0
M  V30 4801 H 437.216 3.08874 -0.447549 0
M  V30 4802 N 437.518 0.538854 1.48102 0
M  V30 4803 C 438.448 -0.207654 2.32575 0
M  V30 4804 C 439.429 -0.926559 1.4265 0
M  V30 4805 O 440.614 -0.91061 1.71527 0
M  V30 4806 C 437.744 -1.24957 3.24042 0
M  V30 4807 C 436.698 -0.648263 4.23062 0
M  V30 4808 C 436.024 -1.79348 5.03725 0
M  V30 4809 C 437.324 0.385897 5.20872 0
M  V30 4810 H 439.018 0.497534 2.95237 0
M  V30 4811 H 436.564 0.240715 1.41974 0
M  V30 4812 H 438.517 -1.77983 3.81969 0
M  V30 4813 H 437.241 -1.98446 2.59397 0
M  V30 4814 H 435.9 -0.139452 3.66335 0
M  V30 4815 H 435.548 -2.51696 4.35498 0
M  V30 4816 H 435.248 -1.39702 5.70751 0
M  V30 4817 H 436.772 -2.32735 5.64506 0
M  V30 4818 H 438.186 -0.057607 5.73271 0
M  V30 4819 H 436.583 0.700227 5.96001 0
M  V30 4820 H 437.653 1.28848 4.67468 0
M  V30 4821 N 438.996 -1.55193 0.274407 0
M  V30 4822 C 440.242 -1.99877 -0.343086 0
M  V30 4823 C 440.575 -1.16256 -1.55558 0
M  V30 4824 O 439.85 -0.232462 -1.93106 0
M  V30 4825 C 440.133 -3.52706 -0.725965 0
M  V30 4826 C 439.986 -4.47081 0.493818 0
M  V30 4827 C 441.305 -4.11422 -1.56268 0
M  V30 4828 H 438.424 -0.726625 -0.123229 0
M  V30 4829 H 441.066 -1.86136 0.38121 0
M  V30 4830 H 439.216 -3.64546 -1.34307 0
M  V30 4831 H 440.888 -4.47186 1.13237 0
M  V30 4832 H 439.131 -4.1877 1.13201 0
M  V30 4833 H 439.802 -5.51699 0.18217 0
M  V30 4834 H 442.278 -4.02855 -1.04151 0
M  V30 4835 H 441.154 -5.18568 -1.79939 0
M  V30 4836 H 441.415 -3.61607 -2.54348 0
M  V30 4837 N 440.474 -0.00167713 -1.576 0
M  V30 4838 C 441.384 1.00548 -2.1196 0
M  V30 4839 C 442.4 1.3758 -1.06526 0
M  V30 4840 O 443.576 1.46278 -1.38436 0
M  V30 4841 C 440.641 2.27809 -2.6135 0
M  V30 4842 C 439.702 1.97074 -3.81393 0
M  V30 4843 C 438.935 3.18267 -4.28417 0
M  V30 4844 O 439.158 4.30009 -3.74765 0
M  V30 4845 O 438.092 3.02167 -5.20556 0
M  V30 4846 H 441.918 0.573373 -2.98238 0
M  V30 4847 H 439.503 0.217255 -1.47812 0
M  V30 4848 H 441.385 3.02568 -2.93309 0
M  V30 4849 H 440.06 2.70254 -1.78169 0
M  V30 4850 H 438.967 1.19785 -3.54404 0
M  V30 4851 H 440.3 1.59464 -4.65652 0
M  V30 4852 N 441.952 1.55251 0.271103 0
M  V30 4853 C 442.899 1.88261 1.33516 0
M  V30 4854 C 443.869 0.734296 1.48988 0
M  V30 4855 O 445.054 0.985741 1.63364 0
M  V30 4856 C 442.194 2.16168 2.69008 0
M  V30 4857 C 441.307 3.43678 2.61743 0
M  V30 4858 C 440.442 3.61276 3.89427 0
M  V30 4859 C 439.481 4.82472 3.7668 0
M  V30 4860 N 438.618 4.96717 4.96202 0
M  V30 4861 H 443.458 2.79015 1.04665 0
M  V30 4862 H 440.995 1.38137 0.505618 0
M  V30 4863 H 442.953 2.30349 3.47844 0
M  V30 4864 H 441.583 1.28646 2.96057 0
M  V30 4865 H 440.635 3.37959 1.74607 0
M  V30 4866 H 441.947 4.3265 2.48224 0
M  V30 4867 H 441.101 3.75284 4.76704 0
M  V30 4868 H 439.84 2.70492 4.05814 0
M  V30 4869 H 438.845 4.68465 2.87786 0
M  V30 4870 H 440.07 5.74692 3.61809 0
M  V30 4871 H 438.016 4.08865 5.12997 0
M  V30 4872 H 437.933 5.79738 4.85222 0
M  V30 4873 H 439.201 5.15113 5.85046 0
M  V30 4874 N 443.43 -0.535701 1.48216 0
M  V30 4875 C 444.676 -1.29375 1.56173 0
M  V30 4876 C 445.009 -1.92804 0.232429 0
M  V30 4877 O 444.284 -1.78992 -0.761048 0
M  V30 4878 C 444.567 -2.38747 2.69577 0
M  V30 4879 C 444.42 -1.80046 4.12193 0
M  V30 4880 C 445.739 -3.40551 2.78771 0
M  V30 4881 H 442.858 -0.469027 0.568491 0
M  V30 4882 H 445.5 -0.597358 1.80365 0
M  V30 4883 H 443.65 -2.98147 2.4908 0
M  V30 4884 H 445.322 -1.24742 4.44114 0
M  V30 4885 H 443.565 -1.10609 4.19462 0
M  V30 4886 H 444.236 -2.59212 4.87353 0
M  V30 4887 H 446.712 -2.91099 2.97322 0
M  V30 4888 H 445.588 -4.1448 3.59857 0
M  V30 4889 H 445.849 -4.00746 1.86696 0
M  V30 4890 N 444.908 -1.36708 -0.784132 0
M  V30 4891 C 445.84 -1.27333 -1.90575 0
M  V30 4892 C 446.853 -0.191706 -1.61667 0
M  V30 4893 O 448.042 -0.446854 -1.72816 0
M  V30 4894 C 445.142 -0.943177 -3.25511 0
M  V30 4895 C 444.315 -2.12776 -3.82158 0
M  V30 4896 C 443.374 -1.76983 -4.95544 0
M  V30 4897 O 442.4 -2.49134 -5.11782 0
M  V30 4898 N 443.602 -0.706624 -5.76183 0
M  V30 4899 H 446.367 -2.23974 -1.99138 0
M  V30 4900 H 443.928 -1.30171 -0.962656 0
M  V30 4901 H 445.92 -0.684799 -3.98864 0
M  V30 4902 H 444.49 -0.0657333 -3.12531 0
M  V30 4903 H 443.71 -2.54863 -3.0073 0
M  V30 4904 H 444.998 -2.91904 -4.16737 0
M  V30 4905 H 444.396 -0.107643 -5.65598 0
M  V30 4906 H 442.953 -0.50808 -6.49817 0
M  V30 4907 N 446.386 1.0089 -1.21074 0
M  V30 4908 C 447.349 2.0775 -0.968129 0
M  V30 4909 C 448.349 1.6069 0.0593445 0
M  V30 4910 O 449.539 1.73293 -0.177525 0
M  V30 4911 C 446.671 3.37794 -0.459108 0
M  V30 4912 H 447.864 2.30707 -1.9161 0
M  V30 4913 H 445.417 1.17807 -1.02719 0
M  V30 4914 H 446.152 3.20516 0.49397 0
M  V30 4915 H 445.937 3.7328 -1.20019 0
M  V30 4916 H 447.427 4.16454 -0.309099 0
M  V30 4917 N 447.864 1.01787 1.20321 0
M  V30 4918 C 448.827 0.593972 2.2137 0
M  V30 4919 C 449.827 -0.336553 1.57239 0
M  V30 4920 O 451.017 -0.125069 1.7375 0
M  V30 4921 C 448.149 -0.132433 3.40643 0
M  V30 4922 H 449.342 1.48791 2.60387 0
M  V30 4923 H 446.895 0.807803 1.33807 0
M  V30 4924 H 447.63 -1.04123 3.0713 0
M  V30 4925 H 447.415 0.53605 3.88418 0
M  V30 4926 H 448.905 -0.416314 4.1552 0
M  V30 4927 N 449.342 -1.36122 0.79427 0
M  V30 4928 C 450.588 -1.99406 0.369452 0
M  V30 4929 C 450.921 -1.62886 -1.05743 0
M  V30 4930 O 450.196 -0.886053 -1.73145 0
M  V30 4931 C 450.479 -3.56046 0.538833 0
M  V30 4932 C 450.332 -4.02404 2.00976 0
M  V30 4933 C 451.651 -4.40079 -0.0431359 0
M  V30 4934 H 448.77 -0.724397 0.135712 0
M  V30 4935 H 451.412 -1.61461 1.00151 0
M  V30 4936 H 449.562 -3.885 0.000771004 0
M  V30 4937 H 451.234 -3.80415 2.60926 0
M  V30 4938 H 449.477 -3.53765 2.51063 0
M  V30 4939 H 450.148 -5.11344 2.07922 0
M  V30 4940 H 452.624 -4.14013 0.416228 0
M  V30 4941 H 451.5 -5.48799 0.105374 0
M  V30 4942 H 451.761 -4.27264 -1.13571 0
M  V30 4943 N 450.82 -0.546701 -1.47814 0
M  V30 4944 C 452.068 -0.0187037 -2.02091 0
M  V30 4945 C 452.389 1.33168 -1.42447 0
M  V30 4946 O 451.659 1.86619 -0.595839 0
M  V30 4947 H 450.239 -0.00392531 -0.74699 0
M  V30 4948 H 452.901 -0.714327 -1.81338 0
M  V30 4949 H 451.997 0.0772219 -3.12004 0
M  V30 4950 N 452.299 1.55045 -0.282633 0
M  V30 4951 C 453.527 2.04168 0.33512 0
M  V30 4952 C 453.942 1.16071 1.48906 0
M  V30 4953 O 453.299 0.182391 1.81586 0
M  V30 4954 C 453.35 3.52332 0.808957 0
M  V30 4955 O 453.071 4.37078 -0.299038 0
M  V30 4956 C 454.572 4.17375 1.49375 0
M  V30 4957 H 451.792 0.666744 0.0754543 0
M  V30 4958 H 454.336 2.00205 -0.416918 0
M  V30 4959 H 452.491 3.56715 1.51106 0
M  V30 4960 H 452.905 5.24458 0.0665514 0
M  V30 4961 H 454.379 5.22627 1.77664 0
M  V30 4962 H 454.856 3.65999 2.42778 0
M  V30 4963 H 455.462 4.17016 0.835305 0
M  V30 4964 N 453.777 0.010035 1.57597 0
M  V30 4965 C 455.002 -0.687021 1.95691 0
M  V30 4966 C 455.427 -1.65952 0.885519 0
M  V30 4967 O 454.785 -1.80633 -0.15543 0
M  V30 4968 C 454.833 -1.3864 3.32884 0
M  V30 4969 O 453.937 -2.50115 3.27897 0
M  V30 4970 H 453.278 -0.181989 0.638573 0
M  V30 4971 H 455.808 0.0662122 2.04493 0
M  V30 4972 H 455.818 -1.74754 3.6868 0
M  V30 4973 H 454.493 -0.673411 4.10412 0
M  V30 4974 H 453.07 -2.16253 3.03791 0
M  V30 4975 N 455.255 -1.55392 -0.262866 0
M  V30 4976 C 456.218 -1.88181 -1.30846 0
M  V30 4977 C 457.218 -0.757079 -1.41862 0
M  V30 4978 O 458.408 -1.02519 -1.40838 0
M  V30 4979 C 455.54 -2.09609 -2.68844 0
M  V30 4980 H 456.733 -2.81659 -1.02997 0
M  V30 4981 H 454.286 -1.48039 -0.501414 0
M  V30 4982 H 455.021 -1.18547 -3.01856 0
M  V30 4983 H 454.806 -2.91508 -2.62231 0
M  V30 4984 H 456.296 -2.36215 -3.44372 0
M  V30 4985 N 456.733 0.527833 -1.48498 0
M  V30 4986 C 457.696 1.61439 -1.62696 0
M  V30 4987 C 458.696 1.52824 -0.500136 0
M  V30 4988 O 459.886 1.56456 -0.765976 0
M  V30 4989 C 457.018 3.01063 -1.59918 0
M  V30 4990 H 458.211 1.50189 -2.59583 0
M  V30 4991 H 455.764 0.750055 -1.37127 0
M  V30 4992 H 456.499 3.17818 -0.645163 0
M  V30 4993 H 456.284 3.08725 -2.41726 0
M  V30 4994 H 457.774 3.80057 -1.73051 0
M  V30 4995 N 458.211 1.37122 0.776871 0
M  V30 4996 C 459.622 1.28667 1.35284 0
M  V30 4997 C 459.973 -0.0680035 1.96082 0
M  V30 4998 O 459.098 -0.969743 1.93455 0
M  V30 4999 C 459.693 2.32997 2.45963 0
M  V30 5000 C 458.252 2.28191 2.99342 0
M  V30 5001 C 457.399 2.17101 1.72517 0
M  V30 5002 H 460.35 1.47819 0.577527 0
M  V30 5003 H 460.371 1.97366 3.2531 0
M  V30 5004 H 459.883 3.3158 2.01684 0
M  V30 5005 H 457.984 1.33115 3.4801 0
M  V30 5006 H 458.097 3.21397 3.55304 0
M  V30 5007 H 456.461 1.63562 1.95242 0
M  V30 5008 H 457.244 3.17591 1.30348 0
M  V30 5009 N 459.689 -1.00246 1.21608 0
M  V30 5010 C 460.935 -1.74319 1.03638 0
M  V30 5011 C 461.268 -1.89408 -0.428749 0
M  V30 5012 O 460.543 -1.43026 -1.3181 0
M  V30 5013 C 460.826 -3.15431 1.73711 0
M  V30 5014 C 460.679 -3.08049 3.27759 0
M  V30 5015 C 461.998 -4.14407 1.48173 0
M  V30 5016 H 459.117 -0.632741 0.377899 0
M  V30 5017 H 461.759 -1.16853 1.49818 0
M  V30 5018 H 459.909 -3.64493 1.34452 0
M  V30 5019 H 461.581 -2.66681 3.76403 0
M  V30 5020 H 459.824 -2.45088 3.57931 0
M  V30 5021 H 460.495 -4.07862 3.71958 0
M  V30 5022 H 462.971 -3.74061 1.82258 0
M  V30 5023 H 461.847 -5.11279 1.99713 0
M  V30 5024 H 462.108 -4.40174 0.412273 0
M  V30 5025 N 461.167 -1.02423 -1.1978 0
M  V30 5026 C 462.578 -0.748389 -1.71044 0
M  V30 5027 C 462.929 0.732398 -1.82017 0
M  V30 5028 O 462.054 1.57116 -1.48807 0
M  V30 5029 C 462.649 -1.35187 -3.1066 0
M  V30 5030 C 461.208 -1.12472 -3.59203 0
M  V30 5031 C 460.355 -1.45283 -2.36195 0
M  V30 5032 H 463.306 -1.19275 -1.04686 0
M  V30 5033 H 463.327 -0.746408 -3.73107 0
M  V30 5034 H 462.839 -2.4296 -3.02642 0
M  V30 5035 H 460.94 -0.0649983 -3.72543 0
M  V30 5036 H 461.053 -1.81016 -4.43588 0
M  V30 5037 H 459.417 -0.872034 -2.39307 0
M  V30 5038 H 460.2 -2.54129 -2.30811 0
M  V30 5039 N 462.645 1.35699 -0.801477 0
M  V30 5040 C 463.87 2.03687 -0.390678 0
M  V30 5041 C 464.295 1.60015 0.988778 0
M  V30 5042 O 463.653 0.774357 1.63931 0
M  V30 5043 C 463.701 3.57439 -0.476404 0
M  V30 5044 O 462.805 4.09208 0.512106 0
M  V30 5045 H 462.146 0.64344 -0.163956 0
M  V30 5046 H 464.676 1.73403 -1.08594 0
M  V30 5047 H 464.686 4.06544 -0.344357 0
M  V30 5048 H 463.361 3.88576 -1.48262 0
M  V30 5049 H 461.938 3.7134 0.340721 0
M  V30 5050 N 464.123 0.554532 1.47522 0
M  V30 5051 C 465.4 -0.0360704 1.95567 0
M  V30 5052 C 465.78 -1.48828 1.49711 0
M  V30 5053 O 465.128 -2.16366 0.734717 0
M  V30 5054 C 465.338 0.106631 3.48837 0
M  V30 5055 C 466.686 -0.0400899 4.24581 0
M  V30 5056 O 467.71 0.0340453 3.56184 0
M  V30 5057 O 466.569 -0.199111 5.46137 0
M  V30 5058 H 463.663 -0.0656294 0.824392 0
M  V30 5059 H 466.209 0.620867 1.57935 0
M  V30 5060 H 464.981 1.11727 3.7501 0
M  V30 5061 H 464.604 -0.58804 3.93227 0
M  V30 5062 N 465.601 -1.54893 0.290851 0
M  V30 5063 C 466.549 -2.24579 -0.605576 0
M  V30 5064 C 467.543 -1.24824 -1.14522 0
M  V30 5065 O 468.749 -1.42706 -1.09704 0
M  V30 5066 H 465.124 -0.720946 -0.213872 0
M  V30 5067 H 467.095 -2.984 0.0048173 0
M  V30 5068 C 465.844 -2.99224 -1.77088 0
M  V30 5069 H 465.167 -3.75782 -1.36484 0
M  V30 5070 H 466.607 -3.51281 -2.3744 0
M  V30 5071 C 465.066 -2.05602 -2.66888 0
M  V30 5072 O 465.596 -1.61745 -3.67698 0
M  V30 5073 N 463.802 -1.71771 -2.34399 0
M  V30 5074 H 463.349 -2.07633 -1.52468 0
M  V30 5075 H 463.307 -1.09403 -2.94751 0
M  V30 5076 N 467.08 -0.0183926 -1.57589 0
M  V30 5077 C 468.03 0.975944 -2.06057 0
M  V30 5078 C 469.014 1.29204 -0.958908 0
M  V30 5079 O 470.206 1.27995 -1.22255 0
M  V30 5080 C 467.335 2.26194 -2.58247 0
M  V30 5081 C 466.421 1.97467 -3.75323 0
M  V30 5082 N 466.812 1.38968 -4.86335 0
M  V30 5083 C 465.11 2.27515 -3.83605 0
M  V30 5084 C 465.811 1.27131 -5.67638 0
M  V30 5085 N 464.787 1.76319 -5.14211 0
M  V30 5086 H 468.589 0.518444 -2.89291 0
M  V30 5087 H 466.103 0.18688 -1.61321 0
M  V30 5088 H 468.1 2.98289 -2.91255 0
M  V30 5089 H 466.76 2.7258 -1.76438 0
M  V30 5090 H 467.771 1.06608 -5.06809 0
M  V30 5091 H 464.448 2.76649 -3.12684 0
M  V30 5092 H 465.838 0.819882 -6.66879 0
M  V30 5093 O 468.597 1.61027 0.12348 0
M  V30 5094 H 469.288 1.78369 0.755254 0
M  V30 END ATOM
M  V30 BEGIN BOND
M  V30 END BOND
M  V30 END CTAB
M  END
$$$$
