drugbank_target|P02647 Apolipoprotein A-I (DB01593; DB09130; DB14487; DB14533; DB14548)
 OpenBabel12092120323D

  0  0  0     0  0            999 V3000
M  V30 BEGIN CTAB
M  V30 COUNTS 4337 4377 0 0 0
M  V30 BEGIN ATOM
M  V30 1 H -0.908 1.98254 -0.117106 0
M  V30 2 N 0 1.576 0 0
M  V30 3 C 0.933 2.03868 1.02534 0
M  V30 4 C 1.911 0.928543 1.3348 0
M  V30 5 O 3.095 1.19667 1.45644 0
M  V30 6 C 0.222 2.43627 2.35294 0
M  V30 7 C -0.732 3.65373 2.2001 0
M  V30 8 S 0.101 5.13292 1.52614 0
M  V30 9 C 1.257 5.56322 2.86805 0
M  V30 10 H 1.49 2.90518 0.631377 0
M  V30 11 H -0.977 1.52953 0.210867 0
M  V30 12 H 0.981 2.67203 3.11629 0
M  V30 13 H -0.358 1.57376 2.7183 0
M  V30 14 H -1.165 3.90944 3.18086 0
M  V30 15 H -1.563 3.418 1.51819 0
M  V30 16 H 0.729 5.58782 3.83104 0
M  V30 17 H 1.672 6.56266 2.65933 0
M  V30 18 H 2.08 4.83886 2.90714 0
M  V30 19 N 1.4781 -0.272755 1.55222 0
M  V30 20 C 2.4251 -1.33716 1.88119 0
M  V30 21 C 3.3951 -1.49066 0.73271 0
M  V30 22 O 4.5801 -1.63469 0.984002 0
M  V30 23 C 1.7201 -2.69238 2.15882 0
M  V30 24 C 0.8331 -2.62108 3.43399 0
M  V30 25 C -0.0319 -3.89811 3.60861 0
M  V30 26 C -0.9929 -3.77193 4.8207 0
M  V30 27 N -1.8559 -4.9673 4.96189 0
M  V30 28 H 2.9841 -1.04962 2.78903 0
M  V30 29 H 0.5211 -0.507088 1.38083 0
M  V30 30 H 2.4791 -3.48089 2.29978 0
M  V30 31 H 1.1091 -2.96194 1.28331 0
M  V30 32 H 0.1611 -1.74967 3.37773 0
M  V30 33 H 1.4731 -2.48685 4.32386 0
M  V30 34 H 0.6271 -4.77103 3.74777 0
M  V30 35 H -0.6339 -4.06102 2.7006 0
M  V30 36 H -1.6289 -2.88284 4.68159 0
M  V30 37 H -0.4039 -3.62421 5.74307 0
M  V30 38 H -2.4579 -5.13431 4.08319 0
M  V30 39 H -2.5409 -4.85839 5.79221 0
M  V30 40 H -1.2729 -5.85594 5.1449 0
M  V30 41 N 2.9562 -1.48159 -0.537278 0
M  V30 42 C 3.9192 -1.61665 -1.62472 0
M  V30 43 C 4.9192 -0.490395 -1.5314 0
M  V30 44 O 6.1092 -0.755998 -1.5694 0
M  V30 45 C 3.2412 -1.57997 -3.02076 0
M  V30 46 H 4.4342 -2.58621 -1.51839 0
M  V30 47 H 1.9872 -1.36647 -0.758771 0
M  V30 48 H 2.7222 -0.624913 -3.18222 0
M  V30 49 H 2.5072 -2.39755 -3.10258 0
M  V30 50 H 3.9972 -1.70627 -3.81151 0
M  V30 51 N 4.4343 0.785586 -1.36625 0
M  V30 52 C 5.3973 1.87999 -1.31107 0
M  V30 53 C 6.3973 1.59316 -0.217959 0
M  V30 54 O 7.5873 1.67656 -0.472977 0
M  V30 55 C 4.7193 3.24861 -1.03334 0
M  V30 56 H 5.9123 1.94307 -2.2844 0
M  V30 57 H 3.4653 0.983813 -1.21453 0
M  V30 58 H 4.2003 3.24235 -0.0647432 0
M  V30 59 H 3.9853 3.4707 -1.82441 0
M  V30 60 H 5.4753 4.04929 -1.02088 0
M  V30 61 N 5.9124 1.20967 1.01018 0
M  V30 62 C 7.1584 1.02526 1.74975 0
M  V30 63 C 7.4914 -0.4408 1.89131 0
M  V30 64 O 6.7664 -1.32718 1.42184 0
M  V30 65 C 7.0494 1.71699 3.1653 0
M  V30 66 C 6.9024 3.25791 3.10129 0
M  V30 67 C 8.2214 1.45531 4.15342 0
M  V30 68 H 5.3404 0.373863 0.635134 0
M  V30 69 H 7.9824 1.49071 1.17805 0
M  V30 70 H 6.1324 1.32128 3.65341 0
M  V30 71 H 7.8044 3.74697 2.69072 0
M  V30 72 H 6.0474 3.56363 2.47362 0
M  V30 73 H 6.7184 3.69353 4.10222 0
M  V30 74 H 9.1944 1.79872 3.75213 0
M  V30 75 H 8.0704 1.96453 5.1254 0
M  V30 76 H 8.3314 0.384237 4.40427 0
M  V30 77 N 7.3905 -1.2043 1.01659 0
M  V30 78 C 8.3205 -2.25466 0.607226 0
M  V30 79 C 9.3015 -1.65853 -0.377716 0
M  V30 80 O 10.4865 -1.92409 -0.263149 0
M  V30 81 C 7.6165 -3.47256 -0.0552949 0
M  V30 82 C 6.5705 -4.19462 0.850632 0
M  V30 83 C 5.8965 -5.34673 0.0538859 0
M  V30 84 C 7.1965 -4.75603 2.15868 0
M  V30 85 H 8.8905 -2.59962 1.48526 0
M  V30 86 H 6.4365 -1.2496 0.715605 0
M  V30 87 H 8.3895 -4.19917 -0.353233 0
M  V30 88 H 7.1135 -3.11924 -0.968045 0
M  V30 89 H 5.7725 -3.48667 1.13257 0
M  V30 90 H 5.4205 -4.95585 -0.860514 0
M  V30 91 H 5.1205 -5.83913 0.657192 0
M  V30 92 H 6.6445 -6.10138 -0.237598 0
M  V30 93 H 8.0585 -5.40083 1.92311 0
M  V30 94 H 6.4555 -5.3528 2.71284 0
M  V30 95 H 7.5255 -3.94346 2.82169 0
M  V30 96 N 8.8686 -0.792821 -1.36206 0
M  V30 97 C 10.0966 -0.378825 -2.03402 0
M  V30 98 C 10.5116 1.00586 -1.59774 0
M  V30 99 O 9.8686 1.64574 -0.788764 0
M  V30 100 C 9.9196 -0.43683 -3.58851 0
M  V30 101 O 9.6406 -1.76691 -4.00889 0
M  V30 102 C 11.1416 -0.0138943 -4.43298 0
M  V30 103 H 8.3616 -0.155673 -0.652692 0
M  V30 104 H 10.9056 -1.07261 -1.74113 0
M  V30 105 H 9.0606 0.208575 -3.86838 0
M  V30 106 H 9.4746 -1.72011 -4.95492 0
M  V30 107 H 10.9486 -0.105615 -5.51899 0
M  V30 108 H 11.4256 1.03915 -4.2673 0
M  V30 109 H 12.0316 -0.63192 -4.20579 0
M  V30 110 N 10.3467 1.47872 -0.545128 0
M  V30 111 C 11.2767 2.32661 0.197793 0
M  V30 112 C 12.2577 1.43041 0.920504 0
M  V30 113 O 13.4427 1.71912 0.90333 0
M  V30 114 C 10.5727 3.24569 1.23582 0
M  V30 115 C 9.5267 4.23333 0.630323 0
M  V30 116 C 8.8527 5.0448 1.77211 0
M  V30 117 C 10.1527 5.20704 -0.407974 0
M  V30 118 H 11.8467 2.95024 -0.510045 0
M  V30 119 H 9.3927 1.4187 -0.246731 0
M  V30 120 H 11.3457 3.8272 1.76362 0
M  V30 121 H 10.0697 2.60236 1.97344 0
M  V30 122 H 8.7287 3.6639 0.123922 0
M  V30 123 H 8.3767 4.36561 2.49847 0
M  V30 124 H 8.0767 5.71339 1.37281 0
M  V30 125 H 9.6007 5.65487 2.3034 0
M  V30 126 H 11.0147 5.7329 0.033305 0
M  V30 127 H 9.4117 5.95699 -0.725486 0
M  V30 128 H 10.4817 4.66917 -1.30828 0
M  V30 129 N 11.8248 0.280983 1.55075 0
M  V30 130 C 12.7878 -0.590896 2.21452 0
M  V30 131 C 13.7878 -1.07682 1.19421 0
M  V30 132 O 14.9778 -0.97605 1.44288 0
M  V30 133 C 12.1098 -1.81587 2.88511 0
M  V30 134 H 13.3028 -0.0112554 2.99898 0
M  V30 135 H 10.8558 0.0316438 1.56268 0
M  V30 136 H 11.5908 -2.43587 2.14093 0
M  V30 137 H 11.3758 -1.4753 3.63287 0
M  V30 138 H 12.8658 -2.43575 3.39206 0
M  V30 139 N 13.3029 -1.57598 0.00835791 0
M  V30 140 C 14.5489 -1.91211 -0.675732 0
M  V30 141 C 14.8819 -0.883139 -1.72958 0
M  V30 142 O 14.1569 0.097016 -1.94258 0
M  V30 143 C 14.4399 -3.35379 -1.31123 0
M  V30 144 C 14.2929 -4.48999 -0.268356 0
M  V30 145 C 15.6119 -3.7912 -2.23508 0
M  V30 146 H 12.7309 -0.695374 -0.244179 0
M  V30 147 H 15.3729 -1.89901 0.0613655 0
M  V30 148 H 13.5229 -3.36626 -1.93946 0
M  V30 149 H 15.1949 -4.59887 0.360844 0
M  V30 150 H 13.4379 -4.31873 0.408482 0
M  V30 151 H 14.1089 -5.46851 -0.752218 0
M  V30 152 H 16.5849 -3.79477 -1.70693 0
M  V30 153 H 15.4609 -4.80729 -2.64936 0
M  V30 154 H 15.7219 -3.13455 -3.11766 0
M  V30 155 N 14.781 0.264519 -1.55364 0
M  V30 156 C 15.711 1.33121 -1.91836 0
M  V30 157 C 16.692 1.51101 -0.781192 0
M  V30 158 O 17.877 1.64003 -1.04003 0
M  V30 159 C 15.007 2.68921 -2.19769 0
M  V30 160 C 13.961 2.65661 -3.35571 0
M  V30 161 C 13.287 4.05093 -3.49004 0
M  V30 162 C 14.587 2.24187 -4.71739 0
M  V30 163 H 16.281 1.02844 -2.81182 0
M  V30 164 H 13.827 0.493286 -1.35287 0
M  V30 165 H 15.78 3.43663 -2.43872 0
M  V30 166 H 14.504 3.00799 -1.27231 0
M  V30 167 H 13.163 1.93377 -3.1145 0
M  V30 168 H 12.811 4.34206 -2.53917 0
M  V30 169 H 12.511 4.03804 -4.26868 0
M  V30 170 H 14.035 4.81561 -3.75408 0
M  V30 171 H 15.449 2.88654 -4.9533 0
M  V30 172 H 13.846 2.34044 -5.52579 0
M  V30 173 H 14.916 1.19327 -4.69988 0
M  V30 174 N 16.2591 1.48442 0.529413 0
M  V30 175 C 17.5061 1.56488 1.28521 0
M  V30 176 C 17.8341 0.239042 1.93025 0
M  V30 177 O 17.0891 -0.770713 1.79885 0
M  V30 178 C 17.3881 2.6523 2.39558 0
M  V30 179 C 17.0541 4.07648 1.92702 0
M  V30 180 C 15.7161 4.46411 1.79641 0
M  V30 181 C 18.0681 4.96896 1.573 0
M  V30 182 C 15.3961 5.72226 1.29514 0
M  V30 183 C 17.7481 6.23202 1.08636 0
M  V30 184 C 16.4121 6.60821 0.941919 0
M  V30 185 H 15.6821 0.572631 0.470292 0
M  V30 186 H 18.3291 1.82161 0.59072 0
M  V30 187 H 16.6341 2.33419 3.14679 0
M  V30 188 H 18.3311 2.68671 2.97686 0
M  V30 189 H 14.9211 3.77036 2.03819 0
M  V30 190 H 19.1051 4.67626 1.66251 0
M  V30 191 H 14.3611 6.00097 1.17019 0
M  V30 192 H 18.5351 6.91753 0.803136 0
M  V30 193 H 16.1621 7.58198 0.5513 0
M  V30 194 N 17.7372 -0.778329 1.37039 0
M  V30 195 C 18.6672 -1.90546 1.34962 0
M  V30 196 C 19.6482 -1.68681 0.219274 0
M  V30 197 O 20.8332 -1.89634 0.418624 0
M  V30 198 C 17.9632 -3.27734 1.14925 0
M  V30 199 C 16.9172 -3.64147 2.24902 0
M  V30 200 C 16.2432 -4.99806 1.89996 0
M  V30 201 C 17.5432 -3.71579 3.67051 0
M  V30 202 H 19.2372 -1.92541 2.29277 0
M  V30 203 H 16.7832 -0.924948 1.10366 0
M  V30 204 H 18.7362 -4.06215 1.12104 0
M  V30 205 H 17.4602 -3.26154 0.170631 0
M  V30 206 H 16.1192 -2.8797 2.26868 0
M  V30 207 H 15.7672 -4.94759 0.906796 0
M  V30 208 H 15.4672 -5.25139 2.63634 0
M  V30 209 H 16.9912 -5.80694 1.88749 0
M  V30 210 H 18.4052 -4.40227 3.67251 0
M  V30 211 H 16.8022 -4.08405 4.39688 0
M  V30 212 H 17.8722 -2.72404 4.01154 0
M  V30 213 N 19.2153 -1.21501 -1.00376 0
M  V30 214 C 20.4433 -1.059 -1.77744 0
M  V30 215 C 20.8583 0.391125 -1.84704 0
M  V30 216 O 20.2153 1.27133 -1.30933 0
M  V30 217 C 20.2663 -1.65111 -3.21591 0
M  V30 218 O 19.9873 -3.0445 -3.15027 0
M  V30 219 C 21.4883 -1.54637 -4.15454 0
M  V30 220 H 18.7083 -0.371825 -0.558558 0
M  V30 221 H 21.2523 -1.60865 -1.26264 0
M  V30 222 H 19.4073 -1.14235 -3.70175 0
M  V30 223 H 19.8213 -3.3278 -4.0541 0
M  V30 224 H 21.2953 -2.00808 -5.14179 0
M  V30 225 H 21.7723 -0.501022 -4.36333 0
M  V30 226 H 22.3783 -2.04767 -3.72761 0
M  V30 227 N 20.6934 1.19889 -1.02296 0
M  V30 228 C 21.9414 1.89046 -0.714558 0
M  V30 229 C 22.2624 1.79636 0.758681 0
M  V30 230 O 21.5324 1.20292 1.54618 0
M  V30 231 H 20.1124 0.699802 -0.261317 0
M  V30 232 H 22.7744 1.45574 -1.29592 0
M  V30 233 H 21.8704 2.95524 -1.0036 0
M  V30 234 N 22.1715 0.800033 1.35784 0
M  V30 235 C 23.3965 0.388511 2.03729 0
M  V30 236 C 23.8215 -0.990481 1.5991 0
M  V30 237 O 23.1795 -1.64013 0.772612 0
M  V30 238 C 23.2275 0.4726 3.5749 0
M  V30 239 O 22.3315 -0.51646 4.09153 0
M  V30 240 H 21.6725 0.163271 0.643614 0
M  V30 241 H 24.2025 1.0841 1.73518 0
M  V30 242 H 24.2125 0.34003 4.06581 0
M  V30 243 H 22.8875 1.47848 3.88734 0
M  V30 244 H 21.4645 -0.344673 3.71304 0
M  V30 245 N 23.6496 -1.47581 0.552962 0
M  V30 246 C 24.5816 -2.27997 -0.234533 0
M  V30 247 C 25.5946 -1.36753 -0.883321 0
M  V30 248 O 26.7836 -1.61612 -0.757889 0
M  V30 249 C 23.8836 -3.10879 -1.34935 0
M  V30 250 C 23.0566 -4.30056 -0.798158 0
M  V30 251 C 22.1156 -4.94567 -1.79694 0
M  V30 252 O 21.1416 -5.53087 -1.34474 0
M  V30 253 N 22.3436 -4.88878 -3.13015 0
M  V30 254 H 25.1086 -2.96222 0.455255 0
M  V30 255 H 22.6696 -1.57163 0.388761 0
M  V30 256 H 24.6616 -3.50903 -2.01616 0
M  V30 257 H 23.2316 -2.44924 -1.94244 0
M  V30 258 H 22.4516 -3.94174 0.0453079 0
M  V30 259 H 23.7396 -5.07152 -0.409173 0
M  V30 260 H 23.1376 -4.42526 -3.52402 0
M  V30 261 H 21.6946 -5.32934 -3.75266 0
M  V30 262 N 25.1277 -0.289203 -1.54924 0
M  V30 263 C 26.0907 0.579144 -2.21762 0
M  V30 264 C 27.0907 1.07047 -1.1999 0
M  V30 265 O 28.2807 0.968384 -1.44803 0
M  V30 266 C 25.4127 1.80055 -2.8947 0
M  V30 267 H 26.6057 -0.00464908 -2.999 0
M  V30 268 H 24.1587 -0.0399306 -1.56249 0
M  V30 269 H 24.8937 2.42449 -2.15381 0
M  V30 270 H 24.6787 1.45602 -3.64064 0
M  V30 271 H 26.1687 2.41773 -3.40493 0
M  V30 272 N 26.6058 1.57591 -0.0167156 0
M  V30 273 C 28.0218 1.55946 0.339557 0
M  V30 274 C 28.2218 1.02109 1.73713 0
M  V30 275 O 27.2778 0.662303 2.43659 0
M  V30 276 C 28.5908 3.00037 0.199499 0
M  V30 277 C 30.1388 3.11805 0.273193 0
M  V30 278 C 30.6138 4.57713 0.162068 0
M  V30 279 N 32.1048 4.6268 0.219444 0
M  V30 280 C 32.8398 5.73185 0.157054 0
M  V30 281 N 32.3358 6.92786 0.0442936 0
M  V30 282 N 34.1288 5.61707 0.21014 0
M  V30 283 H 26.2798 1.90921 -0.930758 0
M  V30 284 H 28.5428 0.877674 -0.358319 0
M  V30 285 H 28.2488 3.4333 -0.76273 0
M  V30 286 H 28.1228 3.64387 0.974786 0
M  V30 287 H 30.5098 2.68433 1.22587 0
M  V30 288 H 30.5908 2.50201 -0.532256 0
M  V30 289 H 30.2348 5.01763 -0.78714 0
M  V30 290 H 30.1648 5.17283 0.986222 0
M  V30 291 H 32.6558 3.76649 0.307246 0
M  V30 292 H 32.9688 7.728 0.00304069 0
M  V30 293 H 31.3138 6.94999 0.00968457 0
M  V30 294 H 34.5048 4.6716 0.296546 0
M  V30 295 H 34.6778 6.47807 0.158054 0
M  V30 296 N 28.0839 -0.256276 1.55502 0
M  V30 297 C 29.0339 -1.31981 1.85916 0
M  V30 298 C 30.0179 -1.43927 0.719296 0
M  V30 299 O 31.2099 -1.47326 0.981019 0
M  V30 300 C 28.3389 -2.67703 2.14918 0
M  V30 301 C 27.4249 -2.59801 3.35208 0
M  V30 302 N 27.8159 -2.21524 4.54709 0
M  V30 303 C 26.1139 -2.90832 3.38131 0
M  V30 304 C 26.8149 -2.24024 5.36832 0
M  V30 305 N 25.7909 -2.63158 4.75656 0
M  V30 306 H 29.5929 -1.01423 2.75845 0
M  V30 307 H 27.1069 -0.464911 1.55603 0
M  V30 308 H 29.1039 -3.44445 2.34869 0
M  V30 309 H 27.7639 -2.99137 1.26282 0
M  V30 310 H 28.7749 -1.93223 4.80505 0
M  V30 311 H 25.4519 -3.26867 2.59739 0
M  V30 312 H 26.8419 -1.9685 6.42417 0
M  V30 313 N 29.562 -1.4872 -0.521534 0
M  V30 314 C 30.809 -1.57168 -1.27689 0
M  V30 315 C 31.137 -0.249275 -1.92896 0
M  V30 316 O 30.392 0.761162 -1.80291 0
M  V30 317 C 30.691 -2.66497 -2.38148 0
M  V30 318 C 30.357 -4.08664 -1.90538 0
M  V30 319 C 29.019 -4.47357 -1.77271 0
M  V30 320 C 31.371 -4.97724 -1.54663 0
M  V30 321 C 28.699 -5.72905 -1.26478 0
M  V30 322 C 31.051 -6.2377 -1.05329 0
M  V30 323 C 29.715 -6.61311 -0.906861 0
M  V30 324 H 28.985 -0.575117 -0.467249 0
M  V30 325 H 31.632 -1.82472 -0.581051 0
M  V30 326 H 29.937 -2.35085 -3.13437 0
M  V30 327 H 31.634 -2.70246 -2.96257 0
M  V30 328 H 28.224 -3.78111 -2.01816 0
M  V30 329 H 32.408 -4.68501 -1.63768 0
M  V30 330 H 27.664 -6.00709 -1.13835 0
M  V30 331 H 31.838 -6.9217 -0.76644 0
M  V30 332 H 29.465 -7.5848 -0.511083 0
M  V30 333 N 31.0401 0.771051 -1.3745 0
M  V30 334 C 32.2861 1.53109 -1.339 0
M  V30 335 C 32.6411 1.9225 0.0758401 0
M  V30 336 O 31.9341 1.61264 1.03463 0
M  V30 337 C 32.1281 2.80676 -2.2126 0
M  V30 338 C 31.9571 2.54003 -3.71096 0
M  V30 339 C 30.7271 2.48097 -4.402 0
M  V30 340 C 32.9251 2.21953 -4.63941 0
M  V30 341 N 30.9071 2.13515 -5.75573 0
M  V30 342 C 32.2781 1.97516 -5.87697 0
M  V30 343 C 34.3331 2.08114 -4.5232 0
M  V30 344 C 33.0361 1.60638 -7.01133 0
M  V30 345 C 35.0621 1.72636 -5.65642 0
M  V30 346 C 34.4241 1.4906 -6.88448 0
M  V30 347 H 30.5231 0.56055 -0.54526 0
M  V30 348 H 33.1071 0.899472 -1.72678 0
M  V30 349 H 31.2781 3.41674 -1.84698 0
M  V30 350 H 33.0101 3.46578 -2.08963 0
M  V30 351 H 29.7651 2.63974 -3.93211 0
M  V30 352 H 30.1891 1.98919 -6.47117 0
M  V30 353 H 34.8311 2.25024 -3.57944 0
M  V30 354 H 32.5491 1.42467 -7.95443 0
M  V30 355 H 36.1351 1.62586 -5.58621 0
M  V30 356 H 35.0151 1.22014 -7.7465 0
M  V30 357 N 32.5182 1.22032 0.997298 0
M  V30 358 C 33.4502 0.944263 2.08845 0
M  V30 359 C 34.4632 -0.0754663 1.62625 0
M  V30 360 O 35.6522 0.157994 1.77799 0
M  V30 361 C 32.7522 0.397723 3.36558 0
M  V30 362 C 31.9252 1.47362 4.11829 0
M  V30 363 C 30.9842 0.934951 5.17827 0
M  V30 364 O 30.0102 1.62016 5.45655 0
M  V30 365 N 31.2122 -0.245895 5.79979 0
M  V30 366 H 33.9772 1.88363 2.33109 0
M  V30 367 H 31.5382 1.12661 1.16272 0
M  V30 368 H 33.5302 0.0227771 4.04694 0
M  V30 369 H 32.1002 -0.446646 3.09393 0
M  V30 370 H 31.3202 2.02208 3.38386 0
M  V30 371 H 32.6082 2.19764 4.58891 0
M  V30 372 H 32.0062 -0.819475 5.59733 0
M  V30 373 H 30.5632 -0.562272 6.4937 0
M  V30 374 N 33.9963 -1.19345 1.0293 0
M  V30 375 C 34.9283 -2.22036 0.56857 0
M  V30 376 C 35.9413 -1.58865 -0.355779 0
M  V30 377 O 37.1303 -1.77851 -0.152103 0
M  V30 378 C 34.2303 -3.38363 -0.190752 0
M  V30 379 C 33.4033 -4.31118 0.738643 0
M  V30 380 C 32.4623 -5.26194 0.0246497 0
M  V30 381 O 31.4883 -5.65461 0.651354 0
M  V30 382 N 32.6903 -5.66971 -1.24594 0
M  V30 383 H 35.4553 -2.6219 1.45177 0
M  V30 384 H 33.0163 -1.34015 0.908381 0
M  V30 385 H 35.0083 -3.98981 -0.677961 0
M  V30 386 H 33.5783 -2.96994 -0.975366 0
M  V30 387 H 32.7983 -3.68276 1.40593 0
M  V30 388 H 34.0863 -4.90001 1.37029 0
M  V30 389 H 33.4843 -5.37104 -1.77583 0
M  V30 390 H 32.0413 -6.2984 -1.67764 0
M  V30 391 N 35.4744 -0.807222 -1.35358 0
M  V30 392 C 36.7514 -0.311126 -1.9311 0
M  V30 393 C 37.1314 1.19937 -1.73719 0
M  V30 394 O 36.4794 1.99918 -1.10657 0
M  V30 395 C 36.6894 -0.723226 -3.41424 0
M  V30 396 C 38.0374 -0.713078 -4.18569 0
M  V30 397 O 39.0614 -0.664811 -3.49941 0
M  V30 398 O 37.9204 -0.772022 -5.41019 0
M  V30 399 H 35.0144 -0.081526 -0.822972 0
M  V30 400 H 37.5604 -0.890962 -1.4443 0
M  V30 401 H 36.3324 -1.76426 -3.4927 0
M  V30 402 H 35.9554 -0.118232 -3.97424 0
M  V30 403 N 36.9525 1.47285 -0.560781 0
M  V30 404 C 37.8625 2.33846 0.187954 0
M  V30 405 C 38.8785 1.48412 0.908293 0
M  V30 406 O 40.0545 1.81332 0.876388 0
M  V30 407 C 37.1195 3.25178 1.2025 0
M  V30 408 C 36.1805 4.26504 0.489208 0
M  V30 409 C 35.4135 5.13472 1.45542 0
M  V30 410 O 35.6365 5.02959 2.6905 0
M  V30 411 O 34.5705 5.93902 0.977963 0
M  V30 412 H 38.3965 2.99177 -0.522177 0
M  V30 413 H 35.9815 1.45903 -0.321364 0
M  V30 414 H 37.8635 3.81584 1.78805 0
M  V30 415 H 36.5385 2.6247 1.89449 0
M  V30 416 H 35.4455 3.73847 -0.137627 0
M  V30 417 H 36.7785 4.91935 -0.161399 0
M  V30 418 N 38.4306 0.297415 1.54768 0
M  V30 419 C 39.8416 -0.195947 1.85669 0
M  V30 420 C 40.1926 -1.53707 1.21937 0
M  V30 421 O 39.3176 -2.10164 0.515754 0
M  V30 422 C 39.9126 -0.362318 3.36857 0
M  V30 423 C 38.4716 -0.799901 3.67802 0
M  V30 424 C 37.6186 0.0938578 2.77141 0
M  V30 425 H 40.5696 0.518538 1.4999 0
M  V30 426 H 40.5906 -1.19745 3.61167 0
M  V30 427 H 40.1026 0.613921 3.83214 0
M  V30 428 H 38.2036 -1.78682 3.26961 0
M  V30 429 H 38.3166 -0.621773 4.75048 0
M  V30 430 H 36.6806 -0.426254 2.51108 0
M  V30 431 H 37.4636 1.06639 3.26318 0
M  V30 432 N 39.9087 -1.5758 0.0250728 0
M  V30 433 C 41.3197 -1.79476 -0.514323 0
M  V30 434 C 41.6707 -0.934956 -1.72491 0
M  V30 435 O 40.7957 -0.144245 -2.15919 0
M  V30 436 C 41.3907 -3.25503 -0.939842 0
M  V30 437 C 39.9497 -3.48408 -1.42438 0
M  V30 438 C 39.0967 -2.74583 -0.387201 0
M  V30 439 H 42.0477 -1.567 0.25113 0
M  V30 440 H 42.0687 -3.34992 -1.80445 0
M  V30 441 H 41.5807 -3.88056 -0.0585628 0
M  V30 442 H 39.6817 -2.91103 -2.32572 0
M  V30 443 H 39.7947 -4.57119 -1.43455 0
M  V30 444 H 38.1587 -2.39942 -0.854409 0
M  V30 445 H 38.9417 -3.39849 0.485543 0
M  V30 446 N 41.3868 0.248026 -1.55636 0
M  V30 447 C 42.3188 1.32993 -1.8667 0
M  V30 448 C 43.3318 1.44345 -0.752877 0
M  V30 449 O 44.5208 1.45715 -1.03098 0
M  V30 450 C 41.6208 2.70863 -2.03682 0
M  V30 451 C 40.7938 2.81792 -3.34532 0
M  V30 452 C 39.8528 4.005 -3.41301 0
M  V30 453 O 38.8788 3.9008 -4.14519 0
M  V30 454 N 40.0808 5.13618 -2.70512 0
M  V30 455 H 42.8458 1.06707 -2.8006 0
M  V30 456 H 40.4068 0.438129 -1.55859 0
M  V30 457 H 42.3988 3.48612 -2.05553 0
M  V30 458 H 40.9688 2.89862 -1.17041 0
M  V30 459 H 40.1888 1.90729 -3.44987 0
M  V30 460 H 41.4768 2.86043 -4.20781 0
M  V30 461 H 40.8748 5.24975 -2.10755 0
M  V30 462 H 39.4318 5.89505 -2.78077 0
M  V30 463 N 42.8649 1.48995 0.513639 0
M  V30 464 C 44.0899 1.61792 1.29762 0
M  V30 465 C 44.5149 0.284475 1.85936 0
M  V30 466 O 43.8729 -0.746185 1.65232 0
M  V30 467 C 43.9209 2.67993 2.41272 0
M  V30 468 O 43.0249 2.26287 3.44772 0
M  V30 469 H 42.3659 0.541963 0.38363 0
M  V30 470 H 44.8959 1.95097 0.616307 0
M  V30 471 H 44.9059 2.89772 2.87221 0
M  V30 472 H 43.5809 3.64791 1.9975 0
M  V30 473 H 42.1579 2.14788 3.04829 0
M  V30 474 N 44.343 -0.763751 1.37857 0
M  V30 475 C 45.754 -1.3405 1.29952 0
M  V30 476 C 46.105 -1.96138 -0.0492898 0
M  V30 477 O 45.23 -1.94372 -0.951239 0
M  V30 478 C 45.825 -2.43729 2.35333 0
M  V30 479 C 44.384 -2.97151 2.31037 0
M  V30 480 C 43.531 -1.70438 2.18738 0
M  V30 481 H 46.482 -0.563396 1.48363 0
M  V30 482 H 46.503 -3.23412 2.00462 0
M  V30 483 H 46.015 -1.9851 3.33489 0
M  V30 484 H 44.116 -3.46724 1.3643 0
M  V30 485 H 44.229 -3.52221 3.24772 0
M  V30 486 H 42.593 -1.93673 1.65418 0
M  V30 487 H 43.376 -1.27312 3.18821 0
M  V30 488 N 45.8211 -1.22559 -0.990812 0
M  V30 489 C 47.0671 -1.06303 -1.73411 0
M  V30 490 C 47.4221 0.397442 -1.8825 0
M  V30 491 O 46.7151 1.29062 -1.41611 0
M  V30 492 C 46.9091 -1.71011 -3.13831 0
M  V30 493 C 46.7381 -3.232 -3.12685 0
M  V30 494 C 45.5081 -3.92314 -3.18461 0
M  V30 495 C 47.7061 -4.20107 -2.96673 0
M  V30 496 N 45.6881 -5.31571 -3.07091 0
M  V30 497 C 47.0591 -5.46208 -2.93354 0
M  V30 498 C 49.1141 -4.10973 -2.8108 0
M  V30 499 C 47.8171 -6.64225 -2.76039 0
M  V30 500 C 49.8431 -5.28642 -2.65126 0
M  V30 501 C 49.2051 -6.53663 -2.62496 0
M  V30 502 H 45.3041 -0.443441 -0.644115 0
M  V30 503 H 47.8881 -1.55131 -1.17654 0
M  V30 504 H 46.0591 -1.2473 -3.67827 0
M  V30 505 H 47.7911 -1.47828 -3.76735 0
M  V30 506 H 44.5461 -3.43326 -3.26227 0
M  V30 507 H 44.9701 -6.0455 -3.0471 0
M  V30 508 H 49.6121 -3.15098 -2.8191 0
M  V30 509 H 47.3301 -7.60246 -2.73954 0
M  V30 510 H 50.9161 -5.23407 -2.54039 0
M  V30 511 H 49.7961 -7.43182 -2.50302 0
M  V30 512 N 47.2992 1.18797 -1.03562 0
M  V30 513 C 48.5762 1.84469 -0.650434 0
M  V30 514 C 48.9562 1.92319 0.870433 0
M  V30 515 O 48.3042 1.44528 1.76986 0
M  V30 516 C 48.5142 3.2306 -1.32036 0
M  V30 517 C 49.8622 3.9915 -1.44792 0
M  V30 518 O 50.8862 3.32481 -1.27806 0
M  V30 519 O 49.7452 5.18587 -1.72423 0
M  V30 520 H 46.8392 0.795251 -0.226946 0
M  V30 521 H 49.3852 1.26231 -1.13419 0
M  V30 522 H 48.1572 3.1222 -2.3587 0
M  V30 523 H 47.7802 3.88949 -0.8249 0
M  V30 524 N 48.7773 0.814389 1.34928 0
M  V30 525 C 50.1933 0.499084 1.51596 0
M  V30 526 C 50.3933 -0.978319 1.76157 0
M  V30 527 O 49.4493 -1.76309 1.80752 0
M  V30 528 C 50.7623 1.35121 2.68631 0
M  V30 529 C 52.3103 1.34746 2.82511 0
M  V30 530 C 52.7853 2.18388 4.0258 0
M  V30 531 N 54.2763 2.15966 4.09772 0
M  V30 532 C 55.0113 2.77437 5.01813 0
M  V30 533 N 54.5073 3.47866 5.99134 0
M  V30 534 N 56.3003 2.67037 4.94619 0
M  V30 535 H 48.4513 1.7711 1.17243 0
M  V30 536 H 50.7143 0.754256 0.574284 0
M  V30 537 H 50.4203 2.40001 2.57085 0
M  V30 538 H 50.2943 1.00991 3.63429 0
M  V30 539 H 52.6813 0.30648 2.93504 0
M  V30 540 H 52.7623 1.72869 1.88547 0
M  V30 541 H 52.4063 3.2253 3.92347 0
M  V30 542 H 52.3363 1.77621 4.9574 0
M  V30 543 H 54.8273 1.64729 3.40107 0
M  V30 544 H 55.1403 3.92038 6.65977 0
M  V30 545 H 53.4853 3.51972 5.99284 0
M  V30 546 H 56.6763 2.11597 4.17546 0
M  V30 547 H 56.8493 3.15232 5.66156 0
M  V30 548 N 50.2554 -1.46986 0.568584 0
M  V30 549 C 51.5014 -2.02741 0.0488709 0
M  V30 550 C 51.8344 -1.44077 -1.30214 0
M  V30 551 O 51.1094 -0.600552 -1.84996 0
M  V30 552 C 51.3924 -3.60086 -0.032047 0
M  V30 553 C 51.2454 -4.29162 1.34686 0
M  V30 554 C 52.5644 -4.33838 -0.739798 0
M  V30 555 H 49.6834 -0.736749 0.0192338 0
M  V30 556 H 52.3254 -1.75289 0.733065 0
M  V30 557 H 50.4754 -3.83606 -0.61473 0
M  V30 558 H 52.1474 -4.16948 1.97362 0
M  V30 559 H 50.3904 -3.89073 1.91846 0
M  V30 560 H 51.0614 -5.37826 1.24285 0
M  V30 561 H 53.5374 -4.15378 -0.244939 0
M  V30 562 H 52.4134 -5.43537 -0.765406 0
M  V30 563 H 52.6744 -4.03875 -1.79827 0
M  V30 564 N 51.7335 -0.305618 -1.54608 0
M  V30 565 C 52.6805 0.568421 -2.23691 0
M  V30 566 C 53.6505 1.12592 -1.22116 0
M  V30 567 O 54.8355 1.16959 -1.50749 0
M  V30 568 C 51.9755 1.7322 -2.98477 0
M  V30 569 C 51.0885 1.20566 -4.14835 0
M  V30 570 C 50.2235 2.33368 -4.77193 0
M  V30 571 C 49.2625 1.7787 -5.85686 0
M  V30 572 N 48.3995 2.84263 -6.4198 0
M  V30 573 H 53.2395 -0.0272867 -2.97988 0
M  V30 574 H 50.7765 -0.0252363 -1.47078 0
M  V30 575 H 52.7345 2.41675 -3.40072 0
M  V30 576 H 51.3645 2.29947 -2.26548 0
M  V30 577 H 50.4165 0.413223 -3.78149 0
M  V30 578 H 51.7285 0.759417 -4.92985 0
M  V30 579 H 50.8825 3.09761 -5.21664 0
M  V30 580 H 49.6215 2.8132 -3.98385 0
M  V30 581 H 48.6265 0.99968 -5.40635 0
M  V30 582 H 49.8515 1.30816 -6.66381 0
M  V30 583 H 47.7975 3.31541 -5.66053 0
M  V30 584 H 47.7145 2.44149 -7.15491 0
M  V30 585 H 48.9825 3.6054 -6.91109 0
M  V30 586 N 53.2116 1.57565 -0.0334293 0
M  V30 587 C 54.4886 1.83282 0.683163 0
M  V30 588 C 54.8686 0.91823 1.90084 0
M  V30 589 O 54.2166 -0.025113 2.28486 0
M  V30 590 C 54.4266 3.32599 1.0573 0
M  V30 591 C 55.7746 3.99179 1.44711 0
M  V30 592 O 56.7986 3.3712 1.15015 0
M  V30 593 O 55.6576 5.08565 2.0006 0
M  V30 594 H 52.7516 0.755869 0.335546 0
M  V30 595 H 55.2976 1.69589 -0.0614402 0
M  V30 596 H 54.0696 3.90834 0.190828 0
M  V30 597 H 53.6926 3.51415 1.85993 0
M  V30 598 N 54.6897 -0.239769 1.55765 0
M  V30 599 C 55.6197 -1.30052 1.9393 0
M  V30 600 C 56.6007 -1.49839 0.805132 0
M  V30 601 O 57.7857 -1.62328 1.06599 0
M  V30 602 C 54.9157 -2.65391 2.2402 0
M  V30 603 C 53.8697 -2.60289 3.39755 0
M  V30 604 C 53.1957 -3.99489 3.55405 0
M  V30 605 C 54.4957 -2.16654 4.75246 0
M  V30 606 H 56.1897 -0.983573 2.82783 0
M  V30 607 H 53.7357 -0.471701 1.36055 0
M  V30 608 H 55.6887 -3.3974 2.49308 0
M  V30 609 H 54.4127 -2.98736 1.32 0
M  V30 610 H 53.0717 -1.88398 3.14487 0
M  V30 611 H 52.7197 -4.30112 2.60793 0
M  V30 612 H 52.4197 -3.96962 4.33238 0
M  V30 613 H 53.9437 -4.75528 3.83022 0
M  V30 614 H 55.3577 -2.80737 4.99859 0
M  V30 615 H 53.7547 -2.25223 5.56232 0
M  V30 616 H 54.8247 -1.11835 4.71827 0
M  V30 617 N 56.1678 -1.49265 -0.50573 0
M  V30 618 C 57.1308 -1.65075 -1.59006 0
M  V30 619 C 58.1308 -0.522768 -1.52065 0
M  V30 620 O 59.3208 -0.789117 -1.55302 0
M  V30 621 C 56.4528 -1.64369 -2.98656 0
M  V30 622 H 57.6458 -2.61784 -1.46319 0
M  V30 623 H 55.1988 -1.38226 -0.729616 0
M  V30 624 H 55.9338 -0.692272 -3.16825 0
M  V30 625 H 55.7188 -2.46282 -3.05103 0
M  V30 626 H 57.2088 -1.78674 -3.77446 0
M  V30 627 N 57.6459 0.756429 -1.3826 0
M  V30 628 C 58.8739 1.54565 -1.3754 0
M  V30 629 C 59.2889 1.88767 0.0355331 0
M  V30 630 O 58.6459 1.52572 1.0014 0
M  V30 631 C 58.6969 2.84654 -2.22833 0
M  V30 632 O 58.4179 2.51912 -3.5843 0
M  V30 633 C 59.9189 3.78807 -2.30261 0
M  V30 634 H 57.1389 0.478353 -0.470553 0
M  V30 635 H 59.6829 0.936381 -1.81803 0
M  V30 636 H 57.8379 3.41965 -1.8204 0
M  V30 637 H 58.2519 3.35325 -4.03308 0
M  V30 638 H 59.7259 4.67045 -2.94233 0
M  V30 639 H 60.2029 4.19038 -1.31545 0
M  V30 640 H 60.8089 3.2742 -2.71433 0
M  V30 641 N 59.124 1.23083 0.984299 0
M  V30 642 C 60.37 1.06214 1.72761 0
M  V30 643 C 60.703 -0.400584 1.90024 0
M  V30 644 O 59.978 -1.29672 1.44967 0
M  V30 645 C 60.261 1.78375 3.12817 0
M  V30 646 C 60.114 3.32296 3.03149 0
M  V30 647 C 61.433 1.54309 4.12161 0
M  V30 648 H 58.552 0.387251 0.627061 0
M  V30 649 H 61.194 1.51536 1.14616 0
M  V30 650 H 59.344 1.39848 3.62457 0
M  V30 651 H 61.016 3.8032 2.61064 0
M  V30 652 H 59.259 3.6153 2.39747 0
M  V30 653 H 59.93 3.77972 4.02295 0
M  V30 654 H 62.406 1.87791 3.71314 0
M  V30 655 H 61.282 2.07281 5.08258 0
M  V30 656 H 61.543 0.477572 4.39513 0
M  V30 657 N 60.6021 -1.18246 1.0419 0
M  V30 658 C 61.8321 -1.91916 0.764961 0
M  V30 659 C 62.2401 -1.76485 -0.681898 0
M  V30 660 O 61.5831 -1.09275 -1.47664 0
M  V30 661 C 61.6451 -3.4373 1.05309 0
M  V30 662 C 61.3091 -3.8294 2.4941 0
M  V30 663 C 62.3061 -3.86621 3.47592 0
M  V30 664 C 59.9911 -4.142 2.84155 0
M  V30 665 C 61.9851 -4.21013 4.78568 0
M  V30 666 C 59.6721 -4.48262 4.15337 0
M  V30 667 C 60.6701 -4.51645 5.12353 0
M  V30 668 O 60.3581 -4.84911 6.41183 0
M  V30 669 H 60.0901 -0.61606 0.278292 0
M  V30 670 H 62.6441 -1.50947 1.39299 0
M  V30 671 H 60.8741 -3.84946 0.367933 0
M  V30 672 H 62.5631 -3.9865 0.763752 0
M  V30 673 H 63.3291 -3.62607 3.22089 0
M  V30 674 H 59.2081 -4.10743 2.09311 0
M  V30 675 H 62.7521 -4.23568 5.54289 0
M  V30 676 H 58.6491 -4.71737 4.40607 0
M  V30 677 H 59.4171 -5.02809 6.45852 0
M  V30 678 N 62.0802 -0.821533 -1.34494 0
M  V30 679 C 63.3262 -0.409552 -1.98622 0
M  V30 680 C 63.6592 1.0244 -1.64984 0
M  V30 681 O 62.9342 1.71325 -0.920758 0
M  V30 682 C 63.2172 -0.610458 -3.54888 0
M  V30 683 C 63.0702 -2.09043 -3.98273 0
M  V30 684 C 64.3892 -0.0455379 -4.40076 0
M  V30 685 H 61.5082 -0.15028 -0.721516 0
M  V30 686 H 64.1502 -1.03384 -1.59411 0
M  V30 687 H 62.3002 -0.079044 -3.8842 0
M  V30 688 H 63.9722 -2.68537 -3.75081 0
M  V30 689 H 62.2152 -2.58139 -3.48635 0
M  V30 690 H 62.8862 -2.18182 -5.07051 0
M  V30 691 H 65.3622 -0.499557 -4.1309 0
M  V30 692 H 64.2382 -0.215922 -5.48475 0
M  V30 693 H 64.4992 1.04939 -4.29465 0
M  V30 694 N 63.5583 1.46682 -0.576371 0
M  V30 695 C 64.8353 1.95599 0.00703437 0
M  V30 696 C 65.2153 1.51904 1.46589 0
M  V30 697 O 64.5633 0.766755 2.15251 0
M  V30 698 C 64.7733 3.4864 -0.158404 0
M  V30 699 C 66.1213 4.24594 -0.0229439 0
M  V30 700 O 67.1453 3.56094 -0.0869173 0
M  V30 701 O 66.0043 5.46373 0.118015 0
M  V30 702 H 63.0983 0.825275 0.053384 0
M  V30 703 H 65.6443 1.56996 -0.644244 0
M  V30 704 H 64.4163 3.7331 -1.17282 0
M  V30 705 H 64.0393 3.94057 0.5296 0
M  V30 706 N 65.0364 0.313813 1.54444 0
M  V30 707 C 66.2824 -0.292108 2.00685 0
M  V30 708 C 66.6154 -1.52548 1.20177 0
M  V30 709 O 65.8904 -1.92452 0.281531 0
M  V30 710 C 66.1734 -0.635968 3.5444 0
M  V30 711 C 66.0264 0.607437 4.4568 0
M  V30 712 C 67.3454 -1.45747 4.15266 0
M  V30 713 H 64.4644 -0.104697 0.729526 0
M  V30 714 H 67.1064 0.428457 1.85106 0
M  V30 715 H 65.2564 -1.24986 3.67846 0
M  V30 716 H 66.9284 1.24581 4.44159 0
M  V30 717 H 65.1714 1.23822 4.15753 0
M  V30 718 H 65.8424 0.322515 5.51057 0
M  V30 719 H 68.3184 -0.938645 4.05375 0
M  V30 720 H 67.1944 -1.66683 5.2298 0
M  V30 721 H 67.4554 -2.45063 3.67963 0
M  V30 722 N 66.5145 -1.57545 0.0417849 0
M  V30 723 C 67.4445 -2.14009 -0.933929 0
M  V30 724 C 68.4255 -1.05938 -1.33083 0
M  V30 725 O 69.6105 -1.33833 -1.40721 0
M  V30 726 C 66.7405 -2.67747 -2.21199 0
M  V30 727 C 65.6945 -3.80718 -1.95544 0
M  V30 728 C 65.0205 -4.20935 -3.29724 0
M  V30 729 C 66.3205 -5.06258 -1.28452 0
M  V30 730 H 68.0145 -2.95788 -0.463645 0
M  V30 731 H 65.5605 -1.42285 -0.221573 0
M  V30 732 H 67.5135 -3.05886 -2.89848 0
M  V30 733 H 66.2375 -1.83147 -2.70416 0
M  V30 734 H 64.8965 -3.43037 -1.2931 0
M  V30 735 H 64.5445 -3.33298 -3.76724 0
M  V30 736 H 64.2445 -4.9707 -3.13361 0
M  V30 737 H 65.7685 -4.61666 -3.9962 0
M  V30 738 H 67.1825 -5.41903 -1.8712 0
M  V30 739 H 65.5795 -5.87475 -1.22445 0
M  V30 740 H 66.6495 -4.84207 -0.259219 0
M  V30 741 N 67.9926 0.231505 -1.5589 0
M  V30 742 C 68.9396 1.28682 -1.91598 0
M  V30 743 C 69.9096 1.47071 -0.771974 0
M  V30 744 O 71.0946 1.60802 -1.027 0
M  V30 745 C 68.2346 2.6342 -2.22944 0
M  V30 746 C 67.3476 2.52912 -3.50228 0
M  V30 747 C 66.4826 3.80106 -3.7107 0
M  V30 748 C 65.5216 3.64279 -4.91902 0
M  V30 749 N 64.6586 4.834 -5.09184 0
M  V30 750 H 69.4986 0.975305 -2.81588 0
M  V30 751 H 67.0356 0.470299 -1.39379 0
M  V30 752 H 68.9936 3.41869 -2.39126 0
M  V30 753 H 67.6236 2.92687 -1.36139 0
M  V30 754 H 66.6756 1.6595 -3.42294 0
M  V30 755 H 67.9876 2.37133 -4.38827 0
M  V30 756 H 67.1416 4.66999 -3.87295 0
M  V30 757 H 65.8806 3.98799 -2.80733 0
M  V30 758 H 64.8856 2.7577 -4.75637 0
M  V30 759 H 66.1106 3.47067 -5.83714 0
M  V30 760 H 64.0566 5.02425 -4.21788 0
M  V30 761 H 63.9736 4.70311 -5.91898 0
M  V30 762 H 65.2416 5.71747 -5.29835 0
M  V30 763 N 69.4707 1.49531 0.497807 0
M  V30 764 C 70.7477 1.49682 1.25915 0
M  V30 765 C 71.1277 0.226339 2.09883 0
M  V30 766 O 70.4757 -0.791189 2.14365 0
M  V30 767 C 70.6857 2.77755 2.11313 0
M  V30 768 C 72.0337 3.27371 2.70395 0
M  V30 769 O 73.0577 2.78894 2.21578 0
M  V30 770 O 71.9167 4.11808 3.59272 0
M  V30 771 H 69.0107 0.599228 0.56996 0
M  V30 772 H 71.5567 1.61798 0.511816 0
M  V30 773 H 70.3287 3.61713 1.49264 0
M  V30 774 H 69.9517 2.68515 2.93233 0
M  V30 775 N 70.9488 -0.749086 1.3866 0
M  V30 776 C 72.1738 -1.54344 1.38538 0
M  V30 777 C 72.5988 -1.88088 -0.0216655 0
M  V30 778 O 71.9568 -1.50899 -1.00494 0
M  V30 779 C 72.0048 -2.8164 2.25192 0
M  V30 780 O 71.1088 -3.7698 1.67212 0
M  V30 781 H 70.4498 -0.466654 0.472367 0
M  V30 782 H 72.9798 -0.925355 1.82478 0
M  V30 783 H 72.9898 -3.30519 2.3921 0
M  V30 784 H 71.6648 -2.56411 3.27454 0
M  V30 785 H 70.2418 -3.35699 1.6236 0
M  V30 786 N 72.4269 -1.23603 -0.977757 0
M  V30 787 C 73.6749 -1.06759 -1.71601 0
M  V30 788 C 73.9959 0.395929 -1.90938 0
M  V30 789 O 73.2659 1.28356 -1.47992 0
M  V30 790 H 71.8459 -0.392062 -0.635843 0
M  V30 791 H 74.5079 -1.55362 -1.1768 0
M  V30 792 H 73.6039 -1.55763 -2.70452 0
M  V30 793 N 73.905 1.17692 -1.04816 0
M  V30 794 C 75.321 1.39863 -0.768794 0
M  V30 795 C 75.521 1.91118 0.638451 0
M  V30 796 O 74.577 2.10036 1.40146 0
M  V30 797 C 75.89 2.39274 -1.82122 0
M  V30 798 C 77.438 2.52987 -1.843 0
M  V30 799 C 77.913 3.55669 -2.88555 0
M  V30 800 N 79.404 3.63183 -2.87493 0
M  V30 801 C 80.139 4.42381 -3.64811 0
M  V30 802 N 79.635 5.25125 -4.51903 0
M  V30 803 N 81.428 4.37217 -3.53267 0
M  V30 804 H 73.579 0.82752 -1.95617 0
M  V30 805 H 75.842 0.426123 -0.846831 0
M  V30 806 H 75.548 2.08678 -2.83102 0
M  V30 807 H 75.422 3.38725 -1.65967 0
M  V30 808 H 77.809 2.82896 -0.839869 0
M  V30 809 H 77.89 1.53623 -2.04532 0
M  V30 810 H 77.534 3.26499 -3.89051 0
M  V30 811 H 77.464 4.54728 -2.65575 0
M  V30 812 H 79.955 3.04103 -2.24343 0
M  V30 813 H 80.268 5.82728 -5.07591 0
M  V30 814 H 78.613 5.24519 -4.55966 0
M  V30 815 H 81.804 3.71626 -2.84625 0
M  V30 816 H 81.977 4.98696 -4.13771 0
M  V30 817 N 75.3831 0.828654 1.34056 0
M  V30 818 C 76.6601 0.341809 1.9259 0
M  V30 819 C 77.0401 -1.17158 1.75605 0
M  V30 820 O 76.3881 -1.98132 1.13824 0
M  V30 821 C 76.5981 0.777453 3.4023 0
M  V30 822 C 77.9461 0.779579 4.17382 0
M  V30 823 O 78.9701 0.7204 3.48839 0
M  V30 824 O 77.8291 0.857996 5.39723 0
M  V30 825 H 74.9231 0.0946085 0.821571 0
M  V30 826 H 77.4691 0.913827 1.42994 0
M  V30 827 H 76.2411 1.8196 3.46419 0
M  V30 828 H 75.8641 0.181444 3.97186 0
M  V30 829 N 76.8612 -1.46375 0.584142 0
M  V30 830 C 78.0912 -2.06461 0.0758195 0
M  V30 831 C 78.4992 -1.43322 -1.23512 0
M  V30 832 O 77.8422 -0.533216 -1.75791 0
M  V30 833 C 77.9042 -3.59131 -0.162773 0
M  V30 834 C 77.5682 -4.4447 1.06279 0
M  V30 835 C 78.5652 -4.80918 1.97519 0
M  V30 836 C 76.2502 -4.85584 1.28504 0
M  V30 837 C 78.2442 -5.57309 3.09331 0
M  V30 838 C 75.9312 -5.61734 2.4062 0
M  V30 839 C 76.9292 -5.9751 3.30863 0
M  V30 840 O 76.6172 -6.72121 4.41032 0
M  V30 841 H 76.3492 -0.673745 0.0551725 0
M  V30 842 H 78.9032 -1.88969 0.804984 0
M  V30 843 H 77.1332 -3.74936 -0.946565 0
M  V30 844 H 78.8222 -4.0114 -0.619782 0
M  V30 845 H 79.5882 -4.49732 1.81565 0
M  V30 846 H 75.4672 -4.57187 0.591702 0
M  V30 847 H 79.0112 -5.85152 3.79793 0
M  V30 848 H 74.9082 -5.92334 2.56537 0
M  V30 849 H 75.6762 -6.90547 4.39417 0
M  V30 850 N 78.3393 -0.321999 -1.54275 0
M  V30 851 C 79.5853 0.281461 -2.00837 0
M  V30 852 C 79.9183 1.51909 -1.20985 0
M  V30 853 O 79.1933 1.923 -0.291733 0
M  V30 854 C 79.4763 0.617162 -3.54772 0
M  V30 855 C 79.3293 -0.631064 -4.45351 0
M  V30 856 C 80.6483 1.43542 -4.16033 0
M  V30 857 H 77.7673 0.100826 -0.730071 0
M  V30 858 H 80.4093 -0.438268 -1.84876 0
M  V30 859 H 78.5593 1.23034 -3.68504 0
M  V30 860 H 80.2313 -1.26934 -4.43492 0
M  V30 861 H 78.4743 -1.26025 -4.15091 0
M  V30 862 H 79.1453 -0.351735 -5.50878 0
M  V30 863 H 81.6213 0.917134 -4.05867 0
M  V30 864 H 80.4973 1.63907 -5.23856 0
M  V30 865 H 80.7583 2.43108 -3.69257 0
M  V30 866 N 79.8174 1.5752 -0.0501392 0
M  V30 867 C 81.0424 1.97376 0.636997 0
M  V30 868 C 81.4674 0.927466 1.63645 0
M  V30 869 O 80.8254 -0.10941 1.8097 0
M  V30 870 C 80.8734 3.36304 1.30123 0
M  V30 871 O 79.9774 3.34156 2.41689 0
M  V30 872 H 79.3184 0.642998 0.165679 0
M  V30 873 H 81.8484 2.04258 -0.118233 0
M  V30 874 H 81.8584 3.73008 1.65315 0
M  V30 875 H 80.5334 4.11993 0.568746 0
M  V30 876 H 79.1104 3.09196 2.08451 0
M  V30 877 N 81.2955 -0.223234 1.56011 0
M  V30 878 C 82.2275 -1.30006 1.88762 0
M  V30 879 C 83.2405 -1.43129 0.775746 0
M  V30 880 O 84.4295 -1.44057 1.05403 0
M  V30 881 C 81.5295 -2.67589 2.07965 0
M  V30 882 C 80.7025 -2.76434 3.38973 0
M  V30 883 C 79.7615 -3.95019 3.47629 0
M  V30 884 O 78.7875 -3.83436 4.20672 0
M  V30 885 N 79.9895 -5.09249 2.78649 0
M  V30 886 H 82.7545 -1.02238 2.81722 0
M  V30 887 H 80.3155 -0.413278 1.56536 0
M  V30 888 H 82.3075 -3.45297 2.11073 0
M  V30 889 H 80.8775 -2.87964 1.21638 0
M  V30 890 H 80.0975 -1.85216 3.47978 0
M  V30 891 H 81.3855 -2.79313 4.25278 0
M  V30 892 H 80.7835 -5.21556 2.19081 0
M  V30 893 H 79.3405 -5.85007 2.8742 0
M  V30 894 N 82.7736 -1.49793 -0.48987 0
M  V30 895 C 84.0206 -1.59841 -1.24327 0
M  V30 896 C 84.3486 -0.290135 -1.92324 0
M  V30 897 O 83.6036 0.722749 -1.81865 0
M  V30 898 C 83.9026 -2.71488 -2.32441 0
M  V30 899 C 83.5686 -4.12614 -1.81826 0
M  V30 900 C 82.2306 -4.51017 -1.67742 0
M  V30 901 C 84.5826 -5.00892 -1.4407 0
M  V30 902 C 81.9106 -5.75459 -1.14297 0
M  V30 903 C 84.2626 -6.25863 -0.920742 0
M  V30 904 C 82.9266 -6.63086 -0.766383 0
M  V30 905 H 82.1966 -0.584899 -0.454944 0
M  V30 906 H 84.8436 -1.83663 -0.542215 0
M  V30 907 H 83.1486 -2.4168 -3.0838 0
M  V30 908 H 84.8456 -2.76469 -2.90458 0
M  V30 909 H 81.4356 -3.82307 -1.93751 0
M  V30 910 H 85.6196 -4.7187 -1.53794 0
M  V30 911 H 80.8756 -6.02989 -1.01068 0
M  V30 912 H 85.0496 -6.9364 -0.619448 0
M  V30 913 H 82.6766 -7.59393 -0.350083 0
M  V30 914 N 84.2517 0.741722 -1.39055 0
M  V30 915 C 85.1617 1.88621 -1.39496 0
M  V30 916 C 86.1777 1.71557 -0.290578 0
M  V30 917 O 87.3537 1.94275 -0.530954 0
M  V30 918 C 84.4187 3.24134 -1.23037 0
M  V30 919 C 83.4797 3.5364 -2.43387 0
M  V30 920 C 82.7127 4.82687 -2.27703 0
M  V30 921 O 82.9357 5.55922 -1.27696 0
M  V30 922 O 81.8697 5.1194 -3.16545 0
M  V30 923 H 85.6957 1.91203 -2.35956 0
M  V30 924 H 83.2807 0.888625 -1.20099 0
M  V30 925 H 85.1627 4.0513 -1.15964 0
M  V30 926 H 83.8377 3.22337 -0.296691 0
M  V30 927 H 82.7447 2.72758 -2.56035 0
M  V30 928 H 84.0777 3.60209 -3.35425 0
M  V30 929 N 85.7298 1.2412 0.971189 0
M  V30 930 C 86.9778 1.07668 1.71032 0
M  V30 931 C 87.2988 -0.385797 1.91146 0
M  V30 932 O 86.5688 -1.27569 1.4867 0
M  V30 933 H 85.1488 0.395429 0.633755 0
M  V30 934 H 87.8108 1.55984 1.16855 0
M  V30 935 H 86.9068 1.57195 2.69622 0
M  V30 936 N 87.2079 -1.17134 1.05439 0
M  V30 937 C 88.4329 -1.91913 0.786396 0
M  V30 938 C 88.8579 -1.7643 -0.652234 0
M  V30 939 O 88.2159 -1.08372 -1.45345 0
M  V30 940 C 88.2639 -3.40921 1.17497 0
M  V30 941 O 87.3679 -4.11244 0.308589 0
M  V30 942 H 86.7089 -0.598215 0.288158 0
M  V30 943 H 89.2389 -1.48457 1.4079 0
M  V30 944 H 89.2489 -3.91668 1.14281 0
M  V30 945 H 87.9239 -3.5151 2.22292 0
M  V30 946 H 86.5009 -3.70731 0.40157 0
M  V30 947 N 88.686 -0.835752 -1.33615 0
M  V30 948 C 89.649 -0.272 -2.2758 0
M  V30 949 C 90.649 0.557487 -1.50827 0
M  V30 950 O 91.839 0.37173 -1.70188 0
M  V30 951 C 88.971 0.617173 -3.35267 0
M  V30 952 H 90.164 -1.10111 -2.78954 0
M  V30 953 H 87.717 -0.608594 -1.43965 0
M  V30 954 H 88.452 1.46884 -2.89129 0
M  V30 955 H 88.237 0.0237066 -3.92093 0
M  V30 956 H 89.727 1.005 -4.05326 0
M  V30 957 N 90.1641 1.46063 -0.591896 0
M  V30 958 C 91.0941 2.33172 0.123673 0
M  V30 959 C 92.0751 1.45897 0.87453 0
M  V30 960 O 93.2601 1.74698 0.848181 0
M  V30 961 C 90.3901 3.28336 1.13194 0
M  V30 962 C 89.3441 4.25124 0.495324 0
M  V30 963 C 88.6701 5.09863 1.61071 0
M  V30 964 C 89.9701 5.19143 -0.573425 0
M  V30 965 H 91.6641 2.93252 -0.603646 0
M  V30 966 H 89.2101 1.41014 -0.291741 0
M  V30 967 H 91.1631 3.88137 1.64097 0
M  V30 968 H 89.8871 2.66383 1.88965 0
M  V30 969 H 88.5461 3.66599 0.00729452 0
M  V30 970 H 88.1941 4.44288 2.35832 0
M  V30 971 H 87.8941 5.75417 1.19035 0
M  V30 972 H 89.4181 5.72529 2.12233 0
M  V30 973 H 90.8321 5.73106 -0.1491 0
M  V30 974 H 89.2291 5.93089 -0.914636 0
M  V30 975 H 90.2991 4.62519 -1.45617 0
M  V30 976 N 91.6422 0.330177 1.54103 0
M  V30 977 C 92.8902 -0.269871 2.0029 0
M  V30 978 C 93.2112 -1.52133 1.21986 0
M  V30 979 O 92.4812 -1.93212 0.323438 0
M  V30 980 H 91.0612 -0.10271 0.739905 0
M  V30 981 H 93.7232 0.448249 1.89675 0
M  V30 982 H 92.8192 -0.52166 3.07709 0
M  V30 983 N 93.1203 -1.57491 0.0584922 0
M  V30 984 C 94.0673 -2.11958 -0.913376 0
M  V30 985 C 95.0373 -1.02875 -1.30407 0
M  V30 986 O 96.2223 -1.30464 -1.39226 0
M  V30 987 C 93.3623 -2.67497 -2.18035 0
M  V30 988 C 92.4753 -3.90691 -1.84349 0
M  V30 989 C 91.6103 -4.3452 -3.05559 0
M  V30 990 C 90.6493 -5.50395 -2.67827 0
M  V30 991 N 89.7863 -5.89244 -3.81754 0
M  V30 992 H 94.6263 -2.94704 -0.442017 0
M  V30 993 H 92.1633 -1.45643 -0.206545 0
M  V30 994 H 94.1213 -2.978 -2.92183 0
M  V30 995 H 92.7513 -1.87537 -2.62735 0
M  V30 996 H 91.8033 -3.66934 -1.00319 0
M  V30 997 H 93.1153 -4.7489 -1.5258 0
M  V30 998 H 92.2693 -4.66414 -3.87998 0
M  V30 999 H 91.0083 -3.49147 -3.40511 0
M  V30 1000 H 90.0133 -5.18165 -1.83806 0
M  V30 1001 H 91.2383 -6.3749 -2.34059 0
M  V30 1002 H 89.1843 -5.06823 -4.16493 0
M  V30 1003 H 89.1013 -6.68151 -3.53708 0
M  V30 1004 H 90.3693 -6.25756 -4.64811 0
M  V30 1005 N 94.5984 0.214957 -1.56127 0
M  V30 1006 C 95.5304 1.29004 -1.89448 0
M  V30 1007 C 96.5434 1.42716 -0.783326 0
M  V30 1008 O 97.7324 1.43496 -1.06166 0
M  V30 1009 C 94.8324 2.66482 -2.09381 0
M  V30 1010 C 94.0054 2.74633 -3.40434 0
M  V30 1011 C 93.0644 3.9317 -3.49719 0
M  V30 1012 O 92.0904 3.812 -4.227 0
M  V30 1013 N 93.2924 5.07765 -2.81346 0
M  V30 1014 H 96.0574 1.00743 -2.82261 0
M  V30 1015 H 93.6184 0.40497 -1.56753 0
M  V30 1016 H 95.6104 3.44173 -2.12901 0
M  V30 1017 H 94.1804 2.87314 -1.23163 0
M  V30 1018 H 93.4004 1.83368 -3.48955 0
M  V30 1019 H 94.6884 2.77054 -4.26754 0
M  V30 1020 H 94.0864 5.20386 -2.21843 0
M  V30 1021 H 92.6434 5.83474 -2.90519 0
M  V30 1022 N 96.0765 1.50051 0.48192 0
M  V30 1023 C 97.0065 1.71046 1.58951 0
M  V30 1024 C 97.9875 0.559288 1.60642 0
M  V30 1025 O 99.1725 0.797243 1.77081 0
M  V30 1026 C 96.3025 1.79462 2.97339 0
M  V30 1027 C 95.2565 2.94558 3.10515 0
M  V30 1028 C 94.5825 2.88105 4.50444 0
M  V30 1029 C 95.8825 4.35227 2.88747 0
M  V30 1030 H 97.5765 2.6378 1.41635 0
M  V30 1031 H 95.1225 1.26936 0.679942 0
M  V30 1032 H 97.0755 1.92734 3.74742 0
M  V30 1033 H 95.7995 0.833412 3.15788 0
M  V30 1034 H 94.4585 2.80918 2.35543 0
M  V30 1035 H 94.1065 1.89853 4.65795 0
M  V30 1036 H 93.8065 3.65366 4.60197 0
M  V30 1037 H 95.3305 3.03412 5.29881 0
M  V30 1038 H 96.7445 4.49449 3.55905 0
M  V30 1039 H 95.1415 5.13856 3.09955 0
M  V30 1040 H 96.2115 4.48347 1.84696 0
M  V30 1041 N 97.5546 -0.734337 1.39446 0
M  V30 1042 C 98.5026 -1.86971 1.38364 0
M  V30 1043 C 99.4966 -1.67288 0.266687 0
M  V30 1044 O 100.703 -1.74621 0.436755 0
M  V30 1045 H 97.0776 -0.615474 0.432082 0
M  V30 1046 H 99.0486 -1.85 2.34132 0
M  V30 1047 C 97.7976 -3.2466 1.24465 0
M  V30 1048 H 97.1206 -3.40402 2.09682 0
M  V30 1049 H 98.5606 -4.04292 1.27764 0
M  V30 1050 C 97.0196 -3.36867 -0.0468674 0
M  V30 1051 O 97.5496 -3.88618 -1.01681 0
M  V30 1052 N 95.7556 -2.90391 -0.110145 0
M  V30 1053 H 95.3026 -2.48466 0.679868 0
M  V30 1054 H 95.2606 -2.98939 -0.973799 0
M  V30 1055 N 99.0327 -1.24633 -0.964593 0
M  V30 1056 C 99.9627 -1.06611 -2.07741 0
M  V30 1057 C 100.944 0.0218666 -1.70086 0
M  V30 1058 O 102.129 -0.145793 -1.93652 0
M  V30 1059 C 99.2587 -0.673444 -3.40708 0
M  V30 1060 C 98.2127 -1.71054 -3.92332 0
M  V30 1061 C 97.5387 -1.17285 -5.21678 0
M  V30 1062 C 98.8387 -3.10718 -4.19824 0
M  V30 1063 H 100.533 -1.99693 -2.23076 0
M  V30 1064 H 98.0787 -0.96152 -1.07195 0
M  V30 1065 H 100.032 -0.534345 -4.17998 0
M  V30 1066 H 98.7557 0.293073 -3.25282 0
M  V30 1067 H 97.4147 -1.83791 -3.17201 0
M  V30 1068 H 97.0627 -0.196847 -5.02615 0
M  V30 1069 H 96.7627 -1.86592 -5.57187 0
M  V30 1070 H 98.2867 -1.04593 -6.01575 0
M  V30 1071 H 99.7007 -3.01192 -4.87808 0
M  V30 1072 H 98.0977 -3.77406 -4.66567 0
M  V30 1073 H 99.1677 -3.58524 -3.26479 0
M  V30 1074 N 100.511 1.16574 -1.06058 0
M  V30 1075 C 101.458 2.20883 -0.669263 0
M  V30 1076 C 102.428 1.62729 0.332918 0
M  V30 1077 O 103.613 1.895 0.222346 0
M  V30 1078 C 100.753 3.45049 -0.0593572 0
M  V30 1079 C 99.8658 4.17458 -1.11143 0
M  V30 1080 C 99.0008 5.29135 -0.467916 0
M  V30 1081 C 98.0398 5.93343 -1.50369 0
M  V30 1082 N 97.1768 6.96516 -0.883706 0
M  V30 1083 H 102.017 2.53709 -1.5632 0
M  V30 1084 H 99.5538 1.24616 -0.781625 0
M  V30 1085 H 101.512 4.16033 0.311771 0
M  V30 1086 H 100.142 3.12781 0.797992 0
M  V30 1087 H 99.1938 3.45101 -1.60029 0
M  V30 1088 H 100.506 4.61307 -1.89731 0
M  V30 1089 H 99.6598 6.06684 -0.0436871 0
M  V30 1090 H 98.3988 4.86443 0.349864 0
M  V30 1091 H 97.4038 5.14517 -1.93784 0
M  V30 1092 H 98.6288 6.38114 -2.32352 0
M  V30 1093 H 96.5748 6.55943 -0.086595 0
M  V30 1094 H 96.4918 7.38723 -1.607 0
M  V30 1095 H 97.7598 7.77993 -0.484543 0
M  V30 1096 N 101.989 0.842826 1.3317 0
M  V30 1097 C 102.919 0.294028 2.31641 0
M  V30 1098 C 103.9 -0.600401 1.59151 0
M  V30 1099 O 105.085 -0.523124 1.87022 0
M  V30 1100 C 102.215 -0.528416 3.43257 0
M  V30 1101 C 101.169 0.27056 4.27144 0
M  V30 1102 C 100.495 -0.675881 5.30411 0
M  V30 1103 C 101.795 1.48981 5.00602 0
M  V30 1104 H 103.489 1.11681 2.77791 0
M  V30 1105 H 101.035 0.538478 1.33553 0
M  V30 1106 H 102.988 -0.922674 4.11175 0
M  V30 1107 H 101.712 -1.38445 2.95805 0
M  V30 1108 H 100.371 0.646427 3.60856 0
M  V30 1109 H 100.019 -1.52842 4.79216 0
M  V30 1110 H 99.7189 -0.145374 5.8742 0
M  V30 1111 H 101.243 -1.06757 6.01195 0
M  V30 1112 H 102.657 1.16849 5.61266 0
M  V30 1113 H 101.054 1.95739 5.6728 0
M  V30 1114 H 102.124 2.25746 4.29147 0
M  V30 1115 N 103.467 -1.45747 0.599634 0
M  V30 1116 C 104.397 -2.33235 -0.111306 0
M  V30 1117 C 105.378 -1.46359 -0.866781 0
M  V30 1118 O 106.563 -1.75146 -0.838904 0
M  V30 1119 C 103.693 -3.28932 -1.11451 0
M  V30 1120 C 102.647 -4.25381 -0.472772 0
M  V30 1121 C 101.973 -5.1071 -1.58365 0
M  V30 1122 C 103.273 -5.18831 0.600948 0
M  V30 1123 H 104.967 -2.92927 0.61919 0
M  V30 1124 H 102.513 -1.40857 0.299215 0
M  V30 1125 H 104.466 -3.89002 -1.62036 0
M  V30 1126 H 103.19 -2.67381 -1.8755 0
M  V30 1127 H 101.849 -3.66598 0.0121472 0
M  V30 1128 H 101.497 -4.45533 -2.33473 0
M  V30 1129 H 101.197 -5.7604 -1.15982 0
M  V30 1130 H 102.721 -5.73647 -2.09194 0
M  V30 1131 H 104.135 -5.73019 0.179491 0
M  V30 1132 H 102.532 -5.92595 0.946076 0
M  V30 1133 H 103.602 -4.6174 1.48068 0
M  V30 1134 N 104.945 -0.338344 -1.53925 0
M  V30 1135 C 106.222 0.314774 -1.93051 0
M  V30 1136 C 106.602 1.68669 -1.26941 0
M  V30 1137 O 105.95 2.24636 -0.418445 0
M  V30 1138 C 106.16 0.392249 -3.46789 0
M  V30 1139 C 107.508 0.645554 -4.19664 0
M  V30 1140 O 108.532 0.474575 -3.53024 0
M  V30 1141 O 107.391 0.976408 -5.37707 0
M  V30 1142 H 104.485 0.182598 -0.80659 0
M  V30 1143 H 107.031 -0.389141 -1.65178 0
M  V30 1144 H 105.803 -0.570702 -3.87116 0
M  V30 1145 H 105.426 1.14316 -3.80812 0
M  V30 1146 N 106.423 1.57458 -0.0668435 0
M  V30 1147 C 107.371 2.13639 0.919851 0
M  V30 1148 C 108.365 1.07204 1.31163 0
M  V30 1149 O 109.571 1.25591 1.28945 0
M  V30 1150 H 105.946 0.683048 0.314562 0
M  V30 1151 H 107.917 2.95415 0.421047 0
M  V30 1152 C 106.666 2.70892 2.17975 0
M  V30 1153 H 105.989 3.5246 1.88711 0
M  V30 1154 H 107.429 3.13803 2.85138 0
M  V30 1155 C 105.888 1.65414 2.93496 0
M  V30 1156 O 106.418 1.07619 3.87015 0
M  V30 1157 N 104.624 1.36564 2.56512 0
M  V30 1158 H 104.171 1.83751 1.80536 0
M  V30 1159 H 104.129 0.66223 3.07347 0
M  V30 1160 N 107.901 -0.206675 1.56239 0
M  V30 1161 C 109.147 -0.925733 1.81113 0
M  V30 1162 C 109.502 -1.81368 0.642135 0
M  V30 1163 O 108.795 -1.88126 -0.363211 0
M  V30 1164 C 108.989 -1.78675 3.09532 0
M  V30 1165 C 108.818 -0.98365 4.3881 0
M  V30 1166 C 107.588 -0.672661 5.00803 0
M  V30 1167 C 109.786 -0.341847 5.13163 0
M  V30 1168 N 107.768 0.150283 6.13716 0
M  V30 1169 C 109.139 0.343815 6.19046 0
M  V30 1170 C 111.194 -0.256392 4.97239 0
M  V30 1171 C 109.897 1.10678 7.10734 0
M  V30 1172 C 111.923 0.493142 5.8934 0
M  V30 1173 C 111.285 1.16729 6.94661 0
M  V30 1174 H 107.384 -0.318524 0.714189 0
M  V30 1175 H 109.968 -0.195378 1.93717 0
M  V30 1176 H 108.139 -2.4888 2.98183 0
M  V30 1177 H 109.871 -2.44441 3.22538 0
M  V30 1178 H 106.626 -0.994294 4.63045 0
M  V30 1179 H 107.05 0.551026 6.74754 0
M  V30 1180 H 111.692 -0.763249 4.15854 0
M  V30 1181 H 109.41 1.6251 7.91591 0
M  V30 1182 H 112.996 0.560465 5.79094 0
M  V30 1183 H 111.876 1.738 7.64698 0
M  V30 1184 N 109.379 -1.50304 -0.473955 0
M  V30 1185 C 110.656 -1.51667 -1.23518 0
M  V30 1186 C 111.036 -0.259701 -2.09496 0
M  V30 1187 O 110.384 0.756986 -2.15597 0
M  V30 1188 C 110.594 -2.81082 -2.06868 0
M  V30 1189 C 111.942 -3.31631 -2.65153 0
M  V30 1190 O 112.966 -2.82384 -2.17113 0
M  V30 1191 O 111.825 -4.17471 -3.52675 0
M  V30 1192 H 108.919 -0.60822 -0.560355 0
M  V30 1193 H 111.465 -1.62592 -0.486011 0
M  V30 1194 H 110.237 -3.64041 -1.4349 0
M  V30 1195 H 109.86 -2.73146 -2.88924 0
M  V30 1196 N 110.857 0.726932 -1.39834 0
M  V30 1197 C 112.082 1.52121 -1.40976 0
M  V30 1198 C 112.507 1.88098 -0.00826029 0
M  V30 1199 O 111.865 1.52479 0.980807 0
M  V30 1200 C 111.913 2.78021 -2.29644 0
M  V30 1201 O 111.017 3.74272 -1.73188 0
M  V30 1202 H 110.358 0.45908 -0.479731 0
M  V30 1203 H 112.888 0.896207 -1.83927 0
M  V30 1204 H 112.898 3.26671 -2.44438 0
M  V30 1205 H 111.573 2.51169 -3.31492 0
M  V30 1206 H 110.15 3.33073 -1.6768 0
M  V30 1207 N 112.336 1.25143 0.95797 0
M  V30 1208 C 113.582 1.09855 1.70469 0
M  V30 1209 C 113.915 -0.360187 1.90831 0
M  V30 1210 O 113.19 -1.26568 1.47685 0
M  V30 1211 C 113.473 1.8497 3.08963 0
M  V30 1212 C 113.326 3.38652 2.96032 0
M  V30 1213 C 114.645 1.63016 4.08795 0
M  V30 1214 H 111.764 0.400465 0.618706 0
M  V30 1215 H 114.406 1.53933 1.11376 0
M  V30 1216 H 112.556 1.47505 3.59409 0
M  V30 1217 H 114.228 3.85772 2.52938 0
M  V30 1218 H 112.471 3.66534 2.32025 0
M  V30 1219 H 113.142 3.8642 3.94187 0
M  V30 1220 H 115.618 1.95625 3.67247 0
M  V30 1221 H 114.494 2.18015 5.03747 0
M  V30 1222 H 114.755 0.570692 4.38401 0
M  V30 1223 N 113.814 -1.1601 1.06675 0
M  V30 1224 C 115.042 -1.90527 0.806667 0
M  V30 1225 C 115.457 -1.77643 -0.639396 0
M  V30 1226 O 114.814 -1.12369 -1.43803 0
M  V30 1227 C 114.865 -3.41106 1.19705 0
M  V30 1228 O 114.586 -3.53608 2.58636 0
M  V30 1229 C 116.087 -4.32663 0.965266 0
M  V30 1230 H 113.307 -0.604053 0.292166 0
M  V30 1231 H 115.851 -1.47026 1.4214 0
M  V30 1232 H 114.006 -3.82296 0.626774 0
M  V30 1233 H 114.42 -4.47011 2.74375 0
M  V30 1234 H 115.894 -5.36763 1.288 0
M  V30 1235 H 116.371 -4.39089 -0.0987936 0
M  V30 1236 H 116.977 -3.97206 1.52011 0
M  V30 1237 N 115.292 -0.849877 -1.32721 0
M  V30 1238 C 116.517 -0.463856 -2.02146 0
M  V30 1239 C 116.942 0.930449 -1.63476 0
M  V30 1240 O 116.3 1.61033 -0.832952 0
M  V30 1241 C 116.348 -0.604955 -3.55489 0
M  V30 1242 O 115.452 0.36425 -4.10788 0
M  V30 1243 H 114.793 -0.187046 -0.637111 0
M  V30 1244 H 117.323 -1.14775 -1.69375 0
M  V30 1245 H 117.333 -0.490696 -4.05038 0
M  V30 1246 H 116.008 -1.62174 -3.82978 0
M  V30 1247 H 114.585 0.206628 -3.72327 0
M  V30 1248 N 116.77 1.45427 -0.607355 0
M  V30 1249 C 117.998 2.06614 -0.108814 0
M  V30 1250 C 118.413 1.45204 1.2067 0
M  V30 1251 O 117.77 0.566132 1.73497 0
M  V30 1252 C 117.821 3.61481 0.0375347 0
M  V30 1253 O 117.542 4.20598 -1.22593 0
M  V30 1254 C 119.043 4.39652 0.567561 0
M  V30 1255 H 116.263 0.66747 -0.0687351 0
M  V30 1256 H 118.807 1.86675 -0.835022 0
M  V30 1257 H 116.962 3.80762 0.714068 0
M  V30 1258 H 117.376 5.1377 -1.05547 0
M  V30 1259 H 118.85 5.48518 0.61905 0
M  V30 1260 H 119.327 4.09417 1.58978 0
M  V30 1261 H 119.933 4.25234 -0.0749202 0
M  V30 1262 N 118.248 0.346503 1.53744 0
M  V30 1263 C 119.495 -0.249104 2.00962 0
M  V30 1264 C 119.823 -1.5032 1.23426 0
M  V30 1265 O 119.078 -1.93217 0.310761 0
M  V30 1266 C 119.377 -0.605809 3.52228 0
M  V30 1267 C 119.043 0.551747 4.47512 0
M  V30 1268 C 117.705 0.86941 4.73281 0
M  V30 1269 C 120.057 1.32818 5.03993 0
M  V30 1270 C 117.385 1.96582 5.52786 0
M  V30 1271 C 119.737 2.41486 5.84694 0
M  V30 1272 C 118.401 2.73808 6.08757 0
M  V30 1273 H 117.671 -0.0911538 0.735372 0
M  V30 1274 H 120.318 0.475027 1.85515 0
M  V30 1275 H 118.623 -1.4107 3.65522 0
M  V30 1276 H 120.32 -1.07858 3.86222 0
M  V30 1277 H 116.91 0.294102 4.2759 0
M  V30 1278 H 121.094 1.09602 4.84047 0
M  V30 1279 H 116.35 2.22045 5.69654 0
M  V30 1280 H 120.524 3.02078 6.27473 0
M  V30 1281 H 118.151 3.58892 6.7015 0
M  V30 1282 N 119.726 -1.57421 0.075193 0
M  V30 1283 C 120.951 -1.98364 -0.605515 0
M  V30 1284 C 121.376 -0.953383 -1.62149 0
M  V30 1285 O 120.734 0.0806053 -1.81121 0
M  V30 1286 C 120.782 -3.38332 -1.24756 0
M  V30 1287 O 119.886 -3.37959 -2.36342 0
M  V30 1288 H 119.227 -0.645553 -0.155428 0
M  V30 1289 H 121.757 -2.04044 0.150714 0
M  V30 1290 H 121.767 -3.75591 -1.5936 0
M  V30 1291 H 120.442 -4.12846 -0.503129 0
M  V30 1292 H 119.019 -3.12474 -2.03506 0
M  V30 1293 N 121.204 0.198386 -1.56346 0
M  V30 1294 C 122.151 1.24589 -1.94284 0
M  V30 1295 C 123.121 1.454 -0.802997 0
M  V30 1296 O 124.306 1.58588 -1.06087 0
M  V30 1297 C 121.446 2.58631 -2.28482 0
M  V30 1298 C 120.559 2.45426 -3.55514 0
M  V30 1299 C 119.694 3.7215 -3.79049 0
M  V30 1300 C 118.733 3.53763 -4.99518 0
M  V30 1301 N 117.87 4.72491 -5.19323 0
M  V30 1302 H 122.71 0.915356 -2.83593 0
M  V30 1303 H 120.247 0.440629 -1.40346 0
M  V30 1304 H 122.205 3.3672 -2.46324 0
M  V30 1305 H 120.835 2.89734 -1.42317 0
M  V30 1306 H 119.887 1.58652 -3.45737 0
M  V30 1307 H 121.199 2.27772 -4.43758 0
M  V30 1308 H 120.353 4.58679 -3.97113 0
M  V30 1309 H 119.092 3.92754 -2.89129 0
M  V30 1310 H 118.097 2.65619 -4.8138 0
M  V30 1311 H 119.322 3.34607 -5.90944 0
M  V30 1312 H 117.268 4.93365 -4.3235 0
M  V30 1313 H 117.185 4.5765 -6.01741 0
M  V30 1314 H 118.453 5.6038 -5.41843 0
M  V30 1315 N 122.682 1.50554 0.465978 0
M  V30 1316 C 123.612 1.72722 1.57128 0
M  V30 1317 C 124.593 0.576294 1.6004 0
M  V30 1318 O 125.778 0.81598 1.76225 0
M  V30 1319 C 122.908 1.82605 2.95419 0
M  V30 1320 C 121.862 2.97835 3.07373 0
M  V30 1321 C 121.188 2.92867 4.47363 0
M  V30 1322 C 122.488 4.38265 2.84114 0
M  V30 1323 H 124.182 2.65267 1.38829 0
M  V30 1324 H 121.728 1.2765 0.666441 0
M  V30 1325 H 123.681 1.96698 3.72677 0
M  V30 1326 H 122.405 0.866858 3.14886 0
M  V30 1327 H 121.064 2.83401 2.3255 0
M  V30 1328 H 120.712 1.94783 4.63755 0
M  V30 1329 H 120.412 3.70227 4.56296 0
M  V30 1330 H 121.936 3.09015 5.26633 0
M  V30 1331 H 123.35 4.53198 3.51118 0
M  V30 1332 H 121.747 5.17115 3.04487 0
M  V30 1333 H 122.817 4.50281 1.7993 0
M  V30 1334 N 124.16 -0.719506 1.40217 0
M  V30 1335 C 125.576 -1.02707 1.22161 0
M  V30 1336 C 125.776 -2.0128 0.0940557 0
M  V30 1337 O 124.832 -2.46452 -0.549318 0
M  V30 1338 C 126.145 -1.57454 2.56181 0
M  V30 1339 C 127.693 -1.69458 2.63159 0
M  V30 1340 C 128.168 -2.27611 3.97438 0
M  V30 1341 N 129.659 -2.35002 3.99159 0
M  V30 1342 C 130.394 -2.80972 4.99842 0
M  V30 1343 N 129.89 -3.26723 6.10921 0
M  V30 1344 N 131.683 -2.80321 4.87213 0
M  V30 1345 H 123.834 -0.0660492 2.12297 0
M  V30 1346 H 126.097 -0.0919077 0.943534 0
M  V30 1347 H 125.803 -0.924873 3.39321 0
M  V30 1348 H 125.677 -2.56036 2.76993 0
M  V30 1349 H 128.064 -2.33543 1.80393 0
M  V30 1350 H 128.145 -0.694867 2.46181 0
M  V30 1351 H 127.789 -1.6415 4.80643 0
M  V30 1352 H 127.719 -3.2829 4.11744 0
M  V30 1353 H 130.21 -2.02685 3.18947 0
M  V30 1354 H 130.523 -3.60355 6.8364 0
M  V30 1355 H 128.868 -3.24692 6.14492 0
M  V30 1356 H 132.059 -2.43912 3.9953 0
M  V30 1357 H 132.232 -3.15831 5.65822 0
M  V30 1358 N 125.638 -1.25649 -0.95132 0
M  V30 1359 C 126.548 -1.08073 -2.08224 0
M  V30 1360 C 127.564 -0.0169666 -1.73992 0
M  V30 1361 O 128.74 -0.218593 -2.0021 0
M  V30 1362 C 125.805 -0.704922 -3.39458 0
M  V30 1363 C 124.866 -1.84699 -3.87537 0
M  V30 1364 C 124.099 -1.48902 -5.12508 0
M  V30 1365 O 124.322 -0.386156 -5.69091 0
M  V30 1366 O 123.256 -2.32033 -5.55378 0
M  V30 1367 H 127.082 -2.02924 -2.25954 0
M  V30 1368 H 124.667 -1.04618 -1.06656 0
M  V30 1369 H 126.549 -0.507609 -4.18332 0
M  V30 1370 H 125.224 0.214291 -3.2299 0
M  V30 1371 H 124.131 -2.09919 -3.09653 0
M  V30 1372 H 125.464 -2.74557 -4.08509 0
M  V30 1373 N 127.117 1.15442 -1.07289 0
M  V30 1374 C 128.049 2.19773 -0.650585 0
M  V30 1375 C 129.062 1.60076 0.296572 0
M  V30 1376 O 130.251 1.78293 0.0859905 0
M  V30 1377 C 127.351 3.38838 0.0650398 0
M  V30 1378 C 126.524 4.2808 -0.898141 0
M  V30 1379 C 125.583 5.2574 -0.219926 0
M  V30 1380 O 124.609 5.62654 -0.860773 0
M  V30 1381 N 125.811 5.71205 1.03466 0
M  V30 1382 H 128.576 2.56622 -1.54808 0
M  V30 1383 H 126.137 1.30551 -0.957494 0
M  V30 1384 H 128.129 4.01222 0.529415 0
M  V30 1385 H 126.699 3.00409 0.864466 0
M  V30 1386 H 125.919 3.62804 -1.54165 0
M  V30 1387 H 127.207 4.84577 -1.5512 0
M  V30 1388 H 126.605 5.43325 1.57526 0
M  V30 1389 H 125.162 6.35633 1.44272 0
M  V30 1390 N 128.595 0.856903 1.32268 0
M  V30 1391 C 129.525 0.31858 2.31316 0
M  V30 1392 C 130.506 -0.583487 1.59779 0
M  V30 1393 O 131.691 -0.503259 1.87566 0
M  V30 1394 C 128.821 -0.491979 3.43798 0
M  V30 1395 C 127.775 0.315849 4.26833 0
M  V30 1396 C 127.101 -0.619586 5.31098 0
M  V30 1397 C 128.401 1.54282 4.98993 0
M  V30 1398 H 130.095 1.14621 2.76591 0
M  V30 1399 H 127.641 0.552613 1.32974 0
M  V30 1400 H 129.594 -0.879012 4.1213 0
M  V30 1401 H 128.318 -1.35299 2.97257 0
M  V30 1402 H 126.977 0.684664 3.6015 0
M  V30 1403 H 126.625 -1.47751 4.8081 0
M  V30 1404 H 126.325 -0.0830621 5.87541 0
M  V30 1405 H 127.849 -1.00375 6.02293 0
M  V30 1406 H 129.263 1.22796 5.59995 0
M  V30 1407 H 127.66 2.01745 5.65172 0
M  V30 1408 H 128.73 2.30285 4.26728 0
M  V30 1409 N 130.073 -1.45103 0.615059 0
M  V30 1410 C 131.321 -2.01784 0.112955 0
M  V30 1411 C 131.642 -1.48504 -1.26378 0
M  V30 1412 O 130.912 -0.682245 -1.83636 0
M  V30 1413 H 129.492 -0.745993 0.0387668 0
M  V30 1414 H 132.154 -1.77808 0.798141 0
M  V30 1415 H 131.25 -3.12025 0.0684069 0
M  V30 1416 N 131.551 -0.354651 -1.53558 0
M  V30 1417 C 132.962 0.126902 -1.86268 0
M  V30 1418 C 133.313 1.49075 -1.27558 0
M  V30 1419 O 132.438 2.08105 -0.5934 0
M  V30 1420 C 133.033 0.237046 -3.3797 0
M  V30 1421 C 131.592 0.662842 -3.70518 0
M  V30 1422 C 130.739 -0.196652 -2.76602 0
M  V30 1423 H 133.69 -0.573849 -1.47962 0
M  V30 1424 H 133.711 1.06259 -3.65362 0
M  V30 1425 H 133.223 -0.755725 -3.80671 0
M  V30 1426 H 131.324 1.66424 -3.33367 0
M  V30 1427 H 131.437 0.445034 -4.77029 0
M  V30 1428 H 129.801 0.332763 -2.52517 0
M  V30 1429 H 130.584 -1.18676 -3.22135 0
M  V30 1430 N 133.029 1.57378 -0.0835403 0
M  V30 1431 C 134.275 1.94217 0.583733 0
M  V30 1432 C 134.608 0.964653 1.68547 0
M  V30 1433 O 133.883 -0.00422258 1.945 0
M  V30 1434 C 134.166 3.41253 1.14972 0
M  V30 1435 C 134.019 4.49768 0.0538277 0
M  V30 1436 C 135.338 3.89352 2.05166 0
M  V30 1437 H 132.457 0.706233 0.210724 0
M  V30 1438 H 135.099 1.89392 -0.1519 0
M  V30 1439 H 133.249 3.45496 1.77665 0
M  V30 1440 H 134.921 4.57641 -0.579851 0
M  V30 1441 H 133.164 4.29432 -0.614068 0
M  V30 1442 H 133.835 5.49817 0.490452 0
M  V30 1443 H 136.311 3.87189 1.52393 0
M  V30 1444 H 135.187 4.92822 2.41698 0
M  V30 1445 H 135.448 3.27973 2.96456 0
M  V30 1446 N 134.507 -0.190092 1.56449 0
M  V30 1447 C 135.735 -0.925772 1.85033 0
M  V30 1448 C 136.15 -1.76638 0.666658 0
M  V30 1449 O 135.507 -1.78822 -0.364565 0
M  V30 1450 C 135.558 -1.81786 3.12468 0
M  V30 1451 O 135.279 -1.01118 4.26271 0
M  V30 1452 C 136.78 -2.6648 3.54265 0
M  V30 1453 H 134 -0.269872 0.614337 0
M  V30 1454 H 136.544 -0.195837 2.0356 0
M  V30 1455 H 134.699 -2.50136 2.95822 0
M  V30 1456 H 135.113 -1.61956 4.98869 0
M  V30 1457 H 136.587 -3.24722 4.46385 0
M  V30 1458 H 137.064 -3.40434 2.77491 0
M  V30 1459 H 137.67 -2.03493 3.73458 0
M  V30 1460 N 135.985 -1.50799 -0.457987 0
M  V30 1461 C 136.917 -1.66786 -1.57211 0
M  V30 1462 C 137.93 -0.548962 -1.53265 0
M  V30 1463 O 139.119 -0.8226 -1.58416 0
M  V30 1464 C 136.219 -1.64834 -2.96113 0
M  V30 1465 C 135.392 -2.92971 -3.24787 0
M  V30 1466 C 134.451 -2.83485 -4.43309 0
M  V30 1467 O 133.477 -3.5744 -4.42973 0
M  V30 1468 N 134.679 -1.97929 -5.45714 0
M  V30 1469 H 137.444 -2.62889 -1.43909 0
M  V30 1470 H 135.005 -1.48427 -0.646617 0
M  V30 1471 H 136.997 -1.56084 -3.7339 0
M  V30 1472 H 135.567 -0.764118 -3.03117 0
M  V30 1473 H 134.787 -3.15749 -2.36 0
M  V30 1474 H 136.075 -3.77834 -3.40762 0
M  V30 1475 H 135.473 -1.37182 -5.48815 0
M  V30 1476 H 134.03 -1.95073 -6.21924 0
M  V30 1477 N 137.463 0.71206 -1.40597 0
M  V30 1478 C 138.373 1.8562 -1.43466 0
M  V30 1479 C 139.389 1.70902 -0.326902 0
M  V30 1480 O 140.565 1.93105 -0.572043 0
M  V30 1481 C 137.63 3.21451 -1.29884 0
M  V30 1482 C 136.691 3.48398 -2.50833 0
M  V30 1483 C 135.924 4.77749 -2.3789 0
M  V30 1484 O 136.147 5.53089 -1.39459 0
M  V30 1485 O 135.081 5.05111 -3.27333 0
M  V30 1486 H 138.907 1.86155 -2.39958 0
M  V30 1487 H 136.492 0.86295 -1.21957 0
M  V30 1488 H 138.374 4.02579 -1.24531 0
M  V30 1489 H 137.049 3.21636 -0.364997 0
M  V30 1490 H 135.956 2.67265 -2.61763 0
M  V30 1491 H 137.289 3.53014 -3.4299 0
M  V30 1492 N 138.941 1.26152 0.944643 0
M  V30 1493 C 140.188 1.11492 1.69044 0
M  V30 1494 C 140.516 -0.342366 1.91463 0
M  V30 1495 O 139.771 -1.26812 1.49054 0
M  V30 1496 C 140.07 1.82541 3.07268 0
M  V30 1497 C 139.736 3.32445 3.04616 0
M  V30 1498 C 138.398 3.73337 3.036 0
M  V30 1499 C 140.75 4.28171 2.97185 0
M  V30 1500 C 138.078 5.08348 2.92915 0
M  V30 1501 C 140.43 5.63218 2.88041 0
M  V30 1502 C 139.094 6.03426 2.85366 0
M  V30 1503 H 138.364 0.407977 0.618576 0
M  V30 1504 H 141.011 1.56551 1.10291 0
M  V30 1505 H 139.316 1.29941 3.69625 0
M  V30 1506 H 141.013 1.68642 3.63815 0
M  V30 1507 H 137.603 2.99915 3.06185 0
M  V30 1508 H 141.787 3.97563 2.97081 0
M  V30 1509 H 137.043 5.38667 2.89219 0
M  V30 1510 H 141.217 6.37078 2.81254 0
M  V30 1511 H 138.844 7.07999 2.76842 0
M  V30 1512 N 140.419 -1.14872 1.07899 0
M  V30 1513 C 141.665 -1.86289 0.81657 0
M  V30 1514 C 142.02 -1.8107 -0.65049 0
M  V30 1515 O 141.313 -1.22684 -1.47171 0
M  V30 1516 C 141.507 -3.34223 1.26609 0
M  V30 1517 C 141.336 -3.53846 2.77531 0
M  V30 1518 C 140.106 -3.68995 3.45212 0
M  V30 1519 C 142.304 -3.51201 3.75716 0
M  V30 1520 N 140.286 -3.76725 4.84718 0
M  V30 1521 C 141.657 -3.65112 5.01092 0
M  V30 1522 C 143.712 -3.34507 3.68794 0
M  V30 1523 C 142.415 -3.64056 6.20368 0
M  V30 1524 C 144.441 -3.34752 4.8754 0
M  V30 1525 C 143.803 -3.49199 6.11751 0
M  V30 1526 H 139.902 -0.698579 0.351443 0
M  V30 1527 H 142.486 -1.37713 1.37634 0
M  V30 1528 H 140.657 -3.81402 0.73395 0
M  V30 1529 H 142.389 -3.93377 0.95062 0
M  V30 1530 H 139.144 -3.70006 2.95622 0
M  V30 1531 H 139.568 -3.8432 5.5734 0
M  V30 1532 H 144.21 -3.22253 2.73702 0
M  V30 1533 H 141.928 -3.75087 7.15776 0
M  V30 1534 H 145.514 -3.23055 4.83866 0
M  V30 1535 H 144.394 -3.49328 7.02097 0
M  V30 1536 N 141.898 -0.863906 -1.31812 0
M  V30 1537 C 143.175 -0.39275 -1.91616 0
M  V30 1538 C 143.555 1.12461 -1.7865 0
M  V30 1539 O 142.903 1.95045 -1.19037 0
M  V30 1540 C 143.113 -0.867385 -3.38049 0
M  V30 1541 C 144.461 -0.889966 -4.15168 0
M  V30 1542 O 145.485 -0.812635 -3.46806 0
M  V30 1543 O 144.344 -1.00079 -5.37258 0
M  V30 1544 H 141.438 -0.116358 -0.818773 0
M  V30 1545 H 143.984 -0.951418 -1.40521 0
M  V30 1546 H 142.756 -1.91081 -3.41473 0
M  V30 1547 H 142.379 -0.286687 -3.96565 0
M  V30 1548 N 143.376 1.44774 -0.622745 0
M  V30 1549 C 144.324 2.32387 0.0994683 0
M  V30 1550 C 145.318 1.46859 0.844326 0
M  V30 1551 O 146.524 1.63254 0.758174 0
M  V30 1552 H 142.899 0.750273 0.0509291 0
M  V30 1553 H 144.87 2.91062 -0.65767 0
M  V30 1554 C 143.619 3.30723 1.07319 0
M  V30 1555 H 142.942 3.96541 0.509462 0
M  V30 1556 H 144.382 3.94725 1.54817 0
M  V30 1557 C 142.841 2.59021 2.15429 0
M  V30 1558 O 143.371 2.38286 3.23393 0
M  V30 1559 N 141.577 2.189 1.91131 0
M  V30 1560 H 141.124 2.35964 1.03337 0
M  V30 1561 H 141.082 1.71251 2.63668 0
M  V30 1562 N 144.854 0.36279 1.53368 0
M  V30 1563 C 145.784 -0.476976 2.28576 0
M  V30 1564 C 146.765 -1.08631 1.30894 0
M  V30 1565 O 147.95 -1.10409 1.59761 0
M  V30 1566 C 145.08 -1.61828 3.07293 0
M  V30 1567 C 144.034 -1.13633 4.1264 0
M  V30 1568 C 143.36 -2.36766 4.79423 0
M  V30 1569 C 144.66 -0.223061 5.21823 0
M  V30 1570 H 146.354 0.150474 2.99022 0
M  V30 1571 H 143.9 0.0738103 1.43811 0
M  V30 1572 H 145.853 -2.21237 3.58653 0
M  V30 1573 H 144.577 -2.27292 2.34533 0
M  V30 1574 H 143.236 -0.564945 3.62221 0
M  V30 1575 H 142.884 -3.0068 4.03238 0
M  V30 1576 H 142.584 -2.05192 5.50609 0
M  V30 1577 H 144.108 -2.96865 5.33576 0
M  V30 1578 H 145.522 -0.724545 5.68703 0
M  V30 1579 H 143.919 0.001678 6.001 0
M  V30 1580 H 144.989 0.735553 4.79289 0
M  V30 1581 N 146.332 -1.57332 0.0918853 0
M  V30 1582 C 147.242 -2.17368 -0.882505 0
M  V30 1583 C 148.258 -1.14226 -1.31257 0
M  V30 1584 O 149.434 -1.46582 -1.38115 0
M  V30 1585 C 146.499 -2.73962 -2.12476 0
M  V30 1586 C 145.56 -3.92048 -1.7492 0
M  V30 1587 C 144.793 -4.45933 -2.93223 0
M  V30 1588 O 145.016 -3.98764 -4.07852 0
M  V30 1589 O 143.95 -5.36999 -2.71875 0
M  V30 1590 H 147.776 -3.01031 -0.40172 0
M  V30 1591 H 145.361 -1.48813 -0.132291 0
M  V30 1592 H 147.243 -3.10147 -2.85283 0
M  V30 1593 H 145.918 -1.93347 -2.59613 0
M  V30 1594 H 144.825 -3.6068 -0.993025 0
M  V30 1595 H 146.158 -4.74017 -1.32548 0
M  V30 1596 N 147.81 0.181792 -1.56548 0
M  V30 1597 C 148.757 1.22521 -1.95595 0
M  V30 1598 C 149.727 1.4454 -0.818373 0
M  V30 1599 O 150.912 1.57454 -1.07763 0
M  V30 1600 C 148.052 2.56193 -2.31212 0
M  V30 1601 C 147.165 2.41641 -3.58097 0
M  V30 1602 C 146.3 3.68108 -3.82975 0
M  V30 1603 C 145.339 3.48445 -5.03242 0
M  V30 1604 N 144.476 4.66956 -5.24306 0
M  V30 1605 H 149.316 0.885226 -2.84548 0
M  V30 1606 H 146.853 0.425718 -1.40805 0
M  V30 1607 H 148.811 3.34088 -2.49882 0
M  V30 1608 H 147.441 2.88208 -1.45382 0
M  V30 1609 H 146.493 1.54976 -3.474 0
M  V30 1610 H 147.805 2.23052 -4.46149 0
M  V30 1611 H 146.959 4.54441 -4.01956 0
M  V30 1612 H 145.698 3.89666 -2.93278 0
M  V30 1613 H 144.703 2.60499 -4.8417 0
M  V30 1614 H 145.928 3.2832 -5.9446 0
M  V30 1615 H 143.874 4.88752 -4.37559 0
M  V30 1616 H 143.791 4.51242 -6.06561 0
M  V30 1617 H 145.059 5.54602 -5.47756 0
M  V30 1618 N 149.288 1.51039 0.449983 0
M  V30 1619 C 150.198 1.74261 1.57067 0
M  V30 1620 C 151.214 0.626363 1.62335 0
M  V30 1621 O 152.39 0.907162 1.79812 0
M  V30 1622 C 149.455 1.85114 2.93144 0
M  V30 1623 C 148.516 3.0893 2.98095 0
M  V30 1624 C 147.749 3.19256 4.27681 0
M  V30 1625 O 147.972 2.35835 5.19363 0
M  V30 1626 O 146.906 4.12144 4.38658 0
M  V30 1627 H 150.732 2.69303 1.40391 0
M  V30 1628 H 148.317 1.35389 0.631688 0
M  V30 1629 H 150.199 1.94311 3.73926 0
M  V30 1630 H 148.874 0.932588 3.09975 0
M  V30 1631 H 147.781 3.0522 2.16314 0
M  V30 1632 H 149.114 4.00433 2.86206 0
M  V30 1633 N 150.766 -0.704594 1.40972 0
M  V30 1634 C 151.994 -1.49354 1.43182 0
M  V30 1635 C 152.409 -1.88768 0.0345508 0
M  V30 1636 O 151.766 -1.56184 -0.944081 0
M  V30 1637 C 151.817 -2.76187 2.33244 0
M  V30 1638 O 151.538 -2.38436 3.67532 0
M  V30 1639 C 153.039 -3.7 2.44162 0
M  V30 1640 H 150.259 -0.460559 0.487982 0
M  V30 1641 H 152.803 -0.868261 1.85153 0
M  V30 1642 H 150.958 -3.34974 1.94606 0
M  V30 1643 H 151.372 -3.20126 4.15475 0
M  V30 1644 H 152.846 -4.55803 3.11364 0
M  V30 1645 H 153.323 -4.13867 1.47006 0
M  V30 1646 H 153.929 -3.17121 2.83398 0
M  V30 1647 N 152.244 -1.26651 -0.937939 0
M  V30 1648 C 153.154 -1.10276 -2.07066 0
M  V30 1649 C 154.17 -0.0354197 -1.73964 0
M  V30 1650 O 155.346 -0.239816 -1.99967 0
M  V30 1651 C 152.411 -0.740887 -3.38691 0
M  V30 1652 C 151.472 -1.88799 -3.85556 0
M  V30 1653 C 150.705 -1.54329 -5.10899 0
M  V30 1654 O 150.928 -0.446494 -5.6865 0
M  V30 1655 O 149.862 -2.37911 -5.52885 0
M  V30 1656 H 153.688 -2.05309 -2.23789 0
M  V30 1657 H 151.273 -1.05743 -1.0554 0
M  V30 1658 H 153.155 -0.55195 -4.1777 0
M  V30 1659 H 151.83 0.180022 -3.23199 0
M  V30 1660 H 150.737 -2.13191 -3.07409 0
M  V30 1661 H 152.07 -2.78874 -4.05574 0
M  V30 1662 N 153.722 1.14298 -1.08507 0
M  V30 1663 C 154.97 1.84993 -0.813763 0
M  V30 1664 C 155.291 1.83405 0.662393 0
M  V30 1665 O 154.561 1.28319 1.48024 0
M  V30 1666 H 153.141 0.684966 -0.298045 0
M  V30 1667 H 155.803 1.385 -1.37126 0
M  V30 1668 H 154.899 2.89788 -1.15884 0
M  V30 1669 N 155.201 0.870884 1.31352 0
M  V30 1670 C 156.131 0.343096 2.30966 0
M  V30 1671 C 157.112 -0.566507 1.60389 0
M  V30 1672 O 158.297 -0.483336 1.88089 0
M  V30 1673 C 155.427 -0.455487 3.443 0
M  V30 1674 C 154.381 0.361103 4.26474 0
M  V30 1675 C 153.707 -0.563221 5.31725 0
M  V30 1676 C 155.007 1.59566 4.97329 0
M  V30 1677 H 156.701 1.17548 2.75359 0
M  V30 1678 H 154.247 0.566686 1.32381 0
M  V30 1679 H 156.2 -0.83525 4.13039 0
M  V30 1680 H 154.924 -1.32139 2.98675 0
M  V30 1681 H 153.583 0.722825 3.59403 0
M  V30 1682 H 153.231 -1.42643 4.82351 0
M  V30 1683 H 152.931 -0.0207409 5.87596 0
M  V30 1684 H 154.455 -0.939808 6.03324 0
M  V30 1685 H 155.869 1.28728 5.58661 0
M  V30 1686 H 154.266 2.07728 5.63 0
M  V30 1687 H 155.336 2.34798 4.24262 0
M  V30 1688 N 156.679 -1.44442 0.630414 0
M  V30 1689 C 158.095 -1.56832 0.295973 0
M  V30 1690 C 158.295 -1.61806 -1.20088 0
M  V30 1691 O 157.351 -1.5607 -1.9849 0
M  V30 1692 C 158.664 -2.84031 0.987264 0
M  V30 1693 C 160.212 -2.97742 0.96534 0
M  V30 1694 C 160.687 -4.27743 1.63708 0
M  V30 1695 N 162.178 -4.34555 1.60364 0
M  V30 1696 C 162.913 -5.33862 2.09234 0
M  V30 1697 N 162.409 -6.39578 2.66292 0
M  V30 1698 N 164.202 -5.25366 1.99867 0
M  V30 1699 H 156.353 -1.39457 1.60205 0
M  V30 1700 H 158.616 -0.668237 0.672431 0
M  V30 1701 H 158.322 -2.86338 2.04215 0
M  V30 1702 H 158.196 -3.73534 0.524588 0
M  V30 1703 H 160.583 -2.94989 -0.0810639 0
M  V30 1704 H 160.664 -2.09589 1.4665 0
M  V30 1705 H 160.308 -4.31255 2.68293 0
M  V30 1706 H 160.238 -5.14752 1.11076 0
M  V30 1707 H 162.729 -3.58772 1.18705 0
M  V30 1708 H 163.042 -7.11637 3.01317 0
M  V30 1709 H 161.387 -6.40265 2.70343 0
M  V30 1710 H 164.578 -4.41688 1.55013 0
M  V30 1711 H 164.751 -6.02606 2.38265 0
M  V30 1712 N 158.157 -0.370918 -1.53173 0
M  V30 1713 C 159.089 0.507823 -2.23503 0
M  V30 1714 C 160.102 1.04182 -1.251 0
M  V30 1715 O 161.291 0.947286 -1.5129 0
M  V30 1716 C 158.391 1.71447 -2.92334 0
M  V30 1717 C 157.564 1.31105 -4.17289 0
M  V30 1718 C 156.623 2.38035 -4.69282 0
M  V30 1719 O 155.649 2.00204 -5.32829 0
M  V30 1720 N 156.851 3.69697 -4.47554 0
M  V30 1721 H 159.616 -0.0946382 -2.99551 0
M  V30 1722 H 157.177 -0.196358 -1.60705 0
M  V30 1723 H 159.169 2.42469 -3.24023 0
M  V30 1724 H 157.739 2.22368 -2.19707 0
M  V30 1725 H 156.959 0.430462 -3.91843 0
M  V30 1726 H 158.247 1.0179 -4.98514 0
M  V30 1727 H 157.645 4.03205 -3.9679 0
M  V30 1728 H 156.202 4.36807 -4.8378 0
M  V30 1729 N 159.635 1.57281 -0.100228 0
M  V30 1730 C 160.545 2.17833 0.870965 0
M  V30 1731 C 161.561 1.14921 1.30649 0
M  V30 1732 O 162.737 1.47313 1.37335 0
M  V30 1733 C 159.802 2.75085 2.1102 0
M  V30 1734 C 158.863 3.9297 1.72838 0
M  V30 1735 C 158.096 4.47482 2.90854 0
M  V30 1736 O 158.319 4.00922 4.05731 0
M  V30 1737 O 157.253 5.38433 2.69023 0
M  V30 1738 H 161.079 3.0124 0.38575 0
M  V30 1739 H 158.664 1.48881 0.124397 0
M  V30 1740 H 160.546 3.11656 2.83634 0
M  V30 1741 H 159.221 1.94721 2.58584 0
M  V30 1742 H 158.128 3.61201 0.973883 0
M  V30 1743 H 159.461 4.74713 1.30033 0
M  V30 1744 N 161.113 -0.173488 1.56642 0
M  V30 1745 C 162.046 -1.24353 1.91342 0
M  V30 1746 C 163.024 -1.4289 0.775965 0
M  V30 1747 O 164.208 -1.57932 1.02907 0
M  V30 1748 C 161.335 -2.60683 2.16245 0
M  V30 1749 C 160.381 -2.58894 3.38934 0
M  V30 1750 S 161.214 -2.0819 4.93373 0
M  V30 1751 C 162.37 -3.46302 5.21369 0
M  V30 1752 H 162.603 -0.947345 2.81803 0
M  V30 1753 H 160.136 -0.377958 1.49703 0
M  V30 1754 H 162.094 -3.39149 2.31275 0
M  V30 1755 H 160.755 -2.87502 1.26496 0
M  V30 1756 H 159.948 -3.59188 3.53553 0
M  V30 1757 H 159.55 -1.88522 3.2301 0
M  V30 1758 H 161.842 -4.42287 5.13214 0
M  V30 1759 H 162.785 -3.3656 6.23003 0
M  V30 1760 H 163.193 -3.42214 4.48943 0
M  V30 1761 N 162.591 -1.51276 -0.441967 0
M  V30 1762 C 163.816 -1.67799 -1.21895 0
M  V30 1763 C 164.241 -0.372864 -1.84367 0
M  V30 1764 O 163.599 0.666501 -1.68604 0
M  V30 1765 C 163.647 -2.79199 -2.28211 0
M  V30 1766 O 162.751 -2.42479 -3.33583 0
M  V30 1767 H 162.092 -0.559649 -0.357336 0
M  V30 1768 H 164.622 -1.97815 -0.522522 0
M  V30 1769 H 164.632 -3.03146 -2.73069 0
M  V30 1770 H 163.307 -3.73906 -1.82118 0
M  V30 1771 H 161.884 -2.29087 -2.94234 0
M  V30 1772 N 164.069 0.697108 -1.41344 0
M  V30 1773 C 165.016 1.81106 -1.43071 0
M  V30 1774 C 165.986 1.63632 -0.285275 0
M  V30 1775 O 167.171 1.84504 -0.486091 0
M  V30 1776 C 164.311 3.18975 -1.31715 0
M  V30 1777 C 163.424 3.47892 -2.56115 0
M  V30 1778 C 162.559 4.75367 -2.37064 0
M  V30 1779 C 161.598 4.97247 -3.56948 0
M  V30 1780 N 160.735 6.15947 -3.36977 0
M  V30 1781 H 165.575 1.78965 -2.38276 0
M  V30 1782 H 163.112 0.873975 -1.18322 0
M  V30 1783 H 165.07 3.98615 -1.23133 0
M  V30 1784 H 163.7 3.20297 -0.401183 0
M  V30 1785 H 162.752 2.62669 -2.75153 0
M  V30 1786 H 164.064 3.59962 -3.45295 0
M  V30 1787 H 163.218 5.63059 -2.25941 0
M  V30 1788 H 161.957 4.65541 -1.45338 0
M  V30 1789 H 160.962 4.08004 -3.68527 0
M  V30 1790 H 162.187 5.08934 -4.49626 0
M  V30 1791 H 160.133 6.07336 -2.47949 0
M  V30 1792 H 160.05 6.28777 -4.19732 0
M  V30 1793 H 161.318 7.06377 -3.29623 0
M  V30 1794 N 165.547 1.27147 0.931209 0
M  V30 1795 C 166.824 1.0401 1.65654 0
M  V30 1796 C 167.204 -0.426297 2.06751 0
M  V30 1797 O 166.552 -1.40879 1.79904 0
M  V30 1798 C 166.762 1.99834 2.86125 0
M  V30 1799 C 168.11 2.29007 3.57549 0
M  V30 1800 O 169.134 1.97779 2.96246 0
M  V30 1801 O 167.993 2.82222 4.67989 0
M  V30 1802 H 165.087 0.396239 0.725895 0
M  V30 1803 H 167.633 1.38397 0.982056 0
M  V30 1804 H 166.405 2.98744 2.52721 0
M  V30 1805 H 166.028 1.65987 3.61295 0
M  V30 1806 N 167.025 -1.13721 1.09112 0
M  V30 1807 C 167.955 -2.21148 0.749385 0
M  V30 1808 C 168.936 -1.6792 -0.271475 0
M  V30 1809 O 170.121 -1.93693 -0.140251 0
M  V30 1810 C 167.251 -3.46905 0.165659 0
M  V30 1811 C 166.205 -4.13203 1.11567 0
M  V30 1812 C 165.531 -5.33248 0.393809 0
M  V30 1813 C 166.831 -4.60912 2.45678 0
M  V30 1814 H 168.525 -2.4999 1.64758 0
M  V30 1815 H 166.071 -1.20156 0.793626 0
M  V30 1816 H 168.024 -4.21313 -0.085466 0
M  V30 1817 H 166.748 -3.17449 -0.767714 0
M  V30 1818 H 165.407 -3.40758 1.35202 0
M  V30 1819 H 165.055 -5.00054 -0.543599 0
M  V30 1820 H 164.755 -5.78552 1.02721 0
M  V30 1821 H 166.279 -6.10413 0.150908 0
M  V30 1822 H 167.693 -5.26759 2.26269 0
M  V30 1823 H 166.09 -5.16944 3.04776 0
M  V30 1824 H 167.16 -3.75603 3.06677 0
M  V30 1825 N 168.503 -0.877838 -1.30888 0
M  V30 1826 C 169.413 -0.343096 -2.32078 0
M  V30 1827 C 170.429 0.551022 -1.65045 0
M  V30 1828 O 171.605 0.445854 -1.96403 0
M  V30 1829 C 168.67 0.439905 -3.43898 0
M  V30 1830 C 167.731 -0.483111 -4.26573 0
M  V30 1831 C 166.964 0.262616 -5.33053 0
M  V30 1832 O 167.187 1.48967 -5.50604 0
M  V30 1833 O 166.121 -0.383593 -6.00676 0
M  V30 1834 H 169.947 -1.18203 -2.79753 0
M  V30 1835 H 167.532 -0.64145 -1.34929 0
M  V30 1836 H 169.414 0.883504 -4.12034 0
M  V30 1837 H 168.089 1.25526 -2.98371 0
M  V30 1838 H 166.996 -0.975374 -3.61161 0
M  V30 1839 H 168.329 -1.26427 -4.75686 0
M  V30 1840 N 169.982 1.44106 -0.638065 0
M  V30 1841 C 170.892 2.34513 0.0637334 0
M  V30 1842 C 171.908 1.53018 0.828346 0
M  V30 1843 O 173.084 1.85723 0.779036 0
M  V30 1844 C 170.149 3.31095 1.02844 0
M  V30 1845 C 169.21 4.28497 0.26244 0
M  V30 1846 C 168.443 5.20465 1.1812 0
M  V30 1847 O 168.666 5.16514 2.42011 0
M  V30 1848 O 167.6 5.98251 0.661774 0
M  V30 1849 H 171.426 2.95989 -0.68003 0
M  V30 1850 H 169.011 1.43994 -0.398252 0
M  V30 1851 H 170.893 3.90526 1.58327 0
M  V30 1852 H 169.568 2.72144 1.7527 0
M  V30 1853 H 168.475 3.72592 -0.335602 0
M  V30 1854 H 169.808 4.90388 -0.421936 0
M  V30 1855 N 171.46 0.379036 1.52974 0
M  V30 1856 C 172.706 -0.206727 2.01744 0
M  V30 1857 C 173.039 -1.47314 1.26539 0
M  V30 1858 O 172.314 -1.91084 0.362903 0
M  V30 1859 C 172.597 -0.485066 3.56818 0
M  V30 1860 C 172.45 0.795919 4.42702 0
M  V30 1861 C 173.769 -1.28003 4.21074 0
M  V30 1862 H 170.888 -0.0736607 0.73331 0
M  V30 1863 H 173.53 0.506581 1.83122 0
M  V30 1864 H 171.68 -1.09272 3.72816 0
M  V30 1865 H 173.352 1.43307 4.38476 0
M  V30 1866 H 171.595 1.41344 4.10127 0
M  V30 1867 H 172.266 0.555947 5.49193 0
M  V30 1868 H 174.742 -0.765867 4.08991 0
M  V30 1869 H 173.618 -1.44352 5.29579 0
M  V30 1870 H 173.879 -2.29236 3.78026 0
M  V30 1871 N 172.938 -1.57226 0.108567 0
M  V30 1872 C 173.885 -2.14756 -0.845481 0
M  V30 1873 C 174.855 -1.06971 -1.27068 0
M  V30 1874 O 176.04 -1.34827 -1.35005 0
M  V30 1875 C 173.18 -2.74298 -2.09415 0
M  V30 1876 C 172.293 -3.96358 -1.71826 0
M  V30 1877 C 171.428 -4.44021 -2.9158 0
M  V30 1878 C 170.467 -5.58637 -2.50181 0
M  V30 1879 N 169.604 -6.01091 -3.62814 0
M  V30 1880 H 174.444 -2.95961 -0.348035 0
M  V30 1881 H 171.981 -1.46226 -0.160106 0
M  V30 1882 H 173.939 -3.06945 -2.82561 0
M  V30 1883 H 172.569 -1.95801 -2.56636 0
M  V30 1884 H 171.621 -3.69939 -0.885947 0
M  V30 1885 H 172.933 -4.79504 -1.37394 0
M  V30 1886 H 172.087 -4.78522 -3.72963 0
M  V30 1887 H 170.826 -3.59803 -3.29231 0
M  V30 1888 H 169.831 -5.23751 -1.67228 0
M  V30 1889 H 171.056 -6.44613 -2.13659 0
M  V30 1890 H 169.002 -5.19817 -4.00158 0
M  V30 1891 H 168.919 -6.79066 -3.32273 0
M  V30 1892 H 170.187 -6.40227 -4.44668 0
M  V30 1893 N 174.416 0.165178 -1.56732 0
M  V30 1894 C 175.379 1.18822 -1.95995 0
M  V30 1895 C 176.379 1.3685 -0.84431 0
M  V30 1896 O 177.569 1.34152 -1.11126 0
M  V30 1897 C 174.701 2.5521 -2.26011 0
M  V30 1898 H 175.894 0.851825 -2.87548 0
M  V30 1899 H 173.447 0.407857 -1.50885 0
M  V30 1900 H 174.182 2.93852 -1.37191 0
M  V30 1901 H 173.967 2.43489 -3.07336 0
M  V30 1902 H 175.457 3.28927 -2.57288 0
M  V30 1903 N 175.894 1.51508 0.433938 0
M  V30 1904 C 176.841 1.73068 1.52696 0
M  V30 1905 C 177.811 0.572441 1.55924 0
M  V30 1906 O 178.996 0.807253 1.72882 0
M  V30 1907 C 176.136 1.86474 2.90381 0
M  V30 1908 C 175.249 3.14037 2.96656 0
M  V30 1909 C 174.384 3.18019 4.25485 0
M  V30 1910 C 173.423 4.39882 4.2564 0
M  V30 1911 N 172.56 4.41394 5.45999 0
M  V30 1912 H 177.4 2.66366 1.33615 0
M  V30 1913 H 174.937 1.32008 0.649018 0
M  V30 1914 H 176.895 1.92229 3.70275 0
M  V30 1915 H 175.525 0.965809 3.08013 0
M  V30 1916 H 174.577 3.17575 2.09404 0
M  V30 1917 H 175.889 4.0394 2.92633 0
M  V30 1918 H 175.043 3.22708 5.13755 0
M  V30 1919 H 173.782 2.2601 4.3217 0
M  V30 1920 H 172.787 4.35366 3.35763 0
M  V30 1921 H 174.012 5.33159 4.20617 0
M  V30 1922 H 171.958 3.52258 5.53399 0
M  V30 1923 H 171.875 5.25111 5.4387 0
M  V30 1924 H 173.143 4.50281 6.36292 0
M  V30 1925 N 177.372 -0.689602 1.41712 0
M  V30 1926 C 178.618 -1.45181 1.41599 0
M  V30 1927 C 178.951 -1.94181 0.0270081 0
M  V30 1928 O 178.226 -1.6993 -0.946265 0
M  V30 1929 C 178.509 -2.65945 2.42787 0
M  V30 1930 C 178.362 -2.22672 3.90816 0
M  V30 1931 C 179.681 -3.68149 2.41151 0
M  V30 1932 H 176.8 -0.526576 0.515642 0
M  V30 1933 H 179.442 -0.784947 1.73028 0
M  V30 1934 H 177.592 -3.2284 2.16116 0
M  V30 1935 H 179.264 -1.71058 4.28412 0
M  V30 1936 H 177.507 -1.54394 4.05395 0
M  V30 1937 H 178.178 -3.0935 4.57172 0
M  V30 1938 H 180.654 -3.2094 2.64834 0
M  V30 1939 H 179.53 -4.50248 3.13955 0
M  V30 1940 H 179.791 -4.18259 1.43221 0
M  V30 1941 N 178.85 -1.27639 -0.924453 0
M  V30 1942 C 179.782 -1.06442 -2.02985 0
M  V30 1943 C 180.795 -0.0194771 -1.62788 0
M  V30 1944 O 181.984 -0.261388 -1.76576 0
M  V30 1945 C 179.084 -0.59327 -3.33667 0
M  V30 1946 C 178.257 -1.71123 -4.02537 0
M  V30 1947 C 177.316 -1.23527 -5.11495 0
M  V30 1948 O 176.342 -1.93553 -5.35281 0
M  V30 1949 N 177.544 -0.0926678 -5.80426 0
M  V30 1950 H 180.309 -2.01633 -2.2173 0
M  V30 1951 H 177.87 -1.19248 -1.09505 0
M  V30 1952 H 179.862 -0.258686 -4.03872 0
M  V30 1953 H 178.432 0.265502 -3.1147 0
M  V30 1954 H 177.652 -2.21593 -3.26022 0
M  V30 1955 H 178.94 -2.46145 -4.45298 0
M  V30 1956 H 178.338 0.491741 -5.63559 0
M  V30 1957 H 176.895 0.182714 -6.51544 0
M  V30 1958 N 180.328 1.1314 -1.09713 0
M  V30 1959 C 181.739 1.66029 -0.853885 0
M  V30 1960 C 182.09 1.86241 0.617142 0
M  V30 1961 O 181.215 1.5834 1.47503 0
M  V30 1962 C 181.81 3.01599 -1.5435 0
M  V30 1963 C 180.369 3.51467 -1.34714 0
M  V30 1964 C 179.516 2.26648 -1.59769 0
M  V30 1965 H 182.467 0.970226 -1.25588 0
M  V30 1966 H 182.488 3.67709 -0.978267 0
M  V30 1967 H 182 2.86856 -2.6141 0
M  V30 1968 H 180.101 3.71408 -0.297838 0
M  V30 1969 H 180.214 4.314 -2.08401 0
M  V30 1970 H 178.578 2.33385 -1.01998 0
M  V30 1971 H 179.361 2.14467 -2.68065 0
M  V30 1972 N 181.806 0.884767 1.30421 0
M  V30 1973 C 183.036 0.517293 2.00019 0
M  V30 1974 C 183.444 -0.898632 1.66497 0
M  V30 1975 O 182.787 -1.60245 0.898181 0
M  V30 1976 C 182.849 0.612025 3.54252 0
M  V30 1977 C 182.513 1.99222 4.1129 0
M  V30 1978 C 183.51 2.9616 4.273 0
M  V30 1979 C 181.195 2.29755 4.46674 0
M  V30 1980 C 183.189 4.21764 4.77906 0
M  V30 1981 C 180.876 3.55606 4.96979 0
M  V30 1982 C 181.874 4.51425 5.12547 0
M  V30 1983 O 181.562 5.75043 5.61766 0
M  V30 1984 H 181.294 0.198529 0.64619 0
M  V30 1985 H 183.848 1.1919 1.67281 0
M  V30 1986 H 182.078 -0.119561 3.86515 0
M  V30 1987 H 183.767 0.255859 4.05093 0
M  V30 1988 H 184.533 2.73882 4.00267 0
M  V30 1989 H 180.412 1.55942 4.33824 0
M  V30 1990 H 183.956 4.96561 4.89972 0
M  V30 1991 H 179.853 3.7772 5.23448 0
M  V30 1992 H 180.621 5.77422 5.80109 0
M  V30 1993 N 183.284 -1.43765 0.645699 0
M  V30 1994 C 184.214 -2.33471 -0.0370477 0
M  V30 1995 C 185.195 -1.49042 -0.819779 0
M  V30 1996 O 186.38 -1.77726 -0.782758 0
M  V30 1997 C 183.51 -3.32311 -1.0093 0
M  V30 1998 C 182.464 -4.2667 -0.337201 0
M  V30 1999 C 181.79 -5.1549 -1.42037 0
M  V30 2000 C 183.09 -5.16657 0.765706 0
M  V30 2001 H 184.784 -2.90809 0.712069 0
M  V30 2002 H 182.33 -1.39834 0.343876 0
M  V30 2003 H 184.283 -3.9396 -1.49578 0
M  V30 2004 H 183.007 -2.73213 -1.78948 0
M  V30 2005 H 181.666 -3.66374 0.128771 0
M  V30 2006 H 181.314 -4.52735 -2.1918 0
M  V30 2007 H 181.014 -5.79438 -0.975966 0
M  V30 2008 H 182.538 -5.80012 -1.90838 0
M  V30 2009 H 183.952 -5.72158 0.361702 0
M  V30 2010 H 182.349 -5.89286 1.13413 0
M  V30 2011 H 183.419 -4.56796 1.62683 0
M  V30 2012 N 184.763 -0.387143 -1.52771 0
M  V30 2013 C 186.04 0.253197 -1.93954 0
M  V30 2014 C 186.42 1.64545 -1.32243 0
M  V30 2015 O 185.768 2.23191 -0.489699 0
M  V30 2016 C 185.978 0.281722 -3.47861 0
M  V30 2017 C 187.326 0.511715 -4.21505 0
M  V30 2018 O 188.35 0.362023 -3.54356 0
M  V30 2019 O 187.209 0.804847 -5.40541 0
M  V30 2020 H 184.303 0.156845 -0.811991 0
M  V30 2021 H 186.849 -0.441494 -1.63856 0
M  V30 2022 H 185.621 -0.693571 -3.85104 0
M  V30 2023 H 185.244 1.02142 -3.84256 0
M  V30 2024 N 186.241 1.57166 -0.116904 0
M  V30 2025 C 187.518 1.86645 0.585049 0
M  V30 2026 C 187.898 1.0177 1.84949 0
M  V30 2027 O 187.246 0.0960379 2.28298 0
M  V30 2028 C 187.456 3.37736 0.879507 0
M  V30 2029 C 188.804 4.06289 1.23348 0
M  V30 2030 O 189.828 3.42743 0.969836 0
M  V30 2031 O 188.687 5.18455 1.7282 0
M  V30 2032 H 185.781 0.772593 0.295007 0
M  V30 2033 H 188.327 1.69025 -0.151249 0
M  V30 2034 H 187.099 3.91296 -0.0166136 0
M  V30 2035 H 186.722 3.6078 1.67103 0
M  V30 2036 N 187.719 -0.156864 1.56817 0
M  V30 2037 C 188.966 -0.871125 1.82805 0
M  V30 2038 C 189.294 -1.81611 0.696262 0
M  V30 2039 O 188.549 -1.93141 -0.315459 0
M  V30 2040 C 188.848 -1.68737 3.1506 0
M  V30 2041 C 188.514 -0.890045 4.42028 0
M  V30 2042 C 187.176 -0.670042 4.76512 0
M  V30 2043 C 189.528 -0.331769 5.20143 0
M  V30 2044 C 186.856 0.119104 5.86579 0
M  V30 2045 C 189.208 0.444365 6.31037 0
M  V30 2046 C 187.872 0.675035 6.64078 0
M  V30 2047 H 187.142 -0.318767 0.668931 0
M  V30 2048 H 189.789 -0.135274 1.91022 0
M  V30 2049 H 188.094 -2.49304 3.0225 0
M  V30 2050 H 189.791 -2.24331 3.3238 0
M  V30 2051 H 186.381 -1.07157 4.14988 0
M  V30 2052 H 190.565 -0.489043 4.93885 0
M  V30 2053 H 185.821 0.307417 6.10627 0
M  V30 2054 H 189.995 0.884139 6.90765 0
M  V30 2055 H 187.622 1.28839 7.49203 0
M  V30 2056 N 189.197 -1.51736 -0.425897 0
M  V30 2057 C 190.129 -1.70083 -1.53638 0
M  V30 2058 C 191.142 -0.581349 -1.52066 0
M  V30 2059 O 192.331 -0.856017 -1.56635 0
M  V30 2060 C 189.431 -1.71078 -2.9255 0
M  V30 2061 C 188.604 -2.99795 -3.185 0
M  V30 2062 C 187.663 -2.92825 -4.37196 0
M  V30 2063 O 186.689 -3.66756 -4.35291 0
M  V30 2064 N 187.891 -2.0946 -5.41393 0
M  V30 2065 H 190.656 -2.65882 -1.383 0
M  V30 2066 H 188.217 -1.49765 -0.614988 0
M  V30 2067 H 190.209 -1.63969 -3.69995 0
M  V30 2068 H 188.779 -0.828242 -3.01428 0
M  V30 2069 H 187.999 -3.20684 -2.2925 0
M  V30 2070 H 189.287 -3.84977 -3.32671 0
M  V30 2071 H 188.685 -1.48792 -5.45781 0
M  V30 2072 H 187.242 -2.08221 -6.17647 0
M  V30 2073 N 190.675 0.682077 -1.42076 0
M  V30 2074 C 191.622 1.79578 -1.44984 0
M  V30 2075 C 192.592 1.6332 -0.302614 0
M  V30 2076 O 193.777 1.83978 -0.505633 0
M  V30 2077 C 190.917 3.1756 -1.35091 0
M  V30 2078 C 190.03 3.45156 -2.59791 0
M  V30 2079 C 189.165 4.72826 -2.42093 0
M  V30 2080 C 188.204 4.93433 -3.62202 0
M  V30 2081 N 187.341 6.12338 -3.43491 0
M  V30 2082 H 192.181 1.76427 -2.40161 0
M  V30 2083 H 189.718 0.861376 -1.19242 0
M  V30 2084 H 191.676 3.97287 -1.27354 0
M  V30 2085 H 190.306 3.19854 -0.435133 0
M  V30 2086 H 189.358 2.59736 -2.77923 0
M  V30 2087 H 190.67 3.5628 -3.49094 0
M  V30 2088 H 189.824 5.60631 -2.319 0
M  V30 2089 H 188.563 4.63973 -1.50268 0
M  V30 2090 H 187.568 4.04073 -3.72834 0
M  V30 2091 H 188.793 5.04136 -4.54998 0
M  V30 2092 H 186.739 6.04672 -2.54377 0
M  V30 2093 H 186.656 6.2429 -4.26377 0
M  V30 2094 H 187.924 7.02841 -3.37097 0
M  V30 2095 N 192.153 1.28127 0.917671 0
M  V30 2096 C 193.1 1.11717 2.0196 0
M  V30 2097 C 194.07 0.0153929 1.66093 0
M  V30 2098 O 195.255 0.179596 1.89953 0
M  V30 2099 C 192.395 0.780927 3.36148 0
M  V30 2100 C 191.508 1.96135 3.84909 0
M  V30 2101 C 190.643 1.56609 5.0759 0
M  V30 2102 C 189.682 2.71339 5.48673 0
M  V30 2103 N 188.819 2.32332 6.62545 0
M  V30 2104 H 193.659 2.06003 2.15329 0
M  V30 2105 H 191.196 1.02535 1.05475 0
M  V30 2106 H 193.154 0.56675 4.13333 0
M  V30 2107 H 191.784 -0.124998 3.22558 0
M  V30 2108 H 190.836 2.28777 3.03916 0
M  V30 2109 H 192.148 2.82165 4.1132 0
M  V30 2110 H 191.302 1.31374 5.92305 0
M  V30 2111 H 190.041 0.677014 4.82978 0
M  V30 2112 H 189.046 2.97276 4.62501 0
M  V30 2113 H 190.271 3.60882 5.75274 0
M  V30 2114 H 188.217 1.45889 6.39572 0
M  V30 2115 H 188.134 3.11899 6.88662 0
M  V30 2116 H 189.402 2.10371 7.50576 0
M  V30 2117 N 193.631 -1.12557 1.10312 0
M  V30 2118 C 194.877 -1.84515 0.855901 0
M  V30 2119 C 195.232 -1.82409 -0.611936 0
M  V30 2120 O 194.525 -1.25778 -1.44535 0
M  V30 2121 C 194.719 -3.31462 1.33669 0
M  V30 2122 C 194.548 -3.47879 2.84974 0
M  V30 2123 C 193.318 -3.61589 3.52961 0
M  V30 2124 C 195.516 -3.43152 3.83081 0
M  V30 2125 N 193.498 -3.66359 4.926 0
M  V30 2126 C 194.869 -3.54401 5.08724 0
M  V30 2127 C 196.924 -3.2661 3.75807 0
M  V30 2128 C 195.627 -3.50815 6.2795 0
M  V30 2129 C 197.653 -3.24335 4.94531 0
M  V30 2130 C 197.015 -3.36144 6.19021 0
M  V30 2131 H 193.114 -0.690967 0.366182 0
M  V30 2132 H 195.698 -1.34763 1.40524 0
M  V30 2133 H 193.869 -3.7976 0.814686 0
M  V30 2134 H 195.601 -3.91272 1.03385 0
M  V30 2135 H 192.356 -3.63652 3.03404 0
M  V30 2136 H 192.78 -3.72411 5.65366 0
M  V30 2137 H 197.422 -3.16375 2.80476 0
M  V30 2138 H 195.14 -3.5982 7.23571 0
M  V30 2139 H 198.726 -3.12719 4.9061 0
M  V30 2140 H 197.606 -3.34357 7.09348 0
M  V30 2141 N 195.109 -0.891671 -1.2995 0
M  V30 2142 C 196.041 -0.320695 -2.26945 0
M  V30 2143 C 197.054 0.528497 -1.53983 0
M  V30 2144 O 198.243 0.346959 -1.75096 0
M  V30 2145 C 195.343 0.562066 -3.34207 0
M  V30 2146 C 194.516 -0.259576 -4.36629 0
M  V30 2147 C 193.575 0.554739 -5.23268 0
M  V30 2148 O 192.601 -0.0249311 -5.69195 0
M  V30 2149 N 193.803 1.8625 -5.4981 0
M  V30 2150 H 196.568 -1.15432 -2.76578 0
M  V30 2151 H 194.129 -0.755336 -1.432 0
M  V30 2152 H 196.121 1.11304 -3.89093 0
M  V30 2153 H 194.691 1.29637 -2.84452 0
M  V30 2154 H 193.911 -0.991986 -3.81514 0
M  V30 2155 H 195.199 -0.822564 -5.02107 0
M  V30 2156 H 194.597 2.35628 -5.14292 0
M  V30 2157 H 193.154 2.36078 -6.07545 0
M  V30 2158 N 196.587 1.43421 -0.653314 0
M  V30 2159 C 197.497 2.34568 0.0388565 0
M  V30 2160 C 198.513 1.53888 0.81207 0
M  V30 2161 O 199.689 1.86539 0.759294 0
M  V30 2162 C 196.754 3.32167 0.993269 0
M  V30 2163 C 195.815 4.28751 0.216977 0
M  V30 2164 C 195.048 5.21688 1.12593 0
M  V30 2165 O 195.271 5.19052 2.36519 0
M  V30 2166 O 194.205 5.98919 0.598284 0
M  V30 2167 H 198.031 2.95251 -0.711386 0
M  V30 2168 H 195.616 1.43564 -0.413502 0
M  V30 2169 H 197.498 3.92183 1.54176 0
M  V30 2170 H 196.173 2.73987 1.72374 0
M  V30 2171 H 195.08 3.72215 -0.375101 0
M  V30 2172 H 196.413 4.89913 -0.473924 0
M  V30 2173 N 198.065 0.39524 1.52563 0
M  V30 2174 C 198.975 -0.444232 2.30356 0
M  V30 2175 C 199.991 -1.06615 1.37511 0
M  V30 2176 O 201.167 -1.07067 1.70583 0
M  V30 2177 C 198.232 -1.55315 3.09964 0
M  V30 2178 C 197.293 -0.955734 4.18526 0
M  V30 2179 C 196.526 -2.01181 4.9433 0
M  V30 2180 O 196.749 -3.22781 4.70285 0
M  V30 2181 O 195.683 -1.62579 5.79527 0
M  V30 2182 H 199.509 0.189667 3.03107 0
M  V30 2183 H 197.094 0.1588 1.48554 0
M  V30 2184 H 198.976 -2.19724 3.59582 0
M  V30 2185 H 197.651 -2.17191 2.4002 0
M  V30 2186 H 196.558 -0.274743 3.7309 0
M  V30 2187 H 197.891 -0.381109 4.90722 0
M  V30 2188 N 199.544 -1.57102 0.125237 0
M  V30 2189 C 200.477 -2.11371 -0.860094 0
M  V30 2190 C 201.455 -1.03168 -1.25679 0
M  V30 2191 O 202.639 -1.30862 -1.35674 0
M  V30 2192 C 199.766 -2.61555 -2.1519 0
M  V30 2193 C 198.812 -3.81701 -1.9028 0
M  V30 2194 S 199.645 -5.23797 -1.11343 0
M  V30 2195 C 200.801 -5.77353 -2.41689 0
M  V30 2196 H 201.034 -2.94617 -0.39852 0
M  V30 2197 H 198.567 -1.54145 -0.0886555 0
M  V30 2198 H 200.525 -2.91122 -2.89411 0
M  V30 2199 H 199.186 -1.78479 -2.58465 0
M  V30 2200 H 198.379 -4.14985 -2.86014 0
M  V30 2201 H 197.981 -3.52783 -1.24178 0
M  V30 2202 H 200.273 -5.87458 -3.37489 0
M  V30 2203 H 201.216 -6.75323 -2.12942 0
M  V30 2204 H 201.624 -5.05457 -2.51342 0
M  V30 2205 N 201.022 0.148545 -1.56898 0
M  V30 2206 C 201.932 1.20293 -2.01412 0
M  V30 2207 C 202.948 1.47107 -0.929273 0
M  V30 2208 O 204.124 1.58807 -1.23863 0
M  V30 2209 C 201.189 2.51682 -2.38447 0
M  V30 2210 C 200.25 2.32529 -3.60872 0
M  V30 2211 C 199.483 3.57653 -3.96132 0
M  V30 2212 O 199.706 4.63771 -3.32073 0
M  V30 2213 O 198.64 3.50408 -4.89385 0
M  V30 2214 H 202.466 0.855025 -2.91416 0
M  V30 2215 H 200.051 0.357151 -1.45068 0
M  V30 2216 H 201.933 3.29147 -2.63135 0
M  V30 2217 H 200.608 2.86006 -1.51599 0
M  V30 2218 H 199.515 1.53019 -3.41373 0
M  V30 2219 H 200.848 2.03121 -4.48333 0
M  V30 2220 N 202.5 1.5196 0.417844 0
M  V30 2221 C 203.43 1.77634 1.51554 0
M  V30 2222 C 204.411 0.626918 1.58126 0
M  V30 2223 O 205.596 0.871632 1.7354 0
M  V30 2224 C 202.726 1.91911 2.8946 0
M  V30 2225 C 201.68 3.07463 2.97743 0
M  V30 2226 C 201.006 3.06951 4.37819 0
M  V30 2227 C 202.306 4.47082 2.70027 0
M  V30 2228 H 204 2.6955 1.3032 0
M  V30 2229 H 201.546 1.29706 0.625492 0
M  V30 2230 H 203.499 2.08455 3.6623 0
M  V30 2231 H 202.223 0.966598 3.11969 0
M  V30 2232 H 200.882 2.90656 2.23416 0
M  V30 2233 H 200.53 2.09438 4.57323 0
M  V30 2234 H 200.23 3.84556 4.44286 0
M  V30 2235 H 201.754 3.25613 5.16535 0
M  V30 2236 H 203.168 4.6414 3.36522 0
M  V30 2237 H 201.565 5.2654 2.87881 0
M  V30 2238 H 202.635 4.55777 1.65514 0
M  V30 2239 N 203.978 -0.674533 1.42435 0
M  V30 2240 C 205.208 -1.46071 1.46105 0
M  V30 2241 C 205.616 -1.89067 0.0709605 0
M  V30 2242 O 204.959 -1.58731 -0.924677 0
M  V30 2243 C 205.021 -2.74145 2.32561 0
M  V30 2244 C 204.685 -2.53224 3.8043 0
M  V30 2245 C 205.682 -2.17809 4.72075 0
M  V30 2246 C 203.367 -2.6821 4.24698 0
M  V30 2247 C 205.361 -1.97648 6.05982 0
M  V30 2248 C 203.048 -2.47665 5.58664 0
M  V30 2249 C 204.046 -2.12437 6.49122 0
M  V30 2250 O 203.734 -1.9209 7.80613 0
M  V30 2251 H 203.466 -0.455959 0.499076 0
M  V30 2252 H 206.02 -0.836193 1.87609 0
M  V30 2253 H 204.25 -3.3908 1.85908 0
M  V30 2254 H 205.939 -3.36028 2.27683 0
M  V30 2255 H 206.705 -2.05826 4.39159 0
M  V30 2256 H 202.584 -2.94609 3.54579 0
M  V30 2257 H 206.128 -1.70075 6.7655 0
M  V30 2258 H 202.025 -2.59244 5.91154 0
M  V30 2259 H 202.793 -2.06686 7.91974 0
M  V30 2260 N 205.456 -1.28612 -0.910864 0
M  V30 2261 C 206.872 -1.06381 -1.18976 0
M  V30 2262 C 207.072 0.191998 -2.00583 0
M  V30 2263 O 206.128 0.892869 -2.36187 0
M  V30 2264 C 207.441 -2.31295 -1.92154 0
M  V30 2265 C 208.989 -2.36503 -2.05025 0
M  V30 2266 C 209.464 -3.61191 -2.81612 0
M  V30 2267 N 210.955 -3.61847 -2.89172 0
M  V30 2268 C 211.69 -4.55004 -3.4894 0
M  V30 2269 N 211.186 -5.58482 -4.09963 0
M  V30 2270 N 212.979 -4.42594 -3.46506 0
M  V30 2271 H 205.13 -2.09221 -0.366094 0
M  V30 2272 H 207.393 -0.921003 -0.224629 0
M  V30 2273 H 207.099 -3.228 -1.39618 0
M  V30 2274 H 206.973 -2.37934 -2.9269 0
M  V30 2275 H 209.36 -1.45494 -2.5674 0
M  V30 2276 H 209.441 -2.33857 -1.03657 0
M  V30 2277 H 209.085 -4.52545 -2.30576 0
M  V30 2278 H 209.015 -3.61092 -3.83302 0
M  V30 2279 H 211.506 -2.87022 -2.45819 0
M  V30 2280 H 211.819 -6.25704 -4.53557 0
M  V30 2281 H 210.164 -5.62305 -4.08459 0
M  V30 2282 H 213.355 -3.60953 -2.98045 0
M  V30 2283 H 213.528 -5.15381 -3.92793 0
M  V30 2284 N 206.934 1.1197 -1.10907 0
M  V30 2285 C 207.866 2.17592 -0.720175 0
M  V30 2286 C 208.879 1.60938 0.245495 0
M  V30 2287 O 210.068 1.78476 0.0292245 0
M  V30 2288 C 207.168 3.38873 -0.0427917 0
M  V30 2289 C 206.341 4.25006 -1.03388 0
M  V30 2290 C 205.4 5.24774 -0.387075 0
M  V30 2291 O 204.426 5.59631 -1.03934 0
M  V30 2292 N 205.628 5.74208 0.852407 0
M  V30 2293 H 208.393 2.51567 -1.62893 0
M  V30 2294 H 205.954 1.27439 -0.998543 0
M  V30 2295 H 207.946 4.02703 0.401501 0
M  V30 2296 H 206.516 3.03007 0.768456 0
M  V30 2297 H 205.736 3.57716 -1.65629 0
M  V30 2298 H 207.024 4.79397 -1.70458 0
M  V30 2299 H 206.422 5.48062 1.40161 0
M  V30 2300 H 204.979 6.39901 1.23977 0
M  V30 2301 N 208.412 0.89855 1.29475 0
M  V30 2302 C 209.359 0.373819 2.27753 0
M  V30 2303 C 210.329 -0.543444 1.56958 0
M  V30 2304 O 211.514 -0.468934 1.84948 0
M  V30 2305 C 208.654 -0.393648 3.42848 0
M  V30 2306 C 207.767 0.554379 4.28428 0
M  V30 2307 C 206.902 -0.230026 5.30702 0
M  V30 2308 C 205.941 0.712599 6.07938 0
M  V30 2309 N 205.078 -0.0373283 7.0209 0
M  V30 2310 H 209.918 1.21699 2.72017 0
M  V30 2311 H 207.455 0.611456 1.33789 0
M  V30 2312 H 209.413 -0.85466 4.08352 0
M  V30 2313 H 208.043 -1.20128 2.99615 0
M  V30 2314 H 207.095 1.13391 3.63107 0
M  V30 2315 H 208.407 1.27597 4.82204 0
M  V30 2316 H 207.561 -0.752288 6.02018 0
M  V30 2317 H 206.3 -0.984758 4.77654 0
M  V30 2318 H 205.305 1.24637 5.35486 0
M  V30 2319 H 206.53 1.46664 6.63074 0
M  V30 2320 H 204.476 -0.774348 6.51414 0
M  V30 2321 H 204.393 0.624374 7.53417 0
M  V30 2322 H 205.661 -0.539891 7.77628 0
M  V30 2323 N 209.89 -1.43072 0.660911 0
M  V30 2324 C 211.136 -2.0202 0.177708 0
M  V30 2325 C 211.469 -1.52066 -1.20787 0
M  V30 2326 O 210.744 -0.716987 -1.80802 0
M  V30 2327 C 211.027 -3.59561 0.197019 0
M  V30 2328 C 210.88 -4.19727 1.61706 0
M  V30 2329 C 212.199 -4.37664 -0.462396 0
M  V30 2330 H 209.318 -0.734034 0.0660494 0
M  V30 2331 H 211.96 -1.70272 0.843058 0
M  V30 2332 H 210.11 -3.86739 -0.369527 0
M  V30 2333 H 211.782 -4.03553 2.23479 0
M  V30 2334 H 210.025 -3.76084 2.16201 0
M  V30 2335 H 210.696 -5.28834 1.58237 0
M  V30 2336 H 213.172 -4.16095 0.0197215 0
M  V30 2337 H 212.048 -5.47305 -0.418188 0
M  V30 2338 H 212.309 -4.14493 -1.53778 0
M  V30 2339 N 211.368 -0.403325 -1.52352 0
M  V30 2340 C 212.278 0.432009 -2.30588 0
M  V30 2341 C 213.294 1.05884 -1.38075 0
M  V30 2342 O 214.47 1.06161 -1.71148 0
M  V30 2343 C 211.535 1.53669 -3.10784 0
M  V30 2344 C 210.596 0.933525 -4.19027 0
M  V30 2345 C 209.829 1.98557 -4.9539 0
M  V30 2346 O 210.052 3.20283 -4.71991 0
M  V30 2347 O 208.986 1.59504 -5.80381 0
M  V30 2348 H 212.812 -0.205739 -3.03002 0
M  V30 2349 H 210.397 -0.166675 -1.48467 0
M  V30 2350 H 212.279 2.17814 -3.60742 0
M  V30 2351 H 210.954 2.15915 -2.41169 0
M  V30 2352 H 209.861 0.254954 -3.7323 0
M  V30 2353 H 211.194 0.35508 -4.90918 0
M  V30 2354 N 212.846 1.57033 -0.133567 0
M  V30 2355 C 214.257 1.82593 0.389464 0
M  V30 2356 C 214.608 1.05156 1.6564 0
M  V30 2357 O 213.733 0.292644 2.14412 0
M  V30 2358 C 214.328 3.31204 0.713377 0
M  V30 2359 C 212.887 3.57393 1.18098 0
M  V30 2360 C 212.034 2.76598 0.197126 0
M  V30 2361 H 214.985 1.54598 -0.358481 0
M  V30 2362 H 215.006 3.46627 1.56939 0
M  V30 2363 H 214.518 3.87537 -0.2089 0
M  V30 2364 H 212.619 3.06433 2.11966 0
M  V30 2365 H 212.732 4.65915 1.11624 0
M  V30 2366 H 211.096 2.45257 0.687088 0
M  V30 2367 H 211.879 3.35697 -0.718504 0
M  V30 2368 N 214.325 -0.140222 1.56975 0
M  V30 2369 C 215.255 -1.17456 2.01808 0
M  V30 2370 C 216.236 -1.44415 0.898794 0
M  V30 2371 O 217.421 -1.5522 1.16707 0
M  V30 2372 C 214.551 -2.50607 2.40444 0
M  V30 2373 C 213.505 -2.38155 3.55621 0
M  V30 2374 C 212.831 -3.76078 3.80091 0
M  V30 2375 C 214.131 -1.85991 4.88062 0
M  V30 2376 H 215.825 -0.801743 2.88466 0
M  V30 2377 H 213.371 -0.38422 1.38779 0
M  V30 2378 H 215.324 -3.23197 2.7041 0
M  V30 2379 H 214.048 -2.89737 1.50732 0
M  V30 2380 H 212.707 -1.68016 3.25832 0
M  V30 2381 H 212.355 -4.12656 2.87618 0
M  V30 2382 H 212.055 -3.68606 4.57606 0
M  V30 2383 H 213.579 -4.50206 4.12488 0
M  V30 2384 H 214.993 -2.4838 5.16701 0
M  V30 2385 H 213.39 -1.89393 5.6943 0
M  V30 2386 H 214.46 -0.816023 4.77984 0
M  V30 2387 N 215.803 -1.52179 -0.40978 0
M  V30 2388 C 217.219 -1.40968 -0.74835 0
M  V30 2389 C 217.419 -0.513657 -1.94843 0
M  V30 2390 O 216.475 0.0208026 -2.52491 0
M  V30 2391 C 217.788 -2.83483 -1.0029 0
M  V30 2392 C 219.336 -2.92821 -1.10565 0
M  V30 2393 C 219.811 -4.36303 -1.39296 0
M  V30 2394 N 221.302 -4.39535 -1.46162 0
M  V30 2395 C 222.037 -5.47614 -1.70018 0
M  V30 2396 N 221.533 -6.65812 -1.91483 0
M  V30 2397 N 223.326 -5.35129 -1.72027 0
M  V30 2398 H 215.477 -2.0897 0.380186 0
M  V30 2399 H 217.74 -0.94185 0.107805 0
M  V30 2400 H 217.446 -3.51168 -0.193461 0
M  V30 2401 H 217.32 -3.24487 -1.92323 0
M  V30 2402 H 219.707 -2.25318 -1.90568 0
M  V30 2403 H 219.788 -2.55276 -0.16369 0
M  V30 2404 H 219.432 -5.04366 -0.598109 0
M  V30 2405 H 219.362 -4.71385 -2.34743 0
M  V30 2406 H 221.853 -3.54332 -1.31367 0
M  V30 2407 H 222.166 -7.43964 -2.09134 0
M  V30 2408 H 220.511 -6.68879 -1.88749 0
M  V30 2409 H 223.702 -4.41764 -1.54796 0
M  V30 2410 H 223.875 -6.19433 -1.9028 0
M  V30 2411 N 217.281 0.66697 -1.42791 0
M  V30 2412 C 218.244 1.76211 -1.46568 0
M  V30 2413 C 219.244 1.56896 -0.352196 0
M  V30 2414 O 220.434 1.63044 -0.613364 0
M  V30 2415 C 217.566 3.14935 -1.30494 0
M  V30 2416 H 218.759 1.74247 -2.44086 0
M  V30 2417 H 216.312 0.877342 -1.29354 0
M  V30 2418 H 217.047 3.2252 -0.339301 0
M  V30 2419 H 216.832 3.30359 -2.11199 0
M  V30 2420 H 218.322 3.94821 -1.36038 0
M  V30 2421 N 218.759 1.29093 0.90403 0
M  V30 2422 C 219.669 1.15727 2.0407 0
M  V30 2423 C 220.685 0.0815308 1.73809 0
M  V30 2424 O 221.861 0.292749 1.99261 0
M  V30 2425 C 218.926 0.830424 3.36608 0
M  V30 2426 C 217.987 1.98955 3.80415 0
M  V30 2427 C 217.22 1.6782 5.06628 0
M  V30 2428 O 217.443 0.597105 5.67266 0
M  V30 2429 O 216.377 2.52486 5.46383 0
M  V30 2430 H 220.203 2.11171 2.18267 0
M  V30 2431 H 217.788 1.08504 1.027 0
M  V30 2432 H 219.67 0.662521 4.16159 0
M  V30 2433 H 218.345 -0.0942678 3.23563 0
M  V30 2434 H 217.252 2.21267 3.01648 0
M  V30 2435 H 218.585 2.89529 3.98037 0
M  V30 2436 N 220.237 -1.11381 1.11499 0
M  V30 2437 C 221.167 -2.19509 0.796125 0
M  V30 2438 C 222.148 -1.68458 -0.235796 0
M  V30 2439 O 223.333 -1.93947 -0.0991344 0
M  V30 2440 C 220.463 -3.46475 0.239205 0
M  V30 2441 C 219.417 -4.10744 1.20307 0
M  V30 2442 C 218.743 -5.32293 0.50683 0
M  V30 2443 C 220.043 -4.55597 2.55399 0
M  V30 2444 H 221.737 -2.46439 1.70024 0
M  V30 2445 H 219.283 -1.18446 0.818935 0
M  V30 2446 H 221.236 -4.214 0.00392006 0
M  V30 2447 H 219.96 -3.19006 -0.700206 0
M  V30 2448 H 218.619 -3.37813 1.42399 0
M  V30 2449 H 218.267 -5.01095 -0.437408 0
M  V30 2450 H 217.967 -5.76243 1.1497 0
M  V30 2451 H 219.491 -6.09956 0.280351 0
M  V30 2452 H 220.905 -5.21841 2.37391 0
M  V30 2453 H 219.302 -5.10363 3.15673 0
M  V30 2454 H 220.372 -3.69013 3.14575 0
M  V30 2455 N 221.715 -0.905404 -1.28997 0
M  V30 2456 C 222.647 -0.344748 -2.26592 0
M  V30 2457 C 223.66 0.512135 -1.54535 0
M  V30 2458 O 224.849 0.328368 -1.75454 0
M  V30 2459 C 221.949 0.526587 -3.34784 0
M  V30 2460 C 221.122 -0.305871 -4.36329 0
M  V30 2461 C 220.181 0.499209 -5.23827 0
M  V30 2462 O 219.207 -0.0853004 -5.69136 0
M  V30 2463 N 220.409 1.80408 -5.51755 0
M  V30 2464 H 223.174 -1.18359 -2.75338 0
M  V30 2465 H 220.735 -0.770481 -1.42391 0
M  V30 2466 H 222.727 1.07171 -3.90252 0
M  V30 2467 H 221.297 1.26613 -2.85811 0
M  V30 2468 H 220.517 -1.0324 -3.80441 0
M  V30 2469 H 221.805 -0.875773 -5.01206 0
M  V30 2470 H 221.203 2.3016 -5.16762 0
M  V30 2471 H 219.76 2.29621 -6.10014 0
M  V30 2472 N 223.193 1.4272 -0.668489 0
M  V30 2473 C 224.103 2.34596 0.0139753 0
M  V30 2474 C 225.119 1.5474 0.795703 0
M  V30 2475 O 226.295 1.87334 0.739466 0
M  V30 2476 C 223.36 3.33202 0.957982 0
M  V30 2477 C 222.421 4.28957 0.17149 0
M  V30 2478 C 221.654 5.22853 1.07053 0
M  V30 2479 O 221.877 5.21531 2.31001 0
M  V30 2480 O 220.811 5.9952 0.534727 0
M  V30 2481 H 224.637 2.9448 -0.742661 0
M  V30 2482 H 222.222 1.43117 -0.428705 0
M  V30 2483 H 224.104 3.93796 1.50008 0
M  V30 2484 H 222.779 2.758 1.69458 0
M  V30 2485 H 221.686 3.71796 -0.414558 0
M  V30 2486 H 223.019 4.89383 -0.52586 0
M  V30 2487 N 224.671 0.411399 1.52136 0
M  V30 2488 C 225.919 -0.163322 2.01439 0
M  V30 2489 C 226.24 -1.45453 1.29879 0
M  V30 2490 O 225.51 -1.91225 0.4254 0
M  V30 2491 H 224.09 -0.0633447 0.744309 0
M  V30 2492 H 226.752 0.548161 1.87033 0
M  V30 2493 H 225.848 -0.357817 3.10042 0
M  V30 2494 N 226.149 -1.5696 0.141893 0
M  V30 2495 C 227.112 -2.15316 -0.785587 0
M  V30 2496 C 228.112 -1.09366 -1.1788 0
M  V30 2497 O 229.302 -1.35031 -1.10056 0
M  V30 2498 C 226.434 -2.71211 -2.06537 0
M  V30 2499 H 227.627 -2.98608 -0.278041 0
M  V30 2500 H 225.18 -1.5593 -0.107519 0
M  V30 2501 H 225.915 -1.91571 -2.6167 0
M  V30 2502 H 225.7 -3.4872 -1.79268 0
M  V30 2503 H 227.19 -3.16189 -2.72789 0
M  V30 2504 N 227.627 0.131896 -1.57047 0
M  V30 2505 C 229.043 0.485031 -1.52051 0
M  V30 2506 C 229.243 1.82563 -0.85281 0
M  V30 2507 O 228.299 2.48817 -0.429694 0
M  V30 2508 C 229.612 0.481409 -2.96821 0
M  V30 2509 C 231.16 0.565868 -3.07842 0
M  V30 2510 C 231.635 0.592762 -4.54148 0
M  V30 2511 N 233.126 0.654564 -4.58552 0
M  V30 2512 C 233.861 0.696608 -5.69153 0
M  V30 2513 N 233.357 0.697078 -6.89284 0
M  V30 2514 N 235.15 0.738639 -5.57226 0
M  V30 2515 H 227.301 -0.746664 -1.98843 0
M  V30 2516 H 229.564 -0.273999 -0.90754 0
M  V30 2517 H 229.27 -0.435731 -3.4899 0
M  V30 2518 H 229.144 1.3139 -3.53577 0
M  V30 2519 H 231.531 1.47343 -2.55684 0
M  V30 2520 H 231.612 -0.29406 -2.54104 0
M  V30 2521 H 231.256 -0.310701 -5.06949 0
M  V30 2522 H 231.186 1.46939 -5.05684 0
M  V30 2523 H 233.677 0.660887 -3.72076 0
M  V30 2524 H 233.99 0.731426 -7.69331 0
M  V30 2525 H 232.335 0.66471 -6.91814 0
M  V30 2526 H 235.526 0.735545 -4.62285 0
M  V30 2527 H 235.699 0.767938 -6.43434 0
M  V30 2528 N 229.106 1.52395 0.401703 0
M  V30 2529 C 230.038 1.72505 1.50912 0
M  V30 2530 C 231.051 0.605468 1.51122 0
M  V30 2531 O 232.24 0.880828 1.55254 0
M  V30 2532 C 229.34 1.75711 2.89791 0
M  V30 2533 C 228.513 3.04824 3.1369 0
M  V30 2534 C 227.572 2.99743 4.32482 0
M  V30 2535 O 226.598 3.73635 4.29402 0
M  V30 2536 N 227.8 2.18047 5.37992 0
M  V30 2537 H 230.565 2.68049 1.34052 0
M  V30 2538 H 228.126 1.50724 0.591084 0
M  V30 2539 H 230.118 1.69834 3.6734 0
M  V30 2540 H 228.688 0.876092 3.00072 0
M  V30 2541 H 227.908 3.2429 2.24119 0
M  V30 2542 H 229.196 3.90221 3.26504 0
M  V30 2543 H 228.594 1.57456 5.43345 0
M  V30 2544 H 227.151 2.18021 6.14256 0
M  V30 2545 N 230.584 -0.659388 1.43143 0
M  V30 2546 C 231.531 -1.77249 1.47822 0
M  V30 2547 C 232.501 -1.62818 0.328558 0
M  V30 2548 O 233.686 -1.83151 0.534838 0
M  V30 2549 C 230.826 -3.15371 1.40126 0
M  V30 2550 C 229.939 -3.4098 2.65249 0
M  V30 2551 C 229.074 -4.68915 2.49584 0
M  V30 2552 C 228.113 -4.87608 3.70006 0
M  V30 2553 N 227.25 -6.06796 3.53189 0
M  V30 2554 H 232.09 -1.72584 2.42938 0
M  V30 2555 H 229.627 -0.842297 1.20598 0
M  V30 2556 H 231.585 -3.9521 1.33659 0
M  V30 2557 H 230.215 -3.19121 0.485964 0
M  V30 2558 H 229.267 -2.55282 2.8202 0
M  V30 2559 H 230.579 -3.50681 3.54717 0
M  V30 2560 H 229.733 -5.56871 2.4079 0
M  V30 2561 H 228.472 -4.61524 1.5763 0
M  V30 2562 H 227.477 -3.9809 3.79215 0
M  V30 2563 H 228.702 -4.96834 4.62961 0
M  V30 2564 H 226.648 -6.00549 2.63965 0
M  V30 2565 H 226.565 -6.17428 4.36255 0
M  V30 2566 H 227.833 -6.9739 3.48236 0
M  V30 2567 N 232.062 -1.29571 -0.897171 0
M  V30 2568 C 232.992 -1.17473 -2.01798 0
M  V30 2569 C 233.973 -0.068323 -1.69963 0
M  V30 2570 O 235.158 -0.248239 -1.92607 0
M  V30 2571 C 232.288 -0.853099 -3.36659 0
M  V30 2572 C 231.242 -1.9161 -3.82713 0
M  V30 2573 C 230.568 -1.44773 -5.14728 0
M  V30 2574 C 231.868 -3.32535 -4.02763 0
M  V30 2575 H 233.562 -2.11237 -2.12177 0
M  V30 2576 H 231.108 -1.01699 -1.01948 0
M  V30 2577 H 233.061 -0.755165 -4.14578 0
M  V30 2578 H 231.785 0.120236 -3.26379 0
M  V30 2579 H 230.444 -2.00346 -3.07013 0
M  V30 2580 H 230.092 -0.462995 -5.00865 0
M  V30 2581 H 229.792 -2.15865 -5.46513 0
M  V30 2582 H 231.316 -1.36334 -5.95185 0
M  V30 2583 H 232.73 -3.26626 -4.71156 0
M  V30 2584 H 231.127 -4.01607 -4.45905 0
M  V30 2585 H 232.197 -3.75326 -3.07016 0
M  V30 2586 N 233.54 1.10788 -1.12088 0
M  V30 2587 C 234.49 2.15158 -0.754401 0
M  V30 2588 C 235.474 1.59026 0.244846 0
M  V30 2589 O 236.666 1.76927 0.0509097 0
M  V30 2590 C 233.795 3.42677 -0.206657 0
M  V30 2591 C 232.881 4.05751 -1.23398 0
M  V30 2592 N 233.272 4.43582 -2.43041 0
M  V30 2593 C 231.57 4.32764 -1.07848 0
M  V30 2594 C 232.271 4.93085 -3.08613 0
M  V30 2595 N 231.247 4.89664 -2.36072 0
M  V30 2596 H 235.049 2.42195 -1.6649 0
M  V30 2597 H 232.563 1.27872 -1.00112 0
M  V30 2598 H 234.56 4.16834 0.0740646 0
M  V30 2599 H 233.22 3.17101 0.698342 0
M  V30 2600 H 234.231 4.35395 -2.80449 0
M  V30 2601 H 230.908 4.16863 -0.230483 0
M  V30 2602 H 232.298 5.31933 -4.10483 0
M  V30 2603 N 235.018 0.912232 1.28515 0
M  V30 2604 C 235.928 0.404506 2.31086 0
M  V30 2605 C 236.944 -0.50707 1.66448 0
M  V30 2606 O 238.12 -0.393624 1.97516 0
M  V30 2607 C 235.185 -0.348572 3.44943 0
M  V30 2608 C 234.246 0.59604 4.25142 0
M  V30 2609 C 233.479 -0.121194 5.33562 0
M  V30 2610 O 233.702 -1.34317 5.5436 0
M  V30 2611 O 232.636 0.542716 5.99448 0
M  V30 2612 H 236.462 1.25579 2.76521 0
M  V30 2613 H 234.047 0.676998 1.33181 0
M  V30 2614 H 235.929 -0.77395 4.14232 0
M  V30 2615 H 234.604 -1.17571 3.01594 0
M  V30 2616 H 233.511 1.07079 3.58448 0
M  V30 2617 H 234.844 1.38995 4.72167 0
M  V30 2618 N 236.496 -1.42363 0.676048 0
M  V30 2619 C 237.426 -2.33497 0.0124832 0
M  V30 2620 C 238.407 -1.50748 -0.787981 0
M  V30 2621 O 239.592 -1.79346 -0.744884 0
M  V30 2622 C 236.722 -3.34377 -0.938582 0
M  V30 2623 C 235.676 -4.27289 -0.246622 0
M  V30 2624 C 235.002 -5.18386 -1.31071 0
M  V30 2625 C 236.302 -5.14916 0.875125 0
M  V30 2626 H 237.996 -2.89233 0.773593 0
M  V30 2627 H 235.542 -1.39073 0.37346 0
M  V30 2628 H 237.495 -3.97044 -1.41188 0
M  V30 2629 H 236.219 -2.76947 -1.73113 0
M  V30 2630 H 234.878 -3.66018 0.206456 0
M  V30 2631 H 234.526 -4.57282 -2.09528 0
M  V30 2632 H 234.226 -5.81378 -0.852839 0
M  V30 2633 H 235.75 -5.83929 -1.78492 0
M  V30 2634 H 237.164 -5.71262 0.482983 0
M  V30 2635 H 235.561 -5.86747 1.25887 0
M  V30 2636 H 236.631 -4.53242 1.72335 0
M  V30 2637 N 237.974 -0.419461 -1.51915 0
M  V30 2638 C 238.906 0.43646 -2.25006 0
M  V30 2639 C 239.919 1.00149 -1.28351 0
M  V30 2640 O 241.108 0.898674 -1.54227 0
M  V30 2641 C 238.208 1.6206 -2.9764 0
M  V30 2642 C 237.381 1.17763 -4.21249 0
M  V30 2643 C 236.44 2.22985 -4.76617 0
M  V30 2644 O 235.466 1.83151 -5.38929 0
M  V30 2645 N 236.668 3.55271 -4.59089 0
M  V30 2646 H 239.433 -0.18989 -2.99098 0
M  V30 2647 H 236.994 -0.247386 -1.59999 0
M  V30 2648 H 238.986 2.32038 -3.31573 0
M  V30 2649 H 237.556 2.15266 -2.2667 0
M  V30 2650 H 236.776 0.305582 -3.93014 0
M  V30 2651 H 238.064 0.858781 -5.015 0
M  V30 2652 H 237.462 3.90377 -4.09417 0
M  V30 2653 H 236.019 4.21195 -4.97432 0
M  V30 2654 N 239.452 1.56882 -0.150215 0
M  V30 2655 C 240.362 2.20494 0.801222 0
M  V30 2656 C 241.378 1.19019 1.26927 0
M  V30 2657 O 242.554 1.51607 1.32579 0
M  V30 2658 C 239.619 2.81659 2.02161 0
M  V30 2659 C 238.68 3.9827 1.60249 0
M  V30 2660 C 237.913 4.56508 2.7647 0
M  V30 2661 O 238.136 4.13627 3.92771 0
M  V30 2662 O 237.07 5.46719 2.51757 0
M  V30 2663 H 240.896 3.02315 0.289717 0
M  V30 2664 H 238.481 1.49202 0.0769684 0
M  V30 2665 H 240.363 3.20522 2.73576 0
M  V30 2666 H 239.038 2.02849 2.52258 0
M  V30 2667 H 237.945 3.64117 0.858477 0
M  V30 2668 H 239.278 4.78609 1.14864 0
M  V30 2669 N 240.93 -0.123565 1.57115 0
M  V30 2670 C 241.877 -1.15177 2.00007 0
M  V30 2671 C 242.847 -1.41403 0.871454 0
M  V30 2672 O 244.032 -1.53346 1.13533 0
M  V30 2673 C 241.172 -2.47436 2.40561 0
M  V30 2674 C 240.285 -2.28184 3.66819 0
M  V30 2675 C 239.42 -3.53641 3.96373 0
M  V30 2676 C 238.459 -3.29528 5.15827 0
M  V30 2677 N 237.596 -4.47175 5.41275 0
M  V30 2678 H 242.436 -0.779008 2.87638 0
M  V30 2679 H 239.973 -0.373166 1.42288 0
M  V30 2680 H 241.931 -3.24584 2.62109 0
M  V30 2681 H 240.561 -2.82614 1.55978 0
M  V30 2682 H 239.613 -1.41976 3.52912 0
M  V30 2683 H 240.925 -2.0634 4.5412 0
M  V30 2684 H 240.079 -4.39209 4.18545 0
M  V30 2685 H 238.818 -3.78512 3.07538 0
M  V30 2686 H 237.823 -2.42349 4.93505 0
M  V30 2687 H 239.048 -3.06031 6.06236 0
M  V30 2688 H 236.994 -4.72175 4.55397 0
M  V30 2689 H 236.911 -4.28419 6.22891 0
M  V30 2690 H 238.179 -5.3389 5.67963 0
M  V30 2691 N 242.408 -1.52605 -0.393616 0
M  V30 2692 C 243.338 -1.80022 -1.48709 0
M  V30 2693 C 244.319 -0.651995 -1.57108 0
M  V30 2694 O 245.504 -0.89913 -1.72132 0
M  V30 2695 C 242.634 -1.96492 -2.86371 0
M  V30 2696 C 241.588 -3.12161 -2.92813 0
M  V30 2697 C 240.914 -3.13877 -4.3288 0
M  V30 2698 C 242.214 -4.51322 -2.6288 0
M  V30 2699 H 243.908 -2.71589 -1.26015 0
M  V30 2700 H 241.454 -1.30684 -0.604778 0
M  V30 2701 H 243.407 -2.14255 -3.62867 0
M  V30 2702 H 242.131 -1.01611 -3.10391 0
M  V30 2703 H 240.79 -2.94173 -2.18764 0
M  V30 2704 H 240.438 -2.16687 -4.53933 0
M  V30 2705 H 240.138 -3.91576 -4.38112 0
M  V30 2706 H 241.662 -3.33789 -5.1129 0
M  V30 2707 H 243.076 -4.69435 -3.29096 0
M  V30 2708 H 241.473 -5.31053 -2.79468 0
M  V30 2709 H 242.543 -4.58353 -1.58242 0
M  V30 2710 N 243.887 0.651787 -1.4349 0
M  V30 2711 C 245.112 1.44434 -1.48841 0
M  V30 2712 C 245.537 1.8779 -0.107955 0
M  V30 2713 O 244.895 1.57464 0.898602 0
M  V30 2714 C 244.943 2.65458 -2.44059 0
M  V30 2715 O 244.047 3.64566 -1.92784 0
M  V30 2716 H 243.388 0.433005 -0.503391 0
M  V30 2717 H 245.918 0.797451 -1.88419 0
M  V30 2718 H 245.928 3.13255 -2.6141 0
M  V30 2719 H 244.603 2.33244 -3.4434 0
M  V30 2720 H 243.18 3.23716 -1.851 0
M  V30 2721 N 245.365 1.30045 0.890287 0
M  V30 2722 C 246.776 1.16738 1.45702 0
M  V30 2723 C 247.127 -0.233939 1.948 0
M  V30 2724 O 246.252 -1.13021 1.84541 0
M  V30 2725 C 246.847 2.11313 2.64825 0
M  V30 2726 C 245.406 2.02001 3.17604 0
M  V30 2727 C 244.553 2.01699 1.90296 0
M  V30 2728 H 247.504 1.42392 0.700726 0
M  V30 2729 H 247.525 1.69086 3.40867 0
M  V30 2730 H 247.037 3.13294 2.2906 0
M  V30 2731 H 245.138 1.03142 3.5804 0
M  V30 2732 H 245.251 2.90128 3.81264 0
M  V30 2733 H 243.615 1.46427 2.08402 0
M  V30 2734 H 244.398 3.05402 1.56795 0
M  V30 2735 N 246.843 -1.10192 1.12674 0
M  V30 2736 C 247.773 -2.18652 0.819362 0
M  V30 2737 C 248.754 -1.68698 -0.217915 0
M  V30 2738 O 249.939 -1.94041 -0.0785581 0
M  V30 2739 C 247.069 -3.46202 0.27594 0
M  V30 2740 C 246.023 -4.09444 1.24656 0
M  V30 2741 C 245.349 -5.31725 0.563258 0
M  V30 2742 C 246.649 -4.52863 2.60217 0
M  V30 2743 H 248.343 -2.44622 1.72628 0
M  V30 2744 H 245.889 -1.17571 0.831451 0
M  V30 2745 H 247.842 -4.21372 0.0486149 0
M  V30 2746 H 246.566 -3.1973 -0.666331 0
M  V30 2747 H 245.225 -3.36284 1.45974 0
M  V30 2748 H 244.873 -5.0153 -0.384235 0
M  V30 2749 H 244.573 -5.74991 1.21075 0
M  V30 2750 H 246.097 -6.09624 0.34503 0
M  V30 2751 H 247.511 -5.19294 2.42913 0
M  V30 2752 H 245.908 -5.06986 3.21068 0
M  V30 2753 H 246.978 -3.65656 3.18471 0
M  V30 2754 N 248.321 -0.919034 -1.28029 0
M  V30 2755 C 249.569 -0.553838 -1.94363 0
M  V30 2756 C 249.89 0.906357 -1.72656 0
M  V30 2757 O 249.16 1.64143 -1.0693 0
M  V30 2758 H 247.74 -0.201834 -0.719216 0
M  V30 2759 H 250.402 -1.16954 -1.55909 0
M  V30 2760 H 249.498 -0.752758 -3.02886 0
M  V30 2761 N 249.799 1.42003 -0.683588 0
M  V30 2762 C 250.709 2.34597 -0.0109075 0
M  V30 2763 C 251.725 1.55576 0.779245 0
M  V30 2764 O 252.901 1.88107 0.719555 0
M  V30 2765 C 249.966 3.34199 0.922588 0
M  V30 2766 C 249.027 4.29115 0.125984 0
M  V30 2767 C 248.26 5.23959 1.01502 0
M  V30 2768 O 248.483 5.23952 2.25456 0
M  V30 2769 O 247.417 6.00053 0.47111 0
M  V30 2770 H 251.243 2.93675 -0.773853 0
M  V30 2771 H 248.828 1.42654 -0.443861 0
M  V30 2772 H 250.71 3.95365 1.45823 0
M  V30 2773 H 249.385 2.77582 1.66523 0
M  V30 2774 H 248.292 3.71335 -0.453969 0
M  V30 2775 H 249.625 4.88798 -0.577736 0
M  V30 2776 N 251.277 0.427512 1.51691 0
M  V30 2777 C 252.187 -0.39527 2.31246 0
M  V30 2778 C 253.203 -1.03674 1.39742 0
M  V30 2779 O 254.379 -1.03425 1.72816 0
M  V30 2780 C 251.444 -1.48706 3.13189 0
M  V30 2781 C 250.505 -0.866743 4.20459 0
M  V30 2782 C 249.738 -1.90651 4.98486 0
M  V30 2783 O 249.961 -3.12733 4.77026 0
M  V30 2784 O 248.895 -1.5025 5.82845 0
M  V30 2785 H 252.721 0.253918 3.02637 0
M  V30 2786 H 250.306 0.190274 1.48183 0
M  V30 2787 H 252.188 -2.12047 3.64162 0
M  V30 2788 H 250.863 -2.12051 2.44573 0
M  V30 2789 H 249.77 -0.195544 3.73589 0
M  V30 2790 H 251.103 -0.276934 4.9142 0
M  V30 2791 N 252.755 -1.56801 0.158532 0
M  V30 2792 C 253.688 -2.13148 -0.815065 0
M  V30 2793 C 254.666 -1.0581 -1.23462 0
M  V30 2794 O 255.85 -1.3371 -1.32868 0
M  V30 2795 C 252.977 -2.6606 -2.09594 0
M  V30 2796 C 252.023 -3.85651 -1.82141 0
M  V30 2797 S 252.856 -5.26041 -1.00207 0
M  V30 2798 C 254.012 -5.8235 -2.29389 0
M  V30 2799 H 254.245 -2.95396 -0.335937 0
M  V30 2800 H 251.778 -1.54299 -0.0559391 0
M  V30 2801 H 253.736 -2.97195 -2.8317 0
M  V30 2802 H 252.397 -1.83921 -2.54621 0
M  V30 2803 H 251.59 -4.20958 -2.77147 0
M  V30 2804 H 251.192 -3.55338 -1.16667 0
M  V30 2805 H 253.484 -5.94485 -3.24952 0
M  V30 2806 H 254.427 -6.79688 -1.9857 0
M  V30 2807 H 254.835 -5.10675 -2.40564 0
M  V30 2808 N 254.233 0.115231 -1.57178 0
M  V30 2809 C 255.649 0.468877 -1.52557 0
M  V30 2810 C 255.849 1.81649 -0.872125 0
M  V30 2811 O 254.905 2.48347 -0.45606 0
M  V30 2812 C 256.218 0.4499 -2.97315 0
M  V30 2813 C 257.766 0.533185 -3.08425 0
M  V30 2814 C 258.241 0.54456 -4.54751 0
M  V30 2815 N 259.732 0.605892 -4.5922 0
M  V30 2816 C 260.467 0.636203 -5.6986 0
M  V30 2817 N 259.963 0.623931 -6.89985 0
M  V30 2818 N 261.756 0.679496 -5.57978 0
M  V30 2819 H 253.907 -0.767712 -1.9804 0
M  V30 2820 H 256.17 -0.283609 -0.904583 0
M  V30 2821 H 255.876 -0.472721 -3.48509 0
M  V30 2822 H 255.75 1.27632 -3.5495 0
M  V30 2823 H 258.137 1.44623 -2.57232 0
M  V30 2824 H 258.218 -0.320995 -2.53778 0
M  V30 2825 H 257.862 -0.364452 -5.06591 0
M  V30 2826 H 257.792 1.41568 -5.07214 0
M  V30 2827 H 260.283 0.621386 -3.72756 0
M  V30 2828 H 260.596 0.649787 -7.70063 0
M  V30 2829 H 258.941 0.591296 -6.9248 0
M  V30 2830 H 262.132 0.686472 -4.63039 0
M  V30 2831 H 262.305 0.69965 -6.44212 0
M  V30 2832 N 255.711 1.52812 0.385517 0
M  V30 2833 C 256.988 1.5861 1.14465 0
M  V30 2834 C 257.368 0.381402 2.07626 0
M  V30 2835 O 256.716 -0.629999 2.19643 0
M  V30 2836 C 256.926 2.92664 1.90128 0
M  V30 2837 C 258.274 3.46526 2.45367 0
M  V30 2838 O 259.298 2.94562 2.0028 0
M  V30 2839 O 258.157 4.37323 3.27736 0
M  V30 2840 H 255.251 0.639855 0.523941 0
M  V30 2841 H 257.797 1.65149 0.390389 0
M  V30 2842 H 256.569 3.71788 1.22022 0
M  V30 2843 H 256.192 2.89527 2.72507 0
M  V30 2844 N 257.189 -0.644168 1.43834 0
M  V30 2845 C 258.605 -0.960875 1.27434 0
M  V30 2846 C 258.805 -2.00499 0.200618 0
M  V30 2847 O 257.861 -2.49018 -0.417906 0
M  V30 2848 C 259.174 -1.43653 2.64167 0
M  V30 2849 C 260.722 -1.55271 2.71772 0
M  V30 2850 C 261.197 -2.06224 4.08944 0
M  V30 2851 N 262.688 -2.13513 4.11055 0
M  V30 2852 C 263.423 -2.54081 5.14033 0
M  V30 2853 N 262.919 -2.9388 6.27381 0
M  V30 2854 N 264.712 -2.54101 5.01387 0
M  V30 2855 H 256.863 0.0465779 2.12349 0
M  V30 2856 H 259.126 -0.0417638 0.94708 0
M  V30 2857 H 258.832 -0.743706 3.43747 0
M  V30 2858 H 258.706 -2.40993 2.90176 0
M  V30 2859 H 261.093 -2.23653 1.92519 0
M  V30 2860 H 261.174 -0.563395 2.49519 0
M  V30 2861 H 260.818 -1.38441 4.88668 0
M  V30 2862 H 260.748 -3.06003 4.28567 0
M  V30 2863 H 263.239 -1.85493 3.29242 0
M  V30 2864 H 263.552 -3.2361 7.01781 0
M  V30 2865 H 261.897 -2.91663 6.30839 0
M  V30 2866 H 265.088 -2.22391 4.11898 0
M  V30 2867 H 265.261 -2.85394 5.81768 0
M  V30 2868 N 258.668 -1.30515 -0.883378 0
M  V30 2869 C 259.631 -1.1701 -1.97082 0
M  V30 2870 C 260.631 -0.10089 -1.60483 0
M  V30 2871 O 261.821 -0.349127 -1.70666 0
M  V30 2872 C 258.953 -0.793045 -3.31547 0
M  V30 2873 H 260.146 -2.13622 -2.10489 0
M  V30 2874 H 257.699 -1.13935 -1.06998 0
M  V30 2875 H 258.434 0.172499 -3.23841 0
M  V30 2876 H 258.219 -1.56576 -3.5948 0
M  V30 2877 H 259.709 -0.722073 -4.1131 0
M  V30 2878 N 260.146 1.09593 -1.13257 0
M  V30 2879 C 261.562 1.33775 -0.870423 0
M  V30 2880 C 261.762 1.95327 0.494926 0
M  V30 2881 O 260.818 2.19853 1.2418 0
M  V30 2882 C 262.131 2.25106 -1.99369 0
M  V30 2883 C 263.679 2.3862 -2.02558 0
M  V30 2884 C 264.154 3.33285 -3.14142 0
M  V30 2885 N 265.645 3.40857 -3.13641 0
M  V30 2886 C 266.38 4.14101 -3.96621 0
M  V30 2887 N 265.876 4.90157 -4.8961 0
M  V30 2888 N 267.669 4.09808 -3.84726 0
M  V30 2889 H 259.82 0.680136 -2.01216 0
M  V30 2890 H 262.083 0.362133 -0.876107 0
M  V30 2891 H 261.789 1.87103 -2.97801 0
M  V30 2892 H 261.663 3.25481 -1.90635 0
M  V30 2893 H 264.05 2.75887 -1.0474 0
M  V30 2894 H 264.131 1.38028 -2.15364 0
M  V30 2895 H 263.775 2.96741 -4.12198 0
M  V30 2896 H 263.705 4.33776 -2.98574 0
M  V30 2897 H 266.196 2.86624 -2.46282 0
M  V30 2898 H 266.509 5.4347 -5.49418 0
M  V30 2899 H 264.854 4.89251 -4.93617 0
M  V30 2900 H 268.045 3.4949 -3.11408 0
M  V30 2901 H 268.218 4.66629 -4.49623 0
M  V30 2902 N 261.624 0.925811 1.2754 0
M  V30 2903 C 262.587 0.428129 2.25166 0
M  V30 2904 C 263.587 -0.452261 1.54309 0
M  V30 2905 O 264.777 -0.253608 1.72344 0
M  V30 2906 C 261.909 -0.384749 3.38722 0
M  V30 2907 H 263.102 1.29066 2.70706 0
M  V30 2908 H 260.655 0.706323 1.3943 0
M  V30 2909 H 261.39 -1.26618 2.98561 0
M  V30 2910 H 261.175 0.246454 3.91325 0
M  V30 2911 H 262.665 -0.723389 4.11287 0
M  V30 2912 N 263.102 -1.41638 0.69111 0
M  V30 2913 C 264.052 -2.28 -0.000107832 0
M  V30 2914 C 265.036 -1.41964 -0.757304 0
M  V30 2915 O 266.228 -1.65274 -0.633532 0
M  V30 2916 C 263.357 -3.30209 -0.938983 0
M  V30 2917 C 262.443 -4.23725 -0.17827 0
M  V30 2918 N 262.834 -4.99017 0.825563 0
M  V30 2919 C 261.132 -4.44071 -0.414392 0
M  V30 2920 C 261.833 -5.67431 1.28052 0
M  V30 2921 N 260.809 -5.40197 0.607304 0
M  V30 2922 H 264.611 -2.83644 0.769617 0
M  V30 2923 H 262.125 -1.53797 0.521562 0
M  V30 2924 H 264.122 -3.90898 -1.44929 0
M  V30 2925 H 262.782 -2.76126 -1.70836 0
M  V30 2926 H 263.793 -5.03671 1.20566 0
M  V30 2927 H 260.47 -4.01004 -1.162 0
M  V30 2928 H 261.86 -6.37801 2.11327 0
M  V30 2929 N 264.58 -0.43555 -1.51462 0
M  V30 2930 C 265.826 0.131709 -2.02372 0
M  V30 2931 C 266.159 1.42516 -1.3192 0
M  V30 2932 O 265.434 1.89606 -0.433573 0
M  V30 2933 C 265.717 0.352301 -3.58373 0
M  V30 2934 C 265.57 -0.959676 -4.39443 0
M  V30 2935 C 266.889 1.12286 -4.25535 0
M  V30 2936 H 264.008 0.0463936 -0.735538 0
M  V30 2937 H 266.65 -0.574197 -1.81116 0
M  V30 2938 H 264.8 0.9536 -3.76615 0
M  V30 2939 H 266.472 -1.59482 -4.32855 0
M  V30 2940 H 264.715 -1.56468 -4.04599 0
M  V30 2941 H 265.386 -0.759394 -5.46752 0
M  V30 2942 H 267.862 0.613545 -4.11552 0
M  V30 2943 H 266.738 1.24598 -5.34571 0
M  V30 2944 H 266.999 2.15048 -3.86273 0
M  V30 2945 N 266.058 1.56714 -0.166846 0
M  V30 2946 C 267.335 1.88412 0.525373 0
M  V30 2947 C 267.715 1.07602 1.81618 0
M  V30 2948 O 267.063 0.168621 2.27877 0
M  V30 2949 C 267.273 3.40363 0.771613 0
M  V30 2950 C 268.621 4.10007 1.1036 0
M  V30 2951 O 269.645 3.45655 0.860304 0
M  V30 2952 O 268.504 5.2369 1.56239 0
M  V30 2953 H 265.598 0.781587 0.270278 0
M  V30 2954 H 268.144 1.68458 -0.204946 0
M  V30 2955 H 266.916 3.91046 -0.141093 0
M  V30 2956 H 266.539 3.65914 1.55541 0
M  V30 2957 N 267.536 -0.106894 1.57237 0
M  V30 2958 C 268.499 -1.11466 2.0027 0
M  V30 2959 C 269.499 -1.33623 0.894519 0
M  V30 2960 O 270.689 -1.29935 1.16028 0
M  V30 2961 C 267.821 -2.46646 2.35327 0
M  V30 2962 H 269.014 -0.744516 2.90512 0
M  V30 2963 H 266.567 -0.351576 1.52295 0
M  V30 2964 H 267.302 -2.88558 1.48003 0
M  V30 2965 H 267.087 -2.31915 3.16161 0
M  V30 2966 H 268.577 -3.19151 2.69318 0
M  V30 2967 N 269.014 -1.53014 -0.377408 0
M  V30 2968 C 269.944 -1.81589 -1.46791 0
M  V30 2969 C 270.925 -0.668622 -1.56408 0
M  V30 2970 O 272.11 -0.917337 -1.71168 0
M  V30 2971 C 269.24 -1.99519 -2.8427 0
M  V30 2972 C 268.194 -3.15249 -2.89486 0
M  V30 2973 C 267.52 -3.18451 -4.29527 0
M  V30 2974 C 268.82 -4.54084 -2.58079 0
M  V30 2975 H 270.514 -2.7291 -1.23127 0
M  V30 2976 H 268.06 -1.31319 -0.590883 0
M  V30 2977 H 270.013 -2.18092 -3.60575 0
M  V30 2978 H 268.737 -1.04897 -3.09296 0
M  V30 2979 H 267.396 -2.96477 -2.15631 0
M  V30 2980 H 267.044 -2.2149 -4.5161 0
M  V30 2981 H 266.744 -3.962 -4.33934 0
M  V30 2982 H 268.268 -3.39193 -5.07721 0
M  V30 2983 H 269.682 -4.72899 -3.24098 0
M  V30 2984 H 268.079 -5.33987 -2.7382 0
M  V30 2985 H 269.149 -4.60006 -1.53372 0
M  V30 2986 N 270.492 0.636531 -1.44174 0
M  V30 2987 C 271.908 0.954104 -1.27941 0
M  V30 2988 C 272.108 2.0039 -0.211248 0
M  V30 2989 O 271.164 2.49236 0.404695 0
M  V30 2990 C 272.477 1.4225 -2.64925 0
M  V30 2991 C 274.025 1.53827 -2.72592 0
M  V30 2992 C 274.5 2.04053 -4.10032 0
M  V30 2993 N 275.991 2.11331 -4.12182 0
M  V30 2994 C 276.726 2.51352 -5.15374 0
M  V30 2995 N 276.222 2.90549 -6.2893 0
M  V30 2996 N 278.015 2.51438 -5.02728 0
M  V30 2997 H 270.166 -0.0578386 -2.12321 0
M  V30 2998 H 272.429 0.0367406 -0.947288 0
M  V30 2999 H 272.135 0.725466 -3.44136 0
M  V30 3000 H 272.009 2.39451 -2.9145 0
M  V30 3001 H 274.396 2.22628 -1.93702 0
M  V30 3002 H 274.477 0.550154 -2.49814 0
M  V30 3003 H 274.121 1.35848 -4.89395 0
M  V30 3004 H 274.051 3.03726 -4.30184 0
M  V30 3005 H 276.542 1.83745 -3.30222 0
M  V30 3006 H 276.855 3.19884 -7.03487 0
M  V30 3007 H 275.2 2.88313 -6.32377 0
M  V30 3008 H 278.391 2.20203 -4.13072 0
M  V30 3009 H 278.564 2.82304 -5.83274 0
M  V30 3010 N 271.97 1.30982 0.876444 0
M  V30 3011 C 273.198 1.23242 1.6619 0
M  V30 3012 C 273.613 -0.203345 1.87702 0
M  V30 3013 O 272.97 -1.13317 1.43057 0
M  V30 3014 C 273.021 1.96623 3.03351 0
M  V30 3015 O 272.742 3.34594 2.82804 0
M  V30 3016 C 274.243 1.95644 3.97792 0
M  V30 3017 H 271.463 0.426126 0.518322 0
M  V30 3018 H 274.007 1.7275 1.09442 0
M  V30 3019 H 272.162 1.50892 3.56806 0
M  V30 3020 H 272.576 3.71873 3.69879 0
M  V30 3021 H 274.05 2.51511 4.91372 0
M  V30 3022 H 274.527 0.937395 4.2908 0
M  V30 3023 H 275.133 2.41225 3.50272 0
M  V30 3024 N 273.449 -1.08991 1.13837 0
M  V30 3025 C 274.399 -2.1393 0.788535 0
M  V30 3026 C 275.383 -1.59396 -0.219516 0
M  V30 3027 O 276.575 -1.76985 -0.0227557 0
M  V30 3028 C 273.704 -3.42305 0.261147 0
M  V30 3029 C 272.79 -4.03736 1.29837 0
M  V30 3030 N 273.181 -4.39659 2.50067 0
M  V30 3031 C 271.479 -4.30993 1.1472 0
M  V30 3032 C 272.18 -4.88113 3.16419 0
M  V30 3033 N 271.156 -4.85846 2.43832 0
M  V30 3034 H 274.958 -2.39516 1.70322 0
M  V30 3035 H 272.472 -1.26263 1.02134 0
M  V30 3036 H 274.469 -4.16899 -0.0077405 0
M  V30 3037 H 273.129 -3.18172 -0.647805 0
M  V30 3038 H 274.14 -4.30878 2.8734 0
M  V30 3039 H 270.817 -4.16444 0.296773 0
M  V30 3040 H 272.207 -5.25336 4.18894 0
M  V30 3041 N 274.927 -0.932562 -1.27047 0
M  V30 3042 C 275.857 -0.452902 -2.29066 0
M  V30 3043 C 276.838 0.489338 -1.62909 0
M  V30 3044 O 278.023 0.393046 -1.90181 0
M  V30 3045 C 275.153 0.290698 -3.46081 0
M  V30 3046 C 274.107 -0.564168 -4.24265 0
M  V30 3047 C 273.433 0.308886 -5.33807 0
M  V30 3048 C 274.733 -1.83112 -4.89149 0
M  V30 3049 H 276.427 -1.30552 -2.69437 0
M  V30 3050 H 273.973 -0.629201 -1.29526 0
M  V30 3051 H 275.926 0.637233 -4.16554 0
M  V30 3052 H 274.65 1.17738 -3.0464 0
M  V30 3053 H 273.309 -0.893477 -3.55545 0
M  V30 3054 H 272.957 1.19467 -4.88607 0
M  V30 3055 H 272.657 -0.259633 -5.87026 0
M  V30 3056 H 274.181 0.650884 -6.07121 0
M  V30 3057 H 275.595 -1.55236 -5.51883 0
M  V30 3058 H 273.992 -2.34353 -5.52448 0
M  V30 3059 H 275.062 -2.54772 -4.12576 0
M  V30 3060 N 276.405 1.4127 -0.698611 0
M  V30 3061 C 277.368 2.29158 -0.044132 0
M  V30 3062 C 278.368 1.44529 0.704841 0
M  V30 3063 O 279.558 1.65643 0.539276 0
M  V30 3064 C 276.69 3.27459 0.947809 0
M  V30 3065 H 277.883 2.88529 -0.817994 0
M  V30 3066 H 275.436 1.49307 -0.46228 0
M  V30 3067 H 276.171 2.73073 1.74933 0
M  V30 3068 H 275.956 3.8991 0.41385 0
M  V30 3069 H 277.446 3.93311 1.40344 0
M  V30 3070 N 277.883 0.443576 1.51229 0
M  V30 3071 C 279.294 -0.0180867 1.86691 0
M  V30 3072 C 279.645 -1.41384 1.36033 0
M  V30 3073 O 278.77 -2.04291 0.713722 0
M  V30 3074 C 279.365 -0.039597 3.38777 0
M  V30 3075 C 277.924 -0.445692 3.73752 0
M  V30 3076 C 277.071 0.357584 2.74985 0
M  V30 3077 H 280.022 0.659138 1.44364 0
M  V30 3078 H 280.043 -0.847761 3.70936 0
M  V30 3079 H 279.555 0.976382 3.75617 0
M  V30 3080 H 277.656 -1.46704 3.42503 0
M  V30 3081 H 277.769 -0.166155 4.78812 0
M  V30 3082 H 276.133 -0.184973 2.54027 0
M  V30 3083 H 276.916 1.37256 3.14668 0
M  V30 3084 N 279.361 -1.56624 0.175154 0
M  V30 3085 C 280.591 -2.01082 -0.474283 0
M  V30 3086 C 280.999 -1.05447 -1.57091 0
M  V30 3087 O 280.342 -0.0480595 -1.83637 0
M  V30 3088 C 280.404 -3.41963 -1.10911 0
M  V30 3089 C 280.068 -4.56742 -0.153666 0
M  V30 3090 C 281.065 -5.16076 0.629448 0
M  V30 3091 C 278.75 -5.02277 -0.0483776 0
M  V30 3092 C 280.744 -6.19377 1.50501 0
M  V30 3093 C 278.431 -6.05427 0.830768 0
M  V30 3094 C 279.429 -6.63849 1.60605 0
M  V30 3095 O 279.117 -7.64998 2.47049 0
M  V30 3096 H 278.849 -0.664261 -0.125432 0
M  V30 3097 H 281.403 -2.03549 0.275163 0
M  V30 3098 H 279.633 -3.36422 -1.90676 0
M  V30 3099 H 281.322 -3.70352 -1.66114 0
M  V30 3100 H 282.088 -4.81776 0.558297 0
M  V30 3101 H 277.967 -4.56513 -0.641611 0
M  V30 3102 H 281.511 -6.64906 2.1106 0
M  V30 3103 H 277.408 -6.39151 0.903107 0
M  V30 3104 H 278.176 -7.82336 2.40607 0
M  V30 3105 N 280.839 0.0985539 -1.57292 0
M  V30 3106 C 282.064 0.820196 -1.90493 0
M  V30 3107 C 282.489 1.71658 -0.769094 0
M  V30 3108 O 281.847 1.79133 0.279495 0
M  V30 3109 C 281.895 1.61242 -3.22542 0
M  V30 3110 O 280.999 2.72108 -3.09888 0
M  V30 3111 H 280.34 0.225547 -0.62452 0
M  V30 3112 H 282.87 0.0748159 -2.04463 0
M  V30 3113 H 282.88 1.99737 -3.55766 0
M  V30 3114 H 281.555 0.954535 -4.04798 0
M  V30 3115 H 280.132 2.36667 -2.88172 0
M  V30 3116 N 282.317 1.53212 0.369288 0
M  V30 3117 C 283.594 1.59815 1.12776 0
M  V30 3118 C 283.974 0.403402 2.0721 0
M  V30 3119 O 283.322 -0.606667 2.20299 0
M  V30 3120 C 283.532 2.94664 1.87013 0
M  V30 3121 C 284.88 3.49109 2.41677 0
M  V30 3122 O 285.904 2.96669 1.97144 0
M  V30 3123 O 284.763 4.40775 3.23079 0
M  V30 3124 H 281.857 0.645376 0.517125 0
M  V30 3125 H 284.403 1.65553 0.37285 0
M  V30 3126 H 283.175 3.73061 1.18071 0
M  V30 3127 H 282.798 2.92401 2.69421 0
M  V30 3128 N 283.795 -0.628877 1.44509 0
M  V30 3129 C 284.705 -1.7694 1.54044 0
M  V30 3130 C 285.721 -1.68705 0.425987 0
M  V30 3131 O 286.897 -1.89442 0.683656 0
M  V30 3132 C 283.962 -3.13332 1.48405 0
M  V30 3133 C 283.023 -3.33181 2.70719 0
M  V30 3134 C 282.256 -4.63067 2.6534 0
M  V30 3135 O 282.479 -5.44017 1.71469 0
M  V30 3136 O 281.413 -4.85167 3.56226 0
M  V30 3137 H 285.239 -1.71848 2.50403 0
M  V30 3138 H 282.824 -0.790378 1.26781 0
M  V30 3139 H 284.706 -3.94634 1.47791 0
M  V30 3140 H 283.381 -3.1896 0.551898 0
M  V30 3141 H 282.288 -2.51549 2.769 0
M  V30 3142 H 283.621 -3.32416 3.62988 0
M  V30 3143 N 285.273 -1.31445 -0.869486 0
M  V30 3144 C 286.203 -1.21727 -1.99261 0
M  V30 3145 C 287.184 -0.104359 -1.6978 0
M  V30 3146 O 288.369 -0.289038 -1.92037 0
M  V30 3147 C 285.499 -0.924317 -3.34774 0
M  V30 3148 C 284.453 -1.99685 -3.78563 0
M  V30 3149 C 283.779 -1.55658 -5.11541 0
M  V30 3150 C 285.079 -3.41003 -3.95619 0
M  V30 3151 H 286.773 -2.1569 -2.07649 0
M  V30 3152 H 284.319 -1.03839 -0.997675 0
M  V30 3153 H 286.272 -0.842934 -4.12883 0
M  V30 3154 H 284.996 0.0509793 -3.2656 0
M  V30 3155 H 283.655 -2.06813 -3.02694 0
M  V30 3156 H 283.303 -0.569132 -4.9977 0
M  V30 3157 H 283.003 -2.27409 -5.41811 0
M  V30 3158 H 284.527 -1.48928 -5.92159 0
M  V30 3159 H 285.941 -3.36547 -4.64122 0
M  V30 3160 H 284.338 -4.10975 -4.37286 0
M  V30 3161 H 285.408 -3.81754 -2.98985 0
M  V30 3162 N 286.751 1.08385 -1.14413 0
M  V30 3163 C 288.167 1.32844 -0.884563 0
M  V30 3164 C 288.367 1.95841 0.474181 0
M  V30 3165 O 287.423 2.21158 1.21842 0
M  V30 3166 C 288.736 2.22978 -2.01745 0
M  V30 3167 C 290.284 2.36458 -2.05077 0
M  V30 3168 C 290.759 3.29934 -3.1766 0
M  V30 3169 N 292.25 3.37511 -3.17239 0
M  V30 3170 C 292.985 4.09871 -4.0099 0
M  V30 3171 N 292.481 4.84936 -4.94781 0
M  V30 3172 N 294.274 4.05704 -3.89051 0
M  V30 3173 H 286.425 0.658756 -2.01926 0
M  V30 3174 H 288.688 0.352821 -0.879899 0
M  V30 3175 H 288.394 1.83934 -2.99769 0
M  V30 3176 H 288.268 3.23441 -1.94077 0
M  V30 3177 H 290.655 2.7476 -1.0766 0
M  V30 3178 H 290.736 1.35736 -2.16816 0
M  V30 3179 H 290.38 2.92352 -4.15322 0
M  V30 3180 H 290.31 4.30584 -3.03158 0
M  V30 3181 H 292.801 2.83996 -2.49308 0
M  V30 3182 H 293.114 5.37612 -5.55151 0
M  V30 3183 H 291.459 4.83988 -4.98779 0
M  V30 3184 H 294.65 3.46167 -3.15097 0
M  V30 3185 H 294.823 4.61834 -4.54547 0
M  V30 3186 N 288.23 0.939286 1.26551 0
M  V30 3187 C 289.162 0.404704 2.25599 0
M  V30 3188 C 290.175 -0.470983 1.55838 0
M  V30 3189 O 291.364 -0.281734 1.76263 0
M  V30 3190 C 288.464 -0.43764 3.36062 0
M  V30 3191 C 287.637 0.421449 4.35365 0
M  V30 3192 C 286.696 -0.36015 5.24966 0
M  V30 3193 O 285.722 0.236167 5.6871 0
M  V30 3194 N 286.924 -1.65715 5.56344 0
M  V30 3195 H 289.689 1.25618 2.72103 0
M  V30 3196 H 287.25 0.807963 1.40298 0
M  V30 3197 H 289.242 -0.967866 3.92956 0
M  V30 3198 H 287.812 -1.18991 2.89067 0
M  V30 3199 H 287.032 1.1329 3.7757 0
M  V30 3200 H 288.32 1.00835 4.98708 0
M  V30 3201 H 287.718 -2.16378 5.22682 0
M  V30 3202 H 286.275 -2.13366 6.15888 0
M  V30 3203 N 289.708 -1.40897 0.706093 0
M  V30 3204 C 291.124 -1.55042 0.37869 0
M  V30 3205 C 291.324 -1.67944 -1.11342 0
M  V30 3206 O 290.38 -1.66372 -1.89938 0
M  V30 3207 C 291.693 -2.78398 1.13643 0
M  V30 3208 C 293.241 -2.92206 1.12181 0
M  V30 3209 C 293.716 -4.18463 1.86152 0
M  V30 3210 N 295.207 -4.25443 1.83173 0
M  V30 3211 C 295.942 -5.2202 2.37239 0
M  V30 3212 N 295.438 -6.24563 2.99821 0
M  V30 3213 N 297.231 -5.14033 2.27435 0
M  V30 3214 H 289.382 -1.30769 1.67372 0
M  V30 3215 H 291.645 -0.631653 0.706907 0
M  V30 3216 H 291.351 -2.7511 2.19106 0
M  V30 3217 H 291.225 -3.70228 0.721853 0
M  V30 3218 H 293.612 -2.95004 0.0754171 0
M  V30 3219 H 293.693 -2.01521 1.57554 0
M  V30 3220 H 293.337 -4.16427 2.90776 0
M  V30 3221 H 293.267 -5.08141 1.38206 0
M  V30 3222 H 295.758 -3.51976 1.37556 0
M  V30 3223 H 296.071 -6.94665 3.38616 0
M  V30 3224 H 294.416 -6.25035 3.03902 0
M  V30 3225 H 297.607 -4.3285 1.78208 0
M  V30 3226 H 297.78 -5.89129 2.69873 0
M  V30 3227 N 291.186 -0.45159 -1.50991 0
M  V30 3228 C 292.116 0.342898 -2.30969 0
M  V30 3229 C 293.097 1.00815 -1.37005 0
M  V30 3230 O 294.282 1.00907 -1.65926 0
M  V30 3231 C 291.412 1.43637 -3.16205 0
M  V30 3232 C 290.366 0.893818 -4.18563 0
M  V30 3233 C 289.692 2.08411 -4.92411 0
M  V30 3234 C 290.992 -0.0815568 -5.22236 0
M  V30 3235 H 292.686 -0.324556 -2.97636 0
M  V30 3236 H 290.232 -0.157531 -1.43136 0
M  V30 3237 H 292.185 1.9995 -3.70942 0
M  V30 3238 H 290.909 2.13232 -2.47386 0
M  V30 3239 H 289.568 0.352798 -3.64898 0
M  V30 3240 H 289.216 2.76658 -4.20082 0
M  V30 3241 H 288.916 1.72741 -5.61636 0
M  V30 3242 H 290.44 2.65251 -5.49976 0
M  V30 3243 H 291.854 0.391742 -5.7196 0
M  V30 3244 H 290.251 -0.351551 -5.99069 0
M  V30 3245 H 291.321 -1.01374 -4.74185 0
M  V30 3246 N 292.664 1.56529 -0.183458 0
M  V30 3247 C 293.627 2.17324 0.728223 0
M  V30 3248 C 294.627 1.12453 1.14939 0
M  V30 3249 O 295.817 1.37902 1.06437 0
M  V30 3250 C 292.949 2.76591 1.99274 0
M  V30 3251 H 294.142 2.99241 0.198772 0
M  V30 3252 H 291.695 1.5616 0.0661391 0
M  V30 3253 H 292.43 1.98441 2.56499 0
M  V30 3254 H 292.215 3.5335 1.69959 0
M  V30 3255 H 293.705 3.23311 2.6431 0
M  V30 3256 N 294.142 -0.090211 1.57342 0
M  V30 3257 C 295.105 -1.09335 2.01441 0
M  V30 3258 C 296.105 -1.32666 0.908641 0
M  V30 3259 O 297.295 -1.28697 1.174 0
M  V30 3260 C 294.427 -2.44136 2.3793 0
M  V30 3261 H 295.62 -0.713662 2.91285 0
M  V30 3262 H 293.173 -0.335404 1.52659 0
M  V30 3263 H 293.908 -2.86972 1.51055 0
M  V30 3264 H 293.693 -2.28548 3.18603 0
M  V30 3265 H 295.183 -3.16277 2.72688 0
M  V30 3266 N 295.62 -1.53406 -0.361157 0
M  V30 3267 C 297.036 -1.43277 -0.703124 0
M  V30 3268 C 297.236 -0.575384 -1.9311 0
M  V30 3269 O 296.292 -0.0595362 -2.5243 0
M  V30 3270 C 297.605 -2.8653 -0.9122 0
M  V30 3271 C 299.153 -2.96191 -1.01193 0
M  V30 3272 C 299.628 -4.40514 -1.25345 0
M  V30 3273 N 301.119 -4.43962 -1.32105 0
M  V30 3274 C 301.854 -5.52746 -1.5251 0
M  V30 3275 N 301.35 -6.71567 -1.70203 0
M  V30 3276 N 303.143 -5.40331 -1.54916 0
M  V30 3277 H 295.294 -2.07654 0.446475 0
M  V30 3278 H 297.557 -0.937944 0.137715 0
M  V30 3279 H 297.263 -3.51605 -0.0816414 0
M  V30 3280 H 297.137 -3.30441 -1.81903 0
M  V30 3281 H 299.524 -2.31266 -1.83303 0
M  V30 3282 H 299.605 -2.55667 -0.0823929 0
M  V30 3283 H 299.249 -5.06014 -0.437346 0
M  V30 3284 H 299.179 -4.78614 -2.19627 0
M  V30 3285 H 301.67 -3.58332 -1.20028 0
M  V30 3286 H 301.983 -7.50241 -1.85359 0
M  V30 3287 H 300.328 -6.74545 -1.67373 0
M  V30 3288 H 303.519 -4.46465 -1.40663 0
M  V30 3289 H 303.692 -6.25173 -1.70477 0
M  V30 3290 N 297.098 0.621204 -1.44841 0
M  V30 3291 C 298.028 1.74366 -1.55303 0
M  V30 3292 C 299.009 1.65199 -0.405385 0
M  V30 3293 O 300.194 1.83807 -0.626787 0
M  V30 3294 C 297.324 3.12931 -1.50637 0
M  V30 3295 C 296.278 3.36896 -2.63979 0
M  V30 3296 C 295.604 4.75594 -2.44366 0
M  V30 3297 C 296.904 3.28483 -4.06074 0
M  V30 3298 H 298.598 1.65867 -2.49256 0
M  V30 3299 H 296.144 0.796558 -1.19962 0
M  V30 3300 H 298.097 3.9124 -1.56555 0
M  V30 3301 H 296.821 3.22237 -0.532057 0
M  V30 3302 H 295.48 2.60972 -2.57467 0
M  V30 3303 H 295.128 4.81616 -1.45105 0
M  V30 3304 H 294.828 4.92586 -3.20364 0
M  V30 3305 H 296.352 5.5612 -2.52117 0
M  V30 3306 H 297.766 3.96684 -4.13902 0
M  V30 3307 H 296.163 3.57008 -4.82354 0
M  V30 3308 H 297.233 2.26133 -4.28943 0
M  V30 3309 N 298.576 1.31904 0.862503 0
M  V30 3310 C 299.486 1.22161 2.00285 0
M  V30 3311 C 300.502 0.136785 1.73462 0
M  V30 3312 O 301.678 0.355994 1.98229 0
M  V30 3313 C 298.743 0.937093 3.33796 0
M  V30 3314 C 297.804 2.10957 3.73893 0
M  V30 3315 C 297.037 1.83853 5.01033 0
M  V30 3316 O 297.26 0.777274 5.65079 0
M  V30 3317 O 296.194 2.69741 5.38074 0
M  V30 3318 H 300.02 2.18008 2.11439 0
M  V30 3319 H 297.605 1.11716 0.991957 0
M  V30 3320 H 299.487 0.794583 4.13841 0
M  V30 3321 H 298.162 0.00871894 3.23699 0
M  V30 3322 H 297.069 2.30752 2.94456 0
M  V30 3323 H 298.402 3.02046 3.88625 0
M  V30 3324 N 300.054 -1.07777 1.14986 0
M  V30 3325 C 301.017 -2.13041 0.845358 0
M  V30 3326 C 302.017 -1.60071 -0.152931 0
M  V30 3327 O 303.207 -1.74033 0.0761879 0
M  V30 3328 C 300.339 -3.39896 0.261383 0
M  V30 3329 H 301.532 -2.41485 1.77834 0
M  V30 3330 H 299.085 -1.23595 0.956757 0
M  V30 3331 H 299.82 -3.17091 -0.68 0
M  V30 3332 H 299.605 -3.79642 0.980514 0
M  V30 3333 H 301.095 -4.17548 0.0657687 0
M  V30 3334 N 301.532 -0.945985 -1.26051 0
M  V30 3335 C 302.462 -0.477172 -2.28572 0
M  V30 3336 C 303.443 0.472032 -1.63419 0
M  V30 3337 O 304.628 0.372853 -1.90587 0
M  V30 3338 C 301.758 0.253975 -3.4637 0
M  V30 3339 C 300.712 -0.609135 -4.23643 0
M  V30 3340 C 300.038 0.252252 -5.34105 0
M  V30 3341 C 301.338 -1.8829 -4.8718 0
M  V30 3342 H 303.032 -1.33402 -2.68038 0
M  V30 3343 H 300.578 -0.642904 -1.28852 0
M  V30 3344 H 302.531 0.593016 -4.17207 0
M  V30 3345 H 301.255 1.145 -3.05871 0
M  V30 3346 H 299.914 -0.931138 -3.54578 0
M  V30 3347 H 299.562 1.14278 -4.89846 0
M  V30 3348 H 299.262 -0.32188 -5.86718 0
M  V30 3349 H 300.786 0.586454 -6.07777 0
M  V30 3350 H 302.2 -1.61081 -5.50205 0
M  V30 3351 H 300.597 -2.40199 -5.49931 0
M  V30 3352 H 301.667 -2.59134 -4.09851 0
M  V30 3353 N 303.011 1.40521 -0.713556 0
M  V30 3354 C 303.958 2.30723 -0.059684 0
M  V30 3355 C 304.928 1.48079 0.752448 0
M  V30 3356 O 306.113 1.76823 0.71681 0
M  V30 3357 C 303.253 3.34274 0.857594 0
M  V30 3358 C 302.366 4.31986 0.0351536 0
M  V30 3359 C 301.501 5.22605 0.951724 0
M  V30 3360 C 300.54 6.11976 0.123253 0
M  V30 3361 N 299.677 6.9502 0.99459 0
M  V30 3362 H 304.517 2.86074 -0.834596 0
M  V30 3363 H 302.054 1.40879 -0.42326 0
M  V30 3364 H 304.012 3.92879 1.40364 0
M  V30 3365 H 302.642 2.8043 1.59871 0
M  V30 3366 H 301.694 3.7518 -0.628052 0
M  V30 3367 H 303.006 4.95101 -0.606347 0
M  V30 3368 H 302.16 5.86131 1.56638 0
M  V30 3369 H 300.899 4.59759 1.62705 0
M  V30 3370 H 299.904 5.47482 -0.50435 0
M  V30 3371 H 301.129 6.76881 -0.548539 0
M  V30 3372 H 299.075 6.34764 1.6556 0
M  V30 3373 H 298.992 7.54892 0.40908 0
M  V30 3374 H 300.26 7.62997 1.59549 0
M  V30 3375 N 304.489 0.459591 1.5075 0
M  V30 3376 C 305.399 -0.34613 2.32033 0
M  V30 3377 C 306.415 -1.00686 1.41909 0
M  V30 3378 O 307.591 -0.997361 1.7497 0
M  V30 3379 C 304.656 -1.42029 3.16273 0
M  V30 3380 C 303.717 -0.777362 4.22203 0
M  V30 3381 C 302.95 -1.80034 5.02418 0
M  V30 3382 O 303.173 -3.02544 4.83553 0
M  V30 3383 O 302.107 -1.37853 5.85901 0
M  V30 3384 H 305.933 0.318054 3.0203 0
M  V30 3385 H 303.518 0.221663 1.47746 0
M  V30 3386 H 305.4 -2.04275 3.68578 0
M  V30 3387 H 304.075 -2.06815 2.49016 0
M  V30 3388 H 302.982 -0.116256 3.73919 0
M  V30 3389 H 304.315 -0.172634 4.91897 0
M  V30 3390 N 305.967 -1.56429 0.191757 0
M  V30 3391 C 306.915 -2.20273 -0.747174 0
M  V30 3392 C 307.909 -1.17288 -1.22229 0
M  V30 3393 O 309.115 -1.35441 -1.18557 0
M  V30 3394 H 305.49 -0.705885 -0.259289 0
M  V30 3395 H 307.461 -2.97826 -0.184963 0
M  V30 3396 C 306.21 -2.87356 -1.95759 0
M  V30 3397 H 305.533 -3.66341 -1.60106 0
M  V30 3398 H 306.973 -3.3547 -2.59299 0
M  V30 3399 C 305.432 -1.88213 -2.79423 0
M  V30 3400 O 305.962 -1.38033 -3.7724 0
M  V30 3401 N 304.168 -1.56516 -2.44849 0
M  V30 3402 H 303.715 -1.97516 -1.65364 0
M  V30 3403 H 303.673 -0.904369 -3.01112 0
M  V30 3404 N 307.445 0.0818655 -1.57387 0
M  V30 3405 C 308.693 0.781368 -1.86384 0
M  V30 3406 C 309.014 1.78618 -0.782342 0
M  V30 3407 O 308.284 1.94976 0.190061 0
M  V30 3408 H 306.864 0.291562 -0.687751 0
M  V30 3409 H 309.526 0.060348 -1.94807 0
M  V30 3410 H 308.622 1.3038 -2.83562 0
M  V30 3411 N 308.923 1.53595 0.353017 0
M  V30 3412 C 310.171 1.70049 1.09215 0
M  V30 3413 C 310.492 0.461406 1.89463 0
M  V30 3414 O 309.762 -0.524633 1.88744 0
M  V30 3415 H 308.342 0.626912 0.40619 0
M  V30 3416 H 311.004 1.90822 0.396585 0
M  V30 3417 H 310.1 2.56718 1.77488 0
M  V30 3418 N 310.401 -0.613514 1.45168 0
M  V30 3419 C 311.364 -1.7065 1.53007 0
M  V30 3420 C 312.364 -1.5548 0.410184 0
M  V30 3421 O 313.554 -1.60656 0.673455 0
M  V30 3422 C 310.686 -3.09875 1.42093 0
M  V30 3423 H 311.879 -1.65068 2.50385 0
M  V30 3424 H 309.432 -0.828728 1.32521 0
M  V30 3425 H 310.167 -3.21039 0.458769 0
M  V30 3426 H 309.952 -3.22293 2.23315 0
M  V30 3427 H 311.442 -3.895 1.50598 0
M  V30 3428 N 311.879 -1.3236 -0.855495 0
M  V30 3429 C 313.295 -1.11332 -1.14356 0
M  V30 3430 C 313.495 0.106751 -2.01217 0
M  V30 3431 O 312.551 0.791891 -2.39761 0
M  V30 3432 C 313.864 -2.39237 -1.82171 0
M  V30 3433 C 315.412 -2.44986 -1.9481 0
M  V30 3434 C 315.887 -3.7281 -2.66039 0
M  V30 3435 N 317.378 -3.73787 -2.73565 0
M  V30 3436 C 318.113 -4.69394 -3.29327 0
M  V30 3437 N 317.609 -5.75367 -3.85907 0
M  V30 3438 N 319.402 -4.56893 -3.27423 0
M  V30 3439 H 311.553 -2.10586 -0.277027 0
M  V30 3440 H 313.816 -0.929701 -0.185364 0
M  V30 3441 H 313.522 -3.28431 -1.25802 0
M  V30 3442 H 313.396 -2.50134 -2.82335 0
M  V30 3443 H 315.783 -1.56252 -2.50338 0
M  V30 3444 H 315.864 -2.38043 -0.936448 0
M  V30 3445 H 315.508 -4.61918 -2.11174 0
M  V30 3446 H 315.438 -3.77024 -3.67642 0
M  V30 3447 H 317.929 -2.97189 -2.33424 0
M  V30 3448 H 318.242 -6.44378 -4.26611 0
M  V30 3449 H 316.587 -5.79123 -3.84242 0
M  V30 3450 H 319.778 -3.73269 -2.82467 0
M  V30 3451 H 319.951 -5.31577 -3.7058 0
M  V30 3452 N 313.357 1.07166 -1.15556 0
M  V30 3453 C 314.287 2.16403 -0.877046 0
M  V30 3454 C 315.268 1.69217 0.173111 0
M  V30 3455 O 316.453 1.94181 0.027084 0
M  V30 3456 C 313.583 3.45349 -0.367632 0
M  V30 3457 C 312.537 4.05995 -1.35468 0
M  V30 3458 C 311.863 5.30045 -0.704038 0
M  V30 3459 C 313.163 4.45804 -2.72132 0
M  V30 3460 H 314.857 2.39959 -1.79053 0
M  V30 3461 H 312.403 1.15325 -0.862331 0
M  V30 3462 H 314.356 4.21095 -0.160317 0
M  V30 3463 H 313.08 3.21385 0.581326 0
M  V30 3464 H 311.739 3.32296 -1.54839 0
M  V30 3465 H 311.387 5.02373 0.251128 0
M  V30 3466 H 311.087 5.71579 -1.36277 0
M  V30 3467 H 312.611 6.08495 -0.50654 0
M  V30 3468 H 314.025 5.12671 -2.56595 0
M  V30 3469 H 312.422 4.98296 -3.34397 0
M  V30 3470 H 313.492 3.57083 -3.28054 0
M  V30 3471 N 314.835 0.952656 1.25548 0
M  V30 3472 C 315.798 0.475794 2.24207 0
M  V30 3473 C 316.798 -0.419428 1.55234 0
M  V30 3474 O 317.988 -0.216994 1.72843 0
M  V30 3475 C 315.12 -0.312814 3.39462 0
M  V30 3476 H 316.313 1.34779 2.67908 0
M  V30 3477 H 313.866 0.735739 1.37901 0
M  V30 3478 H 314.601 -1.20257 3.01179 0
M  V30 3479 H 314.386 0.329404 3.90714 0
M  V30 3480 H 315.876 -0.635986 4.12729 0
M  V30 3481 N 316.313 -1.40141 0.720998 0
M  V30 3482 C 317.223 -2.34486 0.0731031 0
M  V30 3483 C 318.239 -1.57587 -0.737723 0
M  V30 3484 O 319.415 -1.89949 -0.669429 0
M  V30 3485 C 316.48 -3.36528 -0.833656 0
M  V30 3486 C 315.541 -4.29298 -0.0121673 0
M  V30 3487 C 314.774 -5.26466 -0.875742 0
M  V30 3488 O 314.997 -5.29745 -2.11485 0
M  V30 3489 O 313.931 -6.01092 -0.31185 0
M  V30 3490 H 317.757 -2.9152 0.851444 0
M  V30 3491 H 315.342 -1.41427 0.481527 0
M  V30 3492 H 317.224 -3.99093 -1.35289 0
M  V30 3493 H 315.899 -2.81899 -1.59105 0
M  V30 3494 H 314.806 -3.70001 0.552262 0
M  V30 3495 H 316.139 -4.87094 0.707129 0
M  V30 3496 N 317.792 -0.46758 -1.50504 0
M  V30 3497 C 319.022 0.086288 -2.0642 0
M  V30 3498 C 319.43 1.34369 -1.33197 0
M  V30 3499 O 318.773 1.79431 -0.393747 0
M  V30 3500 C 318.835 0.443846 -3.5675 0
M  V30 3501 C 318.499 -0.711035 -4.51435 0
M  V30 3502 C 319.496 -1.59205 -4.94924 0
M  V30 3503 C 317.181 -0.900363 -4.94165 0
M  V30 3504 C 319.175 -2.64683 -5.79846 0
M  V30 3505 C 316.862 -1.95837 -5.7887 0
M  V30 3506 C 317.86 -2.82997 -6.21612 0
M  V30 3507 O 317.548 -3.86977 -7.0463 0
M  V30 3508 H 317.28 -0.00217814 -0.675996 0
M  V30 3509 H 319.834 -0.654346 -1.94698 0
M  V30 3510 H 318.064 1.23762 -3.6636 0
M  V30 3511 H 319.753 0.932386 -3.95046 0
M  V30 3512 H 320.519 -1.45745 -4.62583 0
M  V30 3513 H 316.398 -0.231427 -4.60419 0
M  V30 3514 H 319.942 -3.32745 -6.13128 0
M  V30 3515 H 315.839 -2.09305 -6.10624 0
M  V30 3516 H 316.607 -3.83923 -7.22873 0
M  V30 3517 N 319.27 1.56325 -0.20005 0
M  V30 3518 C 320.22 2.15939 0.731743 0
M  V30 3519 C 321.204 1.10154 1.17281 0
M  V30 3520 O 322.396 1.36203 1.13038 0
M  V30 3521 C 319.525 2.82614 1.94895 0
M  V30 3522 C 318.611 3.95596 1.52855 0
M  V30 3523 N 319.002 4.99118 0.819418 0
M  V30 3524 C 317.3 4.07288 1.81748 0
M  V30 3525 C 318.001 5.78513 0.608053 0
M  V30 3526 N 316.977 5.31117 1.15828 0
M  V30 3527 H 320.779 2.9334 0.181285 0
M  V30 3528 H 318.293 1.624 -0.000452172 0
M  V30 3529 H 320.29 3.23718 2.62702 0
M  V30 3530 H 318.95 2.06702 2.50408 0
M  V30 3531 H 319.961 5.15723 0.47436 0
M  V30 3532 H 316.638 3.42509 2.38734 0
M  V30 3533 H 318.028 6.71885 0.0451619 0
M  V30 3534 N 320.748 -0.0735177 1.57428 0
M  V30 3535 C 321.711 -1.07192 2.02589 0
M  V30 3536 C 322.711 -1.31695 0.922661 0
M  V30 3537 O 323.901 -1.27445 1.18758 0
M  V30 3538 C 321.033 -2.41599 2.40506 0
M  V30 3539 H 322.226 -0.682727 2.92025 0
M  V30 3540 H 319.779 -0.319193 1.53006 0
M  V30 3541 H 320.514 -2.85354 1.5409 0
M  V30 3542 H 320.299 -2.25156 3.21009 0
M  V30 3543 H 321.789 -3.13367 2.76027 0
M  V30 3544 N 322.226 -1.5378 -0.344866 0
M  V30 3545 C 323.173 -1.81676 -1.42346 0
M  V30 3546 C 324.143 -0.662376 -1.52321 0
M  V30 3547 O 325.328 -0.906675 -1.67881 0
M  V30 3548 C 322.468 -2.03087 -2.79015 0
M  V30 3549 C 321.581 -3.30799 -2.77842 0
M  V30 3550 C 320.716 -3.42285 -4.0622 0
M  V30 3551 C 319.755 -4.6395 -3.9927 0
M  V30 3552 N 318.892 -4.72477 -5.19336 0
M  V30 3553 H 323.732 -2.73703 -1.17858 0
M  V30 3554 H 321.269 -1.35568 -0.570949 0
M  V30 3555 H 323.227 -2.1349 -3.58438 0
M  V30 3556 H 321.857 -1.14375 -3.01858 0
M  V30 3557 H 320.909 -3.29244 -1.90533 0
M  V30 3558 H 322.221 -4.20314 -2.68584 0
M  V30 3559 H 321.375 -3.52113 -4.94066 0
M  V30 3560 H 320.114 -2.50823 -4.18258 0
M  V30 3561 H 319.119 -4.54201 -3.09809 0
M  V30 3562 H 320.344 -5.56775 -3.88817 0
M  V30 3563 H 318.29 -3.83924 -5.3192 0
M  V30 3564 H 318.207 -5.55927 -5.12329 0
M  V30 3565 H 319.475 -4.86613 -6.08957 0
M  V30 3566 N 323.704 0.605807 -1.45491 0
M  V30 3567 C 324.667 1.69836 -1.5391 0
M  V30 3568 C 325.667 1.55261 -0.418424 0
M  V30 3569 O 326.857 1.60296 -0.681965 0
M  V30 3570 C 323.989 3.09117 -1.43734 0
M  V30 3571 H 325.182 1.63738 -2.51257 0
M  V30 3572 H 322.735 0.821689 -1.32959 0
M  V30 3573 H 323.47 3.20791 -0.475788 0
M  V30 3574 H 323.255 3.21104 -2.25021 0
M  V30 3575 H 324.745 3.88696 -1.52661 0
M  V30 3576 N 325.182 1.32811 0.848464 0
M  V30 3577 C 326.41 1.26739 1.63538 0
M  V30 3578 C 326.825 -0.163484 1.88091 0
M  V30 3579 O 326.182 -1.10258 1.45429 0
M  V30 3580 C 326.233 2.03013 2.99112 0
M  V30 3581 O 325.954 3.40518 2.75643 0
M  V30 3582 C 327.455 2.04038 3.93552 0
M  V30 3583 H 324.675 0.437024 0.509167 0
M  V30 3584 H 327.219 1.75033 1.05753 0
M  V30 3585 H 325.374 1.58426 3.53525 0
M  V30 3586 H 325.788 3.79635 3.61908 0
M  V30 3587 H 327.262 2.61877 4.85926 0
M  V30 3588 H 327.739 1.0282 4.26995 0
M  V30 3589 H 328.345 2.486 3.45077 0
M  V30 3590 N 326.66 -1.06551 1.16123 0
M  V30 3591 C 327.57 -2.17484 0.879662 0
M  V30 3592 C 328.586 -1.73377 -0.147104 0
M  V30 3593 O 329.762 -2.01379 0.0289128 0
M  V30 3594 C 326.827 -3.44591 0.381829 0
M  V30 3595 C 325.888 -4.0322 1.4735 0
M  V30 3596 C 325.121 -5.24261 0.999324 0
M  V30 3597 O 325.344 -5.70198 -0.151957 0
M  V30 3598 O 324.278 -5.74775 1.78653 0
M  V30 3599 H 328.104 -2.44075 1.80724 0
M  V30 3600 H 325.689 -1.16042 0.940992 0
M  V30 3601 H 327.571 -4.21254 0.111053 0
M  V30 3602 H 326.246 -3.19532 -0.51777 0
M  V30 3603 H 325.153 -3.2806 1.79798 0
M  V30 3604 H 326.486 -4.32568 2.34831 0
M  V30 3605 N 328.138 -0.959301 -1.25041 0
M  V30 3606 C 329.088 -0.453888 -2.23436 0
M  V30 3607 C 330.072 0.459461 -1.542 0
M  V30 3608 O 331.264 0.291752 -1.74579 0
M  V30 3609 C 328.393 0.262667 -3.42294 0
M  V30 3610 C 327.479 -0.669022 -4.1879 0
M  V30 3611 N 327.87 -1.80267 -4.72586 0
M  V30 3612 C 326.168 -0.47814 -4.4343 0
M  V30 3613 C 326.869 -2.38475 -5.3057 0
M  V30 3614 N 325.845 -1.67078 -5.17287 0
M  V30 3615 H 329.647 -1.319 -2.6264 0
M  V30 3616 H 327.161 -0.817358 -1.40332 0
M  V30 3617 H 329.158 0.641911 -4.11929 0
M  V30 3618 H 327.818 1.12432 -3.04613 0
M  V30 3619 H 328.829 -2.18442 -4.69578 0
M  V30 3620 H 325.506 0.340249 -4.16111 0
M  V30 3621 H 326.896 -3.34094 -5.8295 0
M  V30 3622 N 329.616 1.39756 -0.72842 0
M  V30 3623 C 330.546 2.33289 -0.0991354 0
M  V30 3624 C 331.527 1.53568 0.731489 0
M  V30 3625 O 332.712 1.81987 0.677807 0
M  V30 3626 C 329.842 3.3763 0.813834 0
M  V30 3627 C 328.796 4.2791 0.0878663 0
M  V30 3628 C 328.122 5.22894 1.11741 0
M  V30 3629 C 329.422 5.11314 -1.06563 0
M  V30 3630 H 331.116 2.86163 -0.880408 0
M  V30 3631 H 328.662 1.37591 -0.424819 0
M  V30 3632 H 330.615 4.0201 1.26355 0
M  V30 3633 H 329.339 2.83181 1.62715 0
M  V30 3634 H 327.998 3.65 -0.342159 0
M  V30 3635 H 327.646 4.64744 1.92412 0
M  V30 3636 H 327.346 5.84143 0.636477 0
M  V30 3637 H 328.87 5.90151 1.56697 0
M  V30 3638 H 330.284 5.69076 -0.694671 0
M  V30 3639 H 328.681 5.81671 -1.47577 0
M  V30 3640 H 329.751 4.46534 -1.89038 0
M  V30 3641 N 331.094 0.475555 1.50254 0
M  V30 3642 C 332.319 -0.0777042 2.07254 0
M  V30 3643 C 332.744 -1.3235 1.3366 0
M  V30 3644 O 332.102 -1.77152 0.385597 0
M  V30 3645 C 332.15 -0.340169 3.58992 0
M  V30 3646 O 331.254 -1.41982 3.87188 0
M  V30 3647 H 330.595 0.0149556 0.663832 0
M  V30 3648 H 333.125 0.667878 1.93392 0
M  V30 3649 H 333.135 -0.579332 4.03866 0
M  V30 3650 H 331.81 0.570167 4.11973 0
M  V30 3651 H 330.387 -1.16762 3.54148 0
M  V30 3652 N 332.573 -1.56217 0.208337 0
M  V30 3653 C 333.801 -2.02337 -0.43215 0
M  V30 3654 C 334.216 -1.08834 -1.54275 0
M  V30 3655 O 333.573 -0.0955462 -1.8225 0
M  V30 3656 C 333.624 -3.48072 -0.976138 0
M  V30 3657 O 333.345 -4.38007 0.0901621 0
M  V30 3658 C 334.846 -4.09773 -1.69119 0
M  V30 3659 H 332.066 -0.662385 -0.10718 0
M  V30 3660 H 334.61 -2.01966 0.320923 0
M  V30 3661 H 332.765 -3.49099 -1.67954 0
M  V30 3662 H 333.179 -5.23543 -0.316701 0
M  V30 3663 H 334.653 -5.13556 -2.02397 0
M  V30 3664 H 335.13 -3.53999 -2.59964 0
M  V30 3665 H 335.736 -4.12556 -1.03332 0
M  V30 3666 N 334.051 0.0651679 -1.57465 0
M  V30 3667 C 334.981 1.07693 -2.07182 0
M  V30 3668 C 335.962 1.39962 -0.966673 0
M  V30 3669 O 337.147 1.49475 -1.2398 0
M  V30 3670 C 334.277 2.3885 -2.52127 0
M  V30 3671 C 333.231 2.20917 -3.66579 0
M  V30 3672 C 332.557 3.57515 -3.97601 0
M  V30 3673 C 333.857 1.62493 -4.9638 0
M  V30 3674 H 335.551 0.663199 -2.91962 0
M  V30 3675 H 333.097 0.317569 -1.40455 0
M  V30 3676 H 335.05 3.09928 -2.85522 0
M  V30 3677 H 333.774 2.82215 -1.64384 0
M  V30 3678 H 332.433 1.52279 -3.33477 0
M  V30 3679 H 332.081 3.98463 -3.06979 0
M  V30 3680 H 331.781 3.46353 -4.74672 0
M  V30 3681 H 333.305 4.30013 -4.33499 0
M  V30 3682 H 334.719 2.23445 -5.27963 0
M  V30 3683 H 333.116 1.62009 -5.77818 0
M  V30 3684 H 334.186 0.587041 -4.81333 0
M  V30 3685 N 335.529 1.53961 0.336706 0
M  V30 3686 C 336.754 1.75797 1.10046 0
M  V30 3687 C 337.179 0.498985 1.81361 0
M  V30 3688 O 336.537 -0.548769 1.72795 0
M  V30 3689 C 336.585 2.94257 2.08436 0
M  V30 3690 O 335.689 2.64883 3.16087 0
M  V30 3691 H 335.03 0.582936 0.317934 0
M  V30 3692 H 337.56 2.00945 0.38501 0
M  V30 3693 H 337.57 3.21237 2.51537 0
M  V30 3694 H 336.245 3.85564 1.55927 0
M  V30 3695 H 334.822 2.48812 2.77753 0
M  V30 3696 N 337.007 -0.598083 1.45811 0
M  V30 3697 C 337.917 -1.73632 1.57763 0
M  V30 3698 C 338.933 -1.67763 0.461676 0
M  V30 3699 O 340.109 -1.87949 0.723685 0
M  V30 3700 C 337.174 -3.10114 1.55018 0
M  V30 3701 C 336.235 -3.27364 2.77726 0
M  V30 3702 C 335.468 -4.57334 2.75102 0
M  V30 3703 O 335.691 -5.40258 1.8297 0
M  V30 3704 O 334.625 -4.77502 3.66437 0
M  V30 3705 H 338.451 -1.66498 2.53992 0
M  V30 3706 H 336.036 -0.763308 1.28429 0
M  V30 3707 H 337.918 -3.9141 1.56129 0
M  V30 3708 H 336.593 -3.17718 0.619431 0
M  V30 3709 H 335.5 -2.45619 2.82174 0
M  V30 3710 H 336.833 -3.24641 3.69958 0
M  V30 3711 N 338.485 -1.33259 -0.841409 0
M  V30 3712 C 339.432 -1.23302 -1.95103 0
M  V30 3713 C 340.402 -0.112204 -1.65721 0
M  V30 3714 O 341.587 -0.290038 -1.88583 0
M  V30 3715 C 338.727 -0.975583 -3.31023 0
M  V30 3716 C 337.84 -2.18243 -3.72819 0
M  V30 3717 C 336.975 -1.85936 -4.97595 0
M  V30 3718 C 336.014 -3.02866 -5.3192 0
M  V30 3719 N 335.151 -2.70565 -6.47873 0
M  V30 3720 H 339.991 -2.18207 -2.02952 0
M  V30 3721 H 337.528 -1.0851 -0.993173 0
M  V30 3722 H 339.486 -0.80677 -4.09325 0
M  V30 3723 H 338.116 -0.0632755 -3.22738 0
M  V30 3724 H 337.168 -2.46107 -2.90061 0
M  V30 3725 H 338.48 -3.05666 -3.94169 0
M  V30 3726 H 337.634 -1.65684 -5.83638 0
M  V30 3727 H 336.373 -0.957452 -4.78209 0
M  V30 3728 H 335.378 -3.23736 -4.44382 0
M  V30 3729 H 336.603 -3.93809 -5.53255 0
M  V30 3730 H 334.549 -1.8293 -6.29978 0
M  V30 3731 H 334.466 -3.51519 -6.69306 0
M  V30 3732 H 335.734 -2.53774 -7.37034 0
M  V30 3733 N 339.963 1.05934 -1.16686 0
M  V30 3734 C 340.926 2.11669 -0.879144 0
M  V30 3735 C 341.926 1.60294 0.127445 0
M  V30 3736 O 343.116 1.7389 -0.103865 0
M  V30 3737 C 340.248 3.39438 -0.315425 0
M  V30 3738 H 341.441 2.38626 -1.81653 0
M  V30 3739 H 338.994 1.22058 -0.976299 0
M  V30 3740 H 339.729 3.18132 0.629468 0
M  V30 3741 H 339.514 3.78034 -1.04079 0
M  V30 3742 H 341.004 4.17391 -0.132189 0
M  V30 3743 N 341.441 0.965919 1.2453 0
M  V30 3744 C 342.388 0.49402 2.25451 0
M  V30 3745 C 343.358 -0.45948 1.59618 0
M  V30 3746 O 344.543 -0.370238 1.87173 0
M  V30 3747 C 341.683 -0.211359 3.44452 0
M  V30 3748 C 340.796 0.7807 4.24887 0
M  V30 3749 C 339.931 0.0516105 5.31175 0
M  V30 3750 C 338.97 1.03385 6.03306 0
M  V30 3751 N 338.107 0.334887 7.01301 0
M  V30 3752 H 342.947 1.35946 2.65184 0
M  V30 3753 H 340.484 0.681515 1.3036 0
M  V30 3754 H 342.442 -0.637 4.12308 0
M  V30 3755 H 341.072 -1.04077 3.05562 0
M  V30 3756 H 340.124 1.32479 3.56586 0
M  V30 3757 H 341.436 1.52978 4.74762 0
M  V30 3758 H 340.59 -0.432114 6.05159 0
M  V30 3759 H 339.329 -0.730179 4.82203 0
M  V30 3760 H 338.334 1.52847 5.28127 0
M  V30 3761 H 339.559 1.81606 6.54367 0
M  V30 3762 H 337.505 -0.427959 6.54603 0
M  V30 3763 H 337.422 1.02287 7.49048 0
M  V30 3764 H 338.69 -0.126928 7.79397 0
M  V30 3765 N 342.919 -1.39368 0.735821 0
M  V30 3766 C 344.33 -1.83313 0.354015 0
M  V30 3767 C 344.681 -1.61461 -1.11466 0
M  V30 3768 O 343.806 -1.10621 -1.85989 0
M  V30 3769 C 344.401 -3.32781 0.635769 0
M  V30 3770 C 342.96 -3.75142 0.307448 0
M  V30 3771 C 342.107 -2.62358 0.897974 0
M  V30 3772 H 345.058 -1.28349 0.933398 0
M  V30 3773 H 345.079 -3.80388 -0.0921773 0
M  V30 3774 H 344.591 -3.48654 1.70476 0
M  V30 3775 H 342.692 -3.64857 -0.755674 0
M  V30 3776 H 342.805 -4.72532 0.790583 0
M  V30 3777 H 341.169 -2.52624 0.324551 0
M  V30 3778 H 341.952 -2.81036 1.97164 0
M  V30 3779 N 344.397 -0.483516 -1.5 0
M  V30 3780 C 345.36 0.292965 -2.2732 0
M  V30 3781 C 346.36 0.909499 -1.32608 0
M  V30 3782 O 347.55 0.776745 -1.55924 0
M  V30 3783 C 344.682 1.41854 -3.09984 0
M  V30 3784 H 345.875 -0.385289 -2.97415 0
M  V30 3785 H 343.428 -0.237942 -1.54478 0
M  V30 3786 H 344.163 2.13148 -2.44414 0
M  V30 3787 H 343.948 0.982114 -3.79601 0
M  V30 3788 H 345.438 1.96597 -3.68429 0
M  V30 3789 N 345.875 1.56104 -0.216619 0
M  V30 3790 C 346.805 2.23063 0.690296 0
M  V30 3791 C 347.786 1.20072 1.20485 0
M  V30 3792 O 348.971 1.48643 1.24976 0
M  V30 3793 C 346.101 2.90672 1.90072 0
M  V30 3794 C 345.055 4.00092 1.5202 0
M  V30 3795 C 344.381 4.54972 2.80899 0
M  V30 3796 C 345.681 5.17398 0.71391 0
M  V30 3797 H 347.375 2.99109 0.132038 0
M  V30 3798 H 344.921 1.43866 0.0620664 0
M  V30 3799 H 346.874 3.36204 2.54057 0
M  V30 3800 H 345.598 2.12066 2.48386 0
M  V30 3801 H 344.257 3.55283 0.903839 0
M  V30 3802 H 343.905 3.73102 3.37348 0
M  V30 3803 H 343.605 5.28817 2.56176 0
M  V30 3804 H 345.129 5.0322 3.45836 0
M  V30 3805 H 346.543 5.59342 1.25735 0
M  V30 3806 H 344.94 5.97444 0.563951 0
M  V30 3807 H 346.01 4.84088 -0.280527 0
M  V30 3808 N 347.353 -0.0568162 1.57498 0
M  V30 3809 C 348.263 -1.08346 2.08083 0
M  V30 3810 C 349.279 -1.41439 1.01346 0
M  V30 3811 O 350.455 -1.51316 1.32912 0
M  V30 3812 C 347.52 -2.37352 2.52715 0
M  V30 3813 C 346.581 -2.11093 3.73816 0
M  V30 3814 C 345.814 -3.33949 4.1631 0
M  V30 3815 O 346.037 -4.43622 3.58547 0
M  V30 3816 O 344.971 -3.21279 5.08983 0
M  V30 3817 H 348.797 -0.683667 2.95905 0
M  V30 3818 H 346.382 -0.271965 1.46904 0
M  V30 3819 H 348.264 -3.13246 2.81877 0
M  V30 3820 H 346.939 -2.76681 1.68016 0
M  V30 3821 H 345.846 -1.32856 3.49714 0
M  V30 3822 H 347.179 -1.76637 4.59413 0
M  V30 3823 N 348.832 -1.54138 -0.328536 0
M  V30 3824 C 350.109 -1.62749 -1.08499 0
M  V30 3825 C 350.489 -0.458198 -2.06067 0
M  V30 3826 O 349.837 0.548046 -2.2183 0
M  V30 3827 C 350.047 -2.99519 -1.79135 0
M  V30 3828 C 351.395 -3.55394 -2.32337 0
M  V30 3829 O 352.419 -3.01792 -1.89209 0
M  V30 3830 O 351.278 -4.49186 -3.11279 0
M  V30 3831 H 348.372 -0.65886 -0.499832 0
M  V30 3832 H 350.918 -1.66484 -0.328826 0
M  V30 3833 H 349.69 -3.76061 -1.08139 0
M  V30 3834 H 349.313 -2.99441 -2.61574 0
M  V30 3835 N 350.31 0.590341 -1.46126 0
M  V30 3836 C 351.24 1.71032 -1.58966 0
M  V30 3837 C 352.221 1.64302 -0.440335 0
M  V30 3838 O 353.406 1.82436 -0.665634 0
M  V30 3839 C 350.536 3.09665 -1.57241 0
M  V30 3840 C 349.49 3.31221 -2.71066 0
M  V30 3841 C 348.816 4.70303 -2.54399 0
M  V30 3842 C 350.116 3.19796 -4.1295 0
M  V30 3843 H 351.81 1.60543 -2.52718 0
M  V30 3844 H 349.356 0.770933 -1.21625 0
M  V30 3845 H 351.309 3.87831 -1.64819 0
M  V30 3846 H 350.033 3.21036 -0.600289 0
M  V30 3847 H 348.692 2.55452 -2.62944 0
M  V30 3848 H 348.34 4.78429 -1.55288 0
M  V30 3849 H 348.04 4.85679 -3.30741 0
M  V30 3850 H 349.564 5.50647 -2.63857 0
M  V30 3851 H 350.978 3.87815 -4.22223 0
M  V30 3852 H 349.375 3.46696 -4.89818 0
M  V30 3853 H 350.445 2.16983 -4.33643 0
M  V30 3854 N 351.788 1.33704 0.83433 0
M  V30 3855 C 353.204 1.13137 1.12571 0
M  V30 3856 C 353.404 -0.0747261 2.01361 0
M  V30 3857 O 352.46 -0.753647 2.4099 0
M  V30 3858 C 353.773 2.42105 1.78342 0
M  V30 3859 C 355.321 2.48054 1.90888 0
M  V30 3860 C 355.796 3.76995 2.60075 0
M  V30 3861 N 357.287 3.78092 2.67584 0
M  V30 3862 C 358.022 4.74574 3.21818 0
M  V30 3863 N 357.518 5.81434 3.76705 0
M  V30 3864 N 359.311 4.62044 3.20112 0
M  V30 3865 H 351.462 2.11 0.243489 0
M  V30 3866 H 353.725 0.932532 0.17055 0
M  V30 3867 H 353.431 3.30391 1.20561 0
M  V30 3868 H 353.305 2.54594 2.7832 0
M  V30 3869 H 355.692 1.60215 2.47821 0
M  V30 3870 H 355.773 2.39502 0.898459 0
M  V30 3871 H 355.417 4.65219 2.03799 0
M  V30 3872 H 355.347 3.82825 3.61597 0
M  V30 3873 H 357.838 3.00865 2.28667 0
M  V30 3874 H 358.151 6.51084 4.16305 0
M  V30 3875 H 356.496 5.85163 3.7498 0
M  V30 3876 H 359.687 3.77716 2.76493 0
M  V30 3877 H 359.86 5.37406 3.62076 0
M  V30 3878 N 353.266 -1.05314 1.17247 0
M  V30 3879 C 354.198 -2.13023 0.845812 0
M  V30 3880 C 355.211 -1.62096 -0.151246 0
M  V30 3881 O 356.4 -1.78343 0.0748818 0
M  V30 3882 C 353.5 -3.38047 0.240292 0
M  V30 3883 C 352.673 -4.18255 1.27991 0
M  V30 3884 C 351.732 -5.21625 0.692375 0
M  V30 3885 O 350.758 -5.52619 1.36385 0
M  V30 3886 N 351.96 -5.78201 -0.516178 0
M  V30 3887 H 354.725 -2.41642 1.77283 0
M  V30 3888 H 352.286 -1.21401 1.07115 0
M  V30 3889 H 354.278 -4.04359 -0.16603 0
M  V30 3890 H 352.848 -3.06972 -0.590487 0
M  V30 3891 H 352.068 -3.47451 1.86203 0
M  V30 3892 H 353.356 -4.68643 1.98119 0
M  V30 3893 H 352.754 -5.55301 -1.07969 0
M  V30 3894 H 351.311 -6.4604 -0.86458 0
M  V30 3895 N 354.744 -0.972509 -1.24016 0
M  V30 3896 C 355.992 -0.635776 -1.91839 0
M  V30 3897 C 356.313 0.832312 -1.76345 0
M  V30 3898 O 355.583 1.5946 -1.13795 0
M  V30 3899 H 354.163 -0.232157 -0.710009 0
M  V30 3900 H 356.825 -1.23462 -1.50809 0
M  V30 3901 H 355.921 -0.880545 -2.99421 0
M  V30 3902 N 356.222 1.38976 -0.743202 0
M  V30 3903 C 357.152 2.33171 -0.123873 0
M  V30 3904 C 358.133 1.54336 0.71516 0
M  V30 3905 O 359.318 1.82696 0.658467 0
M  V30 3906 C 356.448 3.38474 0.777978 0
M  V30 3907 C 355.402 4.27979 0.0424758 0
M  V30 3908 C 354.728 5.2405 1.06189 0
M  V30 3909 C 356.028 5.10155 -1.1198 0
M  V30 3910 H 357.722 2.85213 -0.910709 0
M  V30 3911 H 355.268 1.37133 -0.439388 0
M  V30 3912 H 357.221 4.03328 1.22084 0
M  V30 3913 H 355.945 2.84891 1.59702 0
M  V30 3914 H 354.604 3.64616 -0.380853 0
M  V30 3915 H 354.252 4.66758 1.87472 0
M  V30 3916 H 353.952 5.84785 0.574485 0
M  V30 3917 H 355.476 5.9178 1.50428 0
M  V30 3918 H 356.89 5.68307 -0.75499 0
M  V30 3919 H 355.287 5.80073 -1.53738 0
M  V30 3920 H 356.357 4.44504 -1.93764 0
M  V30 3921 N 357.7 0.491464 1.49741 0
M  V30 3922 C 358.63 -0.28154 2.31796 0
M  V30 3923 C 359.611 -0.971473 1.3963 0
M  V30 3924 O 360.796 -0.964719 1.68543 0
M  V30 3925 C 357.926 -1.35203 3.19902 0
M  V30 3926 C 356.88 -0.782529 4.20786 0
M  V30 3927 C 356.206 -1.95283 4.97764 0
M  V30 3928 C 357.506 0.21999 5.21837 0
M  V30 3929 H 359.2 0.403355 2.96671 0
M  V30 3930 H 356.746 0.195425 1.42668 0
M  V30 3931 H 358.699 -1.90045 3.76113 0
M  V30 3932 H 357.423 -2.06598 2.52953 0
M  V30 3933 H 356.082 -0.255928 3.65706 0
M  V30 3934 H 355.73 -2.65423 4.2727 0
M  V30 3935 H 355.43 -1.57789 5.66018 0
M  V30 3936 H 356.954 -2.50577 5.56816 0
M  V30 3937 H 358.368 -0.23996 5.72798 0
M  V30 3938 H 356.765 0.51026 5.97927 0
M  V30 3939 H 357.835 1.13911 4.7133 0
M  V30 3940 N 359.178 -1.55987 0.224894 0
M  V30 3941 C 360.589 -1.84553 -0.282345 0
M  V30 3942 C 360.94 -1.14634 -1.59227 0
M  V30 3943 O 360.065 -0.417155 -2.12341 0
M  V30 3944 C 360.66 -3.348 -0.519062 0
M  V30 3945 C 359.219 -3.63671 -0.970604 0
M  V30 3946 C 358.366 -2.77277 -0.0355261 0
M  V30 3947 H 361.317 -1.52245 0.448006 0
M  V30 3948 H 361.338 -3.55187 -1.36463 0
M  V30 3949 H 360.85 -3.8566 0.43449 0
M  V30 3950 H 358.951 -3.1827 -1.9374 0
M  V30 3951 H 359.064 -4.71631 -0.842698 0
M  V30 3952 H 357.428 -2.48846 -0.542927 0
M  V30 3953 H 358.211 -3.30937 0.913003 0
M  V30 3954 N 360.656 0.0484629 -1.57525 0
M  V30 3955 C 361.902 0.744226 -1.88651 0
M  V30 3956 C 362.235 1.76029 -0.820212 0
M  V30 3957 O 361.51 1.93782 0.166985 0
M  V30 3958 C 361.793 1.43128 -3.30434 0
M  V30 3959 C 361.646 0.43005 -4.47739 0
M  V30 3960 C 362.965 2.37031 -3.70816 0
M  V30 3961 H 360.084 0.269089 -0.68612 0
M  V30 3962 H 362.726 0.00713532 -1.89999 0
M  V30 3963 H 360.876 2.05956 -3.29415 0
M  V30 3964 H 362.548 -0.194816 -4.60888 0
M  V30 3965 H 360.791 -0.252522 -4.33064 0
M  V30 3966 H 361.462 0.948874 -5.43783 0
M  V30 3967 H 363.938 1.84263 -3.73077 0
M  V30 3968 H 362.814 2.82094 -4.70865 0
M  V30 3969 H 363.075 3.22864 -3.02012 0
M  V30 3970 N 362.134 1.5431 0.320358 0
M  V30 3971 C 363.064 1.86912 1.3995 0
M  V30 3972 C 364.045 0.726211 1.53819 0
M  V30 3973 O 365.23 0.980233 1.67646 0
M  V30 3974 C 362.36 2.09932 2.7667 0
M  V30 3975 C 361.314 3.25776 2.77586 0
M  V30 3976 C 360.64 3.34173 4.17412 0
M  V30 3977 C 361.94 4.6335 2.41048 0
M  V30 3978 H 363.634 2.77292 1.12914 0
M  V30 3979 H 361.18 1.33421 0.541738 0
M  V30 3980 H 363.133 2.31324 3.52232 0
M  V30 3981 H 361.857 1.16304 3.0519 0
M  V30 3982 H 360.516 3.04276 2.04479 0
M  V30 3983 H 360.164 2.38098 4.43078 0
M  V30 3984 H 359.864 4.12033 4.18931 0
M  V30 3985 H 361.388 3.57803 4.94782 0
M  V30 3986 H 362.802 4.84602 3.06324 0
M  V30 3987 H 361.199 5.43782 2.53813 0
M  V30 3988 H 362.269 4.65381 1.36193 0
M  V30 3989 N 363.613 -0.582584 1.46437 0
M  V30 3990 C 364.523 -1.71949 1.59595 0
M  V30 3991 C 365.539 -1.67264 0.479443 0
M  V30 3992 O 366.715 -1.87171 0.743579 0
M  V30 3993 C 363.78 -3.08452 1.58298 0
M  V30 3994 C 362.841 -3.244 2.81182 0
M  V30 3995 C 362.074 -4.54391 2.79937 0
M  V30 3996 O 362.297 -5.38287 1.8869 0
M  V30 3997 O 361.231 -4.73588 3.71481 0
M  V30 3998 H 365.057 -1.63795 2.55744 0
M  V30 3999 H 362.642 -0.749643 1.29231 0
M  V30 4000 H 364.524 -3.89732 1.60271 0
M  V30 4001 H 363.199 -3.17043 0.653094 0
M  V30 4002 H 362.106 -2.42613 2.84763 0
M  V30 4003 H 363.439 -3.20699 3.7338 0
M  V30 4004 N 365.091 -1.34144 -0.827227 0
M  V30 4005 C 366.316 -1.29476 -1.62021 0
M  V30 4006 C 366.741 0.129292 -1.87655 0
M  V30 4007 O 366.099 1.08967 -1.449 0
M  V30 4008 C 366.147 -2.08702 -2.94068 0
M  V30 4009 O 365.251 -1.45359 -3.85933 0
M  V30 4010 H 364.592 -0.444881 -0.492927 0
M  V30 4011 H 367.122 -1.76882 -1.02829 0
M  V30 4012 H 367.132 -2.19898 -3.43669 0
M  V30 4013 H 365.807 -3.12241 -2.74734 0
M  V30 4014 H 364.384 -1.42879 -3.44442 0
M  V30 4015 N 366.569 1.04691 -1.17803 0
M  V30 4016 C 367.816 1.77782 -0.969532 0
M  V30 4017 C 368.144 1.87926 0.501401 0
M  V30 4018 O 367.399 1.37918 1.38842 0
M  V30 4019 C 367.698 3.21467 -1.56186 0
M  V30 4020 C 367.364 3.3137 -3.05786 0
M  V30 4021 C 366.026 3.3378 -3.46619 0
M  V30 4022 C 368.378 3.31976 -4.01797 0
M  V30 4023 C 365.706 3.34431 -4.82051 0
M  V30 4024 C 368.058 3.34167 -5.37136 0
M  V30 4025 C 366.722 3.34866 -5.77426 0
M  V30 4026 H 365.992 0.650549 -0.354777 0
M  V30 4027 H 368.639 1.23006 -1.46772 0
M  V30 4028 H 366.944 3.79203 -0.985515 0
M  V30 4029 H 368.641 3.76652 -1.37602 0
M  V30 4030 H 365.231 3.3021 -2.73238 0
M  V30 4031 H 369.415 3.29311 -3.71306 0
M  V30 4032 H 364.671 3.33285 -5.12573 0
M  V30 4033 H 368.845 3.33585 -6.11305 0
M  V30 4034 H 366.472 3.35124 -6.82346 0
M  V30 4035 N 368.047 0.979072 1.23499 0
M  V30 4036 C 368.994 0.517904 2.24914 0
M  V30 4037 C 369.964 -0.442525 1.60097 0
M  V30 4038 O 371.149 -0.350365 1.87556 0
M  V30 4039 C 368.289 -0.174813 3.44657 0
M  V30 4040 C 367.402 0.825721 4.24035 0
M  V30 4041 C 366.537 0.107946 5.3109 0
M  V30 4042 C 365.576 1.09778 6.02175 0
M  V30 4043 N 364.713 0.40925 7.00906 0
M  V30 4044 H 369.553 1.38751 2.63727 0
M  V30 4045 H 367.09 0.695303 1.2963 0
M  V30 4046 H 369.048 -0.593233 4.12961 0
M  V30 4047 H 367.678 -1.0083 3.06648 0
M  V30 4048 H 366.73 1.36253 3.55161 0
M  V30 4049 H 368.042 1.58005 4.73113 0
M  V30 4050 H 367.196 -0.367904 6.05583 0
M  V30 4051 H 365.935 -0.678994 4.8295 0
M  V30 4052 H 364.94 1.5844 5.26476 0
M  V30 4053 H 366.165 1.88536 6.52404 0
M  V30 4054 H 364.111 -0.358506 6.5502 0
M  V30 4055 H 364.028 1.10226 7.47921 0
M  V30 4056 H 365.296 -0.0442557 7.79487 0
M  V30 4057 N 369.525 -1.3858 0.750561 0
M  V30 4058 C 370.771 -2.00481 0.305825 0
M  V30 4059 C 371.104 -1.5944 -1.10872 0
M  V30 4060 O 370.379 -0.83052 -1.75877 0
M  V30 4061 C 370.662 -3.5758 0.425287 0
M  V30 4062 C 370.515 -4.08594 1.88072 0
M  V30 4063 C 371.834 -4.39719 -0.183122 0
M  V30 4064 H 368.953 -0.728348 0.112598 0
M  V30 4065 H 371.595 -1.64566 0.949638 0
M  V30 4066 H 369.745 -3.88306 -0.122828 0
M  V30 4067 H 371.417 -3.88523 2.48691 0
M  V30 4068 H 369.66 -3.61574 2.39681 0
M  V30 4069 H 370.331 -5.177 1.91548 0
M  V30 4070 H 372.807 -4.15128 0.284303 0
M  V30 4071 H 371.683 -5.48856 -0.0692757 0
M  V30 4072 H 371.944 -4.23434 -1.27106 0
M  V30 4073 N 371.003 -0.499398 -1.49478 0
M  V30 4074 C 372.228 0.044722 -2.07352 0
M  V30 4075 C 372.653 1.30207 -1.35749 0
M  V30 4076 O 372.011 1.76516 -0.413732 0
M  V30 4077 C 372.059 0.283013 -3.59488 0
M  V30 4078 O 371.163 1.35804 -3.89398 0
M  V30 4079 H 370.504 -0.0255147 -0.66351 0
M  V30 4080 H 373.034 -0.698561 -1.92305 0
M  V30 4081 H 373.044 0.515007 -4.04737 0
M  V30 4082 H 371.719 -0.635636 -4.11014 0
M  V30 4083 H 370.296 1.11113 -3.55961 0
M  V30 4084 N 372.481 1.55866 -0.233164 0
M  V30 4085 C 373.728 1.98603 0.395374 0
M  V30 4086 C 374.056 1.12105 1.58942 0
M  V30 4087 O 373.311 0.168656 1.94972 0
M  V30 4088 C 373.61 3.46856 0.861724 0
M  V30 4089 C 373.276 4.50348 -0.223066 0
M  V30 4090 C 371.938 4.78371 -0.521038 0
M  V30 4091 C 374.29 5.12355 -0.956124 0
M  V30 4092 C 371.618 5.6568 -1.55638 0
M  V30 4093 C 373.97 6.00786 -1.98089 0
M  V30 4094 C 372.634 6.27148 -2.28565 0
M  V30 4095 H 371.904 0.726739 0.144677 0
M  V30 4096 H 374.551 1.88491 -0.338114 0
M  V30 4097 H 372.856 3.5423 1.67418 0
M  V30 4098 H 374.553 3.77302 1.35809 0
M  V30 4099 H 371.143 4.28596 0.0193234 0
M  V30 4100 H 375.327 4.90765 -0.739166 0
M  V30 4101 H 370.583 5.84365 -1.798 0
M  V30 4102 H 374.757 6.4788 -2.55391 0
M  V30 4103 H 372.384 6.94597 -3.08932 0
M  V30 4104 N 373.959 -0.0401083 1.57549 0
M  V30 4105 C 374.889 -1.04384 2.08869 0
M  V30 4106 C 375.87 -1.38407 0.988817 0
M  V30 4107 O 377.055 -1.47483 1.26342 0
M  V30 4108 C 374.185 -2.34808 2.55895 0
M  V30 4109 C 373.139 -2.15057 3.70047 0
M  V30 4110 C 372.465 -3.51145 4.03239 0
M  V30 4111 C 373.765 -1.54576 4.98902 0
M  V30 4112 H 375.459 -0.616666 2.92981 0
M  V30 4113 H 373.005 -0.295184 1.40942 0
M  V30 4114 H 374.958 -3.05346 2.90417 0
M  V30 4115 H 373.682 -2.79565 1.68853 0
M  V30 4116 H 372.341 -1.46954 3.35857 0
M  V30 4117 H 371.989 -3.93529 3.13279 0
M  V30 4118 H 371.689 -3.38758 4.80122 0
M  V30 4119 H 373.213 -4.23062 4.40285 0
M  V30 4120 H 374.627 -2.15017 5.31451 0
M  V30 4121 H 373.024 -1.52796 5.80322 0
M  V30 4122 H 374.094 -0.51039 4.82206 0
M  V30 4123 N 375.437 -1.54477 -0.31217 0
M  V30 4124 C 376.662 -1.77526 -1.07235 0
M  V30 4125 C 377.087 -0.527775 -1.80544 0
M  V30 4126 O 376.445 0.52121 -1.73646 0
M  V30 4127 C 376.493 -2.97535 -2.03728 0
M  V30 4128 O 375.597 -2.69878 -3.11833 0
M  V30 4129 H 374.938 -0.58792 -0.30862 0
M  V30 4130 H 377.468 -2.01532 -0.352993 0
M  V30 4131 H 377.478 -3.25198 -2.46395 0
M  V30 4132 H 376.153 -3.87996 -1.49774 0
M  V30 4133 H 374.73 -2.53199 -2.7376 0
M  V30 4134 N 376.915 0.57481 -1.46744 0
M  V30 4135 C 377.878 1.66533 -1.57478 0
M  V30 4136 C 378.878 1.54338 -0.451263 0
M  V30 4137 O 380.068 1.58814 -0.715813 0
M  V30 4138 C 377.2 3.05999 -1.50259 0
M  V30 4139 H 378.393 1.58372 -2.54673 0
M  V30 4140 H 375.946 0.793301 -1.34672 0
M  V30 4141 H 376.681 3.19709 -0.543725 0
M  V30 4142 H 376.466 3.16259 -2.31781 0
M  V30 4143 H 377.956 3.8537 -1.60872 0
M  V30 4144 N 378.394 1.34581 0.820102 0
M  V30 4145 C 379.324 1.29038 1.94606 0
M  V30 4146 C 380.305 0.1673 1.69275 0
M  V30 4147 O 381.49 0.360112 1.90832 0
M  V30 4148 C 378.62 1.04793 3.31113 0
M  V30 4149 C 377.574 2.13597 3.70891 0
M  V30 4150 C 376.9 1.74537 5.05412 0
M  V30 4151 C 378.2 3.55451 3.8269 0
M  V30 4152 H 379.894 2.23248 1.99501 0
M  V30 4153 H 377.44 1.0747 0.958449 0
M  V30 4154 H 379.393 0.995592 4.0947 0
M  V30 4155 H 378.117 0.0702565 3.26524 0
M  V30 4156 H 376.776 2.17905 2.9481 0
M  V30 4157 H 376.424 0.754226 4.97313 0
M  V30 4158 H 376.124 2.47361 5.32997 0
M  V30 4159 H 377.648 1.70803 5.86224 0
M  V30 4160 H 379.062 3.5354 4.51312 0
M  V30 4161 H 377.459 4.26922 4.21732 0
M  V30 4162 H 378.529 3.92587 2.84611 0
M  V30 4163 N 379.872 -1.04064 1.18357 0
M  V30 4164 C 380.782 -2.15569 0.925596 0
M  V30 4165 C 381.798 -1.7365 -0.110295 0
M  V30 4166 O 382.974 -2.01273 0.0716218 0
M  V30 4167 C 380.039 -3.43704 0.454836 0
M  V30 4168 C 379.1 -4.00004 1.55869 0
M  V30 4169 C 378.333 -5.22023 1.1103 0
M  V30 4170 O 378.556 -5.70392 -0.0309756 0
M  V30 4171 O 377.49 -5.70856 1.90805 0
M  V30 4172 H 381.316 -2.40187 1.8586 0
M  V30 4173 H 378.901 -1.1402 0.965394 0
M  V30 4174 H 380.783 -4.20923 0.200382 0
M  V30 4175 H 379.458 -3.20559 -0.449876 0
M  V30 4176 H 378.365 -3.24172 1.86716 0
M  V30 4177 H 379.698 -4.2749 2.43953 0
M  V30 4178 N 381.35 -0.985608 -1.22978 0
M  V30 4179 C 382.26 -0.538548 -2.28335 0
M  V30 4180 C 383.276 0.409163 -1.69121 0
M  V30 4181 O 384.452 0.277797 -1.99475 0
M  V30 4182 C 381.517 0.146867 -3.46389 0
M  V30 4183 C 380.578 -0.842896 -4.20944 0
M  V30 4184 C 379.811 -0.190095 -5.33361 0
M  V30 4185 O 380.034 1.01767 -5.61248 0
M  V30 4186 O 378.968 -0.891289 -5.95264 0
M  V30 4187 H 382.794 -1.41487 -2.68729 0
M  V30 4188 H 380.379 -0.753495 -1.29007 0
M  V30 4189 H 382.261 0.531125 -4.1804 0
M  V30 4190 H 380.936 0.997871 -3.07935 0
M  V30 4191 H 379.843 -1.27795 -3.51595 0
M  V30 4192 H 381.176 -1.66287 -4.6326 0
M  V30 4193 N 382.828 1.3818 -0.7579 0
M  V30 4194 C 384.058 2.04004 -0.326463 0
M  V30 4195 C 384.466 1.57286 1.05156 0
M  V30 4196 O 383.809 0.743144 1.67997 0
M  V30 4197 C 383.871 3.58444 -0.275402 0
M  V30 4198 C 383.535 4.28237 -1.59569 0
M  V30 4199 C 384.532 4.53312 -2.54566 0
M  V30 4200 C 382.217 4.66341 -1.86631 0
M  V30 4201 C 384.211 5.15531 -3.74842 0
M  V30 4202 C 381.898 5.28283 -3.0718 0
M  V30 4203 C 382.896 5.52814 -4.01106 0
M  V30 4204 O 382.584 6.13465 -5.19534 0
M  V30 4205 H 382.316 0.662026 -0.136739 0
M  V30 4206 H 384.87 1.7777 -1.02893 0
M  V30 4207 H 383.1 3.83667 0.483337 0
M  V30 4208 H 384.789 4.05701 0.127099 0
M  V30 4209 H 385.555 4.24299 -2.34936 0
M  V30 4210 H 381.434 4.46591 -1.14358 0
M  V30 4211 H 384.978 5.34594 -4.48168 0
M  V30 4212 H 380.875 5.56719 -3.26702 0
M  V30 4213 H 381.643 6.31951 -5.20173 0
M  V30 4214 N 384.306 0.507319 1.49211 0
M  V30 4215 C 385.534 -0.0315749 2.06876 0
M  V30 4216 C 385.949 -1.30241 1.36685 0
M  V30 4217 O 385.306 -1.76937 0.447152 0
M  V30 4218 C 385.357 -0.282627 3.60393 0
M  V30 4219 O 385.078 0.937835 4.27944 0
M  V30 4220 C 386.579 -0.864453 4.3479 0
M  V30 4221 H 383.799 0.0233048 0.670595 0
M  V30 4222 H 386.343 0.706484 1.91909 0
M  V30 4223 H 384.498 -0.97068 3.75042 0
M  V30 4224 H 384.912 0.704567 5.19746 0
M  V30 4225 H 386.386 -0.989664 5.43056 0
M  V30 4226 H 386.863 -1.86382 3.97692 0
M  V30 4227 H 387.469 -0.213672 4.24763 0
M  V30 4228 N 385.784 -1.5574 0.241426 0
M  V30 4229 C 386.731 -2.21149 -0.660432 0
M  V30 4230 C 387.701 -1.17356 -1.17545 0
M  V30 4231 O 388.886 -1.45784 -1.23093 0
M  V30 4232 C 386.026 -2.91059 -1.85414 0
M  V30 4233 C 385.139 -4.09495 -1.37616 0
M  V30 4234 C 384.274 -4.67135 -2.529 0
M  V30 4235 C 383.313 -5.77831 -2.01936 0
M  V30 4236 N 382.45 -6.29677 -3.10566 0
M  V30 4237 H 387.29 -2.97845 -0.095955 0
M  V30 4238 H 384.827 -1.47057 -0.0356024 0
M  V30 4239 H 386.785 -3.29788 -2.5553 0
M  V30 4240 H 385.415 -2.16846 -2.39118 0
M  V30 4241 H 384.467 -3.76117 -0.569235 0
M  V30 4242 H 385.779 -4.89423 -0.962618 0
M  V30 4243 H 384.933 -5.08409 -3.31067 0
M  V30 4244 H 383.672 -3.86411 -2.97553 0
M  V30 4245 H 382.677 -5.36039 -1.22238 0
M  V30 4246 H 383.902 -6.60402 -1.58259 0
M  V30 4247 H 381.848 -5.5186 -3.54664 0
M  V30 4248 H 381.765 -7.04783 -2.73526 0
M  V30 4249 H 383.033 -6.75609 -3.88809 0
M  V30 4250 N 387.262 0.0317525 -1.57568 0
M  V30 4251 C 388.209 1.0332 -2.06382 0
M  V30 4252 C 389.179 1.36082 -0.952414 0
M  V30 4253 O 390.364 1.46466 -1.2228 0
M  V30 4254 C 387.504 2.32989 -2.54578 0
M  V30 4255 C 386.617 2.0641 -3.79498 0
M  V30 4256 C 385.752 3.2993 -4.16317 0
M  V30 4257 C 384.791 2.98893 -5.34162 0
M  V30 4258 N 383.928 4.14857 -5.66426 0
M  V30 4259 H 388.768 0.609982 -2.9169 0
M  V30 4260 H 386.305 0.289573 -1.44222 0
M  V30 4261 H 388.263 3.0875 -2.80587 0
M  V30 4262 H 386.893 2.73039 -1.7219 0
M  V30 4263 H 385.945 1.21158 -3.6059 0
M  V30 4264 H 387.257 1.79513 -4.65378 0
M  V30 4265 H 386.411 4.1406 -4.4344 0
M  V30 4266 H 385.15 3.59938 -3.29083 0
M  V30 4267 H 384.155 2.13164 -5.06795 0
M  V30 4268 H 385.38 2.70165 -6.23047 0
M  V30 4269 H 383.326 4.44821 -4.82151 0
M  V30 4270 H 383.243 3.91374 -6.4681 0
M  V30 4271 H 384.511 4.99868 -5.98124 0
M  V30 4272 N 388.74 1.54641 0.303973 0
M  V30 4273 C 389.67 1.88386 1.3796 0
M  V30 4274 C 390.651 0.742485 1.5304 0
M  V30 4275 O 391.836 0.997959 1.66597 0
M  V30 4276 C 388.966 2.12854 2.74427 0
M  V30 4277 C 387.92 3.28702 2.74115 0
M  V30 4278 C 387.246 3.38582 4.13844 0
M  V30 4279 C 388.546 4.65881 2.3612 0
M  V30 4280 H 390.24 2.78474 1.09966 0
M  V30 4281 H 387.786 1.33988 0.527556 0
M  V30 4282 H 389.739 2.35047 3.49758 0
M  V30 4283 H 388.463 1.19535 3.03939 0
M  V30 4284 H 387.122 3.06428 2.0124 0
M  V30 4285 H 386.77 2.42784 4.40528 0
M  V30 4286 H 386.47 4.16453 4.14537 0
M  V30 4287 H 387.994 3.63031 4.90959 0
M  V30 4288 H 389.408 4.87823 3.01167 0
M  V30 4289 H 387.805 5.46444 2.48031 0
M  V30 4290 H 388.875 4.66799 1.3125 0
M  V30 4291 N 390.218 -0.567019 1.47046 0
M  V30 4292 C 391.166 -1.69593 1.59188 0
M  V30 4293 C 392.16 -1.63046 0.459609 0
M  V30 4294 O 393.366 -1.6835 0.637058 0
M  V30 4295 H 389.741 -0.560993 0.500791 0
M  V30 4296 H 391.712 -1.56488 2.54075 0
M  V30 4297 C 390.461 -3.07964 1.61411 0
M  V30 4298 H 389.784 -3.13679 2.47881 0
M  V30 4299 H 391.224 -3.86671 1.73958 0
M  V30 4300 C 389.683 -3.35123 0.34559 0
M  V30 4301 O 390.213 -3.97812 -0.557521 0
M  V30 4302 N 388.419 -2.89699 0.22864 0
M  V30 4303 H 387.966 -2.38863 0.964479 0
M  V30 4304 H 387.924 -3.08242 -0.619192 0
M  V30 4305 N 391.696 -1.35014 -0.812953 0
M  V30 4306 C 392.924 -1.31031 -1.6012 0
M  V30 4307 C 393.339 0.113558 -1.88458 0
M  V30 4308 O 392.696 1.06363 -1.48301 0
M  V30 4309 C 392.747 -2.10872 -2.93624 0
M  V30 4310 O 392.468 -3.47706 -2.66518 0
M  V30 4311 C 393.969 -2.14401 -3.88004 0
M  V30 4312 H 391.189 -0.45037 -0.497401 0
M  V30 4313 H 393.733 -1.77775 -1.01076 0
M  V30 4314 H 391.888 -1.67744 -3.492 0
M  V30 4315 H 392.302 -3.89097 -3.51715 0
M  V30 4316 H 393.776 -2.74669 -4.78812 0
M  V30 4317 H 394.253 -1.14105 -4.24119 0
M  V30 4318 H 394.859 -2.57662 -3.38364 0
M  V30 4319 N 393.175 1.03435 -1.18907 0
M  V30 4320 C 394.107 2.1165 -0.879595 0
M  V30 4321 C 395.12 1.62316 0.125439 0
M  V30 4322 O 396.309 1.78201 -0.103245 0
M  V30 4323 C 393.409 3.37622 -0.294042 0
M  V30 4324 C 392.582 4.16166 -1.34629 0
M  V30 4325 C 391.641 5.20457 -0.775274 0
M  V30 4326 O 390.667 5.50379 -1.4516 0
M  V30 4327 N 391.869 5.78949 0.424126 0
M  V30 4328 H 394.634 2.38791 -1.81105 0
M  V30 4329 H 392.195 1.19681 -1.09032 0
M  V30 4330 H 394.187 4.04572 0.101679 0
M  V30 4331 H 392.757 3.07873 0.541575 0
M  V30 4332 H 391.977 3.44444 -1.91707 0
M  V30 4333 H 393.265 4.65432 -2.05549 0
M  V30 4334 H 392.663 5.56948 0.991209 0
M  V30 4335 H 391.22 6.47334 0.761691 0
M  V30 4336 O 394.692 1.12039 1.16316 0
M  V30 4337 H 395.383 0.829719 1.7503 0
M  V30 END ATOM
M  V30 BEGIN BOND
M  V30 END BOND
M  V30 END CTAB
M  END
$$$$
