drugbank_target|P02652 Apolipoprotein A-II (DB01593; DB09130; DB14487)
 OpenBabel12092119433D

  0  0  0     0  0            999 V3000
M  V30 BEGIN CTAB
M  V30 COUNTS 1602 1613 0 0 0
M  V30 BEGIN ATOM
M  V30 1 H -0.908 1.98254 -0.117106 0
M  V30 2 N 0 1.576 0 0
M  V30 3 C 0.933 2.03868 1.02534 0
M  V30 4 C 1.911 0.928543 1.3348 0
M  V30 5 O 3.095 1.19667 1.45644 0
M  V30 6 C 0.222 2.43627 2.35294 0
M  V30 7 C -0.732 3.65373 2.2001 0
M  V30 8 S 0.101 5.13292 1.52614 0
M  V30 9 C 1.257 5.56322 2.86805 0
M  V30 10 H 1.49 2.90518 0.631377 0
M  V30 11 H -0.977 1.52953 0.210867 0
M  V30 12 H 0.981 2.67203 3.11629 0
M  V30 13 H -0.358 1.57376 2.7183 0
M  V30 14 H -1.165 3.90944 3.18086 0
M  V30 15 H -1.563 3.418 1.51819 0
M  V30 16 H 0.729 5.58782 3.83104 0
M  V30 17 H 1.672 6.56266 2.65933 0
M  V30 18 H 2.08 4.83886 2.90714 0
M  V30 19 N 1.4781 -0.272755 1.55222 0
M  V30 20 C 2.4251 -1.33716 1.88119 0
M  V30 21 C 3.3951 -1.49066 0.73271 0
M  V30 22 O 4.5801 -1.63469 0.984002 0
M  V30 23 C 1.7201 -2.69238 2.15882 0
M  V30 24 C 0.8331 -2.62108 3.43399 0
M  V30 25 C -0.0319 -3.89811 3.60861 0
M  V30 26 C -0.9929 -3.77193 4.8207 0
M  V30 27 N -1.8559 -4.9673 4.96189 0
M  V30 28 H 2.9841 -1.04962 2.78903 0
M  V30 29 H 0.5211 -0.507088 1.38083 0
M  V30 30 H 2.4791 -3.48089 2.29978 0
M  V30 31 H 1.1091 -2.96194 1.28331 0
M  V30 32 H 0.1611 -1.74967 3.37773 0
M  V30 33 H 1.4731 -2.48685 4.32386 0
M  V30 34 H 0.6271 -4.77103 3.74777 0
M  V30 35 H -0.6339 -4.06102 2.7006 0
M  V30 36 H -1.6289 -2.88284 4.68159 0
M  V30 37 H -0.4039 -3.62421 5.74307 0
M  V30 38 H -2.4579 -5.13431 4.08319 0
M  V30 39 H -2.5409 -4.85839 5.79221 0
M  V30 40 H -1.2729 -5.85594 5.1449 0
M  V30 41 N 2.9562 -1.48159 -0.537278 0
M  V30 42 C 3.8862 -1.65029 -1.6519 0
M  V30 43 C 4.8672 -0.499281 -1.62607 0
M  V30 44 O 6.0522 -0.730972 -1.79918 0
M  V30 45 C 3.1822 -1.68303 -3.03795 0
M  V30 46 C 2.1362 -2.8283 -3.21234 0
M  V30 47 C 1.4622 -2.71189 -4.60826 0
M  V30 48 C 2.7622 -4.24211 -3.04701 0
M  V30 49 H 4.4562 -2.58341 -1.51328 0
M  V30 50 H 2.0022 -1.24325 -0.726585 0
M  V30 51 H 3.9552 -1.78693 -3.81637 0
M  V30 52 H 2.6792 -0.715635 -3.18663 0
M  V30 53 H 1.3382 -2.71983 -2.45807 0
M  V30 54 H 0.9862 -1.72435 -4.7252 0
M  V30 55 H 0.6862 -3.48035 -4.7344 0
M  V30 56 H 2.2102 -2.83537 -5.40777 0
M  V30 57 H 3.6242 -4.3593 -3.72341 0
M  V30 58 H 2.0212 -5.01998 -3.28813 0
M  V30 59 H 3.0912 -4.41184 -2.01209 0
M  V30 60 N 4.4343 0.785586 -1.36625 0
M  V30 61 C 5.3643 1.91259 -1.33949 0
M  V30 62 C 6.3453 1.68795 -0.210325 0
M  V30 63 O 7.5303 1.89854 -0.408561 0
M  V30 64 C 4.6603 3.28339 -1.13186 0
M  V30 65 C 3.6143 3.65335 -2.22967 0
M  V30 66 C 2.9403 5.00806 -1.87342 0
M  V30 67 C 4.2403 3.7352 -3.65075 0
M  V30 68 H 5.9343 1.93755 -2.28253 0
M  V30 69 H 3.4803 0.930788 -1.09874 0
M  V30 70 H 5.4333 4.06804 -1.09948 0
M  V30 71 H 4.1573 3.2624 -0.153332 0
M  V30 72 H 2.8163 2.89169 -2.25337 0
M  V30 73 H 2.4643 4.95233 -0.880545 0
M  V30 74 H 2.1643 5.26529 -2.60846 0
M  V30 75 H 3.6883 5.81687 -1.85667 0
M  V30 76 H 5.1023 4.42168 -3.64911 0
M  V30 77 H 3.4993 4.10731 -4.37516 0
M  V30 78 H 4.5693 2.74527 -3.99703 0
M  V30 79 N 5.9124 1.20967 1.01018 0
M  V30 80 C 6.8754 0.965918 2.07853 0
M  V30 81 C 7.8754 -0.0610545 1.60684 0
M  V30 82 O 9.0654 0.175681 1.73312 0
M  V30 83 C 6.1974 0.455513 3.37843 0
M  V30 84 H 7.3904 1.91365 2.3091 0
M  V30 85 H 4.9434 1.02594 1.17916 0
M  V30 86 H 5.6784 -0.497381 3.20463 0
M  V30 87 H 5.4634 1.19622 3.73407 0
M  V30 88 H 6.9534 0.304667 4.16487 0
M  V30 89 N 7.3905 -1.2043 1.01659 0
M  V30 90 C 8.3535 -2.21433 0.591616 0
M  V30 91 C 9.3535 -1.57203 -0.338226 0
M  V30 92 O 10.5435 -1.73737 -0.126918 0
M  V30 93 C 7.6755 -3.40628 -0.136058 0
M  V30 94 H 8.8685 -2.60545 1.48514 0
M  V30 95 H 6.4215 -1.33893 0.806379 0
M  V30 96 H 7.1565 -3.07019 -1.04449 0
M  V30 97 H 6.9415 -3.88475 0.531917 0
M  V30 98 H 8.4315 -4.15475 -0.420735 0
M  V30 99 N 8.8686 -0.792821 -1.36206 0
M  V30 100 C 10.0966 -0.378825 -2.03402 0
M  V30 101 C 10.5116 1.00586 -1.59774 0
M  V30 102 O 9.8686 1.64574 -0.788764 0
M  V30 103 C 9.9196 -0.43683 -3.58851 0
M  V30 104 O 9.6406 -1.76691 -4.00889 0
M  V30 105 C 11.1416 -0.0138943 -4.43298 0
M  V30 106 H 8.3616 -0.155673 -0.652692 0
M  V30 107 H 10.9056 -1.07261 -1.74113 0
M  V30 108 H 9.0606 0.208575 -3.86838 0
M  V30 109 H 9.4746 -1.72011 -4.95492 0
M  V30 110 H 10.9486 -0.105615 -5.51899 0
M  V30 111 H 11.4256 1.03915 -4.2673 0
M  V30 112 H 12.0316 -0.63192 -4.20579 0
M  V30 113 N 10.3467 1.47872 -0.545128 0
M  V30 114 C 11.5927 2.02793 -0.0166104 0
M  V30 115 C 11.9257 1.41987 1.32489 0
M  V30 116 O 11.2007 0.571045 1.85928 0
M  V30 117 C 11.4837 3.59989 0.0893294 0
M  V30 118 C 11.3367 4.3125 -1.27841 0
M  V30 119 C 12.6557 4.32606 0.808724 0
M  V30 120 H 9.7747 0.736962 -0.00751035 0
M  V30 121 H 12.4167 1.76433 -0.705085 0
M  V30 122 H 10.5667 3.82579 0.675681 0
M  V30 123 H 12.2387 4.20035 -1.90704 0
M  V30 124 H 10.4817 3.92076 -1.85632 0
M  V30 125 H 11.1527 5.39736 -1.15713 0
M  V30 126 H 13.6287 4.14936 0.310992 0
M  V30 127 H 12.5047 5.42251 0.851782 0
M  V30 128 H 12.7657 4.00963 1.86229 0
M  V30 129 N 11.8248 0.280983 1.55075 0
M  V30 130 C 12.7548 -0.597469 2.25727 0
M  V30 131 C 13.7358 -1.15417 1.24952 0
M  V30 132 O 14.9208 -1.18722 1.53684 0
M  V30 133 C 12.0508 -1.7789 2.98283 0
M  V30 134 C 11.0048 -1.35347 4.06036 0
M  V30 135 C 10.3308 -2.61846 4.66198 0
M  V30 136 C 11.6308 -0.499354 5.19907 0
M  V30 137 H 13.3248 -0.00824265 2.99399 0
M  V30 138 H 10.8708 -0.0025244 1.44 0
M  V30 139 H 12.8238 -2.39937 3.46422 0
M  V30 140 H 11.5478 -2.39405 2.22155 0
M  V30 141 H 10.2068 -0.756156 3.58717 0
M  V30 142 H 9.8548 -3.21632 3.86732 0
M  V30 143 H 9.5548 -2.3409 5.38958 0
M  V30 144 H 11.0788 -3.24732 5.1709 0
M  V30 145 H 12.4928 -1.02498 5.64063 0
M  V30 146 H 10.8898 -0.316424 5.99265 0
M  V30 147 H 11.9598 0.480459 4.82514 0
M  V30 148 N 13.3029 -1.57598 0.00835791 0
M  V30 149 C 14.2329 -2.1198 -0.979113 0
M  V30 150 C 15.2139 -1.03091 -1.35301 0
M  V30 151 O 16.3989 -1.30818 -1.43528 0
M  V30 152 C 13.5289 -2.62995 -2.26828 0
M  V30 153 C 12.4829 -3.76485 -2.03576 0
M  V30 154 C 11.8089 -4.13846 -3.38579 0
M  V30 155 C 13.1089 -5.0342 -1.39161 0
M  V30 156 H 14.8029 -2.94738 -0.526281 0
M  V30 157 H 12.3489 -1.41783 -0.251704 0
M  V30 158 H 14.3019 -2.99669 -2.96271 0
M  V30 159 H 13.0259 -1.7737 -2.7424 0
M  V30 160 H 11.6849 -3.40217 -1.36557 0
M  V30 161 H 11.3329 -3.25232 -3.83709 0
M  V30 162 H 11.0329 -4.90312 -3.23834 0
M  V30 163 H 12.5569 -4.53086 -4.09323 0
M  V30 164 H 13.9709 -5.37812 -1.98573 0
M  V30 165 H 12.3679 -5.84746 -1.34878 0
M  V30 166 H 13.4379 -4.83548 -0.361868 0
M  V30 167 N 14.781 0.264519 -1.55364 0
M  V30 168 C 15.711 1.33121 -1.91836 0
M  V30 169 C 16.692 1.51101 -0.781192 0
M  V30 170 O 17.877 1.64003 -1.04003 0
M  V30 171 C 15.007 2.68921 -2.19769 0
M  V30 172 C 13.961 2.65661 -3.35571 0
M  V30 173 C 13.287 4.05093 -3.49004 0
M  V30 174 C 14.587 2.24187 -4.71739 0
M  V30 175 H 16.281 1.02844 -2.81182 0
M  V30 176 H 13.827 0.493286 -1.35287 0
M  V30 177 H 15.78 3.43663 -2.43872 0
M  V30 178 H 14.504 3.00799 -1.27231 0
M  V30 179 H 13.163 1.93377 -3.1145 0
M  V30 180 H 12.811 4.34206 -2.53917 0
M  V30 181 H 12.511 4.03804 -4.26868 0
M  V30 182 H 14.035 4.81561 -3.75408 0
M  V30 183 H 15.449 2.88654 -4.9533 0
M  V30 184 H 13.846 2.34044 -5.52579 0
M  V30 185 H 14.916 1.19327 -4.69988 0
M  V30 186 N 16.2591 1.48442 0.529413 0
M  V30 187 C 17.4871 1.60151 1.30994 0
M  V30 188 C 17.9021 0.261985 1.86973 0
M  V30 189 O 17.2591 -0.748805 1.66431 0
M  V30 190 C 17.3101 2.64854 2.46038 0
M  V30 191 O 17.0311 3.93608 1.92365 0
M  V30 192 C 18.5321 2.87007 3.37849 0
M  V30 193 H 15.7521 0.539971 0.398338 0
M  V30 194 H 18.2961 1.94273 0.638597 0
M  V30 195 H 16.4511 2.33589 3.09055 0
M  V30 196 H 16.8651 4.51055 2.67675 0
M  V30 197 H 18.3391 3.64068 4.14919 0
M  V30 198 H 18.8161 1.95852 3.93114 0
M  V30 199 H 19.4221 3.19579 2.80623 0
M  V30 200 N 17.7372 -0.778329 1.37039 0
M  V30 201 C 18.9862 -1.53189 1.3121 0
M  V30 202 C 19.2992 -1.95328 -0.103095 0
M  V30 203 O 20.5052 -2.70012 -0.283826 0
M  V30 204 C 18.9612 -2.76591 2.30272 0
M  V30 205 C 18.5692 -2.41577 3.77286 0
M  V30 206 C 20.3132 -3.5455 2.33441 0
M  V30 207 C 18.2202 -3.61441 4.68096 0
M  V30 208 H 17.1502 -0.5751 0.487622 0
M  V30 209 H 19.8012 -0.853101 1.62464 0
M  V30 210 H 18.1832 -3.46326 1.92027 0
M  V30 211 H 19.3572 -1.79668 4.2433 0
M  V30 212 H 17.6722 -1.76806 3.76999 0
M  V30 213 H 20.2692 -4.43628 2.98493 0
M  V30 214 H 20.6122 -3.93936 1.34611 0
M  V30 215 H 21.1452 -2.91805 2.7036 0
M  V30 216 H 17.8842 -3.27142 5.6803 0
M  V30 217 H 17.4042 -4.22478 4.25761 0
M  V30 218 H 19.0832 -4.28335 4.8491 0
M  V30 219 N 19.2153 -1.21501 -1.00376 0
M  V30 220 C 20.4553 -1.04444 -1.75701 0
M  V30 221 C 20.8193 0.414644 -1.87469 0
M  V30 222 O 22.0203 0.705763 -2.59369 0
M  V30 223 C 20.2913 -1.72389 -3.13077 0
M  V30 224 S 21.8503 -1.70604 -4.04277 0
M  V30 225 H 18.6683 -0.374249 -0.604532 0
M  V30 226 H 21.2703 -1.54267 -1.20091 0
M  V30 227 H 19.9743 -2.77734 -3.02146 0
M  V30 228 H 19.5053 -1.22751 -3.73759 0
M  V30 229 H 21.5203 -0.748012 -4.9053 0
M  V30 230 N 20.6934 1.19889 -1.02296 0
M  V30 231 C 21.9184 1.9393 -0.735237 0
M  V30 232 C 22.3434 1.74639 0.698782 0
M  V30 233 O 21.7014 1.04481 1.48167 0
M  V30 234 C 21.7494 3.43916 -1.08417 0
M  V30 235 O 20.8534 4.11917 -0.199446 0
M  V30 236 H 20.1944 0.605645 -0.272196 0
M  V30 237 H 22.7244 1.52137 -1.36804 0
M  V30 238 H 22.7344 3.9456 -1.03856 0
M  V30 239 H 21.4094 3.5728 -2.12894 0
M  V30 240 H 19.9864 3.71666 -0.303136 0
M  V30 241 N 22.1715 0.800033 1.35784 0
M  V30 242 C 23.1015 0.220184 2.3246 0
M  V30 243 C 24.0825 -0.65073 1.57161 0
M  V30 244 O 25.2675 -0.582359 1.85263 0
M  V30 245 C 22.3975 -0.637353 3.41402 0
M  V30 246 C 21.3515 0.134531 4.27789 0
M  V30 247 C 20.6775 -0.844285 5.27992 0
M  V30 248 C 21.9775 1.32979 5.05088 0
M  V30 249 H 23.6715 1.02787 2.81203 0
M  V30 250 H 21.2175 0.495717 1.35199 0
M  V30 251 H 23.1705 -1.05302 4.08031 0
M  V30 252 H 21.8945 -1.47785 2.91251 0
M  V30 253 H 20.5535 0.531296 3.6273 0
M  V30 254 H 20.2015 -1.68011 4.74111 0
M  V30 255 H 19.9015 -0.332184 5.8666 0
M  V30 256 H 21.4255 -1.2583 5.97494 0
M  V30 257 H 22.8395 0.98934 5.64699 0
M  V30 258 H 21.2365 1.77593 5.7322 0
M  V30 259 H 22.3065 2.11978 4.36111 0
M  V30 260 N 23.6496 -1.47581 0.552962 0
M  V30 261 C 24.5596 -2.33743 -0.200353 0
M  V30 262 C 25.5756 -1.47928 -0.916151 0
M  V30 263 O 26.7516 -1.80865 -0.885993 0
M  V30 264 C 23.8166 -3.24536 -1.21973 0
M  V30 265 C 22.8776 -4.26238 -0.511819 0
M  V30 266 C 22.1106 -5.12693 -1.48263 0
M  V30 267 O 22.3336 -5.01525 -2.71714 0
M  V30 268 O 21.2676 -5.93375 -1.00945 0
M  V30 269 H 25.0936 -2.9945 0.506304 0
M  V30 270 H 22.6786 -1.46071 0.313622 0
M  V30 271 H 24.5606 -3.80631 -1.80827 0
M  V30 272 H 23.2356 -2.61462 -1.90839 0
M  V30 273 H 22.1426 -3.73914 0.117799 0
M  V30 274 H 23.4756 -4.92014 0.135308 0
M  V30 275 N 25.1277 -0.289203 -1.54924 0
M  V30 276 C 26.3757 0.322879 -1.99504 0
M  V30 277 C 26.6967 1.55313 -1.1791 0
M  V30 278 O 25.9667 1.94001 -0.272097 0
M  V30 279 H 24.5467 0.122291 -0.736922 0
M  V30 280 H 27.2087 -0.397802 -1.90797 0
M  V30 281 H 26.3047 0.603061 -3.06218 0
M  V30 282 N 26.6058 1.57591 -0.0167156 0
M  V30 283 C 27.5688 2.08393 0.954204 0
M  V30 284 C 28.5688 0.996531 1.26198 0
M  V30 285 O 29.7588 1.25858 1.20438 0
M  V30 286 C 26.8908 2.5394 2.27436 0
M  V30 287 H 28.0838 2.95455 0.514451 0
M  V30 288 H 25.6368 1.54582 0.231089 0
M  V30 289 H 26.3718 1.70171 2.76066 0
M  V30 290 H 26.1568 3.33371 2.06412 0
M  V30 291 H 27.6468 2.93512 2.97053 0
M  V30 292 N 28.0839 -0.256276 1.55502 0
M  V30 293 C 29.0139 -1.32102 1.92539 0
M  V30 294 C 29.9949 -1.50684 0.789194 0
M  V30 295 O 31.1799 -1.63449 1.04872 0
M  V30 296 C 28.3099 -2.67752 2.21192 0
M  V30 297 C 27.2639 -2.63878 3.36975 0
M  V30 298 C 26.5899 -4.03236 3.51147 0
M  V30 299 C 27.8899 -2.21682 4.72921 0
M  V30 300 H 29.5839 -1.01351 2.81724 0
M  V30 301 H 27.1299 -0.486105 1.35547 0
M  V30 302 H 29.0829 -3.42365 2.45691 0
M  V30 303 H 27.8069 -3.0012 1.28824 0
M  V30 304 H 26.4659 -1.91722 3.12471 0
M  V30 305 H 26.1139 -4.32854 2.56216 0
M  V30 306 H 25.8139 -4.01535 4.29003 0
M  V30 307 H 27.3379 -4.79563 3.77957 0
M  V30 308 H 28.7519 -2.86023 4.96854 0
M  V30 309 H 27.1489 -2.3111 5.53812 0
M  V30 310 H 28.2189 -1.16833 4.70615 0
M  V30 311 N 29.562 -1.4872 -0.521534 0
M  V30 312 C 30.808 -1.574 -1.27879 0
M  V30 313 C 31.141 -0.250817 -1.92573 0
M  V30 314 O 30.416 0.743934 -1.79711 0
M  V30 315 C 30.699 -2.71843 -2.36164 0
M  V30 316 C 30.552 -4.13893 -1.76105 0
M  V30 317 C 31.871 -2.82008 -3.37875 0
M  V30 318 H 28.99 -0.572941 -0.463581 0
M  V30 319 H 31.632 -1.80927 -0.580119 0
M  V30 320 H 29.782 -2.51914 -2.95756 0
M  V30 321 H 31.454 -4.45284 -1.20499 0
M  V30 322 H 29.697 -4.20498 -1.06601 0
M  V30 323 H 30.368 -4.89804 -2.5455 0
M  V30 324 H 32.844 -3.00086 -2.88249 0
M  V30 325 H 31.72 -3.63796 -4.11028 0
M  V30 326 H 31.981 -1.90511 -3.98946 0
M  V30 327 N 31.0401 0.771051 -1.3745 0
M  V30 328 C 32.4561 1.07171 -1.18265 0
M  V30 329 C 32.6561 2.01491 -0.019287 0
M  V30 330 O 31.7121 2.44244 0.640408 0
M  V30 331 C 33.0251 1.66854 -2.50161 0
M  V30 332 C 34.5731 1.79109 -2.56689 0
M  V30 333 C 35.0481 2.42205 -3.88717 0
M  V30 334 N 36.5391 2.49655 -3.90162 0
M  V30 335 C 37.2741 2.9933 -4.8907 0
M  V30 336 N 36.7701 3.49172 -5.98374 0
M  V30 337 N 38.5631 2.9821 -4.76474 0
M  V30 338 H 30.7141 0.144796 -2.11906 0
M  V30 339 H 32.9771 0.126863 -0.939473 0
M  V30 340 H 32.6831 1.05017 -3.35655 0
M  V30 341 H 32.5571 2.6614 -2.673 0
M  V30 342 H 34.9441 2.40077 -1.71601 0
M  V30 343 H 35.0251 0.785757 -2.43433 0
M  V30 344 H 34.6691 1.81875 -4.74219 0
M  V30 345 H 34.5991 3.43345 -3.99276 0
M  V30 346 H 37.0901 2.14383 -3.11205 0
M  V30 347 H 37.4031 3.8548 -6.69795 0
M  V30 348 H 35.7481 3.47275 -6.02018 0
M  V30 349 H 38.9391 2.58572 -3.90203 0
M  V30 350 H 39.1121 3.36613 -5.53711 0
M  V30 351 N 32.5182 1.22032 0.997298 0
M  V30 352 C 33.9342 0.979326 1.26021 0
M  V30 353 C 34.1342 -0.32972 1.98784 0
M  V30 354 O 33.1902 -1.05345 2.29475 0
M  V30 355 C 34.5032 2.17509 2.07631 0
M  V30 356 C 36.0512 2.21817 2.2083 0
M  V30 357 C 36.5262 3.40933 3.05825 0
M  V30 358 N 38.0172 3.41067 3.13412 0
M  V30 359 C 38.7522 4.29885 3.79455 0
M  V30 360 N 38.2482 5.28914 4.47462 0
M  V30 361 N 40.0412 4.17673 3.76173 0
M  V30 362 H 32.1922 2.06202 0.509352 0
M  V30 363 H 34.4552 0.90334 0.287541 0
M  V30 364 H 34.1612 3.12415 1.61524 0
M  V30 365 H 34.0352 2.17206 3.08385 0
M  V30 366 H 36.4222 1.27462 2.66153 0
M  V30 367 H 36.5032 2.2616 1.1952 0
M  V30 368 H 36.1472 4.35586 2.61203 0
M  V30 369 H 36.0772 3.33829 4.07266 0
M  V30 370 H 38.5682 2.69406 2.65007 0
M  V30 371 H 38.8812 5.92973 4.95583 0
M  V30 372 H 37.2262 5.32831 4.46224 0
M  V30 373 H 40.4172 3.39564 3.22202 0
M  V30 374 H 40.5902 4.87098 4.27363 0
M  V30 375 N 33.9963 -1.19345 1.0293 0
M  V30 376 C 34.9283 -2.22036 0.56857 0
M  V30 377 C 35.9413 -1.58865 -0.355779 0
M  V30 378 O 37.1303 -1.77851 -0.152103 0
M  V30 379 C 34.2303 -3.38363 -0.190752 0
M  V30 380 C 33.4033 -4.31118 0.738643 0
M  V30 381 C 32.4623 -5.26194 0.0246497 0
M  V30 382 O 31.4883 -5.65461 0.651354 0
M  V30 383 N 32.6903 -5.66971 -1.24594 0
M  V30 384 H 35.4553 -2.6219 1.45177 0
M  V30 385 H 33.0163 -1.34015 0.908381 0
M  V30 386 H 35.0083 -3.98981 -0.677961 0
M  V30 387 H 33.5783 -2.96994 -0.975366 0
M  V30 388 H 32.7983 -3.68276 1.40593 0
M  V30 389 H 34.0863 -4.90001 1.37029 0
M  V30 390 H 33.4843 -5.37104 -1.77583 0
M  V30 391 H 32.0413 -6.2984 -1.67764 0
M  V30 392 N 35.4744 -0.807222 -1.35358 0
M  V30 393 C 36.4374 -0.223665 -2.28106 0
M  V30 394 C 37.4374 0.589354 -1.4961 0
M  V30 395 O 38.6274 0.407745 -1.69361 0
M  V30 396 C 35.7594 0.688149 -3.33882 0
M  V30 397 H 36.9524 -1.04169 -2.81227 0
M  V30 398 H 34.5054 -0.577921 -1.45223 0
M  V30 399 H 35.2404 1.52984 -2.85948 0
M  V30 400 H 35.0254 0.10687 -3.91954 0
M  V30 401 H 36.5154 1.09075 -4.03104 0
M  V30 402 N 36.9525 1.47285 -0.560781 0
M  V30 403 C 37.8995 2.30058 0.18491 0
M  V30 404 C 38.8695 1.39281 0.904986 0
M  V30 405 O 40.0545 1.68241 0.899979 0
M  V30 406 C 37.1945 3.23317 1.20666 0
M  V30 407 C 36.3075 4.29186 0.492285 0
M  V30 408 C 35.4425 5.09592 1.49964 0
M  V30 409 C 34.4815 6.07232 0.770439 0
M  V30 410 N 33.6185 6.80584 1.72479 0
M  V30 411 H 38.4585 2.93302 -0.527048 0
M  V30 412 H 35.9955 1.44568 -0.271738 0
M  V30 413 H 37.9535 3.75811 1.81168 0
M  V30 414 H 36.5835 2.61929 1.88661 0
M  V30 415 H 35.6355 3.7972 -0.227333 0
M  V30 416 H 36.9475 4.98738 -0.0787929 0
M  V30 417 H 36.1015 5.66254 2.17809 0
M  V30 418 H 34.8405 4.3995 2.10464 0
M  V30 419 H 33.8455 5.49745 0.0780846 0
M  V30 420 H 35.0705 6.78884 0.171134 0
M  V30 421 H 33.0165 6.1367 2.3183 0
M  V30 422 H 32.9335 7.46319 1.20596 0
M  V30 423 H 34.2015 7.41818 2.39428 0
M  V30 424 N 38.4306 0.297415 1.54768 0
M  V30 425 C 39.3406 -0.58983 2.27064 0
M  V30 426 C 40.3566 -1.15144 1.30453 0
M  V30 427 O 41.5326 -1.17699 1.63428 0
M  V30 428 C 38.5976 -1.74714 2.9946 0
M  V30 429 C 37.6586 -1.21997 4.11601 0
M  V30 430 C 36.8916 -2.32212 4.80535 0
M  V30 431 O 37.1146 -3.52036 4.48806 0
M  V30 432 O 36.0486 -1.99106 5.68014 0
M  V30 433 H 39.8746 -0.00348199 3.037 0
M  V30 434 H 37.4596 0.0640035 1.49263 0
M  V30 435 H 39.3416 -2.42147 3.44881 0
M  V30 436 H 38.0166 -2.32016 2.25722 0
M  V30 437 H 36.9236 -0.511458 3.70587 0
M  V30 438 H 38.2566 -0.692419 4.87305 0
M  V30 439 N 39.9087 -1.5758 0.0250728 0
M  V30 440 C 41.3197 -1.79476 -0.514323 0
M  V30 441 C 41.6707 -0.934956 -1.72491 0
M  V30 442 O 40.7957 -0.144245 -2.15919 0
M  V30 443 C 41.3907 -3.25503 -0.939842 0
M  V30 444 C 39.9497 -3.48408 -1.42438 0
M  V30 445 C 39.0967 -2.74583 -0.387201 0
M  V30 446 H 42.0477 -1.567 0.25113 0
M  V30 447 H 42.0687 -3.34992 -1.80445 0
M  V30 448 H 41.5807 -3.88056 -0.0585628 0
M  V30 449 H 39.6817 -2.91103 -2.32572 0
M  V30 450 H 39.7947 -4.57119 -1.43455 0
M  V30 451 H 38.1587 -2.39942 -0.854409 0
M  V30 452 H 38.9417 -3.39849 0.485543 0
M  V30 453 N 41.3868 0.248026 -1.55636 0
M  V30 454 C 42.6268 0.983592 -1.79178 0
M  V30 455 C 42.9908 1.82567 -0.594414 0
M  V30 456 O 44.1918 2.59292 -0.708583 0
M  V30 457 C 42.4628 1.82228 -3.07454 0
M  V30 458 S 44.0218 2.61709 -3.52213 0
M  V30 459 H 40.8398 0.330866 -0.629324 0
M  V30 460 H 43.4418 0.251562 -1.93875 0
M  V30 461 H 42.1458 1.19333 -3.92668 0
M  V30 462 H 41.6768 2.59708 -2.95492 0
M  V30 463 H 43.6918 3.84655 -3.13457 0
M  V30 464 N 42.8649 1.48995 0.513639 0
M  V30 465 C 44.1109 1.58076 1.27042 0
M  V30 466 C 44.4439 0.261026 1.92438 0
M  V30 467 O 43.7189 -0.734393 1.80103 0
M  V30 468 C 44.0019 2.73091 2.34719 0
M  V30 469 C 43.8549 4.14821 1.73907 0
M  V30 470 C 45.1739 2.83796 3.36375 0
M  V30 471 H 42.2929 0.575391 0.460536 0
M  V30 472 H 44.9349 1.81232 0.570516 0
M  V30 473 H 43.0849 2.53479 2.94416 0
M  V30 474 H 44.7569 4.45917 1.18135 0
M  V30 475 H 42.9999 4.21058 1.0437 0
M  V30 476 H 43.6709 4.91147 2.51949 0
M  V30 477 H 46.1469 3.01611 2.86653 0
M  V30 478 H 45.0229 3.65971 4.09093 0
M  V30 479 H 45.2839 1.92624 3.9793 0
M  V30 480 N 44.343 -0.763751 1.37857 0
M  V30 481 C 45.253 -1.90817 1.36478 0
M  V30 482 C 46.269 -1.71997 0.263248 0
M  V30 483 O 47.445 -1.95095 0.499979 0
M  V30 484 C 44.51 -3.2605 1.17864 0
M  V30 485 C 43.571 -3.57467 2.3773 0
M  V30 486 C 42.804 -4.86249 2.19995 0
M  V30 487 O 43.027 -5.57884 1.18836 0
M  V30 488 O 41.961 -5.16911 3.08361 0
M  V30 489 H 45.787 -1.94933 2.32884 0
M  V30 490 H 43.372 -0.907619 1.1867 0
M  V30 491 H 45.254 -4.06924 1.09504 0
M  V30 492 H 43.929 -3.22769 0.245372 0
M  V30 493 H 42.836 -2.76796 2.51664 0
M  V30 494 H 44.169 -3.655 3.29652 0
M  V30 495 N 45.8211 -1.22559 -0.990812 0
M  V30 496 C 47.0461 -1.07862 -1.77145 0
M  V30 497 C 47.4711 0.366447 -1.84496 0
M  V30 498 O 46.8291 1.26478 -1.29896 0
M  V30 499 C 46.8771 -1.69686 -3.18181 0
M  V30 500 O 45.9811 -0.951946 -4.01263 0
M  V30 501 H 45.3221 -0.378712 -0.545411 0
M  V30 502 H 47.8521 -1.62399 -1.2445 0
M  V30 503 H 47.8621 -1.74496 -3.68802 0
M  V30 504 H 46.5371 -2.74841 -3.12146 0
M  V30 505 H 45.1141 -0.980011 -3.59792 0
M  V30 506 N 47.2992 1.18797 -1.03562 0
M  V30 507 C 48.2292 2.24472 -0.643019 0
M  V30 508 C 49.2102 1.66433 0.351283 0
M  V30 509 O 50.3952 1.92803 0.232505 0
M  V30 510 C 47.5252 3.473 4.24935e-05 0
M  V30 511 C 46.4792 4.18055 -0.917257 0
M  V30 512 C 45.8052 5.34519 -0.138941 0
M  V30 513 C 47.1052 4.72109 -2.23407 0
M  V30 514 H 48.7992 2.57566 -1.52643 0
M  V30 515 H 46.3452 1.23806 -0.735394 0
M  V30 516 H 48.2982 4.20426 0.286383 0
M  V30 517 H 47.0222 3.13424 0.918299 0
M  V30 518 H 45.6812 3.46821 -1.1879 0
M  V30 519 H 45.3292 4.96891 0.781562 0
M  V30 520 H 45.0292 5.82794 -0.750005 0
M  V30 521 H 46.5532 6.10438 0.1405 0
M  V30 522 H 47.9672 5.36955 -2.00879 0
M  V30 523 H 46.3642 5.30897 -2.79765 0
M  V30 524 H 47.4342 3.89807 -2.88407 0
M  V30 525 N 48.7773 0.814389 1.34928 0
M  V30 526 C 50.0233 0.399013 1.98836 0
M  V30 527 C 50.3563 -1.03314 1.64438 0
M  V30 528 O 49.6313 -1.71811 0.911659 0
M  V30 529 C 49.9143 0.591629 3.55207 0
M  V30 530 C 49.7673 2.06928 3.99376 0
M  V30 531 C 51.0863 0.022199 4.40094 0
M  V30 532 H 48.2053 0.146451 0.722303 0
M  V30 533 H 50.8473 1.02537 1.59957 0
M  V30 534 H 48.9973 0.0584441 3.88456 0
M  V30 535 H 50.6693 2.66544 3.76499 0
M  V30 536 H 48.9123 2.56287 3.49999 0
M  V30 537 H 49.5833 2.1549 5.08201 0
M  V30 538 H 52.0593 0.477643 4.13349 0
M  V30 539 H 50.9353 0.186832 5.48582 0
M  V30 540 H 51.1963 -1.07215 4.28902 0
M  V30 541 N 50.2554 -1.46986 0.568584 0
M  V30 542 C 51.4804 -2.07335 0.0520528 0
M  V30 543 C 51.9054 -1.41675 -1.23733 0
M  V30 544 O 51.2634 -0.495623 -1.74394 0
M  V30 545 C 51.3114 -3.60417 -0.11501 0
M  V30 546 O 50.4154 -3.95309 -1.17492 0
M  V30 547 H 49.7564 -0.661597 0.0564385 0
M  V30 548 H 52.2864 -1.88837 0.787507 0
M  V30 549 H 52.2964 -4.06698 -0.325644 0
M  V30 550 H 50.9714 -4.07601 0.826675 0
M  V30 551 H 49.5484 -3.60757 -0.943869 0
M  V30 552 N 51.7335 -0.305618 -1.54608 0
M  V30 553 C 52.6655 0.602161 -2.21149 0
M  V30 554 C 53.6785 1.09394 -1.20569 0
M  V30 555 O 54.8675 1.0106 -1.47136 0
M  V30 556 C 51.9675 1.83692 -2.84799 0
M  V30 557 C 51.1405 1.48686 -4.11353 0
M  V30 558 C 50.1995 2.57725 -4.58764 0
M  V30 559 O 49.2255 2.22623 -5.23858 0
M  V30 560 N 50.4275 3.88346 -4.31471 0
M  V30 561 H 53.1925 0.0324966 -2.99682 0
M  V30 562 H 50.7535 -0.128021 -1.61393 0
M  V30 563 H 52.7455 2.55994 -3.13448 0
M  V30 564 H 51.3155 2.31486 -2.10078 0
M  V30 565 H 50.5355 0.596269 -3.89664 0
M  V30 566 H 51.8235 1.22842 -4.93748 0
M  V30 567 H 51.2215 4.19671 -3.79331 0
M  V30 568 H 49.7785 4.56932 -4.64818 0
M  V30 569 N 53.2116 1.57565 -0.0334293 0
M  V30 570 C 54.4416 1.95996 0.653398 0
M  V30 571 C 54.8496 0.908749 1.65947 0
M  V30 572 O 54.1926 -0.117471 1.83324 0
M  V30 573 C 54.2546 3.30589 1.41249 0
M  V30 574 C 53.9186 4.53503 0.564263 0
M  V30 575 C 54.9156 5.19647 -0.16225 0
M  V30 576 C 52.6006 4.99801 0.500398 0
M  V30 577 C 54.5946 6.30412 -0.941255 0
M  V30 578 C 52.2816 6.10448 -0.282308 0
M  V30 579 C 53.2796 6.75612 -1.00184 0
M  V30 580 O 52.9676 7.84134 -1.77171 0
M  V30 581 H 52.6996 0.65027 0.184728 0
M  V30 582 H 55.2536 2.05199 -0.0907841 0
M  V30 583 H 53.4836 3.17888 2.20191 0
M  V30 584 H 55.1726 3.53892 1.98784 0
M  V30 585 H 55.9386 4.84846 -0.12227 0
M  V30 586 H 51.8176 4.48883 1.05002 0
M  V30 587 H 55.3616 6.81208 -1.50339 0
M  V30 588 H 51.2586 6.44686 -0.323989 0
M  V30 589 H 52.0266 8.00822 -1.69194 0
M  V30 590 N 54.6897 -0.239769 1.55765 0
M  V30 591 C 55.9367 -0.966801 1.7793 0
M  V30 592 C 56.2647 -1.85046 0.599015 0
M  V30 593 O 55.5197 -1.91197 -0.417395 0
M  V30 594 C 55.8187 -1.852 3.05672 0
M  V30 595 C 55.4847 -1.1231 4.36689 0
M  V30 596 C 54.1467 -0.921689 4.72291 0
M  V30 597 C 56.4987 -0.607019 5.17653 0
M  V30 598 C 53.8267 -0.191996 5.86386 0
M  V30 599 C 56.1787 0.109241 6.32506 0
M  V30 600 C 54.8427 0.322073 6.66723 0
M  V30 601 H 54.1127 -0.353778 0.651093 0
M  V30 602 H 56.7597 -0.23634 1.90036 0
M  V30 603 H 55.0647 -2.64975 2.8861 0
M  V30 604 H 56.7617 -2.41635 3.20021 0
M  V30 605 H 53.3517 -1.29004 4.08725 0
M  V30 606 H 57.5357 -0.750153 4.90598 0
M  V30 607 H 52.7917 -0.0166949 6.11398 0
M  V30 608 H 56.9657 0.516737 6.9448 0
M  V30 609 H 54.5927 0.88944 7.54979 0
M  V30 610 N 56.1678 -1.49265 -0.50573 0
M  V30 611 C 57.0998 -1.617 -1.62437 0
M  V30 612 C 58.1128 -0.499924 -1.54934 0
M  V30 613 O 59.3018 -0.771785 -1.60953 0
M  V30 614 C 56.4018 -1.5533 -3.01207 0
M  V30 615 C 55.5748 -2.8249 -3.33943 0
M  V30 616 C 54.6338 -2.69238 -4.52103 0
M  V30 617 O 53.6598 -3.43167 -4.5412 0
M  V30 618 N 54.8618 -1.80468 -5.51735 0
M  V30 619 H 57.6268 -2.58177 -1.52199 0
M  V30 620 H 55.1878 -1.46294 -0.693511 0
M  V30 621 H 57.1798 -1.44125 -3.78167 0
M  V30 622 H 55.7498 -0.667297 -3.05395 0
M  V30 623 H 54.9698 -3.08081 -2.45926 0
M  V30 624 H 56.2578 -3.66802 -3.5261 0
M  V30 625 H 55.6558 -1.19653 -5.52901 0
M  V30 626 H 54.2128 -1.75188 -6.27816 0
M  V30 627 N 57.6459 0.756429 -1.3826 0
M  V30 628 C 58.8739 1.54565 -1.3754 0
M  V30 629 C 59.2889 1.88767 0.0355331 0
M  V30 630 O 58.6459 1.52572 1.0014 0
M  V30 631 C 58.6969 2.84654 -2.22833 0
M  V30 632 O 58.4179 2.51912 -3.5843 0
M  V30 633 C 59.9189 3.78807 -2.30261 0
M  V30 634 H 57.1389 0.478353 -0.470553 0
M  V30 635 H 59.6829 0.936381 -1.81803 0
M  V30 636 H 57.8379 3.41965 -1.8204 0
M  V30 637 H 58.2519 3.35325 -4.03308 0
M  V30 638 H 59.7259 4.67045 -2.94233 0
M  V30 639 H 60.2029 4.19038 -1.31545 0
M  V30 640 H 60.8089 3.2742 -2.71433 0
M  V30 641 N 59.124 1.23083 0.984299 0
M  V30 642 C 60.37 1.06214 1.72761 0
M  V30 643 C 60.703 -0.400584 1.90024 0
M  V30 644 O 59.978 -1.29672 1.44967 0
M  V30 645 C 60.261 1.78375 3.12817 0
M  V30 646 C 60.114 3.32296 3.03149 0
M  V30 647 C 61.433 1.54309 4.12161 0
M  V30 648 H 58.552 0.387251 0.627061 0
M  V30 649 H 61.194 1.51536 1.14616 0
M  V30 650 H 59.344 1.39848 3.62457 0
M  V30 651 H 61.016 3.8032 2.61064 0
M  V30 652 H 59.259 3.6153 2.39747 0
M  V30 653 H 59.93 3.77972 4.02295 0
M  V30 654 H 62.406 1.87791 3.71314 0
M  V30 655 H 61.282 2.07281 5.08258 0
M  V30 656 H 61.543 0.477572 4.39513 0
M  V30 657 N 60.6021 -1.18246 1.0419 0
M  V30 658 C 61.8301 -1.92195 0.766072 0
M  V30 659 C 62.2451 -1.76247 -0.676933 0
M  V30 660 O 61.6021 -1.09293 -1.46155 0
M  V30 661 C 61.6531 -3.43568 1.12442 0
M  V30 662 O 61.3741 -3.59015 2.51078 0
M  V30 663 C 62.8751 -4.34613 0.873275 0
M  V30 664 H 60.0951 -0.610114 0.279288 0
M  V30 665 H 62.6391 -1.50007 1.38989 0
M  V30 666 H 60.7941 -3.8354 0.545542 0
M  V30 667 H 61.2081 -4.5273 2.64831 0
M  V30 668 H 62.6821 -5.39374 1.17385 0
M  V30 669 H 63.1591 -4.38781 -0.191909 0
M  V30 670 H 63.7651 -4.00341 1.43551 0
M  V30 671 N 62.0802 -0.821533 -1.34494 0
M  V30 672 C 63.3572 -0.33159 -1.92769 0
M  V30 673 C 63.7372 1.18088 -1.74981 0
M  V30 674 O 63.0852 1.98733 -1.12772 0
M  V30 675 C 63.2952 -0.759398 -3.40638 0
M  V30 676 C 64.6432 -0.757433 -4.1779 0
M  V30 677 O 65.6672 -0.70189 -3.49216 0
M  V30 678 O 64.5262 -0.829361 -5.4017 0
M  V30 679 H 61.6202 -0.0902502 -0.822061 0
M  V30 680 H 64.1662 -0.906231 -1.43477 0
M  V30 681 H 62.9382 -1.8012 -3.47379 0
M  V30 682 H 62.5612 -0.160378 -3.97276 0
M  V30 683 N 63.5583 1.46682 -0.576371 0
M  V30 684 C 64.7883 2.06498 -0.0648694 0
M  V30 685 C 65.1963 1.42665 1.24271 0
M  V30 686 O 64.5393 0.523886 1.76071 0
M  V30 687 C 64.6013 3.5904 0.181816 0
M  V30 688 C 64.2653 4.45028 -1.0392 0
M  V30 689 C 65.2623 4.81959 -1.94966 0
M  V30 690 C 62.9473 4.86259 -1.25927 0
M  V30 691 C 64.9413 5.58942 -3.06371 0
M  V30 692 C 62.6283 5.63002 -2.37638 0
M  V30 693 C 63.6263 5.99257 -3.2769 0
M  V30 694 O 63.3143 6.7445 -4.37461 0
M  V30 695 H 63.0463 0.674028 -0.0515987 0
M  V30 696 H 65.6003 1.89393 -0.794951 0
M  V30 697 H 63.8303 3.74429 0.966436 0
M  V30 698 H 65.5193 4.00806 0.641047 0
M  V30 699 H 66.2853 4.50689 -1.79177 0
M  V30 700 H 62.1643 4.57494 -0.567448 0
M  V30 701 H 65.7083 5.87158 -3.76684 0
M  V30 702 H 61.6053 5.93686 -2.53392 0
M  V30 703 H 62.3733 6.92867 -4.35749 0
M  V30 704 N 65.0364 0.313813 1.54444 0
M  V30 705 C 66.2844 -0.291099 1.99993 0
M  V30 706 C 66.6054 -1.53418 1.20366 0
M  V30 707 O 65.8754 -1.93544 0.302927 0
M  V30 708 H 64.4554 -0.110552 0.738774 0
M  V30 709 H 67.1174 0.428106 1.9014 0
M  V30 710 H 66.2134 -0.554268 3.07139 0
M  V30 711 N 66.5145 -1.57545 0.0417849 0
M  V30 712 C 67.4615 -2.10977 -0.935805 0
M  V30 713 C 68.4315 -1.01486 -1.31491 0
M  V30 714 O 69.6165 -1.2898 -1.40602 0
M  V30 715 C 66.7565 -2.65169 -2.2086 0
M  V30 716 C 65.8695 -3.88714 -1.88482 0
M  V30 717 C 65.0045 -4.31254 -3.1015 0
M  V30 718 C 64.0435 -5.47524 -2.7365 0
M  V30 719 N 63.1805 -5.85162 -3.87982 0
M  V30 720 H 68.0205 -2.94218 -0.473249 0
M  V30 721 H 65.5575 -1.45415 -0.221981 0
M  V30 722 H 67.5155 -2.94685 -2.95325 0
M  V30 723 H 66.1455 -1.8474 -2.64709 0
M  V30 724 H 65.1975 -3.65849 -1.04205 0
M  V30 725 H 66.5095 -4.73245 -1.57608 0
M  V30 726 H 65.6635 -4.62273 -3.92923 0
M  V30 727 H 64.4025 -3.45516 -3.44195 0
M  V30 728 H 63.4075 -5.16187 -1.89291 0
M  V30 729 H 64.6325 -6.34971 -2.40807 0
M  V30 730 H 62.5785 -5.02377 -4.21846 0
M  V30 731 H 62.4955 -6.64362 -3.60775 0
M  V30 732 H 63.7635 -6.20791 -4.71422 0
M  V30 733 N 67.9926 0.231505 -1.5589 0
M  V30 734 C 69.2696 0.981096 -1.69215 0
M  V30 735 C 69.6496 2.02799 -0.586164 0
M  V30 736 O 68.9976 2.24823 0.408253 0
M  V30 737 C 69.2076 1.60054 -3.10135 0
M  V30 738 C 70.5556 2.09658 -3.69227 0
M  V30 739 O 71.5796 1.69967 -3.13033 0
M  V30 740 O 70.4386 2.8258 -4.67772 0
M  V30 741 H 67.5326 0.457653 -0.688827 0
M  V30 742 H 70.0786 0.224073 -1.68214 0
M  V30 743 H 68.8506 0.844105 -3.82087 0
M  V30 744 H 68.4736 2.42336 -3.15212 0
M  V30 745 N 69.4707 1.49531 0.497807 0
M  V30 746 C 70.4007 1.6935 1.60757 0
M  V30 747 C 71.3817 0.542218 1.61227 0
M  V30 748 O 72.5667 0.778417 1.77917 0
M  V30 749 C 69.6967 1.76298 2.99226 0
M  V30 750 C 68.6507 2.91248 3.13622 0
M  V30 751 C 67.9767 2.83312 4.53474 0
M  V30 752 C 69.2767 4.3214 2.93346 0
M  V30 753 H 70.9707 2.62263 1.44425 0
M  V30 754 H 68.5167 1.26208 0.693367 0
M  V30 755 H 70.4697 1.88749 3.76765 0
M  V30 756 H 69.1937 0.799871 3.16654 0
M  V30 757 H 67.8527 2.78404 2.38509 0
M  V30 758 H 67.5007 1.84902 4.67782 0
M  V30 759 H 67.2007 3.60465 4.64046 0
M  V30 760 H 68.7247 2.97775 5.33069 0
M  V30 761 H 70.1387 4.45649 3.60652 0
M  V30 762 H 68.5357 5.1054 3.15387 0
M  V30 763 H 69.6057 4.46363 1.89441 0
M  V30 764 N 70.9488 -0.749086 1.3866 0
M  V30 765 C 71.8818 -1.87111 1.30631 0
M  V30 766 C 72.8598 -1.61572 0.18251 0
M  V30 767 O 74.0438 -1.85019 0.360592 0
M  V30 768 C 71.1708 -3.22815 1.02511 0
M  V30 769 C 70.2168 -3.67234 2.1689 0
M  V30 770 S 71.0498 -3.78245 3.79066 0
M  V30 771 C 72.2058 -5.16761 3.53142 0
M  V30 772 H 72.4388 -1.93636 2.25594 0
M  V30 773 H 69.9718 -0.912525 1.24549 0
M  V30 774 H 71.9298 -4.01181 0.869701 0
M  V30 775 H 70.5908 -3.13964 0.0925884 0
M  V30 776 H 69.7838 -4.65677 1.92771 0
M  V30 777 H 69.3858 -2.96034 2.28561 0
M  V30 778 H 71.6778 -6.02656 3.09534 0
M  V30 779 H 72.6208 -5.45902 4.50995 0
M  V30 780 H 73.0288 -4.85771 2.87554 0
M  V30 781 N 72.4269 -1.23603 -0.977757 0
M  V30 782 C 73.3369 -1.03632 -2.1047 0
M  V30 783 C 74.3529 0.0199435 -1.73989 0
M  V30 784 O 75.5289 -0.176076 -2.00629 0
M  V30 785 C 72.5939 -0.63276 -3.40877 0
M  V30 786 C 71.6549 -1.76437 -3.91367 0
M  V30 787 C 70.8879 -1.37997 -5.15551 0
M  V30 788 O 71.1109 -0.265357 -5.69782 0
M  V30 789 O 70.0449 -2.20201 -5.60174 0
M  V30 790 H 73.8709 -1.98086 -2.30208 0
M  V30 791 H 71.4559 -1.02332 -1.08851 0
M  V30 792 H 73.3379 -0.418761 -4.19314 0
M  V30 793 H 72.0129 0.282754 -3.22463 0
M  V30 794 H 70.9199 -2.03304 -3.14036 0
M  V30 795 H 72.2529 -2.6583 -4.14241 0
M  V30 796 N 73.905 1.17692 -1.04816 0
M  V30 797 C 74.852 2.21581 -0.645797 0
M  V30 798 C 75.822 1.62367 0.350159 0
M  V30 799 O 77.007 1.89254 0.242433 0
M  V30 800 C 74.147 3.45092 -0.0227568 0
M  V30 801 C 73.26 4.18613 -1.06709 0
M  V30 802 C 72.395 5.29602 -0.411767 0
M  V30 803 C 71.434 5.94904 -1.44067 0
M  V30 804 N 70.571 6.97414 -0.809781 0
M  V30 805 H 75.411 2.55353 -1.5362 0
M  V30 806 H 72.948 1.25438 -0.768364 0
M  V30 807 H 74.906 4.15679 0.35588 0
M  V30 808 H 73.536 3.11917 0.831122 0
M  V30 809 H 72.588 3.46779 -1.5636 0
M  V30 810 H 73.9 4.63293 -1.84827 0
M  V30 811 H 73.054 6.06696 0.0206623 0
M  V30 812 H 71.793 4.86045 0.401438 0
M  V30 813 H 70.798 5.16544 -1.88316 0
M  V30 814 H 72.023 6.40542 -2.25571 0
M  V30 815 H 69.969 6.55998 -0.0170186 0
M  V30 816 H 69.886 7.40386 -1.52856 0
M  V30 817 H 71.154 7.78463 -0.401999 0
M  V30 818 N 75.3831 0.828654 1.34056 0
M  V30 819 C 76.6291 0.42008 1.98402 0
M  V30 820 C 76.9621 -1.01564 1.65525 0
M  V30 821 O 76.2371 -1.70834 0.929831 0
M  V30 822 C 76.5201 0.62927 3.54559 0
M  V30 823 C 76.3731 2.11152 3.97159 0
M  V30 824 C 77.6921 0.0688756 4.40046 0
M  V30 825 H 74.8111 0.154104 0.720709 0
M  V30 826 H 77.4531 1.04228 1.5886 0
M  V30 827 H 75.6031 0.0996418 3.88372 0
M  V30 828 H 77.2751 2.70522 3.73651 0
M  V30 829 H 75.5181 2.59985 3.47261 0
M  V30 830 H 76.1891 2.20868 5.05887 0
M  V30 831 H 78.6651 0.521458 4.1282 0
M  V30 832 H 77.5411 0.245006 5.48353 0
M  V30 833 H 77.8021 -1.0266 4.30015 0
M  V30 834 N 76.8612 -1.46375 0.584142 0
M  V30 835 C 77.8082 -2.30323 -0.148286 0
M  V30 836 C 78.7782 -1.40703 -0.882713 0
M  V30 837 O 79.9632 -1.69651 -0.873099 0
M  V30 838 C 77.1032 -3.25196 -1.15507 0
M  V30 839 C 76.2162 -4.29915 -0.423943 0
M  V30 840 C 75.3512 -5.11914 -1.41838 0
M  V30 841 C 74.3902 -6.08381 -0.673736 0
M  V30 842 N 73.5272 -6.83242 -1.6163 0
M  V30 843 H 78.3672 -2.92427 0.573644 0
M  V30 844 H 75.9042 -1.44118 0.294703 0
M  V30 845 H 77.8622 -3.78646 -1.75166 0
M  V30 846 H 76.4922 -2.64898 -1.8447 0
M  V30 847 H 75.5442 -3.7931 0.287714 0
M  V30 848 H 76.8562 -4.98549 0.158128 0
M  V30 849 H 76.0102 -5.69648 -2.08773 0
M  V30 850 H 74.7492 -4.43243 -2.03438 0
M  V30 851 H 73.7542 -5.49799 0.00938483 0
M  V30 852 H 74.9792 -6.79071 -0.0631082 0
M  V30 853 H 72.9252 -6.1728 -2.22038 0
M  V30 854 H 72.8422 -7.48144 -1.08707 0
M  V30 855 H 74.1102 -7.45534 -2.27596 0
M  V30 856 N 78.3393 -0.321999 -1.54275 0
M  V30 857 C 79.5643 0.285791 -2.05422 0
M  V30 858 C 79.9893 1.45124 -1.19669 0
M  V30 859 O 79.3473 1.80132 -0.205441 0
M  V30 860 C 79.3953 0.69956 -3.53749 0
M  V30 861 O 78.4993 1.8021 -3.70942 0
M  V30 862 H 77.8403 0.0518962 -0.661969 0
M  V30 863 H 80.3703 -0.469954 -1.9913 0
M  V30 864 H 80.3803 0.982649 -3.9599 0
M  V30 865 H 79.0553 -0.152864 -4.15619 0
M  V30 866 H 77.6323 1.51794 -3.40607 0
M  V30 867 N 79.8174 1.5752 -0.0501392 0
M  V30 868 C 81.2284 1.80271 0.485705 0
M  V30 869 C 81.5794 0.96228 1.70981 0
M  V30 870 O 80.7044 0.178578 2.15662 0
M  V30 871 C 81.2994 3.26957 0.887938 0
M  V30 872 C 79.8584 3.5063 1.36877 0
M  V30 873 C 79.0054 2.75165 0.343468 0
M  V30 874 H 81.9564 1.56281 -0.276028 0
M  V30 875 H 81.9774 3.37821 1.75093 0
M  V30 876 H 81.4894 3.881 -0.0031809 0
M  V30 877 H 79.5904 2.94766 2.27911 0
M  V30 878 H 79.7034 4.59343 1.36164 0
M  V30 879 H 78.0674 2.4127 0.816128 0
M  V30 880 H 78.8504 3.39034 -0.539548 0
M  V30 881 N 81.2955 -0.223234 1.56011 0
M  V30 882 C 82.2055 -1.29766 1.95443 0
M  V30 883 C 83.2215 -1.51373 0.858028 0
M  V30 884 O 84.3975 -1.64536 1.16146 0
M  V30 885 C 81.4625 -2.62772 2.26167 0
M  V30 886 C 80.5235 -2.49482 3.49367 0
M  V30 887 C 79.7565 -3.76145 3.78616 0
M  V30 888 O 79.9795 -4.79087 3.09568 0
M  V30 889 O 78.9135 -3.73358 4.72109 0
M  V30 890 H 82.7395 -0.99309 2.87004 0
M  V30 891 H 80.3245 -0.425958 1.43199 0
M  V30 892 H 82.2065 -3.41327 2.47131 0
M  V30 893 H 80.8815 -2.92913 1.37781 0
M  V30 894 H 79.7885 -1.69133 3.33684 0
M  V30 895 H 81.1215 -2.2428 4.38131 0
M  V30 896 N 82.7736 -1.49793 -0.48987 0
M  V30 897 C 83.7036 -1.70201 -1.59856 0
M  V30 898 C 84.6846 -0.55076 -1.60937 0
M  V30 899 O 85.8696 -0.787841 -1.77501 0
M  V30 900 C 82.9996 -1.77882 -2.98287 0
M  V30 901 C 81.9536 -2.92907 -3.12073 0
M  V30 902 C 81.2796 -2.85712 -4.51965 0
M  V30 903 C 82.5796 -4.3369 -2.91051 0
M  V30 904 H 84.2736 -2.63025 -1.43032 0
M  V30 905 H 81.8196 -1.26574 -0.686664 0
M  V30 906 H 83.7726 -1.90744 -3.75759 0
M  V30 907 H 82.4966 -0.816653 -3.16225 0
M  V30 908 H 81.1556 -2.79665 -2.37029 0
M  V30 909 H 80.8036 -1.8738 -4.66795 0
M  V30 910 H 80.5036 -3.62921 -4.62128 0
M  V30 911 H 82.0276 -3.00598 -5.31482 0
M  V30 912 H 83.4416 -4.47555 -3.58284 0
M  V30 913 H 81.8386 -5.12205 -3.12675 0
M  V30 914 H 82.9086 -4.47362 -1.87071 0
M  V30 915 N 84.2517 0.741722 -1.39055 0
M  V30 916 C 85.1837 1.8657 -1.33133 0
M  V30 917 C 86.1967 1.61001 -0.241329 0
M  V30 918 O 87.3857 1.7136 -0.499784 0
M  V30 919 C 84.4857 3.22457 -1.04283 0
M  V30 920 C 83.6587 3.75435 -2.24427 0
M  V30 921 C 82.7177 4.89867 -1.92138 0
M  V30 922 O 81.7437 5.03879 -2.64754 0
M  V30 923 N 82.9457 5.73738 -0.88347 0
M  V30 924 H 85.7107 1.92156 -2.29991 0
M  V30 925 H 83.2717 0.922172 -1.3307 0
M  V30 926 H 85.2637 3.9657 -0.807128 0
M  V30 927 H 83.8337 3.12181 -0.161807 0
M  V30 928 H 83.0537 2.92751 -2.6399 0
M  V30 929 H 84.3417 4.07563 -3.04581 0
M  V30 930 H 83.7397 5.64999 -0.281517 0
M  V30 931 H 82.2967 6.47947 -0.707662 0
M  V30 932 N 85.7298 1.2412 0.971189 0
M  V30 933 C 86.6928 1.03156 2.04674 0
M  V30 934 C 87.6928 -0.00990322 1.60797 0
M  V30 935 O 88.8828 0.230729 1.72665 0
M  V30 936 C 86.0148 0.562765 3.36223 0
M  V30 937 H 87.2078 1.98614 2.24705 0
M  V30 938 H 84.7608 1.06293 1.14593 0
M  V30 939 H 85.4958 -0.395176 3.21883 0
M  V30 940 H 85.2808 1.31441 3.69413 0
M  V30 941 H 86.7708 0.437015 4.15307 0
M  V30 942 N 87.2079 -1.17134 1.05439 0
M  V30 943 C 88.1179 -2.24878 0.668365 0
M  V30 944 C 89.1339 -1.71186 -0.311687 0
M  V30 945 O 90.3099 -2.00738 -0.163161 0
M  V30 946 C 87.3749 -3.46662 0.051648 0
M  V30 947 C 86.4359 -4.15429 1.08246 0
M  V30 948 C 85.6689 -5.31399 0.495082 0
M  V30 949 O 85.8919 -5.66153 -0.694743 0
M  V30 950 O 84.8259 -5.89187 1.23056 0
M  V30 951 H 88.6519 -2.60189 1.56637 0
M  V30 952 H 86.2369 -1.24482 0.826104 0
M  V30 953 H 88.1189 -4.20394 -0.290966 0
M  V30 954 H 86.7939 -3.13142 -0.819971 0
M  V30 955 H 85.7009 -3.43704 1.47711 0
M  V30 956 H 87.0339 -4.52982 1.92532 0
M  V30 957 N 88.686 -0.835752 -1.33615 0
M  V30 958 C 89.649 -0.272 -2.2758 0
M  V30 959 C 90.649 0.557487 -1.50827 0
M  V30 960 O 91.839 0.37173 -1.70188 0
M  V30 961 C 88.971 0.617173 -3.35267 0
M  V30 962 H 90.164 -1.10111 -2.78954 0
M  V30 963 H 87.717 -0.608594 -1.43965 0
M  V30 964 H 88.452 1.46884 -2.89129 0
M  V30 965 H 88.237 0.0237066 -3.92093 0
M  V30 966 H 89.727 1.005 -4.05326 0
M  V30 967 N 90.1641 1.46063 -0.591896 0
M  V30 968 C 91.1111 2.30399 0.136069 0
M  V30 969 C 92.0811 1.41169 0.875238 0
M  V30 970 O 93.2661 1.70112 0.86409 0
M  V30 971 C 90.4061 3.25804 1.13781 0
M  V30 972 C 89.5191 4.30134 0.401137 0
M  V30 973 C 88.6541 5.12659 1.39121 0
M  V30 974 C 87.6931 6.0873 0.641462 0
M  V30 975 N 86.8301 6.8409 1.58004 0
M  V30 976 H 91.6701 2.92118 -0.589144 0
M  V30 977 H 89.2071 1.43959 -0.302342 0
M  V30 978 H 91.1651 3.79569 1.73156 0
M  V30 979 H 89.7951 2.65872 1.83062 0
M  V30 980 H 88.8471 3.79152 -0.307826 0
M  V30 981 H 90.1591 4.98458 -0.184565 0
M  V30 982 H 89.3131 5.70747 2.05749 0
M  V30 983 H 88.0521 4.44316 2.01084 0
M  V30 984 H 87.0571 5.49786 -0.0385419 0
M  V30 985 H 88.2821 6.79095 0.0270945 0
M  V30 986 H 86.2281 6.18449 2.18761 0
M  V30 987 H 86.1451 7.48709 1.04738 0
M  V30 988 H 87.4131 7.4673 2.23639 0
M  V30 989 N 91.6422 0.330177 1.54103 0
M  V30 990 C 92.8672 -0.274893 2.0557 0
M  V30 991 C 93.2922 -1.44487 1.20437 0
M  V30 992 O 92.6502 -1.80021 0.214991 0
M  V30 993 C 92.6982 -0.68079 3.54115 0
M  V30 994 O 91.8022 -1.7824 3.71893 0
M  V30 995 H 91.1432 -0.0483849 0.662235 0
M  V30 996 H 93.6732 0.480508 1.98878 0
M  V30 997 H 93.6832 -0.961635 3.96505 0
M  V30 998 H 92.3582 0.174903 4.15532 0
M  V30 999 H 90.9352 -1.49985 3.41407 0
M  V30 1000 N 93.1203 -1.57491 0.0584922 0
M  V30 1001 C 94.3503 -1.9701 -0.622134 0
M  V30 1002 C 94.7583 -0.935034 -1.6448 0
M  V30 1003 O 94.1013 0.0882904 -1.83488 0
M  V30 1004 C 94.1633 -3.32794 -1.35972 0
M  V30 1005 C 93.8273 -4.54343 -0.492043 0
M  V30 1006 C 94.8243 -5.19323 0.244901 0
M  V30 1007 C 92.5093 -5.00534 -0.420821 0
M  V30 1008 C 94.5033 -6.28835 1.04143 0
M  V30 1009 C 92.1903 -6.09921 0.379389 0
M  V30 1010 C 93.1883 -6.73933 1.10919 0
M  V30 1011 O 92.8763 -7.81216 1.89623 0
M  V30 1012 H 92.6083 -0.653127 -0.174359 0
M  V30 1013 H 95.1623 -2.05029 0.123418 0
M  V30 1014 H 93.3923 -3.21351 -2.15105 0
M  V30 1015 H 95.0813 -3.5701 -1.93129 0
M  V30 1016 H 95.8473 -4.8459 0.19939 0
M  V30 1017 H 91.7263 -4.50496 -0.978474 0
M  V30 1018 H 95.2703 -6.7873 1.61157 0
M  V30 1019 H 91.1673 -6.44089 0.426512 0
M  V30 1020 H 91.9353 -7.98029 1.81913 0
M  V30 1021 N 94.5984 0.214957 -1.56127 0
M  V30 1022 C 95.8454 0.938372 -1.79446 0
M  V30 1023 C 96.1734 1.8407 -0.628378 0
M  V30 1024 O 95.4284 1.91837 0.386925 0
M  V30 1025 C 95.7274 1.80314 -3.0858 0
M  V30 1026 C 95.3934 1.05349 -4.3842 0
M  V30 1027 C 94.0554 0.846435 -4.73697 0
M  V30 1028 C 96.4074 0.524588 -5.18553 0
M  V30 1029 C 93.7354 0.098683 -5.86617 0
M  V30 1030 C 96.0874 -0.209853 -6.32252 0
M  V30 1031 C 94.7514 -0.428102 -6.66126 0
M  V30 1032 H 94.0214 0.343375 -0.656639 0
M  V30 1033 H 96.6684 0.206077 -1.90388 0
M  V30 1034 H 94.9734 2.6035 -2.92789 0
M  V30 1035 H 96.6704 2.36513 -3.23825 0
M  V30 1036 H 93.2604 1.22486 -4.10725 0
M  V30 1037 H 97.4444 0.672008 -4.91729 0
M  V30 1038 H 92.7004 -0.0805753 -6.11347 0
M  V30 1039 H 96.8744 -0.627157 -6.9357 0
M  V30 1040 H 94.5014 -1.00944 -7.53468 0
M  V30 1041 N 96.0765 1.50051 0.48192 0
M  V30 1042 C 96.9865 1.7089 1.60728 0
M  V30 1043 C 98.0025 0.591788 1.63627 0
M  V30 1044 O 99.1785 0.868817 1.81696 0
M  V30 1045 C 96.2435 1.78855 2.97005 0
M  V30 1046 C 95.3045 3.02537 3.04581 0
M  V30 1047 C 94.5375 3.10112 4.34357 0
M  V30 1048 O 94.7605 2.24765 5.24249 0
M  V30 1049 O 93.6945 4.02747 4.47301 0
M  V30 1050 H 97.5205 2.66264 1.46072 0
M  V30 1051 H 95.1055 1.34018 0.660264 0
M  V30 1052 H 96.9875 1.86336 3.77964 0
M  V30 1053 H 95.6625 0.866628 3.11883 0
M  V30 1054 H 94.5695 3.00563 2.22739 0
M  V30 1055 H 95.9025 3.94272 2.94636 0
M  V30 1056 N 97.5546 -0.734337 1.39446 0
M  V30 1057 C 98.5016 -1.84835 1.38219 0
M  V30 1058 C 99.4716 -1.64331 0.24179 0
M  V30 1059 O 100.657 -1.85728 0.437002 0
M  V30 1060 C 97.7966 -3.22355 1.23212 0
M  V30 1061 C 96.9096 -3.5456 2.46801 0
M  V30 1062 C 96.0446 -4.81485 2.24377 0
M  V30 1063 C 95.0836 -5.06536 3.43639 0
M  V30 1064 N 94.2206 -6.24665 3.20528 0
M  V30 1065 H 99.0606 -1.85219 2.33448 0
M  V30 1066 H 96.5976 -0.905039 1.15963 0
M  V30 1067 H 98.5556 -4.0174 1.12522 0
M  V30 1068 H 97.1856 -3.21248 0.316121 0
M  V30 1069 H 96.2376 -2.69872 2.68092 0
M  V30 1070 H 97.5496 -3.6899 3.3563 0
M  V30 1071 H 96.7036 -5.68852 2.10933 0
M  V30 1072 H 95.4426 -4.6923 1.32944 0
M  V30 1073 H 94.4476 -4.17632 3.5758 0
M  V30 1074 H 95.6726 -5.20676 4.35974 0
M  V30 1075 H 93.6186 -6.13696 2.3176 0
M  V30 1076 H 93.5356 -6.39685 4.02913 0
M  V30 1077 H 94.8036 -7.14868 3.10779 0
M  V30 1078 N 99.0327 -1.24633 -0.964593 0
M  V30 1079 C 100.258 -1.11596 -1.74818 0
M  V30 1080 C 100.683 0.32723 -1.85232 0
M  V30 1081 O 100.041 1.23695 -1.32549 0
M  V30 1082 C 100.089 -1.76397 -3.1451 0
M  V30 1083 O 99.1927 -1.03685 -3.99153 0
M  V30 1084 H 98.5337 -0.390196 -0.537255 0
M  V30 1085 H 101.064 -1.65002 -1.20977 0
M  V30 1086 H 101.074 -1.8228 -3.65018 0
M  V30 1087 H 99.7487 -2.81401 -3.06246 0
M  V30 1088 H 98.3257 -1.05611 -3.57632 0
M  V30 1089 N 100.511 1.16574 -1.06058 0
M  V30 1090 C 101.458 2.20883 -0.669263 0
M  V30 1091 C 102.428 1.62729 0.332918 0
M  V30 1092 O 103.613 1.895 0.222346 0
M  V30 1093 C 100.753 3.45049 -0.0593572 0
M  V30 1094 C 99.8658 4.17458 -1.11143 0
M  V30 1095 C 99.0008 5.29135 -0.467916 0
M  V30 1096 C 98.0398 5.93343 -1.50369 0
M  V30 1097 N 97.1768 6.96516 -0.883706 0
M  V30 1098 H 102.017 2.53709 -1.5632 0
M  V30 1099 H 99.5538 1.24616 -0.781625 0
M  V30 1100 H 101.512 4.16033 0.311771 0
M  V30 1101 H 100.142 3.12781 0.797992 0
M  V30 1102 H 99.1938 3.45101 -1.60029 0
M  V30 1103 H 100.506 4.61307 -1.89731 0
M  V30 1104 H 99.6598 6.06684 -0.0436871 0
M  V30 1105 H 98.3988 4.86443 0.349864 0
M  V30 1106 H 97.4038 5.14517 -1.93784 0
M  V30 1107 H 98.6288 6.38114 -2.32352 0
M  V30 1108 H 96.5748 6.55943 -0.086595 0
M  V30 1109 H 96.4918 7.38723 -1.607 0
M  V30 1110 H 97.7598 7.77993 -0.484543 0
M  V30 1111 N 101.989 0.842826 1.3317 0
M  V30 1112 C 102.899 0.281444 2.32906 0
M  V30 1113 C 103.915 -0.594587 1.63526 0
M  V30 1114 O 105.091 -0.49777 1.95152 0
M  V30 1115 C 102.156 -0.530929 3.42611 0
M  V30 1116 C 101.217 0.369843 4.27704 0
M  V30 1117 C 100.45 -0.403853 5.3217 0
M  V30 1118 O 100.673 -1.63513 5.46461 0
M  V30 1119 O 99.6069 0.224199 6.01482 0
M  V30 1120 H 103.433 1.10744 2.82789 0
M  V30 1121 H 101.018 0.60545 1.36582 0
M  V30 1122 H 102.9 -0.992437 4.09547 0
M  V30 1123 H 101.575 -1.33392 2.94938 0
M  V30 1124 H 100.482 0.879275 3.6362 0
M  V30 1125 H 101.815 1.13771 4.78871 0
M  V30 1126 N 103.467 -1.45747 0.599634 0
M  V30 1127 C 104.399 -2.28628 -0.161879 0
M  V30 1128 C 105.412 -1.39494 -0.839367 0
M  V30 1129 O 106.601 -1.63941 -0.706089 0
M  V30 1130 C 103.701 -3.15014 -1.24976 0
M  V30 1131 C 102.874 -4.32378 -0.660935 0
M  V30 1132 C 101.933 -5.00033 -1.63869 0
M  V30 1133 O 100.959 -5.57085 -1.1681 0
M  V30 1134 N 102.161 -4.98589 -2.97303 0
M  V30 1135 H 104.926 -2.94624 0.549265 0
M  V30 1136 H 102.487 -1.55847 0.438565 0
M  V30 1137 H 104.479 -3.5714 -1.9035 0
M  V30 1138 H 103.049 -2.5098 -1.86354 0
M  V30 1139 H 102.269 -3.9383 0.170688 0
M  V30 1140 H 103.557 -5.08197 -0.247619 0
M  V30 1141 H 102.955 -4.53514 -3.38145 0
M  V30 1142 H 101.512 -5.44603 -3.58121 0
M  V30 1143 N 104.945 -0.338344 -1.53925 0
M  V30 1144 C 105.875 0.51328 -2.27789 0
M  V30 1145 C 106.856 1.107 -1.29149 0
M  V30 1146 O 108.041 1.12937 -1.57984 0
M  V30 1147 C 105.171 1.66697 -3.04679 0
M  V30 1148 C 104.125 1.20183 -4.1078 0
M  V30 1149 C 103.451 2.44363 -4.75595 0
M  V30 1150 C 104.751 0.30605 -5.21403 0
M  V30 1151 H 106.445 -0.102883 -2.99223 0
M  V30 1152 H 103.991 -0.0509219 -1.4391 0
M  V30 1153 H 105.944 2.26915 -3.55088 0
M  V30 1154 H 104.668 2.30995 -2.30887 0
M  V30 1155 H 103.327 0.622499 -3.61276 0
M  V30 1156 H 102.975 3.07057 -3.98403 0
M  V30 1157 H 102.675 2.13925 -5.47275 0
M  V30 1158 H 104.199 3.05317 -5.28786 0
M  V30 1159 H 105.613 0.814929 -5.67478 0
M  V30 1160 H 104.01 0.0937929 -6.00027 0
M  V30 1161 H 105.08 -0.65921 -4.80398 0
M  V30 1162 N 106.423 1.57458 -0.0668435 0
M  V30 1163 C 107.651 1.97624 0.612565 0
M  V30 1164 C 108.066 0.94502 1.63447 0
M  V30 1165 O 107.423 -0.0689276 1.8237 0
M  V30 1166 C 107.474 3.37869 1.28555 0
M  V30 1167 O 107.195 4.3704 0.304557 0
M  V30 1168 C 108.696 3.92882 2.05325 0
M  V30 1169 H 105.916 0.650045 0.166381 0
M  V30 1170 H 108.46 2.04035 -0.137782 0
M  V30 1171 H 106.615 3.3256 1.98702 0
M  V30 1172 H 107.029 5.18565 0.786779 0
M  V30 1173 H 108.503 4.93247 2.47812 0
M  V30 1174 H 108.98 3.29156 2.9078 0
M  V30 1175 H 109.586 4.01577 1.40056 0
M  V30 1176 N 107.901 -0.206675 1.56239 0
M  V30 1177 C 109.312 -0.772383 1.69974 0
M  V30 1178 C 109.663 -1.84353 0.671436 0
M  V30 1179 O 108.788 -2.15695 -0.174491 0
M  V30 1180 C 109.383 -1.40779 3.08167 0
M  V30 1181 C 107.942 -1.92072 3.23706 0
M  V30 1182 C 107.089 -0.786347 2.65917 0
M  V30 1183 H 110.04 0.0182223 1.5869 0
M  V30 1184 H 110.061 -2.27696 3.04852 0
M  V30 1185 H 109.573 -0.627958 3.82986 0
M  V30 1186 H 107.674 -2.7281 2.53782 0
M  V30 1187 H 107.787 -2.09046 4.31087 0
M  V30 1188 H 106.151 -1.1976 2.24788 0
M  V30 1189 H 106.934 -0.0189416 3.43295 0
M  V30 1190 N 109.379 -1.50304 -0.473955 0
M  V30 1191 C 110.309 -1.71886 -1.58042 0
M  V30 1192 C 111.29 -0.567799 -1.60344 0
M  V30 1193 O 112.475 -0.806623 -1.76656 0
M  V30 1194 C 109.605 -1.81036 -2.96384 0
M  V30 1195 C 108.559 -2.962 -3.08949 0
M  V30 1196 C 107.885 -2.9049 -4.48909 0
M  V30 1197 C 109.185 -4.36752 -2.86434 0
M  V30 1198 H 110.879 -2.64527 -1.40234 0
M  V30 1199 H 108.425 -1.27295 -0.673201 0
M  V30 1200 H 110.378 -1.94719 -3.73714 0
M  V30 1201 H 109.102 -0.850147 -3.15341 0
M  V30 1202 H 107.761 -2.82164 -2.3405 0
M  V30 1203 H 107.409 -1.92321 -4.64781 0
M  V30 1204 H 107.109 -3.67802 -4.58253 0
M  V30 1205 H 108.633 -3.06218 -5.28264 0
M  V30 1206 H 110.047 -4.5133 -3.53517 0
M  V30 1207 H 108.444 -5.15493 -3.07225 0
M  V30 1208 H 109.514 -4.49321 -1.82316 0
M  V30 1209 N 110.857 0.726932 -1.39834 0
M  V30 1210 C 112.106 1.48214 -1.36805 0
M  V30 1211 C 112.419 1.95576 0.0305291 0
M  V30 1212 O 113.625 2.7088 0.183417 0
M  V30 1213 C 112.081 2.67854 -2.40379 0
M  V30 1214 C 111.689 2.27408 -3.85992 0
M  V30 1215 C 113.433 3.45641 -2.46439 0
M  V30 1216 C 111.34 3.43819 -4.81189 0
M  V30 1217 H 110.27 0.556606 -0.508631 0
M  V30 1218 H 112.921 0.792216 -1.65518 0
M  V30 1219 H 111.303 3.3896 -2.04749 0
M  V30 1220 H 112.477 1.63795 -4.30706 0
M  V30 1221 H 110.792 1.62692 -3.83302 0
M  V30 1222 H 113.389 4.32244 -3.14753 0
M  V30 1223 H 113.732 3.88669 -1.49139 0
M  V30 1224 H 114.265 2.8157 -2.81004 0
M  V30 1225 H 111.004 3.05834 -5.79781 0
M  V30 1226 H 110.524 4.06385 -4.41148 0
M  V30 1227 H 112.203 4.10043 -5.00474 0
M  V30 1228 N 112.336 1.25143 0.95797 0
M  V30 1229 C 113.283 1.05235 2.05412 0
M  V30 1230 C 114.253 -0.0374561 1.66058 0
M  V30 1231 O 115.438 0.119073 1.90428 0
M  V30 1232 C 112.578 0.673589 3.38462 0
M  V30 1233 C 111.691 1.8379 3.90954 0
M  V30 1234 C 110.826 1.40381 5.12315 0
M  V30 1235 C 109.865 2.53746 5.57027 0
M  V30 1236 N 109.002 2.11136 6.69601 0
M  V30 1237 H 113.842 1.99048 2.21774 0
M  V30 1238 H 111.379 0.991277 1.08683 0
M  V30 1239 H 113.337 0.434964 4.14926 0
M  V30 1240 H 111.967 -0.227554 3.21997 0
M  V30 1241 H 111.019 2.18992 3.11041 0
M  V30 1242 H 112.331 2.68937 4.20089 0
M  V30 1243 H 111.485 1.12464 5.96185 0
M  V30 1244 H 110.224 0.523015 4.84887 0
M  V30 1245 H 109.229 2.82412 4.71724 0
M  V30 1246 H 110.454 3.42398 5.86464 0
M  V30 1247 H 108.4 1.25468 6.4389 0
M  V30 1248 H 108.317 2.89832 6.98236 0
M  V30 1249 H 109.585 1.86385 7.56889 0
M  V30 1250 N 113.814 -1.1601 1.06675 0
M  V30 1251 C 114.761 -2.20525 0.680967 0
M  V30 1252 C 115.731 -1.62904 -0.324283 0
M  V30 1253 O 116.916 -1.89615 -0.212294 0
M  V30 1254 C 114.056 -3.45013 0.0776551 0
M  V30 1255 C 113.169 -4.16863 1.13355 0
M  V30 1256 C 112.304 -5.2888 0.49597 0
M  V30 1257 C 111.343 -5.92537 1.53513 0
M  V30 1258 N 110.48 -6.96038 0.920631 0
M  V30 1259 H 115.32 -2.52876 1.57663 0
M  V30 1260 H 112.857 -1.24199 0.788223 0
M  V30 1261 H 114.815 -4.16193 -0.289704 0
M  V30 1262 H 113.445 -3.132 -0.781393 0
M  V30 1263 H 112.497 -3.44248 1.61857 0
M  V30 1264 H 113.809 -4.60294 1.92174 0
M  V30 1265 H 112.963 -6.06653 0.0758604 0
M  V30 1266 H 111.702 -4.86622 -0.324062 0
M  V30 1267 H 110.707 -5.13482 1.9651 0
M  V30 1268 H 111.932 -6.36873 2.35733 0
M  V30 1269 H 109.878 -6.55888 0.12138 0
M  V30 1270 H 109.795 -7.3786 1.64616 0
M  V30 1271 H 111.063 -7.77725 0.525795 0
M  V30 1272 N 115.292 -0.849877 -1.32721 0
M  V30 1273 C 116.255 -0.296122 -2.27279 0
M  V30 1274 C 117.255 0.541458 -1.5141 0
M  V30 1275 O 118.445 0.353658 -1.70572 0
M  V30 1276 C 115.577 0.581579 -3.35902 0
M  V30 1277 H 116.77 -1.13064 -2.77771 0
M  V30 1278 H 114.323 -0.62383 -1.43311 0
M  V30 1279 H 115.058 1.43809 -2.9067 0
M  V30 1280 H 114.843 -0.0178814 -3.92096 0
M  V30 1281 H 116.333 0.961951 -4.0637 0
M  V30 1282 N 116.77 1.45427 -0.607355 0
M  V30 1283 C 118.018 2.01841 -0.102253 0
M  V30 1284 C 118.339 1.47832 1.27164 0
M  V30 1285 O 117.609 0.672497 1.83995 0
M  V30 1286 H 116.189 0.746188 -0.0348101 0
M  V30 1287 H 118.851 1.78229 -0.7887 0
M  V30 1288 H 117.947 3.12057 -0.0518585 0
M  V30 1289 N 118.248 0.346503 1.53744 0
M  V30 1290 C 119.476 -0.25041 2.05379 0
M  V30 1291 C 119.891 -1.43979 1.22129 0
M  V30 1292 O 119.248 -1.80677 0.257321 0
M  V30 1293 C 119.299 -0.662575 3.55376 0
M  V30 1294 O 119.02 0.479515 4.35468 0
M  V30 1295 C 120.521 -1.31989 4.23195 0
M  V30 1296 H 117.741 -0.0478198 0.669294 0
M  V30 1297 H 120.285 0.499346 1.9831 0
M  V30 1298 H 118.44 -1.36227 3.62658 0
M  V30 1299 H 118.854 0.15037 5.24284 0
M  V30 1300 H 120.328 -1.55902 5.29527 0
M  V30 1301 H 120.805 -2.27436 3.75725 0
M  V30 1302 H 121.411 -0.662154 4.20114 0
M  V30 1303 N 119.726 -1.57421 0.075193 0
M  V30 1304 C 120.636 -2.1642 -0.905511 0
M  V30 1305 C 121.652 -1.12828 -1.32461 0
M  V30 1306 O 122.828 -1.45109 -1.39661 0
M  V30 1307 C 119.893 -2.71693 -2.15369 0
M  V30 1308 C 118.954 -3.90171 -1.79068 0
M  V30 1309 C 118.187 -4.42798 -2.97936 0
M  V30 1310 O 118.41 -3.94416 -4.12058 0
M  V30 1311 O 117.344 -5.34085 -2.77555 0
M  V30 1312 H 121.17 -3.00588 -0.433626 0
M  V30 1313 H 118.755 -1.48664 -0.148067 0
M  V30 1314 H 120.637 -3.07104 -2.88557 0
M  V30 1315 H 119.312 -1.90582 -2.61649 0
M  V30 1316 H 118.219 -3.59606 -1.03122 0
M  V30 1317 H 119.552 -4.72584 -1.37569 0
M  V30 1318 N 121.204 0.198386 -1.56346 0
M  V30 1319 C 122.134 1.24865 -1.9731 0
M  V30 1320 C 123.115 1.47651 -0.844576 0
M  V30 1321 O 124.3 1.59444 -1.10866 0
M  V30 1322 C 121.43 2.59358 -2.30977 0
M  V30 1323 C 120.384 2.5119 -3.46537 0
M  V30 1324 C 119.71 3.89926 -3.65871 0
M  V30 1325 C 121.01 2.03977 -4.80823 0
M  V30 1326 H 122.704 0.908252 -2.85291 0
M  V30 1327 H 120.25 0.435462 -1.37258 0
M  V30 1328 H 122.203 3.33011 -2.58228 0
M  V30 1329 H 120.927 2.95132 -1.39874 0
M  V30 1330 H 119.586 1.79993 -3.19371 0
M  V30 1331 H 119.234 4.23046 -2.72105 0
M  V30 1332 H 118.934 3.85336 -4.4361 0
M  V30 1333 H 120.458 4.65205 -3.95495 0
M  V30 1334 H 121.872 2.67386 -5.07127 0
M  V30 1335 H 120.269 2.10397 -5.62008 0
M  V30 1336 H 121.339 0.992861 -4.74626 0
M  V30 1337 N 122.682 1.50554 0.465978 0
M  V30 1338 C 123.928 1.62038 1.21949 0
M  V30 1339 C 124.261 0.322116 1.9151 0
M  V30 1340 O 123.536 -0.676723 1.82348 0
M  V30 1341 C 123.819 2.80421 2.25912 0
M  V30 1342 C 123.672 4.20144 1.60622 0
M  V30 1343 C 124.991 2.94354 3.27176 0
M  V30 1344 H 122.11 0.589752 0.441998 0
M  V30 1345 H 124.752 1.82956 0.51257 0
M  V30 1346 H 122.902 2.62717 2.86203 0
M  V30 1347 H 124.574 4.49449 1.03889 0
M  V30 1348 H 122.817 4.24165 0.909211 0
M  V30 1349 H 123.488 4.98914 2.36196 0
M  V30 1350 H 125.964 3.10578 2.76913 0
M  V30 1351 H 124.84 3.788 3.97242 0
M  V30 1352 H 125.101 2.05186 3.916 0
M  V30 1353 N 124.16 -0.719506 1.40217 0
M  V30 1354 C 125.108 -1.85493 1.40339 0
M  V30 1355 C 126.102 -1.66995 0.284415 0
M  V30 1356 O 127.308 -1.74148 0.455252 0
M  V30 1357 H 123.683 -0.610857 0.438586 0
M  V30 1358 H 125.654 -1.82506 2.36081 0
M  V30 1359 C 124.403 -3.23321 1.27901 0
M  V30 1360 H 123.726 -3.38159 2.1328 0
M  V30 1361 H 125.166 -4.02914 1.32045 0
M  V30 1362 C 123.625 -3.36898 -0.0111355 0
M  V30 1363 O 124.155 -3.89674 -0.975538 0
M  V30 1364 N 122.361 -2.90492 -0.0793393 0
M  V30 1365 H 121.908 -2.47731 0.706183 0
M  V30 1366 H 121.866 -2.99955 -0.942038 0
M  V30 1367 N 125.638 -1.25649 -0.95132 0
M  V30 1368 C 126.885 -1.10594 -1.69633 0
M  V30 1369 C 127.213 0.352515 -1.91279 0
M  V30 1370 O 126.468 1.27601 -1.4838 0
M  V30 1371 C 126.767 -1.80909 -3.08231 0
M  V30 1372 C 126.433 -3.30825 -3.06375 0
M  V30 1373 C 125.095 -3.71722 -3.05576 0
M  V30 1374 C 127.447 -4.26589 -2.99452 0
M  V30 1375 C 124.775 -5.06788 -2.95606 0
M  V30 1376 C 127.127 -5.61683 -2.91024 0
M  V30 1377 C 125.791 -6.01904 -2.88562 0
M  V30 1378 H 125.061 -0.404691 -0.620731 0
M  V30 1379 H 127.708 -1.55964 -1.11119 0
M  V30 1380 H 126.013 -1.27979 -3.70309 0
M  V30 1381 H 127.71 -1.6671 -3.64704 0
M  V30 1382 H 124.3 -2.98287 -3.07771 0
M  V30 1383 H 128.484 -3.95982 -2.99185 0
M  V30 1384 H 123.74 -5.37126 -2.92071 0
M  V30 1385 H 127.914 -6.35578 -2.84629 0
M  V30 1386 H 125.541 -7.06521 -2.80593 0
M  V30 1387 N 127.117 1.15442 -1.07289 0
M  V30 1388 C 128.047 2.22312 -0.714107 0
M  V30 1389 C 129.028 1.67467 0.298155 0
M  V30 1390 O 130.213 1.93445 0.171048 0
M  V30 1391 C 127.343 3.47124 -0.110448 0
M  V30 1392 C 126.297 4.14926 -1.04979 0
M  V30 1393 C 125.623 5.33807 -0.308924 0
M  V30 1394 C 126.923 4.64762 -2.38314 0
M  V30 1395 H 128.617 2.5258 -1.6076 0
M  V30 1396 H 126.163 1.21404 -0.77441 0
M  V30 1397 H 128.116 4.21124 0.152482 0
M  V30 1398 H 126.84 3.16187 0.81812 0
M  V30 1399 H 125.499 3.42866 -1.29764 0
M  V30 1400 H 125.147 4.99126 0.623084 0
M  V30 1401 H 124.847 5.80113 -0.935036 0
M  V30 1402 H 126.371 6.10576 -0.0537771 0
M  V30 1403 H 127.785 5.30292 -2.1786 0
M  V30 1404 H 126.182 5.21728 -2.96514 0
M  V30 1405 H 127.252 3.80434 -3.00663 0
M  V30 1406 N 128.595 0.856903 1.32268 0
M  V30 1407 C 129.82 0.474569 2.01897 0
M  V30 1408 C 130.245 -0.921766 1.63967 0
M  V30 1409 O 129.603 -1.60589 0.84148 0
M  V30 1410 C 129.651 0.623799 3.55164 0
M  V30 1411 O 128.755 -0.342459 4.10976 0
M  V30 1412 H 128.096 0.190422 0.63611 0
M  V30 1413 H 130.626 1.15672 1.68764 0
M  V30 1414 H 130.636 0.512169 4.04773 0
M  V30 1415 H 129.311 1.64202 3.82113 0
M  V30 1416 H 127.888 -0.18688 3.72431 0
M  V30 1417 N 130.073 -1.45103 0.615059 0
M  V30 1418 C 131.303 -2.06254 0.119596 0
M  V30 1419 C 131.711 -1.4591 -1.20445 0
M  V30 1420 O 131.054 -0.570384 -1.7462 0
M  V30 1421 C 131.116 -3.59396 -0.0865591 0
M  V30 1422 C 130.78 -4.42116 1.15683 0
M  V30 1423 C 131.777 -4.7662 2.07676 0
M  V30 1424 C 129.462 -4.82749 1.38775 0
M  V30 1425 C 131.456 -5.50622 3.21082 0
M  V30 1426 C 129.143 -5.56504 2.52481 0
M  V30 1427 C 130.141 -5.90358 3.43463 0
M  V30 1428 O 129.829 -6.62615 4.55189 0
M  V30 1429 H 129.561 -0.672423 0.0694512 0
M  V30 1430 H 132.115 -1.87219 0.844885 0
M  V30 1431 H 130.345 -3.76859 -0.866823 0
M  V30 1432 H 132.034 -4.02365 -0.534555 0
M  V30 1433 H 132.8 -4.4578 1.91063 0
M  V30 1434 H 128.679 -4.55829 0.688545 0
M  V30 1435 H 132.223 -5.76965 3.92119 0
M  V30 1436 H 128.12 -5.86759 2.69043 0
M  V30 1437 H 128.888 -6.81071 4.53966 0
M  V30 1438 N 131.551 -0.354651 -1.53558 0
M  V30 1439 C 132.798 0.238443 -2.01091 0
M  V30 1440 C 133.126 1.49663 -1.24222 0
M  V30 1441 O 132.381 1.93049 -0.321003 0
M  V30 1442 C 132.68 0.587121 -3.52545 0
M  V30 1443 C 132.346 -0.575472 -4.47213 0
M  V30 1444 C 131.008 -0.894497 -4.72813 0
M  V30 1445 C 133.36 -1.35489 -5.03281 0
M  V30 1446 C 130.688 -1.99511 -5.51736 0
M  V30 1447 C 133.04 -2.44583 -5.83405 0
M  V30 1448 C 131.704 -2.77033 -6.07296 0
M  V30 1449 H 130.974 0.0872526 -0.735845 0
M  V30 1450 H 133.621 -0.484859 -1.8526 0
M  V30 1451 H 131.926 1.39129 -3.66265 0
M  V30 1452 H 133.623 1.05809 -3.86789 0
M  V30 1453 H 130.213 -0.316774 -4.27428 0
M  V30 1454 H 134.397 -1.12167 -4.83459 0
M  V30 1455 H 129.653 -2.25063 -5.68469 0
M  V30 1456 H 133.827 -3.05401 -6.25862 0
M  V30 1457 H 131.454 -3.6244 -6.68237 0
M  V30 1458 N 133.029 1.57378 -0.0835403 0
M  V30 1459 C 134.275 1.94217 0.583733 0
M  V30 1460 C 134.608 0.964653 1.68547 0
M  V30 1461 O 133.883 -0.00422258 1.945 0
M  V30 1462 C 134.166 3.41253 1.14972 0
M  V30 1463 C 134.019 4.49768 0.0538277 0
M  V30 1464 C 135.338 3.89352 2.05166 0
M  V30 1465 H 132.457 0.706233 0.210724 0
M  V30 1466 H 135.099 1.89392 -0.1519 0
M  V30 1467 H 133.249 3.45496 1.77665 0
M  V30 1468 H 134.921 4.57641 -0.579851 0
M  V30 1469 H 133.164 4.29432 -0.614068 0
M  V30 1470 H 133.835 5.49817 0.490452 0
M  V30 1471 H 136.311 3.87189 1.52393 0
M  V30 1472 H 135.187 4.92822 2.41698 0
M  V30 1473 H 135.448 3.27973 2.96456 0
M  V30 1474 N 134.507 -0.190092 1.56449 0
M  V30 1475 C 135.417 -1.25591 1.98152 0
M  V30 1476 C 136.433 -1.49519 0.889944 0
M  V30 1477 O 137.609 -1.62036 1.19609 0
M  V30 1478 C 134.674 -2.57916 2.3169 0
M  V30 1479 C 133.735 -2.42015 3.5458 0
M  V30 1480 C 132.968 -3.6803 3.8651 0
M  V30 1481 O 133.191 -4.72413 3.1966 0
M  V30 1482 O 132.125 -3.6326 4.79923 0
M  V30 1483 H 135.951 -0.931988 2.89046 0
M  V30 1484 H 133.536 -0.395488 1.4407 0
M  V30 1485 H 135.418 -3.36008 2.54316 0
M  V30 1486 H 134.093 -2.89925 1.43963 0
M  V30 1487 H 133 -1.62017 3.37196 0
M  V30 1488 H 134.333 -2.14937 4.4279 0
M  V30 1489 N 135.985 -1.50799 -0.457987 0
M  V30 1490 C 136.915 -1.73553 -1.5621 0
M  V30 1491 C 137.896 -0.584774 -1.59732 0
M  V30 1492 O 139.081 -0.825314 -1.7579 0
M  V30 1493 C 136.211 -1.84169 -2.94447 0
M  V30 1494 C 135.165 -2.99461 -3.0579 0
M  V30 1495 C 134.491 -2.95235 -4.45803 0
M  V30 1496 C 135.791 -4.39766 -2.81786 0
M  V30 1497 H 137.485 -2.66 -1.37421 0
M  V30 1498 H 135.031 -1.28002 -0.659662 0
M  V30 1499 H 136.984 -1.98672 -3.71628 0
M  V30 1500 H 135.708 -0.883545 -3.14422 0
M  V30 1501 H 134.367 -2.8463 -2.31044 0
M  V30 1502 H 134.015 -1.97239 -4.62715 0
M  V30 1503 H 133.715 -3.72642 -4.54326 0
M  V30 1504 H 135.239 -3.11803 -5.24987 0
M  V30 1505 H 136.653 -4.55054 -3.4871 0
M  V30 1506 H 135.05 -5.18722 -3.0174 0
M  V30 1507 H 136.12 -4.51229 -1.7754 0
M  V30 1508 N 137.463 0.71206 -1.40597 0
M  V30 1509 C 138.711 1.46907 -1.38791 0
M  V30 1510 C 139.032 1.94998 0.00780391 0
M  V30 1511 O 138.302 1.70587 0.963174 0
M  V30 1512 H 136.882 0.545043 -0.51082 0
M  V30 1513 H 139.544 0.843882 -1.75683 0
M  V30 1514 H 138.64 2.34021 -2.06496 0
M  V30 1515 N 138.941 1.26152 0.944643 0
M  V30 1516 C 140.169 1.14259 1.72489 0
M  V30 1517 C 140.584 -0.302555 1.8636 0
M  V30 1518 O 139.941 -1.20741 1.36849 0
M  V30 1519 C 139.992 1.80266 3.13347 0
M  V30 1520 O 139.713 3.19133 3.00143 0
M  V30 1521 C 141.214 1.74283 4.07603 0
M  V30 1522 H 138.434 0.398051 0.540181 0
M  V30 1523 H 140.978 1.66706 1.18446 0
M  V30 1524 H 139.133 1.31766 3.64303 0
M  V30 1525 H 139.547 3.51744 3.89071 0
M  V30 1526 H 141.021 2.25111 5.04013 0
M  V30 1527 H 141.498 0.708631 4.33446 0
M  V30 1528 H 142.104 2.22319 3.62567 0
M  V30 1529 N 140.419 -1.14872 1.07899 0
M  V30 1530 C 141.351 -2.19425 0.662231 0
M  V30 1531 C 142.364 -1.60231 -0.288079 0
M  V30 1532 O 143.553 -1.78336 -0.076534 0
M  V30 1533 C 140.653 -3.38867 -0.0470695 0
M  V30 1534 C 139.826 -4.27597 0.920831 0
M  V30 1535 C 138.885 -5.25616 0.247805 0
M  V30 1536 O 137.911 -5.62189 0.890599 0
M  V30 1537 N 139.113 -5.71746 -1.00435 0
M  V30 1538 H 141.878 -2.55797 1.56166 0
M  V30 1539 H 139.439 -1.30042 0.964404 0
M  V30 1540 H 141.431 -4.01497 -0.50813 0
M  V30 1541 H 140.001 -3.00864 -0.848523 0
M  V30 1542 H 139.221 -3.61982 1.56087 0
M  V30 1543 H 140.509 -4.83748 1.57688 0
M  V30 1544 H 139.907 -5.44153 -1.54642 0
M  V30 1545 H 138.464 -6.36389 -1.40899 0
M  V30 1546 N 141.898 -0.863906 -1.31812 0
M  V30 1547 C 143.309 -0.52522 -1.7916 0
M  V30 1548 C 143.66 0.957518 -1.71248 0
M  V30 1549 O 142.785 1.74734 -1.27659 0
M  V30 1550 C 143.38 -0.9466 -3.25307 0
M  V30 1551 C 141.939 -0.659668 -3.70574 0
M  V30 1552 C 141.086 -1.14126 -2.52726 0
M  V30 1553 H 144.037 -1.05022 -1.1898 0
M  V30 1554 H 144.058 -0.266766 -3.79564 0
M  V30 1555 H 143.57 -2.02579 -3.31034 0
M  V30 1556 H 141.671 0.408416 -3.70355 0
M  V30 1557 H 141.784 -1.23245 -4.62977 0
M  V30 1558 H 140.148 -0.561216 -2.4844 0
M  V30 1559 H 140.931 -2.22775 -2.61201 0
M  V30 1560 N 143.376 1.44774 -0.622745 0
M  V30 1561 C 144.339 2.29069 0.0774015 0
M  V30 1562 C 145.339 1.4059 0.780461 0
M  V30 1563 O 146.529 1.62551 0.626322 0
M  V30 1564 C 143.661 3.21974 1.12006 0
M  V30 1565 H 144.854 2.92459 -0.663901 0
M  V30 1566 H 142.407 1.51548 -0.382486 0
M  V30 1567 H 143.142 2.63417 1.89162 0
M  V30 1568 H 142.927 3.87168 0.619951 0
M  V30 1569 H 144.417 3.85318 1.60995 0
M  V30 1570 N 144.854 0.36279 1.53368 0
M  V30 1571 C 146.082 -0.228613 2.05633 0
M  V30 1572 C 146.497 -1.42676 1.23649 0
M  V30 1573 O 145.854 -1.80394 0.27647 0
M  V30 1574 C 145.905 -0.624845 3.56059 0
M  V30 1575 O 145.626 0.525675 4.34935 0
M  V30 1576 C 147.127 -1.27493 4.24571 0
M  V30 1577 H 144.347 -0.0407183 0.669763 0
M  V30 1578 H 146.891 0.520352 1.97769 0
M  V30 1579 H 145.046 -1.32373 3.64083 0
M  V30 1580 H 145.46 0.205969 5.24095 0
M  V30 1581 H 146.934 -1.50277 5.31151 0
M  V30 1582 H 147.411 -2.23439 3.78116 0
M  V30 1583 H 148.017 -0.617558 4.20792 0
M  V30 1584 N 146.332 -1.57332 0.0918853 0
M  V30 1585 C 147.264 -2.10869 -0.898168 0
M  V30 1586 C 148.277 -1.04521 -1.24817 0
M  V30 1587 O 149.466 -1.31977 -1.20184 0
M  V30 1588 C 146.566 -2.57083 -2.2082 0
M  V30 1589 C 145.739 -3.87229 -2.03402 0
M  V30 1590 C 144.798 -4.19324 -3.17889 0
M  V30 1591 O 143.824 -4.88598 -2.91994 0
M  V30 1592 N 145.026 -3.74471 -4.43567 0
M  V30 1593 H 147.791 -2.96439 -0.440943 0
M  V30 1594 H 145.352 -1.61631 -0.0933064 0
M  V30 1595 H 147.344 -2.75602 -2.96354 0
M  V30 1596 H 145.914 -1.76541 -2.57977 0
M  V30 1597 H 145.134 -3.7789 -1.12218 0
M  V30 1598 H 146.422 -4.72379 -1.89038 0
M  V30 1599 H 145.82 -3.18546 -4.67488 0
M  V30 1600 H 144.377 -3.98151 -5.16061 0
M  V30 1601 O 147.849 0.0482292 -1.61428 0
M  V30 1602 H 148.54 0.671226 -1.81698 0
M  V30 END ATOM
M  V30 BEGIN BOND
M  V30 END BOND
M  V30 END CTAB
M  END
$$$$
