drugbank_target|P02655 Apolipoprotein C-II (DB09130)
 OpenBabel12092121053D

  0  0  0     0  0            999 V3000
M  V30 BEGIN CTAB
M  V30 COUNTS 1591 1606 0 0 0
M  V30 BEGIN ATOM
M  V30 1 H -0.908 1.98254 -0.117106 0
M  V30 2 N 0 1.576 0 0
M  V30 3 C 0.933 2.03868 1.02534 0
M  V30 4 C 1.911 0.928543 1.3348 0
M  V30 5 O 3.095 1.19667 1.45644 0
M  V30 6 C 0.222 2.43627 2.35294 0
M  V30 7 C -0.732 3.65373 2.2001 0
M  V30 8 S 0.101 5.13292 1.52614 0
M  V30 9 C 1.257 5.56322 2.86805 0
M  V30 10 H 1.49 2.90518 0.631377 0
M  V30 11 H -0.977 1.52953 0.210867 0
M  V30 12 H 0.981 2.67203 3.11629 0
M  V30 13 H -0.358 1.57376 2.7183 0
M  V30 14 H -1.165 3.90944 3.18086 0
M  V30 15 H -1.563 3.418 1.51819 0
M  V30 16 H 0.729 5.58782 3.83104 0
M  V30 17 H 1.672 6.56266 2.65933 0
M  V30 18 H 2.08 4.83886 2.90714 0
M  V30 19 N 1.4781 -0.272755 1.55222 0
M  V30 20 C 2.7261 -1.00234 1.75492 0
M  V30 21 C 3.0471 -1.8681 0.5592 0
M  V30 22 O 2.3171 -1.91215 -0.425882 0
M  V30 23 H 0.8971 -0.373076 0.647166 0
M  V30 24 H 3.5591 -0.296926 1.92625 0
M  V30 25 H 2.6551 -1.63913 2.65592 0
M  V30 26 N 2.9562 -1.48159 -0.537278 0
M  V30 27 C 4.1842 -1.59454 -1.31841 0
M  V30 28 C 4.5992 -0.252065 -1.8711 0
M  V30 29 O 3.9562 0.757621 -1.66031 0
M  V30 30 C 4.0072 -2.63546 -2.47439 0
M  V30 31 O 3.7282 -3.92583 -1.94449 0
M  V30 32 C 5.2292 -2.85212 -3.39366 0
M  V30 33 H 2.4492 -0.53785 -0.401196 0
M  V30 34 H 4.9932 -1.93932 -0.648891 0
M  V30 35 H 3.1482 -2.31946 -3.1029 0
M  V30 36 H 3.5622 -4.49629 -2.70063 0
M  V30 37 H 5.0362 -3.61863 -4.16844 0
M  V30 38 H 5.5132 -1.93765 -3.94147 0
M  V30 39 H 6.1192 -3.18086 -2.82314 0
M  V30 40 N 4.4343 0.785586 -1.36625 0
M  V30 41 C 5.8503 1.08419 -1.17122 0
M  V30 42 C 6.0503 2.015 0.00208491 0
M  V30 43 O 5.1063 2.43551 0.666278 0
M  V30 44 C 6.4193 1.69498 -2.48377 0
M  V30 45 C 7.9673 1.81821 -2.54775 0
M  V30 46 C 8.4423 2.46315 -3.86126 0
M  V30 47 N 9.9333 2.53779 -3.87492 0
M  V30 48 C 10.6683 3.045 -4.85868 0
M  V30 49 N 10.1643 3.55499 -5.94637 0
M  V30 50 N 11.9573 3.03247 -4.73284 0
M  V30 51 H 4.1083 0.167264 -2.1174 0
M  V30 52 H 6.3713 0.13682 -0.938075 0
M  V30 53 H 6.0773 1.08571 -3.34522 0
M  V30 54 H 5.9513 2.6896 -2.64462 0
M  V30 55 H 8.3383 2.41884 -1.69045 0
M  V30 56 H 8.4193 0.811532 -2.42586 0
M  V30 57 H 8.0633 1.86895 -4.72263 0
M  V30 58 H 7.9933 3.47561 -3.95612 0
M  V30 59 H 10.4843 2.17672 -3.08913 0
M  V30 60 H 10.7973 3.92562 -6.65669 0
M  V30 61 H 9.1423 3.5364 -5.98301 0
M  V30 62 H 12.3333 2.62696 -3.87438 0
M  V30 63 H 12.5063 3.42467 -5.50109 0
M  V30 64 N 5.9124 1.20967 1.01018 0
M  V30 65 C 6.8424 0.988272 2.11555 0
M  V30 66 C 7.8234 -0.0849778 1.69888 0
M  V30 67 O 9.0084 0.0738202 1.9406 0
M  V30 68 C 6.1384 0.546528 3.42973 0
M  V30 69 C 5.0924 1.56375 3.9841 0
M  V30 70 C 4.4184 0.97842 5.25672 0
M  V30 71 C 5.7184 2.94922 4.31066 0
M  V30 72 H 7.4124 1.91276 2.30334 0
M  V30 73 H 4.9584 0.921073 1.1069 0
M  V30 74 H 6.9114 0.378839 4.19694 0
M  V30 75 H 5.6354 -0.413598 3.23971 0
M  V30 76 H 4.2944 1.71891 3.23804 0
M  V30 77 H 3.9424 0.0101688 5.02999 0
M  V30 78 H 3.6424 1.65784 5.63728 0
M  V30 79 H 5.1664 0.821939 6.05043 0
M  V30 80 H 6.5804 2.8288 4.9865 0
M  V30 81 H 4.9774 3.5983 4.80253 0
M  V30 82 H 6.0474 3.4616 3.39561 0
M  V30 83 N 7.3905 -1.2043 1.01659 0
M  V30 84 C 8.3205 -2.25466 0.607226 0
M  V30 85 C 9.3015 -1.65853 -0.377716 0
M  V30 86 O 10.4865 -1.92409 -0.263149 0
M  V30 87 C 7.6165 -3.47256 -0.0552949 0
M  V30 88 C 6.5705 -4.19462 0.850632 0
M  V30 89 C 5.8965 -5.34673 0.0538859 0
M  V30 90 C 7.1965 -4.75603 2.15868 0
M  V30 91 H 8.8905 -2.59962 1.48526 0
M  V30 92 H 6.4365 -1.2496 0.715605 0
M  V30 93 H 8.3895 -4.19917 -0.353233 0
M  V30 94 H 7.1135 -3.11924 -0.968045 0
M  V30 95 H 5.7725 -3.48667 1.13257 0
M  V30 96 H 5.4205 -4.95585 -0.860514 0
M  V30 97 H 5.1205 -5.83913 0.657192 0
M  V30 98 H 6.6445 -6.10138 -0.237598 0
M  V30 99 H 8.0585 -5.40083 1.92311 0
M  V30 100 H 6.4555 -5.3528 2.71284 0
M  V30 101 H 7.5255 -3.94346 2.82169 0
M  V30 102 N 8.8686 -0.792821 -1.36206 0
M  V30 103 C 10.2796 -0.429513 -1.81692 0
M  V30 104 C 10.6306 1.04695 -1.65932 0
M  V30 105 O 9.7556 1.81256 -1.18218 0
M  V30 106 C 10.3506 -0.772831 -3.29868 0
M  V30 107 C 8.9096 -0.462307 -3.7355 0
M  V30 108 C 8.0566 -1.00569 -2.5842 0
M  V30 109 H 11.0076 -0.985672 -1.24379 0
M  V30 110 H 11.0286 -0.0651928 -3.80444 0
M  V30 111 H 10.5406 -1.84747 -3.41307 0
M  V30 112 H 8.6416 0.604158 -3.67669 0
M  V30 113 H 8.7546 -0.985299 -4.68859 0
M  V30 114 H 7.1186 -0.428734 -2.51066 0
M  V30 115 H 7.9016 -2.08616 -2.72643 0
M  V30 116 N 10.3467 1.47872 -0.545128 0
M  V30 117 C 11.3097 2.28337 0.198717 0
M  V30 118 C 12.3097 1.36255 0.853888 0
M  V30 119 O 13.4997 1.59003 0.711606 0
M  V30 120 C 10.6317 3.15585 1.28915 0
M  V30 121 H 11.8247 2.95567 -0.507941 0
M  V30 122 H 9.3777 1.53362 -0.301616 0
M  V30 123 H 10.1127 2.53019 2.02859 0
M  V30 124 H 9.8977 3.83337 0.824309 0
M  V30 125 H 11.3877 3.76243 1.81194 0
M  V30 126 N 11.8248 0.280983 1.55075 0
M  V30 127 C 12.7548 -0.597469 2.25727 0
M  V30 128 C 13.7358 -1.15417 1.24952 0
M  V30 129 O 14.9208 -1.18722 1.53684 0
M  V30 130 C 12.0508 -1.7789 2.98283 0
M  V30 131 C 11.0048 -1.35347 4.06036 0
M  V30 132 C 10.3308 -2.61846 4.66198 0
M  V30 133 C 11.6308 -0.499354 5.19907 0
M  V30 134 H 13.3248 -0.00824265 2.99399 0
M  V30 135 H 10.8708 -0.0025244 1.44 0
M  V30 136 H 12.8238 -2.39937 3.46422 0
M  V30 137 H 11.5478 -2.39405 2.22155 0
M  V30 138 H 10.2068 -0.756156 3.58717 0
M  V30 139 H 9.8548 -3.21632 3.86732 0
M  V30 140 H 9.5548 -2.3409 5.38958 0
M  V30 141 H 11.0788 -3.24732 5.1709 0
M  V30 142 H 12.4928 -1.02498 5.64063 0
M  V30 143 H 10.8898 -0.316424 5.99265 0
M  V30 144 H 11.9598 0.480459 4.82514 0
M  V30 145 N 13.3029 -1.57598 0.00835791 0
M  V30 146 C 14.5499 -1.90928 -0.674732 0
M  V30 147 C 14.8779 -0.88277 -1.73313 0
M  V30 148 O 14.1329 0.111294 -1.95383 0
M  V30 149 C 14.4319 -3.3101 -1.34787 0
M  V30 150 C 14.0979 -4.48922 -0.421861 0
M  V30 151 C 12.7599 -4.8091 -0.166927 0
M  V30 152 C 15.1119 -5.20755 0.215211 0
M  V30 153 C 12.4399 -5.821 0.733232 0
M  V30 154 C 14.7919 -6.22905 1.1033 0
M  V30 155 C 13.4559 -6.53346 1.36733 0
M  V30 156 H 12.7259 -0.698656 -0.246902 0
M  V30 157 H 15.3729 -1.91387 0.0656779 0
M  V30 158 H 13.6779 -3.26714 -2.16253 0
M  V30 159 H 15.3749 -3.54061 -1.8826 0
M  V30 160 H 11.9649 -4.23934 -0.630729 0
M  V30 161 H 16.1489 -4.9629 0.0312829 0
M  V30 162 H 11.4049 -6.04042 0.945712 0
M  V30 163 H 15.5789 -6.77694 1.60325 0
M  V30 164 H 13.2059 -7.31573 2.06652 0
M  V30 165 N 14.781 0.264519 -1.55364 0
M  V30 166 C 15.711 1.33121 -1.91836 0
M  V30 167 C 16.692 1.51101 -0.781192 0
M  V30 168 O 17.877 1.64003 -1.04003 0
M  V30 169 C 15.007 2.68921 -2.19769 0
M  V30 170 C 13.961 2.65661 -3.35571 0
M  V30 171 C 13.287 4.05093 -3.49004 0
M  V30 172 C 14.587 2.24187 -4.71739 0
M  V30 173 H 16.281 1.02844 -2.81182 0
M  V30 174 H 13.827 0.493286 -1.35287 0
M  V30 175 H 15.78 3.43663 -2.43872 0
M  V30 176 H 14.504 3.00799 -1.27231 0
M  V30 177 H 13.163 1.93377 -3.1145 0
M  V30 178 H 12.811 4.34206 -2.53917 0
M  V30 179 H 12.511 4.03804 -4.26868 0
M  V30 180 H 14.035 4.81561 -3.75408 0
M  V30 181 H 15.449 2.88654 -4.9533 0
M  V30 182 H 13.846 2.34044 -5.52579 0
M  V30 183 H 14.916 1.19327 -4.69988 0
M  V30 184 N 16.2591 1.48442 0.529413 0
M  V30 185 C 17.5051 1.5672 1.28711 0
M  V30 186 C 17.8381 0.2406 1.92704 0
M  V30 187 O 17.1131 -0.753454 1.79313 0
M  V30 188 C 17.3961 2.70587 2.37603 0
M  V30 189 C 17.2491 4.12953 1.78297 0
M  V30 190 C 18.5681 2.80212 3.39366 0
M  V30 191 H 15.6871 0.570474 0.466613 0
M  V30 192 H 18.3291 1.80617 0.589706 0
M  V30 193 H 16.4791 2.50342 2.97088 0
M  V30 194 H 18.1511 4.44639 1.22858 0
M  V30 195 H 16.3941 4.19927 1.0883 0
M  V30 196 H 17.0651 4.88448 2.57144 0
M  V30 197 H 19.5411 2.98553 2.89836 0
M  V30 198 H 18.4171 3.61611 4.12951 0
M  V30 199 H 18.6781 1.88393 3.99951 0
M  V30 200 N 17.7372 -0.778329 1.37039 0
M  V30 201 C 18.6672 -1.90546 1.34962 0
M  V30 202 C 19.6482 -1.68681 0.219274 0
M  V30 203 O 20.8332 -1.89634 0.418624 0
M  V30 204 C 17.9632 -3.27734 1.14925 0
M  V30 205 C 16.9172 -3.64147 2.24902 0
M  V30 206 C 16.2432 -4.99806 1.89996 0
M  V30 207 C 17.5432 -3.71579 3.67051 0
M  V30 208 H 19.2372 -1.92541 2.29277 0
M  V30 209 H 16.7832 -0.924948 1.10366 0
M  V30 210 H 18.7362 -4.06215 1.12104 0
M  V30 211 H 17.4602 -3.26154 0.170631 0
M  V30 212 H 16.1192 -2.8797 2.26868 0
M  V30 213 H 15.7672 -4.94759 0.906796 0
M  V30 214 H 15.4672 -5.25139 2.63634 0
M  V30 215 H 16.9912 -5.80694 1.88749 0
M  V30 216 H 18.4052 -4.40227 3.67251 0
M  V30 217 H 16.8022 -4.08405 4.39688 0
M  V30 218 H 17.8722 -2.72404 4.01154 0
M  V30 219 N 19.2153 -1.21501 -1.00376 0
M  V30 220 C 20.1453 -0.999478 -2.11028 0
M  V30 221 C 21.1263 0.0759671 -1.6993 0
M  V30 222 O 22.3113 -0.0841106 -1.94018 0
M  V30 223 C 19.4413 -0.564709 -3.42678 0
M  V30 224 C 18.3953 -1.58486 -3.97576 0
M  V30 225 C 17.7213 -1.00628 -5.25146 0
M  V30 226 C 19.0213 -2.97204 -4.29496 0
M  V30 227 H 20.7153 -1.92495 -2.29317 0
M  V30 228 H 18.2613 -0.92693 -1.102 0
M  V30 229 H 20.2143 -0.401091 -4.19487 0
M  V30 230 H 18.9383 0.396411 -3.24185 0
M  V30 231 H 17.5973 -1.73606 -3.22888 0
M  V30 232 H 17.2453 -0.0368439 -5.02987 0
M  V30 233 H 16.9453 -1.68771 -5.62841 0
M  V30 234 H 18.4693 -0.854015 -6.04598 0
M  V30 235 H 19.8833 -2.8552 -4.97143 0
M  V30 236 H 18.2803 -3.62372 -4.78338 0
M  V30 237 H 19.3503 -3.47956 -3.3772 0
M  V30 238 N 20.6934 1.19889 -1.02296 0
M  V30 239 C 21.9394 1.89701 -0.717033 0
M  V30 240 C 22.2724 1.7905 0.751989 0
M  V30 241 O 21.5474 1.17891 1.547 0
M  V30 242 C 21.8304 3.40858 -1.16136 0
M  V30 243 C 21.6834 3.60411 -2.69117 0
M  V30 244 C 23.0024 4.33876 -0.737549 0
M  V30 245 H 20.1214 0.688874 -0.261957 0
M  V30 246 H 22.7634 1.41154 -1.27183 0
M  V30 247 H 20.9134 3.82335 -0.689342 0
M  V30 248 H 22.5854 3.28145 -3.2422 0
M  V30 249 H 20.8284 3.03665 -3.0979 0
M  V30 250 H 21.4994 4.66396 -2.95261 0
M  V30 251 H 23.9754 4.00081 -1.14344 0
M  V30 252 H 22.8514 5.38242 -1.0764 0
M  V30 253 H 23.1124 4.40628 0.360436 0
M  V30 254 N 22.1715 0.800033 1.35784 0
M  V30 255 C 23.1015 0.220184 2.3246 0
M  V30 256 C 24.0825 -0.65073 1.57161 0
M  V30 257 O 25.2675 -0.582359 1.85263 0
M  V30 258 C 22.3975 -0.637353 3.41402 0
M  V30 259 C 21.3515 0.134531 4.27789 0
M  V30 260 C 20.6775 -0.844285 5.27992 0
M  V30 261 C 21.9775 1.32979 5.05088 0
M  V30 262 H 23.6715 1.02787 2.81203 0
M  V30 263 H 21.2175 0.495717 1.35199 0
M  V30 264 H 23.1705 -1.05302 4.08031 0
M  V30 265 H 21.8945 -1.47785 2.91251 0
M  V30 266 H 20.5535 0.531296 3.6273 0
M  V30 267 H 20.2015 -1.68011 4.74111 0
M  V30 268 H 19.9015 -0.332184 5.8666 0
M  V30 269 H 21.4255 -1.2583 5.97494 0
M  V30 270 H 22.8395 0.98934 5.64699 0
M  V30 271 H 21.2365 1.77593 5.7322 0
M  V30 272 H 22.3065 2.11978 4.36111 0
M  V30 273 N 23.6496 -1.47581 0.552962 0
M  V30 274 C 24.8976 -2.02082 0.0272703 0
M  V30 275 C 25.2186 -1.4301 -1.32563 0
M  V30 276 O 24.4886 -0.603745 -1.86365 0
M  V30 277 H 23.0686 -0.746966 0.00709182 0
M  V30 278 H 25.7306 -1.81033 0.722008 0
M  V30 279 H 24.8266 -3.12034 -0.0639951 0
M  V30 280 N 25.1277 -0.289203 -1.54924 0
M  V30 281 C 26.3747 0.323519 -1.99899 0
M  V30 282 C 26.7027 1.54797 -1.17762 0
M  V30 283 O 25.9577 1.94237 -0.238835 0
M  V30 284 C 26.2567 0.736119 -3.49737 0
M  V30 285 C 25.9227 -0.385276 -4.49251 0
M  V30 286 C 24.5847 -0.693156 -4.76181 0
M  V30 287 C 26.9367 -1.14021 -5.08575 0
M  V30 288 C 24.2647 -1.7593 -5.59701 0
M  V30 289 C 26.6167 -2.19619 -5.93254 0
M  V30 290 C 25.2807 -2.51026 -6.185 0
M  V30 291 H 24.5507 0.118384 -0.731482 0
M  V30 292 H 27.1977 -0.405847 -1.8715 0
M  V30 293 H 25.5027 1.54539 -3.60035 0
M  V30 294 H 27.1997 1.22118 -3.81953 0
M  V30 295 H 23.7897 -0.135202 -4.28387 0
M  V30 296 H 27.9737 -0.915611 -4.87781 0
M  V30 297 H 23.2297 -2.0075 -5.77503 0
M  V30 298 H 27.4037 -2.78581 -6.38252 0
M  V30 299 H 25.0307 -3.33772 -6.83008 0
M  V30 300 N 26.6058 1.57591 -0.0167156 0
M  V30 301 C 27.5158 2.1291 0.98521 0
M  V30 302 C 28.5318 1.07834 1.36557 0
M  V30 303 O 29.7078 1.39826 1.44951 0
M  V30 304 C 26.7728 2.63512 2.25305 0
M  V30 305 C 25.8338 3.83256 1.93426 0
M  V30 306 C 25.0668 4.31435 3.14165 0
M  V30 307 O 25.2898 3.78851 4.26413 0
M  V30 308 O 24.2238 5.23416 2.97186 0
M  V30 309 H 28.0498 2.98772 0.544888 0
M  V30 310 H 25.6348 1.48012 0.203141 0
M  V30 311 H 27.5168 2.96183 2.99756 0
M  V30 312 H 26.1918 1.8074 2.68542 0
M  V30 313 H 25.0988 3.55531 1.16398 0
M  V30 314 H 26.4318 4.67153 1.55013 0
M  V30 315 N 28.0839 -0.256276 1.55502 0
M  V30 316 C 29.3299 -0.987079 1.77157 0
M  V30 317 C 29.6629 -1.85327 0.580315 0
M  V30 318 O 28.9379 -1.89874 -0.421686 0
M  V30 319 C 29.2209 -1.85553 3.08613 0
M  V30 320 C 29.0739 -1.01816 4.38125 0
M  V30 321 C 30.3929 -2.8397 3.36228 0
M  V30 322 H 27.5119 -0.357428 0.644526 0
M  V30 323 H 30.1539 -0.258239 1.88237 0
M  V30 324 H 28.3039 -2.47695 2.99298 0
M  V30 325 H 29.9759 -0.416159 4.59419 0
M  V30 326 H 28.2189 -0.322178 4.32602 0
M  V30 327 H 28.8899 -1.65939 5.26468 0
M  V30 328 H 31.3659 -2.31964 3.45445 0
M  V30 329 H 30.2419 -3.41864 4.29442 0
M  V30 330 H 30.5029 -3.59955 2.56681 0
M  V30 331 N 29.562 -1.4872 -0.521534 0
M  V30 332 C 30.494 -1.59968 -1.64143 0
M  V30 333 C 31.507 -0.483463 -1.55456 0
M  V30 334 O 32.696 -0.75467 -1.61762 0
M  V30 335 C 29.796 -1.52127 -3.02838 0
M  V30 336 C 28.969 -2.78932 -3.36921 0
M  V30 337 C 28.028 -2.64428 -4.54933 0
M  V30 338 O 27.054 -3.38331 -4.57735 0
M  V30 339 N 28.256 -1.74606 -5.53618 0
M  V30 340 H 31.021 -2.56548 -1.54929 0
M  V30 341 H 28.582 -1.45551 -0.708988 0
M  V30 342 H 30.574 -1.40106 -3.79674 0
M  V30 343 H 29.144 -0.634868 -3.06085 0
M  V30 344 H 28.364 -3.05455 -2.4918 0
M  V30 345 H 29.652 -3.63041 -3.56481 0
M  V30 346 H 29.05 -1.13782 -5.54139 0
M  V30 347 H 27.607 -1.6852 -6.29638 0
M  V30 348 N 31.0401 0.771051 -1.3745 0
M  V30 349 C 32.2881 1.52661 -1.32435 0
M  V30 350 C 32.6091 1.9479 0.0905024 0
M  V30 351 O 31.8791 1.66348 1.03466 0
M  V30 352 H 30.4591 0.566218 -0.487244 0
M  V30 353 H 33.1211 0.917636 -1.71946 0
M  V30 354 H 32.2171 2.42568 -1.96385 0
M  V30 355 N 32.5182 1.22032 0.997298 0
M  V30 356 C 33.7462 1.06841 1.7718 0
M  V30 357 C 34.1612 -0.381325 1.84909 0
M  V30 358 O 33.5182 -1.26437 1.31605 0
M  V30 359 C 33.5692 1.66814 3.20711 0
M  V30 360 O 33.2902 3.06116 3.13408 0
M  V30 361 C 34.7912 1.56838 4.14628 0
M  V30 362 H 32.0112 0.374782 0.556578 0
M  V30 363 H 34.5552 1.61532 1.2541 0
M  V30 364 H 32.7102 1.16196 3.69564 0
M  V30 365 H 33.1242 3.34926 4.0364 0
M  V30 366 H 34.5982 2.03532 5.13107 0
M  V30 367 H 35.0752 0.524155 4.36061 0
M  V30 368 H 35.6812 2.06741 3.7167 0
M  V30 369 N 33.9963 -1.19345 1.0293 0
M  V30 370 C 34.9283 -2.22036 0.56857 0
M  V30 371 C 35.9413 -1.58865 -0.355779 0
M  V30 372 O 37.1303 -1.77851 -0.152103 0
M  V30 373 C 34.2303 -3.38363 -0.190752 0
M  V30 374 C 33.4033 -4.31118 0.738643 0
M  V30 375 C 32.4623 -5.26194 0.0246497 0
M  V30 376 O 31.4883 -5.65461 0.651354 0
M  V30 377 N 32.6903 -5.66971 -1.24594 0
M  V30 378 H 35.4553 -2.6219 1.45177 0
M  V30 379 H 33.0163 -1.34015 0.908381 0
M  V30 380 H 35.0083 -3.98981 -0.677961 0
M  V30 381 H 33.5783 -2.96994 -0.975366 0
M  V30 382 H 32.7983 -3.68276 1.40593 0
M  V30 383 H 34.0863 -4.90001 1.37029 0
M  V30 384 H 33.4843 -5.37104 -1.77583 0
M  V30 385 H 32.0413 -6.2984 -1.67764 0
M  V30 386 N 35.4744 -0.807222 -1.35358 0
M  V30 387 C 36.4064 -0.175717 -2.28525 0
M  V30 388 C 37.4194 0.625354 -1.5031 0
M  V30 389 O 38.6084 0.457611 -1.72535 0
M  V30 390 C 35.7084 0.773471 -3.29956 0
M  V30 391 C 34.8814 0.0186296 -4.37396 0
M  V30 392 C 33.9404 0.886395 -5.18681 0
M  V30 393 O 32.9664 0.337106 -5.68201 0
M  V30 394 N 34.1684 2.20839 -5.36852 0
M  V30 395 H 36.9334 -0.976091 -2.83359 0
M  V30 396 H 34.4944 -0.662737 -1.47714 0
M  V30 397 H 36.4864 1.35824 -3.81227 0
M  V30 398 H 35.0564 1.47465 -2.75632 0
M  V30 399 H 34.2764 -0.747349 -3.87051 0
M  V30 400 H 35.5644 -0.501577 -5.06322 0
M  V30 401 H 34.9624 2.67858 -4.98265 0
M  V30 402 H 33.5194 2.74237 -5.91301 0
M  V30 403 N 36.9525 1.47285 -0.560781 0
M  V30 404 C 38.3635 1.86258 -0.128343 0
M  V30 405 C 38.7145 1.46699 1.30284 0
M  V30 406 O 37.8395 0.871698 1.98067 0
M  V30 407 C 38.4345 3.38044 -0.22614 0
M  V30 408 C 36.9935 3.76096 0.151283 0
M  V30 409 C 36.1405 2.71335 -0.572084 0
M  V30 410 H 39.0915 1.38752 -0.770297 0
M  V30 411 H 39.1125 3.76441 0.554322 0
M  V30 412 H 38.6245 3.66806 -1.26788 0
M  V30 413 H 36.7255 3.52951 1.19399 0
M  V30 414 H 36.8385 4.78641 -0.209765 0
M  V30 415 H 35.2025 2.54696 -0.0147653 0
M  V30 416 H 35.9855 3.02938 -1.61504 0
M  V30 417 N 38.4306 0.297415 1.54768 0
M  V30 418 C 39.3626 -0.613881 2.20826 0
M  V30 419 C 40.3756 -1.10032 1.19987 0
M  V30 420 O 41.5646 -1.01839 1.46598 0
M  V30 421 C 38.6646 -1.852 2.83821 0
M  V30 422 C 37.8376 -1.50865 4.10559 0
M  V30 423 C 36.8966 -2.60154 4.57391 0
M  V30 424 O 35.9226 -2.25398 5.2267 0
M  V30 425 N 37.1246 -3.90629 4.29406 0
M  V30 426 H 39.8896 -0.048389 2.99661 0
M  V30 427 H 37.4506 0.11946 1.61459 0
M  V30 428 H 39.4426 -2.57652 3.12086 0
M  V30 429 H 38.0126 -2.32597 2.08847 0
M  V30 430 H 37.2326 -0.616925 3.89343 0
M  V30 431 H 38.5206 -1.25458 4.9309 0
M  V30 432 H 37.9186 -4.21677 3.77101 0
M  V30 433 H 36.4756 -4.59391 4.62388 0
M  V30 434 N 39.9087 -1.5758 0.0250728 0
M  V30 435 C 40.8407 -2.06869 -0.986796 0
M  V30 436 C 41.8537 -0.991332 -1.29137 0
M  V30 437 O 43.0427 -1.26761 -1.25674 0
M  V30 438 C 40.1427 -2.47486 -2.31525 0
M  V30 439 C 39.3157 -3.78253 -2.19643 0
M  V30 440 C 38.3747 -4.05464 -3.35388 0
M  V30 441 O 37.4007 -4.75774 -3.12454 0
M  V30 442 N 38.6027 -3.55321 -4.59051 0
M  V30 443 H 41.3677 -2.94302 -0.566276 0
M  V30 444 H 38.9287 -1.6109 -0.161776 0
M  V30 445 H 40.9207 -2.62785 -3.07776 0
M  V30 446 H 39.4907 -1.65441 -2.65232 0
M  V30 447 H 38.7107 -3.7279 -1.28144 0
M  V30 448 H 39.9987 -4.63936 -2.08903 0
M  V30 449 H 39.3967 -2.98431 -4.80578 0
M  V30 450 H 37.9537 -3.75905 -5.32483 0
M  V30 451 N 41.3868 0.248026 -1.55636 0
M  V30 452 C 42.6638 0.998988 -1.68165 0
M  V30 453 C 43.0438 2.03409 -0.564621 0
M  V30 454 O 42.3918 2.24378 0.432076 0
M  V30 455 C 42.6018 1.63334 -3.0842 0
M  V30 456 C 43.9498 2.13562 -3.66983 0
M  V30 457 O 44.9738 1.73277 -3.11213 0
M  V30 458 O 43.8328 2.87526 -4.64749 0
M  V30 459 H 40.9268 0.464933 -0.683935 0
M  V30 460 H 43.4728 0.241902 -1.67967 0
M  V30 461 H 42.2448 0.884583 -3.8117 0
M  V30 462 H 41.8678 2.45666 -3.12624 0
M  V30 463 N 42.8649 1.48995 0.513639 0
M  V30 464 C 43.7749 1.67443 1.64317 0
M  V30 465 C 44.7909 0.556947 1.64846 0
M  V30 466 O 45.9669 0.830082 1.83498 0
M  V30 467 C 43.0319 1.72515 3.00732 0
M  V30 468 C 42.0929 2.96009 3.1093 0
M  V30 469 C 41.3259 3.00829 4.40837 0
M  V30 470 O 41.5489 2.13594 5.28898 0
M  V30 471 O 40.4829 3.93168 4.55744 0
M  V30 472 H 44.3089 2.63106 1.51687 0
M  V30 473 H 41.8939 1.32588 0.688543 0
M  V30 474 H 43.7759 1.78277 3.81831 0
M  V30 475 H 42.4509 0.800278 3.13651 0
M  V30 476 H 41.3579 2.9577 2.29065 0
M  V30 477 H 42.6909 3.87934 3.02933 0
M  V30 478 N 44.343 -0.763751 1.37857 0
M  V30 479 C 45.276 -1.88486 1.28639 0
M  V30 480 C 46.254 -1.61757 0.165363 0
M  V30 481 O 47.438 -1.85391 0.340948 0
M  V30 482 C 44.565 -3.23884 0.990811 0
M  V30 483 C 43.611 -3.69514 2.12983 0
M  V30 484 S 44.444 -3.82244 3.75033 0
M  V30 485 C 45.6 -5.20477 3.47641 0
M  V30 486 H 45.833 -1.96017 2.23527 0
M  V30 487 H 43.366 -0.925684 1.23574 0
M  V30 488 H 45.324 -4.02081 0.827101 0
M  V30 489 H 43.985 -3.14044 0.0592832 0
M  V30 490 H 43.178 -4.67696 1.87821 0
M  V30 491 H 42.78 -2.98441 2.25408 0
M  V30 492 H 45.072 -6.05905 3.03125 0
M  V30 493 H 46.015 -5.50655 4.4518 0
M  V30 494 H 46.423 -4.88793 2.82385 0
M  V30 495 N 45.8211 -1.22559 -0.990812 0
M  V30 496 C 47.2321 -1.04791 -1.54518 0
M  V30 497 C 47.5831 0.387998 -1.92325 0
M  V30 498 O 46.7081 1.27328 -1.74976 0
M  V30 499 C 47.3031 -1.896 -2.80779 0
M  V30 500 C 45.8621 -1.76124 -3.32652 0
M  V30 501 C 45.0091 -1.8594 -2.05722 0
M  V30 502 H 47.9601 -1.36374 -0.811662 0
M  V30 503 H 47.9811 -1.41464 -3.53225 0
M  V30 504 H 47.4931 -2.94101 -2.53231 0
M  V30 505 H 45.5941 -0.743643 -3.65104 0
M  V30 506 H 45.7071 -2.58913 -4.03114 0
M  V30 507 H 44.0711 -1.29403 -2.19379 0
M  V30 508 H 44.8541 -2.91976 -1.80568 0
M  V30 509 N 47.2992 1.18797 -1.03562 0
M  V30 510 C 48.5242 1.9314 -0.755764 0
M  V30 511 C 48.9492 1.7537 0.68022 0
M  V30 512 O 48.3072 1.06046 1.47051 0
M  V30 513 C 48.3552 3.42747 -1.12058 0
M  V30 514 O 47.4592 4.11683 -0.243124 0
M  V30 515 H 46.8002 0.602724 -0.278604 0
M  V30 516 H 49.3302 1.50678 -1.3841 0
M  V30 517 H 49.3402 3.93437 -1.08035 0
M  V30 518 H 48.0152 3.55002 -2.16672 0
M  V30 519 H 46.5922 3.71323 -0.342539 0
M  V30 520 N 48.7773 0.814389 1.34928 0
M  V30 521 C 50.1883 0.458364 1.80986 0
M  V30 522 C 50.5393 -1.02042 1.67577 0
M  V30 523 O 49.6643 -1.79352 1.21086 0
M  V30 524 C 50.2593 0.825212 3.28597 0
M  V30 525 C 48.8183 0.521677 3.72767 0
M  V30 526 C 47.9653 1.04668 2.56788 0
M  V30 527 H 50.9163 1.00533 1.22795 0
M  V30 528 H 50.9373 0.12571 3.80292 0
M  V30 529 H 50.4493 1.90154 3.38324 0
M  V30 530 H 48.5503 -0.545589 3.68584 0
M  V30 531 H 48.6633 1.05977 4.67232 0
M  V30 532 H 47.0273 0.468622 2.50352 0
M  V30 533 H 47.8103 2.12927 2.6929 0
M  V30 534 N 50.2554 -1.46986 0.568584 0
M  V30 535 C 51.4834 -2.0683 0.0539956 0
M  V30 536 C 51.8984 -1.41953 -1.24478 0
M  V30 537 O 51.2554 -0.519933 -1.74937 0
M  V30 538 C 51.3064 -3.61254 -0.133362 0
M  V30 539 O 51.0274 -4.237 1.11399 0
M  V30 540 C 52.5284 -4.37992 -0.683927 0
M  V30 541 H 49.7484 -0.669058 0.0510141 0
M  V30 542 H 52.2924 -1.88824 0.785234 0
M  V30 543 H 50.4474 -3.78735 -0.81477 0
M  V30 544 H 50.8614 -5.16388 0.91888 0
M  V30 545 H 52.3354 -5.46684 -0.764263 0
M  V30 546 H 52.8124 -4.05058 -1.69778 0
M  V30 547 H 53.4184 -4.25283 -0.0378494 0
M  V30 548 N 51.7335 -0.305618 -1.54608 0
M  V30 549 C 52.9805 0.302298 -2.00231 0
M  V30 550 C 53.3085 1.5354 -1.19398 0
M  V30 551 O 52.5635 1.93973 -0.259423 0
M  V30 552 C 52.8625 0.698983 -3.50498 0
M  V30 553 C 52.5285 -0.432903 -4.48817 0
M  V30 554 C 51.1905 -0.743622 -4.75419 0
M  V30 555 C 53.5425 -1.19409 -5.07337 0
M  V30 556 C 50.8705 -1.81857 -5.57804 0
M  V30 557 C 53.2225 -2.25899 -5.90891 0
M  V30 558 C 51.8865 -2.57572 -6.15803 0
M  V30 559 H 51.1565 0.110619 -0.732697 0
M  V30 560 H 53.8035 -0.425674 -1.86709 0
M  V30 561 H 52.1085 1.50711 -3.61654 0
M  V30 562 H 53.8055 1.1806 -3.83227 0
M  V30 563 H 50.3955 -0.18063 -4.28219 0
M  V30 564 H 54.5795 -0.967295 -4.86782 0
M  V30 565 H 49.8355 -2.06864 -5.75341 0
M  V30 566 H 54.0095 -2.85335 -6.35261 0
M  V30 567 H 51.6365 -3.40998 -6.7943 0
M  V30 568 N 53.2116 1.57565 -0.0334293 0
M  V30 569 C 54.1416 2.13511 0.945265 0
M  V30 570 C 55.1226 1.05231 1.33643 0
M  V30 571 O 56.3076 1.33084 1.41429 0
M  V30 572 C 53.4376 2.6657 2.22616 0
M  V30 573 C 52.3916 3.79676 1.97561 0
M  V30 574 C 51.7176 4.1918 3.31952 0
M  V30 575 C 53.0176 5.0557 1.31135 0
M  V30 576 H 54.7116 2.95538 0.479325 0
M  V30 577 H 52.2576 1.42166 0.229115 0
M  V30 578 H 54.2106 3.04344 2.91466 0
M  V30 579 H 52.9346 1.8171 2.71384 0
M  V30 580 H 51.5936 3.42347 1.31127 0
M  V30 581 H 51.2416 3.31296 3.78487 0
M  V30 582 H 50.9416 4.95402 3.15992 0
M  V30 583 H 52.4656 4.59541 4.02063 0
M  V30 584 H 53.8796 5.40903 1.89992 0
M  V30 585 H 52.2766 5.86818 1.25559 0
M  V30 586 H 53.3466 4.84062 0.284894 0
M  V30 587 N 54.6897 -0.239769 1.55765 0
M  V30 588 C 55.9177 -0.98417 1.81994 0
M  V30 589 C 56.3327 -1.7867 0.610124 0
M  V30 590 O 55.6897 -1.77571 -0.421271 0
M  V30 591 C 55.7407 -1.91635 3.06526 0
M  V30 592 O 55.4617 -1.14629 4.22838 0
M  V30 593 C 56.9627 -2.77616 3.45607 0
M  V30 594 H 54.1827 -0.28928 0.605441 0
M  V30 595 H 56.7267 -0.260499 2.02834 0
M  V30 596 H 54.8817 -2.5942 2.87715 0
M  V30 597 H 55.2957 -1.77745 4.93464 0
M  V30 598 H 56.7697 -3.38759 4.35828 0
M  V30 599 H 57.2467 -3.4909 2.6652 0
M  V30 600 H 57.8527 -2.15271 3.66795 0
M  V30 601 N 56.1678 -1.49265 -0.50573 0
M  V30 602 C 57.0998 -1.617 -1.62437 0
M  V30 603 C 58.1128 -0.499924 -1.54934 0
M  V30 604 O 59.3018 -0.771785 -1.60953 0
M  V30 605 C 56.4018 -1.5533 -3.01207 0
M  V30 606 C 55.5748 -2.8249 -3.33943 0
M  V30 607 C 54.6338 -2.69238 -4.52103 0
M  V30 608 O 53.6598 -3.43167 -4.5412 0
M  V30 609 N 54.8618 -1.80468 -5.51735 0
M  V30 610 H 57.6268 -2.58177 -1.52199 0
M  V30 611 H 55.1878 -1.46294 -0.693511 0
M  V30 612 H 57.1798 -1.44125 -3.78167 0
M  V30 613 H 55.7498 -0.667297 -3.05395 0
M  V30 614 H 54.9698 -3.08081 -2.45926 0
M  V30 615 H 56.2578 -3.66802 -3.5261 0
M  V30 616 H 55.6558 -1.19653 -5.52901 0
M  V30 617 H 54.2128 -1.75188 -6.27816 0
M  V30 618 N 57.6459 0.756429 -1.3826 0
M  V30 619 C 58.8919 1.51772 -1.34511 0
M  V30 620 C 59.2249 1.94089 0.0656691 0
M  V30 621 O 58.4999 1.65221 1.02626 0
M  V30 622 C 58.7829 2.77226 -2.29821 0
M  V30 623 C 58.6359 2.41065 -3.79747 0
M  V30 624 C 59.9549 3.79236 -2.23312 0
M  V30 625 H 57.0739 0.550578 -0.489931 0
M  V30 626 H 59.7159 0.866607 -1.69086 0
M  V30 627 H 57.8659 3.32784 -2.00467 0
M  V30 628 H 59.5379 1.91303 -4.19763 0
M  V30 629 H 57.7809 1.7356 -3.97567 0
M  V30 630 H 58.4519 3.3081 -4.41892 0
M  V30 631 H 60.9279 3.3321 -2.49219 0
M  V30 632 H 59.8039 4.64714 -2.92116 0
M  V30 633 H 60.0649 4.24615 -1.23102 0
M  V30 634 N 59.124 1.23083 0.984299 0
M  V30 635 C 60.071 1.00854 2.07598 0
M  V30 636 C 61.041 -0.0726709 1.65941 0
M  V30 637 O 62.226 0.0786535 1.90638 0
M  V30 638 C 59.366 0.601645 3.39815 0
M  V30 639 C 58.479 1.75456 3.94765 0
M  V30 640 C 57.614 1.29482 5.15177 0
M  V30 641 C 56.653 2.41873 5.62284 0
M  V30 642 N 55.79 1.96885 6.73929 0
M  V30 643 H 60.63 1.943 2.25946 0
M  V30 644 H 58.167 0.968001 1.10762 0
M  V30 645 H 60.125 0.346854 4.15756 0
M  V30 646 H 58.755 -0.295803 3.21442 0
M  V30 647 H 57.807 2.12346 3.15616 0
M  V30 648 H 59.119 2.59965 4.25699 0
M  V30 649 H 58.273 0.997923 5.98437 0
M  V30 650 H 57.012 0.420046 4.85888 0
M  V30 651 H 56.017 2.72342 4.77608 0
M  V30 652 H 57.242 3.29881 5.93595 0
M  V30 653 H 55.188 1.11782 6.46406 0
M  V30 654 H 55.105 2.74956 7.04227 0
M  V30 655 H 56.373 1.70289 7.60672 0
M  V30 656 N 60.6021 -1.18246 1.0419 0
M  V30 657 C 61.5121 -2.25574 0.644476 0
M  V30 658 C 62.5281 -1.70845 -0.329826 0
M  V30 659 O 63.7041 -2.00554 -0.184443 0
M  V30 660 C 60.7691 -3.46697 0.014877 0
M  V30 661 C 59.8301 -4.16554 1.03834 0
M  V30 662 C 59.0631 -5.31894 0.438692 0
M  V30 663 O 59.2861 -5.65385 -0.754752 0
M  V30 664 O 58.2201 -5.90459 1.168 0
M  V30 665 H 62.0461 -2.61836 1.53869 0
M  V30 666 H 59.6311 -1.25352 0.812854 0
M  V30 667 H 61.5131 -4.20062 -0.335538 0
M  V30 668 H 60.1881 -3.12255 -0.853138 0
M  V30 669 H 59.0951 -3.45251 1.44057 0
M  V30 670 H 60.4281 -4.54998 1.87716 0
M  V30 671 N 62.0802 -0.821533 -1.34494 0
M  V30 672 C 63.3052 -0.420873 -2.03085 0
M  V30 673 C 63.7302 0.964915 -1.61465 0
M  V30 674 O 63.0882 1.62763 -0.798607 0
M  V30 675 C 63.1362 -0.529414 -3.56693 0
M  V30 676 O 62.2402 0.451302 -4.09923 0
M  V30 677 H 61.5812 -0.173489 -0.640935 0
M  V30 678 H 64.1112 -1.11157 -1.71771 0
M  V30 679 H 64.1212 -0.404671 -4.05988 0
M  V30 680 H 62.7962 -1.54014 -3.86332 0
M  V30 681 H 61.3732 0.285558 -3.71805 0
M  V30 682 N 63.5583 1.46682 -0.576371 0
M  V30 683 C 64.4883 2.33028 0.148397 0
M  V30 684 C 65.4693 1.44961 0.889956 0
M  V30 685 O 66.6543 1.73789 0.866662 0
M  V30 686 C 63.7843 3.27117 1.1667 0
M  V30 687 C 62.7383 4.24575 0.540386 0
M  V30 688 C 62.0643 5.08126 1.6647 0
M  V30 689 C 63.3643 5.19722 -0.518331 0
M  V30 690 H 65.0583 2.93875 -0.572509 0
M  V30 691 H 62.6043 1.41315 -0.276768 0
M  V30 692 H 64.5573 3.86374 1.68204 0
M  V30 693 H 63.2813 2.64364 1.9178 0
M  V30 694 H 61.9403 3.66571 0.0461769 0
M  V30 695 H 61.5883 4.41762 2.40531 0
M  V30 696 H 61.2883 5.74122 1.25131 0
M  V30 697 H 62.8123 5.70246 2.18293 0
M  V30 698 H 64.2263 5.73232 -0.0883058 0
M  V30 699 H 62.6233 5.94026 -0.851679 0
M  V30 700 H 63.6933 4.64037 -1.40703 0
M  V30 701 N 65.0364 0.313813 1.54444 0
M  V30 702 C 66.2614 -0.296681 2.05267 0
M  V30 703 C 66.6864 -1.45757 1.18897 0
M  V30 704 O 66.0444 -1.80239 0.195886 0
M  V30 705 C 66.0924 -0.71831 3.53373 0
M  V30 706 O 65.1964 -1.82175 3.69981 0
M  V30 707 H 64.5374 -0.0554061 0.661684 0
M  V30 708 H 67.0674 0.459387 1.99376 0
M  V30 709 H 67.0774 -1.00364 3.95463 0
M  V30 710 H 65.7524 0.130821 4.15694 0
M  V30 711 H 64.3294 -1.53598 3.39797 0
M  V30 712 N 66.5145 -1.57545 0.0417849 0
M  V30 713 C 67.7395 -1.97035 -0.647455 0
M  V30 714 C 68.1645 -0.918775 -1.64135 0
M  V30 715 O 67.5225 0.119006 -1.80909 0
M  V30 716 C 67.5705 -3.35609 -1.31905 0
M  V30 717 O 66.6745 -3.3287 -2.43457 0
M  V30 718 H 66.0155 -0.64211 -0.169086 0
M  V30 719 H 68.5455 -2.04318 0.107399 0
M  V30 720 H 68.5555 -3.72126 -1.67291 0
M  V30 721 H 67.2305 -4.11685 -0.590586 0
M  V30 722 H 65.8075 -3.08087 -2.10088 0
M  V30 723 N 67.9926 0.231505 -1.5589 0
M  V30 724 C 69.2226 0.973092 -1.82248 0
M  V30 725 C 69.6306 1.78845 -0.617328 0
M  V30 726 O 68.9736 1.78752 0.423499 0
M  V30 727 C 69.0356 1.94732 -3.02192 0
M  V30 728 C 68.6996 1.31743 -4.37599 0
M  V30 729 C 69.6966 0.712238 -5.14998 0
M  V30 730 C 67.3816 1.33218 -4.84312 0
M  V30 731 C 69.3756 0.130195 -6.37267 0
M  V30 732 C 67.0626 0.746286 -6.06526 0
M  V30 733 C 68.0606 0.146337 -6.82843 0
M  V30 734 O 67.7486 -0.430465 -8.02747 0
M  V30 735 H 67.4806 0.29125 -0.61004 0
M  V30 736 H 70.0346 0.254915 -2.03812 0
M  V30 737 H 68.2646 2.70422 -2.76422 0
M  V30 738 H 69.9536 2.55362 -3.15508 0
M  V30 739 H 70.7196 0.69324 -4.8002 0
M  V30 740 H 66.5986 1.78854 -4.24891 0
M  V30 741 H 70.1426 -0.33871 -6.96777 0
M  V30 742 H 66.0396 0.762663 -6.40979 0
M  V30 743 H 66.8076 -0.323818 -8.17859 0
M  V30 744 N 69.4707 1.49531 0.497807 0
M  V30 745 C 70.7167 1.60388 1.25089 0
M  V30 746 C 71.0717 0.288328 1.90227 0
M  V30 747 O 70.3647 -0.711706 1.77891 0
M  V30 748 C 70.5587 2.70252 2.33878 0
M  V30 749 C 70.3877 4.12363 1.79408 0
M  V30 750 C 69.1577 4.7911 1.60566 0
M  V30 751 C 71.3557 4.97491 1.30412 0
M  V30 752 N 69.3377 6.05525 1.01059 0
M  V30 753 C 70.7087 6.14411 0.830595 0
M  V30 754 C 72.7637 4.83466 1.19015 0
M  V30 755 C 71.4667 7.1885 0.254371 0
M  V30 756 C 73.4927 5.88057 0.627892 0
M  V30 757 C 72.8547 7.04208 0.16461 0
M  V30 758 H 68.9537 0.641246 0.447579 0
M  V30 759 H 71.5377 1.86549 0.557441 0
M  V30 760 H 69.7087 2.45858 3.0068 0
M  V30 761 H 71.4407 2.70613 3.00917 0
M  V30 762 H 68.1957 4.35961 1.85026 0
M  V30 763 H 68.6197 6.73028 0.732236 0
M  V30 764 H 73.2617 3.93978 1.53431 0
M  V30 765 H 70.9797 8.08036 -0.102052 0
M  V30 766 H 74.5657 5.79266 0.542444 0
M  V30 767 H 73.4457 7.83757 -0.263669 0
M  V30 768 N 70.9488 -0.749086 1.3866 0
M  V30 769 C 71.8588 -1.89358 1.38494 0
M  V30 770 C 72.8748 -1.71708 0.281476 0
M  V30 771 O 74.0508 -1.94554 0.520643 0
M  V30 772 C 71.1158 -3.24782 1.21316 0
M  V30 773 C 70.1768 -3.54926 2.41508 0
M  V30 774 C 69.4098 -4.83888 2.2514 0
M  V30 775 O 69.6328 -5.56592 1.24746 0
M  V30 776 O 68.5668 -5.13612 3.13826 0
M  V30 777 H 72.3928 -1.92452 2.34938 0
M  V30 778 H 69.9778 -0.894981 1.19626 0
M  V30 779 H 71.8598 -4.05739 1.13814 0
M  V30 780 H 70.5348 -3.2249 0.279592 0
M  V30 781 H 69.4418 -2.74112 2.54585 0
M  V30 782 H 70.7748 -3.61983 3.3351 0
M  V30 783 N 72.4269 -1.23603 -0.977757 0
M  V30 784 C 73.6519 -1.09735 -1.75991 0
M  V30 785 C 74.0769 0.346858 -1.84874 0
M  V30 786 O 73.4349 1.25093 -1.3123 0
M  V30 787 C 73.4829 -1.73051 -3.16363 0
M  V30 788 O 72.5869 -0.994452 -4.0023 0
M  V30 789 H 71.9279 -0.384476 -0.541364 0
M  V30 790 H 74.4579 -1.6371 -1.2272 0
M  V30 791 H 74.4679 -1.78398 -3.66931 0
M  V30 792 H 73.1429 -2.78137 -3.09213 0
M  V30 793 H 71.7199 -1.01812 -3.58732 0
M  V30 794 N 73.905 1.17692 -1.04816 0
M  V30 795 C 74.868 2.19787 -0.650117 0
M  V30 796 C 75.868 1.58044 0.296427 0
M  V30 797 O 77.058 1.74012 0.0808097 0
M  V30 798 C 74.19 3.40869 0.0456987 0
M  V30 799 H 75.383 2.56516 -1.5537 0
M  V30 800 H 72.936 1.31708 -0.841594 0
M  V30 801 H 73.671 3.09681 0.962726 0
M  V30 802 H 73.456 3.86928 -0.634727 0
M  V30 803 H 74.946 4.16445 0.310432 0
M  V30 804 N 75.3831 0.828654 1.34056 0
M  V30 805 C 76.3301 0.252567 2.29414 0
M  V30 806 C 77.3001 -0.62588 1.53857 0
M  V30 807 O 78.4851 -0.566312 1.82202 0
M  V30 808 C 75.6251 -0.574831 3.40279 0
M  V30 809 C 74.7381 0.326499 4.30764 0
M  V30 810 C 73.8731 -0.511016 5.28736 0
M  V30 811 C 72.9121 0.389342 6.1086 0
M  V30 812 N 72.0491 -0.409439 7.00905 0
M  V30 813 H 76.8891 1.07108 2.78086 0
M  V30 814 H 74.4261 0.539677 1.36843 0
M  V30 815 H 76.3841 -1.06992 4.03248 0
M  V30 816 H 75.0141 -1.35841 2.92826 0
M  V30 817 H 74.0661 0.939837 3.68607 0
M  V30 818 H 75.3781 1.01857 4.88289 0
M  V30 819 H 74.5321 -1.07035 5.97184 0
M  V30 820 H 73.2711 -1.23657 4.71763 0
M  V30 821 H 72.2761 0.960769 5.4134 0
M  V30 822 H 73.5011 1.1131 6.69916 0
M  V30 823 H 71.4471 -1.11856 6.46393 0
M  V30 824 H 71.3641 0.224126 7.55668 0
M  V30 825 H 72.6321 -0.951336 7.73673 0
M  V30 826 N 76.8612 -1.46375 0.584142 0
M  V30 827 C 78.0892 -2.06761 0.0759296 0
M  V30 828 C 78.5042 -1.43266 -1.22965 0
M  V30 829 O 77.8612 -0.538458 -1.74376 0
M  V30 830 C 77.9122 -3.61375 -0.0950384 0
M  V30 831 O 77.6332 -4.22495 1.15887 0
M  V30 832 C 79.1342 -4.38693 -0.637434 0
M  V30 833 H 76.3542 -0.668479 0.0581075 0
M  V30 834 H 78.8982 -1.8798 0.805218 0
M  V30 835 H 77.0532 -3.79578 -0.774554 0
M  V30 836 H 77.4672 -5.15385 0.973598 0
M  V30 837 H 78.9412 -5.47464 -0.706237 0
M  V30 838 H 79.4182 -4.06836 -1.65472 0
M  V30 839 H 80.0242 -4.25299 0.00725967 0
M  V30 840 N 78.3393 -0.321999 -1.54275 0
M  V30 841 C 79.3023 0.531975 -2.22941 0
M  V30 842 C 80.3023 1.04478 -1.22234 0
M  V30 843 O 81.4923 0.937452 -1.46825 0
M  V30 844 C 78.6243 1.73874 -2.93224 0
M  V30 845 H 79.8173 -0.0682612 -2.99822 0
M  V30 846 H 77.3703 -0.0730644 -1.56129 0
M  V30 847 H 78.1053 2.37825 -2.20476 0
M  V30 848 H 77.8903 1.37847 -3.6707 0
M  V30 849 H 79.3803 2.34496 -3.45545 0
M  V30 850 N 79.8174 1.5752 -0.0501392 0
M  V30 851 C 80.7804 2.1037 0.909786 0
M  V30 852 C 81.7804 1.02308 1.24056 0
M  V30 853 O 82.9704 1.28385 1.17741 0
M  V30 854 C 80.1024 2.58708 2.21998 0
M  V30 855 H 81.2954 2.96479 0.451665 0
M  V30 856 H 78.8484 1.55038 0.198248 0
M  V30 857 H 79.5834 1.75989 2.72394 0
M  V30 858 H 79.3684 3.37675 1.99295 0
M  V30 859 H 80.8584 2.99747 2.9076 0
M  V30 860 N 81.2955 -0.223234 1.56011 0
M  V30 861 C 82.2275 -1.30006 1.88762 0
M  V30 862 C 83.2405 -1.43129 0.775746 0
M  V30 863 O 84.4295 -1.44057 1.05403 0
M  V30 864 C 81.5295 -2.67589 2.07965 0
M  V30 865 C 80.7025 -2.76434 3.38973 0
M  V30 866 C 79.7615 -3.95019 3.47629 0
M  V30 867 O 78.7875 -3.83436 4.20672 0
M  V30 868 N 79.9895 -5.09249 2.78649 0
M  V30 869 H 82.7545 -1.02238 2.81722 0
M  V30 870 H 80.3155 -0.413278 1.56536 0
M  V30 871 H 82.3075 -3.45297 2.11073 0
M  V30 872 H 80.8775 -2.87964 1.21638 0
M  V30 873 H 80.0975 -1.85216 3.47978 0
M  V30 874 H 81.3855 -2.79313 4.25278 0
M  V30 875 H 80.7835 -5.21556 2.19081 0
M  V30 876 H 79.3405 -5.85007 2.8742 0
M  V30 877 N 82.7736 -1.49793 -0.48987 0
M  V30 878 C 83.7216 -1.67783 -1.61095 0
M  V30 879 C 84.7156 -0.543683 -1.60438 0
M  V30 880 O 85.9216 -0.723647 -1.64813 0
M  V30 881 H 82.2966 -0.529255 -0.534222 0
M  V30 882 H 84.2676 -2.61861 -1.43078 0
M  V30 883 C 83.0166 -1.77191 -2.99164 0
M  V30 884 H 82.3396 -2.63841 -3.0038 0
M  V30 885 H 83.7796 -1.93809 -3.77113 0
M  V30 886 C 82.2386 -0.519203 -3.32875 0
M  V30 887 O 82.7686 0.350124 -4.00171 0
M  V30 888 N 80.9746 -0.378816 -2.8812 0
M  V30 889 H 80.5216 -1.08725 -2.33531 0
M  V30 890 H 80.4796 0.458239 -3.11043 0
M  V30 891 N 84.2517 0.741722 -1.39055 0
M  V30 892 C 85.1817 1.869 -1.39966 0
M  V30 893 C 86.1627 1.6804 -0.26392 0
M  V30 894 O 87.3477 1.88458 -0.468755 0
M  V30 895 C 84.4777 3.24572 -1.23574 0
M  V30 896 C 83.4317 3.58056 -2.34477 0
M  V30 897 C 82.7577 4.94593 -2.0318 0
M  V30 898 C 84.0577 3.61716 -3.76774 0
M  V30 899 H 85.7517 1.86395 -2.34302 0
M  V30 900 H 83.2977 0.895361 -1.1278 0
M  V30 901 H 85.2507 4.031 -1.22834 0
M  V30 902 H 83.9747 3.25587 -0.257045 0
M  V30 903 H 82.6337 2.81854 -2.34423 0
M  V30 904 H 82.2817 4.92181 -1.03765 0
M  V30 905 H 81.9817 5.17964 -2.77465 0
M  V30 906 H 83.5057 5.75486 -2.04079 0
M  V30 907 H 84.9197 4.30335 -3.78794 0
M  V30 908 H 83.3167 3.96603 -4.50362 0
M  V30 909 H 84.3867 2.61672 -4.08235 0
M  V30 910 N 85.7298 1.2412 0.971189 0
M  V30 911 C 86.9598 1.10415 1.7462 0
M  V30 912 C 87.3678 -0.346462 1.86001 0
M  V30 913 O 86.7108 -1.25104 1.34517 0
M  V30 914 C 86.7728 1.66596 3.18568 0
M  V30 915 C 86.4368 3.15446 3.3067 0
M  V30 916 C 87.4338 4.12636 3.16271 0
M  V30 917 C 85.1188 3.55337 3.55022 0
M  V30 918 C 87.1128 5.47699 3.26044 0
M  V30 919 C 84.7998 4.90542 3.64434 0
M  V30 920 C 85.7978 5.86532 3.49956 0
M  V30 921 O 85.4858 7.19279 3.59017 0
M  V30 922 H 85.2178 0.386616 0.55453 0
M  V30 923 H 87.7718 1.64633 1.22821 0
M  V30 924 H 86.0018 1.06808 3.71657 0
M  V30 925 H 87.6908 1.48232 3.77865 0
M  V30 926 H 88.4568 3.8316 2.97344 0
M  V30 927 H 84.3358 2.8113 3.65359 0
M  V30 928 H 87.8798 6.22603 3.14661 0
M  V30 929 H 83.7768 5.19691 3.82873 0
M  V30 930 H 84.5448 7.27153 3.75754 0
M  V30 931 N 87.2079 -1.17134 1.05439 0
M  V30 932 C 88.1179 -2.24878 0.668365 0
M  V30 933 C 89.1339 -1.71186 -0.311687 0
M  V30 934 O 90.3099 -2.00738 -0.163161 0
M  V30 935 C 87.3749 -3.46662 0.051648 0
M  V30 936 C 86.4359 -4.15429 1.08246 0
M  V30 937 C 85.6689 -5.31399 0.495082 0
M  V30 938 O 85.8919 -5.66153 -0.694743 0
M  V30 939 O 84.8259 -5.89187 1.23056 0
M  V30 940 H 88.6519 -2.60189 1.56637 0
M  V30 941 H 86.2369 -1.24482 0.826104 0
M  V30 942 H 88.1189 -4.20394 -0.290966 0
M  V30 943 H 86.7939 -3.13142 -0.819971 0
M  V30 944 H 85.7009 -3.43704 1.47711 0
M  V30 945 H 87.0339 -4.52982 1.92532 0
M  V30 946 N 88.686 -0.835752 -1.33615 0
M  V30 947 C 89.633 -0.26473 -2.29277 0
M  V30 948 C 90.603 0.617712 -1.54187 0
M  V30 949 O 91.788 0.556641 -1.825 0
M  V30 950 C 88.928 0.556777 -3.40579 0
M  V30 951 C 88.041 -0.349339 -4.30585 0
M  V30 952 C 87.176 0.482969 -5.29 0
M  V30 953 C 86.215 -0.421732 -6.10645 0
M  V30 954 N 85.352 0.372262 -7.01112 0
M  V30 955 H 90.192 -1.08582 -2.77514 0
M  V30 956 H 87.729 -0.546927 -1.36554 0
M  V30 957 H 89.687 1.04852 -4.03809 0
M  V30 958 H 88.317 1.34286 -2.93542 0
M  V30 959 H 87.369 -0.959372 -3.68104 0
M  V30 960 H 88.681 -1.04445 -4.87742 0
M  V30 961 H 87.835 1.03866 -5.97743 0
M  V30 962 H 86.574 1.21153 -4.72412 0
M  V30 963 H 85.579 -0.989464 -5.40823 0
M  V30 964 H 86.804 -1.14861 -6.69316 0
M  V30 965 H 84.75 1.08426 -6.46977 0
M  V30 966 H 84.667 -0.264198 -7.55538 0
M  V30 967 H 85.935 0.910293 -7.74167 0
M  V30 968 N 90.1641 1.46063 -0.591896 0
M  V30 969 C 91.3921 2.06717 -0.0868936 0
M  V30 970 C 91.8071 1.43916 1.22203 0
M  V30 971 O 91.1641 0.547698 1.74088 0
M  V30 972 C 91.2151 3.6142 0.0758725 0
M  V30 973 O 90.9361 4.21874 -1.18126 0
M  V30 974 C 92.4371 4.39025 0.61416 0
M  V30 975 H 89.6571 0.668162 -0.0616518 0
M  V30 976 H 92.2011 1.8755 -0.815175 0
M  V30 977 H 90.3561 3.79983 0.754413 0
M  V30 978 H 90.7701 5.14861 -1.00092 0
M  V30 979 H 92.2441 5.4783 0.677193 0
M  V30 980 H 92.7211 4.07708 1.63312 0
M  V30 981 H 93.3271 4.2529 -0.0298142 0
M  V30 982 N 91.6422 0.330177 1.54103 0
M  V30 983 C 92.8722 -0.271784 2.04805 0
M  V30 984 C 93.2802 -1.45816 1.20559 0
M  V30 985 O 92.6232 -1.82247 0.2306 0
M  V30 986 C 92.6852 -0.763238 3.51305 0
M  V30 987 C 92.3492 0.301705 4.56003 0
M  V30 988 C 93.3462 1.13999 5.07248 0
M  V30 989 C 91.0312 0.451793 5.00264 0
M  V30 990 C 93.0252 2.11402 6.01322 0
M  V30 991 C 90.7122 1.42924 5.94151 0
M  V30 992 C 91.7102 2.25882 6.44567 0
M  V30 993 O 91.3982 3.21965 7.3661 0
M  V30 994 H 91.1302 -0.058693 0.673447 0
M  V30 995 H 93.6842 0.476395 1.99799 0
M  V30 996 H 91.9142 -1.56244 3.5373 0
M  V30 997 H 93.6032 -1.28427 3.85047 0
M  V30 998 H 94.3692 1.03505 4.73827 0
M  V30 999 H 90.2482 -0.184044 4.60632 0
M  V30 1000 H 93.7922 2.76192 6.40596 0
M  V30 1001 H 89.6892 1.53479 6.26988 0
M  V30 1002 H 90.4572 3.17281 7.54503 0
M  V30 1003 N 93.1203 -1.57491 0.0584922 0
M  V30 1004 C 94.0503 -2.14988 -0.911178 0
M  V30 1005 C 95.0313 -1.07343 -1.31952 0
M  V30 1006 O 96.2163 -1.35318 -1.39294 0
M  V30 1007 C 93.3463 -2.70078 -2.18347 0
M  V30 1008 C 92.3003 -3.82771 -1.91495 0
M  V30 1009 C 91.6263 -4.24408 -3.25241 0
M  V30 1010 C 92.9263 -5.07592 -1.23075 0
M  V30 1011 H 94.6203 -2.96263 -0.432246 0
M  V30 1012 H 92.1663 -1.42512 -0.206469 0
M  V30 1013 H 94.1193 -3.08943 -2.86587 0
M  V30 1014 H 92.8433 -1.86005 -2.68458 0
M  V30 1015 H 91.5023 -3.44389 -1.25664 0
M  V30 1016 H 91.1503 -3.37275 -3.73168 0
M  V30 1017 H 90.8503 -5.00366 -3.08071 0
M  V30 1018 H 92.3743 -4.65879 -3.94701 0
M  V30 1019 H 93.7883 -5.43857 -1.81362 0
M  V30 1020 H 92.1853 -5.88741 -1.16207 0
M  V30 1021 H 93.2553 -4.84454 -0.207847 0
M  V30 1022 N 94.5984 0.214957 -1.56127 0
M  V30 1023 C 96.0094 0.781386 -1.69562 0
M  V30 1024 C 96.3604 1.84707 -0.66165 0
M  V30 1025 O 95.4854 2.156 0.185927 0
M  V30 1026 C 96.0804 1.42411 -3.07416 0
M  V30 1027 C 94.6394 1.93786 -3.22683 0
M  V30 1028 C 93.7864 0.800438 -2.65496 0
M  V30 1029 H 96.7374 -0.00980633 -1.58697 0
M  V30 1030 H 96.7584 2.29309 -3.0364 0
M  V30 1031 H 96.2704 0.64826 -3.82648 0
M  V30 1032 H 94.3714 2.74152 -2.52332 0
M  V30 1033 H 94.4844 2.1133 -4.29973 0
M  V30 1034 H 92.8484 1.2095 -2.2415 0
M  V30 1035 H 93.6314 0.0371471 -3.4328 0
M  V30 1036 N 96.0765 1.50051 0.48192 0
M  V30 1037 C 97.0395 1.67584 1.5636 0
M  V30 1038 C 98.0395 0.546894 1.51214 0
M  V30 1039 O 99.2295 0.813725 1.54026 0
M  V30 1040 C 96.3615 1.691 2.96003 0
M  V30 1041 H 97.5545 2.64078 1.42136 0
M  V30 1042 H 95.1075 1.39369 0.707533 0
M  V30 1043 H 95.8425 0.742589 3.15684 0
M  V30 1044 H 95.6275 2.51105 3.01146 0
M  V30 1045 H 97.1175 1.84656 3.74556 0
M  V30 1046 N 97.5546 -0.734337 1.39446 0
M  V30 1047 C 98.8006 -1.49613 1.36908 0
M  V30 1048 C 99.1336 -1.94169 -0.0347829 0
M  V30 1049 O 98.4086 -1.66833 -0.999847 0
M  V30 1050 C 98.6916 -2.73534 2.34203 0
M  V30 1051 C 98.5446 -2.34993 3.83534 0
M  V30 1052 C 99.8636 -3.75635 2.29317 0
M  V30 1053 H 96.9826 -0.542714 0.498629 0
M  V30 1054 H 99.6246 -0.839597 1.70443 0
M  V30 1055 H 97.7746 -3.29553 2.05736 0
M  V30 1056 H 99.4466 -1.84601 4.22753 0
M  V30 1057 H 97.6896 -1.67213 4.00278 0
M  V30 1058 H 98.3606 -3.23738 4.47099 0
M  V30 1059 H 100.837 -3.29203 2.54489 0
M  V30 1060 H 99.7126 -4.60008 2.99472 0
M  V30 1061 H 99.9736 -4.22603 1.29842 0
M  V30 1062 N 99.0327 -1.24633 -0.964593 0
M  V30 1063 C 100.31 -0.995809 -1.68354 0
M  V30 1064 C 100.69 0.480964 -2.05548 0
M  V30 1065 O 100.038 1.45599 -1.76105 0
M  V30 1066 C 100.248 -1.92177 -2.91323 0
M  V30 1067 C 101.596 -2.19446 -3.63495 0
M  V30 1068 O 102.62 -1.89855 -3.01386 0
M  V30 1069 O 101.479 -2.69714 -4.75307 0
M  V30 1070 H 98.5727 -0.376854 -0.736146 0
M  V30 1071 H 101.119 -1.35745 -1.0184 0
M  V30 1072 H 99.8907 -2.91938 -2.60553 0
M  V30 1073 H 99.5137 -1.56349 -3.65569 0
M  V30 1074 N 100.511 1.16574 -1.06058 0
M  V30 1075 C 101.421 2.2452 -0.680282 0
M  V30 1076 C 102.437 1.71348 0.302604 0
M  V30 1077 O 103.613 2.00822 0.152513 0
M  V30 1078 C 100.678 3.46629 -0.0700315 0
M  V30 1079 C 99.7388 4.14849 -1.10448 0
M  V30 1080 C 98.9718 5.31129 -0.523256 0
M  V30 1081 O 99.1948 5.66514 0.664709 0
M  V30 1082 O 98.1288 5.88526 -1.26179 0
M  V30 1083 H 101.955 2.59355 -1.58015 0
M  V30 1084 H 99.5398 1.24043 -0.832694 0
M  V30 1085 H 101.422 4.20543 0.268667 0
M  V30 1086 H 100.097 3.13573 0.803353 0
M  V30 1087 H 99.0038 3.42916 -1.49532 0
M  V30 1088 H 100.337 4.51954 -1.94931 0
M  V30 1089 N 101.989 0.842826 1.3317 0
M  V30 1090 C 102.936 0.276885 2.29133 0
M  V30 1091 C 103.906 -0.609527 1.54512 0
M  V30 1092 O 105.091 -0.546955 1.82792 0
M  V30 1093 C 102.231 -0.538707 3.40869 0
M  V30 1094 C 101.344 0.372169 4.30394 0
M  V30 1095 C 100.479 -0.454908 5.29249 0
M  V30 1096 C 99.5179 0.45411 6.10413 0
M  V30 1097 N 98.6549 -0.335075 7.013 0
M  V30 1098 H 103.495 1.10052 2.76934 0
M  V30 1099 H 101.032 0.554161 1.36262 0
M  V30 1100 H 102.99 -1.02709 4.0436 0
M  V30 1101 H 101.62 -1.32727 2.9425 0
M  V30 1102 H 100.672 0.97888 3.6759 0
M  V30 1103 H 101.984 1.0703 4.87182 0
M  V30 1104 H 101.138 -1.00695 5.98285 0
M  V30 1105 H 99.8769 -1.18646 4.73048 0
M  V30 1106 H 98.8819 1.01813 5.40291 0
M  V30 1107 H 100.107 1.18409 6.68697 0
M  V30 1108 H 98.0529 -1.04994 6.47543 0
M  V30 1109 H 97.9699 0.304262 7.55387 0
M  V30 1110 H 99.2379 -0.869224 7.74638 0
M  V30 1111 N 103.467 -1.45747 0.599634 0
M  V30 1112 C 104.397 -2.33235 -0.111306 0
M  V30 1113 C 105.378 -1.46359 -0.866781 0
M  V30 1114 O 106.563 -1.75146 -0.838904 0
M  V30 1115 C 103.693 -3.28932 -1.11451 0
M  V30 1116 C 102.647 -4.25381 -0.472772 0
M  V30 1117 C 101.973 -5.1071 -1.58365 0
M  V30 1118 C 103.273 -5.18831 0.600948 0
M  V30 1119 H 104.967 -2.92927 0.61919 0
M  V30 1120 H 102.513 -1.40857 0.299215 0
M  V30 1121 H 104.466 -3.89002 -1.62036 0
M  V30 1122 H 103.19 -2.67381 -1.8755 0
M  V30 1123 H 101.849 -3.66598 0.0121472 0
M  V30 1124 H 101.497 -4.45533 -2.33473 0
M  V30 1125 H 101.197 -5.7604 -1.15982 0
M  V30 1126 H 102.721 -5.73647 -2.09194 0
M  V30 1127 H 104.135 -5.73019 0.179491 0
M  V30 1128 H 102.532 -5.92595 0.946076 0
M  V30 1129 H 103.602 -4.6174 1.48068 0
M  V30 1130 N 104.945 -0.338344 -1.53925 0
M  V30 1131 C 106.361 0.0137736 -1.59594 0
M  V30 1132 C 106.561 1.49186 -1.35447 0
M  V30 1133 O 105.617 2.24987 -1.14616 0
M  V30 1134 C 106.93 -0.41773 -2.97784 0
M  V30 1135 C 108.478 -0.369633 -3.1081 0
M  V30 1136 C 108.953 -0.776524 -4.51369 0
M  V30 1137 N 110.444 -0.730506 -4.57403 0
M  V30 1138 C 111.179 -1.01736 -5.64303 0
M  V30 1139 N 110.675 -1.3721 -6.79077 0
M  V30 1140 N 112.468 -0.941942 -5.54151 0
M  V30 1141 H 104.619 -1.3012 -1.67876 0
M  V30 1142 H 106.882 -0.530082 -0.78595 0
M  V30 1143 H 106.588 -1.44811 -3.20504 0
M  V30 1144 H 106.462 0.209729 -3.76616 0
M  V30 1145 H 108.849 0.651568 -2.87817 0
M  V30 1146 H 108.93 -1.03223 -2.34049 0
M  V30 1147 H 108.574 -1.79571 -4.75096 0
M  V30 1148 H 108.504 -0.0914649 -5.26521 0
M  V30 1149 H 110.995 -0.468783 -3.74981 0
M  V30 1150 H 111.308 -1.57597 -7.5656 0
M  V30 1151 H 109.653 -1.4105 -6.80536 0
M  V30 1152 H 112.844 -0.664184 -4.63364 0
M  V30 1153 H 113.017 -1.16884 -6.37371 0
M  V30 1154 N 106.423 1.57458 -0.0668435 0
M  V30 1155 C 107.7 1.8469 0.644132 0
M  V30 1156 C 108.08 0.958343 1.88093 0
M  V30 1157 O 107.428 0.0233579 2.28488 0
M  V30 1158 C 107.638 3.34767 0.986509 0
M  V30 1159 C 108.986 4.02159 1.36212 0
M  V30 1160 O 110.01 3.39484 1.07839 0
M  V30 1161 O 108.869 5.12694 1.89227 0
M  V30 1162 H 105.963 0.762816 0.319437 0
M  V30 1163 H 108.509 1.6942 -0.0973986 0
M  V30 1164 H 107.281 3.91151 0.107883 0
M  V30 1165 H 106.904 3.55281 1.78497 0
M  V30 1166 N 107.901 -0.206675 1.56239 0
M  V30 1167 C 108.831 -1.25909 1.96645 0
M  V30 1168 C 109.812 -1.48097 0.836734 0
M  V30 1169 O 110.997 -1.6003 1.10019 0
M  V30 1170 C 108.127 -2.6058 2.29599 0
M  V30 1171 C 107.081 -2.53024 3.452 0
M  V30 1172 C 106.407 -3.91861 3.63798 0
M  V30 1173 C 107.707 -2.06524 4.79734 0
M  V30 1174 H 109.401 -0.923369 2.84806 0
M  V30 1175 H 106.947 -0.442735 1.37025 0
M  V30 1176 H 108.9 -3.34375 2.56459 0
M  V30 1177 H 107.624 -2.95869 1.38307 0
M  V30 1178 H 106.283 -1.81684 3.18412 0
M  V30 1179 H 105.931 -4.24483 2.69857 0
M  V30 1180 H 105.631 -3.87683 4.4156 0
M  V30 1181 H 107.155 -4.67296 3.93022 0
M  V30 1182 H 108.569 -2.70072 5.05702 0
M  V30 1183 H 106.966 -2.13374 5.60885 0
M  V30 1184 H 108.036 -1.01802 4.74093 0
M  V30 1185 N 109.379 -1.50304 -0.473955 0
M  V30 1186 C 110.609 -1.64663 -1.24778 0
M  V30 1187 C 111.017 -0.328174 -1.86332 0
M  V30 1188 O 110.36 0.699536 -1.69859 0
M  V30 1189 C 110.422 -2.6778 -2.39863 0
M  V30 1190 C 110.086 -4.11413 -1.98969 0
M  V30 1191 C 111.083 -4.97372 -1.51385 0
M  V30 1192 C 108.768 -4.57312 -2.07777 0
M  V30 1193 C 110.762 -6.27277 -1.13148 0
M  V30 1194 C 108.449 -5.87223 -1.69152 0
M  V30 1195 C 109.447 -6.72031 -1.21915 0
M  V30 1196 O 109.135 -7.99518 -0.838237 0
M  V30 1197 H 108.867 -0.556602 -0.383627 0
M  V30 1198 H 111.421 -1.9726 -0.572491 0
M  V30 1199 H 109.651 -2.30419 -3.10554 0
M  V30 1200 H 111.34 -2.71388 -3.01833 0
M  V30 1201 H 112.106 -4.63128 -1.44004 0
M  V30 1202 H 107.985 -3.91449 -2.43493 0
M  V30 1203 H 111.529 -6.93425 -0.762077 0
M  V30 1204 H 107.426 -6.20989 -1.76191 0
M  V30 1205 H 108.194 -8.12764 -0.967339 0
M  V30 1206 N 110.857 0.726932 -1.39834 0
M  V30 1207 C 112.082 1.52121 -1.40976 0
M  V30 1208 C 112.507 1.88098 -0.00826029 0
M  V30 1209 O 111.865 1.52479 0.980807 0
M  V30 1210 C 111.913 2.78021 -2.29644 0
M  V30 1211 O 111.017 3.74272 -1.73188 0
M  V30 1212 H 110.358 0.45908 -0.479731 0
M  V30 1213 H 112.888 0.896207 -1.83927 0
M  V30 1214 H 112.898 3.26671 -2.44438 0
M  V30 1215 H 111.573 2.51169 -3.31492 0
M  V30 1216 H 110.15 3.33073 -1.6768 0
M  V30 1217 N 112.336 1.25143 0.95797 0
M  V30 1218 C 113.283 1.05235 2.05412 0
M  V30 1219 C 114.253 -0.0374561 1.66058 0
M  V30 1220 O 115.438 0.119073 1.90428 0
M  V30 1221 C 112.578 0.673589 3.38462 0
M  V30 1222 C 111.691 1.8379 3.90954 0
M  V30 1223 C 110.826 1.40381 5.12315 0
M  V30 1224 C 109.865 2.53746 5.57027 0
M  V30 1225 N 109.002 2.11136 6.69601 0
M  V30 1226 H 113.842 1.99048 2.21774 0
M  V30 1227 H 111.379 0.991277 1.08683 0
M  V30 1228 H 113.337 0.434964 4.14926 0
M  V30 1229 H 111.967 -0.227554 3.21997 0
M  V30 1230 H 111.019 2.18992 3.11041 0
M  V30 1231 H 112.331 2.68937 4.20089 0
M  V30 1232 H 111.485 1.12464 5.96185 0
M  V30 1233 H 110.224 0.523015 4.84887 0
M  V30 1234 H 109.229 2.82412 4.71724 0
M  V30 1235 H 110.454 3.42398 5.86464 0
M  V30 1236 H 108.4 1.25468 6.4389 0
M  V30 1237 H 108.317 2.89832 6.98236 0
M  V30 1238 H 109.585 1.86385 7.56889 0
M  V30 1239 N 113.814 -1.1601 1.06675 0
M  V30 1240 C 115.039 -1.91068 0.806706 0
M  V30 1241 C 115.464 -1.77112 -0.633485 0
M  V30 1242 O 114.822 -1.09908 -1.44187 0
M  V30 1243 C 114.87 -3.39655 1.21106 0
M  V30 1244 O 113.974 -4.10893 0.352189 0
M  V30 1245 H 113.315 -0.595125 0.294486 0
M  V30 1246 H 115.845 -1.46955 1.42356 0
M  V30 1247 H 115.855 -3.90434 1.18428 0
M  V30 1248 H 114.53 -3.49132 2.26008 0
M  V30 1249 H 113.107 -3.70285 0.440868 0
M  V30 1250 N 115.292 -0.849877 -1.32721 0
M  V30 1251 C 116.52 -0.464754 -2.01613 0
M  V30 1252 C 116.935 0.937191 -1.63897 0
M  V30 1253 O 116.292 1.61081 -0.857856 0
M  V30 1254 C 116.343 -0.588638 -3.56675 0
M  V30 1255 O 116.064 -1.93535 -3.93034 0
M  V30 1256 C 117.565 -0.2019 -4.4284 0
M  V30 1257 H 114.785 -0.183215 -0.645502 0
M  V30 1258 H 117.329 -1.1455 -1.69407 0
M  V30 1259 H 115.484 0.0443159 -3.87375 0
M  V30 1260 H 115.898 -1.92871 -4.87751 0
M  V30 1261 H 117.372 -0.339599 -5.50954 0
M  V30 1262 H 117.849 0.857224 -4.30753 0
M  V30 1263 H 118.455 -0.809733 -4.17521 0
M  V30 1264 N 116.77 1.45427 -0.607355 0
M  V30 1265 C 117.733 2.28974 0.101693 0
M  V30 1266 C 118.733 1.39754 0.795329 0
M  V30 1267 O 119.923 1.61878 0.643527 0
M  V30 1268 C 117.055 3.20768 1.15414 0
M  V30 1269 H 118.248 2.93147 -0.632844 0
M  V30 1270 H 115.801 1.51945 -0.366391 0
M  V30 1271 H 116.536 2.61395 1.91945 0
M  V30 1272 H 116.321 3.86489 0.66098 0
M  V30 1273 H 117.811 3.83589 1.65073 0
M  V30 1274 N 118.248 0.346503 1.53744 0
M  V30 1275 C 119.211 -0.496439 2.23759 0
M  V30 1276 C 120.211 -1.0252 1.2388 0
M  V30 1277 O 121.401 -0.913974 1.48297 0
M  V30 1278 C 118.533 -1.69187 2.95954 0
M  V30 1279 H 119.726 0.115952 2.99676 0
M  V30 1280 H 117.279 0.0978939 1.55993 0
M  V30 1281 H 118.014 -2.34288 2.24231 0
M  V30 1282 H 117.799 -1.31989 3.69217 0
M  V30 1283 H 119.289 -2.28969 3.49232 0
M  V30 1284 N 119.726 -1.57421 0.075193 0
M  V30 1285 C 120.659 -2.08528 -0.926904 0
M  V30 1286 C 121.637 -0.991171 -1.28898 0
M  V30 1287 O 122.821 -1.26479 -1.39769 0
M  V30 1288 C 119.948 -2.54576 -2.23402 0
M  V30 1289 C 118.994 -3.75454 -2.02327 0
M  V30 1290 S 119.827 -5.19989 -1.27951 0
M  V30 1291 C 120.983 -5.69372 -2.59935 0
M  V30 1292 H 121.216 -2.932 -0.492048 0
M  V30 1293 H 118.749 -1.53785 -0.137651 0
M  V30 1294 H 120.707 -2.81767 -2.98526 0
M  V30 1295 H 119.368 -1.70166 -2.64012 0
M  V30 1296 H 118.561 -4.05675 -2.99071 0
M  V30 1297 H 118.163 -3.48654 -1.35339 0
M  V30 1298 H 120.455 -5.76424 -3.56008 0
M  V30 1299 H 121.398 -6.68207 -2.34319 0
M  V30 1300 H 121.806 -4.97205 -2.67296 0
M  V30 1301 N 121.204 0.198386 -1.56346 0
M  V30 1302 C 122.429 0.939682 -1.84891 0
M  V30 1303 C 122.854 1.76202 -0.658369 0
M  V30 1304 O 122.212 1.76993 0.392851 0
M  V30 1305 C 122.26 1.81428 -3.11635 0
M  V30 1306 O 121.364 2.91265 -2.91956 0
M  V30 1307 H 120.705 0.264807 -0.608912 0
M  V30 1308 H 123.235 0.204695 -2.03573 0
M  V30 1309 H 123.245 2.21958 -3.42343 0
M  V30 1310 H 121.92 1.21004 -3.97908 0
M  V30 1311 H 120.497 2.54514 -2.72538 0
M  V30 1312 N 122.682 1.50554 0.465978 0
M  V30 1313 C 123.91 1.65563 1.24083 0
M  V30 1314 C 124.325 0.341051 1.85694 0
M  V30 1315 O 123.682 -0.677543 1.69457 0
M  V30 1316 C 123.733 2.75051 2.34583 0
M  V30 1317 O 123.454 4.01413 1.75497 0
M  V30 1318 C 124.955 3.01078 3.25372 0
M  V30 1319 H 122.175 0.55638 0.375077 0
M  V30 1320 H 124.719 1.96807 0.555624 0
M  V30 1321 H 122.874 2.46486 2.9887 0
M  V30 1322 H 123.288 4.62002 2.48303 0
M  V30 1323 H 124.762 3.81339 3.99105 0
M  V30 1324 H 125.239 2.12349 3.84453 0
M  V30 1325 H 125.845 3.31194 2.66816 0
M  V30 1326 N 124.16 -0.719506 1.40217 0
M  V30 1327 C 125.39 -1.50646 1.41384 0
M  V30 1328 C 125.798 -1.89197 0.0107743 0
M  V30 1329 O 125.141 -1.55709 -0.974708 0
M  V30 1330 C 125.203 -2.81405 2.23722 0
M  V30 1331 C 124.867 -2.65199 3.72181 0
M  V30 1332 C 125.864 -2.32717 4.64907 0
M  V30 1333 C 123.549 -2.81586 4.1595 0
M  V30 1334 C 125.543 -2.16827 5.99387 0
M  V30 1335 C 123.23 -2.65313 5.50502 0
M  V30 1336 C 124.228 -2.32981 6.42035 0
M  V30 1337 O 123.916 -2.16827 7.74107 0
M  V30 1338 H 123.648 -0.471606 0.484318 0
M  V30 1339 H 126.202 -0.895456 1.84853 0
M  V30 1340 H 124.432 -3.44823 1.75026 0
M  V30 1341 H 126.121 -3.43102 2.16878 0
M  V30 1342 H 126.887 -2.19694 4.32388 0
M  V30 1343 H 122.766 -3.0574 3.45027 0
M  V30 1344 H 126.31 -1.91513 6.70797 0
M  V30 1345 H 122.207 -2.7792 5.82607 0
M  V30 1346 H 122.975 -2.31778 7.84998 0
M  V30 1347 N 125.638 -1.25649 -0.95132 0
M  V30 1348 C 126.866 -1.13343 -1.73092 0
M  V30 1349 C 127.281 0.312434 -1.86197 0
M  V30 1350 O 126.638 1.21465 -1.36207 0
M  V30 1351 C 126.689 -1.78602 -3.14299 0
M  V30 1352 O 126.41 -3.17537 -3.01831 0
M  V30 1353 C 127.911 -1.72119 -4.08522 0
M  V30 1354 H 125.131 -0.395181 -0.542285 0
M  V30 1355 H 127.675 -1.66076 -1.19328 0
M  V30 1356 H 125.83 -1.29832 -3.64996 0
M  V30 1357 H 126.244 -3.49676 -3.90931 0
M  V30 1358 H 127.718 -2.22435 -5.052 0
M  V30 1359 H 128.195 -0.685635 -4.33815 0
M  V30 1360 H 128.801 -2.20393 -3.63741 0
M  V30 1361 N 127.117 1.15442 -1.07289 0
M  V30 1362 C 128.365 1.85845 -0.794096 0
M  V30 1363 C 128.686 1.82692 0.681809 0
M  V30 1364 O 127.956 1.26741 1.49377 0
M  V30 1365 H 126.536 0.688089 -0.290763 0
M  V30 1366 H 129.198 1.39947 -1.3565 0
M  V30 1367 H 128.294 2.91001 -1.12804 0
M  V30 1368 N 128.595 0.856903 1.32268 0
M  V30 1369 C 129.844 0.457599 1.96441 0
M  V30 1370 C 130.157 -0.992426 1.68553 0
M  V30 1371 O 131.363 -1.49727 2.26482 0
M  V30 1372 C 129.819 0.767358 3.51624 0
M  V30 1373 C 129.427 2.23326 3.88367 0
M  V30 1374 C 131.171 0.435887 4.22256 0
M  V30 1375 C 129.078 2.48613 5.36606 0
M  V30 1376 H 128.008 0.167387 0.735185 0
M  V30 1377 H 130.659 1.048 1.5063 0
M  V30 1378 H 129.041 0.106367 3.95857 0
M  V30 1379 H 130.215 2.93623 3.55137 0
M  V30 1380 H 128.53 2.52948 3.30766 0
M  V30 1381 H 131.127 0.602202 5.31298 0
M  V30 1382 H 131.47 -0.622672 4.11617 0
M  V30 1383 H 132.003 1.05286 3.83614 0
M  V30 1384 H 128.742 3.53101 5.52268 0
M  V30 1385 H 128.262 1.82896 5.71235 0
M  V30 1386 H 129.941 2.32676 6.03714 0
M  V30 1387 N 130.073 -1.45103 0.615059 0
M  V30 1388 C 131.32 -2.02183 0.113179 0
M  V30 1389 C 131.648 -1.48249 -1.25906 0
M  V30 1390 O 130.903 -0.650265 -1.84581 0
M  V30 1391 C 131.202 -3.57386 0.0318797 0
M  V30 1392 C 130.868 -4.30505 1.34077 0
M  V30 1393 C 129.53 -4.50197 1.69929 0
M  V30 1394 C 131.882 -4.72238 2.20546 0
M  V30 1395 C 129.21 -5.08881 2.91988 0
M  V30 1396 C 131.562 -5.32272 3.41861 0
M  V30 1397 C 130.226 -5.50187 3.77956 0
M  V30 1398 H 129.496 -0.739842 0.0414151 0
M  V30 1399 H 132.143 -1.74073 0.798168 0
M  V30 1400 H 130.448 -3.84817 -0.736409 0
M  V30 1401 H 132.145 -3.99264 -0.372712 0
M  V30 1402 H 128.735 -4.15496 1.05173 0
M  V30 1403 H 132.919 -4.56751 1.94146 0
M  V30 1404 H 128.175 -5.20939 3.2005 0
M  V30 1405 H 132.349 -5.63563 4.09109 0
M  V30 1406 H 129.976 -5.95427 4.72622 0
M  V30 1407 N 131.551 -0.354651 -1.53558 0
M  V30 1408 C 132.779 0.239515 -2.05509 0
M  V30 1409 C 133.194 1.4333 -1.2289 0
M  V30 1410 O 132.551 1.80538 -0.266899 0
M  V30 1411 C 132.602 0.643719 -3.55723 0
M  V30 1412 O 132.323 -0.502602 -4.35207 0
M  V30 1413 C 133.824 1.29743 -4.23889 0
M  V30 1414 H 131.044 0.0442697 -0.669538 0
M  V30 1415 H 133.588 -0.509856 -1.98042 0
M  V30 1416 H 131.743 1.34302 -3.63376 0
M  V30 1417 H 132.157 -0.178172 -5.24197 0
M  V30 1418 H 133.631 1.53091 -5.30346 0
M  V30 1419 H 134.108 2.25441 -3.76926 0
M  V30 1420 H 134.714 0.639865 -4.20459 0
M  V30 1421 N 133.029 1.57378 -0.0835403 0
M  V30 1422 C 134.306 1.85363 0.624507 0
M  V30 1423 C 134.686 0.978239 1.87066 0
M  V30 1424 O 134.034 0.0475908 2.2845 0
M  V30 1425 C 134.244 3.35795 0.950947 0
M  V30 1426 C 135.592 4.03581 1.31939 0
M  V30 1427 O 136.616 3.40609 1.04232 0
M  V30 1428 O 135.475 5.14672 1.83779 0
M  V30 1429 H 132.569 0.766162 0.311329 0
M  V30 1430 H 135.115 1.69307 -0.115362 0
M  V30 1431 H 133.887 3.91244 0.0663899 0
M  V30 1432 H 133.51 3.57154 1.74719 0
M  V30 1433 N 134.507 -0.190092 1.56449 0
M  V30 1434 C 135.439 -1.25973 1.91477 0
M  V30 1435 C 136.452 -1.41452 0.805931 0
M  V30 1436 O 137.641 -1.41789 1.08435 0
M  V30 1437 C 134.741 -2.63117 2.13594 0
M  V30 1438 C 133.914 -2.69182 3.4476 0
M  V30 1439 C 132.973 -3.87557 3.5593 0
M  V30 1440 O 131.999 -3.74427 4.28711 0
M  V30 1441 N 133.201 -5.03224 2.89388 0
M  V30 1442 H 135.966 -0.962394 2.83828 0
M  V30 1443 H 133.527 -0.379981 1.57378 0
M  V30 1444 H 135.519 -3.40742 2.1835 0
M  V30 1445 H 134.089 -2.85319 1.27719 0
M  V30 1446 H 133.309 -1.77793 3.51828 0
M  V30 1447 H 134.597 -2.70229 4.31107 0
M  V30 1448 H 133.995 -5.16791 2.30094 0
M  V30 1449 H 132.552 -5.78778 2.99764 0
M  V30 1450 N 135.985 -1.50799 -0.457987 0
M  V30 1451 C 137.231 -1.62683 -1.21088 0
M  V30 1452 C 137.564 -0.332268 -1.91336 0
M  V30 1453 O 136.839 0.667043 -1.82704 0
M  V30 1454 C 137.122 -2.81615 -2.24422 0
M  V30 1455 C 136.975 -4.20989 -1.58392 0
M  V30 1456 C 138.294 -2.96085 -3.2561 0
M  V30 1457 H 135.413 -0.592087 -0.438864 0
M  V30 1458 H 138.055 -1.83225 -0.50286 0
M  V30 1459 H 136.205 -2.64231 -2.84806 0
M  V30 1460 H 137.877 -4.49994 -1.01504 0
M  V30 1461 H 136.12 -4.24641 -0.886704 0
M  V30 1462 H 136.791 -5.0016 -2.33547 0
M  V30 1463 H 139.267 -3.12042 -2.75262 0
M  V30 1464 H 138.143 -3.80902 -3.95228 0
M  V30 1465 H 138.404 -2.0726 -3.90507 0
M  V30 1466 N 137.463 0.71206 -1.40597 0
M  V30 1467 C 138.393 1.83889 -1.43899 0
M  V30 1468 C 139.374 1.67442 -0.299504 0
M  V30 1469 O 140.559 1.87421 -0.508624 0
M  V30 1470 C 137.689 3.21877 -1.30431 0
M  V30 1471 C 136.643 3.53002 -2.42019 0
M  V30 1472 C 135.969 4.90172 -2.13626 0
M  V30 1473 C 137.269 3.53643 -3.84362 0
M  V30 1474 H 138.963 1.81383 -2.38203 0
M  V30 1475 H 136.509 0.871237 -1.14654 0
M  V30 1476 H 138.462 4.00404 -1.31357 0
M  V30 1477 H 137.186 3.24968 -0.326049 0
M  V30 1478 H 135.845 2.76818 -2.40349 0
M  V30 1479 H 135.493 4.89869 -1.14182 0
M  V30 1480 H 135.193 5.11962 -2.88389 0
M  V30 1481 H 136.717 5.71028 -2.1624 0
M  V30 1482 H 138.131 4.22203 -3.87837 0
M  V30 1483 H 136.528 3.86961 -4.58673 0
M  V30 1484 H 137.598 2.52954 -4.13693 0
M  V30 1485 N 138.941 1.26152 0.944643 0
M  V30 1486 C 140.166 1.14363 1.7302 0
M  V30 1487 C 140.591 -0.29772 1.85729 0
M  V30 1488 O 139.949 -1.2157 1.34501 0
M  V30 1489 C 139.997 1.81378 3.11664 0
M  V30 1490 O 139.101 1.10022 3.97453 0
M  V30 1491 H 138.442 0.398694 0.53098 0
M  V30 1492 H 140.972 1.66906 1.18337 0
M  V30 1493 H 140.982 1.88064 3.62072 0
M  V30 1494 H 139.657 2.86237 3.0173 0
M  V30 1495 H 138.234 1.11287 3.55907 0
M  V30 1496 N 140.419 -1.14872 1.07899 0
M  V30 1497 C 141.665 -1.86064 0.806725 0
M  V30 1498 C 141.998 -1.82434 -0.665706 0
M  V30 1499 O 141.273 -1.25138 -1.48899 0
M  V30 1500 C 141.556 -3.34929 1.32267 0
M  V30 1501 C 141.409 -3.47161 2.86006 0
M  V30 1502 C 142.728 -4.29863 0.943717 0
M  V30 1503 H 139.847 -0.675591 0.294526 0
M  V30 1504 H 142.489 -1.34925 1.33773 0
M  V30 1505 H 140.639 -3.78611 0.870974 0
M  V30 1506 H 142.311 -3.12302 3.39507 0
M  V30 1507 H 140.554 -2.88539 3.23925 0
M  V30 1508 H 141.225 -4.51777 3.17177 0
M  V30 1509 H 143.701 -3.9417 1.33302 0
M  V30 1510 H 142.577 -5.32494 1.33198 0
M  V30 1511 H 142.838 -4.41846 -0.149796 0
M  V30 1512 N 141.898 -0.863906 -1.31812 0
M  V30 1513 C 142.828 -0.330843 -2.31144 0
M  V30 1514 C 143.809 0.575005 -1.60087 0
M  V30 1515 O 144.994 0.493304 -1.8783 0
M  V30 1516 C 142.124 0.47374 -3.44054 0
M  V30 1517 C 141.078 -0.338481 -4.26659 0
M  V30 1518 C 140.404 0.591412 -5.31419 0
M  V30 1519 C 141.704 -1.56926 -4.98168 0
M  V30 1520 H 143.398 -1.16086 -2.75979 0
M  V30 1521 H 140.944 -0.559657 -1.32679 0
M  V30 1522 H 142.897 0.857143 -4.12591 0
M  V30 1523 H 141.621 1.33721 -2.9797 0
M  V30 1524 H 140.28 -0.703754 -3.59782 0
M  V30 1525 H 139.928 1.45199 -4.81587 0
M  V30 1526 H 139.628 0.0519022 -5.87577 0
M  V30 1527 H 141.152 0.97179 -6.02817 0
M  V30 1528 H 142.566 -1.25764 -5.59336 0
M  V30 1529 H 140.963 -2.04739 -5.64094 0
M  V30 1530 H 142.033 -2.32544 -4.25501 0
M  V30 1531 N 143.376 1.44774 -0.622745 0
M  V30 1532 C 144.323 2.30635 0.0871679 0
M  V30 1533 C 145.293 1.42994 0.845097 0
M  V30 1534 O 146.478 1.71907 0.827812 0
M  V30 1535 C 143.618 3.28144 1.06844 0
M  V30 1536 C 142.731 4.30888 0.309809 0
M  V30 1537 C 141.866 5.15494 1.28215 0
M  V30 1538 C 140.905 6.09953 0.512198 0
M  V30 1539 N 140.042 6.87287 1.43458 0
M  V30 1540 H 144.882 2.90803 -0.650974 0
M  V30 1541 H 142.419 1.43286 -0.33281 0
M  V30 1542 H 144.377 3.83157 1.65066 0
M  V30 1543 H 143.007 2.69695 1.77382 0
M  V30 1544 H 142.059 3.78414 -0.388181 0
M  V30 1545 H 143.371 4.97955 -0.290254 0
M  V30 1546 H 142.525 5.74983 1.93596 0
M  V30 1547 H 141.264 4.48481 1.91614 0
M  V30 1548 H 140.269 5.49581 -0.155151 0
M  V30 1549 H 141.494 6.78999 -0.116958 0
M  V30 1550 H 139.44 6.2295 2.05594 0
M  V30 1551 H 139.357 7.50763 0.888335 0
M  V30 1552 H 140.625 7.51306 2.07749 0
M  V30 1553 N 144.854 0.36279 1.53368 0
M  V30 1554 C 146.102 -0.227326 2.00817 0
M  V30 1555 C 146.423 -1.49511 1.25186 0
M  V30 1556 O 145.693 -1.92482 0.364348 0
M  V30 1557 H 144.273 -0.0869923 0.741917 0
M  V30 1558 H 146.935 0.488381 1.88682 0
M  V30 1559 H 146.031 -0.456273 3.08747 0
M  V30 1560 N 146.332 -1.57332 0.0918853 0
M  V30 1561 C 147.242 -2.17368 -0.882505 0
M  V30 1562 C 148.258 -1.14226 -1.31257 0
M  V30 1563 O 149.434 -1.46582 -1.38115 0
M  V30 1564 C 146.499 -2.73962 -2.12476 0
M  V30 1565 C 145.56 -3.92048 -1.7492 0
M  V30 1566 C 144.793 -4.45933 -2.93223 0
M  V30 1567 O 145.016 -3.98764 -4.07852 0
M  V30 1568 O 143.95 -5.36999 -2.71875 0
M  V30 1569 H 147.776 -3.01031 -0.40172 0
M  V30 1570 H 145.361 -1.48813 -0.132291 0
M  V30 1571 H 147.243 -3.10147 -2.85283 0
M  V30 1572 H 145.918 -1.93347 -2.59613 0
M  V30 1573 H 144.825 -3.6068 -0.993025 0
M  V30 1574 H 146.158 -4.74017 -1.32548 0
M  V30 1575 N 147.81 0.181792 -1.56548 0
M  V30 1576 C 148.72 1.24538 -1.98815 0
M  V30 1577 C 149.736 1.49045 -0.897861 0
M  V30 1578 O 150.912 1.61399 -1.20467 0
M  V30 1579 C 147.977 2.56683 -2.33055 0
M  V30 1580 C 147.038 2.40131 -3.55859 0
M  V30 1581 C 146.271 3.65975 -3.88456 0
M  V30 1582 O 146.494 4.70711 -3.22161 0
M  V30 1583 O 145.428 3.6071 -4.81842 0
M  V30 1584 H 149.254 0.916647 -2.89536 0
M  V30 1585 H 146.839 0.387842 -1.44278 0
M  V30 1586 H 148.721 3.34655 -2.56094 0
M  V30 1587 H 147.396 2.89157 -1.45498 0
M  V30 1588 H 146.303 1.60226 -3.38051 0
M  V30 1589 H 147.636 2.12585 -4.43924 0
M  V30 1590 O 149.327 1.58157 0.326881 0
M  V30 1591 H 150.018 1.6734 0.975558 0
M  V30 END ATOM
M  V30 BEGIN BOND
M  V30 END BOND
M  V30 END CTAB
M  END
$$$$
