drugbank_target|P02671 Fibrinogen alpha chain (DB00009; DB00015; DB00029; DB00031; DB01593; DB04919; DB05099; DB05675; DB06245; DB11300; DB11311; DB11571; DB11572; DB13151; DB14487; DB14533; DB14548)
 OpenBabel12092119343D

  0  0  0     0  0            999 V3000
M  V30 BEGIN CTAB
M  V30 COUNTS 12977 13127 0 0 0
M  V30 BEGIN ATOM
M  V30 1 H -0.908 1.98254 -0.117106 0
M  V30 2 N 0 1.576 0 0
M  V30 3 C 0.933 2.03868 1.02534 0
M  V30 4 C 1.911 0.928543 1.3348 0
M  V30 5 O 3.095 1.19667 1.45644 0
M  V30 6 C 0.222 2.43627 2.35294 0
M  V30 7 C -0.732 3.65373 2.2001 0
M  V30 8 S 0.101 5.13292 1.52614 0
M  V30 9 C 1.257 5.56322 2.86805 0
M  V30 10 H 1.49 2.90518 0.631377 0
M  V30 11 H -0.977 1.52953 0.210867 0
M  V30 12 H 0.981 2.67203 3.11629 0
M  V30 13 H -0.358 1.57376 2.7183 0
M  V30 14 H -1.165 3.90944 3.18086 0
M  V30 15 H -1.563 3.418 1.51819 0
M  V30 16 H 0.729 5.58782 3.83104 0
M  V30 17 H 1.672 6.56266 2.65933 0
M  V30 18 H 2.08 4.83886 2.90714 0
M  V30 19 N 1.4781 -0.272755 1.55222 0
M  V30 20 C 2.7251 -1.00433 1.7584 0
M  V30 21 C 3.0531 -1.86275 0.559629 0
M  V30 22 O 2.3081 -1.90269 -0.457857 0
M  V30 23 C 2.6071 -1.91642 3.01675 0
M  V30 24 C 2.2731 -1.21548 4.34208 0
M  V30 25 C 0.9351 -1.02166 4.70229 0
M  V30 26 C 3.2871 -0.716684 5.16249 0
M  V30 27 C 0.6151 -0.316334 5.85847 0
M  V30 28 C 2.9671 -0.0249476 6.32595 0
M  V30 29 C 1.6311 0.180579 6.67256 0
M  V30 30 H 0.9011 -0.367509 0.643443 0
M  V30 31 H 3.5481 -0.276596 1.89492 0
M  V30 32 H 1.8531 -2.71037 2.82924 0
M  V30 33 H 3.5501 -2.48369 3.14824 0
M  V30 34 H 0.1401 -1.37645 4.05896 0
M  V30 35 H 4.3241 -0.854047 4.88896 0
M  V30 36 H -0.4199 -0.146378 6.11225 0
M  V30 37 H 3.7541 0.369311 6.9542 0
M  V30 38 H 1.3811 0.729098 7.56696 0
M  V30 39 N 2.9562 -1.48159 -0.537278 0
M  V30 40 C 4.1812 -1.59707 -1.32319 0
M  V30 41 C 4.6062 -0.254859 -1.86365 0
M  V30 42 O 3.9642 0.772378 -1.64024 0
M  V30 43 C 4.0122 -2.6412 -2.45505 0
M  V30 44 O 3.1162 -2.20774 -3.48328 0
M  V30 45 H 2.4572 -0.535791 -0.392204 0
M  V30 46 H 4.9872 -1.94092 -0.647268 0
M  V30 47 H 4.9972 -2.85166 -2.91795 0
M  V30 48 H 3.6722 -3.61567 -2.05528 0
M  V30 49 H 2.2492 -2.09911 -3.08207 0
M  V30 50 N 4.4343 0.785586 -1.36625 0
M  V30 51 C 5.3673 1.90509 -1.25625 0
M  V30 52 C 6.3453 1.62 -0.139607 0
M  V30 53 O 7.5293 1.8591 -0.31141 0
M  V30 54 C 4.6563 3.25419 -0.939158 0
M  V30 55 C 3.7023 3.72856 -2.07077 0
M  V30 56 S 4.5353 3.88162 -3.68904 0
M  V30 57 C 5.6913 5.25942 -3.39317 0
M  V30 58 H 5.9243 1.99549 -2.20381 0
M  V30 59 H 3.4573 0.945226 -1.22085 0
M  V30 60 H 5.4153 4.03346 -0.763029 0
M  V30 61 H 4.0763 3.14099 -0.00931402 0
M  V30 62 H 3.2693 4.70624 -1.80357 0
M  V30 63 H 2.8713 3.01989 -2.20632 0
M  V30 64 H 5.1633 6.10651 -2.93447 0
M  V30 65 H 6.1063 5.57668 -4.36363 0
M  V30 66 H 6.5143 4.93224 -2.74573 0
M  V30 67 N 5.9124 1.20967 1.01018 0
M  V30 68 C 7.3284 0.965905 1.27053 0
M  V30 69 C 7.5284 -0.350785 1.98423 0
M  V30 70 O 6.5844 -1.07773 2.28344 0
M  V30 71 C 7.8974 2.15294 2.09926 0
M  V30 72 C 9.4454 2.19463 2.23171 0
M  V30 73 C 9.9204 3.3767 3.09424 0
M  V30 74 N 11.4114 3.37724 3.17012 0
M  V30 75 C 12.1464 4.25837 3.83993 0
M  V30 76 N 11.6424 5.24138 4.53047 0
M  V30 77 N 13.4354 4.1366 3.80581 0
M  V30 78 H 5.5864 2.0565 0.531194 0
M  V30 79 H 7.8494 0.90024 0.297106 0
M  V30 80 H 7.5554 3.10684 1.64828 0
M  V30 81 H 7.4294 2.13923 3.10672 0
M  V30 82 H 9.8164 1.24632 2.6749 0
M  V30 83 H 9.8974 2.2488 1.21912 0
M  V30 84 H 9.5414 4.32791 2.65808 0
M  V30 85 H 9.4714 3.29491 4.10784 0
M  V30 86 H 11.9624 2.6658 2.6785 0
M  V30 87 H 12.2754 5.87684 5.01844 0
M  V30 88 H 10.6204 5.28068 4.5185 0
M  V30 89 H 13.8114 3.36127 3.25785 0
M  V30 90 H 13.9844 4.82538 4.32505 0
M  V30 91 N 7.3905 -1.2043 1.01659 0
M  V30 92 C 8.6395 -1.89118 0.701237 0
M  V30 93 C 8.9525 -1.79705 -0.772358 0
M  V30 94 O 10.1585 -2.43528 -1.20026 0
M  V30 95 C 8.6145 -3.39168 1.20388 0
M  V30 96 C 8.2225 -3.57166 2.70438 0
M  V30 97 C 9.9665 -4.1341 0.963953 0
M  V30 98 C 7.8735 -5.01042 3.14183 0
M  V30 99 H 6.8035 -0.708267 0.2586 0
M  V30 100 H 9.4545 -1.36239 1.22927 0
M  V30 101 H 7.8365 -3.91369 0.603824 0
M  V30 102 H 9.0105 -3.15351 3.35992 0
M  V30 103 H 7.3255 -2.96294 2.92572 0
M  V30 104 H 9.9225 -5.19491 1.26621 0
M  V30 105 H 10.2655 -4.16181 -0.099578 0
M  V30 106 H 10.7985 -3.67309 1.52738 0
M  V30 107 H 7.5375 -5.03426 4.19812 0
M  V30 108 H 7.0575 -5.43668 2.53348 0
M  V30 109 H 8.7365 -5.69623 3.0682 0
M  V30 110 N 8.8686 -0.792821 -1.36206 0
M  V30 111 C 10.1146 -0.36733 -1.99446 0
M  V30 112 C 10.4476 1.05917 -1.62774 0
M  V30 113 O 9.7226 1.7324 -0.88421 0
M  V30 114 C 10.0056 -0.535044 -3.56103 0
M  V30 115 C 9.8586 -2.00548 -4.02617 0
M  V30 116 C 11.1776 0.0478191 -4.40074 0
M  V30 117 H 8.2966 -0.134941 -0.724541 0
M  V30 118 H 10.9386 -0.999794 -1.61568 0
M  V30 119 H 9.0886 0.00336329 -3.885 0
M  V30 120 H 10.7606 -2.60521 -3.80692 0
M  V30 121 H 9.0036 -2.50686 -3.54032 0
M  V30 122 H 9.6746 -2.07377 -5.11565 0
M  V30 123 H 12.1506 -0.411822 -4.14057 0
M  V30 124 H 11.0266 -0.0995336 -5.4881 0
M  V30 125 H 11.2876 1.14025 -4.27142 0
M  V30 126 N 10.3467 1.47872 -0.545128 0
M  V30 127 C 11.5867 2.04391 -0.0187854 0
M  V30 128 C 11.9507 1.41162 1.30144 0
M  V30 129 O 13.1517 1.88656 1.91474 0
M  V30 130 C 11.4227 3.57299 0.0850867 0
M  V30 131 S 12.9817 4.35221 0.559302 0
M  V30 132 H 9.7997 0.710737 -0.0193301 0
M  V30 133 H 12.4017 1.81395 -0.729125 0
M  V30 134 H 11.1057 4.00847 -0.880351 0
M  V30 135 H 10.6367 3.84773 0.819348 0
M  V30 136 H 12.6517 4.61571 1.82118 0
M  V30 137 N 11.8248 0.280983 1.55075 0
M  V30 138 C 12.7548 -0.597469 2.25727 0
M  V30 139 C 13.7358 -1.15417 1.24952 0
M  V30 140 O 14.9208 -1.18722 1.53684 0
M  V30 141 C 12.0508 -1.7789 2.98283 0
M  V30 142 C 11.0048 -1.35347 4.06036 0
M  V30 143 C 10.3308 -2.61846 4.66198 0
M  V30 144 C 11.6308 -0.499354 5.19907 0
M  V30 145 H 13.3248 -0.00824265 2.99399 0
M  V30 146 H 10.8708 -0.0025244 1.44 0
M  V30 147 H 12.8238 -2.39937 3.46422 0
M  V30 148 H 11.5478 -2.39405 2.22155 0
M  V30 149 H 10.2068 -0.756156 3.58717 0
M  V30 150 H 9.8548 -3.21632 3.86732 0
M  V30 151 H 9.5548 -2.3409 5.38958 0
M  V30 152 H 11.0788 -3.24732 5.1709 0
M  V30 153 H 12.4928 -1.02498 5.64063 0
M  V30 154 H 10.8898 -0.316424 5.99265 0
M  V30 155 H 11.9598 0.480459 4.82514 0
M  V30 156 N 13.3029 -1.57598 0.00835791 0
M  V30 157 C 14.5489 -1.91211 -0.675732 0
M  V30 158 C 14.8819 -0.883139 -1.72958 0
M  V30 159 O 14.1569 0.097016 -1.94258 0
M  V30 160 C 14.4399 -3.35379 -1.31123 0
M  V30 161 C 14.2929 -4.48999 -0.268356 0
M  V30 162 C 15.6119 -3.7912 -2.23508 0
M  V30 163 H 12.7309 -0.695374 -0.244179 0
M  V30 164 H 15.3729 -1.89901 0.0613655 0
M  V30 165 H 13.5229 -3.36626 -1.93946 0
M  V30 166 H 15.1949 -4.59887 0.360844 0
M  V30 167 H 13.4379 -4.31873 0.408482 0
M  V30 168 H 14.1089 -5.46851 -0.752218 0
M  V30 169 H 16.5849 -3.79477 -1.70693 0
M  V30 170 H 15.4609 -4.80729 -2.64936 0
M  V30 171 H 15.7219 -3.13455 -3.11766 0
M  V30 172 N 14.781 0.264519 -1.55364 0
M  V30 173 C 15.711 1.33121 -1.91836 0
M  V30 174 C 16.692 1.51101 -0.781192 0
M  V30 175 O 17.877 1.64003 -1.04003 0
M  V30 176 C 15.007 2.68921 -2.19769 0
M  V30 177 C 13.961 2.65661 -3.35571 0
M  V30 178 C 13.287 4.05093 -3.49004 0
M  V30 179 C 14.587 2.24187 -4.71739 0
M  V30 180 H 16.281 1.02844 -2.81182 0
M  V30 181 H 13.827 0.493286 -1.35287 0
M  V30 182 H 15.78 3.43663 -2.43872 0
M  V30 183 H 14.504 3.00799 -1.27231 0
M  V30 184 H 13.163 1.93377 -3.1145 0
M  V30 185 H 12.811 4.34206 -2.53917 0
M  V30 186 H 12.511 4.03804 -4.26868 0
M  V30 187 H 14.035 4.81561 -3.75408 0
M  V30 188 H 15.449 2.88654 -4.9533 0
M  V30 189 H 13.846 2.34044 -5.52579 0
M  V30 190 H 14.916 1.19327 -4.69988 0
M  V30 191 N 16.2591 1.48442 0.529413 0
M  V30 192 C 17.4841 1.60406 1.31471 0
M  V30 193 C 17.9091 0.264738 1.86228 0
M  V30 194 O 17.2671 -0.763668 1.64432 0
M  V30 195 C 17.3151 2.65419 2.44101 0
M  V30 196 O 16.4191 2.22618 3.47153 0
M  V30 197 H 15.7601 0.537863 0.389357 0
M  V30 198 H 18.2901 1.94432 0.636965 0
M  V30 199 H 18.3001 2.86709 2.90279 0
M  V30 200 H 16.9751 3.62652 2.03608 0
M  V30 201 H 15.5521 2.11543 3.0709 0
M  V30 202 N 17.7372 -0.778329 1.37039 0
M  V30 203 C 18.9832 -1.53892 1.32079 0
M  V30 204 C 19.3162 -1.9396 -0.0965386 0
M  V30 205 O 18.5912 -1.63568 -1.05242 0
M  V30 206 C 18.8742 -2.80847 2.25382 0
M  V30 207 C 18.7272 -2.47076 3.75864 0
M  V30 208 C 20.0462 -3.82741 2.1725 0
M  V30 209 H 17.1652 -0.558303 0.48111 0
M  V30 210 H 19.8072 -0.893397 1.67685 0
M  V30 211 H 17.9572 -3.35931 1.95148 0
M  V30 212 H 19.6292 -1.97957 4.16666 0
M  V30 213 H 17.8722 -1.79863 3.94755 0
M  V30 214 H 18.5432 -3.37798 4.36574 0
M  V30 215 H 21.0192 -3.37133 2.43887 0
M  V30 216 H 19.8952 -4.69303 2.84686 0
M  V30 217 H 20.1562 -4.2652 1.16331 0
M  V30 218 N 19.2153 -1.21501 -1.00376 0
M  V30 219 C 20.4613 -1.03452 -1.74429 0
M  V30 220 C 20.7943 0.430764 -1.89362 0
M  V30 221 O 20.0693 1.31962 -1.42886 0
M  V30 222 C 20.3523 -1.73375 -3.15615 0
M  V30 223 C 20.2053 -3.27431 -3.08397 0
M  V30 224 C 21.5243 -1.47732 -4.14564 0
M  V30 225 H 18.6433 -0.377226 -0.633143 0
M  V30 226 H 21.2853 -1.49693 -1.17013 0
M  V30 227 H 19.4353 -1.34064 -3.64636 0
M  V30 228 H 21.1073 -3.76119 -2.67081 0
M  V30 229 H 19.3503 -3.5767 -2.45468 0
M  V30 230 H 20.0213 -3.71524 -4.08258 0
M  V30 231 H 22.4973 -1.8186 -3.74254 0
M  V30 232 H 21.3733 -1.99169 -5.11491 0
M  V30 233 H 21.6343 -0.407589 -4.40217 0
M  V30 234 N 20.6934 1.19889 -1.02296 0
M  V30 235 C 21.9414 1.89046 -0.714558 0
M  V30 236 C 22.2624 1.79636 0.758681 0
M  V30 237 O 21.5324 1.20292 1.54618 0
M  V30 238 H 20.1124 0.699802 -0.261317 0
M  V30 239 H 22.7744 1.45574 -1.29592 0
M  V30 240 H 21.8704 2.95524 -1.0036 0
M  V30 241 N 22.1715 0.800033 1.35784 0
M  V30 242 C 23.3995 0.389606 2.03199 0
M  V30 243 C 23.8145 -0.997375 1.60306 0
M  V30 244 O 23.1715 -1.64154 0.797481 0
M  V30 245 C 23.2225 0.455855 3.58614 0
M  V30 246 O 22.9435 1.78815 3.99946 0
M  V30 247 C 24.4445 0.0374032 4.43284 0
M  V30 248 H 21.6645 0.159132 0.651857 0
M  V30 249 H 24.2085 1.08183 1.73541 0
M  V30 250 H 22.3635 -0.188057 3.86943 0
M  V30 251 H 22.7775 1.74636 4.94573 0
M  V30 252 H 24.2515 0.134882 5.51835 0
M  V30 253 H 24.7285 -1.01651 4.27275 0
M  V30 254 H 25.3345 0.654215 4.20238 0
M  V30 255 N 23.6496 -1.47581 0.552962 0
M  V30 256 C 24.6126 -2.28439 -0.186605 0
M  V30 257 C 25.6126 -1.36706 -0.84665 0
M  V30 258 O 26.8026 -1.59378 -0.703164 0
M  V30 259 C 23.9346 -3.16264 -1.2724 0
M  V30 260 H 25.1276 -2.95294 0.523609 0
M  V30 261 H 22.6806 -1.532 0.309745 0
M  V30 262 H 23.4156 -2.54091 -2.01514 0
M  V30 263 H 23.2006 -3.83769 -0.803968 0
M  V30 264 H 24.6906 -3.77198 -1.79196 0
M  V30 265 N 25.1277 -0.289203 -1.54924 0
M  V30 266 C 26.3737 0.316922 -2.00916 0
M  V30 267 C 26.7287 1.52424 -1.17408 0
M  V30 268 O 26.0217 1.90097 -0.239536 0
M  V30 269 C 26.2157 0.736119 -3.49737 0
M  V30 270 C 26.0447 -0.429036 -4.47649 0
M  V30 271 C 24.8147 -0.917311 -4.96904 0
M  V30 272 C 27.0127 -1.27016 -4.98369 0
M  V30 273 N 24.9947 -2.05046 -5.78644 0
M  V30 274 C 26.3657 -2.25097 -5.77695 0
M  V30 275 C 28.4207 -1.30188 -4.80578 0
M  V30 276 C 27.1237 -3.26114 -6.41126 0
M  V30 277 C 29.1497 -2.30057 -5.44819 0
M  V30 278 C 28.5117 -3.2687 -6.23968 0
M  V30 279 H 24.6107 0.0807535 -0.777819 0
M  V30 280 H 27.1947 -0.416434 -1.90194 0
M  V30 281 H 25.3657 1.43867 -3.60773 0
M  V30 282 H 27.0977 1.32078 -3.82541 0
M  V30 283 H 23.8527 -0.494248 -4.71014 0
M  V30 284 H 24.2767 -2.62108 -6.24202 0
M  V30 285 H 28.9187 -0.567163 -4.18979 0
M  V30 286 H 26.6367 -4.00512 -7.01866 0
M  V30 287 H 30.2227 -2.33271 -5.32988 0
M  V30 288 H 29.1027 -4.02883 -6.72796 0
M  V30 289 N 26.6058 1.57591 -0.0167156 0
M  V30 290 C 27.8338 1.95575 0.675128 0
M  V30 291 C 28.2488 0.892542 1.6637 0
M  V30 292 O 27.6058 -0.126912 1.82058 0
M  V30 293 C 27.6568 3.33608 1.39239 0
M  V30 294 O 27.3778 4.3585 0.443444 0
M  V30 295 C 28.8788 3.86151 2.17721 0
M  V30 296 H 26.0988 0.644423 0.186978 0
M  V30 297 H 28.6428 2.0437 -0.0728 0
M  V30 298 H 26.7978 3.2607 2.09182 0
M  V30 299 H 27.2118 5.158 0.951358 0
M  V30 300 H 28.6858 4.85114 2.63379 0
M  V30 301 H 29.1628 3.19738 3.01105 0
M  V30 302 H 29.7688 3.96918 1.52761 0
M  V30 303 N 28.0839 -0.256276 1.55502 0
M  V30 304 C 29.0469 -1.30047 1.88734 0
M  V30 305 C 30.0469 -1.4154 0.763086 0
M  V30 306 O 31.2369 -1.40403 1.03115 0
M  V30 307 C 28.3689 -2.67953 2.10747 0
M  V30 308 H 29.5619 -1.01802 2.82093 0
M  V30 309 H 27.1149 -0.495134 1.4825 0
M  V30 310 H 27.8499 -3.01351 1.19825 0
M  V30 311 H 27.6349 -2.60993 2.92617 0
M  V30 312 H 29.1249 -3.43368 2.37673 0
M  V30 313 N 29.562 -1.4872 -0.521534 0
M  V30 314 C 30.839 -1.4766 -1.2828 0
M  V30 315 C 31.219 -0.19292 -2.10217 0
M  V30 316 O 30.567 0.825193 -2.13079 0
M  V30 317 C 30.777 -2.74358 -2.15705 0
M  V30 318 C 32.125 -3.23028 -2.75569 0
M  V30 319 O 33.149 -2.75333 -2.25987 0
M  V30 320 O 32.008 -4.0604 -3.65778 0
M  V30 321 H 29.102 -0.590085 -0.579421 0
M  V30 322 H 31.648 -1.60963 -0.537492 0
M  V30 323 H 30.42 -3.59292 -1.54999 0
M  V30 324 H 30.043 -2.63816 -2.97467 0
M  V30 325 N 31.0401 0.771051 -1.3745 0
M  V30 326 C 32.2651 1.56529 -1.36065 0
M  V30 327 C 32.6901 1.88029 0.0515859 0
M  V30 328 O 32.0481 1.49282 1.02882 0
M  V30 329 C 32.0961 2.85187 -2.20683 0
M  V30 330 O 31.2001 3.79593 -1.61193 0
M  V30 331 H 30.5411 0.47411 -0.464883 0
M  V30 332 H 33.0711 0.954269 -1.80983 0
M  V30 333 H 33.0811 3.34283 -2.33921 0
M  V30 334 H 31.7561 2.61588 -3.23334 0
M  V30 335 H 30.3331 3.38239 -1.56999 0
M  V30 336 N 32.5182 1.22032 0.997298 0
M  V30 337 C 33.7662 1.04016 1.73278 0
M  V30 338 C 34.0872 -0.426255 1.90284 0
M  V30 339 O 33.3572 -1.30694 1.45931 0
M  V30 340 H 31.9372 0.381897 0.642 0
M  V30 341 H 34.5992 1.5347 1.20137 0
M  V30 342 H 33.6952 1.51441 2.72896 0
M  V30 343 N 33.9963 -1.19345 1.0293 0
M  V30 344 C 34.9063 -2.26245 0.620515 0
M  V30 345 C 35.9223 -1.70486 -0.347928 0
M  V30 346 O 37.0983 -2.00347 -0.205704 0
M  V30 347 C 34.1633 -3.46693 -0.0218957 0
M  V30 348 C 33.2243 -4.17632 0.994102 0
M  V30 349 C 32.4573 -5.32329 0.382253 0
M  V30 350 O 32.6803 -5.64552 -0.814676 0
M  V30 351 O 31.6143 -5.91664 1.10531 0
M  V30 352 H 35.4403 -2.63453 1.51083 0
M  V30 353 H 33.0253 -1.26207 0.799513 0
M  V30 354 H 34.9073 -4.19683 -0.380072 0
M  V30 355 H 33.5823 -3.11333 -0.886209 0
M  V30 356 H 32.4893 -3.4676 1.40387 0
M  V30 357 H 33.8223 -4.56964 1.8288 0
M  V30 358 N 35.4744 -0.807222 -1.35358 0
M  V30 359 C 36.7224 -0.387122 -1.98358 0
M  V30 360 C 37.0434 1.04942 -1.64354 0
M  V30 361 O 36.3134 1.72615 -0.926339 0
M  V30 362 H 34.8934 -0.140154 -0.733734 0
M  V30 363 H 37.5554 -1.0332 -1.6526 0
M  V30 364 H 36.6514 -0.493352 -3.08176 0
M  V30 365 N 36.9525 1.47285 -0.560781 0
M  V30 366 C 38.2295 1.9558 0.0277798 0
M  V30 367 C 38.6095 1.5034 1.48192 0
M  V30 368 O 37.9575 0.743882 2.16052 0
M  V30 369 C 38.1675 3.48789 -0.121418 0
M  V30 370 C 39.5155 4.24594 0.0220912 0
M  V30 371 O 40.5395 3.56166 -0.0491439 0
M  V30 372 O 39.3985 5.46217 0.175958 0
M  V30 373 H 36.4925 0.824663 0.0621342 0
M  V30 374 H 39.0385 1.5767 -0.627556 0
M  V30 375 H 37.8105 3.74533 -1.13316 0
M  V30 376 H 37.4335 3.93473 0.571366 0
M  V30 377 N 38.4306 0.297415 1.54768 0
M  V30 378 C 39.6776 -0.312913 2.00068 0
M  V30 379 C 40.0056 -1.54171 1.18582 0
M  V30 380 O 39.2606 -1.94108 0.249133 0
M  V30 381 C 39.5596 -0.717561 3.50123 0
M  V30 382 C 39.2256 0.409095 4.4904 0
M  V30 383 C 37.8876 0.718399 4.75807 0
M  V30 384 C 40.2396 1.16717 5.07963 0
M  V30 385 C 37.5676 1.78896 5.5876 0
M  V30 386 C 39.9196 2.22762 5.92081 0
M  V30 387 C 38.5836 2.54303 6.1716 0
M  V30 388 H 37.8536 -0.114503 0.7321 0
M  V30 389 H 40.5006 0.415767 1.86932 0
M  V30 390 H 38.8056 -1.52627 3.60849 0
M  V30 391 H 40.5026 -1.20091 3.82595 0
M  V30 392 H 37.0926 0.157918 4.28309 0
M  V30 393 H 41.2766 0.941466 4.87289 0
M  V30 394 H 36.5326 2.0381 5.7643 0
M  V30 395 H 40.7066 2.81962 6.36765 0
M  V30 396 H 38.3336 3.3739 6.81229 0
M  V30 397 N 39.9087 -1.5758 0.0250728 0
M  V30 398 C 40.8387 -2.13007 -0.956575 0
M  V30 399 C 41.8197 -1.0452 -1.342 0
M  V30 400 O 43.0047 -1.32332 -1.42133 0
M  V30 401 C 40.1347 -2.65386 -2.24026 0
M  V30 402 C 39.0887 -3.78623 -1.99571 0
M  V30 403 C 38.4147 -4.17414 -3.3417 0
M  V30 404 C 39.7147 -5.04867 -1.33814 0
M  V30 405 H 41.4087 -2.9528 -0.494991 0
M  V30 406 H 38.9547 -1.42042 -0.236651 0
M  V30 407 H 40.9077 -3.02794 -2.93076 0
M  V30 408 H 39.6317 -1.80268 -2.72343 0
M  V30 409 H 38.2907 -3.41646 -1.32941 0
M  V30 410 H 37.9387 -3.29284 -3.80238 0
M  V30 411 H 37.6387 -4.93719 -3.18615 0
M  V30 412 H 39.1627 -4.57402 -4.04495 0
M  V30 413 H 40.5767 -5.39888 -1.92857 0
M  V30 414 H 38.9737 -5.86144 -1.28669 0
M  V30 415 H 40.0437 -4.83904 -0.310561 0
M  V30 416 N 41.3868 0.248026 -1.55636 0
M  V30 417 C 42.3498 1.29044 -1.89421 0
M  V30 418 C 43.3498 1.41134 -0.770581 0
M  V30 419 O 44.5398 1.39854 -1.03858 0
M  V30 420 C 41.6718 2.66831 -2.12165 0
M  V30 421 H 42.8648 1.00305 -2.82629 0
M  V30 422 H 40.4178 0.487265 -1.48511 0
M  V30 423 H 41.1528 3.00711 -1.21422 0
M  V30 424 H 40.9378 2.59438 -2.93997 0
M  V30 425 H 42.4278 3.42103 -2.3949 0
M  V30 426 N 42.8649 1.48995 0.513639 0
M  V30 427 C 43.7749 1.67443 1.64317 0
M  V30 428 C 44.7909 0.556947 1.64846 0
M  V30 429 O 45.9669 0.830082 1.83498 0
M  V30 430 C 43.0319 1.72515 3.00732 0
M  V30 431 C 42.0929 2.96009 3.1093 0
M  V30 432 C 41.3259 3.00829 4.40837 0
M  V30 433 O 41.5489 2.13594 5.28898 0
M  V30 434 O 40.4829 3.93168 4.55744 0
M  V30 435 H 44.3089 2.63106 1.51687 0
M  V30 436 H 41.8939 1.32588 0.688543 0
M  V30 437 H 43.7759 1.78277 3.81831 0
M  V30 438 H 42.4509 0.800278 3.13651 0
M  V30 439 H 41.3579 2.9577 2.29065 0
M  V30 440 H 42.6909 3.87934 3.02933 0
M  V30 441 N 44.343 -0.763751 1.37857 0
M  V30 442 C 45.591 -1.51957 1.33243 0
M  V30 443 C 45.912 -1.94835 -0.0801709 0
M  V30 444 O 45.182 -1.66894 -1.02582 0
M  V30 445 H 43.762 -0.563626 0.49024 0
M  V30 446 H 46.424 -0.908504 1.7243 0
M  V30 447 H 45.52 -2.41523 1.97669 0
M  V30 448 N 45.8211 -1.22559 -0.990812 0
M  V30 449 C 47.0691 -1.04933 -1.72724 0
M  V30 450 C 47.3901 0.416158 -1.90508 0
M  V30 451 O 46.6601 1.29918 -1.46622 0
M  V30 452 H 45.2401 -0.385296 -0.639965 0
M  V30 453 H 47.9021 -1.54105 -1.19322 0
M  V30 454 H 46.9981 -1.52886 -2.72089 0
M  V30 455 N 47.2992 1.18797 -1.03562 0
M  V30 456 C 48.5472 1.88278 -0.734569 0
M  V30 457 C 48.8682 1.8043 0.739586 0
M  V30 458 O 48.1382 1.21925 1.53333 0
M  V30 459 H 46.7182 0.696991 -0.268725 0
M  V30 460 H 49.3802 1.44192 -1.31129 0
M  V30 461 H 48.4762 2.94443 -1.03489 0
M  V30 462 N 48.7773 0.814389 1.34928 0
M  V30 463 C 50.0233 0.399013 1.98836 0
M  V30 464 C 50.3563 -1.03314 1.64438 0
M  V30 465 O 49.6313 -1.71811 0.911659 0
M  V30 466 C 49.9143 0.591629 3.55207 0
M  V30 467 C 49.7673 2.06928 3.99376 0
M  V30 468 C 51.0863 0.022199 4.40094 0
M  V30 469 H 48.2053 0.146451 0.722303 0
M  V30 470 H 50.8473 1.02537 1.59957 0
M  V30 471 H 48.9973 0.0584441 3.88456 0
M  V30 472 H 50.6693 2.66544 3.76499 0
M  V30 473 H 48.9123 2.56287 3.49999 0
M  V30 474 H 49.5833 2.1549 5.08201 0
M  V30 475 H 52.0593 0.477643 4.13349 0
M  V30 476 H 50.9353 0.186832 5.48582 0
M  V30 477 H 51.1963 -1.07215 4.28902 0
M  V30 478 N 50.2554 -1.46986 0.568584 0
M  V30 479 C 51.6714 -1.57946 0.229189 0
M  V30 480 C 51.8714 -1.56567 -1.26843 0
M  V30 481 O 50.9274 -1.47511 -2.04931 0
M  V30 482 C 52.2404 -2.87963 0.865909 0
M  V30 483 C 53.7884 -3.01568 0.838188 0
M  V30 484 C 54.2634 -4.34301 1.45419 0
M  V30 485 N 55.7544 -4.40965 1.41788 0
M  V30 486 C 56.4894 -5.42256 1.86403 0
M  V30 487 N 55.9854 -6.50297 2.38926 0
M  V30 488 N 57.7784 -5.3337 1.77405 0
M  V30 489 H 49.9294 -1.46126 1.54146 0
M  V30 490 H 52.1924 -0.696156 0.643484 0
M  V30 491 H 51.8984 -2.94742 1.91886 0
M  V30 492 H 51.7724 -3.75423 0.365687 0
M  V30 493 H 54.1594 -2.94379 -0.206106 0
M  V30 494 H 54.2404 -2.1562 1.37629 0
M  V30 495 H 53.8844 -4.42247 2.49761 0
M  V30 496 H 53.8144 -5.19 0.891435 0
M  V30 497 H 56.3054 -3.63484 1.03381 0
M  V30 498 H 56.6184 -7.23777 2.70863 0
M  V30 499 H 54.9634 -6.51155 2.42944 0
M  V30 500 H 58.1544 -4.47865 1.3614 0
M  V30 501 H 58.3274 -6.12169 2.12492 0
M  V30 502 N 51.7335 -0.305618 -1.54608 0
M  V30 503 C 52.9815 0.301701 -1.99835 0
M  V30 504 C 53.3025 1.54054 -1.19551 0
M  V30 505 O 52.5725 1.93702 -0.292658 0
M  V30 506 H 51.1525 0.114468 -0.738178 0
M  V30 507 H 53.8145 -0.418016 -1.90364 0
M  V30 508 H 52.9105 0.570548 -3.06841 0
M  V30 509 N 53.2116 1.57565 -0.0334293 0
M  V30 510 C 54.6226 1.79746 0.504798 0
M  V30 511 C 54.9736 0.944091 1.71992 0
M  V30 512 O 54.0986 0.155694 2.15839 0
M  V30 513 C 54.6936 3.25997 0.922567 0
M  V30 514 C 53.2526 3.49159 1.40588 0
M  V30 515 C 52.3996 2.74785 0.372633 0
M  V30 516 H 55.3506 1.56565 -0.259436 0
M  V30 517 H 55.3716 3.35945 1.78666 0
M  V30 518 H 54.8836 3.88081 0.0379825 0
M  V30 519 H 52.9846 2.92332 2.31025 0
M  V30 520 H 53.0976 4.57873 1.41028 0
M  V30 521 H 51.4616 2.40391 0.841672 0
M  V30 522 H 52.2446 3.39587 -0.503559 0
M  V30 523 N 54.6897 -0.239769 1.55765 0
M  V30 524 C 56.1057 -0.588624 1.48349 0
M  V30 525 C 56.3057 -1.88005 0.72502 0
M  V30 526 O 55.3617 -2.51186 0.257269 0
M  V30 527 C 56.6747 -0.68474 2.928 0
M  V30 528 C 58.2227 -0.77659 3.03213 0
M  V30 529 C 58.6977 -0.904207 4.48986 0
M  V30 530 N 60.1887 -0.968896 4.52953 0
M  V30 531 C 60.9237 -1.08703 5.63002 0
M  V30 532 N 60.4197 -1.17026 6.82845 0
M  V30 533 N 62.2127 -1.12074 5.50814 0
M  V30 534 H 54.3637 0.607911 2.03515 0
M  V30 535 H 56.6267 0.21083 0.924259 0
M  V30 536 H 56.3327 0.194284 3.51163 0
M  V30 537 H 56.2067 -1.55435 3.43686 0
M  V30 538 H 58.5937 -1.64606 2.44926 0
M  V30 539 H 58.6747 0.118315 2.55526 0
M  V30 540 H 58.3187 -0.0392633 5.07885 0
M  V30 541 H 58.2487 -1.81426 4.9436 0
M  V30 542 H 60.7397 -0.915633 3.6664 0
M  V30 543 H 61.0527 -1.25966 7.62465 0
M  V30 544 H 59.3977 -1.13971 6.85591 0
M  V30 545 H 62.5887 -1.05226 4.5612 0
M  V30 546 H 62.7617 -1.20936 6.36615 0
M  V30 547 N 56.1678 -1.49265 -0.50573 0
M  V30 548 C 57.4138 -1.58748 -1.26202 0
M  V30 549 C 57.7468 -0.271227 -1.92297 0
M  V30 550 O 57.0218 0.724831 -1.80489 0
M  V30 551 C 57.3048 -2.74332 -2.33268 0
M  V30 552 C 57.1578 -4.15737 -1.71705 0
M  V30 553 C 58.4768 -2.85576 -3.34865 0
M  V30 554 H 55.5958 -0.577826 -0.457478 0
M  V30 555 H 58.2378 -1.81532 -0.560897 0
M  V30 556 H 56.3878 -2.55036 -2.93068 0
M  V30 557 H 58.0598 -4.46537 -1.15769 0
M  V30 558 H 56.3028 -4.21605 -1.02135 0
M  V30 559 H 56.9738 -4.92477 -2.49341 0
M  V30 560 H 59.4498 -3.03127 -2.8505 0
M  V30 561 H 58.3258 -3.68135 -4.07146 0
M  V30 562 H 58.5868 -1.94732 -3.96903 0
M  V30 563 N 57.6459 0.756429 -1.3826 0
M  V30 564 C 58.8919 1.51772 -1.34511 0
M  V30 565 C 59.2249 1.94089 0.0656691 0
M  V30 566 O 58.4999 1.65221 1.02626 0
M  V30 567 C 58.7829 2.77226 -2.29821 0
M  V30 568 C 58.6359 2.41065 -3.79747 0
M  V30 569 C 59.9549 3.79236 -2.23312 0
M  V30 570 H 57.0739 0.550578 -0.489931 0
M  V30 571 H 59.7159 0.866607 -1.69086 0
M  V30 572 H 57.8659 3.32784 -2.00467 0
M  V30 573 H 59.5379 1.91303 -4.19763 0
M  V30 574 H 57.7809 1.7356 -3.97567 0
M  V30 575 H 58.4519 3.3081 -4.41892 0
M  V30 576 H 60.9279 3.3321 -2.49219 0
M  V30 577 H 59.8039 4.64714 -2.92116 0
M  V30 578 H 60.0649 4.24615 -1.23102 0
M  V30 579 N 59.124 1.23083 0.984299 0
M  V30 580 C 60.034 1.02515 2.11016 0
M  V30 581 C 61.05 -0.0291702 1.73976 0
M  V30 582 O 62.226 0.165434 2.00719 0
M  V30 583 C 59.291 0.614673 3.41208 0
M  V30 584 C 58.352 1.74359 3.92297 0
M  V30 585 C 57.585 1.35261 5.16275 0
M  V30 586 O 57.808 0.235136 5.69915 0
M  V30 587 O 56.742 2.17227 5.61334 0
M  V30 588 H 60.568 1.96862 2.31255 0
M  V30 589 H 58.153 1.01753 1.09392 0
M  V30 590 H 60.035 0.396518 4.1953 0
M  V30 591 H 58.71 -0.299851 3.22308 0
M  V30 592 H 57.617 2.01635 3.1511 0
M  V30 593 H 58.95 2.63629 4.15645 0
M  V30 594 N 60.6021 -1.18246 1.0419 0
M  V30 595 C 62.0181 -1.40269 0.761366 0
M  V30 596 C 62.2181 -1.90777 -0.648578 0
M  V30 597 O 61.2741 -2.0929 -1.41258 0
M  V30 598 C 62.5871 -2.40237 1.8085 0
M  V30 599 C 64.1351 -2.53961 1.82955 0
M  V30 600 C 64.6101 -3.57194 2.86664 0
M  V30 601 N 66.1011 -3.64702 2.85563 0
M  V30 602 C 66.8361 -4.44309 3.6246 0
M  V30 603 N 66.3321 -5.27514 4.49111 0
M  V30 604 N 68.1251 -4.39084 3.50944 0
M  V30 605 H 60.2761 -0.837882 1.95175 0
M  V30 606 H 62.5391 -0.430608 0.84456 0
M  V30 607 H 62.2451 -2.10176 2.81991 0
M  V30 608 H 62.1191 -3.39601 1.64168 0
M  V30 609 H 64.5061 -2.83338 0.824855 0
M  V30 610 H 64.5871 -1.54706 2.03715 0
M  V30 611 H 64.2311 -3.28558 3.87314 0
M  V30 612 H 64.1611 -4.5613 2.6316 0
M  V30 613 H 66.6521 -3.05289 2.22727 0
M  V30 614 H 66.9651 -5.85411 5.04493 0
M  V30 615 H 65.3101 -5.2693 4.53178 0
M  V30 616 H 68.5011 -3.7313 2.82651 0
M  V30 617 H 68.6741 -5.00883 4.11121 0
M  V30 618 N 62.0802 -0.821533 -1.34494 0
M  V30 619 C 63.0302 -0.214793 -2.26986 0
M  V30 620 C 64.0142 0.620125 -1.4847 0
M  V30 621 O 65.2062 0.474933 -1.70509 0
M  V30 622 C 62.3352 0.623566 -3.37589 0
M  V30 623 C 61.4212 -0.221904 -4.23519 0
M  V30 624 N 61.8122 -1.29223 -4.89014 0
M  V30 625 C 60.1102 -0.00600922 -4.46 0
M  V30 626 C 60.8112 -1.80965 -5.52835 0
M  V30 627 N 59.7872 -1.11376 -5.32068 0
M  V30 628 H 63.5892 -1.03354 -2.75128 0
M  V30 629 H 61.1032 -0.6642 -1.48196 0
M  V30 630 H 63.1002 1.0744 -4.02818 0
M  V30 631 H 61.7602 1.44049 -2.90998 0
M  V30 632 H 62.7712 -1.67502 -4.90065 0
M  V30 633 H 59.4482 0.77886 -4.10171 0
M  V30 634 H 60.8382 -2.70502 -6.15043 0
M  V30 635 N 63.5583 1.46682 -0.576371 0
M  V30 636 C 64.4903 2.28341 0.198231 0
M  V30 637 C 65.5033 1.38141 0.861453 0
M  V30 638 O 66.6923 1.62797 0.732082 0
M  V30 639 C 63.7923 3.12986 1.29972 0
M  V30 640 C 62.9653 4.31271 0.729639 0
M  V30 641 C 62.0243 4.97363 1.71803 0
M  V30 642 O 61.0503 5.55156 1.25658 0
M  V30 643 N 62.2523 4.93796 3.05198 0
M  V30 644 H 65.0173 2.9546 -0.502324 0
M  V30 645 H 62.5783 1.56525 -0.413715 0
M  V30 646 H 64.5703 3.54066 1.96008 0
M  V30 647 H 63.1403 2.47984 1.90323 0
M  V30 648 H 62.3603 3.94052 -0.108012 0
M  V30 649 H 63.6483 5.07739 0.328438 0
M  V30 650 H 63.0463 4.48077 3.45317 0
M  V30 651 H 61.6033 5.38837 3.6674 0
M  V30 652 N 65.0364 0.313813 1.54444 0
M  V30 653 C 66.2614 -0.296681 2.05267 0
M  V30 654 C 66.6864 -1.45757 1.18897 0
M  V30 655 O 66.0444 -1.80239 0.195886 0
M  V30 656 C 66.0924 -0.71831 3.53373 0
M  V30 657 O 65.1964 -1.82175 3.69981 0
M  V30 658 H 64.5374 -0.0554061 0.661684 0
M  V30 659 H 67.0674 0.459387 1.99376 0
M  V30 660 H 67.0774 -1.00364 3.95463 0
M  V30 661 H 65.7524 0.130821 4.15694 0
M  V30 662 H 64.3294 -1.53598 3.39797 0
M  V30 663 N 66.5145 -1.57545 0.0417849 0
M  V30 664 C 67.4775 -2.09885 -0.92093 0
M  V30 665 C 68.4775 -1.01648 -1.24596 0
M  V30 666 O 69.6675 -1.27759 -1.1842 0
M  V30 667 C 66.7995 -2.57527 -2.23367 0
M  V30 668 H 67.9925 -2.96236 -0.467382 0
M  V30 669 H 65.5455 -1.5493 -0.206467 0
M  V30 670 H 66.2805 -1.74542 -2.73323 0
M  V30 671 H 66.0655 -3.36613 -2.01083 0
M  V30 672 H 67.5555 -2.98201 -2.92346 0
M  V30 673 N 67.9926 0.231505 -1.5589 0
M  V30 674 C 69.2326 0.964533 -1.80211 0
M  V30 675 C 69.5966 1.81926 -0.613744 0
M  V30 676 O 70.7976 2.58526 -0.736045 0
M  V30 677 C 69.0686 1.78956 -3.09369 0
M  V30 678 S 70.6276 2.57959 -3.54969 0
M  V30 679 H 67.4456 0.324173 -0.632798 0
M  V30 680 H 70.0476 0.230985 -1.94131 0
M  V30 681 H 68.7516 1.15161 -3.93911 0
M  V30 682 H 68.2826 2.56559 -2.9823 0
M  V30 683 H 70.2976 3.81309 -3.17519 0
M  V30 684 N 69.4707 1.49531 0.497807 0
M  V30 685 C 70.4177 1.66436 1.59899 0
M  V30 686 C 71.3877 0.505793 1.58212 0
M  V30 687 O 72.5727 0.733202 1.7615 0
M  V30 688 C 69.7127 1.7399 2.98029 0
M  V30 689 C 68.8257 3.01172 3.09708 0
M  V30 690 C 67.9607 2.99686 4.38591 0
M  V30 691 C 66.9997 4.21434 4.43914 0
M  V30 692 N 66.1367 4.1784 5.64229 0
M  V30 693 H 70.9767 2.60459 1.44793 0
M  V30 694 H 68.5137 1.29137 0.704423 0
M  V30 695 H 70.4717 1.76352 3.78095 0
M  V30 696 H 69.1017 0.834301 3.11832 0
M  V30 697 H 68.1537 3.08408 2.22685 0
M  V30 698 H 69.4657 3.91165 3.09502 0
M  V30 699 H 68.6197 3.00628 5.2698 0
M  V30 700 H 67.3587 2.07477 4.41367 0
M  V30 701 H 66.3637 4.20733 3.53926 0
M  V30 702 H 67.5887 5.14839 4.42851 0
M  V30 703 H 65.5347 3.28469 5.67841 0
M  V30 704 H 65.4517 5.01571 5.65652 0
M  V30 705 H 66.7197 4.22889 6.54817 0
M  V30 706 N 70.9488 -0.749086 1.3866 0
M  V30 707 C 72.2258 -1.4992 1.25632 0
M  V30 708 C 72.6058 -2.10633 -0.140317 0
M  V30 709 O 71.9538 -1.97437 -1.15025 0
M  V30 710 C 72.1638 -2.56195 2.36992 0
M  V30 711 C 73.5118 -3.22972 2.75634 0
M  V30 712 O 74.5358 -2.66502 2.36337 0
M  V30 713 O 73.3948 -4.25122 3.43415 0
M  V30 714 H 70.4888 -0.665067 0.491544 0
M  V30 715 H 73.0348 -0.784113 1.50498 0
M  V30 716 H 71.8068 -2.09612 3.30422 0
M  V30 717 H 71.4298 -3.35279 2.13714 0
M  V30 718 N 72.4269 -1.23603 -0.977757 0
M  V30 719 C 73.6519 -1.09735 -1.75991 0
M  V30 720 C 74.0769 0.346858 -1.84874 0
M  V30 721 O 73.4349 1.25093 -1.3123 0
M  V30 722 C 73.4829 -1.73051 -3.16363 0
M  V30 723 O 72.5869 -0.994452 -4.0023 0
M  V30 724 H 71.9279 -0.384476 -0.541364 0
M  V30 725 H 74.4579 -1.6371 -1.2272 0
M  V30 726 H 74.4679 -1.78398 -3.66931 0
M  V30 727 H 73.1429 -2.78137 -3.09213 0
M  V30 728 H 71.7199 -1.01812 -3.58732 0
M  V30 729 N 73.905 1.17692 -1.04816 0
M  V30 730 C 75.182 1.83768 -0.669963 0
M  V30 731 C 75.562 1.93232 0.849986 0
M  V30 732 O 74.91 1.46397 1.75443 0
M  V30 733 C 75.12 3.21641 -1.35455 0
M  V30 734 C 76.468 3.97592 -1.49017 0
M  V30 735 O 77.492 3.31107 -1.31326 0
M  V30 736 O 76.351 5.16729 -1.77914 0
M  V30 737 H 73.445 0.792799 -0.235368 0
M  V30 738 H 75.991 1.25021 -1.14751 0
M  V30 739 H 74.763 3.097 -2.39168 0
M  V30 740 H 74.386 3.88052 -0.866107 0
M  V30 741 N 75.3831 0.828654 1.34056 0
M  V30 742 C 76.6291 0.429279 1.98818 0
M  V30 743 C 76.9841 -0.998011 1.64492 0
M  V30 744 O 76.2771 -1.68652 0.909228 0
M  V30 745 C 76.4711 0.575226 3.52741 0
M  V30 746 C 76.3001 2.01515 4.02022 0
M  V30 747 C 75.0701 2.64825 4.30344 0
M  V30 748 C 77.2681 2.98261 4.18981 0
M  V30 749 N 75.2501 3.99998 4.65698 0
M  V30 750 C 76.6211 4.18356 4.57578 0
M  V30 751 C 78.6761 2.94802 4.01243 0
M  V30 752 C 77.3791 5.35454 4.80293 0
M  V30 753 C 79.4051 4.11121 4.25128 0
M  V30 754 C 78.7671 5.29969 4.64018 0
M  V30 755 H 74.8661 0.205304 0.754569 0
M  V30 756 H 77.4501 1.07457 1.62361 0
M  V30 757 H 75.6211 -0.0401962 3.88379 0
M  V30 758 H 77.3531 0.148292 4.04428 0
M  V30 759 H 74.1081 2.16027 4.21461 0
M  V30 760 H 74.5321 4.69653 4.87601 0
M  V30 761 H 79.1741 2.04054 3.70299 0
M  V30 762 H 76.8921 6.26755 5.10102 0
M  V30 763 H 80.4781 4.0985 4.12934 0
M  V30 764 H 79.3581 6.18479 4.82134 0
M  V30 765 N 76.8612 -1.46375 0.584142 0
M  V30 766 C 78.2722 -1.86031 0.157959 0
M  V30 767 C 78.6232 -1.48753 -1.27933 0
M  V30 768 O 77.7482 -0.903098 -1.96655 0
M  V30 769 C 78.3432 -3.37642 0.279892 0
M  V30 770 C 76.9022 -3.76289 -0.09143 0
M  V30 771 C 76.0492 -2.7039 0.615178 0
M  V30 772 H 79.0002 -1.37509 0.792274 0
M  V30 773 H 79.0212 -3.77275 -0.494364 0
M  V30 774 H 78.5332 -3.64742 1.32607 0
M  V30 775 H 76.6342 -3.54806 -1.13769 0
M  V30 776 H 76.7472 -4.78246 0.285886 0
M  V30 777 H 75.1112 -2.5464 0.0552833 0
M  V30 778 H 75.8942 -3.0033 1.66303 0
M  V30 779 N 78.3393 -0.321999 -1.54275 0
M  V30 780 C 79.5863 0.281044 -2.0054 0
M  V30 781 C 79.9143 1.52265 -1.21019 0
M  V30 782 O 79.1693 1.93687 -0.279982 0
M  V30 783 C 79.4683 0.661769 -3.5122 0
M  V30 784 C 79.1343 -0.480482 -4.48333 0
M  V30 785 C 77.7963 -0.794005 -4.74604 0
M  V30 786 C 80.1483 -1.24783 -5.06042 0
M  V30 787 C 77.4763 -1.87763 -5.55844 0
M  V30 788 C 79.8283 -2.32153 -5.88462 0
M  V30 789 C 78.4923 -2.64089 -6.13036 0
M  V30 790 H 77.7623 0.102841 -0.733829 0
M  V30 791 H 80.4093 -0.445453 -1.86247 0
M  V30 792 H 78.7143 1.46867 -3.63232 0
M  V30 793 H 80.4113 1.13989 -3.84457 0
M  V30 794 H 77.0013 -0.226039 -4.28004 0
M  V30 795 H 81.1853 -1.01887 -4.85729 0
M  V30 796 H 76.4413 -2.12954 -5.73115 0
M  V30 797 H 80.6153 -2.92057 -6.32199 0
M  V30 798 H 78.2423 -3.48185 -6.75775 0
M  V30 799 N 79.8174 1.5752 -0.0501392 0
M  V30 800 C 81.0574 1.94521 0.627783 0
M  V30 801 C 81.4214 0.928265 1.68069 0
M  V30 802 O 82.6224 1.18517 2.41261 0
M  V30 803 C 80.8934 3.36319 1.20932 0
M  V30 804 S 82.4524 3.95272 1.90539 0
M  V30 805 H 79.2704 0.680456 0.206158 0
M  V30 806 H 81.8724 1.95139 -0.118829 0
M  V30 807 H 80.5764 4.08132 0.430865 0
M  V30 808 H 80.1074 3.39193 1.99277 0
M  V30 809 H 82.1224 3.80415 3.18589 0
M  V30 810 N 81.2955 -0.223234 1.56011 0
M  V30 811 C 82.5205 -0.968978 1.83373 0
M  V30 812 C 82.9455 -1.77227 0.630254 0
M  V30 813 O 82.3035 -1.76345 -0.420959 0
M  V30 814 C 82.3515 -1.86363 3.08709 0
M  V30 815 O 81.4555 -2.95873 2.87285 0
M  V30 816 H 80.7965 -0.274461 0.604622 0
M  V30 817 H 83.3265 -0.237056 2.03222 0
M  V30 818 H 83.3365 -2.27376 3.38768 0
M  V30 819 H 82.0115 -1.27319 3.95933 0
M  V30 820 H 80.5885 -2.58818 2.68454 0
M  V30 821 N 82.7736 -1.49793 -0.48987 0
M  V30 822 C 84.0506 -1.50348 -1.25119 0
M  V30 823 C 84.4306 -0.237466 -2.0976 0
M  V30 824 O 83.7786 0.77981 -2.14782 0
M  V30 825 C 83.9886 -2.78872 -2.09837 0
M  V30 826 C 85.3366 -3.288 -2.68655 0
M  V30 827 O 86.3606 -2.80065 -2.20096 0
M  V30 828 O 85.2196 -4.13707 -3.57083 0
M  V30 829 H 82.3136 -0.602242 -0.566775 0
M  V30 830 H 84.8596 -1.62067 -0.503229 0
M  V30 831 H 83.6316 -3.62499 -1.47343 0
M  V30 832 H 83.2546 -2.70066 -2.91805 0
M  V30 833 N 84.2517 0.741722 -1.39055 0
M  V30 834 C 85.1617 1.88621 -1.39496 0
M  V30 835 C 86.1777 1.71557 -0.290578 0
M  V30 836 O 87.3537 1.94275 -0.530954 0
M  V30 837 C 84.4187 3.24134 -1.23037 0
M  V30 838 C 83.4797 3.5364 -2.43387 0
M  V30 839 C 82.7127 4.82687 -2.27703 0
M  V30 840 O 82.9357 5.55922 -1.27696 0
M  V30 841 O 81.8697 5.1194 -3.16545 0
M  V30 842 H 85.6957 1.91203 -2.35956 0
M  V30 843 H 83.2807 0.888625 -1.20099 0
M  V30 844 H 85.1627 4.0513 -1.15964 0
M  V30 845 H 83.8377 3.22337 -0.296691 0
M  V30 846 H 82.7447 2.72758 -2.56035 0
M  V30 847 H 84.0777 3.60209 -3.35425 0
M  V30 848 N 85.7298 1.2412 0.971189 0
M  V30 849 C 87.0068 0.986867 1.6888 0
M  V30 850 C 87.3868 -0.491857 2.0529 0
M  V30 851 O 86.7348 -1.46531 1.75331 0
M  V30 852 C 86.9448 1.9063 2.92338 0
M  V30 853 C 88.2928 2.17515 3.64654 0
M  V30 854 O 89.3168 1.88254 3.02388 0
M  V30 855 O 88.1758 2.6719 4.7673 0
M  V30 856 H 85.2698 0.372944 0.738134 0
M  V30 857 H 87.8158 1.35203 1.02559 0
M  V30 858 H 86.5878 2.90552 2.62097 0
M  V30 859 H 86.2108 1.54408 3.66393 0
M  V30 860 N 87.2079 -1.17134 1.05439 0
M  V30 861 C 88.4539 -1.87979 0.776872 0
M  V30 862 C 88.8089 -1.7965 -0.688751 0
M  V30 863 O 88.1019 -1.19535 -1.4974 0
M  V30 864 C 88.2959 -3.36833 1.19491 0
M  V30 865 C 88.1249 -3.59653 2.69963 0
M  V30 866 C 86.8949 -3.76234 3.37307 0
M  V30 867 C 89.0929 -3.59091 3.68182 0
M  V30 868 N 87.0749 -3.86922 4.76618 0
M  V30 869 C 88.4459 -3.75659 4.93235 0
M  V30 870 C 90.5009 -3.42255 3.61616 0
M  V30 871 C 89.2039 -3.77133 6.12506 0
M  V30 872 C 91.2299 -3.45018 4.8033 0
M  V30 873 C 90.5919 -3.62096 6.04207 0
M  V30 874 H 86.6909 -0.705876 0.336546 0
M  V30 875 H 89.2749 -1.40602 1.34682 0
M  V30 876 H 87.4459 -3.82873 0.652884 0
M  V30 877 H 89.1779 -3.95305 0.866966 0
M  V30 878 H 85.9329 -3.76193 2.87708 0
M  V30 879 H 86.3569 -3.96055 5.49062 0
M  V30 880 H 90.9989 -3.27986 2.66805 0
M  V30 881 H 88.7169 -3.90186 7.07659 0
M  V30 882 H 92.3029 -3.33246 4.76905 0
M  V30 883 H 91.1829 -3.64142 6.94529 0
M  V30 884 N 88.686 -0.835752 -1.33615 0
M  V30 885 C 89.634 -0.255238 -2.31195 0
M  V30 886 C 90.628 0.61107 -1.57995 0
M  V30 887 O 91.834 0.500979 -1.72888 0
M  V30 888 H 88.209 -0.0638085 -0.749288 0
M  V30 889 H 90.18 -1.09283 -2.77669 0
M  V30 890 C 88.929 0.55754 -3.43201 0
M  V30 891 H 88.252 -0.0997553 -3.99676 0
M  V30 892 H 89.692 0.929622 -4.13683 0
M  V30 893 C 88.151 1.73515 -2.88781 0
M  V30 894 O 88.681 2.83376 -2.84712 0
M  V30 895 N 86.887 1.55603 -2.4543 0
M  V30 896 H 86.434 0.662354 -2.48939 0
M  V30 897 H 86.392 2.34545 -2.09371 0
M  V30 898 N 90.1641 1.46063 -0.591896 0
M  V30 899 C 91.3941 2.06418 -0.0867676 0
M  V30 900 C 91.8021 1.43975 1.22751 0
M  V30 901 O 91.1451 0.542531 1.75506 0
M  V30 902 C 91.2071 3.59213 0.143725 0
M  V30 903 C 90.8711 4.439 -1.08635 0
M  V30 904 C 91.8681 4.79864 -2.00067 0
M  V30 905 C 89.5531 4.84896 -1.31077 0
M  V30 906 C 91.5471 5.55661 -3.12282 0
M  V30 907 C 89.2341 5.6045 -2.43596 0
M  V30 908 C 90.2321 5.95747 -3.34027 0
M  V30 909 O 89.9201 6.69772 -4.4459 0
M  V30 910 H 89.6521 0.673443 -0.0587447 0
M  V30 911 H 92.2061 1.88539 -0.814994 0
M  V30 912 H 90.4361 3.75433 0.926668 0
M  V30 913 H 92.1251 4.01463 0.5985 0
M  V30 914 H 92.8911 4.48763 -1.83947 0
M  V30 915 H 88.7701 4.56867 -0.61594 0
M  V30 916 H 92.3141 5.8313 -3.82891 0
M  V30 917 H 88.2111 5.90965 -2.59674 0
M  V30 918 H 88.9791 6.88207 -4.43073 0
M  V30 919 N 91.6422 0.330177 1.54103 0
M  V30 920 C 92.5892 -0.532762 2.24567 0
M  V30 921 C 93.5592 -1.10635 1.23892 0
M  V30 922 O 94.7442 -1.14546 1.5259 0
M  V30 923 C 91.8842 -1.6845 3.01195 0
M  V30 924 C 90.9972 -1.13951 4.167 0
M  V30 925 C 90.1322 -2.25746 4.80845 0
M  V30 926 C 89.1712 -1.6853 5.88442 0
M  V30 927 N 88.3082 -2.74014 6.46421 0
M  V30 928 H 93.1482 0.0746905 2.97906 0
M  V30 929 H 90.6852 0.048632 1.4702 0
M  V30 930 H 92.6432 -2.36234 3.43874 0
M  V30 931 H 91.2732 -2.26314 2.30178 0
M  V30 932 H 90.3252 -0.35301 3.78758 0
M  V30 933 H 91.6372 -0.680892 4.94131 0
M  V30 934 H 90.7912 -3.01422 5.26526 0
M  V30 935 H 89.5302 -2.74947 4.0281 0
M  V30 936 H 88.5352 -0.913543 5.42157 0
M  V30 937 H 89.7602 -1.20198 6.68378 0
M  V30 938 H 87.7062 -3.22494 5.71256 0
M  V30 939 H 87.6232 -2.32735 7.19285 0
M  V30 940 H 88.8912 -3.49499 6.96757 0
M  V30 941 N 93.1203 -1.57491 0.0584922 0
M  V30 942 C 94.3603 -1.94851 -0.617458 0
M  V30 943 C 94.7243 -0.937165 -1.67575 0
M  V30 944 O 95.9253 -1.19795 -2.40629 0
M  V30 945 C 94.1963 -3.36955 -1.19147 0
M  V30 946 S 95.7553 -3.96277 -1.8844 0
M  V30 947 H 92.5733 -0.681539 -0.202547 0
M  V30 948 H 95.1753 -1.95073 0.129176 0
M  V30 949 H 93.8793 -4.08355 -0.409215 0
M  V30 950 H 93.4103 -3.40245 -1.97476 0
M  V30 951 H 95.4253 -3.82099 -3.16568 0
M  V30 952 N 94.5984 0.214957 -1.56127 0
M  V30 953 C 96.0094 0.781386 -1.69562 0
M  V30 954 C 96.3604 1.84707 -0.66165 0
M  V30 955 O 95.4854 2.156 0.185927 0
M  V30 956 C 96.0804 1.42411 -3.07416 0
M  V30 957 C 94.6394 1.93786 -3.22683 0
M  V30 958 C 93.7864 0.800438 -2.65496 0
M  V30 959 H 96.7374 -0.00980633 -1.58697 0
M  V30 960 H 96.7584 2.29309 -3.0364 0
M  V30 961 H 96.2704 0.64826 -3.82648 0
M  V30 962 H 94.3714 2.74152 -2.52332 0
M  V30 963 H 94.4844 2.1133 -4.29973 0
M  V30 964 H 92.8484 1.2095 -2.2415 0
M  V30 965 H 93.6314 0.0371471 -3.4328 0
M  V30 966 N 96.0765 1.50051 0.48192 0
M  V30 967 C 97.3015 1.64508 1.26301 0
M  V30 968 C 97.7265 0.323851 1.85291 0
M  V30 969 O 97.0845 -0.710969 1.66778 0
M  V30 970 C 97.1325 2.7305 2.35533 0
M  V30 971 O 96.2365 2.3355 3.39895 0
M  V30 972 H 95.5775 0.549978 0.372048 0
M  V30 973 H 98.1075 1.9636 0.574786 0
M  V30 974 H 98.1175 2.95799 2.8101 0
M  V30 975 H 96.7925 3.68946 1.91967 0
M  V30 976 H 95.3695 2.21205 3.00204 0
M  V30 977 N 97.5546 -0.734337 1.39446 0
M  V30 978 C 98.8026 -1.49096 1.36436 0
M  V30 979 C 99.1236 -1.94961 -0.0388255 0
M  V30 980 O 98.3936 -1.69033 -0.990191 0
M  V30 981 H 96.9736 -0.5531 0.502085 0
M  V30 982 H 99.6356 -0.871725 1.74319 0
M  V30 983 H 98.7316 -2.37276 2.02747 0
M  V30 984 N 99.0327 -1.24633 -0.964593 0
M  V30 985 C 100.273 -1.09981 -1.72289 0
M  V30 986 C 100.637 0.354792 -1.88693 0
M  V30 987 O 101.838 0.62289 -2.61483 0
M  V30 988 C 100.109 -1.82262 -3.07434 0
M  V30 989 S 101.668 -1.83379 -3.98645 0
M  V30 990 H 98.4857 -0.393292 -0.59232 0
M  V30 991 H 101.088 -1.58009 -1.15123 0
M  V30 992 H 99.7917 -2.87206 -2.93157 0
M  V30 993 H 99.3227 -1.3458 -3.69664 0
M  V30 994 H 101.338 -0.903691 -4.87901 0
M  V30 995 N 100.511 1.16574 -1.06058 0
M  V30 996 C 101.927 1.3904 -0.783585 0
M  V30 997 C 102.127 1.91784 0.618145 0
M  V30 998 O 101.183 2.11511 1.37911 0
M  V30 999 C 102.496 2.37329 -1.84649 0
M  V30 1000 C 104.044 2.51018 -1.86973 0
M  V30 1001 C 104.519 3.52588 -2.92311 0
M  V30 1002 N 106.01 3.60113 -2.91329 0
M  V30 1003 C 106.745 4.38486 -3.69482 0
M  V30 1004 N 106.241 5.20302 -4.57447 0
M  V30 1005 N 108.034 4.33446 -3.57885 0
M  V30 1006 H 100.185 0.806725 -1.96483 0
M  V30 1007 H 102.448 0.417117 -0.851303 0
M  V30 1008 H 102.154 2.05663 -2.85299 0
M  V30 1009 H 102.028 3.36946 -1.6955 0
M  V30 1010 H 104.415 2.81989 -0.869827 0
M  V30 1011 H 104.496 1.51445 -2.0615 0
M  V30 1012 H 104.14 3.22354 -3.92492 0
M  V30 1013 H 104.07 4.51886 -2.70383 0
M  V30 1014 H 106.561 3.01707 -2.27555 0
M  V30 1015 H 106.874 5.77311 -5.13743 0
M  V30 1016 H 105.219 5.19653 -4.61503 0
M  V30 1017 H 108.41 3.68586 -2.88551 0
M  V30 1018 H 108.583 4.94279 -4.19037 0
M  V30 1019 N 101.989 0.842826 1.3317 0
M  V30 1020 C 102.922 0.223862 2.27099 0
M  V30 1021 C 103.9 -0.631311 1.49844 0
M  V30 1022 O 105.084 -0.590708 1.79005 0
M  V30 1023 C 102.211 -0.685313 3.31694 0
M  V30 1024 C 101.257 0.094919 4.26394 0
M  V30 1025 S 102.09 1.45546 5.15341 0
M  V30 1026 C 103.246 0.551685 6.23464 0
M  V30 1027 H 103.479 1.02015 2.79249 0
M  V30 1028 H 101.012 0.639797 1.4052 0
M  V30 1029 H 102.97 -1.20426 3.92438 0
M  V30 1030 H 101.631 -1.4553 2.78352 0
M  V30 1031 H 100.824 -0.597059 5.00451 0
M  V30 1032 H 100.426 0.545054 3.70007 0
M  V30 1033 H 102.718 -0.248877 6.77043 0
M  V30 1034 H 103.661 1.26253 6.96754 0
M  V30 1035 H 104.069 0.131275 5.64347 0
M  V30 1036 N 103.467 -1.45747 0.599634 0
M  V30 1037 C 104.414 -2.30467 -0.123849 0
M  V30 1038 C 105.384 -1.41632 -0.86774 0
M  V30 1039 O 106.569 -1.70568 -0.855056 0
M  V30 1040 C 103.709 -3.26402 -1.12051 0
M  V30 1041 C 102.822 -4.3034 -0.37832 0
M  V30 1042 C 101.957 -5.13389 -1.364 0
M  V30 1043 C 100.996 -6.09061 -0.609171 0
M  V30 1044 N 100.133 -6.84918 -1.54374 0
M  V30 1045 H 104.973 -2.91802 0.604627 0
M  V30 1046 H 102.51 -1.43797 0.309972 0
M  V30 1047 H 104.468 -3.80482 -1.7114 0
M  V30 1048 H 103.098 -2.66839 -1.8165 0
M  V30 1049 H 102.15 -3.78984 0.327929 0
M  V30 1050 H 103.462 -4.98354 0.210997 0
M  V30 1051 H 102.616 -5.7183 -2.02719 0
M  V30 1052 H 101.355 -4.45376 -1.98725 0
M  V30 1053 H 100.36 -5.49758 0.0676979 0
M  V30 1054 H 101.585 -6.79099 0.00891991 0
M  V30 1055 H 99.531 -6.19601 -2.15478 0
M  V30 1056 H 99.448 -7.49254 -1.00766 0
M  V30 1057 H 100.716 -7.47906 -2.19676 0
M  V30 1058 N 104.945 -0.338344 -1.53925 0
M  V30 1059 C 106.193 0.259245 -2.0043 0
M  V30 1060 C 106.514 1.51484 -1.22791 0
M  V30 1061 O 105.784 1.93037 -0.33368 0
M  V30 1062 H 104.364 0.0987845 -0.740439 0
M  V30 1063 H 107.026 -0.458302 -1.89435 0
M  V30 1064 H 106.122 0.505334 -3.07982 0
M  V30 1065 N 106.423 1.57458 -0.0668435 0
M  V30 1066 C 107.353 2.15468 0.899764 0
M  V30 1067 C 108.334 1.08042 1.31381 0
M  V30 1068 O 109.519 1.36054 1.38574 0
M  V30 1069 C 106.649 2.71232 2.16911 0
M  V30 1070 C 105.603 3.83781 1.89463 0
M  V30 1071 C 104.929 4.26127 3.22986 0
M  V30 1072 C 106.229 5.08238 1.20381 0
M  V30 1073 H 107.923 2.96488 0.416529 0
M  V30 1074 H 105.469 1.4262 0.198908 0
M  V30 1075 H 107.422 3.10458 2.84945 0
M  V30 1076 H 106.146 1.87426 2.67468 0
M  V30 1077 H 104.805 3.45051 1.23836 0
M  V30 1078 H 104.453 3.39249 3.71374 0
M  V30 1079 H 104.153 5.01993 3.05413 0
M  V30 1080 H 105.677 4.67966 3.92225 0
M  V30 1081 H 107.091 5.44811 1.78475 0
M  V30 1082 H 105.488 5.89349 1.13083 0
M  V30 1083 H 106.558 4.84558 0.182153 0
M  V30 1084 N 107.901 -0.206675 1.56239 0
M  V30 1085 C 109.15 -0.926964 1.79138 0
M  V30 1086 C 109.463 -1.84901 0.638043 0
M  V30 1087 O 110.669 -2.60906 0.751033 0
M  V30 1088 C 109.125 -1.6986 3.17294 0
M  V30 1089 C 108.733 -0.821956 4.40395 0
M  V30 1090 C 110.477 -2.40922 3.4951 0
M  V30 1091 C 108.384 -1.59179 5.69575 0
M  V30 1092 H 107.314 -0.349864 0.667915 0
M  V30 1093 H 109.965 -0.180487 1.8261 0
M  V30 1094 H 108.347 -2.48853 3.08039 0
M  V30 1095 H 109.521 -0.0715019 4.60745 0
M  V30 1096 H 107.836 -0.222741 4.15804 0
M  V30 1097 H 110.433 -2.99047 4.43255 0
M  V30 1098 H 110.776 -3.14542 2.72707 0
M  V30 1099 H 111.309 -1.68905 3.60161 0
M  V30 1100 H 108.048 -0.898589 6.49312 0
M  V30 1101 H 107.568 -2.31648 5.53262 0
M  V30 1102 H 109.247 -2.14862 6.10281 0
M  V30 1103 N 109.379 -1.50304 -0.473955 0
M  V30 1104 C 110.656 -1.51667 -1.23518 0
M  V30 1105 C 111.036 -0.259701 -2.09496 0
M  V30 1106 O 110.384 0.756986 -2.15597 0
M  V30 1107 C 110.594 -2.81082 -2.06868 0
M  V30 1108 C 111.942 -3.31631 -2.65153 0
M  V30 1109 O 112.966 -2.82384 -2.17113 0
M  V30 1110 O 111.825 -4.17471 -3.52675 0
M  V30 1111 H 108.919 -0.60822 -0.560355 0
M  V30 1112 H 111.465 -1.62592 -0.486011 0
M  V30 1113 H 110.237 -3.64041 -1.4349 0
M  V30 1114 H 109.86 -2.73146 -2.88924 0
M  V30 1115 N 110.857 0.726932 -1.39834 0
M  V30 1116 C 111.767 1.87131 -1.41489 0
M  V30 1117 C 112.783 1.71239 -0.308757 0
M  V30 1118 O 113.959 1.93701 -0.551529 0
M  V30 1119 C 111.024 3.22811 -1.26468 0
M  V30 1120 C 110.085 3.51039 -2.47124 0
M  V30 1121 C 109.318 4.80245 -2.3281 0
M  V30 1122 O 109.541 5.54537 -1.33585 0
M  V30 1123 O 108.475 5.08554 -3.21957 0
M  V30 1124 H 112.301 1.8869 -2.3797 0
M  V30 1125 H 109.886 0.875837 -1.21035 0
M  V30 1126 H 111.768 4.03877 -1.20255 0
M  V30 1127 H 110.443 3.22005 -0.330862 0
M  V30 1128 H 109.35 2.70027 -2.58914 0
M  V30 1129 H 110.683 3.56632 -3.39227 0
M  V30 1130 N 112.336 1.25143 0.95797 0
M  V30 1131 C 113.582 1.09855 1.70469 0
M  V30 1132 C 113.915 -0.360187 1.90831 0
M  V30 1133 O 113.19 -1.26568 1.47685 0
M  V30 1134 C 113.473 1.8497 3.08963 0
M  V30 1135 C 113.326 3.38652 2.96032 0
M  V30 1136 C 114.645 1.63016 4.08795 0
M  V30 1137 H 111.764 0.400465 0.618706 0
M  V30 1138 H 114.406 1.53933 1.11376 0
M  V30 1139 H 112.556 1.47505 3.59409 0
M  V30 1140 H 114.228 3.85772 2.52938 0
M  V30 1141 H 112.471 3.66534 2.32025 0
M  V30 1142 H 113.142 3.8642 3.94187 0
M  V30 1143 H 115.618 1.95625 3.67247 0
M  V30 1144 H 114.494 2.18015 5.03747 0
M  V30 1145 H 114.755 0.570692 4.38401 0
M  V30 1146 N 113.814 -1.1601 1.06675 0
M  V30 1147 C 114.762 -2.22586 0.675157 0
M  V30 1148 C 115.756 -1.66525 -0.310766 0
M  V30 1149 O 116.962 -1.79145 -0.175215 0
M  V30 1150 H 113.337 -0.724855 0.200223 0
M  V30 1151 H 115.308 -2.52899 1.58381 0
M  V30 1152 C 114.057 -3.47604 0.0817162 0
M  V30 1153 H 113.38 -3.91058 0.831484 0
M  V30 1154 H 114.82 -4.23718 -0.154708 0
M  V30 1155 C 113.279 -3.15718 -1.17576 0
M  V30 1156 O 113.809 -3.31878 -2.26318 0
M  V30 1157 N 112.015 -2.69816 -1.07923 0
M  V30 1158 H 111.562 -2.56866 -0.194293 0
M  V30 1159 H 111.52 -2.48855 -1.92141 0
M  V30 1160 N 115.292 -0.849877 -1.32721 0
M  V30 1161 C 116.224 -0.248332 -2.27851 0
M  V30 1162 C 117.237 0.577218 -1.52224 0
M  V30 1163 O 118.426 0.402489 -1.73903 0
M  V30 1164 C 115.526 0.668107 -3.32249 0
M  V30 1165 C 114.699 -0.120534 -4.37234 0
M  V30 1166 C 113.758 0.720932 -5.21238 0
M  V30 1167 O 112.784 0.156166 -5.68986 0
M  V30 1168 N 113.986 2.03647 -5.43607 0
M  V30 1169 H 116.751 -1.06575 -2.80111 0
M  V30 1170 H 114.312 -0.709395 -1.45531 0
M  V30 1171 H 116.304 1.23627 -3.85355 0
M  V30 1172 H 114.874 1.38621 -2.80184 0
M  V30 1173 H 114.094 -0.870108 -3.84477 0
M  V30 1174 H 115.382 -0.662406 -5.0447 0
M  V30 1175 H 114.78 2.51871 -5.06535 0
M  V30 1176 H 113.337 2.55287 -5.99727 0
M  V30 1177 N 116.77 1.45427 -0.607355 0
M  V30 1178 C 118.047 1.9557 -0.0344566 0
M  V30 1179 C 118.427 1.54979 1.43334 0
M  V30 1180 O 117.775 0.812241 2.13576 0
M  V30 1181 C 117.985 3.48226 -0.232321 0
M  V30 1182 C 119.333 4.2445 -0.113001 0
M  V30 1183 O 120.357 3.55829 -0.162431 0
M  V30 1184 O 119.216 5.465 0.00209442 0
M  V30 1185 H 116.31 0.826222 0.0358667 0
M  V30 1186 H 118.856 1.55594 -0.6774 0
M  V30 1187 H 117.628 3.70739 -1.25174 0
M  V30 1188 H 117.251 3.95092 0.445896 0
M  V30 1189 N 118.248 0.346503 1.53744 0
M  V30 1190 C 119.495 -0.249104 2.00962 0
M  V30 1191 C 119.823 -1.5032 1.23426 0
M  V30 1192 O 119.078 -1.93217 0.310761 0
M  V30 1193 C 119.377 -0.605809 3.52228 0
M  V30 1194 C 119.043 0.551747 4.47512 0
M  V30 1195 C 117.705 0.86941 4.73281 0
M  V30 1196 C 120.057 1.32818 5.03993 0
M  V30 1197 C 117.385 1.96582 5.52786 0
M  V30 1198 C 119.737 2.41486 5.84694 0
M  V30 1199 C 118.401 2.73808 6.08757 0
M  V30 1200 H 117.671 -0.0911538 0.735372 0
M  V30 1201 H 120.318 0.475027 1.85515 0
M  V30 1202 H 118.623 -1.4107 3.65522 0
M  V30 1203 H 120.32 -1.07858 3.86222 0
M  V30 1204 H 116.91 0.294102 4.2759 0
M  V30 1205 H 121.094 1.09602 4.84047 0
M  V30 1206 H 116.35 2.22045 5.69654 0
M  V30 1207 H 120.524 3.02078 6.27473 0
M  V30 1208 H 118.151 3.58892 6.7015 0
M  V30 1209 N 119.726 -1.57421 0.075193 0
M  V30 1210 C 120.954 -1.97946 -0.602076 0
M  V30 1211 C 121.369 -0.953674 -1.62943 0
M  V30 1212 O 120.726 0.0592551 -1.82404 0
M  V30 1213 C 120.777 -3.38546 -1.26762 0
M  V30 1214 O 120.498 -4.37195 -0.281376 0
M  V30 1215 C 121.999 -3.93966 -2.03239 0
M  V30 1216 H 119.219 -0.650918 -0.162931 0
M  V30 1217 H 121.763 -2.03959 0.148601 0
M  V30 1218 H 119.918 -3.33609 -1.96936 0
M  V30 1219 H 120.332 -5.18975 -0.759267 0
M  V30 1220 H 121.806 -4.94555 -2.45193 0
M  V30 1221 H 122.283 -3.30693 -2.8903 0
M  V30 1222 H 122.889 -4.02315 -1.37924 0
M  V30 1223 N 121.204 0.198386 -1.56346 0
M  V30 1224 C 122.152 1.26538 -1.95169 0
M  V30 1225 C 123.146 1.47295 -0.836685 0
M  V30 1226 O 124.352 1.48195 -1.02167 0
M  V30 1227 H 120.727 0.424744 -0.620561 0
M  V30 1228 H 122.698 0.910904 -2.84157 0
M  V30 1229 C 121.447 2.6035 -2.30463 0
M  V30 1230 H 120.77 2.45192 -3.15786 0
M  V30 1231 H 122.21 3.33762 -2.61494 0
M  V30 1232 C 120.669 3.17096 -1.13806 0
M  V30 1233 O 121.199 3.99588 -0.41135 0
M  V30 1234 N 119.405 2.75795 -0.915736 0
M  V30 1235 H 118.952 2.08816 -1.50843 0
M  V30 1236 H 118.91 3.14101 -0.136979 0
M  V30 1237 N 122.682 1.50554 0.465978 0
M  V30 1238 C 124.098 1.38093 0.800154 0
M  V30 1239 C 124.298 0.440988 1.96615 0
M  V30 1240 O 123.354 -0.114499 2.5224 0
M  V30 1241 C 124.667 2.79565 1.10742 0
M  V30 1242 C 126.215 2.88516 1.21357 0
M  V30 1243 C 126.69 4.30833 1.55393 0
M  V30 1244 N 128.181 4.33807 1.62375 0
M  V30 1245 C 128.916 5.40927 1.90225 0
M  V30 1246 N 128.412 6.58247 2.16062 0
M  V30 1247 N 130.205 5.28376 1.9177 0
M  V30 1248 H 122.356 2.10237 -0.302366 0
M  V30 1249 H 124.619 0.945203 -0.0727746 0
M  V30 1250 H 124.325 3.50208 0.323661 0
M  V30 1251 H 124.199 3.17125 2.04234 0
M  V30 1252 H 126.586 2.1809 1.98799 0
M  V30 1253 H 126.667 2.54492 0.258321 0
M  V30 1254 H 126.311 5.01799 0.784889 0
M  V30 1255 H 126.241 4.62347 2.52076 0
M  V30 1256 H 128.732 3.49212 1.44427 0
M  V30 1257 H 129.045 7.3569 2.36601 0
M  V30 1258 H 127.39 6.61413 2.13444 0
M  V30 1259 H 130.581 4.35715 1.71085 0
M  V30 1260 H 130.754 6.11944 2.13139 0
M  V30 1261 N 124.16 -0.719506 1.40217 0
M  V30 1262 C 125.409 -1.47486 1.37589 0
M  V30 1263 C 125.722 -1.9559 -0.0201568 0
M  V30 1264 O 126.928 -2.70973 -0.169049 0
M  V30 1265 C 125.384 -2.66575 2.41796 0
M  V30 1266 C 124.992 -2.25358 3.87192 0
M  V30 1267 C 126.736 -3.4433 2.48269 0
M  V30 1268 C 124.643 -3.41262 4.83005 0
M  V30 1269 H 123.573 -0.553901 0.511576 0
M  V30 1270 H 126.224 -0.783427 1.65936 0
M  V30 1271 H 124.606 -3.3787 2.06543 0
M  V30 1272 H 125.78 -1.61509 4.31569 0
M  V30 1273 H 124.095 -1.60657 3.84159 0
M  V30 1274 H 126.692 -4.30569 3.17041 0
M  V30 1275 H 127.035 -3.87872 1.51198 0
M  V30 1276 H 127.568 -2.80076 2.82493 0
M  V30 1277 H 124.307 -3.02755 5.81394 0
M  V30 1278 H 123.827 -4.0404 4.43297 0
M  V30 1279 H 125.506 -4.07383 5.02641 0
M  V30 1280 N 125.638 -1.25649 -0.95132 0
M  V30 1281 C 126.586 -1.06118 -2.06982 0
M  V30 1282 C 127.58 0.00889169 -1.69398 0
M  V30 1283 O 128.786 -0.146988 -1.79399 0
M  V30 1284 H 125.161 -0.326248 -0.677544 0
M  V30 1285 H 127.132 -2.00932 -2.2061 0
M  V30 1286 C 125.881 -0.700145 -3.40578 0
M  V30 1287 H 125.204 -1.51537 -3.69968 0
M  V30 1288 H 126.644 -0.603211 -4.19687 0
M  V30 1289 C 125.103 0.59403 -3.31622 0
M  V30 1290 O 125.633 1.63522 -3.66911 0
M  V30 1291 N 123.839 0.58089 -2.84735 0
M  V30 1292 H 123.386 -0.266783 -2.56215 0
M  V30 1293 H 123.344 1.44695 -2.79125 0
M  V30 1294 N 127.117 1.15442 -1.07289 0
M  V30 1295 C 128.064 2.20161 -0.692653 0
M  V30 1296 C 129.034 1.63073 0.31564 0
M  V30 1297 O 130.219 1.89725 0.202235 0
M  V30 1298 C 127.359 3.44967 -0.0959509 0
M  V30 1299 C 126.472 4.16256 -1.15564 0
M  V30 1300 C 125.607 5.28609 -0.524011 0
M  V30 1301 C 124.646 5.91715 -1.56653 0
M  V30 1302 N 123.783 6.9554 -0.957531 0
M  V30 1303 H 128.623 2.52037 -1.59002 0
M  V30 1304 H 126.16 1.2378 -0.794798 0
M  V30 1305 H 128.118 4.16341 0.267628 0
M  V30 1306 H 126.748 3.1361 0.764772 0
M  V30 1307 H 125.8 3.43385 -1.6368 0
M  V30 1308 H 127.112 4.59268 -1.94613 0
M  V30 1309 H 126.266 6.06604 -0.108032 0
M  V30 1310 H 125.005 4.86787 0.29825 0
M  V30 1311 H 124.01 5.12433 -1.9923 0
M  V30 1312 H 125.235 6.35614 -2.39107 0
M  V30 1313 H 123.181 6.55814 -0.156162 0
M  V30 1314 H 123.098 7.36977 -1.68526 0
M  V30 1315 H 124.366 7.77435 -0.567032 0
M  V30 1316 N 128.595 0.856903 1.32268 0
M  V30 1317 C 129.525 0.31858 2.31316 0
M  V30 1318 C 130.506 -0.583487 1.59779 0
M  V30 1319 O 131.691 -0.503259 1.87566 0
M  V30 1320 C 128.821 -0.491979 3.43798 0
M  V30 1321 C 127.775 0.315849 4.26833 0
M  V30 1322 C 127.101 -0.619586 5.31098 0
M  V30 1323 C 128.401 1.54282 4.98993 0
M  V30 1324 H 130.095 1.14621 2.76591 0
M  V30 1325 H 127.641 0.552613 1.32974 0
M  V30 1326 H 129.594 -0.879012 4.1213 0
M  V30 1327 H 128.318 -1.35299 2.97257 0
M  V30 1328 H 126.977 0.684664 3.6015 0
M  V30 1329 H 126.625 -1.47751 4.8081 0
M  V30 1330 H 126.325 -0.0830621 5.87541 0
M  V30 1331 H 127.849 -1.00375 6.02293 0
M  V30 1332 H 129.263 1.22796 5.59995 0
M  V30 1333 H 127.66 2.01745 5.65172 0
M  V30 1334 H 128.73 2.30285 4.26728 0
M  V30 1335 N 130.073 -1.45103 0.615059 0
M  V30 1336 C 131.02 -2.30586 -0.0993978 0
M  V30 1337 C 131.99 -1.42544 -0.852669 0
M  V30 1338 O 133.175 -1.71465 -0.836917 0
M  V30 1339 C 130.315 -3.27572 -1.08583 0
M  V30 1340 C 129.428 -4.30717 -0.332656 0
M  V30 1341 C 128.563 -5.14807 -1.30947 0
M  V30 1342 C 127.602 -6.09673 -0.544538 0
M  V30 1343 N 126.739 -6.86517 -1.47101 0
M  V30 1344 H 131.579 -2.91144 0.635542 0
M  V30 1345 H 129.116 -1.4346 0.325206 0
M  V30 1346 H 131.074 -3.82276 -1.67095 0
M  V30 1347 H 129.704 -2.68751 -1.78809 0
M  V30 1348 H 128.756 -3.78615 0.368107 0
M  V30 1349 H 130.068 -4.98102 0.263842 0
M  V30 1350 H 129.222 -5.73948 -1.96643 0
M  V30 1351 H 127.961 -4.47458 -1.9399 0
M  V30 1352 H 126.966 -5.49656 0.126003 0
M  V30 1353 H 128.191 -6.79052 0.080947 0
M  V30 1354 H 126.137 -6.21851 -2.08895 0
M  V30 1355 H 126.054 -7.50281 -0.928137 0
M  V30 1356 H 127.322 -7.50194 -2.11731 0
M  V30 1357 N 131.551 -0.354651 -1.53558 0
M  V30 1358 C 132.499 0.512195 -2.26891 0
M  V30 1359 C 133.493 1.09263 -1.29452 0
M  V30 1360 O 134.699 1.03709 -1.47121 0
M  V30 1361 H 131.074 0.183878 -0.729173 0
M  V30 1362 H 133.045 -0.128202 -2.98124 0
M  V30 1363 C 131.794 1.64563 -3.06291 0
M  V30 1364 H 131.117 1.20829 -3.81104 0
M  V30 1365 H 132.557 2.22711 -3.60799 0
M  V30 1366 C 131.016 2.58158 -2.16462 0
M  V30 1367 O 131.546 3.60695 -1.76811 0
M  V30 1368 N 129.752 2.27096 -1.81317 0
M  V30 1369 H 129.299 1.43751 -2.1376 0
M  V30 1370 H 129.257 2.89975 -1.21498 0
M  V30 1371 N 133.029 1.57378 -0.0835403 0
M  V30 1372 C 134.254 1.98682 0.594987 0
M  V30 1373 C 134.679 0.961969 1.61641 0
M  V30 1374 O 134.037 -0.0709989 1.81161 0
M  V30 1375 C 134.085 3.38988 1.2296 0
M  V30 1376 O 133.189 3.39208 2.34546 0
M  V30 1377 H 132.53 0.646368 0.152002 0
M  V30 1378 H 135.06 2.03961 -0.161533 0
M  V30 1379 H 135.07 3.76431 1.57366 0
M  V30 1380 H 133.745 4.13107 0.481228 0
M  V30 1381 H 132.322 3.13548 2.01846 0
M  V30 1382 N 134.507 -0.190092 1.56449 0
M  V30 1383 C 135.437 -1.23816 1.97969 0
M  V30 1384 C 136.418 -1.47201 0.852395 0
M  V30 1385 O 137.603 -1.58854 1.1171 0
M  V30 1386 C 134.733 -2.5813 2.3235 0
M  V30 1387 C 133.687 -2.49348 3.47864 0
M  V30 1388 C 133.013 -3.8798 3.67934 0
M  V30 1389 C 134.313 -2.01424 4.81898 0
M  V30 1390 H 136.007 -0.89311 2.85769 0
M  V30 1391 H 133.553 -0.428177 1.37487 0
M  V30 1392 H 135.506 -3.31637 2.59991 0
M  V30 1393 H 134.23 -2.94386 1.41438 0
M  V30 1394 H 132.889 -1.78297 3.20321 0
M  V30 1395 H 132.537 -4.21597 2.74344 0
M  V30 1396 H 132.237 -3.82978 4.45648 0
M  V30 1397 H 133.761 -4.63101 3.97957 0
M  V30 1398 H 135.175 -2.64693 5.08538 0
M  V30 1399 H 133.572 -2.07413 5.63116 0
M  V30 1400 H 134.642 -0.967677 4.75146 0
M  V30 1401 N 135.985 -1.50799 -0.457987 0
M  V30 1402 C 137.232 -1.62442 -1.20908 0
M  V30 1403 C 137.56 -0.330865 -1.91665 0
M  V30 1404 O 136.815 0.68401 -1.83357 0
M  V30 1405 C 137.114 -2.76358 -2.2663 0
M  V30 1406 C 136.78 -4.16378 -1.73033 0
M  V30 1407 C 135.442 -4.54473 -1.58138 0
M  V30 1408 C 137.794 -5.03836 -1.33413 0
M  V30 1409 C 135.122 -5.77754 -1.02065 0
M  V30 1410 C 137.474 -6.27676 -0.78778 0
M  V30 1411 C 136.138 -6.64562 -0.625561 0
M  V30 1412 H 135.408 -0.594417 -0.442435 0
M  V30 1413 H 138.055 -1.84772 -0.503136 0
M  V30 1414 H 136.36 -2.48167 -3.03184 0
M  V30 1415 H 138.057 -2.82568 -2.84528 0
M  V30 1416 H 134.647 -3.86331 -1.85598 0
M  V30 1417 H 138.831 -4.75026 -1.4375 0
M  V30 1418 H 134.087 -6.04997 -0.882547 0
M  V30 1419 H 138.261 -6.94797 -0.472177 0
M  V30 1420 H 135.888 -7.59965 -0.188926 0
M  V30 1421 N 137.463 0.71206 -1.40597 0
M  V30 1422 C 138.373 1.8562 -1.43466 0
M  V30 1423 C 139.389 1.70902 -0.326902 0
M  V30 1424 O 140.565 1.93105 -0.572043 0
M  V30 1425 C 137.63 3.21451 -1.29884 0
M  V30 1426 C 136.691 3.48398 -2.50833 0
M  V30 1427 C 135.924 4.77749 -2.3789 0
M  V30 1428 O 136.147 5.53089 -1.39459 0
M  V30 1429 O 135.081 5.05111 -3.27333 0
M  V30 1430 H 138.907 1.86155 -2.39958 0
M  V30 1431 H 136.492 0.86295 -1.21957 0
M  V30 1432 H 138.374 4.02579 -1.24531 0
M  V30 1433 H 137.049 3.21636 -0.364997 0
M  V30 1434 H 135.956 2.67265 -2.61763 0
M  V30 1435 H 137.289 3.53014 -3.4299 0
M  V30 1436 N 138.941 1.26152 0.944643 0
M  V30 1437 C 140.171 1.14094 1.72239 0
M  V30 1438 C 140.579 -0.306931 1.86694 0
M  V30 1439 O 139.922 -1.22222 1.3714 0
M  V30 1440 C 139.984 1.73316 3.14963 0
M  V30 1441 C 139.648 3.2239 3.23904 0
M  V30 1442 C 140.645 4.19252 3.07447 0
M  V30 1443 C 138.33 3.62788 3.47405 0
M  V30 1444 C 140.324 5.54491 3.14353 0
M  V30 1445 C 138.011 4.98162 3.53947 0
M  V30 1446 C 139.009 5.93823 3.37436 0
M  V30 1447 O 138.697 7.26732 3.43679 0
M  V30 1448 H 138.429 0.398292 0.546205 0
M  V30 1449 H 140.983 1.67201 1.19301 0
M  V30 1450 H 139.213 1.14667 3.69308 0
M  V30 1451 H 140.902 1.56214 3.74636 0
M  V30 1452 H 141.668 3.8938 2.8915 0
M  V30 1453 H 137.547 2.88816 3.59313 0
M  V30 1454 H 141.091 6.29137 3.01384 0
M  V30 1455 H 136.988 5.27695 3.71763 0
M  V30 1456 H 137.756 7.3496 3.60245 0
M  V30 1457 N 140.419 -1.14872 1.07899 0
M  V30 1458 C 141.351 -2.19425 0.662231 0
M  V30 1459 C 142.364 -1.60231 -0.288079 0
M  V30 1460 O 143.553 -1.78336 -0.076534 0
M  V30 1461 C 140.653 -3.38867 -0.0470695 0
M  V30 1462 C 139.826 -4.27597 0.920831 0
M  V30 1463 C 138.885 -5.25616 0.247805 0
M  V30 1464 O 137.911 -5.62189 0.890599 0
M  V30 1465 N 139.113 -5.71746 -1.00435 0
M  V30 1466 H 141.878 -2.55797 1.56166 0
M  V30 1467 H 139.439 -1.30042 0.964404 0
M  V30 1468 H 141.431 -4.01497 -0.50813 0
M  V30 1469 H 140.001 -3.00864 -0.848523 0
M  V30 1470 H 139.221 -3.61982 1.56087 0
M  V30 1471 H 140.509 -4.83748 1.57688 0
M  V30 1472 H 139.907 -5.44153 -1.54642 0
M  V30 1473 H 138.464 -6.36389 -1.40899 0
M  V30 1474 N 141.898 -0.863906 -1.31812 0
M  V30 1475 C 142.845 -0.313303 -2.28664 0
M  V30 1476 C 143.815 0.584868 -1.55462 0
M  V30 1477 O 145 0.517805 -1.83639 0
M  V30 1478 C 142.14 0.48441 -3.41683 0
M  V30 1479 C 141.253 -0.440594 -4.29747 0
M  V30 1480 C 140.388 0.370652 -5.29905 0
M  V30 1481 C 139.427 -0.551164 -6.09613 0
M  V30 1482 N 138.564 0.223462 -7.01744 0
M  V30 1483 H 143.404 -1.14444 -2.75148 0
M  V30 1484 H 140.941 -0.575769 -1.35364 0
M  V30 1485 H 142.899 0.962627 -4.05943 0
M  V30 1486 H 141.529 1.28029 -2.96325 0
M  V30 1487 H 140.581 -1.03724 -3.65986 0
M  V30 1488 H 141.893 -1.14767 -4.85417 0
M  V30 1489 H 141.047 0.911638 -5.99812 0
M  V30 1490 H 139.786 1.11105 -4.74876 0
M  V30 1491 H 138.791 -1.10396 -5.38603 0
M  V30 1492 H 140.016 -1.29032 -6.66729 0
M  V30 1493 H 137.962 0.946787 -6.49132 0
M  V30 1494 H 137.879 -0.424399 -7.54808 0
M  V30 1495 H 139.147 0.745876 -7.75923 0
M  V30 1496 N 143.376 1.44774 -0.622745 0
M  V30 1497 C 144.324 2.32387 0.0994683 0
M  V30 1498 C 145.318 1.46859 0.844326 0
M  V30 1499 O 146.524 1.63254 0.758174 0
M  V30 1500 H 142.899 0.750273 0.0509291 0
M  V30 1501 H 144.87 2.91062 -0.65767 0
M  V30 1502 C 143.619 3.30723 1.07319 0
M  V30 1503 H 142.942 3.96541 0.509462 0
M  V30 1504 H 144.382 3.94725 1.54817 0
M  V30 1505 C 142.841 2.59021 2.15429 0
M  V30 1506 O 143.371 2.38286 3.23393 0
M  V30 1507 N 141.577 2.189 1.91131 0
M  V30 1508 H 141.124 2.35964 1.03337 0
M  V30 1509 H 141.082 1.71251 2.63668 0
M  V30 1510 N 144.854 0.36279 1.53368 0
M  V30 1511 C 145.802 -0.500155 2.27159 0
M  V30 1512 C 146.796 -1.08575 1.3003 0
M  V30 1513 O 148.002 -1.02927 1.47668 0
M  V30 1514 H 144.377 -0.180009 0.730138 0
M  V30 1515 H 146.348 0.14401 2.98052 0
M  V30 1516 C 145.097 -1.62937 3.07159 0
M  V30 1517 H 144.42 -1.18806 3.8174 0
M  V30 1518 H 145.86 -2.20795 3.61975 0
M  V30 1519 C 144.319 -2.57007 2.17829 0
M  V30 1520 O 144.849 -3.59752 1.78721 0
M  V30 1521 N 143.055 -2.26131 1.82518 0
M  V30 1522 H 142.602 -1.42616 2.14519 0
M  V30 1523 H 142.56 -2.89327 1.23034 0
M  V30 1524 N 146.332 -1.57332 0.0918853 0
M  V30 1525 C 147.279 -2.13847 -0.868211 0
M  V30 1526 C 148.249 -1.05618 -1.28196 0
M  V30 1527 O 149.434 -1.33387 -1.36427 0
M  V30 1528 C 146.574 -2.72062 -2.12312 0
M  V30 1529 C 145.687 -3.94514 -1.7602 0
M  V30 1530 C 144.822 -4.40903 -2.96273 0
M  V30 1531 C 143.861 -5.55953 -2.56092 0
M  V30 1532 N 142.998 -5.97209 -3.69169 0
M  V30 1533 H 147.838 -2.95575 -0.379406 0
M  V30 1534 H 145.375 -1.46048 -0.175606 0
M  V30 1535 H 147.333 -3.03931 -2.858 0
M  V30 1536 H 145.963 -1.93068 -2.58698 0
M  V30 1537 H 145.015 -3.68979 -0.925135 0
M  V30 1538 H 146.327 -4.7802 -1.42472 0
M  V30 1539 H 145.481 -4.74539 -3.78018 0
M  V30 1540 H 144.22 -3.56291 -3.33029 0
M  V30 1541 H 143.225 -5.21948 -1.72773 0
M  V30 1542 H 144.45 -6.42311 -2.20484 0
M  V30 1543 H 142.396 -5.15543 -4.05649 0
M  V30 1544 H 142.313 -6.75504 -3.39456 0
M  V30 1545 H 143.581 -6.35475 -4.51434 0
M  V30 1546 N 147.81 0.181792 -1.56548 0
M  V30 1547 C 149.087 0.926765 -1.72251 0
M  V30 1548 C 149.467 2.00831 -0.650386 0
M  V30 1549 O 148.815 2.26008 0.336521 0
M  V30 1550 C 149.025 1.50106 -3.1507 0
M  V30 1551 C 150.373 1.97805 -3.75711 0
M  V30 1552 O 151.397 1.59922 -3.18282 0
M  V30 1553 O 150.256 2.67555 -4.76525 0
M  V30 1554 H 147.35 0.435506 -0.703039 0
M  V30 1555 H 149.896 0.170443 -1.68842 0
M  V30 1556 H 148.668 0.72212 -3.84579 0
M  V30 1557 H 148.291 2.32186 -3.22763 0
M  V30 1558 N 149.288 1.51039 0.449983 0
M  V30 1559 C 150.513 1.6715 1.22783 0
M  V30 1560 C 150.938 0.363081 1.84563 0
M  V30 1561 O 150.296 -0.675433 1.68249 0
M  V30 1562 C 150.344 2.77985 2.29689 0
M  V30 1563 O 149.448 2.40707 3.34864 0
M  V30 1564 H 148.789 0.557746 0.360299 0
M  V30 1565 H 151.319 1.97535 0.533005 0
M  V30 1566 H 151.329 3.01693 2.74673 0
M  V30 1567 H 150.004 3.72935 1.84098 0
M  V30 1568 H 148.581 2.27523 2.95445 0
M  V30 1569 N 150.766 -0.704594 1.40972 0
M  V30 1570 C 151.716 -1.81051 1.38581 0
M  V30 1571 C 152.7 -1.58759 0.261585 0
M  V30 1572 O 153.892 -1.69745 0.501556 0
M  V30 1573 C 151.021 -3.19279 1.26157 0
M  V30 1574 C 150.107 -3.47296 2.43405 0
M  V30 1575 N 150.498 -3.46064 3.68881 0
M  V30 1576 C 148.796 -3.77804 2.37023 0
M  V30 1577 C 149.497 -3.72733 4.46592 0
M  V30 1578 N 148.473 -3.9203 3.76581 0
M  V30 1579 H 152.275 -1.78448 2.33525 0
M  V30 1580 H 149.789 -0.904198 1.349 0
M  V30 1581 H 151.786 -3.98488 1.22526 0
M  V30 1582 H 150.446 -3.231 0.321902 0
M  V30 1583 H 151.457 -3.26656 4.01891 0
M  V30 1584 H 148.134 -3.8905 1.51481 0
M  V30 1585 H 149.524 -3.77993 5.55492 0
M  V30 1586 N 152.244 -1.26651 -0.937939 0
M  V30 1587 C 153.469 -1.15279 -1.72411 0
M  V30 1588 C 153.894 0.287866 -1.85884 0
M  V30 1589 O 153.252 1.20855 -1.35143 0
M  V30 1590 C 153.3 -1.83028 -3.10698 0
M  V30 1591 O 152.404 -1.12128 -3.96864 0
M  V30 1592 H 151.745 -0.401504 -0.528858 0
M  V30 1593 H 154.275 -1.67531 -1.1745 0
M  V30 1594 H 154.285 -1.89981 -3.6107 0
M  V30 1595 H 152.96 -2.87833 -3.00208 0
M  V30 1596 H 151.537 -1.13173 -3.55312 0
M  V30 1597 N 153.722 1.14298 -1.08507 0
M  V30 1598 C 154.652 2.21542 -0.737646 0
M  V30 1599 C 155.633 1.67773 0.280377 0
M  V30 1600 O 156.818 1.93616 0.150521 0
M  V30 1601 C 153.948 3.46988 -0.147259 0
M  V30 1602 C 152.902 4.13789 -1.09374 0
M  V30 1603 C 152.228 5.33449 -0.365524 0
M  V30 1604 C 153.528 4.62208 -2.4323 0
M  V30 1605 H 155.222 2.5086 -1.6343 0
M  V30 1606 H 152.768 1.20576 -0.787243 0
M  V30 1607 H 154.721 4.21262 0.107808 0
M  V30 1608 H 153.445 3.17037 0.784538 0
M  V30 1609 H 152.104 3.4147 -1.33393 0
M  V30 1610 H 151.752 4.99759 0.57011 0
M  V30 1611 H 151.452 5.79088 -0.996512 0
M  V30 1612 H 152.976 6.10485 -0.118534 0
M  V30 1613 H 154.39 5.27952 -2.23472 0
M  V30 1614 H 152.787 5.18553 -3.02031 0
M  V30 1615 H 153.857 3.77224 -3.04681 0
M  V30 1616 N 155.201 0.870884 1.31352 0
M  V30 1617 C 156.429 0.49677 2.00848 0
M  V30 1618 C 156.844 -0.910998 1.65367 0
M  V30 1619 O 156.201 -1.59696 0.883374 0
M  V30 1620 C 156.252 0.645308 3.55694 0
M  V30 1621 O 155.973 1.99764 3.89905 0
M  V30 1622 C 157.474 0.272326 4.42463 0
M  V30 1623 H 154.694 0.193462 0.642506 0
M  V30 1624 H 157.238 1.1723 1.67563 0
M  V30 1625 H 155.393 0.0173176 3.87396 0
M  V30 1626 H 155.807 2.00607 4.84621 0
M  V30 1627 H 157.281 0.427208 5.50344 0
M  V30 1628 H 157.758 -0.788587 4.32062 0
M  V30 1629 H 158.364 0.876054 4.1618 0
M  V30 1630 N 156.679 -1.44442 0.630414 0
M  V30 1631 C 157.907 -2.06414 0.141671 0
M  V30 1632 C 158.322 -1.47105 -1.18345 0
M  V30 1633 O 157.679 -0.593662 -1.72574 0
M  V30 1634 C 157.73 -3.61494 0.0199784 0
M  V30 1635 O 157.451 -4.18594 1.29269 0
M  V30 1636 C 158.952 -4.40499 -0.497544 0
M  V30 1637 H 156.172 -0.666292 0.0793452 0
M  V30 1638 H 158.716 -1.85323 0.864614 0
M  V30 1639 H 156.871 -3.8185 -0.653402 0
M  V30 1640 H 157.285 -5.12026 1.13707 0
M  V30 1641 H 158.759 -5.49433 -0.531708 0
M  V30 1642 H 159.236 -4.11895 -1.52445 0
M  V30 1643 H 159.842 -4.25061 0.142562 0
M  V30 1644 N 158.157 -0.370918 -1.53173 0
M  V30 1645 C 159.105 0.488101 -2.27421 0
M  V30 1646 C 160.099 1.07884 -1.30604 0
M  V30 1647 O 161.305 1.02143 -1.48212 0
M  V30 1648 H 157.68 0.176134 -0.731082 0
M  V30 1649 H 159.651 -0.159815 -2.97972 0
M  V30 1650 C 158.4 1.61306 -3.08019 0
M  V30 1651 H 157.723 1.1678 -3.82364 0
M  V30 1652 H 159.163 2.18872 -3.63141 0
M  V30 1653 C 157.622 2.55848 -2.19188 0
M  V30 1654 O 158.152 3.58799 -1.80626 0
M  V30 1655 N 156.358 2.2516 -1.83715 0
M  V30 1656 H 155.905 1.41476 -2.15273 0
M  V30 1657 H 155.863 2.8867 -1.24567 0
M  V30 1658 N 159.635 1.57281 -0.100228 0
M  V30 1659 C 160.884 1.93713 0.561984 0
M  V30 1660 C 161.197 0.984492 1.69018 0
M  V30 1661 O 162.403 1.24273 2.41389 0
M  V30 1662 C 160.859 3.4421 1.05106 0
M  V30 1663 C 160.467 4.47975 -0.0476628 0
M  V30 1664 C 162.211 3.89595 1.68571 0
M  V30 1665 C 160.118 5.89631 0.457055 0
M  V30 1666 H 159.048 0.723082 0.2137 0
M  V30 1667 H 161.699 1.82644 -0.177057 0
M  V30 1668 H 160.081 3.50449 1.84395 0
M  V30 1669 H 161.255 4.53385 -0.823333 0
M  V30 1670 H 159.57 4.1223 -0.587816 0
M  V30 1671 H 162.167 4.92832 2.07414 0
M  V30 1672 H 162.51 3.28526 2.55688 0
M  V30 1673 H 163.043 3.86078 0.958562 0
M  V30 1674 H 159.782 6.54411 -0.377616 0
M  V30 1675 H 159.302 5.87681 1.19962 0
M  V30 1676 H 160.981 6.40363 0.92437 0
M  V30 1677 N 161.113 -0.173488 1.56642 0
M  V30 1678 C 162.046 -1.24353 1.91342 0
M  V30 1679 C 163.024 -1.4289 0.775965 0
M  V30 1680 O 164.208 -1.57932 1.02907 0
M  V30 1681 C 161.335 -2.60683 2.16245 0
M  V30 1682 C 160.381 -2.58894 3.38934 0
M  V30 1683 S 161.214 -2.0819 4.93373 0
M  V30 1684 C 162.37 -3.46302 5.21369 0
M  V30 1685 H 162.603 -0.947345 2.81803 0
M  V30 1686 H 160.136 -0.377958 1.49703 0
M  V30 1687 H 162.094 -3.39149 2.31275 0
M  V30 1688 H 160.755 -2.87502 1.26496 0
M  V30 1689 H 159.948 -3.59188 3.53553 0
M  V30 1690 H 159.55 -1.88522 3.2301 0
M  V30 1691 H 161.842 -4.42287 5.13214 0
M  V30 1692 H 162.785 -3.3656 6.23003 0
M  V30 1693 H 163.193 -3.42214 4.48943 0
M  V30 1694 N 162.591 -1.51276 -0.441967 0
M  V30 1695 C 163.501 -1.75092 -1.56141 0
M  V30 1696 C 164.517 -0.634963 -1.62001 0
M  V30 1697 O 165.693 -0.916686 -1.79329 0
M  V30 1698 C 162.758 -1.86666 -2.92158 0
M  V30 1699 C 161.819 -3.10506 -2.96453 0
M  V30 1700 C 161.052 -3.21519 -4.25982 0
M  V30 1701 O 161.275 -2.38586 -5.18105 0
M  V30 1702 O 160.209 -4.14465 -4.36466 0
M  V30 1703 H 164.035 -2.70044 -1.38961 0
M  V30 1704 H 161.62 -1.35722 -0.624499 0
M  V30 1705 H 163.502 -1.96292 -3.72891 0
M  V30 1706 H 162.177 -0.949014 -3.09476 0
M  V30 1707 H 161.084 -3.06363 -2.14692 0
M  V30 1708 H 162.417 -4.01945 -2.84079 0
M  V30 1709 N 164.069 0.697108 -1.41344 0
M  V30 1710 C 165.318 1.45279 -1.39918 0
M  V30 1711 C 165.631 1.95597 -0.0109624 0
M  V30 1712 O 166.837 2.71208 0.125919 0
M  V30 1713 C 165.293 2.62695 -2.46007 0
M  V30 1714 C 164.901 2.19169 -3.90729 0
M  V30 1715 C 166.645 3.40336 -2.53715 0
M  V30 1716 C 164.552 3.33535 -4.88373 0
M  V30 1717 H 163.482 0.545692 -0.520323 0
M  V30 1718 H 166.133 0.756929 -1.67161 0
M  V30 1719 H 164.515 3.34541 -2.11892 0
M  V30 1720 H 165.689 1.54623 -4.34083 0
M  V30 1721 H 164.004 1.54525 -3.86666 0
M  V30 1722 H 166.601 4.2547 -3.2385 0
M  V30 1723 H 166.944 3.85418 -1.5735 0
M  V30 1724 H 167.477 2.75546 -2.86913 0
M  V30 1725 H 164.216 2.93468 -5.86137 0
M  V30 1726 H 163.736 3.96936 -4.49668 0
M  V30 1727 H 165.415 3.99335 -5.09059 0
M  V30 1728 N 165.547 1.27147 0.931209 0
M  V30 1729 C 166.477 1.12081 2.04842 0
M  V30 1730 C 167.458 0.0232364 1.70084 0
M  V30 1731 O 168.643 0.197085 1.93197 0
M  V30 1732 C 165.773 0.76354 3.38803 0
M  V30 1733 C 164.727 1.81396 3.87659 0
M  V30 1734 C 164.053 1.31075 5.18385 0
M  V30 1735 C 165.353 3.21739 4.11438 0
M  V30 1736 H 167.047 2.05537 2.17703 0
M  V30 1737 H 164.593 0.989603 1.04608 0
M  V30 1738 H 166.546 0.644982 4.16435 0
M  V30 1739 H 165.27 -0.206727 3.25945 0
M  V30 1740 H 163.929 1.92136 3.12217 0
M  V30 1741 H 163.577 0.330037 5.01916 0
M  V30 1742 H 163.277 2.013 5.52044 0
M  V30 1743 H 164.801 1.20506 5.98591 0
M  V30 1744 H 166.215 3.14019 4.79651 0
M  V30 1745 H 164.612 3.89644 4.56397 0
M  V30 1746 H 165.682 3.67054 3.16859 0
M  V30 1747 N 167.025 -1.13721 1.09112 0
M  V30 1748 C 168.441 -1.36914 0.820174 0
M  V30 1749 C 168.641 -1.93356 -0.567079 0
M  V30 1750 O 167.697 -2.15093 -1.32255 0
M  V30 1751 C 169.01 -2.3235 1.90877 0
M  V30 1752 C 170.558 -2.45973 1.93562 0
M  V30 1753 C 171.033 -3.44714 3.01556 0
M  V30 1754 N 172.524 -3.52263 3.00775 0
M  V30 1755 C 173.259 -4.28536 3.80978 0
M  V30 1756 N 172.755 -5.07991 4.71081 0
M  V30 1757 N 174.548 -4.23804 3.69251 0
M  V30 1758 H 166.699 -0.754348 1.98553 0
M  V30 1759 H 168.962 -0.3944 0.862063 0
M  V30 1760 H 168.668 -1.98027 2.90651 0
M  V30 1761 H 168.542 -3.32332 1.78424 0
M  V30 1762 H 170.929 -2.79584 0.944286 0
M  V30 1763 H 171.01 -1.45926 2.10093 0
M  V30 1764 H 170.654 -3.11835 4.00901 0
M  V30 1765 H 170.584 -4.44558 2.82269 0
M  V30 1766 H 173.075 -2.95567 2.35475 0
M  V30 1767 H 173.388 -5.63487 5.28869 0
M  V30 1768 H 171.733 -5.07235 4.75119 0
M  V30 1769 H 174.924 -3.60806 2.98222 0
M  V30 1770 H 175.097 -4.82995 4.31995 0
M  V30 1771 N 168.503 -0.877838 -1.30888 0
M  V30 1772 C 169.751 -0.491723 -1.96027 0
M  V30 1773 C 170.072 0.960827 -1.69685 0
M  V30 1774 O 169.342 1.67462 -1.01654 0
M  V30 1775 H 167.922 -0.17885 -0.725273 0
M  V30 1776 H 170.584 -1.11935 -1.59551 0
M  V30 1777 H 169.68 -0.656016 -3.05128 0
M  V30 1778 N 169.982 1.44106 -0.638065 0
M  V30 1779 C 171.259 1.95453 -0.0759321 0
M  V30 1780 C 171.639 1.57984 1.40015 0
M  V30 1781 O 170.987 0.857361 2.11806 0
M  V30 1782 C 171.197 3.47655 -0.306132 0
M  V30 1783 C 172.545 4.24114 -0.203008 0
M  V30 1784 O 173.569 3.55405 -0.237871 0
M  V30 1785 O 172.428 5.46381 -0.113827 0
M  V30 1786 H 169.522 0.826797 0.0183332 0
M  V30 1787 H 172.068 1.54122 -0.710251 0
M  V30 1788 H 170.84 3.68 -1.3301 0
M  V30 1789 H 170.463 3.95949 0.361991 0
M  V30 1790 N 171.46 0.379036 1.52974 0
M  V30 1791 C 172.707 -0.206421 2.01445 0
M  V30 1792 C 173.035 -1.47668 1.26587 0
M  V30 1793 O 172.29 -1.92514 0.351675 0
M  V30 1794 C 172.589 -0.53096 3.53434 0
M  V30 1795 C 172.255 0.646546 4.46241 0
M  V30 1796 C 170.917 0.969604 4.7133 0
M  V30 1797 C 173.269 1.43479 5.01062 0
M  V30 1798 C 170.597 2.08263 5.48492 0
M  V30 1799 C 172.949 2.53834 5.7944 0
M  V30 1800 C 171.613 2.86659 6.02812 0
M  V30 1801 H 170.883 -0.0755349 0.73714 0
M  V30 1802 H 173.53 0.514271 1.84465 0
M  V30 1803 H 171.835 -1.33285 3.68432 0
M  V30 1804 H 173.532 -0.996417 3.88423 0
M  V30 1805 H 170.122 0.384734 4.2687 0
M  V30 1806 H 174.306 1.19844 4.81613 0
M  V30 1807 H 169.562 2.34078 5.64816 0
M  V30 1808 H 173.736 3.15319 6.20924 0
M  V30 1809 H 171.363 3.73026 6.62387 0
M  V30 1810 N 172.938 -1.57226 0.108567 0
M  V30 1811 C 174.163 -1.99604 -0.563303 0
M  V30 1812 C 174.588 -0.987563 -1.6009 0
M  V30 1813 O 173.946 0.0421687 -1.81251 0
M  V30 1814 C 173.994 -3.40902 -1.17552 0
M  V30 1815 O 173.098 -3.42896 -2.2912 0
M  V30 1816 H 172.439 -0.648704 -0.1417 0
M  V30 1817 H 174.969 -2.03679 0.193961 0
M  V30 1818 H 174.979 -3.78886 -1.51357 0
M  V30 1819 H 173.654 -4.1382 -0.415445 0
M  V30 1820 H 172.231 -3.1672 -1.96832 0
M  V30 1821 N 174.416 0.165178 -1.56732 0
M  V30 1822 C 175.641 0.900253 -1.86843 0
M  V30 1823 C 176.066 1.74766 -0.695596 0
M  V30 1824 O 175.424 1.77786 0.35522 0
M  V30 1825 C 175.472 1.74777 -3.15413 0
M  V30 1826 O 174.576 2.85007 -2.98068 0
M  V30 1827 H 173.917 0.251832 -0.614391 0
M  V30 1828 H 176.447 0.161468 -2.03962 0
M  V30 1829 H 176.457 2.14646 -3.46974 0
M  V30 1830 H 175.132 1.12537 -4.00385 0
M  V30 1831 H 173.709 2.48676 -2.77875 0
M  V30 1832 N 175.894 1.51508 0.433938 0
M  V30 1833 C 176.857 1.72473 1.50949 0
M  V30 1834 C 177.857 0.594725 1.49398 0
M  V30 1835 O 179.047 0.862315 1.5136 0
M  V30 1836 C 176.179 1.78431 2.90474 0
M  V30 1837 H 177.372 2.68467 1.33662 0
M  V30 1838 H 174.925 1.41549 0.662836 0
M  V30 1839 H 175.66 0.842645 3.13161 0
M  V30 1840 H 175.445 2.60558 2.93005 0
M  V30 1841 H 176.935 1.96479 3.68491 0
M  V30 1842 N 177.372 -0.689602 1.41712 0
M  V30 1843 C 178.32 -1.82475 1.44242 0
M  V30 1844 C 179.314 -1.66354 0.319774 0
M  V30 1845 O 180.52 -1.73143 0.492089 0
M  V30 1846 H 176.895 -0.601416 0.451445 0
M  V30 1847 H 178.866 -1.77458 2.39899 0
M  V30 1848 C 177.615 -3.20535 1.3473 0
M  V30 1849 H 176.938 -3.33559 2.20405 0
M  V30 1850 H 178.378 -4.00023 1.40562 0
M  V30 1851 C 176.837 -3.36846 0.0603281 0
M  V30 1852 O 177.367 -3.91656 -0.892663 0
M  V30 1853 N 175.573 -2.90595 -0.0177039 0
M  V30 1854 H 175.12 -2.46178 0.758572 0
M  V30 1855 H 175.078 -3.01886 -0.878201 0
M  V30 1856 N 178.85 -1.27639 -0.924453 0
M  V30 1857 C 179.798 -1.10485 -2.04685 0
M  V30 1858 C 180.792 -0.0270421 -1.69378 0
M  V30 1859 O 181.998 -0.185008 -1.79047 0
M  V30 1860 H 178.373 -0.340546 -0.670472 0
M  V30 1861 H 180.344 -2.05566 -2.16298 0
M  V30 1862 C 179.093 -0.772229 -3.39016 0
M  V30 1863 H 178.416 -1.59351 -3.66671 0
M  V30 1864 H 179.856 -0.692097 -4.18313 0
M  V30 1865 C 178.315 0.523554 -3.32807 0
M  V30 1866 O 178.845 1.55702 -3.70297 0
M  V30 1867 N 177.051 0.520363 -2.85903 0
M  V30 1868 H 176.598 -0.32107 -2.55591 0
M  V30 1869 H 176.556 1.38742 -2.82131 0
M  V30 1870 N 180.328 1.1314 -1.09713 0
M  V30 1871 C 181.744 1.36477 -0.827423 0
M  V30 1872 C 181.944 1.93654 0.556817 0
M  V30 1873 O 181 2.15791 1.31112 0
M  V30 1874 C 182.313 2.31334 -1.92106 0
M  V30 1875 C 183.861 2.44943 -1.94864 0
M  V30 1876 C 184.336 3.4311 -3.0338 0
M  V30 1877 N 185.827 3.50662 -3.02639 0
M  V30 1878 C 186.562 4.2651 -3.83246 0
M  V30 1879 N 186.058 5.05485 -4.73768 0
M  V30 1880 N 187.851 4.2184 -3.71493 0
M  V30 1881 H 180.002 0.743807 -1.9895 0
M  V30 1882 H 182.265 0.389823 -0.864143 0
M  V30 1883 H 181.971 1.96483 -2.91698 0
M  V30 1884 H 181.845 3.31381 -1.80184 0
M  V30 1885 H 184.232 2.79079 -0.959099 0
M  V30 1886 H 184.313 1.4481 -2.10864 0
M  V30 1887 H 183.957 3.09704 -4.02549 0
M  V30 1888 H 183.887 4.43055 -2.84622 0
M  V30 1889 H 186.378 2.94315 -2.37039 0
M  V30 1890 H 186.691 5.60675 -5.3185 0
M  V30 1891 H 185.036 5.04708 -4.77802 0
M  V30 1892 H 188.227 3.5922 -3.00131 0
M  V30 1893 H 188.4 4.80697 -4.3455 0
M  V30 1894 N 181.806 0.884767 1.30421 0
M  V30 1895 C 183.083 0.423185 1.90967 0
M  V30 1896 C 183.463 -1.09605 1.80416 0
M  V30 1897 O 182.811 -1.93126 1.22125 0
M  V30 1898 C 183.021 0.921056 3.36627 0
M  V30 1899 C 184.369 0.955903 4.137 0
M  V30 1900 O 185.393 0.867706 3.4547 0
M  V30 1901 O 184.252 1.08614 5.35598 0
M  V30 1902 H 181.346 0.129369 0.816819 0
M  V30 1903 H 183.892 0.973653 1.3899 0
M  V30 1904 H 182.664 1.96489 3.3839 0
M  V30 1905 H 182.287 0.349741 3.96059 0
M  V30 1906 N 183.284 -1.43765 0.645699 0
M  V30 1907 C 184.232 -2.32516 -0.0624849 0
M  V30 1908 C 185.226 -1.48183 -0.820855 0
M  V30 1909 O 186.432 -1.64439 -0.732106 0
M  V30 1910 H 182.807 -0.750989 -0.0389864 0
M  V30 1911 H 184.778 -2.89979 0.703892 0
M  V30 1912 C 183.527 -3.32389 -1.02044 0
M  V30 1913 H 182.85 -3.97301 -0.446312 0
M  V30 1914 H 184.29 -3.97138 -1.48517 0
M  V30 1915 C 182.749 -2.62416 -2.11281 0
M  V30 1916 O 183.279 -2.434 -3.19561 0
M  V30 1917 N 181.485 -2.21913 -1.87624 0
M  V30 1918 H 181.032 -2.37578 -0.995703 0
M  V30 1919 H 180.99 -1.75424 -2.6091 0
M  V30 1920 N 184.763 -0.387143 -1.52771 0
M  V30 1921 C 185.991 0.195869 -2.05971 0
M  V30 1922 C 186.406 1.40691 -1.25903 0
M  V30 1923 O 185.763 1.79931 -0.305134 0
M  V30 1924 C 185.814 0.56812 -3.57008 0
M  V30 1925 O 185.535 -0.594803 -4.34043 0
M  V30 1926 C 187.036 1.20723 -4.26545 0
M  V30 1927 H 184.256 0.0300578 -0.670326 0
M  V30 1928 H 186.8 -0.551749 -1.96916 0
M  V30 1929 H 184.955 1.26564 -3.66143 0
M  V30 1930 H 185.369 -0.289322 -5.23701 0
M  V30 1931 H 186.843 1.41807 -5.33474 0
M  V30 1932 H 187.32 2.17395 -3.81623 0
M  V30 1933 H 187.926 0.550535 -4.21722 0
M  V30 1934 N 186.241 1.57166 -0.116904 0
M  V30 1935 C 187.471 1.99184 0.548586 0
M  V30 1936 C 187.879 0.995436 1.60897 0
M  V30 1937 O 187.222 -0.0201293 1.83689 0
M  V30 1938 C 187.284 3.37611 1.23526 0
M  V30 1939 C 186.948 4.55857 0.323077 0
M  V30 1940 C 187.945 5.18056 -0.437476 0
M  V30 1941 C 185.63 5.01751 0.234761 0
M  V30 1942 C 187.624 6.24536 -1.2741 0
M  V30 1943 C 185.311 6.08093 -0.605496 0
M  V30 1944 C 186.309 6.69352 -1.35856 0
M  V30 1945 O 185.997 7.7364 -2.18487 0
M  V30 1946 H 185.729 0.659148 0.149999 0
M  V30 1947 H 188.283 2.0443 -0.199428 0
M  V30 1948 H 186.513 3.29113 2.0303 0
M  V30 1949 H 188.202 3.63932 1.79745 0
M  V30 1950 H 188.968 4.83516 -0.379105 0
M  V30 1951 H 184.847 4.53817 0.810601 0
M  V30 1952 H 188.391 6.72281 -1.86237 0
M  V30 1953 H 184.288 6.42063 -0.665268 0
M  V30 1954 H 185.056 7.90727 -2.11406 0
M  V30 1955 N 187.719 -0.156864 1.56817 0
M  V30 1956 C 188.667 -1.21319 1.98455 0
M  V30 1957 C 189.661 -1.45025 0.875444 0
M  V30 1958 O 190.867 -1.45435 1.0606 0
M  V30 1959 H 187.242 -0.408142 0.631605 0
M  V30 1960 H 189.213 -0.835244 2.86472 0
M  V30 1961 C 187.962 -2.54148 2.37285 0
M  V30 1962 H 187.285 -2.36733 3.22176 0
M  V30 1963 H 188.725 -3.26712 2.70251 0
M  V30 1964 C 187.184 -3.13967 1.22173 0
M  V30 1965 O 187.714 -3.98357 0.517149 0
M  V30 1966 N 185.92 -2.7327 0.988536 0
M  V30 1967 H 185.467 -2.04744 1.56326 0
M  V30 1968 H 185.425 -3.13628 0.220209 0
M  V30 1969 N 189.197 -1.51736 -0.425897 0
M  V30 1970 C 190.613 -1.40166 -0.76326 0
M  V30 1971 C 190.813 -0.492962 -1.95377 0
M  V30 1972 O 189.869 0.0475815 -2.52455 0
M  V30 1973 C 191.182 -2.82403 -1.03291 0
M  V30 1974 C 192.73 -2.91632 -1.13665 0
M  V30 1975 C 193.205 -4.34801 -1.43916 0
M  V30 1976 N 194.696 -4.3796 -1.50816 0
M  V30 1977 C 195.431 -5.4578 -1.75817 0
M  V30 1978 N 194.927 -6.63744 -1.98534 0
M  V30 1979 N 196.72 -5.33274 -1.77694 0
M  V30 1980 H 188.871 -2.09361 0.358 0
M  V30 1981 H 191.134 -0.942941 0.0978094 0
M  V30 1982 H 190.84 -3.50943 -0.230696 0
M  V30 1983 H 190.714 -3.22428 -1.95754 0
M  V30 1984 H 193.101 -2.23284 -1.92947 0
M  V30 1985 H 193.182 -2.55088 -0.190756 0
M  V30 1986 H 192.826 -5.03703 -0.65157 0
M  V30 1987 H 192.756 -4.68868 -2.39729 0
M  V30 1988 H 195.247 -3.52919 -1.35118 0
M  V30 1989 H 195.56 -7.41704 -2.17013 0
M  V30 1990 H 193.905 -6.66839 -1.95832 0
M  V30 1991 H 197.096 -4.40098 -1.59473 0
M  V30 1992 H 197.269 -6.1738 -1.9684 0
M  V30 1993 N 190.675 0.682077 -1.42076 0
M  V30 1994 C 191.921 1.44428 -1.42367 0
M  V30 1995 C 192.254 1.94164 -0.0373056 0
M  V30 1996 O 191.529 1.70429 0.937239 0
M  V30 1997 C 191.812 2.64654 -2.44194 0
M  V30 1998 C 191.665 2.20596 -3.91991 0
M  V30 1999 C 192.984 3.66865 -2.431 0
M  V30 2000 H 190.103 0.523834 -0.518428 0
M  V30 2001 H 192.745 0.77576 -1.73442 0
M  V30 2002 H 190.895 3.2169 -2.17826 0
M  V30 2003 H 192.567 1.68783 -4.29313 0
M  V30 2004 H 190.81 1.52242 -4.06208 0
M  V30 2005 H 191.481 3.06921 -4.58807 0
M  V30 2006 H 193.957 3.19531 -2.66532 0
M  V30 2007 H 192.833 4.48577 -3.16339 0
M  V30 2008 H 193.094 4.17493 -1.45437 0
M  V30 2009 N 192.153 1.28127 0.917671 0
M  V30 2010 C 193.378 1.18007 1.70555 0
M  V30 2011 C 193.803 -0.258257 1.86319 0
M  V30 2012 O 193.161 -1.1869 1.37049 0
M  V30 2013 C 193.209 1.87948 3.07746 0
M  V30 2014 O 192.313 1.18427 3.9503 0
M  V30 2015 H 191.654 0.409867 0.522403 0
M  V30 2016 H 194.184 1.69379 1.1477 0
M  V30 2017 H 194.194 1.95701 3.58001 0
M  V30 2018 H 192.869 2.92573 2.95591 0
M  V30 2019 H 191.446 1.18811 3.53466 0
M  V30 2020 N 193.631 -1.12557 1.10312 0
M  V30 2021 C 194.541 -2.21841 0.763142 0
M  V30 2022 C 195.557 -1.72354 -0.238801 0
M  V30 2023 O 196.733 -2.01249 -0.0778746 0
M  V30 2024 C 193.798 -3.46131 0.198632 0
M  V30 2025 C 192.859 -4.10464 1.25769 0
M  V30 2026 C 192.092 -5.28821 0.72002 0
M  V30 2027 O 192.315 -5.6859 -0.453993 0
M  V30 2028 O 191.249 -5.83437 1.47935 0
M  V30 2029 H 195.075 -2.53312 1.67532 0
M  V30 2030 H 192.66 -1.20867 0.878157 0
M  V30 2031 H 194.542 -4.2125 -0.112401 0
M  V30 2032 H 193.217 -3.16338 -0.686419 0
M  V30 2033 H 192.124 -3.3713 1.62156 0
M  V30 2034 H 193.457 -4.44408 2.11571 0
M  V30 2035 N 195.109 -0.891671 -1.2995 0
M  V30 2036 C 196.386 -0.433307 -1.9074 0
M  V30 2037 C 196.766 1.08646 -1.80995 0
M  V30 2038 O 196.114 1.92476 -1.23147 0
M  V30 2039 C 196.324 -0.938895 -3.36134 0
M  V30 2040 C 197.672 -0.977829 -4.13187 0
M  V30 2041 O 198.696 -0.886015 -3.45005 0
M  V30 2042 O 197.555 -1.11453 -5.35015 0
M  V30 2043 H 194.649 -0.133699 -0.816121 0
M  V30 2044 H 197.195 -0.981011 -1.38471 0
M  V30 2045 H 195.967 -1.98281 -3.37343 0
M  V30 2046 H 195.59 -0.37074 -3.95868 0
M  V30 2047 N 196.587 1.43421 -0.653314 0
M  V30 2048 C 197.517 2.33487 0.0246656 0
M  V30 2049 C 198.498 1.49475 0.811863 0
M  V30 2050 O 199.683 1.78139 0.773322 0
M  V30 2051 C 196.813 3.32841 0.99166 0
M  V30 2052 C 195.767 4.26842 0.314568 0
M  V30 2053 C 195.093 5.16236 1.39302 0
M  V30 2054 C 196.393 5.16243 -0.793095 0
M  V30 2055 H 198.087 2.90427 -0.727481 0
M  V30 2056 H 195.633 1.39649 -0.351287 0
M  V30 2057 H 197.586 3.94747 1.47487 0
M  V30 2058 H 196.31 2.74158 1.77497 0
M  V30 2059 H 194.969 3.663 -0.148199 0
M  V30 2060 H 194.617 4.53891 2.16776 0
M  V30 2061 H 194.317 5.79948 0.945223 0
M  V30 2062 H 195.841 5.81015 1.87759 0
M  V30 2063 H 197.255 5.71958 -0.392039 0
M  V30 2064 H 195.652 5.88676 -1.16536 0
M  V30 2065 H 196.722 4.55927 -1.65103 0
M  V30 2066 N 198.065 0.39524 1.52563 0
M  V30 2067 C 199.481 0.0454682 1.59535 0
M  V30 2068 C 199.681 -1.44056 1.4089 0
M  V30 2069 O 198.737 -2.20579 1.22888 0
M  V30 2070 C 200.05 0.527963 2.96029 0
M  V30 2071 C 201.598 0.484733 3.09224 0
M  V30 2072 C 202.073 0.943512 4.48176 0
M  V30 2073 N 203.564 0.899765 4.54377 0
M  V30 2074 C 204.299 1.22609 5.60138 0
M  V30 2075 N 203.795 1.62319 6.73516 0
M  V30 2076 N 205.588 1.14696 5.50274 0
M  V30 2077 H 197.739 1.36261 1.62931 0
M  V30 2078 H 200.002 0.558887 0.765735 0
M  V30 2079 H 199.708 1.56607 3.14908 0
M  V30 2080 H 199.582 -0.0698056 3.77135 0
M  V30 2081 H 201.969 -0.544298 2.90037 0
M  V30 2082 H 202.05 1.11838 2.30056 0
M  V30 2083 H 201.694 1.9708 4.68104 0
M  V30 2084 H 201.624 0.286817 5.25818 0
M  V30 2085 H 204.115 0.607632 3.72983 0
M  V30 2086 H 204.428 1.85567 7.5019 0
M  V30 2087 H 202.773 1.66211 6.74833 0
M  V30 2088 H 205.964 0.835701 4.6058 0
M  V30 2089 H 206.137 1.40459 6.32594 0
M  V30 2090 N 199.544 -1.57102 0.125237 0
M  V30 2091 C 200.769 -2.0019 -0.542101 0
M  V30 2092 C 201.194 -1.00449 -1.59034 0
M  V30 2093 O 200.552 0.0229423 -1.81285 0
M  V30 2094 C 200.6 -3.42129 -1.13929 0
M  V30 2095 O 199.704 -3.45307 -2.2547 0
M  V30 2096 H 199.045 -0.650171 -0.134812 0
M  V30 2097 H 201.575 -2.03461 0.215553 0
M  V30 2098 H 201.585 -3.80471 -1.4733 0
M  V30 2099 H 200.26 -4.14237 -0.371531 0
M  V30 2100 H 198.837 -3.1879 -1.93462 0
M  V30 2101 N 201.022 0.148545 -1.56898 0
M  V30 2102 C 202.438 0.501131 -1.51528 0
M  V30 2103 C 202.638 1.83458 -0.833399 0
M  V30 2104 O 201.694 2.49259 -0.40328 0
M  V30 2105 C 203.007 0.512864 -2.96294 0
M  V30 2106 C 204.555 0.598487 -3.07225 0
M  V30 2107 C 205.03 0.640897 -4.53494 0
M  V30 2108 N 206.521 0.703163 -4.57832 0
M  V30 2109 C 207.256 0.756935 -5.68382 0
M  V30 2110 N 206.752 0.770147 -6.88506 0
M  V30 2111 N 208.545 0.797698 -5.56411 0
M  V30 2112 H 200.696 -0.725532 -1.99624 0
M  V30 2113 H 202.959 -0.264358 -0.910395 0
M  V30 2114 H 202.665 -0.398691 -3.49433 0
M  V30 2115 H 202.539 1.35133 -3.52163 0
M  V30 2116 H 204.926 1.50046 -2.54106 0
M  V30 2117 H 205.007 -0.267093 -2.54402 0
M  V30 2118 H 204.651 -0.256915 -5.0725 0
M  V30 2119 H 204.581 1.52295 -5.04097 0
M  V30 2120 H 207.072 0.700314 -3.71354 0
M  V30 2121 H 207.385 0.812983 -7.68512 0
M  V30 2122 H 205.73 0.738049 -6.9107 0
M  V30 2123 H 208.921 0.784535 -4.61479 0
M  V30 2124 H 209.094 0.83614 -6.42583 0
M  V30 2125 N 202.5 1.5196 0.417844 0
M  V30 2126 C 203.749 1.6482 1.16264 0
M  V30 2127 C 204.062 0.379886 1.91876 0
M  V30 2128 O 205.268 0.388154 2.68711 0
M  V30 2129 C 203.724 2.91161 2.1155 0
M  V30 2130 C 203.332 4.25068 1.41495 0
M  V30 2131 C 205.076 3.13383 2.86341 0
M  V30 2132 C 202.983 5.42541 2.35379 0
M  V30 2133 H 201.913 0.613954 0.437694 0
M  V30 2134 H 204.564 1.78442 0.427871 0
M  V30 2135 H 202.946 2.71218 2.88543 0
M  V30 2136 H 204.12 4.55463 0.699263 0
M  V30 2137 H 202.435 4.0888 0.787792 0
M  V30 2138 H 205.032 3.98324 3.5671 0
M  V30 2139 H 205.375 2.27256 3.48798 0
M  V30 2140 H 205.908 3.33757 2.1645 0
M  V30 2141 H 202.647 6.30987 1.77582 0
M  V30 2142 H 202.167 5.16497 3.04945 0
M  V30 2143 H 203.846 5.75272 2.96093 0
M  V30 2144 N 203.978 -0.674533 1.42435 0
M  V30 2145 C 204.888 -1.81751 1.48337 0
M  V30 2146 C 205.904 -1.69975 0.372099 0
M  V30 2147 O 207.08 -1.91521 0.62304 0
M  V30 2148 C 204.145 -3.17895 1.38361 0
M  V30 2149 C 203.206 -3.41625 2.59982 0
M  V30 2150 C 202.439 -4.71274 2.50473 0
M  V30 2151 O 202.662 -5.49197 1.54075 0
M  V30 2152 O 201.596 -4.96254 3.4061 0
M  V30 2153 H 205.422 -1.79728 2.44809 0
M  V30 2154 H 203.007 -0.830312 1.24202 0
M  V30 2155 H 204.889 -3.99136 1.35161 0
M  V30 2156 H 203.564 -3.20555 0.450144 0
M  V30 2157 H 202.471 -2.60231 2.68757 0
M  V30 2158 H 203.804 -3.43796 3.52229 0
M  V30 2159 N 205.456 -1.28612 -0.910864 0
M  V30 2160 C 206.702 -1.16106 -1.66274 0
M  V30 2161 C 207.035 0.289113 -1.92036 0
M  V30 2162 O 206.31 1.21 -1.52281 0
M  V30 2163 C 206.593 -1.96309 -3.01885 0
M  V30 2164 C 206.446 -3.49405 -2.8326 0
M  V30 2165 C 207.765 -1.78076 -4.02463 0
M  V30 2166 H 204.884 -0.423152 -0.603417 0
M  V30 2167 H 207.526 -1.57961 -1.05586 0
M  V30 2168 H 205.676 -1.60742 -3.53687 0
M  V30 2169 H 207.348 -3.94894 -2.38446 0
M  V30 2170 H 205.591 -3.74893 -2.18261 0
M  V30 2171 H 206.262 -4.00784 -3.79574 0
M  V30 2172 H 208.738 -2.0912 -3.59733 0
M  V30 2173 H 207.614 -2.36561 -4.95308 0
M  V30 2174 H 207.875 -0.733008 -4.35981 0
M  V30 2175 N 206.934 1.1197 -1.10907 0
M  V30 2176 C 207.864 2.19928 -0.784473 0
M  V30 2177 C 208.845 1.6833 0.244726 0
M  V30 2178 O 210.03 1.93892 0.109418 0
M  V30 2179 C 207.16 3.46597 -0.220827 0
M  V30 2180 C 206.114 4.11376 -1.18127 0
M  V30 2181 C 205.44 5.32554 -0.478594 0
M  V30 2182 C 206.74 4.56945 -2.52979 0
M  V30 2183 H 208.434 2.47337 -1.68715 0
M  V30 2184 H 205.98 1.18879 -0.812642 0
M  V30 2185 H 207.933 4.21396 0.0184278 0
M  V30 2186 H 206.657 3.1863 0.717113 0
M  V30 2187 H 205.316 3.38564 -1.40606 0
M  V30 2188 H 204.964 5.00856 0.463976 0
M  V30 2189 H 204.664 5.76844 -1.11912 0
M  V30 2190 H 206.188 6.10096 -0.248 0
M  V30 2191 H 207.602 5.23093 -2.3462 0
M  V30 2192 H 205.999 5.1203 -3.12962 0
M  V30 2193 H 207.069 3.70676 -3.12614 0
M  V30 2194 N 208.412 0.89855 1.29475 0
M  V30 2195 C 209.359 0.373819 2.27753 0
M  V30 2196 C 210.329 -0.543444 1.56958 0
M  V30 2197 O 211.514 -0.468934 1.84948 0
M  V30 2198 C 208.654 -0.393648 3.42848 0
M  V30 2199 C 207.767 0.554379 4.28428 0
M  V30 2200 C 206.902 -0.230026 5.30702 0
M  V30 2201 C 205.941 0.712599 6.07938 0
M  V30 2202 N 205.078 -0.0373283 7.0209 0
M  V30 2203 H 209.918 1.21699 2.72017 0
M  V30 2204 H 207.455 0.611456 1.33789 0
M  V30 2205 H 209.413 -0.85466 4.08352 0
M  V30 2206 H 208.043 -1.20128 2.99615 0
M  V30 2207 H 207.095 1.13391 3.63107 0
M  V30 2208 H 208.407 1.27597 4.82204 0
M  V30 2209 H 207.561 -0.752288 6.02018 0
M  V30 2210 H 206.3 -0.984758 4.77654 0
M  V30 2211 H 205.305 1.24637 5.35486 0
M  V30 2212 H 206.53 1.46664 6.63074 0
M  V30 2213 H 204.476 -0.774348 6.51414 0
M  V30 2214 H 204.393 0.624374 7.53417 0
M  V30 2215 H 205.661 -0.539891 7.77628 0
M  V30 2216 N 209.89 -1.43072 0.660911 0
M  V30 2217 C 211.306 -1.56169 0.329173 0
M  V30 2218 C 211.506 -1.64317 -1.16629 0
M  V30 2219 O 210.562 -1.60245 -1.95135 0
M  V30 2220 C 211.875 -2.81873 1.04729 0
M  V30 2221 C 213.423 -2.95627 1.02828 0
M  V30 2222 C 213.898 -4.24174 1.72744 0
M  V30 2223 N 215.389 -4.31055 1.69545 0
M  V30 2224 C 216.124 -5.29304 2.20511 0
M  V30 2225 N 215.62 -6.33786 2.79799 0
M  V30 2226 N 217.413 -5.21008 2.10966 0
M  V30 2227 H 209.564 -1.36027 1.63127 0
M  V30 2228 H 211.827 -0.653823 0.686454 0
M  V30 2229 H 211.533 -2.81942 2.10242 0
M  V30 2230 H 211.407 -3.72338 0.603702 0
M  V30 2231 H 213.794 -2.95094 -0.0184742 0
M  V30 2232 H 213.875 -2.06431 1.51063 0
M  V30 2233 H 213.519 -4.25467 2.7738 0
M  V30 2234 H 213.449 -5.1228 1.2197 0
M  V30 2235 H 215.94 -3.56174 1.26288 0
M  V30 2236 H 216.253 -7.05086 3.16344 0
M  V30 2237 H 214.598 -6.34387 2.83863 0
M  V30 2238 H 217.789 -4.38301 1.64347 0
M  V30 2239 H 217.962 -5.97416 2.50993 0
M  V30 2240 N 211.368 -0.403325 -1.52352 0
M  V30 2241 C 212.315 0.425011 -2.26853 0
M  V30 2242 C 213.285 1.04598 -1.29029 0
M  V30 2243 O 214.47 1.07135 -1.57882 0
M  V30 2244 C 211.61 1.53888 -3.08889 0
M  V30 2245 C 210.723 0.939396 -4.21663 0
M  V30 2246 C 209.858 2.02547 -4.91068 0
M  V30 2247 C 208.897 1.40263 -5.95813 0
M  V30 2248 N 208.034 2.4286 -6.58759 0
M  V30 2249 H 212.874 -0.21674 -2.97211 0
M  V30 2250 H 210.411 -0.118722 -1.4662 0
M  V30 2251 H 212.369 2.19558 -3.54753 0
M  V30 2252 H 210.999 2.15074 -2.40714 0
M  V30 2253 H 210.051 0.171898 -3.80011 0
M  V30 2254 H 211.363 0.44436 -4.96817 0
M  V30 2255 H 210.517 2.75958 -5.40308 0
M  V30 2256 H 209.256 2.55415 -4.15469 0
M  V30 2257 H 208.261 0.653833 -5.45898 0
M  V30 2258 H 209.486 0.881719 -6.73352 0
M  V30 2259 H 207.432 2.94871 -5.85992 0
M  V30 2260 H 207.349 1.98152 -7.2957 0
M  V30 2261 H 208.617 3.15858 -7.12639 0
M  V30 2262 N 212.846 1.57033 -0.133567 0
M  V30 2263 C 214.092 1.95976 0.521649 0
M  V30 2264 C 214.425 1.01779 1.65393 0
M  V30 2265 O 213.7 0.0576581 1.94415 0
M  V30 2266 C 213.983 3.44738 1.04057 0
M  V30 2267 C 213.836 4.49711 -0.0892897 0
M  V30 2268 C 215.155 3.95682 1.92675 0
M  V30 2269 H 212.274 0.712579 0.188149 0
M  V30 2270 H 214.916 1.88813 -0.212076 0
M  V30 2271 H 213.066 3.50973 1.66583 0
M  V30 2272 H 214.738 4.55565 -0.725152 0
M  V30 2273 H 212.981 4.27261 -0.750378 0
M  V30 2274 H 213.652 5.51099 0.315284 0
M  V30 2275 H 216.128 3.91841 1.39998 0
M  V30 2276 H 215.004 5.00262 2.25897 0
M  V30 2277 H 215.265 3.37239 2.85872 0
M  V30 2278 N 214.325 -0.140222 1.56975 0
M  V30 2279 C 215.574 -0.850152 1.82908 0
M  V30 2280 C 215.887 -1.82028 0.715892 0
M  V30 2281 O 217.093 -2.57485 0.861016 0
M  V30 2282 C 215.549 -1.5625 3.24213 0
M  V30 2283 C 215.157 -0.63443 4.43485 0
M  V30 2284 C 216.901 -2.25881 3.59413 0
M  V30 2285 C 214.808 -1.34879 5.75814 0
M  V30 2286 H 213.738 -0.321221 0.682153 0
M  V30 2287 H 216.389 -0.102874 1.83211 0
M  V30 2288 H 214.771 -2.35565 3.18316 0
M  V30 2289 H 215.945 0.12398 4.60633 0
M  V30 2290 H 214.26 -0.0461836 4.16374 0
M  V30 2291 H 216.857 -2.79978 4.5554 0
M  V30 2292 H 217.2 -3.02693 2.85802 0
M  V30 2293 H 217.733 -1.53477 3.67001 0
M  V30 2294 H 214.472 -0.622385 6.52539 0
M  V30 2295 H 213.992 -2.07974 5.6259 0
M  V30 2296 H 215.671 -1.88784 6.18845 0
M  V30 2297 N 215.803 -1.52179 -0.40978 0
M  V30 2298 C 216.713 -1.78364 -1.52392 0
M  V30 2299 C 217.729 -0.669183 -1.60617 0
M  V30 2300 O 218.905 -0.954518 -1.77344 0
M  V30 2301 C 215.97 -1.92822 -2.88133 0
M  V30 2302 C 215.031 -3.16725 -2.898 0
M  V30 2303 C 214.264 -3.30483 -4.19067 0
M  V30 2304 O 214.487 -2.49522 -5.12928 0
M  V30 2305 O 213.421 -4.2363 -4.27576 0
M  V30 2306 H 217.247 -2.72931 -1.33201 0
M  V30 2307 H 214.832 -1.37016 -0.59557 0
M  V30 2308 H 216.714 -2.04157 -3.68643 0
M  V30 2309 H 215.389 -1.01444 -3.07393 0
M  V30 2310 H 214.296 -3.10848 -2.08146 0
M  V30 2311 H 215.629 -4.07881 -2.75489 0
M  V30 2312 N 217.281 0.66697 -1.42791 0
M  V30 2313 C 218.228 1.7803 -1.4688 0
M  V30 2314 C 219.198 1.6299 -0.319919 0
M  V30 2315 O 220.383 1.83432 -0.525118 0
M  V30 2316 C 217.523 3.1611 -1.38451 0
M  V30 2317 C 216.636 3.42381 -2.63437 0
M  V30 2318 C 215.771 4.70232 -2.47094 0
M  V30 2319 C 214.81 4.89564 -3.67415 0
M  V30 2320 N 213.947 6.08661 -3.49966 0
M  V30 2321 H 218.787 1.7387 -2.42019 0
M  V30 2322 H 216.324 0.84868 -1.20149 0
M  V30 2323 H 218.282 3.95914 -1.31561 0
M  V30 2324 H 216.912 3.19374 -0.469033 0
M  V30 2325 H 215.964 2.56774 -2.80662 0
M  V30 2326 H 217.276 3.52557 -3.52853 0
M  V30 2327 H 216.43 5.5814 -2.37834 0
M  V30 2328 H 215.169 4.62353 -1.5518 0
M  V30 2329 H 214.174 4.00096 -3.77099 0
M  V30 2330 H 215.399 4.99282 -4.6032 0
M  V30 2331 H 213.345 6.0194 -2.60776 0
M  V30 2332 H 213.262 6.19733 -4.32975 0
M  V30 2333 H 214.53 6.99226 -3.44532 0
M  V30 2334 N 218.759 1.29093 0.90403 0
M  V30 2335 C 220.005 1.16986 1.65656 0
M  V30 2336 C 220.338 -0.278925 1.92186 0
M  V30 2337 O 219.613 -1.2019 1.5292 0
M  V30 2338 C 219.896 1.97908 3.0084 0
M  V30 2339 C 219.749 3.50903 2.81403 0
M  V30 2340 C 221.068 1.80208 4.01513 0
M  V30 2341 H 218.187 0.426346 0.601164 0
M  V30 2342 H 220.829 1.58518 1.04747 0
M  V30 2343 H 218.979 1.62616 3.52829 0
M  V30 2344 H 220.651 3.96153 2.36348 0
M  V30 2345 H 218.894 3.76045 2.1627 0
M  V30 2346 H 219.565 4.02791 3.77443 0
M  V30 2347 H 222.041 2.11025 3.58619 0
M  V30 2348 H 220.917 2.39184 4.94047 0
M  V30 2349 H 221.178 0.756119 4.35586 0
M  V30 2350 N 220.237 -1.11381 1.11499 0
M  V30 2351 C 221.169 -2.17207 0.731704 0
M  V30 2352 C 222.182 -1.61066 -0.236957 0
M  V30 2353 O 223.371 -1.78489 -0.0197591 0
M  V30 2354 C 220.471 -3.38846 0.0607624 0
M  V30 2355 C 219.644 -4.24451 1.0564 0
M  V30 2356 C 218.703 -5.24562 0.4149 0
M  V30 2357 O 217.729 -5.59071 1.069 0
M  V30 2358 N 218.931 -5.74651 -0.821943 0
M  V30 2359 H 221.696 -2.50699 1.64225 0
M  V30 2360 H 219.257 -1.26908 1.00529 0
M  V30 2361 H 221.249 -4.02911 -0.380139 0
M  V30 2362 H 219.819 -3.03411 -0.752376 0
M  V30 2363 H 219.039 -3.56833 1.67524 0
M  V30 2364 H 220.327 -4.78486 1.72998 0
M  V30 2365 H 219.725 -5.48797 -1.37252 0
M  V30 2366 H 218.282 -6.40549 -1.20582 0
M  V30 2367 N 221.715 -0.905404 -1.28997 0
M  V30 2368 C 222.665 -0.358713 -2.25161 0
M  V30 2369 C 223.649 0.524449 -1.52113 0
M  V30 2370 O 224.841 0.365534 -1.73184 0
M  V30 2371 C 221.97 0.407609 -3.40872 0
M  V30 2372 C 221.056 -0.490797 -4.21251 0
M  V30 2373 N 221.447 -1.60061 -4.79806 0
M  V30 2374 C 219.745 -0.289636 -4.45059 0
M  V30 2375 C 220.446 -2.15757 -5.40207 0
M  V30 2376 N 219.422 -1.44988 -5.23908 0
M  V30 2377 H 223.224 -1.20642 -2.67998 0
M  V30 2378 H 220.738 -0.757103 -1.43672 0
M  V30 2379 H 222.735 0.816046 -4.08835 0
M  V30 2380 H 221.395 1.25251 -2.9957 0
M  V30 2381 H 222.406 -1.98329 -4.7842 0
M  V30 2382 H 219.083 0.51643 -4.14294 0
M  V30 2383 H 220.473 -3.09069 -5.96595 0
M  V30 2384 N 223.193 1.4272 -0.668489 0
M  V30 2385 C 224.442 2.00846 -0.185389 0
M  V30 2386 C 224.755 1.53442 1.21305 0
M  V30 2387 O 225.961 2.03944 1.79218 0
M  V30 2388 C 224.417 3.58805 -0.280591 0
M  V30 2389 C 224.025 4.15198 -1.68268 0
M  V30 2390 C 225.769 4.24255 0.14412 0
M  V30 2391 C 223.676 5.655 -1.73099 0
M  V30 2392 H 222.606 0.751145 -0.0655475 0
M  V30 2393 H 225.257 1.63516 -0.832752 0
M  V30 2394 H 223.639 3.93608 0.434553 0
M  V30 2395 H 224.813 3.91866 -2.42441 0
M  V30 2396 H 223.128 3.62176 -2.05469 0
M  V30 2397 H 225.725 5.34547 0.128086 0
M  V30 2398 H 226.068 3.99277 1.17827 0
M  V30 2399 H 226.601 3.94389 -0.519798 0
M  V30 2400 H 223.34 5.95268 -2.74475 0
M  V30 2401 H 222.86 5.90842 -1.03274 0
M  V30 2402 H 224.539 6.29808 -1.48158 0
M  V30 2403 N 224.671 0.411399 1.52136 0
M  V30 2404 C 225.603 -0.448386 2.24771 0
M  V30 2405 C 226.616 -1.00828 1.27818 0
M  V30 2406 O 227.805 -0.906841 1.53749 0
M  V30 2407 C 224.905 -1.63636 2.96777 0
M  V30 2408 C 224.078 -1.19995 4.20618 0
M  V30 2409 C 223.137 -2.25509 4.75428 0
M  V30 2410 O 222.163 -1.86007 5.3795 0
M  V30 2411 N 223.365 -3.577 4.57199 0
M  V30 2412 H 226.13 0.174025 2.99194 0
M  V30 2413 H 223.691 0.238897 1.60128 0
M  V30 2414 H 225.683 -2.33793 3.30338 0
M  V30 2415 H 224.253 -2.16465 2.25526 0
M  V30 2416 H 223.473 -0.326421 3.92846 0
M  V30 2417 H 224.761 -0.885365 5.01038 0
M  V30 2418 H 224.159 -3.92543 4.07341 0
M  V30 2419 H 222.716 -4.23827 4.95191 0
M  V30 2420 N 226.149 -1.5696 0.141893 0
M  V30 2421 C 227.079 -2.19516 -0.795936 0
M  V30 2422 C 228.06 -1.14187 -1.26077 0
M  V30 2423 O 229.245 -1.42511 -1.31925 0
M  V30 2424 C 226.375 -2.81272 -2.03723 0
M  V30 2425 C 225.329 -3.92384 -1.70936 0
M  V30 2426 C 224.655 -4.41052 -3.02287 0
M  V30 2427 C 225.955 -5.13403 -0.959954 0
M  V30 2428 H 227.649 -2.98138 -0.274596 0
M  V30 2429 H 225.195 -1.43406 -0.130636 0
M  V30 2430 H 227.148 -3.237 -2.69808 0
M  V30 2431 H 225.872 -1.99973 -2.58221 0
M  V30 2432 H 224.531 -3.50566 -1.07232 0
M  V30 2433 H 224.179 -3.56582 -3.54765 0
M  V30 2434 H 223.879 -5.15993 -2.81114 0
M  V30 2435 H 225.403 -4.86146 -3.69451 0
M  V30 2436 H 226.817 -5.52706 -1.52279 0
M  V30 2437 H 225.214 -5.94073 -0.848357 0
M  V30 2438 H 226.284 -4.84875 0.0492434 0
M  V30 2439 N 227.627 0.131896 -1.57047 0
M  V30 2440 C 228.557 1.16384 -2.02428 0
M  V30 2441 C 229.538 1.43936 -0.90644 0
M  V30 2442 O 230.723 1.54599 -1.17528 0
M  V30 2443 C 227.853 2.49328 -2.4177 0
M  V30 2444 C 226.807 2.36266 -3.56879 0
M  V30 2445 C 226.133 3.74057 -3.8208 0
M  V30 2446 C 227.433 1.834 -4.89042 0
M  V30 2447 H 229.127 0.786433 -2.88887 0
M  V30 2448 H 226.673 0.376855 -1.38981 0
M  V30 2449 H 228.626 3.21759 -2.7212 0
M  V30 2450 H 227.35 2.88934 -1.52266 0
M  V30 2451 H 226.009 1.66286 -3.26718 0
M  V30 2452 H 225.657 4.11125 -2.89803 0
M  V30 2453 H 225.357 3.66174 -4.59554 0
M  V30 2454 H 226.881 4.48012 -4.1487 0
M  V30 2455 H 228.295 2.45636 -5.18011 0
M  V30 2456 H 226.692 1.8637 -5.70426 0
M  V30 2457 H 227.762 0.790662 -4.7841 0
M  V30 2458 N 229.106 1.52395 0.401703 0
M  V30 2459 C 230.038 1.72505 1.50912 0
M  V30 2460 C 231.051 0.605468 1.51122 0
M  V30 2461 O 232.24 0.880828 1.55254 0
M  V30 2462 C 229.34 1.75711 2.89791 0
M  V30 2463 C 228.513 3.04824 3.1369 0
M  V30 2464 C 227.572 2.99743 4.32482 0
M  V30 2465 O 226.598 3.73635 4.29402 0
M  V30 2466 N 227.8 2.18047 5.37992 0
M  V30 2467 H 230.565 2.68049 1.34052 0
M  V30 2468 H 228.126 1.50724 0.591084 0
M  V30 2469 H 230.118 1.69834 3.6734 0
M  V30 2470 H 228.688 0.876092 3.00072 0
M  V30 2471 H 227.908 3.2429 2.24119 0
M  V30 2472 H 229.196 3.90221 3.26504 0
M  V30 2473 H 228.594 1.57456 5.43345 0
M  V30 2474 H 227.151 2.18021 6.14256 0
M  V30 2475 N 230.584 -0.659388 1.43143 0
M  V30 2476 C 231.531 -1.77249 1.47822 0
M  V30 2477 C 232.501 -1.62818 0.328558 0
M  V30 2478 O 233.686 -1.83151 0.534838 0
M  V30 2479 C 230.826 -3.15371 1.40126 0
M  V30 2480 C 229.939 -3.4098 2.65249 0
M  V30 2481 C 229.074 -4.68915 2.49584 0
M  V30 2482 C 228.113 -4.87608 3.70006 0
M  V30 2483 N 227.25 -6.06796 3.53189 0
M  V30 2484 H 232.09 -1.72584 2.42938 0
M  V30 2485 H 229.627 -0.842297 1.20598 0
M  V30 2486 H 231.585 -3.9521 1.33659 0
M  V30 2487 H 230.215 -3.19121 0.485964 0
M  V30 2488 H 229.267 -2.55282 2.8202 0
M  V30 2489 H 230.579 -3.50681 3.54717 0
M  V30 2490 H 229.733 -5.56871 2.4079 0
M  V30 2491 H 228.472 -4.61524 1.5763 0
M  V30 2492 H 227.477 -3.9809 3.79215 0
M  V30 2493 H 228.702 -4.96834 4.62961 0
M  V30 2494 H 226.648 -6.00549 2.63965 0
M  V30 2495 H 226.565 -6.17428 4.36255 0
M  V30 2496 H 227.833 -6.9739 3.48236 0
M  V30 2497 N 232.062 -1.29571 -0.897171 0
M  V30 2498 C 233.01 -1.14802 -2.02295 0
M  V30 2499 C 234.004 -0.0629637 -1.69283 0
M  V30 2500 O 235.21 -0.222945 -1.78614 0
M  V30 2501 H 231.585 -0.354692 -0.663097 0
M  V30 2502 H 233.556 -2.10108 -2.11889 0
M  V30 2503 C 232.305 -0.843966 -3.37302 0
M  V30 2504 H 231.628 -1.67093 -3.63208 0
M  V30 2505 H 233.068 -0.780672 -4.16751 0
M  V30 2506 C 231.527 0.452843 -3.33843 0
M  V30 2507 O 232.057 1.47813 -3.73516 0
M  V30 2508 N 230.263 0.459601 -2.86943 0
M  V30 2509 H 229.81 -0.375213 -2.54853 0
M  V30 2510 H 229.768 1.32726 -2.85011 0
M  V30 2511 N 233.54 1.10788 -1.12088 0
M  V30 2512 C 234.786 1.82942 -0.875226 0
M  V30 2513 C 235.119 1.84779 0.597538 0
M  V30 2514 O 234.394 1.30578 1.44152 0
M  V30 2515 C 234.677 3.29789 -1.44606 0
M  V30 2516 C 234.53 3.36307 -2.98693 0
M  V30 2517 C 235.849 4.26064 -1.10261 0
M  V30 2518 H 232.968 0.664195 -0.319397 0
M  V30 2519 H 235.61 1.29867 -1.38689 0
M  V30 2520 H 233.76 3.75118 -1.01089 0
M  V30 2521 H 235.432 2.99487 -3.50864 0
M  V30 2522 H 233.675 2.76318 -3.34411 0
M  V30 2523 H 234.346 4.39694 -3.33726 0
M  V30 2524 H 236.822 3.88951 -1.4784 0
M  V30 2525 H 235.698 5.27183 -1.52869 0
M  V30 2526 H 235.959 4.42098 -0.0142953 0
M  V30 2527 N 235.018 0.912232 1.28515 0
M  V30 2528 C 236.434 0.610159 1.47476 0
M  V30 2529 C 236.634 -0.844955 1.82928 0
M  V30 2530 O 235.69 -1.62416 1.93332 0
M  V30 2531 C 237.003 1.54675 2.57868 0
M  V30 2532 C 238.551 1.55331 2.71738 0
M  V30 2533 C 239.026 2.47649 3.85272 0
M  V30 2534 N 240.517 2.45767 3.92623 0
M  V30 2535 C 241.252 3.13896 4.79851 0
M  V30 2536 N 240.748 3.9135 5.71679 0
M  V30 2537 N 242.541 3.02991 4.73448 0
M  V30 2538 H 234.692 1.85318 1.03783 0
M  V30 2539 H 236.955 0.794777 0.516753 0
M  V30 2540 H 236.661 2.5841 2.38574 0
M  V30 2541 H 236.535 1.27671 3.54937 0
M  V30 2542 H 238.922 0.52335 2.90422 0
M  V30 2543 H 239.003 1.86378 1.75205 0
M  V30 2544 H 238.647 3.50745 3.67342 0
M  V30 2545 H 238.577 2.13904 4.81199 0
M  V30 2546 H 241.068 1.89503 3.26951 0
M  V30 2547 H 241.381 4.40359 6.35062 0
M  V30 2548 H 239.726 3.95455 5.71524 0
M  V30 2549 H 242.917 2.41987 4.007 0
M  V30 2550 H 243.09 3.5636 5.41213 0
M  V30 2551 N 236.496 -1.42363 0.676048 0
M  V30 2552 C 237.459 -2.29199 0.00766941 0
M  V30 2553 C 238.459 -1.43389 -0.727745 0
M  V30 2554 O 239.649 -1.64764 -0.56556 0
M  V30 2555 C 236.781 -3.2591 -0.999785 0
M  V30 2556 H 237.974 -2.89794 0.771988 0
M  V30 2557 H 235.527 -1.50024 0.438468 0
M  V30 2558 H 236.262 -2.70256 -1.79255 0
M  V30 2559 H 236.047 -3.89202 -0.475829 0
M  V30 2560 H 237.537 -3.91028 -1.46583 0
M  V30 2561 N 237.974 -0.419461 -1.51915 0
M  V30 2562 C 238.906 0.43646 -2.25006 0
M  V30 2563 C 239.919 1.00149 -1.28351 0
M  V30 2564 O 241.108 0.898674 -1.54227 0
M  V30 2565 C 238.208 1.6206 -2.9764 0
M  V30 2566 C 237.381 1.17763 -4.21249 0
M  V30 2567 C 236.44 2.22985 -4.76617 0
M  V30 2568 O 235.466 1.83151 -5.38929 0
M  V30 2569 N 236.668 3.55271 -4.59089 0
M  V30 2570 H 239.433 -0.18989 -2.99098 0
M  V30 2571 H 236.994 -0.247386 -1.59999 0
M  V30 2572 H 238.986 2.32038 -3.31573 0
M  V30 2573 H 237.556 2.15266 -2.2667 0
M  V30 2574 H 236.776 0.305582 -3.93014 0
M  V30 2575 H 238.064 0.858781 -5.015 0
M  V30 2576 H 237.462 3.90377 -4.09417 0
M  V30 2577 H 236.019 4.21195 -4.97432 0
M  V30 2578 N 239.452 1.56882 -0.150215 0
M  V30 2579 C 240.382 2.19935 0.784284 0
M  V30 2580 C 241.363 1.14854 1.25469 0
M  V30 2581 O 242.548 1.43209 1.31168 0
M  V30 2582 C 239.678 2.82349 2.02229 0
M  V30 2583 C 238.632 3.93285 1.68853 0
M  V30 2584 C 237.958 4.42649 2.99944 0
M  V30 2585 C 239.258 5.13904 0.932714 0
M  V30 2586 H 240.952 2.9828 0.258781 0
M  V30 2587 H 238.498 1.43473 0.123029 0
M  V30 2588 H 240.451 3.25126 2.68088 0
M  V30 2589 H 239.175 2.0134 2.57157 0
M  V30 2590 H 237.834 3.5113 1.05371 0
M  V30 2591 H 237.482 3.58458 3.52869 0
M  V30 2592 H 237.182 5.17476 2.78374 0
M  V30 2593 H 238.706 4.88099 3.66868 0
M  V30 2594 H 240.12 5.53506 1.49345 0
M  V30 2595 H 238.517 5.94515 0.81684 0
M  V30 2596 H 239.587 4.84842 -0.0749568 0
M  V30 2597 N 240.93 -0.123565 1.57115 0
M  V30 2598 C 242.176 -0.833386 1.84885 0
M  V30 2599 C 242.509 -1.79742 0.735292 0
M  V30 2600 O 241.784 -1.92764 -0.25925 0
M  V30 2601 C 242.067 -1.5873 3.23228 0
M  V30 2602 C 241.92 -0.643183 4.45178 0
M  V30 2603 C 243.239 -2.54453 3.59085 0
M  V30 2604 H 240.358 -0.301518 0.6725 0
M  V30 2605 H 243 -0.097778 1.89748 0
M  V30 2606 H 241.15 -2.21438 3.19214 0
M  V30 2607 H 242.822 -0.0253015 4.61293 0
M  V30 2608 H 241.065 0.0456139 4.33776 0
M  V30 2609 H 241.736 -1.20724 5.38637 0
M  V30 2610 H 244.212 -2.01853 3.63861 0
M  V30 2611 H 243.088 -3.04238 4.5687 0
M  V30 2612 H 243.349 -3.36906 2.86264 0
M  V30 2613 N 242.408 -1.52605 -0.393616 0
M  V30 2614 C 243.685 -1.58001 -1.15304 0
M  V30 2615 C 244.065 -0.370385 -2.07825 0
M  V30 2616 O 243.413 0.641638 -2.19306 0
M  V30 2617 C 243.623 -2.91652 -1.91677 0
M  V30 2618 C 244.971 -3.4522 -2.47201 0
M  V30 2619 O 245.995 -2.93495 -2.01839 0
M  V30 2620 O 244.854 -4.35579 -3.3005 0
M  V30 2621 H 241.948 -0.637068 -0.527327 0
M  V30 2622 H 244.494 -1.64939 -0.399141 0
M  V30 2623 H 243.266 -3.71136 -1.23992 0
M  V30 2624 H 242.889 -2.88077 -2.74039 0
M  V30 2625 N 243.887 0.651787 -1.4349 0
M  V30 2626 C 244.82 1.77668 -1.43211 0
M  V30 2627 C 245.798 1.59931 -0.29338 0
M  V30 2628 O 246.982 1.82095 -0.487191 0
M  V30 2629 C 244.109 3.14986 -1.24505 0
M  V30 2630 C 243.155 3.51421 -2.41673 0
M  V30 2631 S 243.988 3.51234 -4.04222 0
M  V30 2632 C 245.144 4.91206 -3.87902 0
M  V30 2633 H 245.377 1.77635 -2.38397 0
M  V30 2634 H 242.91 0.824558 -1.30539 0
M  V30 2635 H 244.868 3.94237 -1.144 0
M  V30 2636 H 243.529 3.1258 -0.308651 0
M  V30 2637 H 242.722 4.51291 -2.24393 0
M  V30 2638 H 242.324 2.79585 -2.48411 0
M  V30 2639 H 244.616 5.79902 -3.50315 0
M  V30 2640 H 245.559 5.13537 -4.8753 0
M  V30 2641 H 245.967 4.64808 -3.20334 0
M  V30 2642 N 245.365 1.30045 0.890287 0
M  V30 2643 C 246.312 1.15976 1.99545 0
M  V30 2644 C 247.282 0.0506202 1.66023 0
M  V30 2645 O 248.467 0.219847 1.89529 0
M  V30 2646 C 245.607 0.852054 3.34416 0
M  V30 2647 C 244.72 2.04255 3.80662 0
M  V30 2648 C 243.855 1.6734 5.04154 0
M  V30 2649 C 242.894 2.82916 5.42794 0
M  V30 2650 N 242.031 2.46333 6.57468 0
M  V30 2651 H 246.871 2.10524 2.10911 0
M  V30 2652 H 244.408 1.04749 1.03276 0
M  V30 2653 H 246.366 0.654296 4.12037 0
M  V30 2654 H 244.996 -0.0565502 3.2275 0
M  V30 2655 H 244.048 2.35172 2.98995 0
M  V30 2656 H 245.36 2.90826 4.05242 0
M  V30 2657 H 244.514 1.43908 5.89386 0
M  V30 2658 H 243.253 0.779308 4.81433 0
M  V30 2659 H 242.258 3.0702 4.56091 0
M  V30 2660 H 243.483 3.73004 5.6749 0
M  V30 2661 H 241.429 1.59423 6.36334 0
M  V30 2662 H 241.346 3.26436 6.81891 0
M  V30 2663 H 242.614 2.26244 7.45945 0
M  V30 2664 N 246.843 -1.10192 1.12674 0
M  V30 2665 C 248.259 -1.34235 0.863317 0
M  V30 2666 C 248.459 -1.95062 -0.505277 0
M  V30 2667 O 247.515 -2.19192 -1.25345 0
M  V30 2668 C 248.828 -2.2616 1.98172 0
M  V30 2669 C 250.376 -2.3969 2.0129 0
M  V30 2670 C 250.851 -3.34946 3.1237 0
M  V30 2671 N 252.342 -3.42515 3.11829 0
M  V30 2672 C 253.077 -4.16199 3.94419 0
M  V30 2673 N 252.573 -4.92747 4.87004 0
M  V30 2674 N 254.366 -4.11843 3.82547 0
M  V30 2675 H 246.517 -0.690798 2.00853 0
M  V30 2676 H 248.78 -0.366774 0.874174 0
M  V30 2677 H 248.486 -1.8868 2.96804 0
M  V30 2678 H 248.36 -3.26488 1.88906 0
M  V30 2679 H 250.747 -2.76438 1.03276 0
M  V30 2680 H 250.828 -1.39169 2.14629 0
M  V30 2681 H 250.472 -2.98923 4.10619 0
M  V30 2682 H 250.402 -4.35353 2.96269 0
M  V30 2683 H 252.893 -2.87926 2.44759 0
M  V30 2684 H 253.206 -5.46376 5.46528 0
M  V30 2685 H 251.551 -4.91862 4.91016 0
M  V30 2686 H 254.742 -3.51136 3.0955 0
M  V30 2687 H 254.915 -4.69007 4.47142 0
M  V30 2688 N 248.321 -0.919034 -1.28029 0
M  V30 2689 C 249.251 -0.428581 -2.29533 0
M  V30 2690 C 250.232 0.50659 -1.62381 0
M  V30 2691 O 251.417 0.413195 -1.89753 0
M  V30 2692 C 248.547 0.327388 -3.45753 0
M  V30 2693 C 247.501 -0.519137 -4.2484 0
M  V30 2694 C 246.827 0.365486 -5.33449 0
M  V30 2695 C 248.127 -1.77914 -4.91064 0
M  V30 2696 H 249.821 -1.27687 -2.70807 0
M  V30 2697 H 247.367 -0.615428 -1.30186 0
M  V30 2698 H 249.32 0.681378 -4.15855 0
M  V30 2699 H 248.044 1.20963 -3.03374 0
M  V30 2700 H 246.703 -0.855717 -3.56473 0
M  V30 2701 H 246.351 1.24642 -4.87312 0
M  V30 2702 H 246.051 -0.197356 -5.87268 0
M  V30 2703 H 247.575 0.715241 -6.06396 0
M  V30 2704 H 248.989 -1.49374 -5.53498 0
M  V30 2705 H 247.386 -2.2848 -5.54903 0
M  V30 2706 H 248.456 -2.50382 -4.15255 0
M  V30 2707 N 249.799 1.42003 -0.683588 0
M  V30 2708 C 250.709 2.34597 -0.0109075 0
M  V30 2709 C 251.725 1.55576 0.779245 0
M  V30 2710 O 252.901 1.88107 0.719555 0
M  V30 2711 C 249.966 3.34199 0.922588 0
M  V30 2712 C 249.027 4.29115 0.125984 0
M  V30 2713 C 248.26 5.23959 1.01502 0
M  V30 2714 O 248.483 5.23952 2.25456 0
M  V30 2715 O 247.417 6.00053 0.47111 0
M  V30 2716 H 251.243 2.93675 -0.773853 0
M  V30 2717 H 248.828 1.42654 -0.443861 0
M  V30 2718 H 250.71 3.95365 1.45823 0
M  V30 2719 H 249.385 2.77582 1.66523 0
M  V30 2720 H 248.292 3.71335 -0.453969 0
M  V30 2721 H 249.625 4.88798 -0.577736 0
M  V30 2722 N 251.277 0.427512 1.51691 0
M  V30 2723 C 252.523 -0.142439 2.02299 0
M  V30 2724 C 252.856 -1.43214 1.31162 0
M  V30 2725 O 252.131 -1.89833 0.423511 0
M  V30 2726 C 252.414 -0.371301 3.58181 0
M  V30 2727 C 252.267 0.936358 4.39946 0
M  V30 2728 C 253.586 -1.14542 4.24933 0
M  V30 2729 H 250.705 -0.0502937 0.735282 0
M  V30 2730 H 253.347 0.564584 1.81418 0
M  V30 2731 H 251.497 -0.973559 3.76104 0
M  V30 2732 H 253.169 1.57184 4.33694 0
M  V30 2733 H 251.412 1.5432 4.05423 0
M  V30 2734 H 252.083 0.730388 5.47147 0
M  V30 2735 H 254.559 -0.635362 4.11221 0
M  V30 2736 H 253.435 -1.27431 5.33903 0
M  V30 2737 H 253.696 -2.17093 3.85127 0
M  V30 2738 N 252.755 -1.56801 0.158532 0
M  V30 2739 C 254.032 -1.88131 -0.535357 0
M  V30 2740 C 254.412 -1.06638 -1.82186 0
M  V30 2741 O 253.76 -0.156533 -2.27963 0
M  V30 2742 C 253.97 -3.39949 -0.789653 0
M  V30 2743 C 255.318 -4.09416 -1.12533 0
M  V30 2744 O 256.342 -3.45194 -0.878622 0
M  V30 2745 O 255.201 -5.22855 -1.59014 0
M  V30 2746 H 252.295 -0.780143 -0.27442 0
M  V30 2747 H 254.841 -1.68564 0.19601 0
M  V30 2748 H 253.613 -3.91115 0.120353 0
M  V30 2749 H 253.236 -3.65084 -1.57479 0
M  V30 2750 N 254.233 0.115231 -1.57178 0
M  V30 2751 C 255.482 0.820945 -1.84237 0
M  V30 2752 C 255.795 1.80866 -0.744761 0
M  V30 2753 O 257.001 2.56083 -0.901871 0
M  V30 2754 C 255.457 1.51072 -3.26658 0
M  V30 2755 C 255.065 0.563795 -4.44438 0
M  V30 2756 C 256.809 2.20134 -3.62962 0
M  V30 2757 C 254.716 1.25701 -5.77887 0
M  V30 2758 H 253.646 0.310328 -0.687177 0
M  V30 2759 H 256.297 0.0737134 -1.83352 0
M  V30 2760 H 254.679 2.30471 -3.22024 0
M  V30 2761 H 255.853 -0.197247 -4.60378 0
M  V30 2762 H 254.168 -0.0200638 -4.16395 0
M  V30 2763 H 256.765 2.72696 -4.59936 0
M  V30 2764 H 257.108 2.98107 -2.90582 0
M  V30 2765 H 257.641 1.47619 -3.69396 0
M  V30 2766 H 254.38 0.518493 -6.53446 0
M  V30 2767 H 253.9 1.98997 -5.65827 0
M  V30 2768 H 255.579 1.78915 -6.2177 0
M  V30 2769 N 255.711 1.52812 0.385517 0
M  V30 2770 C 256.988 1.5861 1.14465 0
M  V30 2771 C 257.368 0.381402 2.07626 0
M  V30 2772 O 256.716 -0.629999 2.19643 0
M  V30 2773 C 256.926 2.92664 1.90128 0
M  V30 2774 C 258.274 3.46526 2.45367 0
M  V30 2775 O 259.298 2.94562 2.0028 0
M  V30 2776 O 258.157 4.37323 3.27736 0
M  V30 2777 H 255.251 0.639855 0.523941 0
M  V30 2778 H 257.797 1.65149 0.390389 0
M  V30 2779 H 256.569 3.71788 1.22022 0
M  V30 2780 H 256.192 2.89527 2.72507 0
M  V30 2781 N 257.189 -0.644168 1.43834 0
M  V30 2782 C 258.438 -1.39985 1.45214 0
M  V30 2783 C 258.751 -1.95421 0.0835494 0
M  V30 2784 O 259.957 -2.71488 -0.0251748 0
M  V30 2785 C 258.413 -2.53384 2.55587 0
M  V30 2786 C 258.021 -2.04517 3.98594 0
M  V30 2787 C 259.765 -3.30685 2.66172 0
M  V30 2788 C 257.672 -3.1518 5.00416 0
M  V30 2789 H 256.602 -0.526005 0.540218 0
M  V30 2790 H 259.253 -0.694367 1.69855 0
M  V30 2791 H 257.635 -3.26446 2.24163 0
M  V30 2792 H 258.809 -1.38405 4.39523 0
M  V30 2793 H 257.124 -1.40068 3.92135 0
M  V30 2794 H 259.721 -4.13158 3.39418 0
M  V30 2795 H 260.064 -3.79312 1.71546 0
M  V30 2796 H 260.597 -2.64708 2.96942 0
M  V30 2797 H 257.336 -2.71511 5.96625 0
M  V30 2798 H 256.856 -3.79974 4.64091 0
M  V30 2799 H 258.535 -3.80166 5.23529 0
M  V30 2800 N 258.668 -1.30515 -0.883378 0
M  V30 2801 C 259.615 -1.17032 -1.98927 0
M  V30 2802 C 260.585 -0.0594241 -1.65994 0
M  V30 2803 O 261.77 -0.229895 -1.8941 0
M  V30 2804 C 258.91 -0.869777 -3.33959 0
M  V30 2805 C 258.023 -2.06271 -3.79574 0
M  V30 2806 C 257.158 -1.70011 -5.03259 0
M  V30 2807 C 256.197 -2.8579 -5.41286 0
M  V30 2808 N 255.334 -2.49816 -6.56153 0
M  V30 2809 H 260.174 -2.1164 -2.09792 0
M  V30 2810 H 257.711 -1.05296 -1.02719 0
M  V30 2811 H 259.669 -0.676138 -4.11685 0
M  V30 2812 H 258.299 0.0394332 -3.22776 0
M  V30 2813 H 257.351 -2.36755 -2.97744 0
M  V30 2814 H 258.663 -2.92971 -4.03694 0
M  V30 2815 H 257.817 -1.47032 -5.88614 0
M  V30 2816 H 256.556 -0.804829 -4.81013 0
M  V30 2817 H 255.561 -3.09434 -4.54456 0
M  V30 2818 H 256.786 -3.76008 -5.65504 0
M  V30 2819 H 254.732 -1.62795 -6.35479 0
M  V30 2820 H 254.649 -3.30048 -6.8015 0
M  V30 2821 H 255.917 -2.30197 -7.44735 0
M  V30 2822 N 260.146 1.09593 -1.13257 0
M  V30 2823 C 261.395 1.81105 -0.887917 0
M  V30 2824 C 261.708 1.86563 0.587672 0
M  V30 2825 O 262.914 2.54367 0.949204 0
M  V30 2826 C 261.37 3.25338 -1.53895 0
M  V30 2827 C 260.978 3.28151 -3.04994 0
M  V30 2828 C 262.722 4.01617 -1.37492 0
M  V30 2829 C 260.629 4.66897 -3.6299 0
M  V30 2830 H 259.559 0.678661 -0.328534 0
M  V30 2831 H 262.21 1.23183 -1.36008 0
M  V30 2832 H 260.592 3.8331 -0.994446 0
M  V30 2833 H 261.766 2.79953 -3.66009 0
M  V30 2834 H 260.081 2.65361 -3.20893 0
M  V30 2835 H 262.678 5.04119 -1.78235 0
M  V30 2836 H 263.021 4.15072 -0.31957 0
M  V30 2837 H 263.554 3.50082 -1.88912 0
M  V30 2838 H 260.293 4.58643 -4.68323 0
M  V30 2839 H 259.813 5.15426 -3.06752 0
M  V30 2840 H 261.492 5.3587 -3.62563 0
M  V30 2841 N 261.624 0.925811 1.2754 0
M  V30 2842 C 263.04 0.625767 1.46821 0
M  V30 2843 C 263.24 -0.825506 1.83814 0
M  V30 2844 O 262.296 -1.60356 1.95044 0
M  V30 2845 C 263.609 1.57402 2.56213 0
M  V30 2846 C 265.157 1.58204 2.70075 0
M  V30 2847 C 265.632 2.51721 3.82623 0
M  V30 2848 N 267.123 2.49917 3.89994 0
M  V30 2849 C 267.858 3.18968 4.76494 0
M  V30 2850 N 267.354 3.97391 5.67496 0
M  V30 2851 N 269.147 3.07996 4.70208 0
M  V30 2852 H 261.298 1.86409 1.01811 0
M  V30 2853 H 263.561 0.800213 0.508295 0
M  V30 2854 H 263.267 2.60925 2.35819 0
M  V30 2855 H 263.141 1.31428 3.53563 0
M  V30 2856 H 265.528 0.554124 2.89851 0
M  V30 2857 H 265.609 1.88226 1.73218 0
M  V30 2858 H 265.253 3.54622 3.63601 0
M  V30 2859 H 265.183 2.18996 4.78903 0
M  V30 2860 H 267.674 1.9296 3.24923 0
M  V30 2861 H 267.987 4.4707 6.30356 0
M  V30 2862 H 266.332 4.01495 5.67298 0
M  V30 2863 H 269.523 2.46223 3.9811 0
M  V30 2864 H 269.696 3.6208 5.37403 0
M  V30 2865 N 263.102 -1.41638 0.69111 0
M  V30 2866 C 264.327 -2.06148 0.227583 0
M  V30 2867 C 264.752 -1.51652 -1.11281 0
M  V30 2868 O 264.11 -0.64164 -1.69566 0
M  V30 2869 C 264.158 -3.60095 0.190858 0
M  V30 2870 O 263.262 -4.03845 -0.835664 0
M  V30 2871 H 262.603 -0.654434 0.112306 0
M  V30 2872 H 265.133 -1.81484 0.944714 0
M  V30 2873 H 265.143 -4.07995 0.020207 0
M  V30 2874 H 263.818 -3.99129 1.16915 0
M  V30 2875 H 262.395 -3.67458 -0.63473 0
M  V30 2876 N 264.58 -0.43555 -1.51462 0
M  V30 2877 C 265.82 0.130708 -2.03982 0
M  V30 2878 C 266.184 1.40117 -1.31268 0
M  V30 2879 O 267.385 2.04755 -1.74152 0
M  V30 2880 C 265.656 0.346102 -3.5572 0
M  V30 2881 S 267.215 0.876022 -4.29967 0
M  V30 2882 H 264.033 0.0326881 -0.710248 0
M  V30 2883 H 266.635 -0.594544 -1.8624 0
M  V30 2884 H 265.339 -0.584911 -4.0621 0
M  V30 2885 H 264.87 1.09849 -3.77752 0
M  V30 2886 H 266.885 2.15379 -4.47019 0
M  V30 2887 N 266.058 1.56714 -0.166846 0
M  V30 2888 C 267.474 1.58473 0.189372 0
M  V30 2889 C 267.674 1.18201 1.63189 0
M  V30 2890 O 266.73 0.891528 2.36237 0
M  V30 2891 C 268.043 3.00573 -0.0873872 0
M  V30 2892 C 269.591 3.1299 -0.0252443 0
M  V30 2893 C 270.066 4.57174 -0.274934 0
M  V30 2894 N 271.557 4.62665 -0.222553 0
M  V30 2895 C 272.292 5.72072 -0.389985 0
M  V30 2896 N 271.788 6.90054 -0.616229 0
M  V30 2897 N 273.581 5.61153 -0.326202 0
M  V30 2898 H 265.732 1.8118 -1.10849 0
M  V30 2899 H 267.995 0.839525 -0.440342 0
M  V30 2900 H 267.701 3.34497 -1.0865 0
M  V30 2901 H 267.575 3.72019 0.623037 0
M  V30 2902 H 269.962 2.78895 0.96444 0
M  V30 2903 H 270.043 2.43989 -0.768309 0
M  V30 2904 H 269.687 4.91976 -1.26181 0
M  V30 2905 H 269.617 5.24328 0.48869 0
M  V30 2906 H 272.108 3.77863 -0.0531512 0
M  V30 2907 H 272.421 7.69311 -0.733559 0
M  V30 2908 H 270.766 6.91927 -0.652791 0
M  V30 2909 H 273.957 4.67859 -0.150072 0
M  V30 2910 H 274.13 6.46364 -0.460116 0
M  V30 2911 N 267.536 -0.106894 1.57237 0
M  V30 2912 C 268.784 -0.810921 1.85117 0
M  V30 2913 C 269.105 -1.7984 0.753827 0
M  V30 2914 O 268.375 -1.94649 -0.221056 0
M  V30 2915 H 266.955 -0.302466 0.683025 0
M  V30 2916 H 269.617 -0.0913324 1.94686 0
M  V30 2917 H 268.713 -1.34875 2.81452 0
M  V30 2918 N 269.014 -1.53014 -0.377408 0
M  V30 2919 C 270.239 -1.72818 -1.14668 0
M  V30 2920 C 270.664 -0.450725 -1.8262 0
M  V30 2921 O 270.022 0.59439 -1.7128 0
M  V30 2922 C 270.07 -2.88627 -2.16164 0
M  V30 2923 O 269.174 -2.56409 -3.22998 0
M  V30 2924 H 268.515 -0.574301 -0.333278 0
M  V30 2925 H 271.045 -1.99853 -0.438152 0
M  V30 2926 H 271.055 -3.14455 -2.59966 0
M  V30 2927 H 269.73 -3.81294 -1.66095 0
M  V30 2928 H 268.307 -2.4136 -2.84253 0
M  V30 2929 N 270.492 0.636531 -1.44174 0
M  V30 2930 C 271.732 1.40781 -1.48189 0
M  V30 2931 C 272.096 1.91688 -0.10944 0
M  V30 2932 O 273.297 2.68789 -0.0242741 0
M  V30 2933 C 271.568 2.54575 -2.50851 0
M  V30 2934 S 273.127 3.4284 -2.73873 0
M  V30 2935 H 269.945 0.480345 -0.524204 0
M  V30 2936 H 272.547 0.737416 -1.81059 0
M  V30 2937 H 271.251 2.15478 -3.49281 0
M  V30 2938 H 270.782 3.26447 -2.19536 0
M  V30 2939 H 272.797 4.51846 -2.05059 0
M  V30 2940 N 271.97 1.30982 0.876444 0
M  V30 2941 C 273.195 1.23373 1.66715 0
M  V30 2942 C 273.62 -0.19885 1.87046 0
M  V30 2943 O 272.978 -1.1427 1.40756 0
M  V30 2944 C 273.026 1.97644 3.01611 0
M  V30 2945 O 272.13 1.30935 3.91062 0
M  V30 2946 H 271.471 0.426279 0.509099 0
M  V30 2947 H 274.001 1.72944 1.09323 0
M  V30 2948 H 274.011 2.06992 3.51594 0
M  V30 2949 H 272.686 3.01829 2.86133 0
M  V30 2950 H 271.263 1.29996 3.49507 0
M  V30 2951 N 273.449 -1.08991 1.13837 0
M  V30 2952 C 274.865 -1.33312 0.877506 0
M  V30 2953 C 275.065 -1.95587 -0.48456 0
M  V30 2954 O 274.121 -2.20509 -1.23013 0
M  V30 2955 C 275.434 -2.24045 2.0056 0
M  V30 2956 C 276.982 -2.37542 2.03821 0
M  V30 2957 C 277.457 -3.31614 3.15905 0
M  V30 2958 N 278.948 -3.39189 3.15445 0
M  V30 2959 C 279.683 -4.11992 3.98811 0
M  V30 2960 N 279.179 -4.87553 4.92203 0
M  V30 2961 N 280.972 -4.07762 3.86894 0
M  V30 2962 H 273.123 -0.669456 2.01574 0
M  V30 2963 H 275.386 -0.357482 0.878015 0
M  V30 2964 H 275.092 -1.85521 2.98789 0
M  V30 2965 H 274.966 -3.24466 1.92359 0
M  V30 2966 H 277.353 -2.75327 1.06202 0
M  V30 2967 H 277.434 -1.36884 2.16093 0
M  V30 2968 H 277.078 -2.94551 4.13766 0
M  V30 2969 H 277.008 -4.32186 3.0087 0
M  V30 2970 H 279.499 -2.85314 2.47799 0
M  V30 2971 H 279.812 -5.40549 5.52292 0
M  V30 2972 H 278.157 -4.86627 4.96205 0
M  V30 2973 H 281.348 -3.47833 3.13257 0
M  V30 2974 H 281.521 -4.64238 4.52092 0
M  V30 2975 N 274.927 -0.932562 -1.27047 0
M  V30 2976 C 275.89 -0.440064 -2.24936 0
M  V30 2977 C 276.89 0.444071 -1.54547 0
M  V30 2978 O 278.08 0.244465 -1.72476 0
M  V30 2979 C 275.212 0.36678 -3.38921 0
M  V30 2980 H 276.405 -1.305 -2.70018 0
M  V30 2981 H 273.958 -0.713707 -1.39054 0
M  V30 2982 H 274.693 1.25033 -2.99228 0
M  V30 2983 H 274.478 -0.267204 -3.91188 0
M  V30 2984 H 275.968 0.701567 -4.11665 0
M  V30 2985 N 276.405 1.4127 -0.698611 0
M  V30 2986 C 277.335 2.33447 -0.049629 0
M  V30 2987 C 278.316 1.51982 0.763898 0
M  V30 2988 O 279.501 1.80509 0.716257 0
M  V30 2989 C 276.631 3.35828 0.885267 0
M  V30 2990 C 275.585 4.27627 0.178613 0
M  V30 2991 C 274.911 5.20406 1.22807 0
M  V30 2992 C 276.211 5.13459 -0.956933 0
M  V30 2993 H 277.905 2.87966 -0.81951 0
M  V30 2994 H 275.451 1.38461 -0.395538 0
M  V30 2995 H 277.404 3.9924 1.34854 0
M  V30 2996 H 276.128 2.79666 1.68685 0
M  V30 2997 H 274.787 3.65643 -0.26466 0
M  V30 2998 H 274.435 4.60558 2.02226 0
M  V30 2999 H 274.135 5.82661 0.760239 0
M  V30 3000 H 275.659 5.86695 1.69179 0
M  V30 3001 H 277.073 5.70421 -0.573805 0
M  V30 3002 H 275.47 5.8467 -1.35205 0
M  V30 3003 H 276.54 4.50443 -1.79524 0
M  V30 3004 N 277.883 0.443576 1.51229 0
M  V30 3005 C 278.846 -0.353132 2.26463 0
M  V30 3006 C 279.846 -0.944338 1.3015 0
M  V30 3007 O 281.036 -0.817813 1.5381 0
M  V30 3008 C 278.168 -1.50023 3.06114 0
M  V30 3009 H 279.361 0.3063 2.98332 0
M  V30 3010 H 276.914 0.196902 1.55055 0
M  V30 3011 H 277.649 -2.19553 2.38677 0
M  V30 3012 H 277.434 -1.08241 3.76864 0
M  V30 3013 H 278.924 -2.06296 3.63087 0
M  V30 3014 N 279.361 -1.56624 0.175154 0
M  V30 3015 C 280.777 -1.58571 -0.180966 0
M  V30 3016 C 280.977 -1.19065 -1.6256 0
M  V30 3017 O 280.033 -0.904044 -2.35761 0
M  V30 3018 C 281.346 -3.00522 0.103326 0
M  V30 3019 C 282.894 -3.12972 0.0418426 0
M  V30 3020 C 283.369 -4.57022 0.299175 0
M  V30 3021 N 284.86 -4.62541 0.247086 0
M  V30 3022 C 285.595 -5.71857 0.420318 0
M  V30 3023 N 285.091 -6.89717 0.652816 0
M  V30 3024 N 286.884 -5.60972 0.355957 0
M  V30 3025 H 279.035 -1.80589 1.11809 0
M  V30 3026 H 281.298 -0.837178 0.444788 0
M  V30 3027 H 281.004 -3.33916 1.10422 0
M  V30 3028 H 280.878 -3.72344 -0.603299 0
M  V30 3029 H 283.265 -2.79403 -0.949636 0
M  V30 3030 H 283.346 -2.43578 0.781238 0
M  V30 3031 H 282.99 -4.913 1.28788 0
M  V30 3032 H 282.92 -5.24579 -0.460876 0
M  V30 3033 H 285.411 -3.77829 0.0731895 0
M  V30 3034 H 285.724 -7.68911 0.774347 0
M  V30 3035 H 284.069 -6.91572 0.689476 0
M  V30 3036 H 287.26 -4.67773 0.174882 0
M  V30 3037 H 287.433 -6.46111 0.494388 0
M  V30 3038 N 280.839 0.0985539 -1.57292 0
M  V30 3039 C 281.749 1.13824 -2.05137 0
M  V30 3040 C 282.765 1.44076 -0.975604 0
M  V30 3041 O 283.941 1.54786 -1.28853 0
M  V30 3042 C 281.006 2.43969 -2.46333 0
M  V30 3043 C 280.067 2.2093 -3.68087 0
M  V30 3044 C 279.3 3.44869 -4.0731 0
M  V30 3045 O 279.523 4.52972 -3.46659 0
M  V30 3046 O 278.457 3.34661 -5.00285 0
M  V30 3047 H 282.283 0.761881 -2.93988 0
M  V30 3048 H 279.868 0.310818 -1.46131 0
M  V30 3049 H 281.75 3.20609 -2.73473 0
M  V30 3050 H 280.425 2.81038 -1.60621 0
M  V30 3051 H 279.332 1.42081 -3.46069 0
M  V30 3052 H 280.665 1.88755 -4.54568 0
M  V30 3053 N 282.317 1.53212 0.369288 0
M  V30 3054 C 283.563 1.69466 1.11397 0
M  V30 3055 C 283.896 0.443257 1.89074 0
M  V30 3056 O 283.171 -0.559386 1.86282 0
M  V30 3057 C 283.454 2.9422 2.07621 0
M  V30 3058 C 283.307 4.29508 1.33577 0
M  V30 3059 C 284.626 3.14565 3.07794 0
M  V30 3060 H 281.745 0.616667 0.403597 0
M  V30 3061 H 284.387 1.85845 0.395179 0
M  V30 3062 H 282.537 2.80387 2.68916 0
M  V30 3063 H 284.209 4.55147 0.750955 0
M  V30 3064 H 282.452 4.29088 0.637618 0
M  V30 3065 H 283.123 5.12926 2.03989 0
M  V30 3066 H 285.599 3.2756 2.56601 0
M  V30 3067 H 284.475 4.03297 3.72348 0
M  V30 3068 H 284.736 2.29675 3.77759 0
M  V30 3069 N 283.795 -0.628877 1.44509 0
M  V30 3070 C 285.072 -1.38733 1.37886 0
M  V30 3071 C 285.452 -2.11065 0.0387008 0
M  V30 3072 O 284.8 -2.06476 -0.97878 0
M  V30 3073 C 285.01 -2.35188 2.57852 0
M  V30 3074 C 286.358 -2.9845 3.02014 0
M  V30 3075 O 287.382 -2.45513 2.58073 0
M  V30 3076 O 286.241 -3.94487 3.78209 0
M  V30 3077 H 283.335 -0.621015 0.54614 0
M  V30 3078 H 285.881 -0.653744 1.56602 0
M  V30 3079 H 284.653 -1.80855 3.46998 0
M  V30 3080 H 284.276 -3.1596 2.4136 0
M  V30 3081 N 285.273 -1.31445 -0.869486 0
M  V30 3082 C 286.203 -1.21727 -1.99261 0
M  V30 3083 C 287.184 -0.104359 -1.6978 0
M  V30 3084 O 288.369 -0.289038 -1.92037 0
M  V30 3085 C 285.499 -0.924317 -3.34774 0
M  V30 3086 C 284.453 -1.99685 -3.78563 0
M  V30 3087 C 283.779 -1.55658 -5.11541 0
M  V30 3088 C 285.079 -3.41003 -3.95619 0
M  V30 3089 H 286.773 -2.1569 -2.07649 0
M  V30 3090 H 284.319 -1.03839 -0.997675 0
M  V30 3091 H 286.272 -0.842934 -4.12883 0
M  V30 3092 H 284.996 0.0509793 -3.2656 0
M  V30 3093 H 283.655 -2.06813 -3.02694 0
M  V30 3094 H 283.303 -0.569132 -4.9977 0
M  V30 3095 H 283.003 -2.27409 -5.41811 0
M  V30 3096 H 284.527 -1.48928 -5.92159 0
M  V30 3097 H 285.941 -3.36547 -4.64122 0
M  V30 3098 H 284.338 -4.10975 -4.37286 0
M  V30 3099 H 285.408 -3.81754 -2.98985 0
M  V30 3100 N 286.751 1.08385 -1.14413 0
M  V30 3101 C 287.698 2.15311 -0.831265 0
M  V30 3102 C 288.668 1.64751 0.211292 0
M  V30 3103 O 289.853 1.90627 0.0811674 0
M  V30 3104 C 286.993 3.43658 -0.315143 0
M  V30 3105 C 286.106 4.08064 -1.41802 0
M  V30 3106 C 285.241 5.24207 -0.859126 0
M  V30 3107 C 284.28 5.80554 -1.93967 0
M  V30 3108 N 283.417 6.88042 -1.39793 0
M  V30 3109 H 288.257 2.41415 -1.74708 0
M  V30 3110 H 285.794 1.18474 -0.871909 0
M  V30 3111 H 287.752 4.172 0.00230884 0
M  V30 3112 H 286.382 3.17839 0.56378 0
M  V30 3113 H 285.434 3.3228 -1.85187 0
M  V30 3114 H 286.746 4.45962 -2.23427 0
M  V30 3115 H 285.9 6.04689 -0.49359 0
M  V30 3116 H 284.639 4.87699 -0.011932 0
M  V30 3117 H 283.644 4.98725 -2.31415 0
M  V30 3118 H 284.869 6.19121 -2.79046 0
M  V30 3119 H 282.815 6.53493 -0.572919 0
M  V30 3120 H 282.732 7.24767 -2.15054 0
M  V30 3121 H 284 7.72255 -1.0603 0
M  V30 3122 N 288.23 0.939286 1.26551 0
M  V30 3123 C 289.507 0.5038 1.89001 0
M  V30 3124 C 289.887 -1.01854 1.84903 0
M  V30 3125 O 289.235 -1.87773 1.30206 0
M  V30 3126 C 289.445 1.063 3.32417 0
M  V30 3127 C 290.793 1.13051 4.09273 0
M  V30 3128 O 291.817 1.01345 3.41479 0
M  V30 3129 O 290.676 1.31233 5.30509 0
M  V30 3130 H 287.77 0.163897 0.810597 0
M  V30 3131 H 290.316 1.03173 1.34735 0
M  V30 3132 H 289.088 2.10665 3.29752 0
M  V30 3133 H 288.711 0.517408 3.94219 0
M  V30 3134 N 289.708 -1.40897 0.706093 0
M  V30 3135 C 290.938 -2.05075 0.250523 0
M  V30 3136 C 291.346 -1.53275 -1.10921 0
M  V30 3137 O 290.689 -0.680281 -1.7064 0
M  V30 3138 C 290.751 -3.59219 0.142178 0
M  V30 3139 C 290.415 -4.33864 1.43566 0
M  V30 3140 C 291.412 -4.62448 2.37566 0
M  V30 3141 C 289.097 -4.72946 1.69195 0
M  V30 3142 C 291.091 -5.29088 3.5545 0
M  V30 3143 C 288.778 -5.3932 2.87362 0
M  V30 3144 C 289.776 -5.6732 3.80312 0
M  V30 3145 O 289.464 -6.32325 4.96408 0
M  V30 3146 H 289.196 -0.666645 0.112074 0
M  V30 3147 H 291.75 -1.81467 0.962239 0
M  V30 3148 H 289.98 -3.81609 -0.6254 0
M  V30 3149 H 291.669 -4.0495 -0.277584 0
M  V30 3150 H 292.435 -4.32727 2.19027 0
M  V30 3151 H 288.314 -4.50527 0.977042 0
M  V30 3152 H 291.858 -5.50859 4.28018 0
M  V30 3153 H 287.755 -5.68461 3.05814 0
M  V30 3154 H 288.523 -6.50821 4.9636 0
M  V30 3155 N 291.186 -0.45159 -1.50991 0
M  V30 3156 C 292.096 0.358431 -2.31846 0
M  V30 3157 C 293.112 1.01438 -1.41373 0
M  V30 3158 O 294.288 1.00663 -1.74439 0
M  V30 3159 C 291.353 1.43704 -3.15515 0
M  V30 3160 C 290.414 0.799742 -4.21785 0
M  V30 3161 C 289.647 1.82696 -5.01456 0
M  V30 3162 O 289.87 3.05105 -4.81941 0
M  V30 3163 O 288.804 1.40958 -5.85162 0
M  V30 3164 H 292.63 -0.302032 -3.02194 0
M  V30 3165 H 290.215 -0.213825 -1.47862 0
M  V30 3166 H 292.097 2.06227 -3.67489 0
M  V30 3167 H 290.772 2.08133 -2.47916 0
M  V30 3168 H 289.679 0.136084 -3.73852 0
M  V30 3169 H 291.012 0.198718 -4.91799 0
M  V30 3170 N 292.664 1.56529 -0.183458 0
M  V30 3171 C 293.941 1.88959 0.50536 0
M  V30 3172 C 294.321 1.09523 1.80466 0
M  V30 3173 O 293.669 0.19278 2.27685 0
M  V30 3174 C 293.879 3.41162 0.73547 0
M  V30 3175 C 295.227 4.11155 1.06005 0
M  V30 3176 O 296.251 3.46548 0.823594 0
M  V30 3177 O 295.11 5.25318 1.50675 0
M  V30 3178 H 292.204 0.78441 0.261973 0
M  V30 3179 H 294.75 1.68231 -0.222802 0
M  V30 3180 H 293.522 3.90874 -0.182561 0
M  V30 3181 H 293.145 3.67543 1.51651 0
M  V30 3182 N 294.142 -0.090211 1.57342 0
M  V30 3183 C 295.074 -1.13541 1.99101 0
M  V30 3184 C 296.087 -1.3604 0.894258 0
M  V30 3185 O 297.276 -1.34606 1.17233 0
M  V30 3186 C 294.376 -2.49001 2.29895 0
M  V30 3187 C 293.549 -2.46712 3.61182 0
M  V30 3188 C 292.608 -3.64136 3.79857 0
M  V30 3189 O 291.634 -3.46405 4.51655 0
M  V30 3190 N 292.836 -4.83802 3.20806 0
M  V30 3191 H 295.601 -0.779942 2.89373 0
M  V30 3192 H 293.162 -0.279125 1.59476 0
M  V30 3193 H 295.154 -3.26166 2.39578 0
M  V30 3194 H 293.724 -2.76619 1.45605 0
M  V30 3195 H 292.944 -1.55058 3.62423 0
M  V30 3196 H 294.232 -2.42265 4.4742 0
M  V30 3197 H 293.63 -5.01112 2.62494 0
M  V30 3198 H 292.187 -5.58543 3.35966 0
M  V30 3199 N 295.62 -1.53406 -0.361157 0
M  V30 3200 C 296.552 -1.76446 -1.46286 0
M  V30 3201 C 297.565 -0.645322 -1.49464 0
M  V30 3202 O 298.754 -0.921681 -1.52864 0
M  V30 3203 C 295.854 -1.83332 -2.85031 0
M  V30 3204 C 295.027 -3.13033 -3.05498 0
M  V30 3205 C 294.086 -3.11104 -4.24383 0
M  V30 3206 O 293.112 -3.84888 -4.19344 0
M  V30 3207 N 294.314 -2.32234 -5.32022 0
M  V30 3208 H 297.079 -2.71508 -1.26899 0
M  V30 3209 H 294.64 -1.52238 -0.550915 0
M  V30 3210 H 296.632 -1.79514 -3.62708 0
M  V30 3211 H 295.202 -0.955342 -2.97644 0
M  V30 3212 H 294.422 -3.30119 -2.15442 0
M  V30 3213 H 295.71 -3.9874 -3.16044 0
M  V30 3214 H 295.108 -1.71807 -5.38979 0
M  V30 3215 H 293.665 -2.3423 -6.08259 0
M  V30 3216 N 297.098 0.621204 -1.44841 0
M  V30 3217 C 298.045 1.73267 -1.5247 0
M  V30 3218 C 299.015 1.6189 -0.371611 0
M  V30 3219 O 300.2 1.81668 -0.58321 0
M  V30 3220 C 297.34 3.11545 -1.48438 0
M  V30 3221 C 296.453 3.33827 -2.74196 0
M  V30 3222 C 295.588 4.62133 -2.61929 0
M  V30 3223 C 294.627 4.77627 -3.82804 0
M  V30 3224 N 293.764 5.97219 -3.69153 0
M  V30 3225 H 298.604 1.66082 -2.47428 0
M  V30 3226 H 296.141 0.810026 -1.22788 0
M  V30 3227 H 298.099 3.91528 -1.4409 0
M  V30 3228 H 296.729 3.1772 -0.570402 0
M  V30 3229 H 295.781 2.47715 -2.88689 0
M  V30 3230 H 297.093 3.41153 -3.6389 0
M  V30 3231 H 296.247 5.50291 -2.5547 0
M  V30 3232 H 294.986 4.57182 -1.69811 0
M  V30 3233 H 293.991 3.87896 -3.89637 0
M  V30 3234 H 295.216 4.84385 -4.75971 0
M  V30 3235 H 293.162 5.93339 -2.79794 0
M  V30 3236 H 293.079 6.05644 -4.52472 0
M  V30 3237 H 294.347 6.87912 -3.66603 0
M  V30 3238 N 298.576 1.31904 0.862503 0
M  V30 3239 C 299.508 1.16005 1.97675 0
M  V30 3240 C 300.521 0.0971234 1.6251 0
M  V30 3241 O 301.71 0.345337 1.75128 0
M  V30 3242 C 298.81 0.751791 3.30456 0
M  V30 3243 C 297.983 1.90133 3.93914 0
M  V30 3244 C 297.042 1.4779 5.05019 0
M  V30 3245 O 296.068 2.18872 5.25437 0
M  V30 3246 N 297.27 0.369491 5.79323 0
M  V30 3247 H 300.035 2.11982 2.11857 0
M  V30 3248 H 297.596 1.24337 1.03691 0
M  V30 3249 H 299.588 0.451084 4.02178 0
M  V30 3250 H 298.158 -0.116593 3.12382 0
M  V30 3251 H 297.378 2.36896 3.15078 0
M  V30 3252 H 298.666 2.67111 4.33047 0
M  V30 3253 H 298.064 -0.222299 5.65263 0
M  V30 3254 H 296.621 0.128354 6.51674 0
M  V30 3255 N 300.054 -1.07777 1.14986 0
M  V30 3256 C 300.984 -2.16865 0.865557 0
M  V30 3257 C 301.965 -1.69123 -0.182083 0
M  V30 3258 O 303.15 -1.94164 -0.0373815 0
M  V30 3259 C 300.28 -3.45539 0.349313 0
M  V30 3260 C 299.234 -4.06708 1.33313 0
M  V30 3261 C 298.56 -5.30411 0.675918 0
M  V30 3262 C 299.86 -4.47241 2.69764 0
M  V30 3263 H 301.554 -2.40905 1.77778 0
M  V30 3264 H 299.1 -1.15781 0.856203 0
M  V30 3265 H 301.053 -4.21174 0.137983 0
M  V30 3266 H 299.777 -3.21072 -0.598362 0
M  V30 3267 H 298.436 -3.33112 1.53075 0
M  V30 3268 H 298.084 -5.02232 -0.277767 0
M  V30 3269 H 297.784 -5.72293 1.33244 0
M  V30 3270 H 299.308 -6.08755 0.474262 0
M  V30 3271 H 300.722 -5.14025 2.53873 0
M  V30 3272 H 299.119 -5.00062 3.3175 0
M  V30 3273 H 300.189 -3.58818 3.26156 0
M  V30 3274 N 301.532 -0.945985 -1.26051 0
M  V30 3275 C 302.442 -0.465633 -2.29933 0
M  V30 3276 C 303.458 0.462761 -1.67733 0
M  V30 3277 O 304.634 0.341118 -1.9849 0
M  V30 3278 C 301.699 0.256994 -3.45746 0
M  V30 3279 C 300.76 -0.708549 -4.23412 0
M  V30 3280 C 299.993 -0.0203135 -5.33696 0
M  V30 3281 O 300.216 1.19571 -5.57726 0
M  V30 3282 O 299.15 -0.701459 -5.97799 0
M  V30 3283 H 302.976 -1.32866 -2.73094 0
M  V30 3284 H 300.561 -0.712071 -1.31339 0
M  V30 3285 H 302.443 0.663852 -4.16138 0
M  V30 3286 H 301.118 1.09533 -3.04605 0
M  V30 3287 H 300.025 -1.16545 -3.55483 0
M  V30 3288 H 301.358 -1.51465 -4.68315 0
M  V30 3289 N 303.011 1.40521 -0.713556 0
M  V30 3290 C 303.943 2.29191 -0.0203126 0
M  V30 3291 C 304.956 1.45723 0.725864 0
M  V30 3292 O 306.145 1.69033 0.573581 0
M  V30 3293 C 303.245 3.2395 0.995486 0
M  V30 3294 C 302.418 4.36262 0.315256 0
M  V30 3295 C 301.477 5.11474 1.23616 0
M  V30 3296 O 300.503 5.64606 0.721719 0
M  V30 3297 N 301.705 5.20638 2.56743 0
M  V30 3298 H 304.47 2.89327 -0.781652 0
M  V30 3299 H 302.031 1.51869 -0.561022 0
M  V30 3300 H 304.023 3.71137 1.61368 0
M  V30 3301 H 302.593 2.64995 1.6582 0
M  V30 3302 H 301.813 3.91228 -0.483106 0
M  V30 3303 H 303.101 5.08558 -0.157004 0
M  V30 3304 H 302.499 4.7895 3.01037 0
M  V30 3305 H 301.056 5.71339 3.13712 0
M  V30 3306 N 304.489 0.459591 1.5075 0
M  V30 3307 C 305.735 -0.0994966 2.02556 0
M  V30 3308 C 306.068 -1.40399 1.3417 0
M  V30 3309 O 305.343 -1.88892 0.463683 0
M  V30 3310 C 305.626 -0.295242 3.58888 0
M  V30 3311 C 305.479 1.02947 4.37861 0
M  V30 3312 C 306.798 -1.05502 4.27267 0
M  V30 3313 H 303.917 -0.034686 0.736183 0
M  V30 3314 H 306.559 0.602938 1.8018 0
M  V30 3315 H 304.709 -0.893563 3.78084 0
M  V30 3316 H 306.381 1.66348 4.30263 0
M  V30 3317 H 304.624 1.62885 4.02058 0
M  V30 3318 H 305.295 0.846281 5.45474 0
M  V30 3319 H 307.771 -0.547993 4.12476 0
M  V30 3320 H 306.647 -1.16077 5.36486 0
M  V30 3321 H 306.908 -2.08875 3.89645 0
M  V30 3322 N 305.967 -1.56429 0.191757 0
M  V30 3323 C 307.216 -1.9666 -0.448088 0
M  V30 3324 C 307.529 -1.08136 -1.62991 0
M  V30 3325 O 308.735 -1.38135 -2.33733 0
M  V30 3326 C 307.191 -3.49753 -0.848585 0
M  V30 3327 C 306.799 -4.46935 0.308764 0
M  V30 3328 C 308.543 -3.9876 -1.4557 0
M  V30 3329 C 306.45 -5.91293 -0.112506 0
M  V30 3330 H 305.38 -0.734312 -0.171179 0
M  V30 3331 H 308.031 -1.81301 0.283242 0
M  V30 3332 H 306.413 -3.60604 -1.63649 0
M  V30 3333 H 307.587 -4.47813 1.08627 0
M  V30 3334 H 305.902 -4.08102 0.827158 0
M  V30 3335 H 308.499 -5.04086 -1.78328 0
M  V30 3336 H 308.842 -3.42875 -2.36099 0
M  V30 3337 H 309.375 -3.9101 -0.731836 0
M  V30 3338 H 306.114 -6.51097 0.758514 0
M  V30 3339 H 305.634 -5.93676 -0.854941 0
M  V30 3340 H 307.313 -6.44663 -0.549448 0
M  V30 3341 N 307.445 0.0818655 -1.57387 0
M  V30 3342 C 308.408 1.08265 -2.02018 0
M  V30 3343 C 309.408 1.32183 -0.915664 0
M  V30 3344 O 310.598 1.28073 -1.18081 0
M  V30 3345 C 307.73 2.42871 -2.39221 0
M  V30 3346 H 308.923 0.698204 -2.91659 0
M  V30 3347 H 306.476 0.327303 -1.52835 0
M  V30 3348 H 307.211 2.86167 -1.52575 0
M  V30 3349 H 306.996 2.26855 -3.19811 0
M  V30 3350 H 308.486 3.14826 -2.74362 0
M  V30 3351 N 308.923 1.53595 0.353017 0
M  V30 3352 C 309.87 1.80919 1.43308 0
M  V30 3353 C 310.84 0.654288 1.5267 0
M  V30 3354 O 312.025 0.897759 1.6836 0
M  V30 3355 C 309.165 2.01605 2.80089 0
M  V30 3356 C 308.278 3.29321 2.79593 0
M  V30 3357 C 307.413 3.40125 4.0803 0
M  V30 3358 C 306.452 4.61826 4.01725 0
M  V30 3359 N 305.589 4.69716 5.21834 0
M  V30 3360 H 310.429 2.73074 1.19308 0
M  V30 3361 H 307.966 1.35263 0.578131 0
M  V30 3362 H 309.924 2.11586 3.59565 0
M  V30 3363 H 308.554 1.12772 3.0246 0
M  V30 3364 H 307.606 3.28229 1.92276 0
M  V30 3365 H 308.918 4.18884 2.70809 0
M  V30 3366 H 308.072 3.49488 4.95927 0
M  V30 3367 H 306.811 2.48601 4.19582 0
M  V30 3368 H 305.816 4.52552 3.12213 0
M  V30 3369 H 307.041 5.54705 3.91764 0
M  V30 3370 H 304.987 3.81097 5.33948 0
M  V30 3371 H 304.904 5.53202 5.1527 0
M  V30 3372 H 306.172 4.83376 6.11529 0
M  V30 3373 N 310.401 -0.613514 1.45168 0
M  V30 3374 C 311.678 -1.37263 1.39349 0
M  V30 3375 C 312.058 -2.11012 0.0610848 0
M  V30 3376 O 311.406 -2.07502 -0.956825 0
M  V30 3377 C 311.616 -2.3244 2.60332 0
M  V30 3378 C 312.964 -2.9523 3.05163 0
M  V30 3379 O 313.988 -2.42762 2.60663 0
M  V30 3380 O 312.847 -3.90454 3.82372 0
M  V30 3381 H 309.941 -0.615188 0.552696 0
M  V30 3382 H 312.487 -0.637097 1.57287 0
M  V30 3383 H 311.259 -1.77164 3.48896 0
M  V30 3384 H 310.882 -3.13383 2.44698 0
M  V30 3385 N 311.879 -1.3236 -0.855495 0
M  V30 3386 C 312.809 -1.23833 -1.97958 0
M  V30 3387 C 313.79 -0.122361 -1.69659 0
M  V30 3388 O 314.975 -0.30939 -1.9172 0
M  V30 3389 C 312.105 -0.959772 -3.33775 0
M  V30 3390 C 311.059 -2.03689 -3.76424 0
M  V30 3391 C 310.385 -1.61075 -5.09862 0
M  V30 3392 C 311.685 -3.4518 -3.9198 0
M  V30 3393 H 313.379 -2.1788 -2.0535 0
M  V30 3394 H 310.925 -1.04891 -0.986605 0
M  V30 3395 H 312.878 -0.886678 -4.11966 0
M  V30 3396 H 311.602 0.0163404 -3.26596 0
M  V30 3397 H 310.261 -2.10012 -3.00484 0
M  V30 3398 H 309.909 -0.622107 -4.99138 0
M  V30 3399 H 309.609 -2.33143 -5.39368 0
M  V30 3400 H 311.133 -1.55201 -5.90546 0
M  V30 3401 H 312.547 -3.4145 -4.60526 0
M  V30 3402 H 310.944 -4.1559 -4.32903 0
M  V30 3403 H 312.014 -3.84903 -2.94919 0
M  V30 3404 N 313.357 1.07166 -1.15556 0
M  V30 3405 C 314.287 2.16403 -0.877046 0
M  V30 3406 C 315.268 1.69217 0.173111 0
M  V30 3407 O 316.453 1.94181 0.027084 0
M  V30 3408 C 313.583 3.45349 -0.367632 0
M  V30 3409 C 312.537 4.05995 -1.35468 0
M  V30 3410 C 311.863 5.30045 -0.704038 0
M  V30 3411 C 313.163 4.45804 -2.72132 0
M  V30 3412 H 314.857 2.39959 -1.79053 0
M  V30 3413 H 312.403 1.15325 -0.862331 0
M  V30 3414 H 314.356 4.21095 -0.160317 0
M  V30 3415 H 313.08 3.21385 0.581326 0
M  V30 3416 H 311.739 3.32296 -1.54839 0
M  V30 3417 H 311.387 5.02373 0.251128 0
M  V30 3418 H 311.087 5.71579 -1.36277 0
M  V30 3419 H 312.611 6.08495 -0.50654 0
M  V30 3420 H 314.025 5.12671 -2.56595 0
M  V30 3421 H 312.422 4.98296 -3.34397 0
M  V30 3422 H 313.492 3.57083 -3.28054 0
M  V30 3423 N 314.835 0.952656 1.25548 0
M  V30 3424 C 316.246 0.647392 1.75116 0
M  V30 3425 C 316.597 -0.837274 1.77438 0
M  V30 3426 O 315.722 -1.65525 1.39393 0
M  V30 3427 C 316.317 1.16845 3.18014 0
M  V30 3428 C 314.876 0.913382 3.6515 0
M  V30 3429 C 314.023 1.31265 2.44264 0
M  V30 3430 H 316.974 1.12968 1.11462 0
M  V30 3431 H 316.995 0.527606 3.76824 0
M  V30 3432 H 316.507 2.24902 3.16292 0
M  V30 3433 H 314.608 -0.152316 3.72289 0
M  V30 3434 H 314.721 1.54845 4.53387 0
M  V30 3435 H 313.085 0.731028 2.43984 0
M  V30 3436 H 313.868 2.40239 2.45234 0
M  V30 3437 N 316.313 -1.40141 0.720998 0
M  V30 3438 C 317.538 -2.05618 0.271258 0
M  V30 3439 C 317.963 -1.53978 -1.08039 0
M  V30 3440 O 317.321 -0.677463 -1.68167 0
M  V30 3441 C 317.369 -3.59609 0.267197 0
M  V30 3442 O 316.473 -4.05526 -0.749814 0
M  V30 3443 H 315.814 -0.651904 0.126162 0
M  V30 3444 H 318.344 -1.79439 0.982997 0
M  V30 3445 H 318.354 -4.0786 0.106744 0
M  V30 3446 H 317.029 -3.96559 1.25354 0
M  V30 3447 H 315.606 -3.68722 -0.556644 0
M  V30 3448 N 317.792 -0.46758 -1.50504 0
M  V30 3449 C 319.208 -0.121533 -1.59137 0
M  V30 3450 C 319.408 1.3717 -1.47603 0
M  V30 3451 O 318.464 2.14464 -1.33272 0
M  V30 3452 C 319.777 -0.6686 -2.93173 0
M  V30 3453 C 321.325 -0.631716 -3.06559 0
M  V30 3454 C 321.8 -1.15627 -4.43164 0
M  V30 3455 N 323.291 -1.11553 -4.49567 0
M  V30 3456 C 324.026 -1.49195 -5.5365 0
M  V30 3457 N 323.522 -1.94269 -6.65005 0
M  V30 3458 N 325.315 -1.4082 -5.44175 0
M  V30 3459 H 317.466 -1.4388 -1.56245 0
M  V30 3460 H 319.729 -0.594784 -0.738198 0
M  V30 3461 H 319.435 -1.71453 -3.07078 0
M  V30 3462 H 319.309 -0.11021 -3.77039 0
M  V30 3463 H 321.696 0.405297 -2.92304 0
M  V30 3464 H 321.777 -1.22687 -2.24458 0
M  V30 3465 H 321.421 -2.1919 -4.58168 0
M  V30 3466 H 321.351 -0.537365 -5.23851 0
M  V30 3467 H 323.842 -0.784895 -3.69659 0
M  V30 3468 H 324.155 -2.21148 -7.40482 0
M  V30 3469 H 322.5 -1.98219 -6.66134 0
M  V30 3470 H 325.691 -1.0545 -4.56068 0
M  V30 3471 H 325.864 -1.70481 -6.25172 0
M  V30 3472 N 319.27 1.56325 -0.20005 0
M  V30 3473 C 320.547 1.89484 0.48529 0
M  V30 3474 C 320.927 1.1143 1.79294 0
M  V30 3475 O 320.275 0.216919 2.27468 0
M  V30 3476 C 320.485 3.41923 0.699243 0
M  V30 3477 C 321.833 4.12256 1.01638 0
M  V30 3478 O 322.857 3.47402 0.786792 0
M  V30 3479 O 321.716 5.26887 1.45095 0
M  V30 3480 H 318.81 0.787144 0.253639 0
M  V30 3481 H 321.356 1.67985 -0.240633 0
M  V30 3482 H 320.128 3.90658 -0.224008 0
M  V30 3483 H 319.751 3.69131 1.47744 0
M  V30 3484 N 320.748 -0.0735177 1.57428 0
M  V30 3485 C 322.164 -0.428264 1.53747 0
M  V30 3486 C 322.364 -1.79272 0.91998 0
M  V30 3487 O 321.42 -2.47051 0.521745 0
M  V30 3488 C 322.733 -0.370914 2.98404 0
M  V30 3489 C 324.281 -0.451224 3.0973 0
M  V30 3490 C 324.756 -0.4238 4.56035 0
M  V30 3491 N 326.247 -0.483925 4.60665 0
M  V30 3492 C 326.982 -0.484891 5.71346 0
M  V30 3493 N 326.478 -0.440775 6.91396 0
M  V30 3494 N 328.271 -0.531319 5.59583 0
M  V30 3495 H 320.422 0.819949 1.95935 0
M  V30 3496 H 322.685 0.307493 0.896745 0
M  V30 3497 H 322.391 0.564956 3.47133 0
M  V30 3498 H 322.265 -1.18176 3.5821 0
M  V30 3499 H 324.652 -1.37752 2.60976 0
M  V30 3500 H 324.733 0.388167 2.52838 0
M  V30 3501 H 324.377 0.498638 5.05446 0
M  V30 3502 H 324.307 -1.2807 5.10789 0
M  V30 3503 H 326.798 -0.522338 3.74273 0
M  V30 3504 H 327.111 -0.44539 7.71515 0
M  V30 3505 H 325.456 -0.40749 6.93804 0
M  V30 3506 H 328.647 -0.563464 4.64696 0
M  V30 3507 H 328.82 -0.528603 6.4584 0
M  V30 3508 N 322.226 -1.5378 -0.344866 0
M  V30 3509 C 323.158 -1.77988 -1.44406 0
M  V30 3510 C 324.171 -0.661138 -1.48771 0
M  V30 3511 O 325.36 -0.937842 -1.51877 0
M  V30 3512 C 322.46 -1.86345 -2.8307 0
M  V30 3513 C 321.633 -3.16256 -3.0216 0
M  V30 3514 C 320.692 -3.15588 -4.21059 0
M  V30 3515 O 319.718 -3.89314 -4.15239 0
M  V30 3516 N 320.92 -2.37864 -5.29529 0
M  V30 3517 H 323.685 -2.72839 -1.24012 0
M  V30 3518 H 321.246 -1.52814 -0.534737 0
M  V30 3519 H 323.238 -1.83351 -3.60783 0
M  V30 3520 H 321.808 -0.986858 -2.96614 0
M  V30 3521 H 321.028 -3.32385 -2.11929 0
M  V30 3522 H 322.316 -4.0207 -3.11797 0
M  V30 3523 H 321.714 -1.77514 -5.37127 0
M  V30 3524 H 320.271 -2.40668 -6.05741 0
M  V30 3525 N 323.704 0.605807 -1.45491 0
M  V30 3526 C 324.654 1.71074 -1.50724 0
M  V30 3527 C 325.638 1.5658 -0.37033 0
M  V30 3528 O 326.83 1.65887 -0.617299 0
M  V30 3529 C 323.959 3.0983 -1.47852 0
M  V30 3530 C 323.045 3.29704 -2.66751 0
M  V30 3531 N 323.436 3.19831 -3.91844 0
M  V30 3532 C 321.734 3.60579 -2.62486 0
M  V30 3533 C 322.435 3.41083 -4.71208 0
M  V30 3534 N 321.411 3.65157 -4.02693 0
M  V30 3535 H 325.213 1.61937 -2.45263 0
M  V30 3536 H 322.727 0.80912 -1.40808 0
M  V30 3537 H 324.724 3.89101 -1.49686 0
M  V30 3538 H 323.384 3.20115 -0.543714 0
M  V30 3539 H 324.395 2.98194 -4.23439 0
M  V30 3540 H 321.072 3.7769 -1.77922 0
M  V30 3541 H 322.462 3.38828 -5.80211 0
M  V30 3542 N 325.182 1.32811 0.848464 0
M  V30 3543 C 326.112 1.24882 1.97299 0
M  V30 3544 C 327.093 0.131357 1.69592 0
M  V30 3545 O 328.278 0.319553 1.91553 0
M  V30 3546 C 325.408 0.97746 3.33261 0
M  V30 3547 C 324.362 2.05682 3.75338 0
M  V30 3548 C 323.688 1.63777 5.09 0
M  V30 3549 C 324.988 3.47254 3.90144 0
M  V30 3550 H 326.682 2.18966 2.04191 0
M  V30 3551 H 324.228 1.05413 0.981029 0
M  V30 3552 H 326.181 0.908513 4.1149 0
M  V30 3553 H 324.905 0.000980011 3.266 0
M  V30 3554 H 323.564 2.11603 2.99366 0
M  V30 3555 H 323.212 0.648569 4.98801 0
M  V30 3556 H 322.912 2.36 5.38124 0
M  V30 3557 H 324.436 1.5833 5.89715 0
M  V30 3558 H 325.85 3.43888 4.58709 0
M  V30 3559 H 324.247 4.1788 4.30693 0
M  V30 3560 H 325.317 3.86462 2.92874 0
M  V30 3561 N 326.66 -1.06551 1.16123 0
M  V30 3562 C 328.071 -1.60768 0.949232 0
M  V30 3563 C 328.422 -1.89523 -0.507508 0
M  V30 3564 O 327.547 -1.66671 -1.38021 0
M  V30 3565 C 328.142 -2.92086 1.71671 0
M  V30 3566 C 326.701 -3.43015 1.54977 0
M  V30 3567 C 325.848 -2.16947 1.72711 0
M  V30 3568 H 328.799 -0.895354 1.31031 0
M  V30 3569 H 328.82 -3.6138 1.19099 0
M  V30 3570 H 328.332 -2.71127 2.7769 0
M  V30 3571 H 326.433 -3.69039 0.513873 0
M  V30 3572 H 326.546 -4.18516 2.33198 0
M  V30 3573 H 324.91 -2.27041 1.15431 0
M  V30 3574 H 325.693 -1.98473 2.80113 0
M  V30 3575 N 328.138 -0.959301 -1.25041 0
M  V30 3576 C 329.068 -0.501388 -2.28053 0
M  V30 3577 C 330.049 0.454673 -1.63911 0
M  V30 3578 O 331.234 0.352618 -1.90972 0
M  V30 3579 C 328.364 0.217224 -3.4662 0
M  V30 3580 C 327.318 -0.654034 -4.22973 0
M  V30 3581 C 326.644 0.195589 -5.34342 0
M  V30 3582 C 327.944 -1.93447 -4.85155 0
M  V30 3583 H 329.638 -1.36238 -2.66608 0
M  V30 3584 H 327.184 -0.656534 -1.28163 0
M  V30 3585 H 329.137 0.548732 -4.17812 0
M  V30 3586 H 327.861 1.1125 -3.07068 0
M  V30 3587 H 326.52 -0.968693 -3.5357 0
M  V30 3588 H 326.168 1.09076 -4.91031 0
M  V30 3589 H 325.868 -0.384091 -5.86343 0
M  V30 3590 H 327.392 0.521958 -6.08365 0
M  V30 3591 H 328.806 -1.66908 -5.48466 0
M  V30 3592 H 327.203 -2.46018 -5.47353 0
M  V30 3593 H 328.273 -2.63466 -4.07079 0
M  V30 3594 N 329.616 1.39756 -0.72842 0
M  V30 3595 C 330.865 1.99879 -0.270407 0
M  V30 3596 C 331.178 1.58449 1.14688 0
M  V30 3597 O 332.384 2.11362 1.70407 0
M  V30 3598 C 330.84 3.57292 -0.43252 0
M  V30 3599 C 330.448 4.07688 -1.85727 0
M  V30 3600 C 332.192 4.24485 -0.0359507 0
M  V30 3601 C 330.099 5.5765 -1.96928 0
M  V30 3602 H 329.029 0.747689 -0.0973472 0
M  V30 3603 H 331.68 1.59837 -0.901355 0
M  V30 3604 H 330.062 3.95097 0.267219 0
M  V30 3605 H 331.236 3.81231 -2.58843 0
M  V30 3606 H 329.551 3.53135 -2.20646 0
M  V30 3607 H 332.148 5.34609 -0.0987484 0
M  V30 3608 H 332.491 4.03915 1.00787 0
M  V30 3609 H 333.024 3.9183 -0.686604 0
M  V30 3610 H 329.763 5.8309 -2.99476 0
M  V30 3611 H 329.283 5.8593 -1.28241 0
M  V30 3612 H 330.962 6.22957 -1.74737 0
M  V30 3613 N 331.094 0.475555 1.50254 0
M  V30 3614 C 332.041 -0.316293 2.28622 0
M  V30 3615 C 333.011 -0.983227 1.33873 0
M  V30 3616 O 334.196 -0.994805 1.62814 0
M  V30 3617 C 331.336 -1.38975 3.1588 0
M  V30 3618 C 330.449 -0.737146 4.25664 0
M  V30 3619 C 329.584 -1.78887 5.00173 0
M  V30 3620 C 328.623 -1.11676 6.01826 0
M  V30 3621 N 327.76 -2.11154 6.69596 0
M  V30 3622 H 332.6 0.358297 2.95838 0
M  V30 3623 H 330.137 0.188541 1.45887 0
M  V30 3624 H 332.095 -2.02383 3.64825 0
M  V30 3625 H 330.725 -2.03344 2.50701 0
M  V30 3626 H 329.777 0.0096065 3.80399 0
M  V30 3627 H 331.089 -0.206816 4.98371 0
M  V30 3628 H 330.243 -2.49865 5.52859 0
M  V30 3629 H 328.982 -2.35302 4.27182 0
M  V30 3630 H 327.987 -0.392633 5.48396 0
M  V30 3631 H 329.212 -0.55945 6.76792 0
M  V30 3632 H 327.158 -2.66577 5.99394 0
M  V30 3633 H 327.075 -1.63118 7.38193 0
M  V30 3634 H 328.343 -2.81497 7.26897 0
M  V30 3635 N 332.573 -1.56217 0.208337 0
M  V30 3636 C 333.506 -2.15633 -0.746842 0
M  V30 3637 C 334.484 -1.09685 -1.20034 0
M  V30 3638 O 335.668 -1.3787 -1.28547 0
M  V30 3639 C 332.795 -2.72594 -2.01023 0
M  V30 3640 C 331.841 -3.91251 -1.69779 0
M  V30 3641 S 332.674 -5.28962 -0.834209 0
M  V30 3642 C 333.83 -5.89353 -2.10745 0
M  V30 3643 H 334.063 -2.96315 -0.241789 0
M  V30 3644 H 331.596 -1.54398 -0.00682183 0
M  V30 3645 H 333.554 -3.06053 -2.73572 0
M  V30 3646 H 332.215 -1.91929 -2.48641 0
M  V30 3647 H 331.408 -4.29562 -2.63614 0
M  V30 3648 H 331.01 -3.58869 -1.05303 0
M  V30 3649 H 333.302 -6.04522 -3.05875 0
M  V30 3650 H 334.245 -6.85661 -1.76845 0
M  V30 3651 H 334.653 -5.1807 -2.24196 0
M  V30 3652 N 334.051 0.0651679 -1.57465 0
M  V30 3653 C 334.998 1.07675 -2.04144 0
M  V30 3654 C 335.968 1.38071 -0.923335 0
M  V30 3655 O 337.153 1.49026 -1.19146 0
M  V30 3656 C 334.293 2.38337 -2.49579 0
M  V30 3657 C 333.406 2.14413 -3.75035 0
M  V30 3658 C 332.541 3.38686 -4.09225 0
M  V30 3659 C 331.58 3.10156 -5.27702 0
M  V30 3660 N 330.717 4.26778 -5.57499 0
M  V30 3661 H 335.557 0.671716 -2.90331 0
M  V30 3662 H 333.094 0.3201 -1.43575 0
M  V30 3663 H 335.052 3.14632 -2.73975 0
M  V30 3664 H 333.682 2.7663 -1.6636 0
M  V30 3665 H 332.734 1.2878 -3.57939 0
M  V30 3666 H 334.046 1.89344 -4.61466 0
M  V30 3667 H 333.2 4.23373 -4.34558 0
M  V30 3668 H 331.939 3.66837 -3.21374 0
M  V30 3669 H 330.944 2.23866 -5.02159 0
M  V30 3670 H 332.169 2.8332 -6.17176 0
M  V30 3671 H 330.115 4.54948 -4.72608 0
M  V30 3672 H 330.032 4.05005 -6.38362 0
M  V30 3673 H 331.3 5.12443 -5.87386 0
M  V30 3674 N 335.529 1.53961 0.336706 0
M  V30 3675 C 336.94 1.62914 0.911925 0
M  V30 3676 C 337.291 0.514795 1.89326 0
M  V30 3677 O 336.416 -0.354395 2.13478 0
M  V30 3678 C 337.011 2.95304 1.66076 0
M  V30 3679 C 335.57 3.06496 2.18489 0
M  V30 3680 C 334.717 2.58403 1.00613 0
M  V30 3681 H 337.668 1.58285 0.114649 0
M  V30 3682 H 337.689 2.84727 2.5241 0
M  V30 3683 H 337.201 3.76387 0.946276 0
M  V30 3684 H 335.302 2.3006 2.93092 0
M  V30 3685 H 335.415 4.1208 2.44391 0
M  V30 3686 H 333.779 2.13977 1.38152 0
M  V30 3687 H 334.562 3.41932 0.306179 0
M  V30 3688 N 337.007 -0.598083 1.45811 0
M  V30 3689 C 338.253 -1.35882 1.50545 0
M  V30 3690 C 338.586 -1.93616 0.150445 0
M  V30 3691 O 337.861 -1.75604 -0.83628 0
M  V30 3692 C 338.144 -2.49966 2.59208 0
M  V30 3693 C 337.997 -1.97367 4.04186 0
M  V30 3694 C 339.316 -3.52068 2.64076 0
M  V30 3695 H 336.435 -0.492717 0.548087 0
M  V30 3696 H 339.077 -0.673319 1.77669 0
M  V30 3697 H 337.227 -3.08443 2.3621 0
M  V30 3698 H 338.899 -1.43466 4.38423 0
M  V30 3699 H 337.142 -1.283 4.14393 0
M  V30 3700 H 337.813 -2.79649 4.75921 0
M  V30 3701 H 340.289 -3.03448 2.84708 0
M  V30 3702 H 339.165 -4.2937 3.41954 0
M  V30 3703 H 339.426 -4.08304 1.69531 0
M  V30 3704 N 338.485 -1.33259 -0.841409 0
M  V30 3705 C 339.896 -1.22066 -1.41269 0
M  V30 3706 C 340.247 0.161479 -1.95534 0
M  V30 3707 O 339.372 1.06094 -1.88608 0
M  V30 3708 C 339.967 -2.20996 -2.568 0
M  V30 3709 C 338.526 -2.13649 -3.09888 0
M  V30 3710 C 337.673 -2.08623 -1.82679 0
M  V30 3711 H 340.624 -1.44895 -0.647395 0
M  V30 3712 H 340.645 -1.81621 -3.34356 0
M  V30 3713 H 340.157 -3.2158 -2.17274 0
M  V30 3714 H 338.258 -1.16359 -3.53965 0
M  V30 3715 H 338.371 -3.04079 -3.70234 0
M  V30 3716 H 336.735 -1.54061 -2.02824 0
M  V30 3717 H 337.518 -3.1101 -1.45353 0
M  V30 3718 N 339.963 1.05934 -1.16686 0
M  V30 3719 C 341.24 1.75643 -0.860747 0
M  V30 3720 C 341.62 2.01144 0.640641 0
M  V30 3721 O 340.968 1.64147 1.58959 0
M  V30 3722 C 341.178 3.05493 -1.68745 0
M  V30 3723 C 342.526 3.79581 -1.90271 0
M  V30 3724 O 343.55 3.15344 -1.65641 0
M  V30 3725 O 342.409 4.9499 -2.31618 0
M  V30 3726 H 339.503 0.763426 -0.317977 0
M  V30 3727 H 342.049 1.1217 -1.27342 0
M  V30 3728 H 340.821 2.8264 -2.70611 0
M  V30 3729 H 340.444 3.76702 -1.27206 0
M  V30 3730 N 341.441 0.965919 1.2453 0
M  V30 3731 C 342.371 0.513476 2.27784 0
M  V30 3732 C 343.352 -0.445974 1.6415 0
M  V30 3733 O 344.537 -0.342485 1.91156 0
M  V30 3734 C 341.667 -0.198839 3.4673 0
M  V30 3735 C 340.621 0.676456 4.2262 0
M  V30 3736 C 339.947 -0.167248 5.34438 0
M  V30 3737 C 341.247 1.96017 4.84123 0
M  V30 3738 H 342.941 1.3765 2.65881 0
M  V30 3739 H 340.487 0.663321 1.27813 0
M  V30 3740 H 342.44 -0.526567 4.18097 0
M  V30 3741 H 341.164 -1.0962 3.07654 0
M  V30 3742 H 339.823 0.98743 3.53052 0
M  V30 3743 H 339.471 -1.0647 4.91603 0
M  V30 3744 H 339.171 0.415181 5.86131 0
M  V30 3745 H 340.695 -0.489688 6.08633 0
M  V30 3746 H 342.109 1.69814 5.47573 0
M  V30 3747 H 340.506 2.48918 5.4604 0
M  V30 3748 H 341.576 2.65622 4.05676 0
M  V30 3749 N 342.919 -1.39368 0.735821 0
M  V30 3750 C 344.165 -2.00794 0.284544 0
M  V30 3751 C 344.498 -1.58255 -1.12557 0
M  V30 3752 O 343.773 -0.811819 -1.76748 0
M  V30 3753 C 344.056 -3.58011 0.387337 0
M  V30 3754 C 343.909 -4.10566 1.83728 0
M  V30 3755 C 345.228 -4.395 -0.22975 0
M  V30 3756 H 342.347 -0.729501 0.104866 0
M  V30 3757 H 344.989 -1.65564 0.93213 0
M  V30 3758 H 343.139 -3.88154 -0.164006 0
M  V30 3759 H 344.811 -3.91139 2.44556 0
M  V30 3760 H 343.054 -3.64095 2.35833 0
M  V30 3761 H 343.725 -5.19702 1.86047 0
M  V30 3762 H 346.201 -4.15406 0.240257 0
M  V30 3763 H 345.077 -5.48752 -0.127485 0
M  V30 3764 H 345.338 -4.22062 -1.3159 0
M  V30 3765 N 344.397 -0.483516 -1.5 0
M  V30 3766 C 345.808 -0.0314176 -1.86674 0
M  V30 3767 C 346.159 1.37728 -1.39733 0
M  V30 3768 O 345.284 2.02327 -0.767635 0
M  V30 3769 C 345.879 -0.0502376 -3.38763 0
M  V30 3770 C 344.438 0.346442 -3.74802 0
M  V30 3771 C 343.585 -0.430366 -2.7394 0
M  V30 3772 H 346.536 -0.697182 -1.42566 0
M  V30 3773 H 346.557 0.749116 -3.73053 0
M  V30 3774 H 346.069 -1.07563 -3.72897 0
M  V30 3775 H 344.17 1.37572 -3.46273 0
M  V30 3776 H 344.283 0.0391486 -4.79084 0
M  V30 3777 H 342.647 0.117557 -2.54429 0
M  V30 3778 H 343.43 -1.4555 -3.10918 0
M  V30 3779 N 345.875 1.56104 -0.216619 0
M  V30 3780 C 347.123 1.97781 0.415593 0
M  V30 3781 C 347.444 1.10536 1.60645 0
M  V30 3782 O 346.714 0.181303 1.95059 0
M  V30 3783 H 345.294 0.730415 0.156534 0
M  V30 3784 H 347.956 1.92445 -0.308366 0
M  V30 3785 H 347.052 3.03072 0.74525 0
M  V30 3786 N 347.353 -0.0568162 1.57498 0
M  V30 3787 C 348.301 -1.08452 2.05769 0
M  V30 3788 C 349.295 -1.39164 0.965903 0
M  V30 3789 O 350.501 -1.38395 1.15095 0
M  V30 3790 H 346.876 -0.367148 0.656282 0
M  V30 3791 H 348.847 -0.651368 2.91204 0
M  V30 3792 C 347.596 -2.38543 2.52968 0
M  V30 3793 H 346.919 -2.15765 3.36579 0
M  V30 3794 H 348.359 -3.08863 2.90481 0
M  V30 3795 C 346.818 -3.05562 1.41893 0
M  V30 3796 O 347.348 -3.94262 0.769442 0
M  V30 3797 N 345.554 -2.6643 1.16032 0
M  V30 3798 H 345.101 -1.94387 1.6903 0
M  V30 3799 H 345.059 -3.11593 0.419219 0
M  V30 3800 N 348.832 -1.54138 -0.328536 0
M  V30 3801 C 350.079 -1.72105 -1.06706 0
M  V30 3802 C 350.407 -0.492111 -1.88171 0
M  V30 3803 O 349.662 0.526153 -1.88494 0
M  V30 3804 C 349.961 -2.9457 -2.02393 0
M  V30 3805 C 349.627 -4.29544 -1.37122 0
M  V30 3806 C 348.289 -4.6624 -1.19052 0
M  V30 3807 C 350.641 -5.1333 -0.902331 0
M  V30 3808 C 347.969 -5.84325 -0.527331 0
M  V30 3809 C 350.321 -6.32094 -0.252988 0
M  V30 3810 C 348.985 -6.67473 -0.0600901 0
M  V30 3811 H 348.255 -0.629775 -0.390466 0
M  V30 3812 H 350.902 -1.88372 -0.34473 0
M  V30 3813 H 349.207 -2.72969 -2.81061 0
M  V30 3814 H 350.904 -3.05665 -2.59557 0
M  V30 3815 H 347.494 -4.0067 -1.52188 0
M  V30 3816 H 351.678 -4.855 -1.02974 0
M  V30 3817 H 346.934 -6.103 -0.366634 0
M  V30 3818 H 351.108 -6.96299 0.118366 0
M  V30 3819 H 348.735 -7.58832 0.455828 0
M  V30 3820 N 350.31 0.590341 -1.46126 0
M  V30 3821 C 351.257 1.69994 -1.56111 0
M  V30 3822 C 352.227 1.61065 -0.405867 0
M  V30 3823 O 353.412 1.8039 -0.621613 0
M  V30 3824 C 350.552 3.08326 -1.55013 0
M  V30 3825 C 349.665 3.27936 -2.81215 0
M  V30 3826 C 348.8 4.56473 -2.71673 0
M  V30 3827 C 347.839 4.694 -3.92849 0
M  V30 3828 N 346.976 5.89254 -3.81738 0
M  V30 3829 H 351.816 1.60797 -2.50895 0
M  V30 3830 H 349.353 0.783799 -1.24479 0
M  V30 3831 H 351.311 3.88383 -1.52362 0
M  V30 3832 H 349.941 3.16439 -0.637667 0
M  V30 3833 H 348.993 2.41536 -2.93879 0
M  V30 3834 H 350.305 3.33357 -3.71045 0
M  V30 3835 H 349.459 5.44748 -2.67085 0
M  V30 3836 H 348.198 4.53477 -1.7947 0
M  V30 3837 H 347.203 3.79544 -3.97777 0
M  V30 3838 H 348.428 4.7418 -4.86138 0
M  V30 3839 H 346.374 5.87271 -2.92317 0
M  V30 3840 H 346.291 5.95911 -4.65217 0
M  V30 3841 H 347.559 6.79981 -3.81112 0
M  V30 3842 N 351.788 1.33704 0.83433 0
M  V30 3843 C 353.013 1.28615 1.62705 0
M  V30 3844 C 353.438 -0.139242 1.87584 0
M  V30 3845 O 352.796 -1.09734 1.4432 0
M  V30 3846 C 352.844 2.07139 2.95171 0
M  V30 3847 O 351.948 1.4331 3.86699 0
M  V30 3848 H 351.289 0.44226 0.49528 0
M  V30 3849 H 353.819 1.76335 1.03766 0
M  V30 3850 H 353.829 2.18073 3.44831 0
M  V30 3851 H 352.504 3.10779 2.76386 0
M  V30 3852 H 351.081 1.4105 3.45195 0
M  V30 3853 N 353.266 -1.05314 1.17247 0
M  V30 3854 C 354.198 -2.13023 0.845812 0
M  V30 3855 C 355.211 -1.62096 -0.151246 0
M  V30 3856 O 356.4 -1.78343 0.0748818 0
M  V30 3857 C 353.5 -3.38047 0.240292 0
M  V30 3858 C 352.673 -4.18255 1.27991 0
M  V30 3859 C 351.732 -5.21625 0.692375 0
M  V30 3860 O 350.758 -5.52619 1.36385 0
M  V30 3861 N 351.96 -5.78201 -0.516178 0
M  V30 3862 H 354.725 -2.41642 1.77283 0
M  V30 3863 H 352.286 -1.21401 1.07115 0
M  V30 3864 H 354.278 -4.04359 -0.16603 0
M  V30 3865 H 352.848 -3.06972 -0.590487 0
M  V30 3866 H 352.068 -3.47451 1.86203 0
M  V30 3867 H 353.356 -4.68643 1.98119 0
M  V30 3868 H 352.754 -5.55301 -1.07969 0
M  V30 3869 H 351.311 -6.4604 -0.86458 0
M  V30 3870 N 354.744 -0.972509 -1.24016 0
M  V30 3871 C 355.674 -0.525548 -2.27509 0
M  V30 3872 C 356.655 0.437262 -1.64384 0
M  V30 3873 O 357.84 0.332343 -1.91335 0
M  V30 3874 C 354.97 0.180448 -3.46831 0
M  V30 3875 C 353.924 -0.698859 -4.22256 0
M  V30 3876 C 353.25 0.138903 -5.3452 0
M  V30 3877 C 354.55 -1.98582 -4.83076 0
M  V30 3878 H 356.244 -1.39058 -2.65148 0
M  V30 3879 H 353.79 -0.67009 -1.27459 0
M  V30 3880 H 355.743 0.504387 -4.18371 0
M  V30 3881 H 354.467 1.07987 -3.08231 0
M  V30 3882 H 353.126 -1.00614 -3.52523 0
M  V30 3883 H 352.774 1.03862 -4.9216 0
M  V30 3884 H 352.474 -0.446259 -5.85903 0
M  V30 3885 H 353.998 0.457404 -6.08884 0
M  V30 3886 H 355.412 -1.72715 -5.46665 0
M  V30 3887 H 353.809 -2.5181 -5.44713 0
M  V30 3888 H 354.879 -2.67769 -4.04262 0
M  V30 3889 N 356.222 1.38976 -0.743202 0
M  V30 3890 C 357.154 2.29096 -0.0689228 0
M  V30 3891 C 358.167 1.47229 0.694791 0
M  V30 3892 O 359.356 1.70212 0.537597 0
M  V30 3893 C 356.456 3.25988 0.926548 0
M  V30 3894 C 355.629 4.36833 0.222647 0
M  V30 3895 C 354.688 5.13981 1.12739 0
M  V30 3896 O 353.714 5.6601 0.601795 0
M  V30 3897 N 354.916 5.25966 2.45641 0
M  V30 3898 H 357.681 2.87604 -0.842846 0
M  V30 3899 H 355.242 1.50645 -0.593109 0
M  V30 3900 H 357.234 3.74476 1.5346 0
M  V30 3901 H 355.804 2.68453 1.60162 0
M  V30 3902 H 355.024 3.90116 -0.565983 0
M  V30 3903 H 356.312 5.0811 -0.264841 0
M  V30 3904 H 355.71 4.85228 2.9081 0
M  V30 3905 H 354.267 5.77865 3.01522 0
M  V30 3906 N 357.7 0.491464 1.49741 0
M  V30 3907 C 358.647 -0.292027 2.28945 0
M  V30 3908 C 359.617 -0.968973 1.34908 0
M  V30 3909 O 360.802 -0.97748 1.6386 0
M  V30 3910 C 357.942 -1.35617 3.17336 0
M  V30 3911 C 357.055 -0.691957 4.26422 0
M  V30 3912 C 356.19 -1.73572 5.02042 0
M  V30 3913 C 355.229 -1.05286 6.02977 0
M  V30 3914 N 354.366 -2.0404 6.71798 0
M  V30 3915 H 359.206 0.389654 2.95442 0
M  V30 3916 H 356.743 0.204003 1.45679 0
M  V30 3917 H 358.701 -1.98502 3.66951 0
M  V30 3918 H 357.331 -2.00674 2.52844 0
M  V30 3919 H 356.383 0.0499523 3.80367 0
M  V30 3920 H 357.695 -0.153946 4.98562 0
M  V30 3921 H 356.849 -2.43987 5.55478 0
M  V30 3922 H 355.588 -2.30757 4.29654 0
M  V30 3923 H 354.593 -0.334446 5.48782 0
M  V30 3924 H 355.818 -0.487636 6.77347 0
M  V30 3925 H 353.764 -2.60205 6.02187 0
M  V30 3926 H 353.681 -1.55279 7.39881 0
M  V30 3927 H 354.949 -2.73772 7.29842 0
M  V30 3928 N 359.178 -1.55987 0.224894 0
M  V30 3929 C 360.424 -1.98684 -0.406502 0
M  V30 3930 C 360.757 -1.11248 -1.59177 0
M  V30 3931 O 360.032 -0.170909 -1.93748 0
M  V30 3932 C 360.315 -3.50218 -0.837808 0
M  V30 3933 C 360.168 -4.48426 0.351332 0
M  V30 3934 C 361.487 -4.06243 -1.69278 0
M  V30 3935 H 358.606 -0.722337 -0.146283 0
M  V30 3936 H 361.248 -1.87255 0.321799 0
M  V30 3937 H 359.398 -3.60089 -1.45837 0
M  V30 3938 H 361.07 -4.50562 0.989526 0
M  V30 3939 H 359.313 -4.22159 0.998207 0
M  V30 3940 H 359.984 -5.52 0.00655905 0
M  V30 3941 H 362.46 -3.99337 -1.16914 0
M  V30 3942 H 361.336 -5.12581 -1.96346 0
M  V30 3943 H 361.597 -3.53332 -2.65723 0
M  V30 3944 N 360.656 0.0484629 -1.57525 0
M  V30 3945 C 362.067 0.597486 -1.76881 0
M  V30 3946 C 362.418 1.76664 -0.853475 0
M  V30 3947 O 361.543 2.16357 -0.0433656 0
M  V30 3948 C 362.138 1.09066 -3.20765 0
M  V30 3949 C 360.697 1.58535 -3.41385 0
M  V30 3950 C 359.844 0.514868 -2.72478 0
M  V30 3951 H 362.795 -0.177758 -1.57701 0
M  V30 3952 H 362.816 1.95875 -3.2621 0
M  V30 3953 H 362.328 0.239521 -3.8736 0
M  V30 3954 H 360.429 2.45898 -2.79937 0
M  V30 3955 H 360.542 1.64622 -4.49929 0
M  V30 3956 H 358.906 0.965407 -2.35695 0
M  V30 3957 H 359.689 -0.32648 -3.41744 0
M  V30 3958 N 362.134 1.5431 0.320358 0
M  V30 3959 C 363.545 1.63872 0.894594 0
M  V30 3960 C 363.896 0.534847 1.88769 0
M  V30 3961 O 363.021 -0.331732 2.13842 0
M  V30 3962 C 363.616 2.97049 1.62934 0
M  V30 3963 C 362.175 3.08796 2.15226 0
M  V30 3964 C 361.322 2.59456 0.978671 0
M  V30 3965 H 364.273 1.58398 0.0978544 0
M  V30 3966 H 364.294 2.87388 2.49376 0
M  V30 3967 H 363.806 3.7737 0.906302 0
M  V30 3968 H 361.907 2.33156 2.90636 0
M  V30 3969 H 362.02 4.14649 2.40006 0
M  V30 3970 H 360.384 2.1543 1.35875 0
M  V30 3971 H 361.167 3.42237 0.269895 0
M  V30 3972 N 363.613 -0.582584 1.46437 0
M  V30 3973 C 364.523 -1.71949 1.59595 0
M  V30 3974 C 365.539 -1.67264 0.479443 0
M  V30 3975 O 366.715 -1.87171 0.743579 0
M  V30 3976 C 363.78 -3.08452 1.58298 0
M  V30 3977 C 362.841 -3.244 2.81182 0
M  V30 3978 C 362.074 -4.54391 2.79937 0
M  V30 3979 O 362.297 -5.38287 1.8869 0
M  V30 3980 O 361.231 -4.73588 3.71481 0
M  V30 3981 H 365.057 -1.63795 2.55744 0
M  V30 3982 H 362.642 -0.749643 1.29231 0
M  V30 3983 H 364.524 -3.89732 1.60271 0
M  V30 3984 H 363.199 -3.17043 0.653094 0
M  V30 3985 H 362.106 -2.42613 2.84763 0
M  V30 3986 H 363.439 -3.20699 3.7338 0
M  V30 3987 N 365.091 -1.34144 -0.827227 0
M  V30 3988 C 366.337 -1.27455 -1.58515 0
M  V30 3989 C 366.692 0.155271 -1.91772 0
M  V30 3990 O 365.985 1.10042 -1.56848 0
M  V30 3991 C 366.179 -2.09464 -2.89585 0
M  V30 3992 C 366.008 -3.60276 -2.69131 0
M  V30 3993 C 364.778 -4.29565 -2.66087 0
M  V30 3994 C 366.976 -4.54367 -2.40947 0
M  V30 3995 N 364.958 -5.66252 -2.37132 0
M  V30 3996 C 366.329 -5.79027 -2.21648 0
M  V30 3997 C 368.384 -4.43327 -2.26639 0
M  V30 3998 C 367.087 -6.93891 -1.89492 0
M  V30 3999 C 369.113 -5.58019 -1.95878 0
M  V30 4000 C 368.475 -6.81695 -1.774 0
M  V30 4001 H 364.574 -0.521614 -0.582617 0
M  V30 4002 H 367.158 -1.68811 -0.970105 0
M  V30 4003 H 365.329 -1.70411 -3.49019 0
M  V30 4004 H 367.061 -1.94453 -3.54923 0
M  V30 4005 H 363.816 -3.81959 -2.80008 0
M  V30 4006 H 364.24 -6.38338 -2.25507 0
M  V30 4007 H 368.882 -3.48333 -2.39633 0
M  V30 4008 H 366.6 -7.88871 -1.75236 0
M  V30 4009 H 370.186 -5.5142 -1.85546 0
M  V30 4010 H 369.066 -7.68942 -1.53941 0
M  V30 4011 N 366.569 1.04691 -1.17803 0
M  V30 4012 C 367.516 2.12557 -0.899343 0
M  V30 4013 C 368.486 1.65339 0.158771 0
M  V30 4014 O 369.671 1.90789 0.0204797 0
M  V30 4015 C 366.811 3.42481 -0.424315 0
M  V30 4016 C 365.924 4.03346 -1.54713 0
M  V30 4017 C 365.059 5.21208 -1.02546 0
M  V30 4018 C 364.098 5.74089 -2.12339 0
M  V30 4019 N 363.235 6.83247 -1.61612 0
M  V30 4020 H 368.075 2.35734 -1.823 0
M  V30 4021 H 365.612 1.1564 -0.909159 0
M  V30 4022 H 367.57 4.16996 -0.130421 0
M  V30 4023 H 366.2 3.19471 0.462377 0
M  V30 4024 H 365.252 3.2622 -1.95664 0
M  V30 4025 H 366.564 4.38628 -2.37501 0
M  V30 4026 H 365.718 6.02812 -0.685718 0
M  V30 4027 H 364.457 4.87414 -0.167084 0
M  V30 4028 H 363.462 4.91111 -2.47165 0
M  V30 4029 H 364.687 6.0993 -2.98601 0
M  V30 4030 H 362.633 6.5134 -0.780533 0
M  V30 4031 H 362.55 7.17559 -2.38003 0
M  V30 4032 H 363.818 7.68491 -1.30545 0
M  V30 4033 N 368.047 0.979072 1.23499 0
M  V30 4034 C 369.01 0.523244 2.23147 0
M  V30 4035 C 370.01 -0.386406 1.56088 0
M  V30 4036 O 371.2 -0.180283 1.73265 0
M  V30 4037 C 368.332 -0.240739 3.40049 0
M  V30 4038 H 369.525 1.40432 2.64989 0
M  V30 4039 H 367.078 0.764824 1.36309 0
M  V30 4040 H 367.813 -1.13841 3.03662 0
M  V30 4041 H 367.598 0.412207 3.89927 0
M  V30 4042 H 369.088 -0.548297 4.13985 0
M  V30 4043 N 369.525 -1.3858 0.750561 0
M  V30 4044 C 370.455 -2.33102 0.136237 0
M  V30 4045 C 371.436 -1.54713 -0.706965 0
M  V30 4046 O 372.621 -1.83043 -0.648769 0
M  V30 4047 C 369.751 -3.38882 -0.760017 0
M  V30 4048 C 368.705 -4.27995 -0.0197785 0
M  V30 4049 C 368.031 -5.24605 -1.03408 0
M  V30 4050 C 369.331 -5.09554 1.14684 0
M  V30 4051 H 371.025 -2.84726 0.925822 0
M  V30 4052 H 368.571 -1.36898 0.446654 0
M  V30 4053 H 370.524 -4.0397 -1.19943 0
M  V30 4054 H 369.248 -2.85734 -1.58189 0
M  V30 4055 H 367.907 -3.64409 0.400184 0
M  V30 4056 H 367.555 -4.67746 -1.84994 0
M  V30 4057 H 367.255 -5.85081 -0.543464 0
M  V30 4058 H 368.779 -5.9257 -1.47288 0
M  V30 4059 H 370.193 -5.67899 0.785118 0
M  V30 4060 H 368.59 -5.7925 1.56812 0
M  V30 4061 H 369.66 -4.4347 1.96118 0
M  V30 4062 N 371.003 -0.499398 -1.49478 0
M  V30 4063 C 372.231 0.0425456 -2.06856 0
M  V30 4064 C 372.646 1.30964 -1.35992 0
M  V30 4065 O 372.003 1.77172 -0.437762 0
M  V30 4066 C 372.054 0.301735 -3.60239 0
M  V30 4067 O 371.775 -0.915127 -4.28436 0
M  V30 4068 C 373.276 0.887499 -4.34325 0
M  V30 4069 H 370.496 -0.0197482 -0.670709 0
M  V30 4070 H 373.04 -0.696297 -1.92281 0
M  V30 4071 H 371.195 0.990556 -3.74522 0
M  V30 4072 H 371.609 -0.676993 -5.20113 0
M  V30 4073 H 373.083 1.01845 -5.42523 0
M  V30 4074 H 373.56 1.88488 -3.96698 0
M  V30 4075 H 374.166 0.236196 -4.24644 0
M  V30 4076 N 372.481 1.55866 -0.233164 0
M  V30 4077 C 373.758 1.90471 0.444988 0
M  V30 4078 C 374.138 1.15209 1.7689 0
M  V30 4079 O 373.486 0.265119 2.26957 0
M  V30 4080 C 373.696 3.4333 0.626559 0
M  V30 4081 C 375.044 4.14319 0.92871 0
M  V30 4082 O 376.068 3.48993 0.712926 0
M  V30 4083 O 374.927 5.29846 1.33887 0
M  V30 4084 H 372.021 0.792347 0.236885 0
M  V30 4085 H 374.567 1.67437 -0.276211 0
M  V30 4086 H 373.339 3.90095 -0.306822 0
M  V30 4087 H 372.962 3.72181 1.39881 0
M  V30 4088 N 373.959 -0.0401083 1.57549 0
M  V30 4089 C 374.892 -1.07689 2.01192 0
M  V30 4090 C 375.87 -1.358 0.894273 0
M  V30 4091 O 377.054 -1.48642 1.15921 0
M  V30 4092 C 374.181 -2.41418 2.3756 0
M  V30 4093 C 373.227 -2.29237 3.59656 0
M  V30 4094 S 374.06 -1.65628 5.09242 0
M  V30 4095 C 375.216 -3.0087 5.48843 0
M  V30 4096 H 375.449 -0.705108 2.88817 0
M  V30 4097 H 372.982 -0.249724 1.52367 0
M  V30 4098 H 374.94 -3.18329 2.59186 0
M  V30 4099 H 373.601 -2.75747 1.50407 0
M  V30 4100 H 372.794 -3.27932 3.82722 0
M  V30 4101 H 372.396 -1.60469 3.37825 0
M  V30 4102 H 374.688 -3.97201 5.48851 0
M  V30 4103 H 375.631 -2.82549 6.49286 0
M  V30 4104 H 376.039 -3.02934 4.76331 0
M  V30 4105 N 375.437 -1.54477 -0.31217 0
M  V30 4106 C 376.848 -1.64344 -0.885891 0
M  V30 4107 C 377.199 -0.54485 -1.88483 0
M  V30 4108 O 376.324 0.320387 -2.14015 0
M  V30 4109 C 376.919 -2.97908 -1.61357 0
M  V30 4110 C 375.478 -3.09933 -2.13585 0
M  V30 4111 C 374.625 -2.59971 -0.964897 0
M  V30 4112 H 377.576 -1.58448 -0.0894528 0
M  V30 4113 H 377.597 -2.88706 -2.47848 0
M  V30 4114 H 377.109 -3.77845 -0.886277 0
M  V30 4115 H 375.21 -2.34694 -2.89395 0
M  V30 4116 H 375.323 -4.15916 -2.37804 0
M  V30 4117 H 373.687 -2.16147 -1.34731 0
M  V30 4118 H 374.47 -3.42376 -0.251742 0
M  V30 4119 N 376.915 0.57481 -1.46744 0
M  V30 4120 C 377.847 1.69804 -1.53946 0
M  V30 4121 C 378.86 1.57098 -0.427106 0
M  V30 4122 O 380.049 1.64378 -0.695863 0
M  V30 4123 C 377.149 3.08125 -1.4111 0
M  V30 4124 C 376.322 3.46757 -2.66605 0
M  V30 4125 C 375.381 4.6417 -2.47855 0
M  V30 4126 O 374.407 4.69634 -3.21609 0
M  V30 4127 N 375.609 5.59553 -1.54534 0
M  V30 4128 H 378.374 1.64077 -2.50796 0
M  V30 4129 H 375.935 0.761 -1.429 0
M  V30 4130 H 377.927 3.84478 -1.26328 0
M  V30 4131 H 376.497 3.08175 -0.524109 0
M  V30 4132 H 375.717 2.6003 -2.96274 0
M  V30 4133 H 377.005 3.69337 -3.49954 0
M  V30 4134 H 376.403 5.57881 -0.937304 0
M  V30 4135 H 374.96 6.35304 -1.45711 0
M  V30 4136 N 378.394 1.34581 0.820102 0
M  V30 4137 C 379.327 1.20735 1.93644 0
M  V30 4138 C 380.305 0.0983343 1.62302 0
M  V30 4139 O 381.489 0.263997 1.86642 0
M  V30 4140 C 378.616 0.856037 3.27704 0
M  V30 4141 C 377.662 1.97521 3.78005 0
M  V30 4142 S 378.495 3.58906 3.97425 0
M  V30 4143 C 379.651 3.25822 5.34407 0
M  V30 4144 H 379.884 2.15231 2.05093 0
M  V30 4145 H 377.417 1.1964 0.97599 0
M  V30 4146 H 379.375 0.660133 4.05157 0
M  V30 4147 H 378.036 -0.0706253 3.14021 0
M  V30 4148 H 377.229 1.68321 4.75062 0
M  V30 4149 H 376.831 2.12875 3.07507 0
M  V30 4150 H 379.123 2.77812 6.17922 0
M  V30 4151 H 380.066 4.22029 5.68592 0
M  V30 4152 H 380.474 2.61932 5.00052 0
M  V30 4153 N 379.872 -1.04064 1.18357 0
M  V30 4154 C 381.288 -1.2947 0.933258 0
M  V30 4155 C 381.488 -1.97466 -0.401169 0
M  V30 4156 O 380.544 -2.25528 -1.13549 0
M  V30 4157 C 381.857 -2.15337 2.09882 0
M  V30 4158 C 383.405 -2.28683 2.13712 0
M  V30 4159 C 383.88 -3.17917 3.29686 0
M  V30 4160 N 385.371 -3.25504 3.29547 0
M  V30 4161 C 386.106 -3.94706 4.15926 0
M  V30 4162 N 385.602 -4.66239 5.12439 0
M  V30 4163 N 387.395 -3.90986 4.0384 0
M  V30 4164 H 379.546 -0.583359 2.04232 0
M  V30 4165 H 381.809 -0.319921 0.892387 0
M  V30 4166 H 381.515 -1.72682 3.06389 0
M  V30 4167 H 381.389 -3.16015 2.05947 0
M  V30 4168 H 383.776 -2.70575 1.17784 0
M  V30 4169 H 383.857 -1.27596 2.21705 0
M  V30 4170 H 383.501 -2.76736 4.25887 0
M  V30 4171 H 383.431 -4.19036 3.1893 0
M  V30 4172 H 385.922 -2.74547 2.59677 0
M  V30 4173 H 386.235 -5.16638 5.74722 0
M  V30 4174 H 384.58 -4.65143 5.16398 0
M  V30 4175 H 387.771 -3.34234 3.27727 0
M  V30 4176 H 387.944 -4.44646 4.71375 0
M  V30 4177 N 381.35 -0.985608 -1.22978 0
M  V30 4178 C 382.283 -0.47487 -2.23204 0
M  V30 4179 C 383.261 0.460865 -1.55932 0
M  V30 4180 O 384.445 0.388105 -1.84461 0
M  V30 4181 C 381.572 0.312427 -3.37256 0
M  V30 4182 C 380.618 -0.568219 -4.22698 0
M  V30 4183 S 381.451 -2.01919 -4.95973 0
M  V30 4184 C 382.607 -1.24118 -6.1347 0
M  V30 4185 H 382.84 -1.32419 -2.66181 0
M  V30 4186 H 380.373 -0.792005 -1.32539 0
M  V30 4187 H 382.331 0.760645 -4.03391 0
M  V30 4188 H 380.992 1.13693 -2.92801 0
M  V30 4189 H 380.185 0.0371657 -5.03986 0
M  V30 4190 H 379.787 -0.952897 -3.61657 0
M  V30 4191 H 382.079 -0.505121 -6.75614 0
M  V30 4192 H 383.022 -2.02907 -6.78406 0
M  V30 4193 H 383.43 -0.757669 -5.59392 0
M  V30 4194 N 382.828 1.3818 -0.7579 0
M  V30 4195 C 383.738 2.3421 -0.135247 0
M  V30 4196 C 384.754 1.59487 0.695683 0
M  V30 4197 O 385.93 1.91657 0.618832 0
M  V30 4198 C 382.995 3.3862 0.744139 0
M  V30 4199 C 382.056 4.2918 -0.101658 0
M  V30 4200 C 381.289 5.28603 0.735851 0
M  V30 4201 O 381.512 5.35166 1.97366 0
M  V30 4202 O 380.446 6.01707 0.152372 0
M  V30 4203 H 384.272 2.8916 -0.928436 0
M  V30 4204 H 381.857 1.40101 -0.518855 0
M  V30 4205 H 383.739 4.02539 1.2466 0
M  V30 4206 H 382.414 2.86019 1.51575 0
M  V30 4207 H 381.321 3.68407 -0.650167 0
M  V30 4208 H 382.654 4.85048 -0.836024 0
M  V30 4209 N 384.306 0.507319 1.49211 0
M  V30 4210 C 385.236 -0.256939 2.32082 0
M  V30 4211 C 386.217 -0.956609 1.40652 0
M  V30 4212 O 387.402 -0.946788 1.69557 0
M  V30 4213 C 384.532 -1.31802 3.21318 0
M  V30 4214 C 383.486 -0.737855 4.21592 0
M  V30 4215 C 382.812 -1.89992 4.99807 0
M  V30 4216 C 384.112 0.275325 5.21574 0
M  V30 4217 H 385.806 0.434798 2.96226 0
M  V30 4218 H 383.352 0.210546 1.42452 0
M  V30 4219 H 385.305 -1.86045 3.78107 0
M  V30 4220 H 384.029 -2.03903 2.5513 0
M  V30 4221 H 382.688 -0.217126 3.65956 0
M  V30 4222 H 382.336 -2.60877 4.30061 0
M  V30 4223 H 382.036 -1.51777 5.6766 0
M  V30 4224 H 383.56 -2.44657 5.59442 0
M  V30 4225 H 384.974 -0.179193 5.7302 0
M  V30 4226 H 383.371 0.573649 5.97352 0
M  V30 4227 H 384.441 1.18903 4.70096 0
M  V30 4228 N 385.784 -1.5574 0.241426 0
M  V30 4229 C 386.694 -2.2479 -0.671305 0
M  V30 4230 C 387.71 -1.26217 -1.19772 0
M  V30 4231 O 388.886 -1.59079 -1.23514 0
M  V30 4232 C 385.951 -2.92966 -1.85396 0
M  V30 4233 C 385.012 -4.06935 -1.36756 0
M  V30 4234 C 384.245 -4.71851 -2.49384 0
M  V30 4235 O 384.468 -4.35823 -3.67987 0
M  V30 4236 O 383.402 -5.60467 -2.19454 0
M  V30 4237 H 387.228 -3.0349 -0.112966 0
M  V30 4238 H 384.813 -1.49397 0.0101513 0
M  V30 4239 H 386.695 -3.35927 -2.54423 0
M  V30 4240 H 385.37 -2.17211 -2.40002 0
M  V30 4241 H 384.277 -3.68503 -0.644726 0
M  V30 4242 H 385.61 -4.84492 -0.867647 0
M  V30 4243 N 387.262 0.0317525 -1.57568 0
M  V30 4244 C 388.678 0.38735 -1.54828 0
M  V30 4245 C 388.878 1.7677 -0.967187 0
M  V30 4246 O 387.934 2.45581 -0.587063 0
M  V30 4247 C 389.247 0.291667 -2.99282 0
M  V30 4248 C 390.795 0.368946 -3.10818 0
M  V30 4249 C 391.27 0.302741 -4.56998 0
M  V30 4250 N 392.761 0.361617 -4.61786 0
M  V30 4251 C 393.496 0.333238 -5.72431 0
M  V30 4252 N 392.992 0.257308 -6.92322 0
M  V30 4253 N 394.785 0.382769 -5.60795 0
M  V30 4254 H 386.936 -0.871609 -1.93692 0
M  V30 4255 H 389.199 -0.331161 -0.888277 0
M  V30 4256 H 388.905 -0.656794 -3.45513 0
M  V30 4257 H 388.779 1.08638 -3.61217 0
M  V30 4258 H 391.166 1.30784 -2.64536 0
M  V30 4259 H 391.247 -0.455066 -2.5172 0
M  V30 4260 H 390.891 -0.632473 -5.03947 0
M  V30 4261 H 390.821 1.14482 -5.14005 0
M  V30 4262 H 393.312 0.422923 -3.75526 0
M  V30 4263 H 393.625 0.24068 -7.72425 0
M  V30 4264 H 391.97 0.223396 -6.94641 0
M  V30 4265 H 395.161 0.44006 -4.66027 0
M  V30 4266 H 395.334 0.357184 -6.47015 0
M  V30 4267 N 388.74 1.54641 0.303973 0
M  V30 4268 C 390.151 1.64811 0.877163 0
M  V30 4269 C 390.502 0.554838 1.88191 0
M  V30 4270 O 389.627 -0.309033 2.14182 0
M  V30 4271 C 390.222 2.9876 1.59775 0
M  V30 4272 C 388.781 3.11061 2.11938 0
M  V30 4273 C 387.928 2.60479 0.951097 0
M  V30 4274 H 390.879 1.58493 0.0810486 0
M  V30 4275 H 390.9 2.90017 2.46314 0
M  V30 4276 H 390.412 3.7831 0.866226 0
M  V30 4277 H 388.513 2.36225 2.88146 0
M  V30 4278 H 388.626 4.17171 2.35595 0
M  V30 4279 H 386.99 2.16859 1.33583 0
M  V30 4280 H 387.773 3.42504 0.233581 0
M  V30 4281 N 390.218 -0.567019 1.47046 0
M  V30 4282 C 391.466 -1.322 1.52864 0
M  V30 4283 C 391.787 -1.94088 0.188388 0
M  V30 4284 O 391.057 -1.7941 -0.786693 0
M  V30 4285 H 389.637 -0.490894 0.563056 0
M  V30 4286 H 392.299 -0.662879 1.83281 0
M  V30 4287 H 391.395 -2.12062 2.2899 0
M  V30 4288 N 391.696 -1.35014 -0.812953 0
M  V30 4289 C 392.944 -1.27678 -1.56661 0
M  V30 4290 C 393.265 0.150359 -1.94419 0
M  V30 4291 O 392.535 1.08532 -1.63088 0
M  V30 4292 H 391.115 -0.469602 -0.580933 0
M  V30 4293 H 393.777 -1.69043 -0.970076 0
M  V30 4294 H 392.873 -1.88833 -2.48492 0
M  V30 4295 N 393.175 1.03435 -1.18907 0
M  V30 4296 C 394.123 2.13703 -0.918353 0
M  V30 4297 C 395.117 1.68947 0.123767 0
M  V30 4298 O 396.323 1.79983 -0.0249701 0
M  V30 4299 H 392.698 0.698112 -0.279542 0
M  V30 4300 H 394.669 2.33731 -1.85506 0
M  V30 4301 C 393.418 3.44542 -0.467532 0
M  V30 4302 H 392.741 3.79394 -1.26095 0
M  V30 4303 H 394.181 4.22812 -0.317164 0
M  V30 4304 C 392.64 3.26829 0.817588 0
M  V30 4305 O 393.17 3.54975 1.88031 0
M  V30 4306 N 391.376 2.80139 0.772677 0
M  V30 4307 H 390.923 2.57434 -0.0923883 0
M  V30 4308 H 390.881 2.68668 1.63294 0
M  V30 4309 N 394.653 0.992116 1.22453 0
M  V30 4310 C 395.563 0.55065 2.28046 0
M  V30 4311 C 396.579 -0.400189 1.69335 0
M  V30 4312 O 397.755 -0.267215 1.99619 0
M  V30 4313 C 394.82 -0.128496 3.46462 0
M  V30 4314 C 393.881 0.865208 4.20491 0
M  V30 4315 C 393.114 0.218377 5.33253 0
M  V30 4316 O 393.337 -0.987894 5.6178 0
M  V30 4317 O 392.271 0.922845 5.94783 0
M  V30 4318 H 396.097 1.4291 2.67975 0
M  V30 4319 H 393.682 0.760326 1.28606 0
M  V30 4320 H 395.564 -0.508947 4.18315 0
M  V30 4321 H 394.239 -0.981526 3.0846 0
M  V30 4322 H 393.146 1.29658 3.50913 0
M  V30 4323 H 394.479 1.68741 4.62371 0
M  V30 4324 N 396.131 -1.37776 0.765217 0
M  V30 4325 C 397.38 -1.99092 0.323307 0
M  V30 4326 C 397.693 -1.61434 -1.10446 0
M  V30 4327 O 398.899 -2.15805 -1.64743 0
M  V30 4328 C 397.355 -3.56019 0.527098 0
M  V30 4329 C 396.963 -4.0262 1.96471 0
M  V30 4330 C 398.707 -4.2424 0.148483 0
M  V30 4331 C 396.614 -5.52233 2.11644 0
M  V30 4332 H 395.544 -0.744846 0.117137 0
M  V30 4333 H 398.195 -1.57391 0.943417 0
M  V30 4334 H 396.577 -3.95667 -0.162372 0
M  V30 4335 H 397.751 -3.74234 2.68859 0
M  V30 4336 H 396.066 -3.47161 2.29931 0
M  V30 4337 H 398.663 -5.34159 0.240456 0
M  V30 4338 H 399.006 -4.06446 -0.900422 0
M  V30 4339 H 399.539 -3.89872 0.79025 0
M  V30 4340 H 396.278 -5.74945 3.1483 0
M  V30 4341 H 395.798 -5.82324 1.4373 0
M  V30 4342 H 397.477 -6.18106 1.91193 0
M  V30 4343 N 397.609 -0.515225 -1.4894 0
M  V30 4344 C 398.837 0.0206034 -2.0689 0
M  V30 4345 C 399.252 1.29514 -1.37374 0
M  V30 4346 O 398.609 1.76698 -0.456529 0
M  V30 4347 C 398.66 0.26351 -3.60538 0
M  V30 4348 O 398.381 -0.960517 -4.27441 0
M  V30 4349 C 399.882 0.841383 -4.35242 0
M  V30 4350 H 397.102 -0.0268608 -0.670462 0
M  V30 4351 H 399.646 -0.716651 -1.91532 0
M  V30 4352 H 397.801 0.950777 -3.75552 0
M  V30 4353 H 398.215 -0.73212 -5.19365 0
M  V30 4354 H 399.689 0.96085 -5.43573 0
M  V30 4355 H 400.166 1.8427 -3.98674 0
M  V30 4356 H 400.772 0.191143 -4.2487 0
M  V30 4357 N 399.087 1.5561 -0.249682 0
M  V30 4358 C 400.503 1.59254 0.105103 0
M  V30 4359 C 400.703 1.26685 1.56694 0
M  V30 4360 O 399.759 1.0155 2.31179 0
M  V30 4361 C 401.072 2.99687 -0.246592 0
M  V30 4362 C 402.62 3.12416 -0.191118 0
M  V30 4363 C 403.095 4.55074 -0.516885 0
M  V30 4364 N 404.586 4.60835 -0.467489 0
M  V30 4365 C 405.321 5.69201 -0.69268 0
M  V30 4366 N 404.817 6.85817 -0.981146 0
M  V30 4367 N 406.61 5.58635 -0.623198 0
M  V30 4368 H 398.761 1.75049 -1.20298 0
M  V30 4369 H 401.024 0.815003 -0.484225 0
M  V30 4370 H 400.73 3.28267 -1.26228 0
M  V30 4371 H 400.604 3.74798 0.424962 0
M  V30 4372 H 402.991 2.83615 0.815247 0
M  V30 4373 H 403.072 2.39573 -0.896563 0
M  V30 4374 H 402.716 4.84596 -1.52082 0
M  V30 4375 H 402.646 5.26181 0.210068 0
M  V30 4376 H 405.137 3.7705 -0.253373 0
M  V30 4377 H 405.45 7.64341 -1.14032 0
M  V30 4378 H 403.795 6.87494 -1.01865 0
M  V30 4379 H 406.986 4.66406 -0.397863 0
M  V30 4380 H 407.159 6.43017 -0.802093 0
M  V30 4381 N 400.565 -0.0233959 1.57583 0
M  V30 4382 C 401.813 -0.711654 1.89156 0
M  V30 4383 C 402.134 -1.75591 0.848096 0
M  V30 4384 O 401.404 -1.95547 -0.117566 0
M  V30 4385 H 399.984 -0.265835 0.698098 0
M  V30 4386 H 402.646 0.0119948 1.94896 0
M  V30 4387 H 401.742 -1.19766 2.88206 0
M  V30 4388 N 402.043 -1.548 -0.295768 0
M  V30 4389 C 403.291 -1.73985 -1.02828 0
M  V30 4390 C 403.612 -0.531406 -1.87619 0
M  V30 4391 O 402.882 0.454221 -1.90561 0
M  V30 4392 H 401.462 -0.641556 -0.382642 0
M  V30 4393 H 404.124 -1.92163 -0.325489 0
M  V30 4394 H 403.22 -2.63129 -1.67838 0
M  V30 4395 N 403.521 0.559213 -1.47345 0
M  V30 4396 C 404.746 1.34676 -1.57725 0
M  V30 4397 C 405.171 1.86723 -0.227164 0
M  V30 4398 O 404.529 1.6286 0.796642 0
M  V30 4399 C 404.577 2.49399 -2.60447 0
M  V30 4400 O 403.681 3.51567 -2.15578 0
M  V30 4401 H 403.022 0.400115 -0.52991 0
M  V30 4402 H 405.552 0.676009 -1.93109 0
M  V30 4403 H 405.562 2.95996 -2.80803 0
M  V30 4404 H 404.237 2.10873 -3.58477 0
M  V30 4405 H 402.814 3.11289 -2.05313 0
M  V30 4406 N 404.999 1.35443 0.805782 0
M  V30 4407 C 406.227 1.31878 1.59423 0
M  V30 4408 C 406.642 -0.103562 1.88516 0
M  V30 4409 O 405.999 -1.05575 1.48863 0
M  V30 4410 C 406.05 2.12426 2.92502 0
M  V30 4411 O 405.771 3.49115 2.6467 0
M  V30 4412 C 407.272 2.16455 3.86862 0
M  V30 4413 H 404.492 0.453002 0.495005 0
M  V30 4414 H 407.036 1.78309 1.00131 0
M  V30 4415 H 405.191 1.69593 3.48306 0
M  V30 4416 H 405.605 3.90957 3.49647 0
M  V30 4417 H 407.079 2.77204 4.77349 0
M  V30 4418 H 407.556 1.16352 4.23508 0
M  V30 4419 H 408.162 2.59453 3.36993 0
M  V30 4420 N 406.477 -1.02803 1.19454 0
M  V30 4421 C 407.702 -1.80378 1.02364 0
M  V30 4422 C 408.127 -1.83282 -0.423007 0
M  V30 4423 O 407.485 -1.25945 -1.30413 0
M  V30 4424 C 407.533 -3.23248 1.59821 0
M  V30 4425 O 406.637 -4.04 0.828105 0
M  V30 4426 H 405.978 -0.556799 0.361761 0
M  V30 4427 H 408.508 -1.29385 1.58495 0
M  V30 4428 H 408.518 -3.73994 1.63073 0
M  V30 4429 H 407.193 -3.2045 2.65113 0
M  V30 4430 H 405.77 -3.62635 0.86891 0
M  V30 4431 N 407.956 -0.998596 -1.21925 0
M  V30 4432 C 409.186 -0.695276 -1.94549 0
M  V30 4433 C 409.594 0.745079 -1.73911 0
M  V30 4434 O 408.937 1.51507 -1.03881 0
M  V30 4435 C 408.999 -0.928485 -3.47303 0
M  V30 4436 C 408.663 -2.35443 -3.91683 0
M  V30 4437 C 409.66 -3.33428 -3.98901 0
M  V30 4438 C 407.345 -2.69038 -4.24174 0
M  V30 4439 C 409.339 -4.63079 -4.37992 0
M  V30 4440 C 407.026 -3.98906 -4.62944 0
M  V30 4441 C 408.024 -4.95738 -4.69822 0
M  V30 4442 O 407.712 -6.23285 -5.07711 0
M  V30 4443 H 407.444 -0.255902 -0.625692 0
M  V30 4444 H 409.998 -1.33767 -1.5587 0
M  V30 4445 H 408.228 -0.228917 -3.86022 0
M  V30 4446 H 409.917 -0.619539 -4.01144 0
M  V30 4447 H 410.683 -3.08807 -3.73983 0
M  V30 4448 H 406.562 -1.94367 -4.18022 0
M  V30 4449 H 410.106 -5.38658 -4.43275 0
M  V30 4450 H 406.003 -4.23314 -4.87314 0
M  V30 4451 H 406.771 -6.27306 -5.25766 0
M  V30 4452 N 409.434 1.37368 -0.772513 0
M  V30 4453 C 410.682 1.99279 -0.336516 0
M  V30 4454 C 411.003 1.6163 1.09091 0
M  V30 4455 O 410.273 0.882109 1.74916 0
M  V30 4456 H 408.853 0.737063 -0.121435 0
M  V30 4457 H 411.515 1.67836 -0.990809 0
M  V30 4458 H 410.611 3.09332 -0.414763 0
M  V30 4459 N 410.912 0.523116 1.48665 0
M  V30 4460 C 412.14 -0.0096312 2.06898 0
M  V30 4461 C 412.555 -1.28784 1.38059 0
M  V30 4462 O 411.912 -1.76453 0.465893 0
M  V30 4463 C 411.963 -0.244386 3.60673 0
M  V30 4464 O 411.684 0.983172 4.26925 0
M  V30 4465 C 413.185 -0.818289 4.35682 0
M  V30 4466 H 410.405 0.0304161 0.67031 0
M  V30 4467 H 412.949 0.726799 1.91149 0
M  V30 4468 H 411.104 -0.930847 3.76051 0
M  V30 4469 H 411.518 0.759653 5.1897 0
M  V30 4470 H 412.992 -0.93201 5.44075 0
M  V30 4471 H 413.469 -1.82153 3.99646 0
M  V30 4472 H 414.075 -0.168609 4.24966 0
M  V30 4473 N 412.39 -1.55475 0.257931 0
M  V30 4474 C 413.638 -1.98813 -0.363009 0
M  V30 4475 C 413.959 -1.14757 -1.57657 0
M  V30 4476 O 413.229 -0.232956 -1.9451 0
M  V30 4477 H 411.809 -0.734308 -0.137113 0
M  V30 4478 H 414.471 -1.9156 0.359281 0
M  V30 4479 H 413.567 -3.04941 -0.664634 0
M  V30 4480 N 413.868 0.0150385 -1.57593 0
M  V30 4481 C 415.093 0.718067 -1.94573 0
M  V30 4482 C 415.518 1.6734 -0.859005 0
M  V30 4483 O 414.876 1.80362 0.184147 0
M  V30 4484 C 414.924 1.43918 -3.30636 0
M  V30 4485 O 414.028 2.55299 -3.23876 0
M  V30 4486 H 413.369 0.192125 -0.635597 0
M  V30 4487 H 415.899 -0.0336708 -2.04572 0
M  V30 4488 H 415.909 1.80598 -3.65853 0
M  V30 4489 H 414.584 0.738619 -4.09289 0
M  V30 4490 H 413.161 2.21058 -3.00312 0
M  V30 4491 N 415.346 1.54954 0.287554 0
M  V30 4492 C 416.256 1.8991 1.37736 0
M  V30 4493 C 417.272 0.794701 1.54792 0
M  V30 4494 O 418.448 1.09243 1.69198 0
M  V30 4495 C 415.513 2.15108 2.71899 0
M  V30 4496 C 414.574 3.38752 2.63715 0
M  V30 4497 C 413.807 3.62739 3.91479 0
M  V30 4498 O 414.03 2.89492 4.91478 0
M  V30 4499 O 412.964 4.56267 3.92561 0
M  V30 4500 H 416.79 2.82652 1.11092 0
M  V30 4501 H 414.375 1.41315 0.484807 0
M  V30 4502 H 416.257 2.32806 3.51254 0
M  V30 4503 H 414.932 1.25551 2.9836 0
M  V30 4504 H 413.839 3.26405 1.82786 0
M  V30 4505 H 415.172 4.28483 2.42205 0
M  V30 4506 N 416.824 -0.551391 1.4764 0
M  V30 4507 C 418.052 -1.33357 1.58189 0
M  V30 4508 C 418.467 -1.87342 0.234199 0
M  V30 4509 O 417.824 -1.65301 -0.77343 0
M  V30 4510 C 417.875 -2.49942 2.61173 0
M  V30 4511 O 417.596 -1.98187 3.90709 0
M  V30 4512 C 419.097 -3.42072 2.8196 0
M  V30 4513 H 416.317 -0.40631 0.533998 0
M  V30 4514 H 418.861 -0.667367 1.93304 0
M  V30 4515 H 417.016 -3.12489 2.28975 0
M  V30 4516 H 417.43 -2.74342 4.47031 0
M  V30 4517 H 418.904 -4.20278 3.57869 0
M  V30 4518 H 419.381 -3.95978 1.89995 0
M  V30 4519 H 419.987 -2.85336 3.15378 0
M  V30 4520 N 418.302 -1.35869 -0.798587 0
M  V30 4521 C 419.212 -1.31578 -1.94228 0
M  V30 4522 C 420.228 -0.21939 -1.72611 0
M  V30 4523 O 421.404 -0.450167 -1.96305 0
M  V30 4524 C 418.469 -1.09528 -3.28944 0
M  V30 4525 C 417.53 -2.28556 -3.63402 0
M  V30 4526 C 416.763 -2.07549 -4.9169 0
M  V30 4527 O 416.986 -1.046 -5.60727 0
M  V30 4528 O 415.92 -2.95106 -5.24591 0
M  V30 4529 H 419.746 -2.27847 -2.00796 0
M  V30 4530 H 417.331 -1.16322 -0.937526 0
M  V30 4531 H 419.213 -0.991127 -4.09579 0
M  V30 4532 H 417.888 -0.16315 -3.23289 0
M  V30 4533 H 416.795 -2.44538 -2.83112 0
M  V30 4534 H 418.128 -3.20244 -3.73771 0
M  V30 4535 N 419.78 1.02168 -1.19998 0
M  V30 4536 C 421.005 1.79833 -1.03319 0
M  V30 4537 C 421.43 1.83504 0.413281 0
M  V30 4538 O 420.788 1.26635 1.29743 0
M  V30 4539 C 420.836 3.22396 -1.61533 0
M  V30 4540 O 419.94 4.03555 -0.849519 0
M  V30 4541 H 419.281 0.554872 -0.364709 0
M  V30 4542 H 421.811 1.28542 -1.59179 0
M  V30 4543 H 421.821 3.73124 -1.65054 0
M  V30 4544 H 420.496 3.19039 -2.66809 0
M  V30 4545 H 419.073 3.62169 -0.888129 0
M  V30 4546 N 421.258 1.00505 1.21394 0
M  V30 4547 C 422.669 0.721082 1.72213 0
M  V30 4548 C 423.02 -0.761263 1.80829 0
M  V30 4549 O 422.145 -1.59464 1.46288 0
M  V30 4550 C 422.74 1.30228 3.12772 0
M  V30 4551 C 421.299 1.06743 3.60947 0
M  V30 4552 C 420.446 1.41507 2.38477 0
M  V30 4553 H 423.397 1.17594 1.06571 0
M  V30 4554 H 423.418 0.686955 3.74247 0
M  V30 4555 H 422.93 2.38115 3.06468 0
M  V30 4556 H 421.031 0.00572162 3.726 0
M  V30 4557 H 421.144 1.73936 4.46411 0
M  V30 4558 H 419.508 0.833852 2.40664 0
M  V30 4559 H 420.291 2.50424 2.34824 0
M  V30 4560 N 422.737 -1.36956 0.779787 0
M  V30 4561 C 424.153 -1.52817 0.460342 0
M  V30 4562 C 424.353 -1.7361 -1.02283 0
M  V30 4563 O 423.409 -1.76207 -1.80852 0
M  V30 4564 C 424.722 -2.71983 1.28241 0
M  V30 4565 C 426.27 -2.85849 1.27512 0
M  V30 4566 C 426.745 -4.08008 2.08072 0
M  V30 4567 N 428.236 -4.15135 2.05467 0
M  V30 4568 C 428.971 -5.08711 2.64577 0
M  V30 4569 N 428.467 -6.07792 3.32506 0
M  V30 4570 N 430.26 -5.01254 2.54363 0
M  V30 4571 H 422.411 -1.21713 1.74068 0
M  V30 4572 H 424.674 -0.593294 0.739396 0
M  V30 4573 H 424.38 -2.63109 2.33381 0
M  V30 4574 H 424.254 -3.65882 0.917088 0
M  V30 4575 H 426.641 -2.94189 0.231686 0
M  V30 4576 H 426.722 -1.92886 1.68014 0
M  V30 4577 H 426.366 -4.00429 3.12441 0
M  V30 4578 H 426.296 -5.001 1.64947 0
M  V30 4579 H 428.787 -3.44189 1.5602 0
M  V30 4580 H 429.1 -6.75739 3.74963 0
M  V30 4581 H 427.445 -6.08047 3.36606 0
M  V30 4582 H 430.636 -4.22795 2.00902 0
M  V30 4583 H 430.809 -5.73995 3.00722 0
M  V30 4584 N 424.215 -0.530993 -1.48385 0
M  V30 4585 C 425.163 0.244595 -2.3131 0
M  V30 4586 C 426.157 0.93451 -1.41291 0
M  V30 4587 O 427.363 0.85878 -1.58193 0
M  V30 4588 H 423.738 0.0977472 -0.74562 0
M  V30 4589 H 425.709 -0.474369 -2.94605 0
M  V30 4590 C 424.458 1.2779 -3.23365 0
M  V30 4591 H 423.781 0.756439 -3.92579 0
M  V30 4592 H 425.221 1.79198 -3.84271 0
M  V30 4593 C 423.68 2.31205 -2.45042 0
M  V30 4594 O 424.21 3.37661 -2.17596 0
M  V30 4595 N 422.416 2.04446 -2.0652 0
M  V30 4596 H 421.963 1.17891 -2.2904 0
M  V30 4597 H 421.921 2.73861 -1.54427 0
M  V30 4598 N 425.693 1.55336 -0.266172 0
M  V30 4599 C 427.104 1.85236 0.233315 0
M  V30 4600 C 427.455 1.18816 1.56132 0
M  V30 4601 O 426.58 0.473307 2.11161 0
M  V30 4602 C 427.175 3.36059 0.430113 0
M  V30 4603 C 425.734 3.66116 0.873842 0
M  V30 4604 C 424.881 2.77274 -0.0380016 0
M  V30 4605 H 427.832 1.51004 -0.488214 0
M  V30 4606 H 427.853 3.58681 1.26998 0
M  V30 4607 H 427.365 3.84373 -0.536588 0
M  V30 4608 H 425.466 3.23295 1.85233 0
M  V30 4609 H 425.579 4.73699 0.717358 0
M  V30 4610 H 423.943 2.50198 0.476759 0
M  V30 4611 H 424.726 3.284 -1.00042 0
M  V30 4612 N 427.171 -0.0066808 1.57599 0
M  V30 4613 C 428.396 -0.707738 1.94951 0
M  V30 4614 C 428.821 -1.66882 0.867868 0
M  V30 4615 O 428.179 -1.80457 -0.17458 0
M  V30 4616 C 428.227 -1.42162 3.31394 0
M  V30 4617 O 427.331 -2.53578 3.25226 0
M  V30 4618 H 426.672 -0.188752 0.636607 0
M  V30 4619 H 429.202 0.0445193 2.04552 0
M  V30 4620 H 429.212 -1.78655 3.66806 0
M  V30 4621 H 427.887 -0.716903 4.09675 0
M  V30 4622 H 426.464 -2.19463 3.01481 0
M  V30 4623 N 428.649 -1.55105 -0.279332 0
M  V30 4624 C 429.874 -1.7976 -1.03446 0
M  V30 4625 C 430.299 -0.565952 -1.79384 0
M  V30 4626 O 429.657 0.484259 -1.74713 0
M  V30 4627 C 429.705 -3.0179 -1.97371 0
M  V30 4628 O 428.809 -2.76432 -3.06038 0
M  V30 4629 H 428.15 -0.594334 -0.29608 0
M  V30 4630 H 430.68 -2.02235 -0.310165 0
M  V30 4631 H 430.69 -3.30351 -2.39441 0
M  V30 4632 H 429.365 -3.91085 -1.4151 0
M  V30 4633 H 427.942 -2.58949 -2.68328 0
M  V30 4634 N 430.127 0.543554 -1.4793 0
M  V30 4635 C 431.09 1.63156 -1.60975 0
M  V30 4636 C 432.09 1.53346 -0.483899 0
M  V30 4637 O 433.28 1.5726 -0.749339 0
M  V30 4638 C 430.412 3.02743 -1.56716 0
M  V30 4639 H 431.605 1.52934 -2.57975 0
M  V30 4640 H 429.158 0.764557 -1.36324 0
M  V30 4641 H 429.893 3.18484 -0.611418 0
M  V30 4642 H 429.678 3.11272 -2.38438 0
M  V30 4643 H 431.168 3.81871 -1.6901 0
M  V30 4644 N 431.605 1.3629 0.791371 0
M  V30 4645 C 432.853 1.30154 1.5461 0
M  V30 4646 C 433.174 -0.119409 1.94634 0
M  V30 4647 O 432.444 -1.05924 1.64794 0
M  V30 4648 H 431.024 0.478784 0.573389 0
M  V30 4649 H 433.686 1.70565 0.94306 0
M  V30 4650 H 432.782 1.92762 2.45457 0
M  V30 4651 N 433.083 -1.0153 1.20538 0
M  V30 4652 C 434.308 -1.79283 1.04271 0
M  V30 4653 C 434.733 -1.8372 -0.403544 0
M  V30 4654 O 434.091 -1.27321 -1.2907 0
M  V30 4655 C 434.139 -3.21535 1.63241 0
M  V30 4656 O 433.243 -4.03099 0.870908 0
M  V30 4657 H 432.584 -0.55293 0.367647 0
M  V30 4658 H 435.114 -1.27696 1.59859 0
M  V30 4659 H 435.124 -3.72243 1.6703 0
M  V30 4660 H 433.799 -3.1762 2.68497 0
M  V30 4661 H 432.376 -3.61693 0.907323 0
M  V30 4662 N 434.561 -1.01147 -1.20859 0
M  V30 4663 C 435.807 -0.708598 -1.90658 0
M  V30 4664 C 436.162 0.753069 -1.7705 0
M  V30 4665 O 435.455 1.53952 -1.14059 0
M  V30 4666 C 435.649 -1.0727 -3.40922 0
M  V30 4667 C 435.478 -2.56821 -3.69152 0
M  V30 4668 C 434.248 -3.23524 -3.8815 0
M  V30 4669 C 436.446 -3.54997 -3.72131 0
M  V30 4670 N 434.428 -4.62359 -4.03853 0
M  V30 4671 C 435.799 -4.79371 -3.93196 0
M  V30 4672 C 437.854 -3.49042 -3.55069 0
M  V30 4673 C 436.557 -5.98512 -3.98969 0
M  V30 4674 C 438.583 -4.67579 -3.6211 0
M  V30 4675 C 437.945 -5.9076 -3.83643 0
M  V30 4676 H 434.044 -0.31088 -0.71755 0
M  V30 4677 H 436.628 -1.29526 -1.45366 0
M  V30 4678 H 434.799 -0.51443 -3.84978 0
M  V30 4679 H 436.531 -0.723891 -3.98173 0
M  V30 4680 H 433.286 -2.73958 -3.86321 0
M  V30 4681 H 433.71 -5.34427 -4.15592 0
M  V30 4682 H 438.352 -2.54808 -3.37391 0
M  V30 4683 H 436.07 -6.93132 -4.15444 0
M  V30 4684 H 439.656 -4.64581 -3.50222 0
M  V30 4685 H 438.536 -6.8095 -3.88944 0
M  V30 4686 N 436.039 1.36541 -0.78704 0
M  V30 4687 C 436.987 2.31965 -0.171724 0
M  V30 4688 C 437.981 1.55689 0.667631 0
M  V30 4689 O 439.187 1.70969 0.562981 0
M  V30 4690 H 435.562 0.751101 -0.0367545 0
M  V30 4691 H 437.533 2.81428 -0.992017 0
M  V30 4692 C 436.282 3.40968 0.680904 0
M  V30 4693 H 435.605 3.99775 0.0443961 0
M  V30 4694 H 437.045 4.10063 1.07815 0
M  V30 4695 C 435.504 2.82338 1.83813 0
M  V30 4696 O 436.034 2.74311 2.93456 0
M  V30 4697 N 434.24 2.39661 1.6435 0
M  V30 4698 H 433.787 2.46389 0.751668 0
M  V30 4699 H 433.745 2.00779 2.4194 0
M  V30 4700 N 437.518 0.538854 1.48102 0
M  V30 4701 C 438.743 0.0102694 2.07397 0
M  V30 4702 C 439.168 -1.26562 1.39153 0
M  V30 4703 O 438.526 -1.75357 0.460387 0
M  V30 4704 C 438.574 -0.187602 3.60112 0
M  V30 4705 O 437.678 -1.25432 3.92862 0
M  V30 4706 H 437.019 0.0430975 0.6626 0
M  V30 4707 H 439.549 0.749301 1.90385 0
M  V30 4708 H 439.559 -0.407517 4.0596 0
M  V30 4709 H 438.234 0.744386 4.09184 0
M  V30 4710 H 436.811 -1.01636 3.58782 0
M  V30 4711 N 438.996 -1.55193 0.274407 0
M  V30 4712 C 440.244 -1.99187 -0.341902 0
M  V30 4713 C 440.565 -1.16422 -1.56431 0
M  V30 4714 O 439.835 -0.253573 -1.94252 0
M  V30 4715 H 438.415 -0.735721 -0.129317 0
M  V30 4716 H 441.077 -1.91168 0.379578 0
M  V30 4717 H 440.173 -3.05629 -0.632253 0
M  V30 4718 N 440.474 -0.00167713 -1.576 0
M  V30 4719 C 441.699 0.69739 -1.95323 0
M  V30 4720 C 442.124 1.6642 -0.876706 0
M  V30 4721 O 441.482 1.80548 0.165007 0
M  V30 4722 C 441.53 1.40403 -3.32144 0
M  V30 4723 O 440.634 2.5185 -3.26566 0
M  V30 4724 H 439.975 0.185373 -0.637599 0
M  V30 4725 H 442.505 -0.0553665 -2.04525 0
M  V30 4726 H 442.515 1.76707 -3.67748 0
M  V30 4727 H 441.19 0.695167 -4.10049 0
M  V30 4728 H 439.767 2.17861 -3.0264 0
M  V30 4729 N 441.952 1.55251 0.271103 0
M  V30 4730 C 443.177 1.80306 1.02491 0
M  V30 4731 C 443.602 0.575457 1.79081 0
M  V30 4732 O 442.96 -0.474987 1.74967 0
M  V30 4733 C 443.008 3.02832 1.95768 0
M  V30 4734 O 442.112 2.78051 3.04568 0
M  V30 4735 H 441.453 0.595896 0.292923 0
M  V30 4736 H 443.983 2.02397 0.299436 0
M  V30 4737 H 443.993 3.31616 2.37686 0
M  V30 4738 H 442.668 3.9183 1.39434 0
M  V30 4739 H 441.245 2.60369 2.66951 0
M  V30 4740 N 443.43 -0.535701 1.48216 0
M  V30 4741 C 444.678 -1.28928 1.55634 0
M  V30 4742 C 444.999 -1.93645 0.229514 0
M  V30 4743 O 444.269 -1.81038 -0.74846 0
M  V30 4744 H 442.849 -0.47884 0.573342 0
M  V30 4745 H 445.511 -0.623853 1.84646 0
M  V30 4746 H 444.607 -2.07157 2.33436 0
M  V30 4747 N 444.908 -1.36708 -0.784132 0
M  V30 4748 C 446.319 -1.27947 -1.35965 0
M  V30 4749 C 446.67 0.0784013 -1.96043 0
M  V30 4750 O 445.795 0.979989 -1.92938 0
M  V30 4751 C 446.39 -2.31689 -2.47195 0
M  V30 4752 C 444.949 -2.26601 -3.00548 0
M  V30 4753 C 444.096 -2.16184 -1.73666 0
M  V30 4754 H 447.047 -1.4751 -0.585358 0
M  V30 4755 H 447.068 -1.95638 -3.26352 0
M  V30 4756 H 446.58 -3.30506 -2.03439 0
M  V30 4757 H 444.681 -1.31268 -3.48711 0
M  V30 4758 H 444.794 -3.19508 -3.57004 0
M  V30 4759 H 443.158 -1.62524 -1.96107 0
M  V30 4760 H 443.941 -3.16896 -1.32031 0
M  V30 4761 N 446.386 1.0089 -1.21074 0
M  V30 4762 C 447.634 1.74262 -1.02358 0
M  V30 4763 C 447.955 1.89869 0.444393 0
M  V30 4764 O 447.225 1.44677 1.32081 0
M  V30 4765 H 445.805 0.645615 -0.375754 0
M  V30 4766 H 448.467 1.21596 -1.52317 0
M  V30 4767 H 447.563 2.74328 -1.4883 0
M  V30 4768 N 447.864 1.01787 1.20321 0
M  V30 4769 C 449.089 0.727009 1.9424 0
M  V30 4770 C 449.514 -0.706179 1.74341 0
M  V30 4771 O 448.872 -1.48609 1.03852 0
M  V30 4772 C 448.92 1.06958 3.44372 0
M  V30 4773 O 448.024 0.181983 4.11998 0
M  V30 4774 H 447.365 0.269626 0.606793 0
M  V30 4775 H 449.895 1.36158 1.52716 0
M  V30 4776 H 449.905 1.02182 3.94997 0
M  V30 4777 H 448.58 2.11378 3.58179 0
M  V30 4778 H 447.157 0.287378 3.71791 0
M  V30 4779 N 449.342 -1.36122 0.79427 0
M  V30 4780 C 450.57 -2.03362 0.380989 0
M  V30 4781 C 450.985 -1.59881 -1.00416 0
M  V30 4782 O 450.342 -0.790515 -1.6449 0
M  V30 4783 C 450.393 -3.58804 0.440649 0
M  V30 4784 O 450.114 -4.007 1.77118 0
M  V30 4785 C 451.615 -4.43296 0.0186117 0
M  V30 4786 H 448.835 -0.652526 0.156367 0
M  V30 4787 H 451.379 -1.73998 1.07447 0
M  V30 4788 H 449.534 -3.8686 -0.204458 0
M  V30 4789 H 449.948 -4.95309 1.72538 0
M  V30 4790 H 451.422 -5.51887 0.111488 0
M  V30 4791 H 451.899 -4.2684 -1.03461 0
M  V30 4792 H 452.505 -4.20512 0.636395 0
M  V30 4793 N 450.82 -0.546701 -1.47814 0
M  V30 4794 C 452.068 -0.0187037 -2.02091 0
M  V30 4795 C 452.389 1.33168 -1.42447 0
M  V30 4796 O 451.659 1.86619 -0.595839 0
M  V30 4797 H 450.239 -0.00392531 -0.74699 0
M  V30 4798 H 452.901 -0.714327 -1.81338 0
M  V30 4799 H 451.997 0.0772219 -3.12004 0
M  V30 4800 N 452.299 1.55045 -0.282633 0
M  V30 4801 C 453.247 2.24254 0.617478 0
M  V30 4802 C 454.241 1.24215 1.15183 0
M  V30 4803 O 455.447 1.42123 1.10459 0
M  V30 4804 H 451.822 0.719801 0.217693 0
M  V30 4805 H 453.793 2.98398 0.0110076 0
M  V30 4806 C 452.542 2.98281 1.78672 0
M  V30 4807 H 451.865 3.75053 1.38475 0
M  V30 4808 H 453.305 3.50017 2.393 0
M  V30 4809 C 451.764 2.04184 2.67975 0
M  V30 4810 O 452.294 1.59792 3.6855 0
M  V30 4811 N 450.5 1.70526 2.35307 0
M  V30 4812 H 450.047 2.06821 1.53567 0
M  V30 4813 H 450.005 1.07839 2.95327 0
M  V30 4814 N 453.777 0.010035 1.57597 0
M  V30 4815 C 455.193 -0.346164 1.55801 0
M  V30 4816 C 455.393 -1.74144 1.01371 0
M  V30 4817 O 454.449 -2.43938 0.651968 0
M  V30 4818 C 455.762 -0.212216 2.9995 0
M  V30 4819 C 457.31 -0.286409 3.11687 0
M  V30 4820 C 457.785 -0.18147 4.5764 0
M  V30 4821 N 459.276 -0.239056 4.62583 0
M  V30 4822 C 460.011 -0.181351 5.73113 0
M  V30 4823 N 459.507 -0.073661 6.92761 0
M  V30 4824 N 461.3 -0.233949 5.61613 0
M  V30 4825 H 453.451 0.922657 1.91313 0
M  V30 4826 H 455.714 0.354595 0.879185 0
M  V30 4827 H 455.42 0.748169 3.4365 0
M  V30 4828 H 455.294 -0.990224 3.6397 0
M  V30 4829 H 457.681 -1.23724 2.67911 0
M  V30 4830 H 457.762 0.521645 2.50425 0
M  V30 4831 H 457.406 0.765863 5.02093 0
M  V30 4832 H 457.336 -1.00814 5.1686 0
M  V30 4833 H 459.827 -0.32321 3.76515 0
M  V30 4834 H 460.14 -0.0358003 7.72792 0
M  V30 4835 H 458.485 -0.0391461 6.94989 0
M  V30 4836 H 461.676 -0.316347 4.6703 0
M  V30 4837 H 461.849 -0.185514 6.47734 0
M  V30 4838 N 455.255 -1.55392 -0.262866 0
M  V30 4839 C 456.203 -1.8977 -1.345 0
M  V30 4840 C 457.197 -0.775063 -1.50629 0
M  V30 4841 O 458.403 -0.959519 -1.52293 0
M  V30 4842 H 454.778 -0.602467 -0.450041 0
M  V30 4843 H 456.749 -2.80147 -1.02762 0
M  V30 4844 C 455.498 -2.19501 -2.69657 0
M  V30 4845 H 454.821 -3.05378 -2.5804 0
M  V30 4846 H 456.261 -2.47469 -3.44289 0
M  V30 4847 C 454.72 -1.00597 -3.21531 0
M  V30 4848 O 455.25 -0.245768 -4.00947 0
M  V30 4849 N 453.456 -0.800911 -2.79345 0
M  V30 4850 H 453.003 -1.42079 -2.14875 0
M  V30 4851 H 452.961 -0.00697996 -3.14399 0
M  V30 4852 N 456.733 0.527833 -1.48498 0
M  V30 4853 C 458.144 1.10975 -1.50138 0
M  V30 4854 C 458.495 1.943 -0.272378 0
M  V30 4855 O 457.62 2.07319 0.620301 0
M  V30 4856 C 458.215 2.01927 -2.72049 0
M  V30 4857 C 456.774 2.55332 -2.76554 0
M  V30 4858 C 455.921 1.32341 -2.43683 0
M  V30 4859 H 458.872 0.312986 -1.55583 0
M  V30 4860 H 458.893 2.86244 -2.50689 0
M  V30 4861 H 458.405 1.41254 -3.61481 0
M  V30 4862 H 456.506 3.19721 -1.91336 0
M  V30 4863 H 456.619 2.94319 -3.78038 0
M  V30 4864 H 454.983 1.63989 -1.94884 0
M  V30 4865 H 455.766 0.734165 -3.35358 0
M  V30 4866 N 458.211 1.37122 0.776871 0
M  V30 4867 C 459.459 1.31787 1.53221 0
M  V30 4868 C 459.78 -0.0987589 1.9475 0
M  V30 4869 O 459.05 -1.0417 1.65908 0
M  V30 4870 H 457.63 0.484839 0.568278 0
M  V30 4871 H 460.292 1.71556 0.924917 0
M  V30 4872 H 459.388 1.95355 2.43398 0
M  V30 4873 N 459.689 -1.00246 1.21608 0
M  V30 4874 C 460.914 -1.78167 1.06167 0
M  V30 4875 C 461.339 -1.84138 -0.384035 0
M  V30 4876 O 460.697 -1.28683 -1.27712 0
M  V30 4877 C 460.745 -3.19786 1.66642 0
M  V30 4878 O 459.849 -4.02153 0.913613 0
M  V30 4879 H 459.19 -0.549 0.37349 0
M  V30 4880 H 461.72 -1.25994 1.61204 0
M  V30 4881 H 461.73 -3.70451 1.70969 0
M  V30 4882 H 460.405 -3.14754 2.7185 0
M  V30 4883 H 458.982 -3.60711 0.945635 0
M  V30 4884 N 461.167 -1.02423 -1.1978 0
M  V30 4885 C 462.392 -0.7373 -1.93852 0
M  V30 4886 C 462.817 0.696923 -1.74713 0
M  V30 4887 O 462.175 1.48056 -1.04638 0
M  V30 4888 C 462.223 -1.08783 -3.438 0
M  V30 4889 O 461.327 -0.20383 -4.11896 0
M  V30 4890 H 460.668 -0.27284 -0.605355 0
M  V30 4891 H 463.198 -1.36966 -1.51992 0
M  V30 4892 H 463.208 -1.04276 -3.9445 0
M  V30 4893 H 461.883 -2.13274 -3.57053 0
M  V30 4894 H 460.46 -0.307091 -3.71633 0
M  V30 4895 N 462.645 1.35699 -0.801477 0
M  V30 4896 C 463.893 1.9852 -0.37871 0
M  V30 4897 C 464.214 1.63907 1.05638 0
M  V30 4898 O 463.484 0.919013 1.73006 0
M  V30 4899 H 462.064 0.734322 -0.137042 0
M  V30 4900 H 464.726 1.65697 -1.02619 0
M  V30 4901 H 463.822 3.08382 -0.480284 0
M  V30 4902 N 464.123 0.554532 1.47522 0
M  V30 4903 C 465.351 0.034257 2.06872 0
M  V30 4904 C 465.766 -1.25826 1.40759 0
M  V30 4905 O 465.123 -1.75425 0.503217 0
M  V30 4906 C 465.174 -0.167827 3.6111 0
M  V30 4907 O 464.895 1.07351 4.24744 0
M  V30 4908 C 466.396 -0.72569 4.3732 0
M  V30 4909 H 463.616 0.0446275 0.669514 0
M  V30 4910 H 466.16 0.767181 1.89564 0
M  V30 4911 H 464.315 -0.850872 3.7794 0
M  V30 4912 H 464.729 0.869563 5.17242 0
M  V30 4913 H 466.203 -0.816394 5.45929 0
M  V30 4914 H 466.68 -1.73635 4.0342 0
M  V30 4915 H 467.286 -0.0784292 4.25228 0
M  V30 4916 N 465.601 -1.54893 0.290851 0
M  V30 4917 C 466.849 -1.99538 -0.320756 0
M  V30 4918 C 467.17 -1.18075 -1.55188 0
M  V30 4919 O 466.44 -0.274162 -1.93972 0
M  V30 4920 H 465.02 -0.737052 -0.121507 0
M  V30 4921 H 467.682 -1.90755 0.399832 0
M  V30 4922 H 466.778 -3.06282 -0.599802 0
M  V30 4923 N 467.08 -0.0183926 -1.57589 0
M  V30 4924 C 468.328 0.661253 -1.90976 0
M  V30 4925 C 468.649 1.73281 -0.894353 0
M  V30 4926 O 467.919 1.9579 0.0656788 0
M  V30 4927 H 466.499 0.247233 -0.704901 0
M  V30 4928 H 469.161 -0.0636639 -1.94796 0
M  V30 4929 H 468.257 1.12083 -2.9128 0
M  V30 4930 N 468.558 1.5553 0.254621 0
M  V30 4931 C 469.786 1.81046 1.00149 0
M  V30 4932 C 470.201 0.593047 1.79244 0
M  V30 4933 O 469.558 -0.438196 1.77161 0
M  V30 4934 C 469.609 3.04684 1.94551 0
M  V30 4935 O 469.33 4.21725 1.18658 0
M  V30 4936 C 470.831 3.42943 2.80901 0
M  V30 4937 H 468.051 0.602653 0.295044 0
M  V30 4938 H 470.595 2.02576 0.279842 0
M  V30 4939 H 468.75 2.85226 2.62154 0
M  V30 4940 H 469.164 4.91746 1.82445 0
M  V30 4941 H 470.638 4.32576 3.42902 0
M  V30 4942 H 471.115 2.63176 3.51617 0
M  V30 4943 H 471.721 3.64724 2.18762 0
M  V30 4944 N 470.036 -0.519951 1.48776 0
M  V30 4945 C 470.999 -1.60574 1.6355 0
M  V30 4946 C 471.999 -1.52557 0.508234 0
M  V30 4947 O 473.189 -1.56047 0.774262 0
M  V30 4948 C 470.321 -3.00211 1.61512 0
M  V30 4949 H 471.514 -1.4881 2.60376 0
M  V30 4950 H 469.067 -0.742772 1.37523 0
M  V30 4951 H 469.802 -3.17471 0.662009 0
M  V30 4952 H 469.587 -3.07439 2.43359 0
M  V30 4953 H 471.077 -3.79134 1.75064 0
M  V30 4954 N 471.514 -1.37532 -0.769588 0
M  V30 4955 C 472.742 -1.36059 -1.55871 0
M  V30 4956 C 473.157 0.053544 -1.88724 0
M  V30 4957 O 472.514 1.01591 -1.5161 0
M  V30 4958 C 472.565 -2.20107 -2.86767 0
M  V30 4959 O 472.286 -3.56009 -2.55321 0
M  V30 4960 C 473.787 -2.26636 -3.80987 0
M  V30 4961 H 471.007 -0.465967 -0.482821 0
M  V30 4962 H 473.551 -1.80901 -0.953686 0
M  V30 4963 H 471.706 -1.78768 -3.43687 0
M  V30 4964 H 472.12 -4.0009 -3.39158 0
M  V30 4965 H 473.594 -2.89763 -4.69831 0
M  V30 4966 H 474.071 -1.2754 -4.20274 0
M  V30 4967 H 474.677 -2.68296 -3.29996 0
M  V30 4968 N 472.992 0.995999 -1.22138 0
M  V30 4969 C 474.238 1.7386 -1.05567 0
M  V30 4970 C 474.593 1.8808 0.405418 0
M  V30 4971 O 473.886 1.41062 1.29661 0
M  V30 4972 C 474.08 3.14553 -1.6968 0
M  V30 4973 C 473.909 3.14053 -3.21871 0
M  V30 4974 C 472.679 3.20121 -3.90961 0
M  V30 4975 C 474.877 2.98451 -4.18845 0
M  V30 4976 N 472.859 3.09342 -5.30265 0
M  V30 4977 C 474.23 2.95667 -5.4496 0
M  V30 4978 C 476.285 2.8282 -4.09777 0
M  V30 4979 C 474.988 2.78852 -6.63049 0
M  V30 4980 C 477.014 2.67364 -5.27513 0
M  V30 4981 C 476.376 2.65264 -6.52544 0
M  V30 4982 H 472.475 0.645989 -0.440706 0
M  V30 4983 H 475.059 1.1831 -1.54631 0
M  V30 4984 H 473.23 3.68353 -1.2317 0
M  V30 4985 H 474.962 3.77358 -1.4623 0
M  V30 4986 H 471.717 3.27679 -3.4194 0
M  V30 4987 H 472.141 3.0727 -6.03253 0
M  V30 4988 H 476.783 2.83243 -3.139 0
M  V30 4989 H 474.501 2.77175 -7.59078 0
M  V30 4990 H 478.087 2.56256 -5.22326 0
M  V30 4991 H 476.967 2.5345 -7.42114 0
M  V30 4992 N 474.47 1.03057 1.19235 0
M  V30 4993 C 475.417 0.612832 2.22515 0
M  V30 4994 C 476.387 -0.374224 1.61829 0
M  V30 4995 O 477.572 -0.270501 1.88873 0
M  V30 4996 C 474.712 -0.028475 3.45088 0
M  V30 4997 C 473.825 1.00483 4.20151 0
M  V30 4998 C 472.96 0.333102 5.30155 0
M  V30 4999 C 471.999 1.3522 5.96977 0
M  V30 5000 N 471.136 0.70616 6.9854 0
M  V30 5001 H 475.976 1.49812 2.57605 0
M  V30 5002 H 473.513 0.749658 1.26564 0
M  V30 5003 H 475.471 -0.417548 4.15105 0
M  V30 5004 H 474.101 -0.877334 3.10649 0
M  V30 5005 H 473.153 1.51194 3.49062 0
M  V30 5006 H 474.465 1.77929 4.65986 0
M  V30 5007 H 473.619 -0.110725 6.06599 0
M  V30 5008 H 472.358 -0.473547 4.85396 0
M  V30 5009 H 471.363 1.80627 5.19282 0
M  V30 5010 H 472.588 2.16037 6.4382 0
M  V30 5011 H 470.534 -0.0803667 6.55951 0
M  V30 5012 H 470.451 1.41848 7.42573 0
M  V30 5013 H 471.719 0.286391 7.78974 0
M  V30 5014 N 475.948 -1.35272 0.808662 0
M  V30 5015 C 477.359 -1.81179 0.450688 0
M  V30 5016 C 477.71 -1.67143 -1.02751 0
M  V30 5017 O 476.835 -1.20325 -1.79864 0
M  V30 5018 C 477.43 -3.28943 0.811275 0
M  V30 5019 C 475.989 -3.72985 0.505871 0
M  V30 5020 C 475.136 -2.57229 1.03578 0
M  V30 5021 H 478.087 -1.2322 1.00012 0
M  V30 5022 H 478.108 -3.80342 0.109588 0
M  V30 5023 H 477.62 -3.39127 1.88718 0
M  V30 5024 H 475.721 -3.68349 -0.561209 0
M  V30 5025 H 475.834 -4.67677 1.03995 0
M  V30 5026 H 474.198 -2.50548 0.458005 0
M  V30 5027 H 474.981 -2.7019 2.11784 0
M  V30 5028 N 477.426 -0.562348 -1.47226 0
M  V30 5029 C 478.674 -0.0401371 -2.0206 0
M  V30 5030 C 478.995 1.3165 -1.43852 0
M  V30 5031 O 478.265 1.85976 -0.615599 0
M  V30 5032 H 476.845 -0.0118479 -0.746906 0
M  V30 5033 H 479.507 -0.73352 -1.8057 0
M  V30 5034 H 478.603 0.0441254 -3.12069 0
M  V30 5035 N 478.904 1.54736 -0.299062 0
M  V30 5036 C 480.129 2.04975 0.316254 0
M  V30 5037 C 480.554 1.17501 1.46885 0
M  V30 5038 O 479.912 0.178678 1.80417 0
M  V30 5039 C 479.96 3.52672 0.751997 0
M  V30 5040 O 479.064 3.68226 1.85697 0
M  V30 5041 H 478.405 0.661126 0.0617175 0
M  V30 5042 H 480.935 1.99805 -0.440341 0
M  V30 5043 H 480.945 3.94488 1.04133 0
M  V30 5044 H 479.62 4.158 -0.0911482 0
M  V30 5045 H 478.197 3.38316 1.56834 0
M  V30 5046 N 480.382 0.0267497 1.57577 0
M  V30 5047 C 481.607 -0.666227 1.96408 0
M  V30 5048 C 482.032 -1.65004 0.903071 0
M  V30 5049 O 481.39 -1.80787 -0.136263 0
M  V30 5050 C 481.438 -1.35101 3.34335 0
M  V30 5051 O 480.542 -2.46623 3.30531 0
M  V30 5052 H 479.883 -0.175206 0.640468 0
M  V30 5053 H 482.413 0.0878977 2.04411 0
M  V30 5054 H 482.423 -1.70834 3.70513 0
M  V30 5055 H 481.098 -0.629844 4.11103 0
M  V30 5056 H 479.675 -2.13019 3.06068 0
M  V30 5057 N 481.861 -1.55662 -0.24637 0
M  V30 5058 C 483.109 -1.77168 -0.972411 0
M  V30 5059 C 483.43 -0.590827 -1.85834 0
M  V30 5060 O 482.7 0.393365 -1.9191 0
M  V30 5061 H 481.28 -0.653405 -0.362038 0
M  V30 5062 H 483.942 -1.93101 -0.264189 0
M  V30 5063 H 483.038 -2.68335 -1.59382 0
M  V30 5064 N 483.339 0.512053 -1.4905 0
M  V30 5065 C 484.75 1.09376 -1.51307 0
M  V30 5066 C 485.101 1.94 -0.292971 0
M  V30 5067 O 484.226 2.07965 0.598277 0
M  V30 5068 C 484.821 1.99031 -2.74176 0
M  V30 5069 C 483.38 2.52385 -2.79247 0
M  V30 5070 C 482.527 1.29749 -2.45073 0
M  V30 5071 H 485.478 0.296467 -1.55906 0
M  V30 5072 H 485.499 2.83569 -2.53711 0
M  V30 5073 H 485.011 1.37412 -3.62959 0
M  V30 5074 H 483.112 3.17673 -1.94716 0
M  V30 5075 H 483.225 2.90293 -3.81139 0
M  V30 5076 H 481.589 1.61912 -1.96612 0
M  V30 5077 H 482.372 0.698555 -3.36118 0
M  V30 5078 N 484.817 1.37938 0.762283 0
M  V30 5079 C 486.065 1.33404 1.51815 0
M  V30 5080 C 486.386 -0.0780975 1.94844 0
M  V30 5081 O 485.656 -1.02405 1.67003 0
M  V30 5082 H 484.236 0.490839 0.563104 0
M  V30 5083 H 486.898 1.72527 0.906669 0
M  V30 5084 H 485.994 1.97926 2.41313 0
M  V30 5085 N 486.295 -0.989507 1.22664 0
M  V30 5086 C 487.52 -1.77031 1.08051 0
M  V30 5087 C 487.945 -1.84535 -0.364483 0
M  V30 5088 O 487.303 -1.3003 -1.2634 0
M  V30 5089 C 487.351 -3.18 1.70024 0
M  V30 5090 O 486.455 -4.01161 0.956216 0
M  V30 5091 H 485.796 -0.545008 0.379292 0
M  V30 5092 H 488.326 -1.24277 1.62531 0
M  V30 5093 H 488.336 -3.68616 1.74888 0
M  V30 5094 H 487.011 -3.11853 2.75174 0
M  V30 5095 H 485.588 -3.59687 0.98384 0
M  V30 5096 N 487.773 -1.03688 -1.18687 0
M  V30 5097 C 489.001 -0.757918 -1.92518 0
M  V30 5098 C 489.416 0.684398 -1.75959 0
M  V30 5099 O 488.773 1.46617 -1.08673 0
M  V30 5100 C 488.824 -1.10985 -3.44042 0
M  V30 5101 O 488.545 -2.49554 -3.60076 0
M  V30 5102 C 490.046 -0.854844 -4.3498 0
M  V30 5103 H 487.266 -0.276699 -0.611293 0
M  V30 5104 H 489.81 -1.38352 -1.50595 0
M  V30 5105 H 487.965 -0.529279 -3.83767 0
M  V30 5106 H 488.379 -2.6291 -4.53849 0
M  V30 5107 H 489.853 -1.15098 -5.39867 0
M  V30 5108 H 490.33 0.210507 -4.38695 0
M  V30 5109 H 490.936 -1.41853 -4.00946 0
M  V30 5110 N 489.251 1.34841 -0.815825 0
M  V30 5111 C 490.499 1.98107 -0.399744 0
M  V30 5112 C 490.82 1.65019 1.03894 0
M  V30 5113 O 490.09 0.937311 1.72021 0
M  V30 5114 H 488.67 0.732827 -0.144823 0
M  V30 5115 H 491.332 1.64599 -1.0437 0
M  V30 5116 H 490.428 3.07856 -0.512965 0
M  V30 5117 N 490.729 0.570148 1.46925 0
M  V30 5118 C 491.954 0.0542592 2.07329 0
M  V30 5119 C 492.379 -1.23582 1.41806 0
M  V30 5120 O 491.737 -1.74341 0.497479 0
M  V30 5121 C 491.785 -0.111175 3.60429 0
M  V30 5122 O 490.889 -1.17071 3.95434 0
M  V30 5123 H 490.23 0.0571425 0.661537 0
M  V30 5124 H 492.76 0.789516 1.88753 0
M  V30 5125 H 492.77 -0.321315 4.06733 0
M  V30 5126 H 491.445 0.831012 4.07513 0
M  V30 5127 H 490.022 -0.940029 3.60857 0
M  V30 5128 N 492.207 -1.54576 0.307264 0
M  V30 5129 C 493.453 -2.01272 -0.293453 0
M  V30 5130 C 493.808 -1.19178 -1.51044 0
M  V30 5131 O 493.101 -0.261704 -1.89804 0
M  V30 5132 C 493.295 -3.50572 -0.695253 0
M  V30 5133 C 493.124 -4.47118 0.481249 0
M  V30 5134 C 491.894 -4.958 0.97524 0
M  V30 5135 C 494.092 -4.96853 1.32823 0
M  V30 5136 N 492.074 -5.76212 2.11785 0
M  V30 5137 C 493.445 -5.75028 2.31824 0
M  V30 5138 C 495.5 -4.79026 1.35788 0
M  V30 5139 C 494.203 -6.37276 3.33574 0
M  V30 5140 C 496.229 -5.42097 2.364 0
M  V30 5141 C 495.591 -6.2011 3.34129 0
M  V30 5142 H 491.69 -0.778709 -0.0716705 0
M  V30 5143 H 494.274 -1.89695 0.438602 0
M  V30 5144 H 492.445 -3.62427 -1.39647 0
M  V30 5145 H 494.177 -3.84056 -1.27604 0
M  V30 5146 H 490.932 -4.70405 0.549184 0
M  V30 5147 H 491.356 -6.21101 2.69375 0
M  V30 5148 H 495.998 -4.18288 0.616021 0
M  V30 5149 H 493.716 -6.97144 4.08676 0
M  V30 5150 H 497.302 -5.30229 2.39475 0
M  V30 5151 H 496.182 -6.68049 4.10707 0
M  V30 5152 N 493.685 -0.035106 -1.57561 0
M  V30 5153 C 494.633 0.962707 -2.11742 0
M  V30 5154 C 495.627 1.33296 -1.0454 0
M  V30 5155 O 496.833 1.31449 -1.22968 0
M  V30 5156 H 493.208 0.32826 -0.676572 0
M  V30 5157 H 495.179 0.48048 -2.94506 0
M  V30 5158 C 493.928 2.23388 -2.66445 0
M  V30 5159 H 493.251 1.95774 -3.48587 0
M  V30 5160 H 494.691 2.91402 -3.07995 0
M  V30 5161 C 493.15 2.96769 -1.59467 0
M  V30 5162 O 493.68 3.89105 -0.998 0
M  V30 5163 N 491.886 2.59212 -1.31369 0
M  V30 5164 H 491.433 1.84202 -1.80076 0
M  V30 5165 H 491.391 3.08618 -0.600173 0
M  V30 5166 N 495.163 1.55791 0.238111 0
M  V30 5167 C 496.388 1.8244 0.986432 0
M  V30 5168 C 496.813 0.613314 1.7782 0
M  V30 5169 O 496.171 -0.437767 1.75935 0
M  V30 5170 C 496.219 3.06917 1.893 0
M  V30 5171 O 495.323 2.84449 2.98601 0
M  V30 5172 H 494.664 0.601975 0.280218 0
M  V30 5173 H 497.194 2.02987 0.256437 0
M  V30 5174 H 497.204 3.36583 2.30598 0
M  V30 5175 H 495.879 3.947 1.31091 0
M  V30 5176 H 494.456 2.65972 2.61368 0
M  V30 5177 N 496.642 -0.504142 1.49319 0
M  V30 5178 C 497.89 -1.25598 1.58334 0
M  V30 5179 C 498.211 -1.93114 0.270538 0
M  V30 5180 O 497.481 -1.82585 -0.709891 0
M  V30 5181 H 496.061 -0.466571 0.58337 0
M  V30 5182 H 498.723 -0.584547 1.85928 0
M  V30 5183 H 497.819 -2.02159 2.37778 0
M  V30 5184 N 498.12 -1.38341 -0.754957 0
M  V30 5185 C 499.345 -1.37882 -1.5493 0
M  V30 5186 C 499.77 0.0296385 -1.88077 0
M  V30 5187 O 499.128 1.01133 -1.50472 0
M  V30 5188 C 499.176 -2.23996 -2.82592 0
M  V30 5189 O 498.28 -1.65612 -3.77686 0
M  V30 5190 H 497.621 -0.470384 -0.468652 0
M  V30 5191 H 500.151 -1.82084 -0.933082 0
M  V30 5192 H 500.161 -2.37806 -3.3153 0
M  V30 5193 H 498.836 -3.26365 -2.57796 0
M  V30 5194 H 497.413 -1.60936 -3.36384 0
M  V30 5195 N 499.598 0.982988 -1.23187 0
M  V30 5196 C 500.823 1.76455 -1.08988 0
M  V30 5197 C 501.248 1.84726 0.354691 0
M  V30 5198 O 500.606 1.30699 1.25649 0
M  V30 5199 C 500.654 3.17094 -1.71708 0
M  V30 5200 O 499.758 4.00648 -0.977477 0
M  V30 5201 H 499.099 0.542988 -0.382177 0
M  V30 5202 H 501.629 1.23413 -1.63188 0
M  V30 5203 H 501.639 3.67684 -1.76841 0
M  V30 5204 H 500.314 3.10389 -2.76823 0
M  V30 5205 H 498.891 3.59161 -1.0029 0
M  V30 5206 N 501.076 1.04316 1.18135 0
M  V30 5207 C 502.324 0.746542 1.87806 0
M  V30 5208 C 502.645 -0.728082 1.80898 0
M  V30 5209 O 501.915 -1.52554 1.22899 0
M  V30 5210 H 500.495 0.273157 0.695265 0
M  V30 5211 H 503.157 1.32044 1.43354 0
M  V30 5212 H 502.253 1.05362 2.93778 0
M  V30 5213 N 502.554 -1.34406 0.822964 0
M  V30 5214 C 503.782 -2.02508 0.424039 0
M  V30 5215 C 504.197 -1.61975 -0.970022 0
M  V30 5216 O 503.554 -0.825228 -1.62777 0
M  V30 5217 C 503.605 -3.57789 0.516657 0
M  V30 5218 O 503.326 -3.96853 1.85577 0
M  V30 5219 C 504.827 -4.43157 0.112637 0
M  V30 5220 H 502.047 -0.649063 0.170173 0
M  V30 5221 H 504.591 -1.7168 1.11113 0
M  V30 5222 H 502.746 -3.87207 -0.122353 0
M  V30 5223 H 503.16 -4.91538 1.83005 0
M  V30 5224 H 504.634 -5.51527 0.228526 0
M  V30 5225 H 505.111 -4.28939 -0.943837 0
M  V30 5226 H 505.717 -4.19067 0.725449 0
M  V30 5227 N 504.032 -0.577932 -1.46621 0
M  V30 5228 C 505.28 -0.061566 -2.02006 0
M  V30 5229 C 505.601 1.30117 -1.4524 0
M  V30 5230 O 504.871 1.85313 -0.63529 0
M  V30 5231 H 503.451 -0.0197692 -0.746738 0
M  V30 5232 H 506.113 -0.752631 -1.79782 0
M  V30 5233 H 505.209 0.0110238 -3.12098 0
M  V30 5234 N 505.51 1.54411 -0.315457 0
M  V30 5235 C 506.735 2.05299 0.294496 0
M  V30 5236 C 507.16 1.19052 1.4563 0
M  V30 5237 O 506.518 0.197804 1.80218 0
M  V30 5238 C 506.566 3.5345 0.714549 0
M  V30 5239 O 505.67 3.70175 1.81781 0
M  V30 5240 H 505.011 0.661743 0.0547019 0
M  V30 5241 H 507.541 1.99327 -0.461508 0
M  V30 5242 H 507.551 3.9557 0.999426 0
M  V30 5243 H 506.226 4.1568 -0.135244 0
M  V30 5244 H 504.803 3.3996 1.53236 0
M  V30 5245 N 506.988 0.0434614 1.5754 0
M  V30 5246 C 508.216 -0.641835 1.96693 0
M  V30 5247 C 508.631 -1.64832 0.920652 0
M  V30 5248 O 507.988 -1.82247 -0.095993 0
M  V30 5249 C 508.039 -1.33557 3.35924 0
M  V30 5250 O 507.76 -0.369403 4.3654 0
M  V30 5251 C 509.261 -2.11135 3.89791 0
M  V30 5252 H 506.481 -0.176013 0.647503 0
M  V30 5253 H 509.025 0.107478 2.04217 0
M  V30 5254 H 507.18 -2.03617 3.29574 0
M  V30 5255 H 507.594 -0.863674 5.1734 0
M  V30 5256 H 509.068 -2.55107 4.89514 0
M  V30 5257 H 509.545 -2.95634 3.24803 0
M  V30 5258 H 510.151 -1.46002 3.99454 0
M  V30 5259 N 508.466 -1.55915 -0.229846 0
M  V30 5260 C 509.714 -1.7819 -0.953565 0
M  V30 5261 C 510.035 -0.610504 -1.85197 0
M  V30 5262 O 509.305 0.372988 -1.92316 0
M  V30 5263 H 507.885 -0.657208 -0.355087 0
M  V30 5264 H 510.547 -1.9337 -0.243693 0
M  V30 5265 H 509.643 -2.70011 -1.56527 0
M  V30 5266 N 509.944 0.496216 -1.49584 0
M  V30 5267 C 510.892 1.61805 -1.67098 0
M  V30 5268 C 511.886 1.60667 -0.536877 0
M  V30 5269 O 513.092 1.65118 -0.716654 0
M  V30 5270 H 509.467 0.53646 -0.526986 0
M  V30 5271 H 511.438 1.44187 -2.61252 0
M  V30 5272 C 510.187 2.99912 -1.75921 0
M  V30 5273 H 509.51 3.01496 -2.62565 0
M  V30 5274 H 510.95 3.77931 -1.92209 0
M  V30 5275 C 509.409 3.33092 -0.505088 0
M  V30 5276 O 509.939 4.00019 0.367085 0
M  V30 5277 N 508.145 2.88278 -0.366599 0
M  V30 5278 H 507.692 2.33989 -1.07735 0
M  V30 5279 H 507.65 3.10846 0.47142 0
M  V30 5280 N 511.423 1.38739 0.74761 0
M  V30 5281 C 512.355 1.32341 1.87132 0
M  V30 5282 C 513.368 0.234502 1.61102 0
M  V30 5283 O 514.557 0.492516 1.71571 0
M  V30 5284 C 511.657 1.02915 3.22896 0
M  V30 5285 C 510.83 2.22834 3.76383 0
M  V30 5286 C 509.889 1.90059 4.90677 0
M  V30 5287 O 508.915 2.62615 5.04997 0
M  V30 5288 N 510.117 0.859141 5.74107 0
M  V30 5289 H 512.882 2.29175 1.93129 0
M  V30 5290 H 510.443 1.32678 0.927805 0
M  V30 5291 H 512.435 0.79031 3.96908 0
M  V30 5292 H 511.005 0.148572 3.12247 0
M  V30 5293 H 510.225 2.62747 2.93867 0
M  V30 5294 H 511.513 3.02851 4.08851 0
M  V30 5295 H 510.911 0.257564 5.65113 0
M  V30 5296 H 509.468 0.680189 6.48241 0
M  V30 5297 N 512.901 -0.976442 1.23707 0
M  V30 5298 C 513.849 -2.09078 1.01927 0
M  V30 5299 C 514.843 -1.69345 -0.0430193 0
M  V30 5300 O 516.049 -1.79659 0.110814 0
M  V30 5301 H 512.424 -0.68398 0.312531 0
M  V30 5302 H 514.395 -2.24614 1.96447 0
M  V30 5303 C 513.144 -3.41919 0.631385 0
M  V30 5304 H 512.467 -3.72946 1.44053 0
M  V30 5305 H 513.907 -4.20817 0.518532 0
M  V30 5306 C 512.366 -3.30357 -0.660723 0
M  V30 5307 O 512.896 -3.63542 -1.70881 0
M  V30 5308 N 511.102 -2.83507 -0.638139 0
M  V30 5309 H 510.649 -2.567 0.215108 0
M  V30 5310 H 510.607 -2.76153 -1.50289 0
M  V30 5311 N 514.379 -1.04941 -1.1758 0
M  V30 5312 C 515.79 -0.784501 -1.69418 0
M  V30 5313 C 516.141 0.693625 -1.8353 0
M  V30 5314 O 515.266 1.53925 -1.52106 0
M  V30 5315 C 515.861 -1.41746 -3.07723 0
M  V30 5316 C 514.42 -1.20066 -3.56737 0
M  V30 5317 C 513.567 -1.5026 -2.33061 0
M  V30 5318 H 516.518 -1.21469 -1.02133 0
M  V30 5319 H 516.539 -0.825381 -3.7144 0
M  V30 5320 H 516.051 -2.49325 -2.9742 0
M  V30 5321 H 514.152 -0.144006 -3.72322 0
M  V30 5322 H 514.265 -1.90384 -4.39648 0
M  V30 5323 H 512.629 -0.922598 -2.37403 0
M  V30 5324 H 513.412 -2.58967 -2.25368 0
M  V30 5325 N 515.857 1.33968 -0.830081 0
M  V30 5326 C 517.105 1.97672 -0.420734 0
M  V30 5327 C 517.426 1.66111 1.02138 0
M  V30 5328 O 516.696 0.955503 1.71017 0
M  V30 5329 H 515.276 0.73125 -0.152587 0
M  V30 5330 H 517.938 1.63483 -1.0611 0
M  V30 5331 H 517.034 3.07294 -0.545588 0
M  V30 5332 N 517.335 0.585699 1.46312 0
M  V30 5333 C 518.56 0.0762461 2.0726 0
M  V30 5334 C 518.985 -1.22071 1.43109 0
M  V30 5335 O 518.343 -1.73804 0.515942 0
M  V30 5336 C 518.391 -0.0729404 3.60526 0
M  V30 5337 O 517.495 -1.1287 3.96654 0
M  V30 5338 H 516.836 0.0641558 0.660893 0
M  V30 5339 H 519.366 0.809492 1.87905 0
M  V30 5340 H 519.376 -0.278158 4.07051 0
M  V30 5341 H 518.051 0.874188 4.06609 0
M  V30 5342 H 516.628 -0.901703 3.61834 0
M  V30 5343 N 518.813 -1.54241 0.323641 0
M  V30 5344 C 520.224 -1.85975 -0.164405 0
M  V30 5345 C 520.575 -1.24529 -1.51615 0
M  V30 5346 O 519.7 -0.551351 -2.09258 0
M  V30 5347 C 520.295 -3.37424 -0.305091 0
M  V30 5348 C 518.854 -3.69107 -0.737358 0
M  V30 5349 C 518.001 -2.76942 0.140884 0
M  V30 5350 H 520.952 -1.49088 0.543922 0
M  V30 5351 H 520.973 -3.63147 -1.13598 0
M  V30 5352 H 520.485 -3.82116 0.678876 0
M  V30 5353 H 518.586 -3.29947 -1.73107 0
M  V30 5354 H 518.699 -4.76035 -0.541053 0
M  V30 5355 H 517.063 -2.51795 -0.383572 0
M  V30 5356 H 517.846 -3.24461 1.12162 0
M  V30 5357 N 520.291 -0.0518155 -1.57515 0
M  V30 5358 C 521.707 0.304735 -1.56664 0
M  V30 5359 C 521.907 1.71395 -1.05953 0
M  V30 5360 O 520.963 2.42123 -0.716414 0
M  V30 5361 C 522.276 0.132614 -3.00407 0
M  V30 5362 C 523.824 0.20367 -3.12337 0
M  V30 5363 C 524.299 0.0600706 -4.57961 0
M  V30 5364 N 525.79 0.116326 -4.63054 0
M  V30 5365 C 526.525 0.0293363 -5.73392 0
M  V30 5366 N 526.021 -0.110038 -6.92713 0
M  V30 5367 N 527.814 0.0849651 -5.62036 0
M  V30 5368 H 519.965 -0.973056 -1.888 0
M  V30 5369 H 522.228 -0.377781 -0.869474 0
M  V30 5370 H 521.934 -0.839019 -3.41546 0
M  V30 5371 H 521.808 0.893376 -3.66468 0
M  V30 5372 H 524.195 1.16578 -2.71097 0
M  V30 5373 H 524.276 -0.587857 -2.48954 0
M  V30 5374 H 523.92 -0.898715 -4.99886 0
M  V30 5375 H 523.85 0.87075 -5.19351 0
M  V30 5376 H 526.341 0.22327 -3.7724 0
M  V30 5377 H 526.654 -0.169104 -7.72615 0
M  V30 5378 H 524.999 -0.145132 -6.94848 0
M  V30 5379 H 528.19 0.192411 -4.67704 0
M  V30 5380 H 528.363 0.0137131 -6.47999 0
M  V30 5381 N 521.769 1.56035 0.221574 0
M  V30 5382 C 523.18 1.69229 0.788567 0
M  V30 5383 C 523.531 0.653814 1.84986 0
M  V30 5384 O 522.656 -0.195065 2.15519 0
M  V30 5385 C 523.251 3.06809 1.43713 0
M  V30 5386 C 521.81 3.21858 1.95152 0
M  V30 5387 C 520.957 2.65155 0.811685 0
M  V30 5388 H 523.908 1.587 -0.00307894 0
M  V30 5389 H 523.929 3.02666 2.30594 0
M  V30 5390 H 523.441 3.82369 0.664475 0
M  V30 5391 H 521.542 2.51167 2.7522 0
M  V30 5392 H 521.655 4.29073 2.1315 0
M  V30 5393 H 520.019 2.23635 1.21899 0
M  V30 5394 H 520.802 3.43261 0.0516987 0
M  V30 5395 N 523.247 -0.488276 1.49845 0
M  V30 5396 C 524.495 -1.23911 1.59657 0
M  V30 5397 C 524.816 -1.92816 0.291005 0
M  V30 5398 O 524.086 -1.83328 -0.690485 0
M  V30 5399 H 522.666 -0.460357 0.588286 0
M  V30 5400 H 525.328 -0.564794 1.86537 0
M  V30 5401 H 524.424 -1.99625 2.39909 0
M  V30 5402 N 524.725 -1.39134 -0.740242 0
M  V30 5403 C 525.95 -1.39518 -1.53459 0
M  V30 5404 C 526.375 0.00968883 -1.88098 0
M  V30 5405 O 525.733 0.995312 -1.51536 0
M  V30 5406 C 525.781 -2.26981 -2.802 0
M  V30 5407 O 524.885 -1.69609 -3.75908 0
M  V30 5408 H 524.226 -0.475328 -0.463637 0
M  V30 5409 H 526.756 -1.83064 -0.913717 0
M  V30 5410 H 526.766 -2.41309 -3.28989 0
M  V30 5411 H 525.441 -3.29081 -2.5432 0
M  V30 5412 H 524.018 -1.64495 -3.34658 0
M  V30 5413 N 526.204 0.969867 -1.24223 0
M  V30 5414 C 527.432 1.74756 -1.10761 0
M  V30 5415 C 527.847 1.85713 0.340041 0
M  V30 5416 O 527.204 1.34389 1.23474 0
M  V30 5417 C 527.255 3.16915 -1.73917 0
M  V30 5418 O 526.976 3.06511 -3.13021 0
M  V30 5419 C 528.477 4.11032 -1.66036 0
M  V30 5420 H 525.697 0.548092 -0.387087 0
M  V30 5421 H 528.241 1.2178 -1.64286 0
M  V30 5422 H 526.396 3.66884 -1.244 0
M  V30 5423 H 526.81 3.96079 -3.43834 0
M  V30 5424 H 528.284 5.08446 -2.14911 0
M  V30 5425 H 528.761 4.34785 -0.621159 0
M  V30 5426 H 529.367 3.66972 -2.14969 0
M  V30 5427 N 527.682 1.05563 1.17022 0
M  V30 5428 C 528.93 0.76642 1.87004 0
M  V30 5429 C 529.251 -0.708854 1.8166 0
M  V30 5430 O 528.521 -1.51242 1.2451 0
M  V30 5431 H 527.101 0.280516 0.692329 0
M  V30 5432 H 529.763 1.33557 1.41945 0
M  V30 5433 H 528.859 1.08472 2.92644 0
M  V30 5434 N 529.16 -1.33526 0.837174 0
M  V30 5435 C 530.388 -2.02047 0.445494 0
M  V30 5436 C 530.803 -1.62995 -0.952788 0
M  V30 5437 O 530.16 -0.842447 -1.61892 0
M  V30 5438 C 530.211 -3.57221 0.554577 0
M  V30 5439 O 529.932 -3.94863 1.89776 0
M  V30 5440 C 531.433 -4.43012 0.159634 0
M  V30 5441 H 528.653 -0.647221 0.177048 0
M  V30 5442 H 531.197 -1.70492 1.12928 0
M  V30 5443 H 529.352 -3.87315 -0.0812781 0
M  V30 5444 H 529.766 -4.89569 1.88208 0
M  V30 5445 H 531.24 -5.51253 0.28701 0
M  V30 5446 H 531.717 -4.29916 -0.898289 0
M  V30 5447 H 532.323 -4.18274 0.769855 0
M  V30 5448 N 530.638 -0.59345 -1.46 0
M  V30 5449 C 531.884 -0.0916503 -2.03193 0
M  V30 5450 C 532.239 1.25839 -1.45541 0
M  V30 5451 O 531.532 1.81455 -0.615191 0
M  V30 5452 C 531.726 0.021178 -3.57394 0
M  V30 5453 C 531.555 -1.31638 -4.30002 0
M  V30 5454 C 530.325 -1.89336 -4.68487 0
M  V30 5455 C 532.523 -2.242 -4.62859 0
M  V30 5456 N 530.505 -3.1672 -5.25891 0
M  V30 5457 C 531.876 -3.36175 -5.20948 0
M  V30 5458 C 533.931 -2.23748 -4.44794 0
M  V30 5459 C 532.634 -4.47844 -5.62875 0
M  V30 5460 C 534.66 -3.34454 -4.87744 0
M  V30 5461 C 534.022 -4.4515 -5.45913 0
M  V30 5462 H 530.121 -0.0765713 -0.778242 0
M  V30 5463 H 532.705 -0.788705 -1.7801 0
M  V30 5464 H 530.876 0.687423 -3.82268 0
M  V30 5465 H 532.608 0.528343 -4.01236 0
M  V30 5466 H 529.363 -1.42704 -4.51589 0
M  V30 5467 H 529.787 -3.81746 -5.59106 0
M  V30 5468 H 534.429 -1.39433 -3.99147 0
M  V30 5469 H 532.147 -5.32894 -6.07495 0
M  V30 5470 H 535.733 -3.35234 -4.75509 0
M  V30 5471 H 534.613 -5.29398 -5.78539 0
M  V30 5472 N 532.116 1.54067 -0.331816 0
M  V30 5473 C 533.064 2.26105 0.54582 0
M  V30 5474 C 534.058 1.27816 1.11173 0
M  V30 5475 O 535.264 1.45565 1.05882 0
M  V30 5476 H 531.639 0.726363 0.194683 0
M  V30 5477 H 533.61 2.98282 -0.083931 0
M  V30 5478 C 532.359 3.03814 1.69092 0
M  V30 5479 H 531.682 3.79269 1.26473 0
M  V30 5480 H 533.122 3.57453 2.28043 0
M  V30 5481 C 531.581 2.12606 2.61343 0
M  V30 5482 O 532.111 1.71437 3.6328 0
M  V30 5483 N 530.317 1.77925 2.29763 0
M  V30 5484 H 529.864 2.11602 1.46909 0
M  V30 5485 H 529.822 1.1718 2.91747 0
M  V30 5486 N 533.594 0.0601682 1.57485 0
M  V30 5487 C 535.005 -0.474217 1.80577 0
M  V30 5488 C 535.356 -1.70365 0.973147 0
M  V30 5489 O 534.481 -2.15544 0.192306 0
M  V30 5490 C 535.076 -0.867102 3.27516 0
M  V30 5491 C 533.635 -1.34642 3.51495 0
M  V30 5492 C 532.782 -0.32594 2.75378 0
M  V30 5493 H 535.733 0.285973 1.56102 0
M  V30 5494 H 535.754 -1.72938 3.38929 0
M  V30 5495 H 535.266 0.0278927 3.8809 0
M  V30 5496 H 533.367 -2.2603 2.96212 0
M  V30 5497 H 533.48 -1.33237 4.60201 0
M  V30 5498 H 531.844 -0.800749 2.41785 0
M  V30 5499 H 532.627 0.561125 3.38683 0
M  V30 5500 N 535.072 -1.5615 -0.213296 0
M  V30 5501 C 536.32 -1.79191 -0.934612 0
M  V30 5502 C 536.641 -0.630112 -1.84539 0
M  V30 5503 O 535.911 0.35257 -1.92701 0
M  V30 5504 H 534.491 -0.660937 -0.348097 0
M  V30 5505 H 537.153 -1.93618 -0.22317 0
M  V30 5506 H 536.249 -2.71656 -1.53654 0
M  V30 5507 N 536.55 0.480323 -1.50102 0
M  V30 5508 C 537.775 1.26126 -1.64642 0
M  V30 5509 C 538.2 1.85257 -0.325823 0
M  V30 5510 O 537.558 1.66854 0.709194 0
M  V30 5511 C 537.606 2.35243 -2.73301 0
M  V30 5512 O 536.71 3.39646 -2.33911 0
M  V30 5513 H 536.051 0.371463 -0.550374 0
M  V30 5514 H 538.581 0.572696 -1.96421 0
M  V30 5515 H 538.591 2.80695 -2.96098 0
M  V30 5516 H 537.266 1.91574 -3.6915 0
M  V30 5517 H 535.843 2.99969 -2.21525 0
M  V30 5518 N 538.028 1.39524 0.732853 0
M  V30 5519 C 539.253 1.40329 1.52717 0
M  V30 5520 C 539.678 0.000286574 1.881 0
M  V30 5521 O 539.036 -0.987262 1.52062 0
M  V30 5522 C 539.084 2.28464 2.78992 0
M  V30 5523 O 538.188 1.716 3.75003 0
M  V30 5524 H 537.529 0.47778 0.461109 0
M  V30 5525 H 540.059 1.83546 0.903996 0
M  V30 5526 H 540.069 2.43051 3.27705 0
M  V30 5527 H 538.744 3.30425 2.52572 0
M  V30 5528 H 537.321 1.66267 3.33781 0
M  V30 5529 N 539.506 -0.963266 1.24736 0
M  V30 5530 C 540.416 -2.09246 1.06082 0
M  V30 5531 C 541.432 -1.74 0.000363101 0
M  V30 5532 O 542.608 -2.0041 0.199479 0
M  V30 5533 C 539.673 -3.40115 0.672498 0
M  V30 5534 C 538.734 -3.89282 1.80993 0
M  V30 5535 C 537.967 -5.13905 1.44004 0
M  V30 5536 O 538.19 -5.69434 0.331835 0
M  V30 5537 O 537.124 -5.57566 2.26723 0
M  V30 5538 H 540.95 -2.27881 2.00759 0
M  V30 5539 H 538.535 -1.07649 1.03595 0
M  V30 5540 H 540.417 -4.18797 0.467668 0
M  V30 5541 H 539.092 -3.22771 -0.245102 0
M  V30 5542 H 537.999 -3.11642 2.06955 0
M  V30 5543 H 539.332 -4.1111 2.70646 0
M  V30 5544 N 540.985 -1.06182 -1.16461 0
M  V30 5545 C 542.401 -0.785065 -1.38956 0
M  V30 5546 C 542.601 0.616103 -1.9185 0
M  V30 5547 O 541.657 1.37686 -2.11657 0
M  V30 5548 C 542.97 -1.84902 -2.37132 0
M  V30 5549 C 544.518 -1.8724 -2.50819 0
M  V30 5550 C 544.993 -2.92686 -3.52277 0
M  V30 5551 N 546.484 -2.91712 -3.59803 0
M  V30 5552 C 547.219 -3.69949 -4.38093 0
M  V30 5553 N 546.715 -4.58 -5.19815 0
M  V30 5554 N 548.508 -3.58346 -4.33064 0
M  V30 5555 H 540.659 -1.96569 -0.804634 0
M  V30 5556 H 542.922 -0.851747 -0.416211 0
M  V30 5557 H 542.628 -2.85518 -2.0536 0
M  V30 5558 H 542.502 -1.69908 -3.36766 0
M  V30 5559 H 544.889 -0.872827 -2.81897 0
M  V30 5560 H 544.97 -2.06311 -1.51226 0
M  V30 5561 H 544.614 -3.92835 -3.21937 0
M  V30 5562 H 544.544 -2.70864 -4.51598 0
M  V30 5563 H 547.035 -2.27876 -3.01464 0
M  V30 5564 H 547.348 -5.14357 -5.76764 0
M  V30 5565 H 545.693 -4.62056 -5.19162 0
M  V30 5566 H 548.884 -2.88943 -3.68279 0
M  V30 5567 H 549.057 -4.19563 -4.93833 0
M  V30 5568 N 542.463 1.3308 -0.844243 0
M  V30 5569 C 543.711 1.97215 -0.441676 0
M  V30 5570 C 544.032 1.67185 1.0037 0
M  V30 5571 O 543.302 0.973588 1.69994 0
M  V30 5572 H 541.882 0.72959 -0.160335 0
M  V30 5573 H 544.544 1.62348 -1.07838 0
M  V30 5574 H 543.64 3.06698 -0.57815 0
M  V30 5575 N 543.941 0.601185 1.45683 0
M  V30 5576 C 545.166 0.0982245 2.07167 0
M  V30 5577 C 545.591 -1.20546 1.44396 0
M  V30 5578 O 544.949 -1.73247 0.534347 0
M  V30 5579 C 544.997 -0.0346976 3.60583 0
M  V30 5580 O 544.101 -1.08657 3.97828 0
M  V30 5581 H 543.442 0.0711618 0.660176 0
M  V30 5582 H 545.972 0.829376 1.87036 0
M  V30 5583 H 545.982 -0.234969 4.07323 0
M  V30 5584 H 544.657 0.917265 4.05659 0
M  V30 5585 H 543.234 -0.863275 3.6277 0
M  V30 5586 N 545.419 -1.53889 0.339982 0
M  V30 5587 C 546.382 -2.23547 -0.50592 0
M  V30 5588 C 547.382 -1.23445 -1.03044 0
M  V30 5589 O 548.572 -1.47909 -0.920253 0
M  V30 5590 C 545.704 -2.95234 -1.7044 0
M  V30 5591 H 546.897 -2.99722 0.103247 0
M  V30 5592 H 544.45 -1.56033 0.0912804 0
M  V30 5593 H 545.185 -2.23236 -2.35236 0
M  V30 5594 H 544.97 -3.68654 -1.33553 0
M  V30 5595 H 546.46 -3.48258 -2.30447 0
M  V30 5596 N 546.897 -0.0685191 -1.57451 0
M  V30 5597 C 548.145 0.60016 -1.92983 0
M  V30 5598 C 548.466 1.70348 -0.949028 0
M  V30 5599 O 547.736 1.959 0.00335647 0
M  V30 5600 H 546.316 0.224682 -0.712409 0
M  V30 5601 H 548.978 -0.125605 -1.94495 0
M  V30 5602 H 548.074 1.02759 -2.94698 0
M  V30 5603 N 548.375 1.56261 0.205012 0
M  V30 5604 C 549.325 1.90155 1.25798 0
M  V30 5605 C 550.309 0.766227 1.41484 0
M  V30 5606 O 551.501 1.02893 1.44021 0
M  V30 5607 C 548.63 2.23603 2.60493 0
M  V30 5608 C 547.716 3.43568 2.48639 0
M  V30 5609 N 548.107 4.61747 2.06455 0
M  V30 5610 C 546.405 3.4751 2.79558 0
M  V30 5611 C 547.106 5.43907 2.06253 0
M  V30 5612 N 546.082 4.84051 2.47377 0
M  V30 5613 H 549.884 2.79031 0.922986 0
M  V30 5614 H 547.398 1.57048 0.413501 0
M  V30 5615 H 549.395 2.46067 3.36537 0
M  V30 5616 H 548.055 1.36049 2.94823 0
M  V30 5617 H 549.066 4.86598 1.77321 0
M  V30 5618 H 545.743 2.70345 3.18151 0
M  V30 5619 H 547.133 6.48542 1.75622 0
M  V30 5620 N 549.853 -0.472356 1.50355 0
M  V30 5621 C 551.099 -1.22348 1.62488 0
M  V30 5622 C 551.454 -1.89711 0.320574 0
M  V30 5623 O 550.747 -1.79074 -0.68141 0
M  V30 5624 C 550.941 -2.29257 2.74182 0
M  V30 5625 C 550.77 -1.72383 4.15348 0
M  V30 5626 C 549.54 -1.52411 4.81766 0
M  V30 5627 C 551.738 -1.21949 4.99633 0
M  V30 5628 N 549.72 -0.907669 6.07153 0
M  V30 5629 C 551.091 -0.726191 6.15732 0
M  V30 5630 C 553.146 -1.10792 4.85417 0
M  V30 5631 C 551.849 -0.132322 7.19178 0
M  V30 5632 C 553.875 -0.52799 5.89038 0
M  V30 5633 C 553.237 -0.0450604 7.04386 0
M  V30 5634 H 549.336 -0.436631 0.648751 0
M  V30 5635 H 551.92 -0.525698 1.87469 0
M  V30 5636 H 550.091 -2.96464 2.50926 0
M  V30 5637 H 551.823 -2.9628 2.75681 0
M  V30 5638 H 548.578 -1.776 4.39039 0
M  V30 5639 H 549.002 -0.617897 6.74174 0
M  V30 5640 H 553.644 -1.46722 3.96525 0
M  V30 5641 H 551.362 0.239187 8.07746 0
M  V30 5642 H 554.948 -0.444046 5.80103 0
M  V30 5643 H 553.828 0.396659 7.83196 0
M  V30 5644 N 551.331 -1.39911 -0.725443 0
M  V30 5645 C 552.559 -1.40949 -1.51463 0
M  V30 5646 C 552.974 -0.0065242 -1.88799 0
M  V30 5647 O 552.331 0.967163 -1.54765 0
M  V30 5648 C 552.382 -2.29119 -2.79619 0
M  V30 5649 O 552.103 -3.63952 -2.43866 0
M  V30 5650 C 553.604 -2.38642 -3.73584 0
M  V30 5651 H 550.824 -0.481091 -0.467752 0
M  V30 5652 H 553.368 -1.83843 -0.895651 0
M  V30 5653 H 551.523 -1.89612 -3.37826 0
M  V30 5654 H 551.937 -4.10677 -3.26258 0
M  V30 5655 H 553.411 -3.04563 -4.60375 0
M  V30 5656 H 553.888 -1.40846 -4.16004 0
M  V30 5657 H 554.494 -2.78659 -3.21293 0
M  V30 5658 N 552.809 0.956637 -1.25245 0
M  V30 5659 C 554.034 1.74104 -1.12706 0
M  V30 5660 C 554.459 1.85436 0.315429 0
M  V30 5661 O 553.817 1.33334 1.22848 0
M  V30 5662 C 553.865 3.1338 -1.78396 0
M  V30 5663 O 552.969 3.98485 -1.06224 0
M  V30 5664 H 552.31 0.53476 -0.393609 0
M  V30 5665 H 554.84 1.19924 -1.65769 0
M  V30 5666 H 554.85 3.6385 -1.846 0
M  V30 5667 H 553.525 3.04448 -2.83345 0
M  V30 5668 H 552.102 3.56952 -1.07886 0
M  V30 5669 N 554.287 1.06798 1.15896 0
M  V30 5670 C 555.197 0.694564 2.24083 0
M  V30 5671 C 556.213 -0.291687 1.71538 0
M  V30 5672 O 557.389 -0.139723 2.00915 0
M  V30 5673 C 554.454 0.0921014 3.46578 0
M  V30 5674 C 553.515 1.13087 4.14137 0
M  V30 5675 C 552.748 0.557064 5.30785 0
M  V30 5676 O 552.971 -0.628623 5.66925 0
M  V30 5677 O 551.905 1.29924 5.8771 0
M  V30 5678 H 555.731 1.59663 2.58344 0
M  V30 5679 H 553.316 0.840575 1.2351 0
M  V30 5680 H 555.198 -0.241884 4.20705 0
M  V30 5681 H 553.873 -0.78337 3.14078 0
M  V30 5682 H 552.78 1.51712 3.41957 0
M  V30 5683 H 554.113 1.97805 4.50704 0
M  V30 5684 N 555.766 -1.3263 0.851289 0
M  V30 5685 C 556.991 -2.02097 0.466006 0
M  V30 5686 C 557.416 -1.63574 -0.928709 0
M  V30 5687 O 556.774 -0.834665 -1.60944 0
M  V30 5688 C 556.822 -3.55425 0.608737 0
M  V30 5689 O 555.926 -4.10827 -0.359878 0
M  V30 5690 H 555.267 -0.636911 0.187724 0
M  V30 5691 H 557.797 -1.69253 1.14955 0
M  V30 5692 H 557.807 -4.04986 0.495006 0
M  V30 5693 H 556.482 -3.82806 1.62581 0
M  V30 5694 H 555.059 -3.72349 -0.202666 0
M  V30 5695 N 557.244 -0.608902 -1.45362 0
M  V30 5696 C 558.469 -0.10921 -2.07112 0
M  V30 5697 C 558.894 1.19779 -1.45033 0
M  V30 5698 O 558.252 1.72961 -0.543527 0
M  V30 5699 C 558.3 0.0155745 -3.60597 0
M  V30 5700 O 557.404 1.06546 -3.98399 0
M  V30 5701 H 556.745 -0.0746619 -0.659789 0
M  V30 5702 H 559.275 -0.839283 -1.86594 0
M  V30 5703 H 559.285 0.213364 -4.07442 0
M  V30 5704 H 557.96 -0.938765 -4.05167 0
M  V30 5705 H 556.537 0.844024 -3.63223 0
M  V30 5706 N 558.722 1.53707 -0.348139 0
M  V30 5707 C 559.968 2.01286 0.247332 0
M  V30 5708 C 560.301 1.23546 1.49834 0
M  V30 5709 O 559.576 0.324331 1.91777 0
M  V30 5710 C 559.859 3.55768 0.556858 0
M  V30 5711 C 559.712 4.44216 -0.706564 0
M  V30 5712 C 561.031 4.1841 1.3646 0
M  V30 5713 H 558.15 0.731677 0.0884201 0
M  V30 5714 H 560.792 1.84106 -0.469584 0
M  V30 5715 H 558.942 3.70539 1.16761 0
M  V30 5716 H 560.614 4.41274 -1.34444 0
M  V30 5717 H 558.857 4.12892 -1.33052 0
M  V30 5718 H 559.528 5.50202 -0.445186 0
M  V30 5719 H 562.004 4.07365 0.848113 0
M  V30 5720 H 560.88 5.26563 1.54992 0
M  V30 5721 H 561.141 3.7333 2.36805 0
M  V30 5722 N 560.2 0.0768682 1.57412 0
M  V30 5723 C 561.425 -0.603404 1.98428 0
M  V30 5724 C 561.85 -1.62047 0.955108 0
M  V30 5725 O 561.208 -1.81129 -0.0786778 0
M  V30 5726 C 561.256 -1.24396 3.38464 0
M  V30 5727 O 560.36 -2.35982 3.3821 0
M  V30 5728 H 559.701 -0.154741 0.645718 0
M  V30 5729 H 562.231 0.152885 2.04028 0
M  V30 5730 H 562.241 -1.5896 3.7576 0
M  V30 5731 H 560.916 -0.498735 4.12899 0
M  V30 5732 H 559.493 -2.03173 3.1269 0
M  V30 5733 N 561.678 -1.56367 -0.196722 0
M  V30 5734 C 562.926 -1.80172 -0.915554 0
M  V30 5735 C 563.247 -0.649649 -1.8386 0
M  V30 5736 O 562.517 0.332111 -1.93064 0
M  V30 5737 H 561.097 -0.664592 -0.341067 0
M  V30 5738 H 563.759 -1.93844 -0.202622 0
M  V30 5739 H 562.855 -2.7327 -1.50764 0
M  V30 5740 N 563.156 0.464375 -1.50603 0
M  V30 5741 C 564.381 1.24372 -1.65971 0
M  V30 5742 C 564.806 1.84901 -0.345453 0
M  V30 5743 O 564.164 1.67596 0.691457 0
M  V30 5744 C 564.212 2.32331 -2.7578 0
M  V30 5745 O 563.316 3.37146 -2.375 0
M  V30 5746 H 562.657 0.365604 -0.554283 0
M  V30 5747 H 565.187 0.55183 -1.97018 0
M  V30 5748 H 565.197 2.77539 -2.99059 0
M  V30 5749 H 563.872 1.87648 -3.71162 0
M  V30 5750 H 562.449 2.97602 -2.24694 0
M  V30 5751 N 564.634 1.40294 0.718013 0
M  V30 5752 C 565.862 1.4175 1.50714 0
M  V30 5753 C 566.277 0.0165366 1.88793 0
M  V30 5754 O 565.634 -0.958942 1.55276 0
M  V30 5755 C 565.685 2.30598 2.784 0
M  V30 5756 O 565.406 3.6524 2.41932 0
M  V30 5757 C 566.907 2.4062 3.72313 0
M  V30 5758 H 564.127 0.483565 0.465194 0
M  V30 5759 H 566.671 1.84316 0.885889 0
M  V30 5760 H 564.826 1.91401 3.36815 0
M  V30 5761 H 565.24 4.12402 3.24076 0
M  V30 5762 H 566.714 3.07001 4.58753 0
M  V30 5763 H 567.191 1.4305 4.15251 0
M  V30 5764 H 567.797 2.80359 3.19811 0
M  V30 5765 N 566.112 -0.949982 1.2575 0
M  V30 5766 C 567.36 -1.6918 1.10555 0
M  V30 5767 C 567.681 -1.91773 -0.353298 0
M  V30 5768 O 566.951 -1.50814 -1.25027 0
M  V30 5769 H 565.531 -0.626952 0.406129 0
M  V30 5770 H 568.193 -1.1419 1.57945 0
M  V30 5771 H 567.289 -2.66915 1.61749 0
M  V30 5772 N 567.59 -1.07411 -1.15328 0
M  V30 5773 C 568.522 -0.652924 -2.19703 0
M  V30 5774 C 569.535 0.294869 -1.60107 0
M  V30 5775 O 570.724 0.0840932 -1.78302 0
M  V30 5776 C 567.824 0.061434 -3.38844 0
M  V30 5777 C 566.997 -0.902696 -4.27984 0
M  V30 5778 C 566.056 -0.225521 -5.25717 0
M  V30 5779 O 565.082 -0.86676 -5.62562 0
M  V30 5780 N 566.284 1.02858 -5.71315 0
M  V30 5781 H 569.049 -1.55081 -2.56457 0
M  V30 5782 H 566.61 -0.958883 -1.30449 0
M  V30 5783 H 568.602 0.525145 -4.01278 0
M  V30 5784 H 567.172 0.861269 -3.00501 0
M  V30 5785 H 566.392 -1.54551 -3.6264 0
M  V30 5786 H 567.68 -1.55636 -4.84412 0
M  V30 5787 H 567.078 1.56948 -5.43492 0
M  V30 5788 H 565.635 1.43596 -6.35786 0
M  V30 5789 N 569.068 1.32177 -0.85831 0
M  V30 5790 C 570.314 1.97813 -0.47346 0
M  V30 5791 C 570.669 1.66674 0.961122 0
M  V30 5792 O 569.962 0.94657 1.66585 0
M  V30 5793 C 570.156 3.51372 -0.653658 0
M  V30 5794 C 569.985 3.97433 -2.1042 0
M  V30 5795 C 568.755 4.24338 -2.74345 0
M  V30 5796 C 570.953 4.12233 -3.0752 0
M  V30 5797 N 568.935 4.56672 -4.10272 0
M  V30 5798 C 570.306 4.48146 -4.28445 0
M  V30 5799 C 572.361 3.94577 -3.03667 0
M  V30 5800 C 571.064 4.68246 -5.4602 0
M  V30 5801 C 573.09 4.15864 -4.20489 0
M  V30 5802 C 572.452 4.52098 -5.40173 0
M  V30 5803 H 568.551 0.749808 -0.222061 0
M  V30 5804 H 571.135 1.59927 -1.11047 0
M  V30 5805 H 569.306 3.88372 -0.0463267 0
M  V30 5806 H 571.038 4.03998 -0.238343 0
M  V30 5807 H 567.793 4.16544 -2.25362 0
M  V30 5808 H 568.217 4.77019 -4.80398 0
M  V30 5809 H 572.859 3.65662 -2.12252 0
M  V30 5810 H 570.577 4.96014 -6.37962 0
M  V30 5811 H 574.163 4.03702 -4.18947 0
M  V30 5812 H 573.043 4.68238 -6.29065 0
M  V30 5813 N 570.547 0.616602 1.45037 0
M  V30 5814 C 571.497 -0.118543 2.27692 0
M  V30 5815 C 572.481 -0.830025 1.37838 0
M  V30 5816 O 573.673 -0.718528 1.6176 0
M  V30 5817 C 570.802 -1.10924 3.24886 0
M  V30 5818 C 569.888 -0.398134 4.22227 0
M  V30 5819 N 570.279 0.565233 5.02632 0
M  V30 5820 C 568.577 -0.644506 4.41319 0
M  V30 5821 C 569.278 0.984043 5.73316 0
M  V30 5822 N 568.254 0.325879 5.42622 0
M  V30 5823 H 572.056 0.621239 2.87259 0
M  V30 5824 H 569.57 0.440968 1.56299 0
M  V30 5825 H 571.567 -1.65038 3.82842 0
M  V30 5826 H 570.227 -1.84948 2.66879 0
M  V30 5827 H 571.238 0.942395 5.09254 0
M  V30 5828 H 567.915 -1.36873 3.94426 0
M  V30 5829 H 569.305 1.77911 6.47918 0
M  V30 5830 N 572.025 -1.5352 0.356285 0
M  V30 5831 C 573.25 -2.06007 -0.239961 0
M  V30 5832 C 573.675 -1.22872 -1.42422 0
M  V30 5833 O 573.033 -0.245516 -1.7963 0
M  V30 5834 C 573.081 -3.5522 -0.620587 0
M  V30 5835 O 572.185 -3.74864 -1.71902 0
M  V30 5836 H 571.526 -0.662961 -0.0371377 0
M  V30 5837 H 574.056 -1.98033 0.514194 0
M  V30 5838 H 574.066 -3.98081 -0.894197 0
M  V30 5839 H 572.741 -4.15175 0.245407 0
M  V30 5840 H 571.318 -3.43904 -1.44169 0
M  V30 5841 N 573.503 -0.0852151 -1.57369 0
M  V30 5842 C 574.413 0.891712 -2.16992 0
M  V30 5843 C 575.429 1.3174 -1.13669 0
M  V30 5844 O 576.605 1.38735 -1.45995 0
M  V30 5845 C 573.67 2.13635 -2.73059 0
M  V30 5846 C 572.731 1.7658 -3.91303 0
M  V30 5847 C 571.964 2.95111 -4.44686 0
M  V30 5848 O 572.187 4.09539 -3.97032 0
M  V30 5849 O 571.121 2.74149 -5.35841 0
M  V30 5850 H 574.947 0.414477 -3.00858 0
M  V30 5851 H 572.532 0.138598 -1.48756 0
M  V30 5852 H 574.414 2.86595 -3.08935 0
M  V30 5853 H 573.089 2.6043 -1.92244 0
M  V30 5854 H 571.996 1.00831 -3.60255 0
M  V30 5855 H 573.329 1.34557 -4.7345 0
M  V30 5856 N 574.981 1.5647 0.188427 0
M  V30 5857 C 576.206 1.85486 0.927891 0
M  V30 5858 C 576.631 0.669575 1.75779 0
M  V30 5859 O 575.989 -0.381573 1.77239 0
M  V30 5860 C 576.037 3.12784 1.7944 0
M  V30 5861 O 575.141 2.93805 2.894 0
M  V30 5862 H 574.482 0.610585 0.260925 0
M  V30 5863 H 577.012 2.037 0.191729 0
M  V30 5864 H 577.022 3.43749 2.19774 0
M  V30 5865 H 575.697 3.98671 1.18468 0
M  V30 5866 H 574.274 2.74153 2.52774 0
M  V30 5867 N 576.459 -0.456382 1.50847 0
M  V30 5868 C 577.707 -1.20497 1.62249 0
M  V30 5869 C 578.028 -1.92156 0.331839 0
M  V30 5870 O 577.298 -1.84751 -0.651443 0
M  V30 5871 H 575.878 -0.447775 0.597918 0
M  V30 5872 H 578.54 -0.525099 1.87693 0
M  V30 5873 H 577.636 -1.94492 2.44089 0
M  V30 5874 N 577.937 -1.40673 -0.710563 0
M  V30 5875 C 579.162 -1.42741 -1.50465 0
M  V30 5876 C 579.587 -0.0302116 -1.88076 0
M  V30 5877 O 578.945 0.962945 -1.53613 0
M  V30 5878 C 578.993 -2.32873 -2.75322 0
M  V30 5879 O 578.097 -1.77544 -3.72226 0
M  V30 5880 H 577.438 -0.485056 -0.45345 0
M  V30 5881 H 579.968 -1.84961 -0.874681 0
M  V30 5882 H 579.978 -2.48233 -3.23797 0
M  V30 5883 H 578.653 -3.34401 -2.47283 0
M  V30 5884 H 577.23 -1.71556 -3.31093 0
M  V30 5885 N 579.415 0.9433 -1.26252 0
M  V30 5886 C 580.662 1.68925 -1.11672 0
M  V30 5887 C 580.99 1.91499 0.340329 0
M  V30 5888 O 580.245 1.49189 1.26653 0
M  V30 5889 C 580.544 3.07073 -1.82868 0
M  V30 5890 C 580.21 3.04262 -3.32769 0
M  V30 5891 C 578.872 3.03203 -3.7366 0
M  V30 5892 C 581.224 2.96729 -4.28487 0
M  V30 5893 C 578.552 2.92373 -5.0866 0
M  V30 5894 C 580.904 2.87442 -5.63525 0
M  V30 5895 C 579.568 2.84724 -6.03729 0
M  V30 5896 H 578.838 0.618141 -0.408635 0
M  V30 5897 H 581.485 1.10124 -1.56668 0
M  V30 5898 H 579.79 3.69486 -1.30335 0
M  V30 5899 H 581.487 3.63635 -1.69029 0
M  V30 5900 H 578.077 3.05865 -3.00241 0
M  V30 5901 H 582.261 2.96658 -3.97879 0
M  V30 5902 H 577.517 2.88645 -5.38975 0
M  V30 5903 H 581.691 2.80576 -6.37377 0
M  V30 5904 H 579.318 2.76089 -7.08293 0
M  V30 5905 N 580.893 1.08022 1.14757 0
M  V30 5906 C 582.309 0.807072 1.3769 0
M  V30 5907 C 582.509 -0.585504 1.92806 0
M  V30 5908 O 581.565 -1.34301 2.13821 0
M  V30 5909 C 582.878 1.88651 2.34161 0
M  V30 5910 C 584.426 1.91206 2.47809 0
M  V30 5911 C 584.901 2.98253 3.47576 0
M  V30 5912 N 586.392 2.974 3.55117 0
M  V30 5913 C 587.127 3.76872 4.32152 0
M  V30 5914 N 586.623 4.66212 5.12463 0
M  V30 5915 N 588.416 3.6519 4.27309 0
M  V30 5916 H 580.567 1.97824 0.77326 0
M  V30 5917 H 582.83 0.85826 0.402608 0
M  V30 5918 H 582.536 2.88749 2.00791 0
M  V30 5919 H 582.41 1.75244 3.3402 0
M  V30 5920 H 584.797 0.917564 2.80472 0
M  V30 5921 H 584.878 2.08691 1.47925 0
M  V30 5922 H 584.522 3.97907 3.15646 0
M  V30 5923 H 584.452 2.78014 4.47231 0
M  V30 5924 H 586.943 2.32643 2.97801 0
M  V30 5925 H 587.256 5.23468 5.68508 0
M  V30 5926 H 585.601 4.70257 5.11745 0
M  V30 5927 H 588.792 2.94765 3.63636 0
M  V30 5928 H 588.965 4.27366 4.87095 0
M  V30 5929 N 582.371 -1.3172 0.865308 0
M  V30 5930 C 583.782 -1.79104 0.527126 0
M  V30 5931 C 584.133 -1.7135 -0.955695 0
M  V30 5932 O 583.258 -1.27845 -1.74598 0
M  V30 5933 C 583.853 -3.25207 0.950061 0
M  V30 5934 C 582.412 -3.70504 0.663611 0
M  V30 5935 C 581.559 -2.52605 1.14395 0
M  V30 5936 H 584.51 -1.18868 1.05148 0
M  V30 5937 H 584.531 -3.79535 0.270805 0
M  V30 5938 H 584.043 -3.30818 2.02931 0
M  V30 5939 H 582.144 -3.70398 -0.404474 0
M  V30 5940 H 582.257 -4.62845 1.23737 0
M  V30 5941 H 580.621 -2.4838 0.563859 0
M  V30 5942 H 581.404 -2.60964 2.23053 0
M  V30 5943 N 583.85 -0.624285 -1.44708 0
M  V30 5944 C 585.127 -0.0572781 -1.95516 0
M  V30 5945 C 585.507 1.41516 -1.56641 0
M  V30 5946 O 584.855 2.12614 -0.837111 0
M  V30 5947 C 585.065 -0.272944 -3.47931 0
M  V30 5948 C 586.413 -0.162529 -4.24289 0
M  V30 5949 O 587.437 -0.203946 -3.55616 0
M  V30 5950 O 586.296 -0.0616847 -5.46465 0
M  V30 5951 H 583.389 0.0262219 -0.826584 0
M  V30 5952 H 585.936 -0.695512 -1.54793 0
M  V30 5953 H 584.707 -1.29492 -3.69253 0
M  V30 5954 H 584.331 0.399756 -3.95585 0
M  V30 5955 N 585.328 1.53329 -0.364422 0
M  V30 5956 C 586.553 2.06132 0.229033 0
M  V30 5957 C 586.978 1.23625 1.41769 0
M  V30 5958 O 586.336 0.255038 1.79497 0
M  V30 5959 C 586.384 3.55544 0.60174 0
M  V30 5960 O 585.488 3.75771 1.69912 0
M  V30 5961 H 584.829 0.663148 0.0336213 0
M  V30 5962 H 587.359 1.97758 -0.524689 0
M  V30 5963 H 587.369 3.98549 0.873073 0
M  V30 5964 H 586.044 4.15039 -0.267421 0
M  V30 5965 H 584.621 3.44663 1.42343 0
M  V30 5966 N 586.806 0.0935595 1.57322 0
M  V30 5967 C 588.217 -0.435807 1.81542 0
M  V30 5968 C 588.568 -1.68263 1.00907 0
M  V30 5969 O 587.693 -2.15087 0.237983 0
M  V30 5970 C 588.288 -0.797436 3.29282 0
M  V30 5971 C 586.847 -1.27155 3.54272 0
M  V30 5972 C 585.994 -0.267455 2.76007 0
M  V30 5973 H 588.945 0.31902 1.5546 0
M  V30 5974 H 588.966 -1.6571 3.42521 0
M  V30 5975 H 588.478 0.110206 3.87943 0
M  V30 5976 H 586.579 -2.19696 3.00939 0
M  V30 5977 H 586.692 -1.23445 4.62923 0
M  V30 5978 H 585.056 -0.749282 2.43429 0
M  V30 5979 H 585.839 0.632839 3.37417 0
M  V30 5980 N 588.284 -1.56567 -0.180126 0
M  V30 5981 C 589.532 -1.81133 -0.896392 0
M  V30 5982 C 589.853 -0.669114 -1.83161 0
M  V30 5983 O 589.123 0.311616 -1.93406 0
M  V30 5984 H 587.703 -0.668172 -0.333999 0
M  V30 5985 H 590.365 -1.94048 -0.182051 0
M  V30 5986 H 589.461 -2.74854 -1.47857 0
M  V30 5987 N 589.762 0.448376 -1.51087 0
M  V30 5988 C 590.987 1.22605 -1.6728 0
M  V30 5989 C 591.412 1.84524 -0.365045 0
M  V30 5990 O 590.77 1.6832 0.673642 0
M  V30 5991 C 590.818 2.29393 -2.78229 0
M  V30 5992 O 589.922 3.34608 -2.41063 0
M  V30 5993 H 589.263 0.359705 -0.558129 0
M  V30 5994 H 591.793 0.530903 -1.97592 0
M  V30 5995 H 591.803 2.74352 -3.01986 0
M  V30 5996 H 590.478 1.83701 -3.73131 0
M  V30 5997 H 589.055 2.95202 -2.27838 0
M  V30 5998 N 591.24 1.41047 0.703093 0
M  V30 5999 C 592.488 1.39723 1.4602 0
M  V30 6000 C 592.809 0.00461257 1.94999 0
M  V30 6001 O 592.079 -0.952292 1.71196 0
M  V30 6002 H 590.659 0.514281 0.541779 0
M  V30 6003 H 593.321 1.76217 0.832678 0
M  V30 6004 H 592.417 2.07982 2.32701 0
M  V30 6005 N 592.718 -0.936591 1.26751 0
M  V30 6006 C 593.666 -2.0573 1.08527 0
M  V30 6007 C 594.66 -1.69397 0.0108784 0
M  V30 6008 O 595.866 -1.79215 0.167915 0
M  V30 6009 H 592.241 -0.673691 0.334133 0
M  V30 6010 H 594.212 -2.1825 2.03493 0
M  V30 6011 C 592.961 -3.39738 0.739845 0
M  V30 6012 H 592.284 -3.68174 1.55845 0
M  V30 6013 H 593.724 -4.18955 0.652149 0
M  V30 6014 C 592.183 -3.32292 -0.555288 0
M  V30 6015 O 592.713 -3.68794 -1.59229 0
M  V30 6016 N 590.919 -2.85394 -0.54762 0
M  V30 6017 H 590.466 -2.55886 0.296667 0
M  V30 6018 H 590.424 -2.80795 -1.41427 0
M  V30 6019 N 594.196 -1.08629 -1.14182 0
M  V30 6020 C 595.159 -0.722027 -2.1753 0
M  V30 6021 C 596.159 0.244305 -1.58933 0
M  V30 6022 O 597.349 0.0235545 -1.74184 0
M  V30 6023 C 594.481 -0.0663966 -3.40835 0
M  V30 6024 H 595.674 -1.63719 -2.51269 0
M  V30 6025 H 593.227 -0.884442 -1.28869 0
M  V30 6026 H 593.962 0.860389 -3.12678 0
M  V30 6027 H 593.747 -0.761598 -3.84632 0
M  V30 6028 H 595.237 0.173346 -4.1724 0
M  V30 6029 N 595.674 1.31259 -0.872281 0
M  V30 6030 C 597.09 1.49283 -0.564521 0
M  V30 6031 C 597.29 1.80243 0.900807 0
M  V30 6032 O 596.346 1.88246 1.68284 0
M  V30 6033 C 597.659 2.62503 -1.46673 0
M  V30 6034 C 599.207 2.76386 -1.46901 0
M  V30 6035 C 599.682 3.92705 -2.35684 0
M  V30 6036 N 601.173 3.99995 -2.33577 0
M  V30 6037 C 601.908 4.89276 -2.98992 0
M  V30 6038 N 601.404 5.83443 -3.73585 0
M  V30 6039 N 603.197 4.82541 -2.88289 0
M  V30 6040 H 595.348 1.09432 -1.82039 0
M  V30 6041 H 597.611 0.540949 -0.77851 0
M  V30 6042 H 597.317 2.46407 -2.50951 0
M  V30 6043 H 597.191 3.58695 -1.16696 0
M  V30 6044 H 599.578 2.91894 -0.433796 0
M  V30 6045 H 599.659 1.80853 -1.80903 0
M  V30 6046 H 599.303 3.77954 -3.39283 0
M  V30 6047 H 599.233 4.87549 -1.99006 0
M  V30 6048 H 601.724 3.32624 -1.7936 0
M  V30 6049 H 602.037 6.48303 -4.20622 0
M  V30 6050 H 600.382 5.83415 -3.77694 0
M  V30 6051 H 603.573 4.07951 -2.2955 0
M  V30 6052 H 603.746 5.51916 -3.39549 0
M  V30 6053 N 597.152 0.631951 1.44375 0
M  V30 6054 C 598.563 0.219036 1.85411 0
M  V30 6055 C 598.914 -1.22974 1.52879 0
M  V30 6056 O 598.039 -1.93579 0.967266 0
M  V30 6057 C 598.634 0.39075 3.36539 0
M  V30 6058 C 597.193 0.0323351 3.76386 0
M  V30 6059 C 596.34 0.703744 2.68221 0
M  V30 6060 H 599.291 0.837056 1.3483 0
M  V30 6061 H 599.312 -0.370056 3.78696 0
M  V30 6062 H 598.824 1.44527 3.60185 0
M  V30 6063 H 596.925 -1.02042 3.58355 0
M  V30 6064 H 597.038 0.442969 4.77048 0
M  V30 6065 H 595.402 0.138974 2.54321 0
M  V30 6066 H 596.185 1.76088 2.947 0
M  V30 6067 N 598.631 -1.53133 0.372548 0
M  V30 6068 C 599.579 -2.27473 -0.485681 0
M  V30 6069 C 600.573 -1.30719 -1.07745 0
M  V30 6070 O 601.779 -1.48321 -1.01985 0
M  V30 6071 H 598.154 -0.731269 -0.175356 0
M  V30 6072 H 600.125 -2.97955 0.162986 0
M  V30 6073 C 598.874 -3.08191 -1.60978 0
M  V30 6074 H 598.197 -3.82488 -1.16373 0
M  V30 6075 H 599.637 -3.63373 -2.18485 0
M  V30 6076 C 598.096 -2.19461 -2.55614 0
M  V30 6077 O 598.626 -1.81008 -3.58607 0
M  V30 6078 N 596.832 -1.83955 -2.24965 0
M  V30 6079 H 596.379 -2.15423 -1.41247 0
M  V30 6080 H 596.337 -1.24874 -2.88538 0
M  V30 6081 N 600.109 -0.101901 -1.5727 0
M  V30 6082 C 601.057 0.872034 -2.15635 0
M  V30 6083 C 602.051 1.28742 -1.10099 0
M  V30 6084 O 603.257 1.26116 -1.28432 0
M  V30 6085 H 599.632 0.299269 -0.689886 0
M  V30 6086 H 601.603 0.355137 -2.96279 0
M  V30 6087 C 600.352 2.11886 -2.7568 0
M  V30 6088 H 599.675 1.80813 -3.56576 0
M  V30 6089 H 601.115 2.78077 -3.20077 0
M  V30 6090 C 599.574 2.89739 -1.7191 0
M  V30 6091 O 600.104 3.84522 -1.16213 0
M  V30 6092 N 598.31 2.53407 -1.42245 0
M  V30 6093 H 597.857 1.76398 -1.87727 0
M  V30 6094 H 597.815 3.05795 -0.730529 0
M  V30 6095 N 601.587 1.56661 0.17182 0
M  V30 6096 C 602.998 1.71652 0.734329 0
M  V30 6097 C 603.349 0.712335 1.82812 0
M  V30 6098 O 602.474 -0.126401 2.16031 0
M  V30 6099 C 603.069 3.11226 1.3388 0
M  V30 6100 C 601.628 3.27904 1.84813 0
M  V30 6101 C 600.775 2.67603 0.726917 0
M  V30 6102 H 603.726 1.5861 -0.0535665 0
M  V30 6103 H 603.747 3.09849 2.20849 0
M  V30 6104 H 603.259 3.8429 0.54249 0
M  V30 6105 H 601.36 2.59796 2.6709 0
M  V30 6106 H 601.473 4.35637 1.99392 0
M  V30 6107 H 599.837 2.274 1.14723 0
M  V30 6108 H 600.62 3.43252 -0.0575334 0
M  V30 6109 N 603.065 -0.440357 1.51323 0
M  V30 6110 C 604.342 -1.20109 1.5438 0
M  V30 6111 C 604.722 -2.08866 0.306303 0
M  V30 6112 O 604.07 -2.1723 -0.708773 0
M  V30 6113 C 604.28 -2.00555 2.8562 0
M  V30 6114 C 605.628 -2.577 3.37455 0
M  V30 6115 O 606.652 -2.10769 2.8715 0
M  V30 6116 O 605.511 -3.43289 4.25224 0
M  V30 6117 H 602.605 -0.546668 0.620551 0
M  V30 6118 H 605.151 -0.449672 1.63634 0
M  V30 6119 H 603.923 -1.35346 3.67147 0
M  V30 6120 H 603.546 -2.82768 2.79514 0
M  V30 6121 N 604.543 -1.41418 -0.695603 0
M  V30 6122 C 605.789 -1.41983 -1.45645 0
M  V30 6123 C 606.144 -0.0282216 -1.92379 0
M  V30 6124 O 605.437 0.945916 -1.66622 0
M  V30 6125 C 605.631 -2.36112 -2.68302 0
M  V30 6126 C 605.46 -3.84288 -2.33566 0
M  V30 6127 C 604.23 -4.52971 -2.23932 0
M  V30 6128 C 606.428 -4.75264 -1.96543 0
M  V30 6129 N 604.41 -5.86276 -1.82081 0
M  V30 6130 C 605.781 -5.97517 -1.6545 0
M  V30 6131 C 607.836 -4.62911 -1.83352 0
M  V30 6132 C 606.539 -7.08793 -1.22492 0
M  V30 6133 C 608.565 -5.74149 -1.41799 0
M  V30 6134 C 607.927 -6.95501 -1.11617 0
M  V30 6135 H 604.026 -0.574771 -0.530247 0
M  V30 6136 H 606.61 -1.77289 -0.804788 0
M  V30 6137 H 604.781 -2.02902 -3.31188 0
M  V30 6138 H 606.513 -2.27397 -3.34773 0
M  V30 6139 H 603.268 -4.06909 -2.42327 0
M  V30 6140 H 603.692 -6.56926 -1.63638 0
M  V30 6141 H 608.334 -3.69588 -2.05341 0
M  V30 6142 H 606.052 -8.01982 -0.992482 0
M  V30 6143 H 609.638 -5.66595 -1.32143 0
M  V30 6144 H 608.518 -7.80114 -0.799493 0
M  V30 6145 N 606.021 0.929856 -1.27246 0
M  V30 6146 C 607.269 1.674 -1.13233 0
M  V30 6147 C 607.59 1.92311 0.322744 0
M  V30 6148 O 606.86 1.52784 1.22612 0
M  V30 6149 H 605.44 0.620411 -0.416052 0
M  V30 6150 H 608.102 1.11663 -1.59741 0
M  V30 6151 H 607.198 2.64308 -1.65975 0
M  V30 6152 N 607.499 1.09233 1.13605 0
M  V30 6153 C 608.727 0.848908 1.88683 0
M  V30 6154 C 609.142 -0.599667 1.79024 0
M  V30 6155 O 608.499 -1.41265 1.15544 0
M  V30 6156 C 608.55 1.27273 3.38355 0
M  V30 6157 O 608.271 2.66449 3.47759 0
M  V30 6158 C 609.772 1.0614 4.30406 0
M  V30 6159 H 606.992 0.305549 0.597395 0
M  V30 6160 H 609.536 1.4538 1.43823 0
M  V30 6161 H 607.691 0.711776 3.80805 0
M  V30 6162 H 608.105 2.84264 4.40788 0
M  V30 6163 H 609.579 1.40725 5.33761 0
M  V30 6164 H 610.056 -0.000960332 4.392 0
M  V30 6165 H 610.662 1.60821 3.93722 0
M  V30 6166 N 608.977 -1.30795 0.87923 0
M  V30 6167 C 610.224 -1.96362 0.494786 0
M  V30 6168 C 610.552 -1.69448 -0.954868 0
M  V30 6169 O 609.807 -0.988711 -1.68888 0
M  V30 6170 C 610.106 -3.50287 0.709476 0
M  V30 6171 C 609.772 -3.9724 2.13333 0
M  V30 6172 C 608.434 -4.09772 2.52271 0
M  V30 6173 C 610.786 -4.21807 3.06151 0
M  V30 6174 C 608.114 -4.44227 3.83248 0
M  V30 6175 C 610.466 -4.5773 4.36654 0
M  V30 6176 C 609.13 -4.68469 4.75492 0
M  V30 6177 H 608.4 -0.71854 0.181055 0
M  V30 6178 H 611.047 -1.55764 1.11399 0
M  V30 6179 H 609.352 -3.91799 0.0072 0
M  V30 6180 H 611.049 -3.99082 0.391703 0
M  V30 6181 H 607.639 -3.87988 1.82107 0
M  V30 6182 H 611.823 -4.11611 2.77291 0
M  V30 6183 H 607.079 -4.50741 4.13089 0
M  V30 6184 H 611.253 -4.7569 5.08617 0
M  V30 6185 H 608.88 -4.94923 5.77022 0
M  V30 6186 N 610.455 -0.639598 -1.44038 0
M  V30 6187 C 611.365 0.0612377 -2.3452 0
M  V30 6188 C 612.381 0.826717 -1.53106 0
M  V30 6189 O 613.557 0.777059 -1.85806 0
M  V30 6190 C 610.622 1.02492 -3.31204 0
M  V30 6191 C 609.683 0.25788 -4.28525 0
M  V30 6192 C 608.916 1.17566 -5.2059 0
M  V30 6193 O 609.139 2.41461 -5.16771 0
M  V30 6194 O 608.073 0.655407 -5.98321 0
M  V30 6195 H 611.899 -0.68318 -2.95916 0
M  V30 6196 H 609.484 -0.399784 -1.43952 0
M  V30 6197 H 611.366 1.57911 -3.90694 0
M  V30 6198 H 610.041 1.7498 -2.7233 0
M  V30 6199 H 608.948 -0.339566 -3.72556 0
M  V30 6200 H 610.281 -0.427154 -4.90343 0
M  V30 6201 N 611.933 1.52934 -0.380664 0
M  V30 6202 C 612.843 2.29921 0.466192 0
M  V30 6203 C 613.859 1.36488 1.07922 0
M  V30 6204 O 615.035 1.69553 1.0869 0
M  V30 6205 C 612.1 3.08468 1.58266 0
M  V30 6206 C 611.161 4.17595 0.995627 0
M  V30 6207 C 610.394 4.92387 2.05889 0
M  V30 6208 O 610.617 4.67184 3.27254 0
M  V30 6209 O 609.551 5.77949 1.68102 0
M  V30 6210 H 613.377 3.03274 -0.160735 0
M  V30 6211 H 610.962 1.48698 -0.144617 0
M  V30 6212 H 612.844 3.57469 2.23145 0
M  V30 6213 H 611.519 2.37937 2.19471 0
M  V30 6214 H 610.426 3.72811 0.310332 0
M  V30 6215 H 611.759 4.90336 0.427918 0
M  V30 6216 N 613.412 0.11024 1.57214 0
M  V30 6217 C 614.658 -0.550684 1.9518 0
M  V30 6218 C 614.991 -1.66885 0.993122 0
M  V30 6219 O 614.266 -1.94479 0.0287907 0
M  V30 6220 C 614.549 -1.09163 3.43155 0
M  V30 6221 C 614.402 0.0225198 4.49794 0
M  V30 6222 C 615.721 -1.98527 3.92778 0
M  V30 6223 H 612.84 -0.198706 0.709708 0
M  V30 6224 H 615.482 0.184024 1.89107 0
M  V30 6225 H 613.632 -1.71775 3.48462 0
M  V30 6226 H 615.304 0.657443 4.56591 0
M  V30 6227 H 613.547 0.686868 4.28328 0
M  V30 6228 H 614.218 -0.39706 5.5057 0
M  V30 6229 H 616.694 -1.458 3.8972 0
M  V30 6230 H 615.57 -2.33298 4.96853 0
M  V30 6231 H 615.831 -2.90846 3.32958 0
M  V30 6232 N 614.89 -1.56749 -0.16351 0
M  V30 6233 C 616.115 -1.86938 -0.898264 0
M  V30 6234 C 616.54 -0.697456 -1.74692 0
M  V30 6235 O 615.898 0.353327 -1.77824 0
M  V30 6236 C 615.946 -3.15599 -1.74441 0
M  V30 6237 O 615.05 -2.98371 -2.8469 0
M  V30 6238 H 614.391 -0.614659 -0.251178 0
M  V30 6239 H 616.921 -2.03979 -0.159298 0
M  V30 6240 H 616.931 -3.47202 -2.14277 0
M  V30 6241 H 615.606 -4.00505 -1.1211 0
M  V30 6242 H 614.183 -2.7814 -2.4838 0
M  V30 6243 N 616.368 0.432326 -1.51554 0
M  V30 6244 C 617.616 1.17901 -1.64146 0
M  V30 6245 C 617.937 1.91604 -0.362367 0
M  V30 6246 O 617.207 1.85764 0.621968 0
M  V30 6247 H 615.787 0.438206 -0.604966 0
M  V30 6248 H 618.449 0.495172 -1.88505 0
M  V30 6249 H 617.545 1.90584 -2.47152 0
M  V30 6250 N 617.846 1.41785 0.688094 0
M  V30 6251 C 618.794 1.44436 1.82321 0
M  V30 6252 C 619.788 0.321544 1.6632 0
M  V30 6253 O 620.994 0.493931 1.73091 0
M  V30 6254 H 617.369 0.452084 0.600936 0
M  V30 6255 H 619.34 2.40087 1.77202 0
M  V30 6256 C 618.089 1.35071 3.20392 0
M  V30 6257 H 617.412 2.2076 3.33324 0
M  V30 6258 H 618.852 1.40988 3.99873 0
M  V30 6259 C 617.311 0.0639127 3.36839 0
M  V30 6260 O 617.841 -0.888495 3.91751 0
M  V30 6261 N 616.047 -0.0146114 2.90596 0
M  V30 6262 H 615.594 0.761191 2.46097 0
M  V30 6263 H 615.552 -0.874988 3.01979 0
M  V30 6264 N 619.324 -0.923095 1.27737 0
M  V30 6265 C 620.57 -1.67375 1.14514 0
M  V30 6266 C 620.903 -1.91751 -0.307424 0
M  V30 6267 O 620.178 -1.51119 -1.22447 0
M  V30 6268 C 620.461 -3.03745 1.9342 0
M  V30 6269 C 620.314 -2.86581 3.46686 0
M  V30 6270 C 621.633 -4.04144 1.74228 0
M  V30 6271 H 618.752 -0.607427 0.417374 0
M  V30 6272 H 621.394 -1.07089 1.56946 0
M  V30 6273 H 619.544 -3.55204 1.5736 0
M  V30 6274 H 621.216 -2.42203 3.92601 0
M  V30 6275 H 619.459 -2.21829 3.72793 0
M  V30 6276 H 620.13 -3.83381 3.97143 0
M  V30 6277 H 622.606 -3.61712 2.05678 0
M  V30 6278 H 621.482 -4.97543 2.31824 0
M  V30 6279 H 621.743 -4.36661 0.691373 0
M  V30 6280 N 620.802 -1.09834 -1.13024 0
M  V30 6281 C 622.027 -0.85909 -1.88771 0
M  V30 6282 C 622.452 0.584402 -1.78791 0
M  V30 6283 O 621.81 1.41101 -1.13842 0
M  V30 6284 C 621.858 -1.30427 -3.36186 0
M  V30 6285 O 620.962 -0.465368 -4.09766 0
M  V30 6286 H 620.303 -0.310786 -0.586778 0
M  V30 6287 H 622.833 -1.46355 -1.42973 0
M  V30 6288 H 622.843 -1.2915 -3.8702 0
M  V30 6289 H 621.518 -2.3555 -3.42767 0
M  V30 6290 H 620.095 -0.542814 -3.68928 0
M  V30 6291 N 622.28 1.30327 -0.886154 0
M  V30 6292 C 623.691 1.78243 -0.555554 0
M  V30 6293 C 624.042 1.72849 0.928314 0
M  V30 6294 O 623.167 1.30607 1.72542 0
M  V30 6295 C 623.762 3.23654 -1.00168 0
M  V30 6296 C 622.321 3.69401 -0.722471 0
M  V30 6297 C 621.468 2.50753 -1.18399 0
M  V30 6298 H 624.419 1.1718 -1.07026 0
M  V30 6299 H 624.44 3.79056 -0.331152 0
M  V30 6300 H 623.952 3.27548 -2.08169 0
M  V30 6301 H 622.053 3.70995 0.345496 0
M  V30 6302 H 622.166 4.60818 -1.31085 0
M  V30 6303 H 620.53 2.47452 -0.603303 0
M  V30 6304 H 621.313 2.57383 -2.27176 0
M  V30 6305 N 623.758 0.647228 1.43697 0
M  V30 6306 C 625.006 0.157876 2.01482 0
M  V30 6307 C 625.327 -1.23039 1.51282 0
M  V30 6308 O 624.597 -1.82071 0.722982 0
M  V30 6309 H 623.177 0.0553745 0.744945 0
M  V30 6310 H 625.839 0.83755 1.75986 0
M  V30 6311 H 624.935 0.137895 3.11795 0
M  V30 6312 N 625.236 -1.5273 0.388769 0
M  V30 6313 C 626.464 -2.05992 -0.193677 0
M  V30 6314 C 626.879 -1.26053 -1.40557 0
M  V30 6315 O 626.236 -0.307049 -1.79898 0
M  V30 6316 C 626.287 -3.57068 -0.564321 0
M  V30 6317 O 626.008 -4.3398 0.599422 0
M  V30 6318 C 627.509 -4.26674 -1.20269 0
M  V30 6319 H 624.729 -0.670358 -0.0293445 0
M  V30 6320 H 627.273 -1.96857 0.553844 0
M  V30 6321 H 625.428 -3.66277 -1.26174 0
M  V30 6322 H 625.842 -5.2367 0.294895 0
M  V30 6323 H 627.316 -5.33625 -1.4124 0
M  V30 6324 H 627.793 -3.81854 -2.16989 0
M  V30 6325 H 628.399 -4.2178 -0.546047 0
M  V30 6326 N 626.714 -0.118576 -1.57153 0
M  V30 6327 C 628.13 0.238014 -1.57815 0
M  V30 6328 C 628.33 1.66747 -1.13127 0
M  V30 6329 O 627.386 2.38867 -0.818462 0
M  V30 6330 C 628.699 0.00508207 -3.007 0
M  V30 6331 C 630.247 0.0710139 -3.12919 0
M  V30 6332 C 630.722 -0.13422 -4.57803 0
M  V30 6333 N 632.213 -0.0801755 -4.63131 0
M  V30 6334 C 632.948 -0.213885 -5.73001 0
M  V30 6335 N 632.444 -0.403742 -6.91623 0
M  V30 6336 N 634.237 -0.15349 -5.6189 0
M  V30 6337 H 626.388 -1.05226 -1.84503 0
M  V30 6338 H 628.651 -0.414318 -0.852669 0
M  V30 6339 H 628.357 -0.983125 -3.3768 0
M  V30 6340 H 628.231 0.73714 -3.69927 0
M  V30 6341 H 630.618 1.04975 -2.75798 0
M  V30 6342 H 630.699 -0.692918 -2.46236 0
M  V30 6343 H 630.343 -1.10992 -4.95624 0
M  V30 6344 H 630.273 0.649692 -5.22577 0
M  V30 6345 H 632.764 0.0630689 -3.77847 0
M  V30 6346 H 633.077 -0.496645 -7.71202 0
M  V30 6347 H 631.422 -0.43971 -6.93608 0
M  V30 6348 H 634.613 -0.00613174 -4.681 0
M  V30 6349 H 634.786 -0.261138 -6.47474 0
M  V30 6350 N 628.193 1.56834 0.155195 0
M  V30 6351 C 629.609 1.51315 0.50755 0
M  V30 6352 C 629.809 0.825614 1.83809 0
M  V30 6353 O 628.865 0.39271 2.49427 0
M  V30 6354 C 630.178 2.96074 0.52542 0
M  V30 6355 C 631.726 3.06968 0.611505 0
M  V30 6356 C 632.201 4.53218 0.660115 0
M  V30 6357 N 633.692 4.5753 0.722564 0
M  V30 6358 C 634.427 5.68056 0.781023 0
M  V30 6359 N 633.923 6.88173 0.799327 0
M  V30 6360 N 635.716 5.56068 0.821278 0
M  V30 6361 H 627.867 1.9993 -0.717063 0
M  V30 6362 H 630.13 0.911507 -0.260496 0
M  V30 6363 H 629.836 3.49599 -0.383875 0
M  V30 6364 H 629.71 3.51587 1.36624 0
M  V30 6365 H 632.097 2.53468 1.51122 0
M  V30 6366 H 632.178 2.54513 -0.256306 0
M  V30 6367 H 631.822 5.07354 -0.23541 0
M  V30 6368 H 631.752 5.03447 1.5443 0
M  V30 6369 H 634.243 3.71054 0.716049 0
M  V30 6370 H 634.556 7.6816 0.845553 0
M  V30 6371 H 632.901 6.90751 0.767337 0
M  V30 6372 H 636.092 4.61142 0.804091 0
M  V30 6373 H 636.265 6.42223 0.863372 0
M  V30 6374 N 629.671 -0.424282 1.51781 0
M  V30 6375 C 630.581 -1.54087 1.76902 0
M  V30 6376 C 631.597 -1.61249 0.653826 0
M  V30 6377 O 632.773 -1.78247 0.937552 0
M  V30 6378 C 629.838 -2.8996 1.90063 0
M  V30 6379 C 628.899 -2.92809 3.13945 0
M  V30 6380 C 628.132 -4.22201 3.26469 0
M  V30 6381 O 628.355 -5.15286 2.44616 0
M  V30 6382 O 627.289 -4.31599 4.1953 0
M  V30 6383 H 631.115 -1.358 2.71647 0
M  V30 6384 H 628.7 -0.608618 1.36441 0
M  V30 6385 H 630.582 -3.70575 2.0063 0
M  V30 6386 H 629.257 -3.08347 0.985067 0
M  V30 6387 H 628.164 -2.11102 3.08847 0
M  V30 6388 H 629.497 -2.79369 4.05233 0
M  V30 6389 N 631.149 -1.42148 -0.680565 0
M  V30 6390 C 632.379 -1.45485 -1.46689 0
M  V30 6391 C 632.787 -0.0629451 -1.89095 0
M  V30 6392 O 632.13 0.931397 -1.58337 0
M  V30 6393 C 632.192 -2.31397 -2.75129 0
M  V30 6394 C 631.856 -3.79353 -2.54834 0
M  V30 6395 C 632.853 -4.71148 -2.19808 0
M  V30 6396 C 630.538 -4.23557 -2.70008 0
M  V30 6397 C 632.532 -6.05139 -2.00215 0
M  V30 6398 C 630.219 -5.57609 -2.50031 0
M  V30 6399 C 631.217 -6.48216 -2.15187 0
M  V30 6400 O 630.905 -7.79792 -1.95397 0
M  V30 6401 H 630.637 -0.497139 -0.458071 0
M  V30 6402 H 633.191 -1.87252 -0.844139 0
M  V30 6403 H 631.421 -1.84468 -3.39865 0
M  V30 6404 H 633.11 -2.26257 -3.36991 0
M  V30 6405 H 633.876 -4.38282 -2.07686 0
M  V30 6406 H 629.755 -3.53327 -2.96109 0
M  V30 6407 H 633.299 -6.75823 -1.72941 0
M  V30 6408 H 629.196 -5.9005 -2.61748 0
M  V30 6409 H 629.964 -7.91091 -2.10042 0
M  V30 6410 N 632.627 0.916307 -1.28225 0
M  V30 6411 C 633.577 2.00488 -1.08574 0
M  V30 6412 C 634.561 1.60897 -0.0101874 0
M  V30 6413 O 635.753 1.75499 -0.230034 0
M  V30 6414 C 632.882 3.35076 -0.746943 0
M  V30 6415 C 631.968 3.81077 -1.86121 0
M  V30 6416 N 632.359 3.99475 -3.10247 0
M  V30 6417 C 630.657 4.10212 -1.75048 0
M  V30 6418 C 631.358 4.37965 -3.82834 0
M  V30 6419 N 630.334 4.4608 -3.10667 0
M  V30 6420 H 634.136 2.1276 -2.02757 0
M  V30 6421 H 631.65 1.10397 -1.19107 0
M  V30 6422 H 633.647 4.12743 -0.587252 0
M  V30 6423 H 632.307 3.2416 0.187146 0
M  V30 6424 H 633.318 3.85466 -3.45885 0
M  V30 6425 H 629.995 4.07947 -0.887999 0
M  V30 6426 H 631.385 4.60183 -4.89572 0
M  V30 6427 N 634.105 1.10431 1.1244 0
M  V30 6428 C 635.333 0.868872 1.87772 0
M  V30 6429 C 635.748 -0.580645 1.7965 0
M  V30 6430 O 635.105 -1.40031 1.17036 0
M  V30 6431 C 635.156 1.30855 3.36986 0
M  V30 6432 O 634.877 2.70123 3.44914 0
M  V30 6433 C 636.378 1.107 4.29256 0
M  V30 6434 H 633.598 0.311868 0.59412 0
M  V30 6435 H 636.142 1.46897 1.42273 0
M  V30 6436 H 634.297 0.752126 3.80029 0
M  V30 6437 H 634.711 2.88923 4.37748 0
M  V30 6438 H 636.185 1.46378 5.32238 0
M  V30 6439 H 636.662 0.0456228 4.39176 0
M  V30 6440 H 637.268 1.64988 3.91994 0
M  V30 6441 N 635.583 -1.29855 0.893053 0
M  V30 6442 C 636.493 -2.31661 0.370157 0
M  V30 6443 C 637.509 -1.65677 -0.531723 0
M  V30 6444 O 638.685 -1.9691 -0.422902 0
M  V30 6445 C 635.75 -3.44388 -0.399741 0
M  V30 6446 C 634.811 -4.2598 0.532861 0
M  V30 6447 C 634.044 -5.33324 -0.200388 0
M  V30 6448 O 634.267 -5.52305 -1.42531 0
M  V30 6449 O 633.201 -6.00188 0.453668 0
M  V30 6450 H 637.027 -2.78354 1.2146 0
M  V30 6451 H 634.612 -1.34171 0.657153 0
M  V30 6452 H 636.494 -4.13037 -0.835358 0
M  V30 6453 H 635.169 -2.99815 -1.22035 0
M  V30 6454 H 634.076 -3.59998 1.01746 0
M  V30 6455 H 635.409 -4.74178 1.3197 0
M  V30 6456 N 637.061 -0.65484 -1.43351 0
M  V30 6457 C 638.008 0.0357713 -2.30772 0
M  V30 6458 C 638.978 0.813035 -1.44841 0
M  V30 6459 O 640.163 0.789314 -1.73708 0
M  V30 6460 C 637.303 0.995084 -3.30442 0
M  V30 6461 C 636.416 0.21375 -4.31471 0
M  V30 6462 C 635.551 1.16701 -5.18222 0
M  V30 6463 C 634.59 0.376201 -6.10943 0
M  V30 6464 N 633.727 1.28113 -6.90313 0
M  V30 6465 H 638.567 -0.71559 -2.89281 0
M  V30 6466 H 636.104 -0.364645 -1.42509 0
M  V30 6467 H 638.062 1.5649 -3.86739 0
M  V30 6468 H 636.692 1.7133 -2.7358 0
M  V30 6469 H 635.744 -0.472377 -3.77456 0
M  V30 6470 H 637.056 -0.401103 -4.97185 0
M  V30 6471 H 636.21 1.8074 -5.79153 0
M  V30 6472 H 634.949 1.81577 -4.52638 0
M  V30 6473 H 633.954 -0.277534 -5.49099 0
M  V30 6474 H 635.179 -0.268178 -6.7857 0
M  V30 6475 H 633.125 1.91666 -6.27376 0
M  V30 6476 H 633.042 0.720879 -7.52555 0
M  V30 6477 H 634.31 1.90962 -7.55747 0
M  V30 6478 N 638.539 1.52521 -0.396863 0
M  V30 6479 C 639.469 2.29582 0.425941 0
M  V30 6480 C 640.45 1.33281 1.05689 0
M  V30 6481 O 641.635 1.62181 1.06823 0
M  V30 6482 C 638.765 3.10821 1.54943 0
M  V30 6483 C 637.719 4.15069 1.04413 0
M  V30 6484 C 637.045 4.84578 2.26028 0
M  V30 6485 C 638.345 5.22191 0.106767 0
M  V30 6486 H 640.039 2.98612 -0.217045 0
M  V30 6487 H 637.585 1.43611 -0.105826 0
M  V30 6488 H 639.538 3.63492 2.13193 0
M  V30 6489 H 638.262 2.39538 2.22011 0
M  V30 6490 H 636.921 3.63389 0.484118 0
M  V30 6491 H 636.569 4.09835 2.91623 0
M  V30 6492 H 636.269 5.55043 1.92876 0
M  V30 6493 H 637.793 5.40056 2.84906 0
M  V30 6494 H 639.207 5.70176 0.597685 0
M  V30 6495 H 637.604 5.99947 -0.135352 0
M  V30 6496 H 638.674 4.77531 -0.842134 0
M  V30 6497 N 640.017 0.126909 1.57088 0
M  V30 6498 C 641.263 -0.529952 1.95753 0
M  V30 6499 C 641.596 -1.65823 1.01077 0
M  V30 6500 O 640.871 -1.94437 0.0494162 0
M  V30 6501 C 641.154 -1.05517 3.44294 0
M  V30 6502 C 641.007 0.0702253 4.49745 0
M  V30 6503 C 642.326 -1.9435 3.94862 0
M  V30 6504 H 639.445 -0.191168 0.711775 0
M  V30 6505 H 642.087 0.204071 1.88901 0
M  V30 6506 H 640.237 -1.68069 3.50264 0
M  V30 6507 H 641.909 0.705834 4.55868 0
M  V30 6508 H 640.152 0.732259 4.27575 0
M  V30 6509 H 640.823 -0.338642 5.5096 0
M  V30 6510 H 643.299 -1.41658 3.91244 0
M  V30 6511 H 642.175 -2.28015 4.993 0
M  V30 6512 H 642.436 -2.87299 3.36024 0
M  V30 6513 N 641.495 -1.56914 -0.146875 0
M  V30 6514 C 642.723 -1.87515 -0.874394 0
M  V30 6515 C 643.138 -0.715116 -1.74733 0
M  V30 6516 O 642.495 0.315113 -1.79759 0
M  V30 6517 C 642.546 -3.17362 -1.731 0
M  V30 6518 O 642.267 -4.28897 -0.893245 0
M  V30 6519 C 643.768 -3.61479 -2.56609 0
M  V30 6520 H 640.988 -0.621546 -0.252827 0
M  V30 6521 H 643.532 -2.04023 -0.139627 0
M  V30 6522 H 641.687 -3.02608 -2.41883 0
M  V30 6523 H 642.101 -5.03146 -1.48137 0
M  V30 6524 H 643.575 -4.5517 -3.12289 0
M  V30 6525 H 644.052 -2.86773 -3.32653 0
M  V30 6526 H 644.658 -3.78927 -1.93117 0
M  V30 6527 N 642.974 0.416227 -1.52004 0
M  V30 6528 C 644.199 1.19029 -1.69843 0
M  V30 6529 C 644.624 1.83708 -0.404103 0
M  V30 6530 O 643.982 1.69711 0.637787 0
M  V30 6531 C 644.03 2.23439 -2.83032 0
M  V30 6532 O 643.134 3.29419 -2.48106 0
M  V30 6533 H 642.475 0.347785 -0.565634 0
M  V30 6534 H 645.005 0.488871 -1.98674 0
M  V30 6535 H 645.015 2.67884 -3.07737 0
M  V30 6536 H 643.69 1.75745 -3.76944 0
M  V30 6537 H 642.267 2.90303 -2.34048 0
M  V30 6538 N 644.452 1.42507 0.673017 0
M  V30 6539 C 645.399 1.46124 1.78651 0
M  V30 6540 C 646.369 0.313007 1.63124 0
M  V30 6541 O 647.554 0.517337 1.83653 0
M  V30 6542 C 644.694 1.3711 3.16694 0
M  V30 6543 C 643.807 2.61983 3.43495 0
M  V30 6544 C 642.942 2.45098 4.71275 0
M  V30 6545 C 641.981 3.65336 4.91117 0
M  V30 6546 N 641.118 3.47383 6.10139 0
M  V30 6547 H 645.958 2.4128 1.74895 0
M  V30 6548 H 643.495 1.19788 0.853766 0
M  V30 6549 H 645.453 1.29881 3.96468 0
M  V30 6550 H 644.083 0.45549 3.1957 0
M  V30 6551 H 643.135 2.79571 2.57961 0
M  V30 6552 H 644.447 3.51355 3.5405 0
M  V30 6553 H 643.601 2.35466 5.59143 0
M  V30 6554 H 642.34 1.53219 4.63007 0
M  V30 6555 H 641.345 3.754 4.0169 0
M  V30 6556 H 642.57 4.58199 5.01229 0
M  V30 6557 H 640.516 2.58222 6.0304 0
M  V30 6558 H 640.433 4.30344 6.21563 0
M  V30 6559 H 641.701 3.41565 7.00681 0
M  V30 6560 N 645.93 -0.909495 1.28709 0
M  V30 6561 C 647.178 -1.65577 1.15882 0
M  V30 6562 C 647.499 -1.928 -0.292108 0
M  V30 6563 O 646.769 -1.54716 -1.20166 0
M  V30 6564 H 645.349 -0.613714 0.425869 0
M  V30 6565 H 648.011 -1.09108 1.61498 0
M  V30 6566 H 647.107 -2.61634 1.70159 0
M  V30 6567 N 647.408 -1.11026 -1.11852 0
M  V30 6568 C 648.685 -0.768347 -1.79877 0
M  V30 6569 C 649.065 0.744261 -1.97545 0
M  V30 6570 O 648.413 1.67271 -1.55669 0
M  V30 6571 C 648.623 -1.52648 -3.13846 0
M  V30 6572 C 649.971 -1.70297 -3.88953 0
M  V30 6573 O 650.995 -1.49037 -3.23522 0
M  V30 6574 O 649.854 -2.05593 -5.06353 0
M  V30 6575 H 646.948 -0.277891 -0.778913 0
M  V30 6576 H 649.494 -1.21343 -1.18633 0
M  V30 6577 H 648.266 -2.55564 -2.96315 0
M  V30 6578 H 647.889 -1.07466 -3.82801 0
M  V30 6579 N 648.886 1.2938 -0.899927 0
M  V30 6580 C 649.833 2.27713 -0.376243 0
M  V30 6581 C 650.803 1.57016 0.541774 0
M  V30 6582 O 651.988 1.84997 0.466966 0
M  V30 6583 C 649.128 3.42889 0.39 0
M  V30 6584 C 648.241 4.28369 -0.558938 0
M  V30 6585 C 647.376 5.30726 0.224379 0
M  V30 6586 C 646.415 6.07862 -0.719068 0
M  V30 6587 N 645.552 7.02094 0.0298569 0
M  V30 6588 H 650.392 2.71888 -1.21988 0
M  V30 6589 H 647.929 1.33724 -0.612879 0
M  V30 6590 H 649.887 4.08443 0.850314 0
M  V30 6591 H 648.517 2.99743 1.19809 0
M  V30 6592 H 647.569 3.62986 -1.13777 0
M  V30 6593 H 648.881 4.82068 -1.2811 0
M  V30 6594 H 648.035 6.02098 0.745881 0
M  V30 6595 H 646.774 4.77759 0.979674 0
M  V30 6596 H 645.779 5.35353 -1.25207 0
M  V30 6597 H 647.004 6.62917 -1.4737 0
M  V30 6598 H 644.95 6.51496 0.767415 0
M  V30 6599 H 644.867 7.5335 -0.632391 0
M  V30 6600 H 646.135 7.77685 0.531615 0
M  V30 6601 N 650.364 0.662433 1.43002 0
M  V30 6602 C 651.274 -0.0239199 2.34588 0
M  V30 6603 C 652.29 -0.802255 1.54402 0
M  V30 6604 O 653.466 -0.747401 1.87018 0
M  V30 6605 C 650.531 -0.972098 3.32793 0
M  V30 6606 C 649.592 -0.189673 4.28881 0
M  V30 6607 C 648.825 -1.09269 5.22395 0
M  V30 6608 O 649.048 -2.33209 5.20547 0
M  V30 6609 O 647.982 -0.560136 5.99288 0
M  V30 6610 H 651.808 0.730171 2.94792 0
M  V30 6611 H 649.393 0.422635 1.43297 0
M  V30 6612 H 651.275 -1.51676 3.93157 0
M  V30 6613 H 649.95 -1.70626 2.75079 0
M  V30 6614 H 648.857 0.398794 3.71968 0
M  V30 6615 H 650.19 0.50511 4.89601 0
M  V30 6616 N 651.842 -1.52309 0.404946 0
M  V30 6617 C 652.772 -2.29805 -0.41376 0
M  V30 6618 C 653.753 -1.3384 -1.0498 0
M  V30 6619 O 654.938 -1.62745 -1.05961 0
M  V30 6620 C 652.068 -3.11639 -1.53292 0
M  V30 6621 C 651.022 -4.15616 -1.02211 0
M  V30 6622 C 650.348 -4.8577 -2.23455 0
M  V30 6623 C 651.648 -5.2224 -0.0790725 0
M  V30 6624 H 653.342 -2.98493 0.232878 0
M  V30 6625 H 650.888 -1.43552 0.113441 0
M  V30 6626 H 652.841 -3.64618 -2.11262 0
M  V30 6627 H 651.565 -2.40712 -2.20738 0
M  V30 6628 H 650.224 -3.63641 -0.46484 0
M  V30 6629 H 649.872 -4.11376 -2.89445 0
M  V30 6630 H 649.572 -5.56058 -1.89929 0
M  V30 6631 H 651.096 -5.4156 -2.82038 0
M  V30 6632 H 652.51 -5.70485 -0.567438 0
M  V30 6633 H 650.907 -5.99867 0.167167 0
M  V30 6634 H 651.977 -4.77078 0.867447 0
M  V30 6635 N 653.32 -0.135238 -1.57019 0
M  V30 6636 C 654.736 0.221262 -1.58059 0
M  V30 6637 C 654.936 1.65538 -1.14889 0
M  V30 6638 O 653.992 2.37985 -0.843751 0
M  V30 6639 C 655.305 -0.0268114 -3.00688 0
M  V30 6640 C 656.853 0.0378206 -3.12977 0
M  V30 6641 C 657.328 -0.182769 -4.57635 0
M  V30 6642 N 658.819 -0.129292 -4.6302 0
M  V30 6643 C 659.554 -0.274648 -5.72742 0
M  V30 6644 N 659.05 -0.477075 -6.91155 0
M  V30 6645 N 660.843 -0.213077 -5.61696 0
M  V30 6646 H 652.994 -1.07177 -1.83376 0
M  V30 6647 H 655.257 -0.423338 -0.848227 0
M  V30 6648 H 654.963 -1.01889 -3.36618 0
M  V30 6649 H 654.837 0.697863 -3.70688 0
M  V30 6650 H 657.224 1.02043 -2.76896 0
M  V30 6651 H 657.305 -0.718996 -2.45487 0
M  V30 6652 H 656.949 -1.16243 -4.94419 0
M  V30 6653 H 656.879 0.59423 -5.23237 0
M  V30 6654 H 659.37 0.0229896 -3.77893 0
M  V30 6655 H 659.683 -0.578413 -7.70632 0
M  V30 6656 H 658.028 -0.513252 -6.93102 0
M  V30 6657 H 661.219 -0.0557796 -4.68067 0
M  V30 6658 H 661.392 -0.329796 -6.4716 0
M  V30 6659 N 654.798 1.5699 0.138552 0
M  V30 6660 C 656.026 1.87976 0.864437 0
M  V30 6661 C 656.441 0.724372 1.74351 0
M  V30 6662 O 655.798 -0.305575 1.79924 0
M  V30 6663 C 655.849 3.18276 1.71414 0
M  V30 6664 O 655.57 4.29365 0.870487 0
M  V30 6665 C 657.071 3.62834 2.54688 0
M  V30 6666 H 654.291 0.622878 0.249528 0
M  V30 6667 H 656.835 2.04094 0.128805 0
M  V30 6668 H 654.99 3.03886 2.40274 0
M  V30 6669 H 655.404 5.03924 1.45466 0
M  V30 6670 H 656.878 4.5682 3.0987 0
M  V30 6671 H 657.355 2.88533 3.31127 0
M  V30 6672 H 657.961 3.79946 1.91105 0
M  V30 6673 N 656.276 -0.40816 1.52223 0
M  V30 6674 C 657.524 -1.15274 1.66001 0
M  V30 6675 C 657.845 -1.91003 0.392803 0
M  V30 6676 O 657.115 -1.8673 -0.592336 0
M  V30 6677 H 655.695 -0.428526 0.611861 0
M  V30 6678 H 658.357 -0.46512 1.89269 0
M  V30 6679 H 657.453 -1.86628 2.50153 0
M  V30 6680 N 657.755 -1.42862 -0.66545 0
M  V30 6681 C 658.702 -1.4707 -1.77874 0
M  V30 6682 C 659.672 -0.321654 -1.62956 0
M  V30 6683 O 660.857 -0.52707 -1.83376 0
M  V30 6684 C 657.997 -1.38788 -3.15962 0
M  V30 6685 C 657.11 -2.63801 -3.42101 0
M  V30 6686 C 656.245 -2.47594 -4.69969 0
M  V30 6687 C 655.284 -3.67936 -4.89172 0
M  V30 6688 N 654.421 -3.50614 -6.08288 0
M  V30 6689 H 659.261 -2.42204 -1.73613 0
M  V30 6690 H 656.798 -1.20239 -0.847401 0
M  V30 6691 H 658.756 -1.31982 -3.95773 0
M  V30 6692 H 657.386 -0.472431 -3.19324 0
M  V30 6693 H 656.438 -2.80935 -2.56475 0
M  V30 6694 H 657.75 -3.53228 -3.52181 0
M  V30 6695 H 656.904 -2.38427 -5.57886 0
M  V30 6696 H 655.643 -1.55672 -4.62188 0
M  V30 6697 H 654.648 -3.77525 -3.99694 0
M  V30 6698 H 655.873 -4.60851 -4.98792 0
M  V30 6699 H 653.819 -2.61417 -6.01662 0
M  V30 6700 H 653.736 -4.33634 -6.19272 0
M  V30 6701 H 655.004 -3.45276 -6.98859 0
M  V30 6702 N 659.233 0.902656 -1.29189 0
M  V30 6703 C 660.143 2.03946 -1.15944 0
M  V30 6704 C 661.159 1.738 -0.0833803 0
M  V30 6705 O 662.335 1.9923 -0.29487 0
M  V30 6706 C 659.4 3.36519 -0.834006 0
M  V30 6707 C 658.461 3.80203 -1.9936 0
M  V30 6708 C 657.694 5.06449 -1.68359 0
M  V30 6709 O 657.917 5.67202 -0.603141 0
M  V30 6710 O 656.851 5.46114 -2.53067 0
M  V30 6711 H 660.677 2.18043 -2.11403 0
M  V30 6712 H 658.262 1.02584 -1.08613 0
M  V30 6713 H 660.144 4.16089 -0.666949 0
M  V30 6714 H 658.819 3.23573 0.0908245 0
M  V30 6715 H 657.726 3.01413 -2.21588 0
M  V30 6716 H 659.059 3.97729 -2.89952 0
M  V30 6717 N 660.711 1.11618 1.11262 0
M  V30 6718 C 661.658 0.7762 2.17356 0
M  V30 6719 C 662.628 -0.253152 1.6416 0
M  V30 6720 O 663.813 -0.129655 1.90359 0
M  V30 6721 C 660.953 0.227581 3.44349 0
M  V30 6722 C 660.066 1.31372 4.1154 0
M  V30 6723 C 659.201 0.72544 5.26223 0
M  V30 6724 C 658.24 1.7913 5.85302 0
M  V30 6725 N 657.377 1.22237 6.91377 0
M  V30 6726 H 662.217 1.68508 2.45783 0
M  V30 6727 H 659.754 0.841475 1.20655 0
M  V30 6728 H 661.712 -0.108483 4.17059 0
M  V30 6729 H 660.342 -0.644486 3.16301 0
M  V30 6730 H 659.394 1.7667 3.36885 0
M  V30 6731 H 660.706 2.12005 4.51504 0
M  V30 6732 H 659.86 0.339541 6.05749 0
M  V30 6733 H 658.599 -0.112188 4.87571 0
M  V30 6734 H 657.604 2.18648 5.04453 0
M  V30 6735 H 658.829 2.63199 6.26022 0
M  V30 6736 H 656.775 0.406423 6.5474 0
M  V30 6737 H 656.692 1.9654 7.30006 0
M  V30 6738 H 657.96 0.863426 7.74703 0
M  V30 6739 N 662.189 -1.289 0.906776 0
M  V30 6740 C 663.435 -1.95558 0.53712 0
M  V30 6741 C 663.768 -1.71262 -0.915582 0
M  V30 6742 O 663.043 -1.02961 -1.65013 0
M  V30 6743 C 663.326 -3.50198 0.838645 0
M  V30 6744 C 663.179 -3.83923 2.34357 0
M  V30 6745 C 664.498 -4.38861 0.329988 0
M  V30 6746 H 661.617 -0.710289 0.196617 0
M  V30 6747 H 664.259 -1.52392 1.13475 0
M  V30 6748 H 662.409 -3.87096 0.330024 0
M  V30 6749 H 664.081 -3.56933 2.92227 0
M  V30 6750 H 662.324 -3.31215 2.80141 0
M  V30 6751 H 662.995 -4.91883 2.5051 0
M  V30 6752 H 665.471 -4.08996 0.765609 0
M  V30 6753 H 664.347 -5.45931 0.570105 0
M  V30 6754 H 664.608 -4.35352 -0.769511 0
M  V30 6755 N 663.667 -0.670007 -1.42649 0
M  V30 6756 C 664.895 -0.19854 -2.05945 0
M  V30 6757 C 665.31 1.14243 -1.50313 0
M  V30 6758 O 664.667 1.70872 -0.641027 0
M  V30 6759 C 664.718 -0.11966 -3.61302 0
M  V30 6760 O 664.439 -1.40764 -4.1487 0
M  V30 6761 C 665.94 0.375878 -4.41704 0
M  V30 6762 H 663.16 -0.0976894 -0.663851 0
M  V30 6763 H 665.704 -0.915392 -1.82868 0
M  V30 6764 H 663.859 0.547851 -3.83507 0
M  V30 6765 H 664.273 -1.27784 -5.08696 0
M  V30 6766 H 665.747 0.379988 -5.50691 0
M  V30 6767 H 666.224 1.41028 -4.15942 0
M  V30 6768 H 666.83 -0.259727 -4.24506 0
M  V30 6769 N 665.145 1.52092 -0.413018 0
M  V30 6770 C 666.37 2.06756 0.163338 0
M  V30 6771 C 666.795 1.28073 1.37764 0
M  V30 6772 O 666.153 0.312015 1.78595 0
M  V30 6773 C 666.201 3.57278 0.488322 0
M  V30 6774 O 665.305 3.80986 1.57871 0
M  V30 6775 H 664.646 0.663882 0.0125068 0
M  V30 6776 H 667.176 1.95988 -0.587339 0
M  V30 6777 H 667.186 4.01125 0.745836 0
M  V30 6778 H 665.861 4.13978 -0.399327 0
M  V30 6779 H 664.438 3.49017 1.31306 0
M  V30 6780 N 666.623 0.143563 1.56945 0
M  V30 6781 C 667.871 -0.507402 1.95627 0
M  V30 6782 C 668.192 -1.65626 1.02922 0
M  V30 6783 O 667.462 -1.95693 0.0901136 0
M  V30 6784 H 666.042 -0.190436 0.722318 0
M  V30 6785 H 668.704 0.218257 1.93674 0
M  V30 6786 H 667.8 -0.885816 2.99265 0
M  V30 6787 N 668.101 -1.57061 -0.130224 0
M  V30 6788 C 669.326 -1.88802 -0.858409 0
M  V30 6789 C 669.751 -0.734353 -1.73173 0
M  V30 6790 O 669.109 0.315529 -1.78533 0
M  V30 6791 C 669.157 -3.19228 -1.67708 0
M  V30 6792 O 668.261 -3.04343 -2.78297 0
M  V30 6793 H 667.602 -0.619849 -0.238083 0
M  V30 6794 H 670.132 -2.04271 -0.115995 0
M  V30 6795 H 670.142 -3.51669 -2.06864 0
M  V30 6796 H 668.817 -4.02793 -1.0359 0
M  V30 6797 H 667.394 -2.83346 -2.42425 0
M  V30 6798 N 669.579 0.400081 -1.52437 0
M  V30 6799 C 670.807 1.16768 -1.70801 0
M  V30 6800 C 671.222 1.84036 -0.421462 0
M  V30 6801 O 670.579 1.72242 0.603228 0
M  V30 6802 C 670.63 2.22403 -2.8499 0
M  V30 6803 O 670.351 1.57879 -4.08663 0
M  V30 6804 C 671.852 3.11974 -3.1494 0
M  V30 6805 H 669.072 0.350533 -0.57216 0
M  V30 6806 H 671.616 0.469534 -1.99037 0
M  V30 6807 H 669.771 2.87871 -2.59247 0
M  V30 6808 H 670.185 2.27982 -4.7236 0
M  V30 6809 H 671.659 3.82148 -3.9833 0
M  V30 6810 H 672.136 3.74858 -2.28863 0
M  V30 6811 H 672.742 2.52165 -3.42481 0
M  V30 6812 N 671.057 1.43213 0.657864 0
M  V30 6813 C 672.285 1.48015 1.44566 0
M  V30 6814 C 672.7 0.0965951 1.88553 0
M  V30 6815 O 672.057 -0.892221 1.59203 0
M  V30 6816 C 672.108 2.42199 2.68369 0
M  V30 6817 O 671.829 3.75173 2.26223 0
M  V30 6818 C 673.33 2.56195 3.61772 0
M  V30 6819 H 670.55 0.502861 0.444266 0
M  V30 6820 H 673.094 1.87907 0.806917 0
M  V30 6821 H 671.249 2.05514 3.28394 0
M  V30 6822 H 671.663 4.25776 3.06293 0
M  V30 6823 H 673.137 3.26182 4.4532 0
M  V30 6824 H 673.614 1.60534 4.0881 0
M  V30 6825 H 674.22 2.93671 3.07632 0
M  V30 6826 N 672.536 -0.895792 1.29666 0
M  V30 6827 C 673.764 -1.68001 1.20761 0
M  V30 6828 C 674.179 -1.87379 -0.231187 0
M  V30 6829 O 673.536 -1.41359 -1.15429 0
M  V30 6830 C 673.587 -3.06236 1.92098 0
M  V30 6831 O 673.308 -2.8774 3.30359 0
M  V30 6832 C 674.809 -4.00652 1.89717 0
M  V30 6833 H 672.029 -0.524591 0.418384 0
M  V30 6834 H 674.573 -1.11995 1.71106 0
M  V30 6835 H 672.728 -3.59007 1.45578 0
M  V30 6836 H 673.142 -3.75359 3.66342 0
M  V30 6837 H 674.616 -4.95051 2.44189 0
M  V30 6838 H 675.093 -4.30424 0.873595 0
M  V30 6839 H 675.699 -3.53815 2.35998 0
M  V30 6840 N 674.014 -1.12206 -1.10668 0
M  V30 6841 C 675.242 -0.898635 -1.86366 0
M  V30 6842 C 675.657 0.551991 -1.80551 0
M  V30 6843 O 675.014 1.38152 -1.19249 0
M  V30 6844 C 675.065 -1.36199 -3.34861 0
M  V30 6845 O 674.786 -2.75576 -3.40573 0
M  V30 6846 C 676.287 -1.17515 -4.2744 0
M  V30 6847 H 673.507 -0.321281 -0.589084 0
M  V30 6848 H 676.051 -1.49142 -1.39918 0
M  V30 6849 H 674.206 -0.81249 -3.78784 0
M  V30 6850 H 674.62 -2.95851 -4.33096 0
M  V30 6851 H 676.094 -1.54827 -5.29842 0
M  V30 6852 H 676.571 -0.115486 -4.39048 0
M  V30 6853 H 677.177 -1.71203 -3.89319 0
M  V30 6854 N 675.492 1.28418 -0.913599 0
M  V30 6855 C 676.908 1.47411 -0.611728 0
M  V30 6856 C 677.108 1.83018 0.843008 0
M  V30 6857 O 676.164 1.93505 1.6221 0
M  V30 6858 C 677.477 2.57703 -1.5495 0
M  V30 6859 C 679.025 2.71572 -1.5562 0
M  V30 6860 C 679.5 3.85008 -2.48058 0
M  V30 6861 N 680.991 3.92361 -2.46184 0
M  V30 6862 C 681.726 4.79516 -3.14407 0
M  V30 6863 N 681.222 5.71262 -3.91958 0
M  V30 6864 N 683.015 4.73125 -3.03495 0
M  V30 6865 H 675.166 1.03585 -1.85429 0
M  V30 6866 H 677.429 0.515907 -0.795326 0
M  V30 6867 H 677.135 2.38298 -2.58663 0
M  V30 6868 H 677.009 3.54801 -1.28048 0
M  V30 6869 H 679.396 2.90366 -0.526441 0
M  V30 6870 H 679.477 1.75006 -1.86565 0
M  V30 6871 H 679.121 3.66969 -3.51136 0
M  V30 6872 H 679.051 4.80971 -2.14416 0
M  V30 6873 H 681.542 3.26749 -1.89851 0
M  V30 6874 H 681.855 6.34593 -4.41034 0
M  V30 6875 H 680.2 5.71103 -3.96063 0
M  V30 6876 H 683.391 4.00442 -2.42413 0
M  V30 6877 H 683.564 5.40834 -3.56935 0
M  V30 6878 N 676.97 0.677563 1.42291 0
M  V30 6879 C 678.386 0.347376 1.55774 0
M  V30 6880 C 678.586 -1.14703 1.65667 0
M  V30 6881 O 677.642 -1.93252 1.62512 0
M  V30 6882 C 678.955 1.08011 2.80631 0
M  V30 6883 C 680.503 1.06271 2.94407 0
M  V30 6884 C 680.978 1.77683 4.22129 0
M  V30 6885 N 682.469 1.74564 4.29047 0
M  V30 6886 C 683.204 2.26673 5.26694 0
M  V30 6887 N 682.7 2.87176 6.30477 0
M  V30 6888 N 684.493 2.17032 5.18511 0
M  V30 6889 H 676.644 1.64703 1.34114 0
M  V30 6890 H 678.907 0.694038 0.645768 0
M  V30 6891 H 678.613 2.13518 2.79469 0
M  V30 6892 H 678.487 0.647115 3.71608 0
M  V30 6893 H 680.874 0.0159658 2.95096 0
M  V30 6894 H 680.955 1.53461 2.04654 0
M  V30 6895 H 680.599 2.82327 4.22201 0
M  V30 6896 H 680.529 1.2794 5.10822 0
M  V30 6897 H 683.02 1.30436 3.54676 0
M  V30 6898 H 683.333 3.24551 7.01346 0
M  V30 6899 H 681.678 2.91247 6.31031 0
M  V30 6900 H 684.869 1.69451 4.36353 0
M  V30 6901 H 685.042 2.57948 5.94446 0
M  V30 6902 N 678.448 -1.51871 0.421078 0
M  V30 6903 C 679.673 -2.0684 -0.152371 0
M  V30 6904 C 680.098 -1.28802 -1.37083 0
M  V30 6905 O 679.456 -0.321482 -1.78427 0
M  V30 6906 C 679.504 -3.57532 -0.469368 0
M  V30 6907 O 678.608 -3.81818 -1.55848 0
M  V30 6908 H 677.949 -0.663939 -0.00898586 0
M  V30 6909 H 680.479 -1.95674 0.597724 0
M  V30 6910 H 680.489 -4.01515 -0.724553 0
M  V30 6911 H 679.164 -4.13761 0.421276 0
M  V30 6912 H 677.741 -3.49709 -1.29453 0
M  V30 6913 N 679.926 -0.151884 -1.56866 0
M  V30 6914 C 681.166 0.500695 -1.98173 0
M  V30 6915 C 681.53 1.61715 -1.03499 0
M  V30 6916 O 682.731 2.33093 -1.33869 0
M  V30 6917 C 681.002 0.989333 -3.43434 0
M  V30 6918 S 682.561 1.64583 -4.06765 0
M  V30 6919 H 679.379 0.16173 -0.692361 0
M  V30 6920 H 681.981 -0.244754 -1.93962 0
M  V30 6921 H 680.685 0.166072 -4.10064 0
M  V30 6922 H 680.216 1.76929 -3.51368 0
M  V30 6923 H 682.231 2.93326 -4.00218 0
M  V30 6924 N 681.404 1.57128 0.121893 0
M  V30 6925 C 682.629 1.89254 0.848385 0
M  V30 6926 C 683.054 0.743527 1.72781 0
M  V30 6927 O 682.412 -0.306056 1.78698 0
M  V30 6928 C 682.46 3.20113 1.66012 0
M  V30 6929 O 681.564 3.05815 2.76679 0
M  V30 6930 H 680.905 0.621103 0.234793 0
M  V30 6931 H 683.435 2.0433 0.10516 0
M  V30 6932 H 683.445 3.52761 2.04996 0
M  V30 6933 H 682.12 4.03336 1.01452 0
M  V30 6934 H 680.697 2.84627 2.40918 0
M  V30 6935 N 682.882 -0.391992 1.52647 0
M  V30 6936 C 683.829 -1.47866 1.77213 0
M  V30 6937 C 684.799 -1.54286 0.615223 0
M  V30 6938 O 685.984 -1.7059 0.854622 0
M  V30 6939 C 683.124 -2.85129 1.94411 0
M  V30 6940 C 682.237 -2.87883 3.22098 0
M  V30 6941 C 681.372 -4.16553 3.29631 0
M  V30 6942 C 680.411 -4.13348 4.51453 0
M  V30 6943 N 679.548 -5.33619 4.56284 0
M  V30 6944 H 684.388 -1.26219 2.6995 0
M  V30 6945 H 681.925 -0.612367 1.33748 0
M  V30 6946 H 683.883 -3.64833 2.02367 0
M  V30 6947 H 682.513 -3.05232 1.05038 0
M  V30 6948 H 681.565 -2.00567 3.23229 0
M  V30 6949 H 682.877 -2.81382 4.11856 0
M  V30 6950 H 682.031 -5.0466 3.36753 0
M  V30 6951 H 680.77 -4.25773 2.37842 0
M  V30 6952 H 679.775 -3.23629 4.44459 0
M  V30 6953 H 681 -4.05754 5.44555 0
M  V30 6954 H 678.946 -5.43474 3.67385 0
M  V30 6955 H 678.863 -5.29182 5.3991 0
M  V30 6956 H 680.131 -6.23632 4.67657 0
M  V30 6957 N 684.36 -1.4356 -0.65026 0
M  V30 6958 C 685.588 -1.48779 -1.43779 0
M  V30 6959 C 686.003 -0.106593 -1.88499 0
M  V30 6960 O 685.36 0.883766 -1.59674 0
M  V30 6961 C 685.411 -2.43618 -2.67081 0
M  V30 6962 O 685.132 -3.76367 -2.24231 0
M  V30 6963 C 686.633 -2.5811 -3.60409 0
M  V30 6964 H 683.853 -0.50521 -0.441593 0
M  V30 6965 H 686.397 -1.88332 -0.796941 0
M  V30 6966 H 684.552 -2.07253 -3.273 0
M  V30 6967 H 684.966 -4.27394 -3.0403 0
M  V30 6968 H 686.44 -3.28539 -4.43583 0
M  V30 6969 H 686.917 -1.627 -4.07953 0
M  V30 6970 H 687.523 -2.95298 -3.0607 0
M  V30 6971 N 685.838 0.888903 -1.30139 0
M  V30 6972 C 687.084 1.6428 -1.18912 0
M  V30 6973 C 687.417 1.92499 0.256477 0
M  V30 6974 O 686.692 1.54312 1.18397 0
M  V30 6975 C 686.975 2.9851 -2.01405 0
M  V30 6976 C 686.828 2.77288 -3.54163 0
M  V30 6977 C 688.147 3.99383 -1.84882 0
M  V30 6978 H 685.266 0.596148 -0.433333 0
M  V30 6979 H 687.908 1.0289 -1.5973 0
M  V30 6980 H 686.058 3.50907 -1.66722 0
M  V30 6981 H 687.73 2.31709 -3.98884 0
M  V30 6982 H 685.973 2.11867 -3.78543 0
M  V30 6983 H 686.644 3.72717 -4.07168 0
M  V30 6984 H 689.12 3.56132 -2.15196 0
M  V30 6985 H 687.996 4.91222 -2.44934 0
M  V30 6986 H 688.257 4.34674 -0.806902 0
M  V30 6987 N 687.317 1.12792 1.10072 0
M  V30 6988 C 688.545 0.908506 1.85886 0
M  V30 6989 C 688.96 -0.542408 1.80841 0
M  V30 6990 O 688.317 -1.37517 1.1998 0
M  V30 6991 C 688.368 1.37973 3.34134 0
M  V30 6992 O 688.089 2.77378 3.39106 0
M  V30 6993 C 689.59 1.1978 4.26811 0
M  V30 6994 H 686.81 0.3244 0.587372 0
M  V30 6995 H 689.354 1.49882 1.39125 0
M  V30 6996 H 687.509 0.832566 3.78348 0
M  V30 6997 H 687.923 2.98144 4.31521 0
M  V30 6998 H 689.397 1.57635 5.29014 0
M  V30 6999 H 689.874 0.138768 4.38981 0
M  V30 7000 H 690.48 1.73266 3.88406 0
M  V30 7001 N 688.795 -1.27931 0.920396 0
M  V30 7002 C 689.742 -2.27085 0.412422 0
M  V30 7003 C 690.712 -1.57858 -0.516725 0
M  V30 7004 O 691.897 -1.85717 -0.437475 0
M  V30 7005 C 689.037 -3.43466 -0.335399 0
M  V30 7006 C 688.15 -4.27425 0.627017 0
M  V30 7007 C 687.285 -5.31016 -0.139916 0
M  V30 7008 C 686.324 -6.06641 0.815683 0
M  V30 7009 N 685.461 -7.02052 0.0818439 0
M  V30 7010 H 690.301 -2.69913 1.26298 0
M  V30 7011 H 687.838 -1.32732 0.634076 0
M  V30 7012 H 689.796 -4.09744 -0.785226 0
M  V30 7013 H 688.426 -3.01611 -1.15025 0
M  V30 7014 H 687.478 -3.6113 1.19537 0
M  V30 7015 H 688.79 -4.79969 1.35763 0
M  V30 7016 H 687.944 -6.03208 -0.649998 0
M  V30 7017 H 686.683 -4.79257 -0.903543 0
M  V30 7018 H 685.688 -5.33294 1.33708 0
M  V30 7019 H 686.913 -6.60489 1.57897 0
M  V30 7020 H 684.859 -6.52634 -0.663671 0
M  V30 7021 H 684.776 -7.52249 0.752163 0
M  V30 7022 H 686.044 -7.78432 -0.407825 0
M  V30 7023 N 690.273 -0.685099 -1.4193 0
M  V30 7024 C 691.501 -0.220372 -2.05723 0
M  V30 7025 C 691.916 1.12642 -1.51516 0
M  V30 7026 O 691.273 1.70182 -0.659114 0
M  V30 7027 C 691.324 -0.157974 -3.61155 0
M  V30 7028 O 691.045 -1.45156 -4.13354 0
M  V30 7029 C 692.546 0.329009 -4.42077 0
M  V30 7030 H 689.766 -0.104725 -0.662777 0
M  V30 7031 H 692.31 -0.934736 -1.81887 0
M  V30 7032 H 690.465 0.507144 -3.84066 0
M  V30 7033 H 690.879 -1.33172 -5.07312 0
M  V30 7034 H 692.353 0.321559 -5.51063 0
M  V30 7035 H 692.83 1.36608 -4.17414 0
M  V30 7036 H 693.436 -0.304737 -4.24207 0
M  V30 7037 N 691.751 1.51645 -0.429126 0
M  V30 7038 C 692.997 2.02314 0.140286 0
M  V30 7039 C 693.33 1.31314 1.43074 0
M  V30 7040 O 692.605 0.425531 1.89788 0
M  V30 7041 C 692.888 3.5822 0.36749 0
M  V30 7042 C 692.741 4.39846 -0.941039 0
M  V30 7043 C 694.06 4.25055 1.14089 0
M  V30 7044 H 691.179 0.735335 0.0495112 0
M  V30 7045 H 693.821 1.81358 -0.566514 0
M  V30 7046 H 691.971 3.76207 0.969556 0
M  V30 7047 H 693.643 4.33527 -1.57646 0
M  V30 7048 H 691.886 4.05259 -1.54751 0
M  V30 7049 H 692.557 5.47069 -0.73621 0
M  V30 7050 H 695.033 4.11288 0.630986 0
M  V30 7051 H 693.909 5.34038 1.26863 0
M  V30 7052 H 694.17 3.85358 2.16683 0
M  V30 7053 N 693.229 0.160201 1.56784 0
M  V30 7054 C 694.478 -0.487619 1.95717 0
M  V30 7055 C 694.791 -1.65136 1.0483 0
M  V30 7056 O 695.997 -2.36468 1.33398 0
M  V30 7057 C 694.453 -0.91888 3.47972 0
M  V30 7058 C 694.061 0.218655 4.47466 0
M  V30 7059 C 695.805 -1.53575 3.95746 0
M  V30 7060 C 693.712 -0.231614 5.90946 0
M  V30 7061 H 692.642 -0.185939 0.730714 0
M  V30 7062 H 695.293 0.246657 1.81835 0
M  V30 7063 H 693.675 -1.70881 3.57234 0
M  V30 7064 H 694.849 0.995825 4.49911 0
M  V30 7065 H 693.164 0.744767 4.09685 0
M  V30 7066 H 695.761 -1.88448 5.00391 0
M  V30 7067 H 696.104 -2.42959 3.38048 0
M  V30 7068 H 696.637 -0.810467 3.89456 0
M  V30 7069 H 693.376 0.62718 6.52493 0
M  V30 7070 H 692.896 -0.974379 5.91833 0
M  V30 7071 H 694.575 -0.67922 6.43425 0
M  V30 7072 N 694.707 -1.5719 -0.113559 0
M  V30 7073 C 695.955 -1.84772 -0.818761 0
M  V30 7074 C 696.276 -0.746196 -1.80158 0
M  V30 7075 O 695.546 0.229305 -1.94553 0
M  V30 7076 H 694.126 -0.681737 -0.305359 0
M  V30 7077 H 696.788 -1.94645 -0.0995845 0
M  V30 7078 H 695.884 -2.80878 -1.36067 0
M  V30 7079 N 696.185 0.383891 -1.52853 0
M  V30 7080 C 697.596 0.961591 -1.60032 0
M  V30 7081 C 697.947 1.90819 -0.456333 0
M  V30 7082 O 697.072 2.12288 0.419873 0
M  V30 7083 C 697.667 1.75078 -2.90057 0
M  V30 7084 C 696.226 2.2781 -2.99632 0
M  V30 7085 C 695.373 1.08512 -2.55187 0
M  V30 7086 H 698.324 0.163269 -1.57858 0
M  V30 7087 H 698.345 2.61046 -2.7683 0
M  V30 7088 H 697.857 1.06157 -3.73299 0
M  V30 7089 H 695.958 3.00028 -2.20939 0
M  V30 7090 H 696.071 2.56947 -4.0437 0
M  V30 7091 H 694.435 1.44667 -2.09627 0
M  V30 7092 H 695.218 0.41118 -3.40829 0
M  V30 7093 N 697.663 1.43903 0.642637 0
M  V30 7094 C 698.94 1.36556 1.40043 0
M  V30 7095 C 699.32 0.0185588 2.11092 0
M  V30 7096 O 698.668 -0.998438 2.05532 0
M  V30 7097 C 698.878 2.55596 2.37638 0
M  V30 7098 C 700.226 2.99153 3.01318 0
M  V30 7099 O 701.25 2.55719 2.47965 0
M  V30 7100 O 700.109 3.74427 3.98078 0
M  V30 7101 H 697.203 0.540189 0.626198 0
M  V30 7102 H 699.749 1.55971 0.668657 0
M  V30 7103 H 698.521 3.45256 1.84158 0
M  V30 7104 H 698.144 2.38334 3.18249 0
M  V30 7105 N 699.141 -0.881989 1.30609 0
M  V30 7106 C 700.389 -1.63082 1.19368 0
M  V30 7107 C 700.71 -1.93376 -0.251147 0
M  V30 7108 O 699.98 -1.5723 -1.16857 0
M  V30 7109 H 698.56 -0.604542 0.438791 0
M  V30 7110 H 701.222 -1.05658 1.63776 0
M  V30 7111 H 700.318 -2.57966 1.7567 0
M  V30 7112 N 700.619 -1.13374 -1.09472 0
M  V30 7113 C 701.569 -0.77946 -2.14263 0
M  V30 7114 C 702.553 0.226271 -1.59301 0
M  V30 7115 O 703.745 0.0302581 -1.76974 0
M  V30 7116 C 700.874 -0.246635 -3.42413 0
M  V30 7117 C 699.96 -1.28124 -4.04283 0
M  V30 7118 N 700.351 -2.48201 -4.40715 0
M  V30 7119 C 698.649 -1.12892 -4.31476 0
M  V30 7120 C 699.35 -3.14347 -4.8945 0
M  V30 7121 N 698.326 -2.41771 -4.86876 0
M  V30 7122 H 702.128 -1.69305 -2.40235 0
M  V30 7123 H 699.642 -1.01598 -1.26695 0
M  V30 7124 H 701.639 0.0254131 -4.16892 0
M  V30 7125 H 700.299 0.661287 -3.17895 0
M  V30 7126 H 701.31 -2.85511 -4.32093 0
M  V30 7127 H 697.987 -0.279117 -4.16566 0
M  V30 7128 H 699.377 -4.16663 -5.27107 0
M  V30 7129 N 702.098 1.27442 -0.927168 0
M  V30 7130 C 703.045 2.26863 -0.424459 0
M  V30 7131 C 704.015 1.5813 0.508346 0
M  V30 7132 O 705.2 1.85946 0.42762 0
M  V30 7133 C 702.34 3.43639 0.31718 0
M  V30 7134 C 701.453 4.27087 -0.649675 0
M  V30 7135 C 700.588 5.31082 0.111753 0
M  V30 7136 C 699.627 6.062 -0.847843 0
M  V30 7137 N 698.764 7.01999 -0.119074 0
M  V30 7138 H 703.604 2.69239 -1.27728 0
M  V30 7139 H 701.141 1.32394 -0.641106 0
M  V30 7140 H 703.099 4.10155 0.763486 0
M  V30 7141 H 701.729 3.02217 1.13424 0
M  V30 7142 H 700.781 3.60491 -1.21451 0
M  V30 7143 H 702.093 4.79242 -1.38307 0
M  V30 7144 H 701.247 6.03544 0.618 0
M  V30 7145 H 699.986 4.7973 0.878114 0
M  V30 7146 H 698.991 5.32577 -1.36534 0
M  V30 7147 H 700.216 6.59642 -1.61398 0
M  V30 7148 H 698.162 6.52977 0.629051 0
M  V30 7149 H 698.079 7.5184 -0.792046 0
M  V30 7150 H 699.347 7.78638 0.366537 0
M  V30 7151 N 703.576 0.692616 1.41565 0
M  V30 7152 C 704.486 0.0258451 2.34586 0
M  V30 7153 C 705.502 -0.769324 1.56069 0
M  V30 7154 O 706.678 -0.707563 1.88562 0
M  V30 7155 C 703.743 -0.901289 3.3478 0
M  V30 7156 C 702.804 -0.0986579 4.29187 0
M  V30 7157 C 702.037 -0.981634 5.24595 0
M  V30 7158 O 702.26 -2.22115 5.25377 0
M  V30 7159 O 701.194 -0.432892 6.00341 0
M  V30 7160 H 705.02 0.792537 2.93177 0
M  V30 7161 H 702.605 0.452935 1.42369 0
M  V30 7162 H 704.487 -1.43302 3.96286 0
M  V30 7163 H 703.162 -1.64752 2.78637 0
M  V30 7164 H 702.069 0.477604 3.71039 0
M  V30 7165 H 703.402 0.608848 4.8842 0
M  V30 7166 N 705.054 -1.51416 0.437162 0
M  V30 7167 C 706.3 -2.02386 -0.129555 0
M  V30 7168 C 706.633 -1.32071 -1.42376 0
M  V30 7169 O 705.908 -0.43559 -1.8956 0
M  V30 7170 C 706.191 -3.5841 -0.348487 0
M  V30 7171 C 706.044 -4.39341 0.964352 0
M  V30 7172 C 707.363 -4.25654 -1.11834 0
M  V30 7173 H 704.482 -0.735587 -0.0456109 0
M  V30 7174 H 707.124 -1.81055 0.576124 0
M  V30 7175 H 705.274 -3.76716 -0.949592 0
M  V30 7176 H 706.946 -4.32685 1.59942 0
M  V30 7177 H 705.189 -4.04432 1.56898 0
M  V30 7178 H 705.86 -5.4667 0.765212 0
M  V30 7179 H 708.336 -4.11617 -0.609165 0
M  V30 7180 H 707.212 -5.34704 -1.24029 0
M  V30 7181 H 707.473 -3.86502 -2.14636 0
M  V30 7182 N 706.532 -0.168513 -1.56696 0
M  V30 7183 C 707.76 0.483503 -2.01171 0
M  V30 7184 C 708.175 1.56994 -1.04872 0
M  V30 7185 O 707.532 1.82434 -0.0491337 0
M  V30 7186 C 707.583 1.0644 -3.45475 0
M  V30 7187 O 707.304 0.0213375 -4.38095 0
M  V30 7188 C 708.805 1.79493 -4.05336 0
M  V30 7189 H 706.025 0.124002 -0.659443 0
M  V30 7190 H 708.569 -0.269419 -2.02717 0
M  V30 7191 H 706.724 1.76784 -3.44712 0
M  V30 7192 H 707.138 0.449837 -5.22567 0
M  V30 7193 H 708.612 2.15401 -5.08238 0
M  V30 7194 H 709.089 2.68889 -3.47269 0
M  V30 7195 H 709.695 1.13798 -4.09793 0
M  V30 7196 N 708.01 1.57248 0.105221 0
M  V30 7197 C 708.957 2.01338 1.12835 0
M  V30 7198 C 709.927 0.887897 1.40377 0
M  V30 7199 O 711.112 1.15315 1.5201 0
M  V30 7200 C 708.252 2.43432 2.44611 0
M  V30 7201 C 707.365 3.69457 2.23888 0
M  V30 7202 C 706.5 4.00473 3.48991 0
M  V30 7203 C 705.539 5.19638 3.23485 0
M  V30 7204 N 704.676 5.46457 4.40828 0
M  V30 7205 H 709.516 2.88527 0.745386 0
M  V30 7206 H 707.053 1.42714 0.356535 0
M  V30 7207 H 709.011 2.65879 3.21503 0
M  V30 7208 H 707.641 1.59266 2.80774 0
M  V30 7209 H 706.693 3.54545 1.37847 0
M  V30 7210 H 708.005 4.56497 2.01026 0
M  V30 7211 H 707.159 4.23642 4.34295 0
M  V30 7212 H 705.898 3.11935 3.74897 0
M  V30 7213 H 704.903 4.96299 2.36574 0
M  V30 7214 H 706.128 6.09766 2.98935 0
M  V30 7215 H 704.074 4.60876 4.66829 0
M  V30 7216 H 703.991 6.27849 4.2112 0
M  V30 7217 H 705.259 5.74155 5.27225 0
M  V30 7218 N 709.488 -0.375779 1.53054 0
M  V30 7219 C 710.398 -1.48381 1.81715 0
M  V30 7220 C 711.414 -1.59087 0.704795 0
M  V30 7221 O 712.59 -1.75174 0.993785 0
M  V30 7222 C 709.655 -2.83767 1.99192 0
M  V30 7223 C 708.716 -2.82673 3.23102 0
M  V30 7224 C 707.949 -4.11601 3.39736 0
M  V30 7225 O 708.172 -5.07243 2.60885 0
M  V30 7226 O 707.106 -4.18034 4.33049 0
M  V30 7227 H 710.932 -1.27089 2.7583 0
M  V30 7228 H 708.517 -0.564902 1.38308 0
M  V30 7229 H 710.399 -3.64004 2.12318 0
M  V30 7230 H 709.074 -3.05057 1.08267 0
M  V30 7231 H 707.981 -2.0117 3.15407 0
M  V30 7232 H 709.314 -2.66335 4.13916 0
M  V30 7233 N 710.966 -1.44241 -0.634997 0
M  V30 7234 C 712.212 -1.47038 -1.39669 0
M  V30 7235 C 712.545 -0.101122 -1.93937 0
M  V30 7236 O 711.82 0.880699 -1.73418 0
M  V30 7237 C 712.103 -2.52763 -2.56482 0
M  V30 7238 C 711.956 -3.99032 -2.07589 0
M  V30 7239 C 713.275 -2.55031 -3.58674 0
M  V30 7240 H 710.394 -0.53537 -0.506506 0
M  V30 7241 H 713.036 -1.75898 -0.718317 0
M  V30 7242 H 711.186 -2.28284 -3.14354 0
M  V30 7243 H 712.858 -4.3463 -1.54577 0
M  V30 7244 H 711.101 -4.10994 -1.38804 0
M  V30 7245 H 711.772 -4.68649 -2.91671 0
M  V30 7246 H 714.248 -2.76893 -3.10595 0
M  V30 7247 H 713.124 -3.30916 -4.37934 0
M  V30 7248 H 713.385 -1.59085 -4.12486 0
M  V30 7249 N 712.444 0.87505 -1.31075 0
M  V30 7250 C 713.69 1.63009 -1.20647 0
M  V30 7251 C 714.023 1.9276 0.236045 0
M  V30 7252 O 713.298 1.55559 1.16754 0
M  V30 7253 C 713.581 2.96357 -2.0456 0
M  V30 7254 C 713.434 2.73516 -3.57084 0
M  V30 7255 C 714.753 3.974 -1.89107 0
M  V30 7256 H 711.872 0.591518 -0.439631 0
M  V30 7257 H 714.514 1.0119 -1.60812 0
M  V30 7258 H 712.664 3.49119 -1.70435 0
M  V30 7259 H 714.336 2.27465 -4.01319 0
M  V30 7260 H 712.579 2.0784 -3.80769 0
M  V30 7261 H 713.25 3.68377 -4.11099 0
M  V30 7262 H 715.726 3.5383 -2.18961 0
M  V30 7263 H 714.602 4.88596 -2.5013 0
M  V30 7264 H 714.863 4.33794 -0.85296 0
M  V30 7265 N 713.922 1.13953 1.08869 0
M  V30 7266 C 715.15 0.92817 1.84912 0
M  V30 7267 C 715.565 -0.523197 1.81406 0
M  V30 7268 O 714.922 -1.36237 1.21432 0
M  V30 7269 C 714.973 1.41509 3.32652 0
M  V30 7270 O 714.694 2.80959 3.36145 0
M  V30 7271 C 716.195 1.243 4.25517 0
M  V30 7272 H 713.415 0.330612 0.583898 0
M  V30 7273 H 715.959 1.51349 1.37527 0
M  V30 7274 H 714.114 0.872648 3.77444 0
M  V30 7275 H 714.528 3.02704 4.28335 0
M  V30 7276 H 716.002 1.63237 5.27312 0
M  V30 7277 H 716.479 0.18532 4.38809 0
M  V30 7278 H 717.085 1.77375 3.86546 0
M  V30 7279 N 715.4 -1.26948 0.933913 0
M  V30 7280 C 716.625 -1.98724 0.593589 0
M  V30 7281 C 717.05 -1.6915 -0.822801 0
M  V30 7282 O 716.408 -0.93533 -1.5531 0
M  V30 7283 C 716.456 -3.50834 0.833542 0
M  V30 7284 O 715.56 -4.12284 -0.0978788 0
M  V30 7285 H 714.901 -0.623683 0.227849 0
M  V30 7286 H 717.431 -1.61599 1.25486 0
M  V30 7287 H 717.441 -4.01018 0.75156 0
M  V30 7288 H 716.116 -3.71691 1.86597 0
M  V30 7289 H 714.693 -3.72884 0.0345443 0
M  V30 7290 N 716.879 -0.700114 -1.41195 0
M  V30 7291 C 717.789 -0.0382854 -2.34569 0
M  V30 7292 C 718.805 0.761036 -1.56474 0
M  V30 7293 O 719.981 0.697553 -1.88934 0
M  V30 7294 C 717.046 0.883522 -3.35253 0
M  V30 7295 C 716.107 0.0758957 -4.29233 0
M  V30 7296 C 715.34 0.9538 -5.25108 0
M  V30 7297 O 715.563 2.19326 -5.26547 0
M  V30 7298 O 714.497 0.401049 -6.00562 0
M  V30 7299 H 718.323 -0.808073 -2.92752 0
M  V30 7300 H 715.908 -0.460479 -1.42127 0
M  V30 7301 H 717.79 1.41199 -3.9704 0
M  V30 7302 H 716.465 1.63272 -2.79506 0
M  V30 7303 H 715.372 -0.497274 -3.7078 0
M  V30 7304 H 716.705 -0.634741 -4.8809 0
M  V30 7305 N 718.357 1.51182 -0.445186 0
M  V30 7306 C 719.634 1.9478 0.178965 0
M  V30 7307 C 720.014 1.38428 1.59376 0
M  V30 7308 O 719.362 0.574552 2.21159 0
M  V30 7309 C 719.572 3.48683 0.148711 0
M  V30 7310 C 720.92 4.23152 0.35042 0
M  V30 7311 O 721.944 3.55479 0.226474 0
M  V30 7312 O 720.803 5.4322 0.597893 0
M  V30 7313 H 717.897 0.817387 0.12573 0
M  V30 7314 H 720.443 1.62051 -0.503729 0
M  V30 7315 H 719.215 3.82176 -0.84009 0
M  V30 7316 H 718.838 3.87875 0.873979 0
M  V30 7317 N 719.835 0.176821 1.56605 0
M  V30 7318 C 721.083 -0.465793 1.96659 0
M  V30 7319 C 721.404 -1.63406 1.06412 0
M  V30 7320 O 720.674 -1.95457 0.131603 0
M  V30 7321 H 719.254 -0.175072 0.726195 0
M  V30 7322 H 721.916 0.25929 1.93168 0
M  V30 7323 H 721.012 -0.822138 3.01077 0
M  V30 7324 N 721.313 -1.57302 -0.09688 0
M  V30 7325 C 722.538 -1.9058 -0.818169 0
M  V30 7326 C 722.963 -0.770921 -1.71576 0
M  V30 7327 O 722.321 0.277588 -1.79162 0
M  V30 7328 C 722.369 -3.22714 -1.60898 0
M  V30 7329 O 721.473 -3.10178 -2.71779 0
M  V30 7330 H 720.814 -0.624759 -0.224882 0
M  V30 7331 H 723.344 -2.04471 -0.07264 0
M  V30 7332 H 723.354 -3.55978 -1.99358 0
M  V30 7333 H 722.029 -4.04899 -0.950227 0
M  V30 7334 H 720.606 -2.88424 -2.3636 0
M  V30 7335 N 722.791 0.367657 -1.53252 0
M  V30 7336 C 724.068 1.12606 -1.59935 0
M  V30 7337 C 724.448 2.07167 -0.405606 0
M  V30 7338 O 723.796 2.20364 0.604323 0
M  V30 7339 C 724.006 1.86699 -2.94863 0
M  V30 7340 C 725.354 2.41306 -3.49366 0
M  V30 7341 O 726.378 1.96828 -2.96879 0
M  V30 7342 O 725.237 3.2261 -4.41118 0
M  V30 7343 H 722.331 0.516438 -0.645926 0
M  V30 7344 H 724.877 0.371088 -1.65593 0
M  V30 7345 H 723.649 1.17674 -3.73187 0
M  V30 7346 H 723.272 2.6911 -2.92687 0
M  V30 7347 N 724.269 1.44576 0.627338 0
M  V30 7348 C 725.509 1.49083 1.39834 0
M  V30 7349 C 725.873 0.121643 1.91614 0
M  V30 7350 O 727.074 0.0413885 2.68768 0
M  V30 7351 C 725.345 2.52467 2.52973 0
M  V30 7352 S 726.904 2.7605 3.41089 0
M  V30 7353 H 723.722 0.527252 0.476997 0
M  V30 7354 H 726.324 1.81525 0.725872 0
M  V30 7355 H 725.028 3.50646 2.13249 0
M  V30 7356 H 724.559 2.2161 3.25042 0
M  V30 7357 H 726.574 2.07932 4.50531 0
M  V30 7358 N 725.747 -0.868086 1.31537 0
M  V30 7359 C 727.158 -1.437 1.19195 0
M  V30 7360 C 727.509 -1.95169 -0.200842 0
M  V30 7361 O 726.634 -1.86432 -1.09872 0
M  V30 7362 C 727.229 -2.612 2.15778 0
M  V30 7363 C 725.788 -3.1413 2.07363 0
M  V30 7364 C 724.935 -1.86845 2.049 0
M  V30 7365 H 727.886 -0.676457 1.43561 0
M  V30 7366 H 727.907 -3.37948 1.74847 0
M  V30 7367 H 727.419 -2.23709 3.17137 0
M  V30 7368 H 725.52 -3.56238 1.09204 0
M  V30 7369 H 725.633 -3.76285 2.96557 0
M  V30 7370 H 723.997 -2.05886 1.49943 0
M  V30 7371 H 724.78 -1.51589 3.08019 0
M  V30 7372 N 727.225 -1.14528 -1.08264 0
M  V30 7373 C 728.135 -0.84728 -2.18765 0
M  V30 7374 C 729.151 0.172826 -1.7314 0
M  V30 7375 O 730.327 0.000985336 -2.014 0
M  V30 7376 C 727.392 -0.330633 -3.4512 0
M  V30 7377 C 726.453 -1.41348 -4.05363 0
M  V30 7378 C 725.686 -0.921387 -5.25686 0
M  V30 7379 O 725.909 0.236587 -5.69909 0
M  V30 7380 O 724.843 -1.70101 -5.77364 0
M  V30 7381 H 728.669 -1.7708 -2.46731 0
M  V30 7382 H 726.254 -0.923661 -1.17426 0
M  V30 7383 H 728.136 -0.0485053 -4.21372 0
M  V30 7384 H 726.811 0.565147 -3.18728 0
M  V30 7385 H 725.718 -1.74908 -3.30693 0
M  V30 7386 H 727.051 -2.28383 -4.36007 0
M  V30 7387 N 728.703 1.26451 -0.940633 0
M  V30 7388 C 729.666 2.24651 -0.454378 0
M  V30 7389 C 730.666 1.54826 0.434222 0
M  V30 7390 O 731.856 1.72628 0.233477 0
M  V30 7391 C 728.988 3.39148 0.345192 0
M  V30 7392 H 730.181 2.69182 -1.32217 0
M  V30 7393 H 727.734 1.38596 -0.722547 0
M  V30 7394 H 728.469 3.00018 1.23125 0
M  V30 7395 H 728.254 3.9101 -0.292107 0
M  V30 7396 H 729.744 4.12103 0.675341 0
M  V30 7397 N 730.181 0.707592 1.40822 0
M  V30 7398 C 731.114 -0.000859377 2.282 0
M  V30 7399 C 732.092 -0.7758 1.42899 0
M  V30 7400 O 733.276 -0.76411 1.72318 0
M  V30 7401 C 730.403 -1.00861 3.23334 0
M  V30 7402 C 729.449 -0.32543 4.25257 0
M  V30 7403 S 730.282 0.940908 5.27169 0
M  V30 7404 C 731.438 -0.0649459 6.25866 0
M  V30 7405 H 731.671 0.740207 2.87938 0
M  V30 7406 H 729.204 0.498311 1.46138 0
M  V30 7407 H 731.162 -1.58485 3.78672 0
M  V30 7408 H 729.823 -1.72233 2.62668 0
M  V30 7409 H 729.016 -1.08697 4.92139 0
M  V30 7410 H 728.618 0.178044 3.73576 0
M  V30 7411 H 730.91 -0.914377 6.71301 0
M  V30 7412 H 731.853 0.570276 7.058 0
M  V30 7413 H 732.261 -0.425098 5.62897 0
M  V30 7414 N 731.66 -1.50943 0.453197 0
M  V30 7415 C 732.937 -1.94872 -0.168633 0
M  V30 7416 C 733.317 -1.39272 -1.5864 0
M  V30 7417 O 732.665 -0.586272 -2.20851 0
M  V30 7418 C 732.875 -3.48757 -0.130217 0
M  V30 7419 C 734.223 -4.23331 -0.327975 0
M  V30 7420 O 735.247 -3.55594 -0.207619 0
M  V30 7421 O 734.106 -5.43529 -0.569077 0
M  V30 7422 H 731.2 -0.818042 -0.121394 0
M  V30 7423 H 733.746 -1.61782 0.512316 0
M  V30 7424 H 732.518 -3.81725 0.860346 0
M  V30 7425 H 732.141 -3.88333 -0.853397 0
M  V30 7426 N 733.138 -0.185124 -1.56509 0
M  V30 7427 C 734.068 0.735098 -2.21627 0
M  V30 7428 C 735.049 1.2288 -1.1762 0
M  V30 7429 O 736.234 1.27945 -1.46095 0
M  V30 7430 C 733.364 1.95889 -2.86783 0
M  V30 7431 C 732.318 1.6005 -3.96948 0
M  V30 7432 C 731.644 2.90009 -4.4922 0
M  V30 7433 C 732.944 0.818008 -5.15855 0
M  V30 7434 H 734.638 0.192274 -2.98782 0
M  V30 7435 H 732.184 0.0910393 -1.43712 0
M  V30 7436 H 734.137 2.60779 -3.31017 0
M  V30 7437 H 732.861 2.52608 -2.07018 0
M  V30 7438 H 731.52 0.975237 -3.5339 0
M  V30 7439 H 731.168 3.44797 -3.6623 0
M  V30 7440 H 730.868 2.66778 -5.23549 0
M  V30 7441 H 732.392 3.55904 -4.9615 0
M  V30 7442 H 733.806 1.36979 -5.56695 0
M  V30 7443 H 732.203 0.684207 -5.96187 0
M  V30 7444 H 733.273 -0.182939 -4.84555 0
M  V30 7445 N 734.616 1.57351 0.0885366 0
M  V30 7446 C 735.864 1.86051 0.789262 0
M  V30 7447 C 736.185 0.774763 1.78948 0
M  V30 7448 O 735.455 -0.198324 1.94894 0
M  V30 7449 H 734.035 0.686508 0.294475 0
M  V30 7450 H 736.697 1.94779 0.0686055 0
M  V30 7451 H 735.793 2.83007 1.31581 0
M  V30 7452 N 736.094 -0.359525 1.53444 0
M  V30 7453 C 737.322 -1.12198 1.73837 0
M  V30 7454 C 737.737 -1.82854 0.470107 0
M  V30 7455 O 737.094 -1.73781 -0.557349 0
M  V30 7456 C 737.145 -2.14769 2.90786 0
M  V30 7457 O 736.866 -1.46989 4.12706 0
M  V30 7458 C 738.367 -3.03514 3.231 0
M  V30 7459 H 735.587 -0.33524 0.581253 0
M  V30 7460 H 738.131 -0.416598 2.00212 0
M  V30 7461 H 736.286 -2.80896 2.66788 0
M  V30 7462 H 736.7 -2.15378 4.78239 0
M  V30 7463 H 738.174 -3.71453 4.08322 0
M  V30 7464 H 738.651 -3.68658 2.38721 0
M  V30 7465 H 739.257 -2.42996 3.49046 0
M  V30 7466 N 737.572 -1.44907 -0.619662 0
M  V30 7467 C 738.502 -1.55488 -1.742 0
M  V30 7468 C 739.483 -0.407143 -1.65156 0
M  V30 7469 O 740.668 -0.628743 -1.8374 0
M  V30 7470 C 737.798 -1.5097 -3.1277 0
M  V30 7471 C 736.752 -2.64337 -3.36615 0
M  V30 7472 C 736.078 -2.44872 -4.75333 0
M  V30 7473 C 737.378 -4.06423 -3.28051 0
M  V30 7474 H 739.072 -2.49432 -1.65602 0
M  V30 7475 H 736.618 -1.20047 -0.795281 0
M  V30 7476 H 738.571 -1.56971 -3.91073 0
M  V30 7477 H 737.295 -0.535486 -3.2218 0
M  V30 7478 H 735.954 -2.57744 -2.60698 0
M  V30 7479 H 735.602 -1.45617 -4.81461 0
M  V30 7480 H 735.302 -3.20888 -4.92244 0
M  V30 7481 H 736.826 -2.52709 -5.55851 0
M  V30 7482 H 738.24 -4.14324 -3.96243 0
M  V30 7483 H 736.637 -4.82733 -3.56495 0
M  V30 7484 H 737.707 -4.29183 -2.25676 0
M  V30 7485 N 739.05 0.861098 -1.31996 0
M  V30 7486 C 740.275 1.65264 -1.2531 0
M  V30 7487 C 740.7 1.87265 0.177007 0
M  V30 7488 O 740.058 1.4208 1.12619 0
M  V30 7489 C 740.106 2.99284 -2.0115 0
M  V30 7490 O 739.21 3.89508 -1.3549 0
M  V30 7491 H 738.551 0.50409 -0.432192 0
M  V30 7492 H 741.081 1.07297 -1.74208 0
M  V30 7493 H 741.091 3.49154 -2.11081 0
M  V30 7494 H 739.766 2.82591 -3.05148 0
M  V30 7495 H 738.343 3.47966 -1.34066 0
M  V30 7496 N 740.528 1.15101 1.07655 0
M  V30 7497 C 741.776 0.922149 1.79836 0
M  V30 7498 C 742.097 -0.552346 1.87014 0
M  V30 7499 O 741.367 -1.40145 1.3688 0
M  V30 7500 H 739.947 0.338182 0.666064 0
M  V30 7501 H 742.609 1.45107 1.30115 0
M  V30 7502 H 741.705 1.32883 2.82398 0
M  V30 7503 N 742.006 -1.2595 0.947325 0
M  V30 7504 C 743.255 -1.92759 0.593887 0
M  V30 7505 C 743.568 -1.75083 -0.872093 0
M  V30 7506 O 744.774 -2.36401 -1.33518 0
M  V30 7507 C 743.23 -3.45395 1.01144 0
M  V30 7508 C 742.838 -3.71795 2.49946 0
M  V30 7509 C 744.582 -4.18173 0.730185 0
M  V30 7510 C 742.489 -5.17901 2.85539 0
M  V30 7511 H 741.419 -0.721676 0.218403 0
M  V30 7512 H 744.07 -1.4293 1.15079 0
M  V30 7513 H 742.452 -3.94143 0.383007 0
M  V30 7514 H 743.626 -3.33728 3.17746 0
M  V30 7515 H 741.941 -3.12263 2.75465 0
M  V30 7516 H 744.538 -5.25784 0.972367 0
M  V30 7517 H 744.881 -4.14964 -0.333223 0
M  V30 7518 H 745.414 -3.75309 1.31862 0
M  V30 7519 H 742.153 -5.26216 3.90867 0
M  V30 7520 H 741.673 -5.57042 2.22406 0
M  V30 7521 H 743.352 -5.8596 2.74336 0
M  V30 7522 N 743.484 -0.715051 -1.40445 0
M  V30 7523 C 744.732 -0.253826 -2.005 0
M  V30 7524 C 745.053 1.15681 -1.5698 0
M  V30 7525 O 744.323 1.78414 -0.809027 0
M  V30 7526 H 742.903 -0.0908537 -0.741454 0
M  V30 7527 H 745.565 -0.920561 -1.7179 0
M  V30 7528 H 744.661 -0.286499 -3.10782 0
M  V30 7529 N 744.962 1.50701 -0.461195 0
M  V30 7530 C 746.19 2.06681 0.0951756 0
M  V30 7531 C 746.605 1.32615 1.34382 0
M  V30 7532 O 745.962 0.392531 1.78229 0
M  V30 7533 C 746.013 3.59354 0.393316 0
M  V30 7534 O 745.734 4.30626 -0.805797 0
M  V30 7535 C 747.235 4.31926 0.997744 0
M  V30 7536 H 744.455 0.670995 -0.00267259 0
M  V30 7537 H 746.999 1.93991 -0.647137 0
M  V30 7538 H 745.154 3.7188 1.08555 0
M  V30 7539 H 745.568 5.21667 -0.544409 0
M  V30 7540 H 747.042 5.39756 1.15619 0
M  V30 7541 H 747.519 3.91772 1.98523 0
M  V30 7542 H 748.125 4.23905 0.344188 0
M  V30 7543 N 746.441 0.193421 1.56409 0
M  V30 7544 C 747.371 -0.723334 2.22014 0
M  V30 7545 C 748.352 -1.22254 1.1827 0
M  V30 7546 O 749.537 -1.27168 1.46771 0
M  V30 7547 C 746.667 -1.94366 2.87818 0
M  V30 7548 C 745.621 -1.57943 3.97791 0
M  V30 7549 C 744.947 -2.87623 4.50752 0
M  V30 7550 C 746.247 -0.790639 5.16281 0
M  V30 7551 H 747.941 -0.176426 2.9888 0
M  V30 7552 H 745.487 -0.0834166 1.43758 0
M  V30 7553 H 747.44 -2.5902 3.32396 0
M  V30 7554 H 746.164 -2.51507 2.08355 0
M  V30 7555 H 744.823 -0.956482 3.53903 0
M  V30 7556 H 744.471 -3.4285 3.68053 0
M  V30 7557 H 744.171 -2.63998 5.24956 0
M  V30 7558 H 745.695 -3.53268 4.9803 0
M  V30 7559 H 747.109 -1.34024 5.57414 0
M  V30 7560 H 745.506 -0.65258 5.96541 0
M  V30 7561 H 746.576 0.208633 4.84451 0
M  V30 7562 N 747.919 -1.57396 -0.0801906 0
M  V30 7563 C 749.196 -1.77883 -0.813451 0
M  V30 7564 C 749.576 -0.778879 -1.96206 0
M  V30 7565 O 748.924 0.189683 -2.27711 0
M  V30 7566 C 749.134 -3.24116 -1.2942 0
M  V30 7567 C 750.482 -3.87714 -1.73098 0
M  V30 7568 O 751.506 -3.27956 -1.39007 0
M  V30 7569 O 750.365 -4.92828 -2.36184 0
M  V30 7570 H 747.459 -0.729727 -0.389138 0
M  V30 7571 H 750.005 -1.69591 -0.0609166 0
M  V30 7572 H 748.777 -3.88443 -0.471947 0
M  V30 7573 H 748.4 -3.371 -2.1083 0
M  V30 7574 N 749.397 0.351382 -1.53633 0
M  V30 7575 C 750.645 1.09034 -1.70165 0
M  V30 7576 C 750.966 1.89413 -0.463422 0
M  V30 7577 O 750.236 1.888 0.522624 0
M  V30 7578 H 748.816 0.405522 -0.627344 0
M  V30 7579 H 751.478 0.394554 -1.90865 0
M  V30 7580 H 750.574 1.77215 -2.56907 0
M  V30 7581 N 750.875 1.45233 0.611969 0
M  V30 7582 C 752.122 1.49021 1.37109 0
M  V30 7583 C 752.45 0.130227 1.94064 0
M  V30 7584 O 751.705 -0.870551 1.75271 0
M  V30 7585 C 752.004 2.51353 2.54079 0
M  V30 7586 C 751.67 3.96178 2.15299 0
M  V30 7587 C 750.332 4.35614 2.04436 0
M  V30 7588 C 752.684 4.87275 1.84966 0
M  V30 7589 C 750.012 5.64047 1.61456 0
M  V30 7590 C 752.364 6.16115 1.43474 0
M  V30 7591 C 751.028 6.54486 1.31167 0
M  V30 7592 H 750.298 0.545307 0.501719 0
M  V30 7593 H 752.945 1.78555 0.692122 0
M  V30 7594 H 751.25 2.15372 3.27295 0
M  V30 7595 H 752.947 2.51523 3.12309 0
M  V30 7596 H 749.537 3.6499 2.24678 0
M  V30 7597 H 753.721 4.57548 1.92258 0
M  V30 7598 H 748.977 5.92575 1.50547 0
M  V30 7599 H 753.151 6.86149 1.19048 0
M  V30 7600 H 750.778 7.53904 0.97637 0
M  V30 7601 N 752.353 -0.854086 1.3245 0
M  V30 7602 C 753.769 -1.14238 1.11453 0
M  V30 7603 C 753.969 -2.01228 -0.10461 0
M  V30 7604 O 753.025 -2.39845 -0.789339 0
M  V30 7605 C 754.338 -1.81916 2.39431 0
M  V30 7606 C 755.886 -1.94549 2.45193 0
M  V30 7607 C 756.361 -2.65642 3.73093 0
M  V30 7608 N 757.852 -2.73167 3.74078 0
M  V30 7609 C 758.587 -3.28828 4.69744 0
M  V30 7610 N 758.083 -3.85295 5.75778 0
M  V30 7611 N 759.876 -3.26936 4.57241 0
M  V30 7612 H 752.027 -0.274786 2.10615 0
M  V30 7613 H 754.29 -0.184375 0.929898 0
M  V30 7614 H 753.996 -1.25452 3.28565 0
M  V30 7615 H 753.87 -2.82068 2.50434 0
M  V30 7616 H 756.257 -2.50172 1.56518 0
M  V30 7617 H 756.338 -0.933914 2.38142 0
M  V30 7618 H 755.982 -2.10683 4.62142 0
M  V30 7619 H 755.912 -3.6724 3.77415 0
M  V30 7620 H 758.403 -2.33108 2.97438 0
M  V30 7621 H 758.716 -4.25925 6.44832 0
M  V30 7622 H 757.061 -3.83625 5.79531 0
M  V30 7623 H 760.252 -2.8207 3.7357 0
M  V30 7624 H 760.425 -3.70014 5.31971 0
M  V30 7625 N 753.831 -1.1567 -1.07043 0
M  V30 7626 C 754.781 -0.824733 -2.12561 0
M  V30 7627 C 755.765 0.19243 -1.59745 0
M  V30 7628 O 756.957 -0.00728759 -1.76998 0
M  V30 7629 C 754.086 -0.31921 -3.41813 0
M  V30 7630 C 753.172 -1.36671 -4.01475 0
M  V30 7631 N 753.563 -2.57493 -4.35351 0
M  V30 7632 C 751.861 -1.22018 -4.28984 0
M  V30 7633 C 752.562 -3.24658 -4.82672 0
M  V30 7634 N 751.538 -2.52043 -4.81638 0
M  V30 7635 H 755.34 -1.74363 -2.3659 0
M  V30 7636 H 752.854 -1.04262 -1.24511 0
M  V30 7637 H 754.851 -0.0630216 -4.16852 0
M  V30 7638 H 753.511 0.593708 -3.19226 0
M  V30 7639 H 754.522 -2.94612 -4.25939 0
M  V30 7640 H 751.199 -0.367414 -4.1588 0
M  V30 7641 H 752.589 -4.2775 -5.1815 0
M  V30 7642 N 755.309 1.25446 -0.953992 0
M  V30 7643 C 756.725 1.4539 -0.658316 0
M  V30 7644 C 756.925 1.85607 0.784356 0
M  V30 7645 O 755.981 1.98568 1.55972 0
M  V30 7646 C 757.294 2.52643 -1.6307 0
M  V30 7647 C 758.842 2.66484 -1.64181 0
M  V30 7648 C 759.317 3.76921 -2.60182 0
M  V30 7649 N 760.808 3.84331 -2.58542 0
M  V30 7650 C 761.543 4.69271 -3.29503 0
M  V30 7651 N 761.039 5.58503 -4.09934 0
M  V30 7652 N 762.832 4.6323 -3.18393 0
M  V30 7653 H 754.983 0.976337 -1.8863 0
M  V30 7654 H 757.246 0.490343 -0.811337 0
M  V30 7655 H 756.952 2.29949 -2.66114 0
M  V30 7656 H 756.826 3.50547 -1.39271 0
M  V30 7657 H 759.213 2.88545 -0.618552 0
M  V30 7658 H 759.294 1.68982 -1.92038 0
M  V30 7659 H 758.938 3.55612 -3.62633 0
M  V30 7660 H 758.868 4.73906 -2.29609 0
M  V30 7661 H 761.359 3.20544 -2.0015 0
M  V30 7662 H 761.672 6.20241 -4.61 0
M  V30 7663 H 760.017 5.58214 -4.14032 0
M  V30 7664 H 763.208 3.92527 -2.5503 0
M  V30 7665 H 763.381 5.29204 -3.73961 0
M  V30 7666 N 756.787 0.722489 1.40064 0
M  V30 7667 C 757.737 0.0506801 2.27944 0
M  V30 7668 C 758.721 -0.725493 1.43615 0
M  V30 7669 O 759.913 -0.596559 1.66644 0
M  V30 7670 C 757.042 -0.865195 3.32219 0
M  V30 7671 C 756.128 -0.0838393 4.24017 0
M  V30 7672 N 756.519 0.936516 4.97054 0
M  V30 7673 C 754.817 -0.315371 4.44884 0
M  V30 7674 C 755.518 1.4066 5.64437 0
M  V30 7675 N 754.494 0.727485 5.3871 0
M  V30 7676 H 758.296 0.832609 2.8186 0
M  V30 7677 H 755.81 0.555691 1.52597 0
M  V30 7678 H 757.807 -1.36186 3.94029 0
M  V30 7679 H 756.467 -1.64642 2.79862 0
M  V30 7680 H 757.478 1.31755 5.0086 0
M  V30 7681 H 754.155 -1.07238 4.03492 0
M  V30 7682 H 755.545 2.25482 6.32936 0
M  V30 7683 N 758.265 -1.50454 0.469181 0
M  V30 7684 C 759.676 -1.86695 0.0136034 0
M  V30 7685 C 760.027 -1.38413 -1.39055 0
M  V30 7686 O 759.152 -0.748294 -2.03051 0
M  V30 7687 C 759.747 -3.38795 0.0179098 0
M  V30 7688 C 758.306 -3.74455 -0.382191 0
M  V30 7689 C 757.453 -2.74338 0.404207 0
M  V30 7690 H 760.404 -1.43225 0.683547 0
M  V30 7691 H 760.425 -3.72321 -0.78468 0
M  V30 7692 H 759.937 -3.73906 1.04 0
M  V30 7693 H 758.038 -3.44944 -1.4087 0
M  V30 7694 H 758.151 -4.79025 -0.084862 0
M  V30 7695 H 756.515 -2.54305 -0.141829 0
M  V30 7696 H 757.298 -3.12293 1.42577 0
M  V30 7697 N 759.743 -0.201713 -1.56304 0
M  V30 7698 C 761.02 0.483273 -1.89536 0
M  V30 7699 C 761.4 1.79176 -1.11621 0
M  V30 7700 O 760.748 2.27445 -0.219339 0
M  V30 7701 C 760.958 0.695604 -3.41998 0
M  V30 7702 C 762.306 1.012 -4.12364 0
M  V30 7703 O 763.33 0.783094 -3.47485 0
M  V30 7704 O 762.189 1.44534 -5.27041 0
M  V30 7705 H 759.283 0.252801 -0.787414 0
M  V30 7706 H 761.829 -0.24242 -1.6796 0
M  V30 7707 H 760.601 -0.228165 -3.90634 0
M  V30 7708 H 760.224 1.47351 -3.69288 0
M  V30 7709 N 761.222 1.57436 0.0718424 0
M  V30 7710 C 762.132 2.07039 1.10326 0
M  V30 7711 C 763.148 0.999918 1.424 0
M  V30 7712 O 764.324 1.31462 1.52577 0
M  V30 7713 C 761.389 2.50439 2.39752 0
M  V30 7714 C 760.45 3.71784 2.14651 0
M  V30 7715 C 759.683 4.13104 3.37906 0
M  V30 7716 O 759.906 3.54298 4.47023 0
M  V30 7717 O 758.84 5.05894 3.26121 0
M  V30 7718 H 762.666 2.95239 0.711872 0
M  V30 7719 H 760.251 1.46638 0.28597 0
M  V30 7720 H 762.133 2.78876 3.15921 0
M  V30 7721 H 760.808 1.65368 2.78271 0
M  V30 7722 H 759.715 3.48431 1.36187 0
M  V30 7723 H 761.048 4.57707 1.81012 0
M  V30 7724 N 762.7 -0.34323 1.53817 0
M  V30 7725 C 763.663 -1.40444 1.8113 0
M  V30 7726 C 764.663 -1.45604 0.682366 0
M  V30 7727 O 765.853 -1.45974 0.950649 0
M  V30 7728 C 762.985 -2.79369 1.95361 0
M  V30 7729 H 764.178 -1.17489 2.75928 0
M  V30 7730 H 761.731 -0.577636 1.45234 0
M  V30 7731 H 762.466 -3.07607 1.02707 0
M  V30 7732 H 762.251 -2.7702 2.77493 0
M  V30 7733 H 763.741 -3.56178 2.18008 0
M  V30 7734 N 764.178 -1.45556 -0.604258 0
M  V30 7735 C 765.141 -1.54091 -1.69672 0
M  V30 7736 C 766.141 -0.420076 -1.55216 0
M  V30 7737 O 767.331 -0.683671 -1.60224 0
M  V30 7738 C 764.463 -1.44063 -3.08964 0
M  V30 7739 H 765.656 -2.51431 -1.6347 0
M  V30 7740 H 763.209 -1.33046 -0.820273 0
M  V30 7741 H 763.944 -0.479201 -3.2074 0
M  V30 7742 H 763.729 -2.25362 -3.20865 0
M  V30 7743 H 765.219 -1.53075 -3.88533 0
M  V30 7744 N 765.656 0.84705 -1.32902 0
M  V30 7745 C 766.903 1.60176 -1.23894 0
M  V30 7746 C 767.231 1.93496 0.197341 0
M  V30 7747 O 766.486 1.58173 1.15238 0
M  V30 7748 C 766.785 2.92663 -2.05142 0
M  V30 7749 C 766.451 2.7874 -3.54422 0
M  V30 7750 C 765.113 2.7465 -3.95121 0
M  V30 7751 C 767.465 2.64128 -4.49317 0
M  V30 7752 C 764.793 2.53837 -5.28946 0
M  V30 7753 C 767.145 2.44849 -5.83294 0
M  V30 7754 C 765.809 2.39156 -6.23186 0
M  V30 7755 H 765.079 0.586127 -0.453361 0
M  V30 7756 H 767.726 0.981994 -1.64405 0
M  V30 7757 H 766.031 3.588 -1.57383 0
M  V30 7758 H 767.728 3.50095 -1.95537 0
M  V30 7759 H 764.318 2.82751 -3.22102 0
M  V30 7760 H 768.502 2.66327 -4.18788 0
M  V30 7761 H 763.758 2.4787 -5.58901 0
M  V30 7762 H 767.932 2.32524 -6.56434 0
M  V30 7763 H 765.559 2.22789 -7.26821 0
M  V30 7764 N 767.134 1.16236 1.06428 0
M  V30 7765 C 768.381 0.943034 1.79201 0
M  V30 7766 C 768.709 -0.529243 1.87161 0
M  V30 7767 O 767.964 -1.40874 1.35842 0
M  V30 7768 C 768.263 1.51396 3.2375 0
M  V30 7769 C 767.929 3.00833 3.35873 0
M  V30 7770 C 766.591 3.41626 3.38888 0
M  V30 7771 C 768.943 3.96825 3.37904 0
M  V30 7772 C 766.271 4.77033 3.4155 0
M  V30 7773 C 768.623 5.32116 3.42104 0
M  V30 7774 C 767.287 5.72392 3.43401 0
M  V30 7775 H 766.557 0.34508 0.655744 0
M  V30 7776 H 769.204 1.44929 1.25171 0
M  V30 7777 H 767.509 0.929114 3.80624 0
M  V30 7778 H 769.206 1.31996 3.78653 0
M  V30 7779 H 765.796 2.68306 3.3423 0
M  V30 7780 H 769.98 3.66376 3.34787 0
M  V30 7781 H 765.236 5.07569 3.40858 0
M  V30 7782 H 769.41 6.06286 3.42623 0
M  V30 7783 H 767.037 6.77296 3.45216 0
M  V30 7784 N 768.612 -1.24939 0.960631 0
M  V30 7785 C 769.889 -1.88118 0.535807 0
M  V30 7786 C 770.269 -1.86605 -0.987009 0
M  V30 7787 O 769.617 -1.33375 -1.85536 0
M  V30 7788 C 769.827 -3.30565 1.11927 0
M  V30 7789 C 771.175 -4.07296 1.19981 0
M  V30 7790 O 772.199 -3.39709 1.07126 0
M  V30 7791 O 771.058 -5.28206 1.40218 0
M  V30 7792 H 768.152 -0.807698 0.177631 0
M  V30 7793 H 770.698 -1.32964 1.05445 0
M  V30 7794 H 769.47 -3.26128 2.16231 0
M  V30 7795 H 769.093 -3.93284 0.584245 0
M  V30 7796 N 770.09 -0.729906 -1.39679 0
M  V30 7797 C 771.318 -0.285709 -2.04918 0
M  V30 7798 C 771.733 1.07765 -1.55023 0
M  V30 7799 O 771.09 1.67999 -0.712923 0
M  V30 7800 C 771.141 -0.272793 -3.60469 0
M  V30 7801 O 770.862 -1.58233 -4.08527 0
M  V30 7802 C 772.363 0.188199 -4.429 0
M  V30 7803 H 769.583 -0.125758 -0.65911 0
M  V30 7804 H 772.127 -0.992129 -1.78821 0
M  V30 7805 H 770.282 0.384699 -3.85485 0
M  V30 7806 H 770.696 -1.49245 -5.02818 0
M  V30 7807 H 772.17 0.14608 -5.51807 0
M  V30 7808 H 772.647 1.2326 -4.21549 0
M  V30 7809 H 773.253 -0.439541 -4.23023 0
M  V30 7810 N 771.568 1.50203 -0.477153 0
M  V30 7811 C 772.531 2.27194 0.302599 0
M  V30 7812 C 773.531 1.32221 0.915112 0
M  V30 7813 O 774.721 1.55593 0.783348 0
M  V30 7814 C 771.853 3.0938 1.43167 0
M  V30 7815 H 773.046 2.97575 -0.372678 0
M  V30 7816 H 770.599 1.54578 -0.231392 0
M  V30 7817 H 771.334 2.43509 2.14182 0
M  V30 7818 H 771.119 3.79181 0.998197 0
M  V30 7819 H 772.609 3.67592 1.98157 0
M  V30 7820 N 773.046 0.209999 1.56195 0
M  V30 7821 C 774.271 -0.433064 2.02828 0
M  V30 7822 C 774.696 -1.5337 1.08901 0
M  V30 7823 O 774.054 -1.81144 0.0751132 0
M  V30 7824 C 774.102 -0.952635 3.47789 0
M  V30 7825 O 773.206 -2.0647 3.56993 0
M  V30 7826 H 772.547 -0.0994594 0.656509 0
M  V30 7827 H 775.077 0.32525 2.01998 0
M  V30 7828 H 775.087 -1.26542 3.8788 0
M  V30 7829 H 773.762 -0.147007 4.1564 0
M  V30 7830 H 772.339 -1.75942 3.28784 0
M  V30 7831 N 774.524 -1.57472 -0.0634922 0
M  V30 7832 C 775.752 -1.91887 -0.773767 0
M  V30 7833 C 776.167 -0.806733 -1.70696 0
M  V30 7834 O 775.524 0.219383 -1.81177 0
M  V30 7835 C 775.575 -3.26092 -1.56034 0
M  V30 7836 O 775.296 -4.33029 -0.66464 0
M  V30 7837 C 776.797 -3.74573 -2.37087 0
M  V30 7838 H 774.017 -0.634074 -0.219525 0
M  V30 7839 H 776.561 -2.04476 -0.0312828 0
M  V30 7840 H 774.716 -3.15004 -2.25502 0
M  V30 7841 H 775.13 -5.10291 -1.21258 0
M  V30 7842 H 776.604 -4.71084 -2.87722 0
M  V30 7843 H 777.081 -3.04003 -3.16984 0
M  V30 7844 H 777.687 -3.88631 -1.72759 0
M  V30 7845 N 776.003 0.335068 -1.53997 0
M  V30 7846 C 777.251 1.07223 -1.71312 0
M  V30 7847 C 777.572 1.88911 -0.483486 0
M  V30 7848 O 776.842 1.89344 0.50257 0
M  V30 7849 H 775.422 0.398846 -0.63161 0
M  V30 7850 H 778.084 0.374288 -1.91272 0
M  V30 7851 H 777.18 1.7448 -2.58772 0
M  V30 7852 N 777.481 1.45874 0.596531 0
M  V30 7853 C 778.428 1.55389 1.70655 0
M  V30 7854 C 779.398 0.399036 1.61236 0
M  V30 7855 O 780.583 0.61396 1.80652 0
M  V30 7856 C 777.723 1.53705 3.0898 0
M  V30 7857 C 776.836 2.79823 3.29125 0
M  V30 7858 C 775.971 2.69735 4.5762 0
M  V30 7859 C 775.01 3.90856 4.71061 0
M  V30 7860 N 774.147 3.79237 5.90867 0
M  V30 7861 H 778.987 2.50211 1.61859 0
M  V30 7862 H 776.524 1.24146 0.789069 0
M  V30 7863 H 778.482 1.50715 3.89026 0
M  V30 7864 H 777.112 0.624247 3.16706 0
M  V30 7865 H 776.164 2.92852 2.42779 0
M  V30 7866 H 777.476 3.69628 3.34927 0
M  V30 7867 H 776.63 2.64773 5.45875 0
M  V30 7868 H 775.369 1.77547 4.54234 0
M  V30 7869 H 774.374 3.96164 3.81227 0
M  V30 7870 H 775.599 4.84124 4.76236 0
M  V30 7871 H 773.545 2.89825 5.88504 0
M  V30 7872 H 773.462 4.62686 5.97877 0
M  V30 7873 H 774.73 3.78227 6.8159 0
M  V30 7874 N 778.959 -0.83999 1.33349 0
M  V30 7875 C 780.187 -1.62728 1.27778 0
M  V30 7876 C 780.602 -1.88191 -0.151505 0
M  V30 7877 O 779.959 -1.46128 -1.09329 0
M  V30 7878 C 780.01 -2.97813 2.04913 0
M  V30 7879 O 779.731 -2.73469 3.42266 0
M  V30 7880 C 781.232 -3.92245 2.0654 0
M  V30 7881 H 778.452 -0.506374 0.440257 0
M  V30 7882 H 780.996 -1.04637 1.75703 0
M  V30 7883 H 779.151 -3.52509 1.60674 0
M  V30 7884 H 779.565 -3.59483 3.81932 0
M  V30 7885 H 781.039 -4.84249 2.64966 0
M  V30 7886 H 781.516 -4.26332 1.05537 0
M  V30 7887 H 782.122 -3.43487 2.50793 0
M  V30 7888 N 780.437 -1.16799 -1.0581 0
M  V30 7889 C 781.684 -0.952524 -1.78699 0
M  V30 7890 C 782.012 0.51931 -1.87439 0
M  V30 7891 O 781.267 1.40151 -1.36587 0
M  V30 7892 C 781.566 -1.53111 -3.22942 0
M  V30 7893 C 781.232 -3.0261 -3.34273 0
M  V30 7894 C 779.894 -3.43418 -3.37072 0
M  V30 7895 C 782.246 -3.98611 -3.35795 0
M  V30 7896 C 779.574 -4.78838 -3.39015 0
M  V30 7897 C 781.926 -5.33923 -3.39277 0
M  V30 7898 C 780.59 -5.74205 -3.40361 0
M  V30 7899 H 779.86 -0.348553 -0.653905 0
M  V30 7900 H 782.507 -1.45591 -1.244 0
M  V30 7901 H 780.812 -0.949286 -3.80126 0
M  V30 7902 H 782.509 -1.34002 -3.77948 0
M  V30 7903 H 779.099 -2.70075 -3.32803 0
M  V30 7904 H 783.283 -3.68146 -3.32839 0
M  V30 7905 H 778.539 -5.09369 -3.38161 0
M  V30 7906 H 782.713 -6.08094 -3.39403 0
M  V30 7907 H 780.34 -6.79117 -3.4162 0
M  V30 7908 N 781.915 1.24427 -0.967243 0
M  V30 7909 C 783.326 1.74349 -0.667785 0
M  V30 7910 C 783.677 1.78403 0.816509 0
M  V30 7911 O 782.802 1.41315 1.63887 0
M  V30 7912 C 783.397 3.16628 -1.20548 0
M  V30 7913 C 781.956 3.64059 -0.955934 0
M  V30 7914 C 781.103 2.42715 -1.34106 0
M  V30 7915 H 784.054 1.10136 -1.14262 0
M  V30 7916 H 784.075 3.76183 -0.571547 0
M  V30 7917 H 783.587 3.13646 -2.28578 0
M  V30 7918 H 781.688 3.72441 0.108858 0
M  V30 7919 H 781.801 4.51549 -1.60126 0
M  V30 7920 H 780.165 2.43114 -0.759452 0
M  V30 7921 H 780.948 2.42414 -2.43085 0
M  V30 7922 N 783.393 0.737304 1.3929 0
M  V30 7923 C 784.641 0.285691 2.00071 0
M  V30 7924 C 784.962 -1.13169 1.58801 0
M  V30 7925 O 784.232 -1.77104 0.837308 0
M  V30 7926 H 782.812 0.102638 0.739915 0
M  V30 7927 H 785.474 0.947775 1.70303 0
M  V30 7928 H 784.57 0.335906 3.10287 0
M  V30 7929 N 784.871 -1.49948 0.485112 0
M  V30 7930 C 786.118 -2.02396 -0.0650059 0
M  V30 7931 C 786.446 -1.36606 -1.38452 0
M  V30 7932 O 785.701 -0.485476 -1.89583 0
M  V30 7933 C 786 -3.56282 -0.282434 0
M  V30 7934 C 785.666 -4.40625 0.957106 0
M  V30 7935 C 784.328 -4.63393 1.29692 0
M  V30 7936 C 786.68 -4.89799 1.78176 0
M  V30 7937 C 784.008 -5.3258 2.4612 0
M  V30 7938 C 786.36 -5.60266 2.93743 0
M  V30 7939 C 785.024 -5.81284 3.28124 0
M  V30 7940 H 784.294 -0.740618 -0.0237873 0
M  V30 7941 H 786.941 -1.80416 0.642044 0
M  V30 7942 H 785.246 -3.76853 -1.07186 0
M  V30 7943 H 786.943 -3.94442 -0.722276 0
M  V30 7944 H 783.533 -4.23133 0.682384 0
M  V30 7945 H 787.717 -4.7205 1.53239 0
M  V30 7946 H 782.973 -5.47059 2.73014 0
M  V30 7947 H 787.147 -5.97347 3.5798 0
M  V30 7948 H 784.774 -6.34671 4.18446 0
M  V30 7949 N 786.349 -0.21828 -1.56081 0
M  V30 7950 C 787.596 0.414307 -1.98216 0
M  V30 7951 C 787.924 1.60005 -1.10584 0
M  V30 7952 O 787.179 1.95124 -0.150043 0
M  V30 7953 C 787.478 0.894782 -3.46018 0
M  V30 7954 C 787.144 -0.180083 -4.5054 0
M  V30 7955 C 785.806 -0.475367 -4.78846 0
M  V30 7956 C 788.158 -0.907191 -5.13244 0
M  V30 7957 C 785.486 -1.50233 -5.67139 0
M  V30 7958 C 787.838 -1.92347 -6.02649 0
M  V30 7959 C 786.502 -2.22571 -6.293 0
M  V30 7960 H 785.772 0.151606 -0.725325 0
M  V30 7961 H 788.419 -0.320113 -1.88806 0
M  V30 7962 H 786.724 1.7079 -3.52616 0
M  V30 7963 H 788.421 1.39403 -3.75989 0
M  V30 7964 H 785.011 0.06022 -4.28558 0
M  V30 7965 H 789.195 -0.692303 -4.91448 0
M  V30 7966 H 784.451 -1.74215 -5.86054 0
M  V30 7967 H 788.625 -2.49197 -6.50288 0
M  V30 7968 H 786.252 -3.0229 -6.97513 0
M  V30 7969 N 787.827 1.57504 0.0551401 0
M  V30 7970 C 789.052 1.92682 0.767352 0
M  V30 7971 C 789.477 0.81614 1.69472 0
M  V30 7972 O 788.835 -0.229989 1.79835 0
M  V30 7973 C 788.883 3.26866 1.52286 0
M  V30 7974 O 787.987 3.17274 2.63459 0
M  V30 7975 H 787.328 0.630502 0.208238 0
M  V30 7976 H 789.858 2.04592 0.0184026 0
M  V30 7977 H 789.868 3.61138 1.8985 0
M  V30 7978 H 788.543 4.07276 0.842541 0
M  V30 7979 H 787.12 2.94589 2.2863 0
M  V30 7980 N 789.305 -0.326896 1.54172 0
M  V30 7981 C 790.716 -0.901533 1.63491 0
M  V30 7982 C 791.067 -1.88994 0.52684 0
M  V30 7983 O 790.192 -2.137 -0.340794 0
M  V30 7984 C 790.787 -1.64192 2.96355 0
M  V30 7985 C 789.346 -2.16533 3.07881 0
M  V30 7986 C 788.493 -0.98966 2.59039 0
M  V30 7987 H 791.444 -0.104568 1.58355 0
M  V30 7988 H 791.465 -2.50592 2.86328 0
M  V30 7989 H 790.977 -0.922291 3.76982 0
M  V30 7990 H 789.078 -2.91622 2.31922 0
M  V30 7991 H 789.191 -2.41762 4.13628 0
M  V30 7992 H 787.555 -1.36787 2.14852 0
M  V30 7993 H 788.338 -0.284401 3.4212 0
M  V30 7994 N 790.784 -1.46188 -0.588786 0
M  V30 7995 C 791.717 -1.508 -1.71274 0
M  V30 7996 C 792.695 -0.362635 -1.58505 0
M  V30 7997 O 793.879 -0.565899 -1.79805 0
M  V30 7998 C 791.006 -1.38082 -3.09275 0
M  V30 7999 C 790.052 -2.56723 -3.40581 0
M  V30 8000 S 790.885 -4.1911 -3.33327 0
M  V30 8001 C 792.041 -4.08891 -4.73877 0
M  V30 8002 H 792.274 -2.45895 -1.67102 0
M  V30 8003 H 789.807 -1.34 -0.767025 0
M  V30 8004 H 791.765 -1.31432 -3.88891 0
M  V30 8005 H 790.426 -0.444259 -3.10942 0
M  V30 8006 H 789.619 -2.43801 -4.41109 0
M  V30 8007 H 789.221 -2.60332 -2.68521 0
M  V30 8008 H 791.513 -3.75196 -5.64123 0
M  V30 8009 H 792.456 -5.09395 -4.91856 0
M  V30 8010 H 792.864 -3.40239 -4.50441 0
M  V30 8011 N 792.262 0.832906 -1.33792 0
M  V30 8012 C 793.192 1.95828 -1.27176 0
M  V30 8013 C 794.173 1.69427 -0.15114 0
M  V30 8014 O 795.358 1.91167 -0.341886 0
M  V30 8015 C 792.488 3.32098 -1.01629 0
M  V30 8016 C 791.442 3.72912 -2.10049 0
M  V30 8017 C 790.768 5.07054 -1.69706 0
M  V30 8018 C 792.068 3.86064 -3.51783 0
M  V30 8019 H 793.762 2.01622 -2.21334 0
M  V30 8020 H 791.308 0.96866 -1.0655 0
M  V30 8021 H 793.261 4.10402 -0.956474 0
M  V30 8022 H 791.985 3.26577 -0.0390956 0
M  V30 8023 H 790.644 2.96876 -2.15082 0
M  V30 8024 H 790.292 4.9801 -0.706737 0
M  V30 8025 H 789.992 5.35333 -2.42264 0
M  V30 8026 H 791.516 5.87827 -1.65202 0
M  V30 8027 H 792.93 4.54665 -3.49218 0
M  V30 8028 H 791.327 4.25787 -4.22878 0
M  V30 8029 H 792.397 2.88344 -3.89854 0
M  V30 8030 N 793.74 1.17359 1.05189 0
M  V30 8031 C 794.988 0.960087 1.77839 0
M  V30 8032 C 795.309 -0.512554 1.88143 0
M  V30 8033 O 794.579 -1.3721 1.39822 0
M  V30 8034 H 793.159 0.352234 0.658741 0
M  V30 8035 H 795.821 1.47834 1.27008 0
M  V30 8036 H 794.917 1.38843 2.79516 0
M  V30 8037 N 795.218 -1.23913 0.973828 0
M  V30 8038 C 796.128 -2.28838 0.516735 0
M  V30 8039 C 797.144 -1.68723 -0.425282 0
M  V30 8040 O 798.32 -1.99201 -0.296819 0
M  V30 8041 C 795.385 -3.46233 -0.179914 0
M  V30 8042 C 794.446 -4.21729 0.80269 0
M  V30 8043 C 793.679 -5.33518 0.139191 0
M  V30 8044 O 793.902 -5.60252 -1.07118 0
M  V30 8045 O 792.836 -5.96088 0.834447 0
M  V30 8046 H 796.662 -2.70067 1.38916 0
M  V30 8047 H 794.247 -1.2972 0.74115 0
M  V30 8048 H 796.129 -4.17514 -0.570991 0
M  V30 8049 H 794.804 -3.06969 -1.02721 0
M  V30 8050 H 793.711 -3.52799 1.24434 0
M  V30 8051 H 795.044 -4.64825 1.61859 0
M  V30 8052 N 796.696 -0.74468 -1.38897 0
M  V30 8053 C 797.943 -0.296884 -2.00312 0
M  V30 8054 C 798.271 1.11878 -1.59102 0
M  V30 8055 O 797.526 1.7789 -0.815702 0
M  V30 8056 C 797.825 -0.357302 -3.55609 0
M  V30 8057 C 797.491 -1.72736 -4.16501 0
M  V30 8058 C 796.153 -2.10232 -4.32846 0
M  V30 8059 C 798.505 -2.62647 -4.50184 0
M  V30 8060 C 795.833 -3.3713 -4.80167 0
M  V30 8061 C 798.185 -3.88926 -4.98918 0
M  V30 8062 C 796.849 -4.26503 -5.1347 0
M  V30 8063 H 796.119 -0.108638 -0.732993 0
M  V30 8064 H 798.766 -0.953419 -1.66079 0
M  V30 8065 H 797.071 0.382805 -3.89925 0
M  V30 8066 H 798.768 0.0074596 -4.00999 0
M  V30 8067 H 795.358 -1.42585 -4.04187 0
M  V30 8068 H 799.542 -2.34945 -4.37166 0
M  V30 8069 H 794.798 -3.66174 -4.89619 0
M  V30 8070 H 798.972 -4.58745 -5.23952 0
M  V30 8071 H 796.599 -5.24896 -5.49898 0
M  V30 8072 N 798.174 1.49689 -0.493057 0
M  V30 8073 C 799.42 2.02727 0.0543518 0
M  V30 8074 C 799.753 1.37264 1.37376 0
M  V30 8075 O 799.028 0.505644 1.87812 0
M  V30 8076 C 799.311 3.59456 0.215226 0
M  V30 8077 C 799.164 4.35459 -1.12675 0
M  V30 8078 C 800.483 4.29511 0.959586 0
M  V30 8079 H 797.602 0.736773 0.0182786 0
M  V30 8080 H 800.244 1.78792 -0.642924 0
M  V30 8081 H 798.394 3.79981 0.809122 0
M  V30 8082 H 800.066 4.2645 -1.75891 0
M  V30 8083 H 798.309 3.9833 -1.71801 0
M  V30 8084 H 798.98 5.43454 -0.967578 0
M  V30 8085 H 801.456 4.13594 0.455977 0
M  V30 8086 H 800.332 5.38939 1.04098 0
M  V30 8087 H 800.593 3.94202 2.00144 0
M  V30 8088 N 799.652 0.226554 1.55963 0
M  V30 8089 C 800.877 -0.411527 2.03276 0
M  V30 8090 C 801.302 -1.52206 1.10521 0
M  V30 8091 O 800.66 -1.81054 0.0943217 0
M  V30 8092 C 800.708 -0.915694 3.4878 0
M  V30 8093 O 799.812 -2.02672 3.59163 0
M  V30 8094 H 799.153 -0.0924907 0.657527 0
M  V30 8095 H 801.683 0.346656 2.01642 0
M  V30 8096 H 801.693 -1.22421 3.892 0
M  V30 8097 H 800.368 -0.102915 4.15773 0
M  V30 8098 H 798.945 -1.72445 3.30632 0
M  V30 8099 N 801.13 -1.57531 -0.0467866 0
M  V30 8100 C 802.04 -2.08768 -1.07018 0
M  V30 8101 C 803.056 -1.02245 -1.40791 0
M  V30 8102 O 804.232 -1.33873 -1.50466 0
M  V30 8103 C 801.297 -2.54221 -2.35738 0
M  V30 8104 C 800.358 -3.75152 -2.08709 0
M  V30 8105 C 799.591 -4.18428 -3.31291 0
M  V30 8106 O 799.814 -3.61365 -4.4133 0
M  V30 8107 O 798.748 -5.11018 -3.18032 0
M  V30 8108 H 802.574 -2.96334 -0.664812 0
M  V30 8109 H 800.159 -1.47074 -0.262605 0
M  V30 8110 H 802.041 -2.83866 -3.11445 0
M  V30 8111 H 800.716 -1.69774 -2.75605 0
M  V30 8112 H 799.623 -3.50553 -1.30627 0
M  V30 8113 H 800.956 -4.60528 -1.73708 0
M  V30 8114 N 802.608 0.318715 -1.54344 0
M  V30 8115 C 803.836 1.0755 -1.7675 0
M  V30 8116 C 804.251 1.81543 -0.518422 0
M  V30 8117 O 803.608 1.75198 0.511078 0
M  V30 8118 C 803.659 2.06983 -2.96378 0
M  V30 8119 O 803.38 1.35995 -4.16458 0
M  V30 8120 C 804.881 2.94841 -3.31034 0
M  V30 8121 H 802.101 0.319711 -0.589937 0
M  V30 8122 H 804.645 0.363369 -2.01246 0
M  V30 8123 H 802.8 2.73724 -2.74142 0
M  V30 8124 H 803.214 2.02623 -4.83781 0
M  V30 8125 H 804.688 3.60496 -4.18027 0
M  V30 8126 H 805.165 3.62199 -2.48412 0
M  V30 8127 H 805.771 2.33656 -3.55366 0
M  V30 8128 N 804.086 1.46499 0.581025 0
M  V30 8129 C 804.996 1.59778 1.71779 0
M  V30 8130 C 806.012 0.481223 1.67213 0
M  V30 8131 O 807.188 0.74557 1.87091 0
M  V30 8132 C 804.253 1.58626 3.08283 0
M  V30 8133 C 803.314 2.81527 3.241 0
M  V30 8134 C 802.547 2.80421 4.54092 0
M  V30 8135 O 802.77 1.89262 5.38085 0
M  V30 8136 O 801.704 3.71984 4.73193 0
M  V30 8137 H 805.53 2.55918 1.63523 0
M  V30 8138 H 803.115 1.29311 0.748267 0
M  V30 8139 H 804.997 1.60686 3.89561 0
M  V30 8140 H 803.672 0.656467 3.16973 0
M  V30 8141 H 802.579 2.85021 2.42309 0
M  V30 8142 H 803.912 3.73721 3.20302 0
M  V30 8143 N 805.565 -0.825799 1.34232 0
M  V30 8144 C 806.79 -1.61883 1.29648 0
M  V30 8145 C 807.215 -1.87669 -0.127295 0
M  V30 8146 O 806.573 -1.45016 -1.08813 0
M  V30 8147 C 806.621 -2.93846 2.09014 0
M  V30 8148 O 805.725 -3.85778 1.4577 0
M  V30 8149 H 805.066 -0.492454 0.445405 0
M  V30 8150 H 807.596 -1.02641 1.76992 0
M  V30 8151 H 807.606 -3.43435 2.20264 0
M  V30 8152 H 806.281 -2.74401 3.12533 0
M  V30 8153 H 804.858 -3.4429 1.43245 0
M  V30 8154 N 807.043 -1.17915 -1.04565 0
M  V30 8155 C 808.459 -0.927761 -1.29864 0
M  V30 8156 C 808.659 0.409536 -1.97294 0
M  V30 8157 O 807.715 1.14505 -2.25044 0
M  V30 8158 C 809.028 -2.08967 -2.16225 0
M  V30 8159 C 810.576 -2.12741 -2.29587 0
M  V30 8160 C 811.051 -3.28335 -3.19312 0
M  V30 8161 N 812.542 -3.28164 -3.26898 0
M  V30 8162 C 813.277 -4.14249 -3.96466 0
M  V30 8163 N 812.773 -5.10457 -4.68407 0
M  V30 8164 N 814.566 -4.02179 -3.92694 0
M  V30 8165 H 806.717 -2.03983 -0.592011 0
M  V30 8166 H 808.98 -0.891023 -0.323701 0
M  V30 8167 H 808.686 -3.05654 -1.73979 0
M  V30 8168 H 808.56 -2.04606 -3.16885 0
M  V30 8169 H 810.947 -1.16636 -2.71072 0
M  V30 8170 H 811.028 -2.21162 -1.28535 0
M  V30 8171 H 810.672 -4.2471 -2.78539 0
M  V30 8172 H 810.602 -3.17151 -4.20384 0
M  V30 8173 H 813.093 -2.58511 -2.75646 0
M  V30 8174 H 813.406 -5.72526 -5.1907 0
M  V30 8175 H 811.751 -5.14422 -4.67328 0
M  V30 8176 H 814.942 -3.26308 -3.3562 0
M  V30 8177 H 815.115 -4.69486 -4.4664 0
M  V30 8178 N 808.521 1.23394 -0.980386 0
M  V30 8179 C 809.769 1.91431 -0.647978 0
M  V30 8180 C 810.09 1.76871 0.821066 0
M  V30 8181 O 809.36 1.14808 1.58732 0
M  V30 8182 H 807.94 0.708516 -0.236673 0
M  V30 8183 H 810.602 1.50019 -1.2442 0
M  V30 8184 H 809.698 2.98854 -0.899592 0
M  V30 8185 N 809.999 0.752036 1.385 0
M  V30 8186 C 811.224 0.316993 2.04963 0
M  V30 8187 C 811.649 -1.04582 1.56346 0
M  V30 8188 O 811.007 -1.66616 0.714755 0
M  V30 8189 C 811.055 0.347235 3.58924 0
M  V30 8190 O 810.159 -0.659296 4.07096 0
M  V30 8191 H 809.5 0.140652 0.648932 0
M  V30 8192 H 812.03 1.02272 1.77205 0
M  V30 8193 H 812.04 0.19757 4.07521 0
M  V30 8194 H 810.715 1.34157 3.93668 0
M  V30 8195 H 809.292 -0.474371 3.6987 0
M  V30 8196 N 811.477 -1.49425 0.500989 0
M  V30 8197 C 812.387 -2.32899 -0.282011 0
M  V30 8198 C 813.403 -1.44632 -0.967346 0
M  V30 8199 O 814.579 -1.77654 -0.94873 0
M  V30 8200 C 811.644 -3.20069 -1.33253 0
M  V30 8201 C 810.705 -4.24186 -0.660636 0
M  V30 8202 C 809.938 -5.07191 -1.6611 0
M  V30 8203 O 810.161 -4.91712 -2.89094 0
M  V30 8204 O 809.095 -5.8948 -1.21643 0
M  V30 8205 H 812.921 -3.01038 0.401224 0
M  V30 8206 H 810.506 -1.47079 0.262323 0
M  V30 8207 H 812.388 -3.74071 -1.94033 0
M  V30 8208 H 811.063 -2.54625 -1.9987 0
M  V30 8209 H 809.97 -3.74098 -0.0130959 0
M  V30 8210 H 811.303 -4.92186 -0.0369179 0
M  V30 8211 N 812.955 -0.234822 -1.55841 0
M  V30 8212 C 814.18 0.400741 -2.03492 0
M  V30 8213 C 814.605 1.51618 -1.11327 0
M  V30 8214 O 813.963 1.81002 -0.103922 0
M  V30 8215 C 814.011 0.897184 -3.49261 0
M  V30 8216 O 813.115 2.00764 -3.60233 0
M  V30 8217 H 812.456 0.0890023 -0.658008 0
M  V30 8218 H 814.986 -0.357345 -2.01455 0
M  V30 8219 H 814.996 1.20356 -3.89844 0
M  V30 8220 H 813.671 0.0808639 -4.15821 0
M  V30 8221 H 812.248 1.70689 -3.31541 0
M  V30 8222 N 814.433 1.57553 0.0384317 0
M  V30 8223 C 815.681 1.88468 0.729672 0
M  V30 8224 C 816.002 0.831302 1.76393 0
M  V30 8225 O 815.272 -0.13622 1.95426 0
M  V30 8226 H 813.852 0.695529 0.272485 0
M  V30 8227 H 816.514 1.94899 0.0066032 0
M  V30 8228 H 815.61 2.8705 1.22511 0
M  V30 8229 N 815.911 -0.310526 1.54511 0
M  V30 8230 C 817.16 -1.0445 1.72549 0
M  V30 8231 C 817.473 -1.88748 0.513172 0
M  V30 8232 O 818.679 -2.65338 0.575165 0
M  V30 8233 C 817.135 -1.90665 3.05246 0
M  V30 8234 C 816.743 -1.11415 4.33925 0
M  V30 8235 C 818.487 -2.63719 3.32645 0
M  V30 8236 C 816.394 -1.96852 5.57677 0
M  V30 8237 H 815.324 -0.393676 0.643067 0
M  V30 8238 H 817.975 -0.302003 1.80998 0
M  V30 8239 H 816.357 -2.68864 2.90737 0
M  V30 8240 H 817.531 -0.378956 4.59239 0
M  V30 8241 H 815.846 -0.499853 4.13389 0
M  V30 8242 H 818.443 -3.27974 4.223 0
M  V30 8243 H 818.786 -3.32047 2.51098 0
M  V30 8244 H 819.319 -1.92574 3.48081 0
M  V30 8245 H 816.058 -1.33009 6.41864 0
M  V30 8246 H 815.578 -2.68069 5.36562 0
M  V30 8247 H 817.257 -2.55127 5.94575 0
M  V30 8248 N 817.389 -1.46805 -0.573248 0
M  V30 8249 C 818.636 -1.52604 -1.3311 0
M  V30 8250 C 818.964 -0.181633 -1.9365 0
M  V30 8251 O 818.219 0.823775 -1.77517 0
M  V30 8252 C 818.518 -2.58001 -2.47326 0
M  V30 8253 C 818.184 -4.01747 -2.04719 0
M  V30 8254 C 816.846 -4.40881 -1.92814 0
M  V30 8255 C 819.198 -4.92008 -1.71982 0
M  V30 8256 C 816.526 -5.68129 -1.46445 0
M  V30 8257 C 818.878 -6.19703 -1.27089 0
M  V30 8258 C 817.542 -6.57733 -1.13768 0
M  V30 8259 H 816.812 -0.558417 -0.487084 0
M  V30 8260 H 819.459 -1.80327 -0.644538 0
M  V30 8261 H 817.764 -2.23974 -3.2147 0
M  V30 8262 H 819.461 -2.59715 -3.05531 0
M  V30 8263 H 816.051 -3.70819 -2.14922 0
M  V30 8264 H 820.235 -4.62485 -1.8006 0
M  V30 8265 H 815.491 -5.96359 -1.34783 0
M  V30 8266 H 819.665 -6.89064 -1.00814 0
M  V30 8267 H 817.292 -7.56228 -0.776142 0
M  V30 8268 N 818.867 0.818669 -1.34668 0
M  V30 8269 C 820.095 1.60674 -1.30351 0
M  V30 8270 C 820.51 1.88408 0.121546 0
M  V30 8271 O 819.867 1.47849 1.06991 0
M  V30 8272 C 819.918 2.94516 -2.09625 0
M  V30 8273 O 819.639 2.6799 -3.46573 0
M  V30 8274 C 821.14 3.8891 -2.12754 0
M  V30 8275 H 818.36 0.499306 -0.448258 0
M  V30 8276 H 820.904 1.01828 -1.77345 0
M  V30 8277 H 819.059 3.49908 -1.66262 0
M  V30 8278 H 819.473 3.53361 -3.87603 0
M  V30 8279 H 820.947 4.79972 -2.72637 0
M  V30 8280 H 821.424 4.24599 -1.12306 0
M  V30 8281 H 822.03 3.39453 -2.56225 0
M  V30 8282 N 820.346 1.18468 1.03938 0
M  V30 8283 C 821.294 0.909286 2.14091 0
M  V30 8284 C 822.288 -0.130928 1.68893 0
M  V30 8285 O 823.494 0.0173403 1.79992 0
M  V30 8286 H 819.869 0.27658 0.699291 0
M  V30 8287 H 821.84 1.84514 2.34515 0
M  V30 8288 C 820.589 0.452922 3.44737 0
M  V30 8289 H 819.912 1.24485 3.79926 0
M  V30 8290 H 821.352 0.299238 4.22943 0
M  V30 8291 C 819.811 -0.831435 3.26479 0
M  V30 8292 O 820.341 -1.89535 3.54174 0
M  V30 8293 N 818.547 -0.784545 2.79809 0
M  V30 8294 H 818.094 0.0814746 2.57471 0
M  V30 8295 H 818.052 -1.64431 2.67973 0
M  V30 8296 N 821.824 -1.22873 0.986916 0
M  V30 8297 C 823.052 -1.95487 0.677663 0
M  V30 8298 C 823.467 -1.72978 -0.756572 0
M  V30 8299 O 822.824 -1.02517 -1.50985 0
M  V30 8300 C 822.875 -3.48337 0.966638 0
M  V30 8301 O 822.596 -3.70087 2.34451 0
M  V30 8302 C 824.097 -4.38142 0.674248 0
M  V30 8303 H 821.317 -0.622211 0.251185 0
M  V30 8304 H 823.861 -1.56187 1.32007 0
M  V30 8305 H 822.016 -3.85628 0.370137 0
M  V30 8306 H 822.43 -4.64332 2.43918 0
M  V30 8307 H 823.904 -5.44165 0.926759 0
M  V30 8308 H 824.381 -4.3745 -0.391728 0
M  V30 8309 H 824.987 -4.06469 1.25152 0
M  V30 8310 N 823.302 -0.75937 -1.38099 0
M  V30 8311 C 824.249 -0.135508 -2.30402 0
M  V30 8312 C 825.219 0.703356 -1.50473 0
M  V30 8313 O 826.404 0.658287 -1.79084 0
M  V30 8314 C 823.544 0.747228 -3.36913 0
M  V30 8315 C 822.657 -0.106893 -4.31868 0
M  V30 8316 C 821.792 0.779388 -5.25451 0
M  V30 8317 C 820.831 -0.0780179 -6.1205 0
M  V30 8318 N 819.968 0.765545 -6.97914 0
M  V30 8319 H 824.808 -0.9282 -2.83176 0
M  V30 8320 H 822.345 -0.46935 -1.39411 0
M  V30 8321 H 824.303 1.27371 -3.97281 0
M  V30 8322 H 822.933 1.50565 -2.85535 0
M  V30 8323 H 821.985 -0.751063 -3.72912 0
M  V30 8324 H 823.297 -0.768798 -4.9284 0
M  V30 8325 H 822.451 1.37282 -5.90964 0
M  V30 8326 H 821.19 1.47501 -4.6486 0
M  V30 8327 H 820.195 -0.684078 -5.45528 0
M  V30 8328 H 821.42 -0.770786 -6.74712 0
M  V30 8329 H 819.366 1.44601 -6.39864 0
M  V30 8330 H 819.283 0.160666 -7.55829 0
M  V30 8331 H 820.551 1.34377 -7.6783 0
M  V30 8332 N 824.78 1.49157 -0.508906 0
M  V30 8333 C 825.69 2.33045 0.269656 0
M  V30 8334 C 826.706 1.45143 0.959662 0
M  V30 8335 O 827.882 1.78155 0.939295 0
M  V30 8336 C 824.947 3.20772 1.31554 0
M  V30 8337 C 824.008 4.24531 0.638131 0
M  V30 8338 C 823.241 5.08065 1.63418 0
M  V30 8339 O 823.464 4.93238 2.86483 0
M  V30 8340 O 822.398 5.90117 1.18516 0
M  V30 8341 H 826.224 3.00821 -0.417183 0
M  V30 8342 H 823.809 1.46938 -0.270119 0
M  V30 8343 H 825.691 3.75095 1.92047 0
M  V30 8344 H 824.366 2.55681 1.98516 0
M  V30 8345 H 823.273 3.74099 -0.00674357 0
M  V30 8346 H 824.606 4.92199 0.0108155 0
M  V30 8347 N 826.258 0.243083 1.55714 0
M  V30 8348 C 827.483 -0.389944 2.03701 0
M  V30 8349 C 827.908 -1.51025 1.12129 0
M  V30 8350 O 827.266 -1.80944 0.11352 0
M  V30 8351 C 827.314 -0.878649 3.49731 0
M  V30 8352 O 826.418 -1.98851 3.61292 0
M  V30 8353 H 825.759 -0.0855115 0.658471 0
M  V30 8354 H 828.289 0.368023 2.01263 0
M  V30 8355 H 828.299 -1.18287 3.90477 0
M  V30 8356 H 826.974 -0.0588107 4.15858 0
M  V30 8357 H 825.551 -1.68928 3.32442 0
M  V30 8358 N 827.736 -1.57571 -0.0300757 0
M  V30 8359 C 828.961 -1.93879 -0.736601 0
M  V30 8360 C 829.386 -0.842998 -1.68152 0
M  V30 8361 O 828.744 0.20135 -1.80178 0
M  V30 8362 C 828.792 -3.29247 -1.47066 0
M  V30 8363 O 827.896 -3.21426 -2.58378 0
M  V30 8364 H 827.237 -0.633735 -0.198181 0
M  V30 8365 H 829.767 -2.04595 0.0141485 0
M  V30 8366 H 829.777 -3.64113 -1.84081 0
M  V30 8367 H 828.452 -4.08565 -0.77764 0
M  V30 8368 H 827.029 -2.98189 -2.23914 0
M  V30 8369 N 829.214 0.302327 -1.54673 0
M  V30 8370 C 830.439 1.06103 -1.78205 0
M  V30 8371 C 830.864 1.80204 -0.53926 0
M  V30 8372 O 830.222 1.73975 0.510142 0
M  V30 8373 C 830.27 2.01829 -2.98827 0
M  V30 8374 O 829.374 3.10108 -2.71858 0
M  V30 8375 H 828.715 0.30487 -0.589873 0
M  V30 8376 H 831.245 0.340153 -2.01753 0
M  V30 8377 H 831.255 2.44319 -3.2676 0
M  V30 8378 H 829.93 1.473 -3.88942 0
M  V30 8379 H 828.507 2.72142 -2.54937 0
M  V30 8380 N 830.692 1.47107 0.565454 0
M  V30 8381 C 831.642 1.55384 1.66852 0
M  V30 8382 C 832.626 0.413369 1.55499 0
M  V30 8383 O 833.818 0.66281 1.64121 0
M  V30 8384 C 830.947 1.5634 3.05635 0
M  V30 8385 C 830.033 2.75742 3.22222 0
M  V30 8386 N 830.424 4.00515 3.08903 0
M  V30 8387 C 828.722 2.7233 3.53203 0
M  V30 8388 C 829.423 4.80435 3.27959 0
M  V30 8389 N 828.399 4.1261 3.53913 0
M  V30 8390 H 832.201 2.49635 1.55111 0
M  V30 8391 H 829.715 1.42986 0.769982 0
M  V30 8392 H 831.712 1.60359 3.84825 0
M  V30 8393 H 830.372 0.631785 3.18494 0
M  V30 8394 H 831.383 4.31501 2.86404 0
M  V30 8395 H 828.06 1.8827 3.7264 0
M  V30 8396 H 829.45 5.89334 3.22699 0
M  V30 8397 N 832.17 -0.811516 1.35101 0
M  V30 8398 C 833.12 -1.91227 1.24163 0
M  V30 8399 C 834.104 -1.60307 0.138012 0
M  V30 8400 O 835.296 -1.73116 0.368767 0
M  V30 8401 C 832.425 -3.2808 1.01085 0
M  V30 8402 C 831.511 -3.65082 2.15815 0
M  V30 8403 N 831.902 -3.73558 3.4101 0
M  V30 8404 C 830.2 -3.95005 2.07092 0
M  V30 8405 C 830.901 -4.06158 4.16426 0
M  V30 8406 N 829.877 -4.19982 3.45132 0
M  V30 8407 H 833.679 -1.95975 2.19023 0
M  V30 8408 H 831.193 -1.00583 1.27503 0
M  V30 8409 H 833.19 -4.06771 0.913382 0
M  V30 8410 H 831.85 -3.24622 0.0710406 0
M  V30 8411 H 832.861 -3.56761 3.75423 0
M  V30 8412 H 829.538 -3.99601 1.20937 0
M  V30 8413 H 830.928 -4.19824 5.24592 0
M  V30 8414 N 833.648 -1.19017 -1.03309 0
M  V30 8415 C 835.059 -0.993206 -1.5809 0
M  V30 8416 C 835.41 0.45505 -1.9085 0
M  V30 8417 O 834.535 1.33372 -1.70414 0
M  V30 8418 C 835.13 -1.79661 -2.87241 0
M  V30 8419 C 833.689 -1.64377 -3.38611 0
M  V30 8420 C 832.836 -1.78628 -2.12102 0
M  V30 8421 H 835.787 -1.3345 -0.858879 0
M  V30 8422 H 835.808 -1.29019 -3.57958 0
M  V30 8423 H 835.32 -2.85061 -2.63366 0
M  V30 8424 H 833.421 -0.615447 -3.67482 0
M  V30 8425 H 833.534 -2.44651 -4.11926 0
M  V30 8426 H 831.898 -1.21648 -2.23772 0
M  V30 8427 H 832.681 -2.8548 -1.90673 0
M  V30 8428 N 835.127 1.22348 -0.993418 0
M  V30 8429 C 836.375 1.90733 -0.668246 0
M  V30 8430 C 836.696 1.77732 0.802261 0
M  V30 8431 O 835.966 1.16486 1.57505 0
M  V30 8432 H 834.546 0.705966 -0.244174 0
M  V30 8433 H 837.208 1.48691 -1.26004 0
M  V30 8434 H 836.304 2.97883 -0.931239 0
M  V30 8435 N 836.605 0.766683 1.37694 0
M  V30 8436 C 837.854 0.325425 1.99057 0
M  V30 8437 C 838.167 -1.10275 1.61551 0
M  V30 8438 O 839.373 -1.64513 2.1598 0
M  V30 8439 C 837.829 0.530886 3.55963 0
M  V30 8440 C 837.437 1.96899 4.02411 0
M  V30 8441 C 839.181 0.152997 4.24224 0
M  V30 8442 C 837.088 2.12232 5.52007 0
M  V30 8443 H 836.018 0.117929 0.744721 0
M  V30 8444 H 838.669 0.945091 1.5729 0
M  V30 8445 H 837.051 -0.158162 3.95684 0
M  V30 8446 H 838.225 2.69258 3.73948 0
M  V30 8447 H 836.54 2.303 3.46916 0
M  V30 8448 H 839.137 0.24614 5.34133 0
M  V30 8449 H 839.48 -0.896096 4.06541 0
M  V30 8450 H 840.013 0.794398 3.89787 0
M  V30 8451 H 836.752 3.15442 5.7461 0
M  V30 8452 H 836.272 1.4435 5.82171 0
M  V30 8453 H 837.951 1.9185 6.17902 0
M  V30 8454 N 838.083 -1.48885 0.516809 0
M  V30 8455 C 839.046 -2.27916 -0.242256 0
M  V30 8456 C 840.046 -1.34601 -0.879735 0
M  V30 8457 O 841.236 -1.57616 -0.74182 0
M  V30 8458 C 838.368 -3.13067 -1.34914 0
M  V30 8459 H 839.561 -2.96483 0.451444 0
M  V30 8460 H 837.114 -1.5391 0.272294 0
M  V30 8461 H 837.849 -2.49102 -2.07651 0
M  V30 8462 H 837.634 -3.81695 -0.897313 0
M  V30 8463 H 839.124 -3.72716 -1.88341 0
M  V30 8464 N 839.561 -0.251338 -1.55583 0
M  V30 8465 C 840.471 0.656978 -2.25213 0
M  V30 8466 C 841.487 1.18966 -1.26977 0
M  V30 8467 O 842.663 1.22499 -1.59862 0
M  V30 8468 C 839.728 1.83527 -2.94141 0
M  V30 8469 C 838.789 1.34162 -4.07798 0
M  V30 8470 C 838.022 2.46375 -4.73429 0
M  V30 8471 O 838.245 3.65205 -4.38157 0
M  V30 8472 O 837.179 2.15881 -5.61853 0
M  V30 8473 H 841.005 0.0936395 -3.03556 0
M  V30 8474 H 838.59 -0.0196638 -1.49387 0
M  V30 8475 H 840.472 2.52279 -3.3754 0
M  V30 8476 H 839.147 2.38614 -2.18735 0
M  V30 8477 H 838.054 0.621249 -3.68906 0
M  V30 8478 H 839.387 0.836779 -4.85035 0
M  V30 8479 N 841.039 1.57585 0.0217189 0
M  V30 8480 C 842.286 1.89606 0.711045 0
M  V30 8481 C 842.614 0.849535 1.74966 0
M  V30 8482 O 841.869 -0.14856 1.95135 0
M  V30 8483 C 842.168 3.28377 1.41079 0
M  V30 8484 C 841.834 4.48035 0.507454 0
M  V30 8485 C 840.496 4.80504 0.258672 0
M  V30 8486 C 842.848 5.21071 -0.115793 0
M  V30 8487 C 840.176 5.83393 -0.622013 0
M  V30 8488 C 842.528 6.24897 -0.984224 0
M  V30 8489 C 841.192 6.55836 -1.2424 0
M  V30 8490 H 840.462 0.693817 0.26019 0
M  V30 8491 H 843.109 1.91478 -0.0291424 0
M  V30 8492 H 841.414 3.22528 2.22448 0
M  V30 8493 H 843.111 3.50404 1.94982 0
M  V30 8494 H 839.701 4.22653 0.711516 0
M  V30 8495 H 843.885 4.96259 0.0634327 0
M  V30 8496 H 839.141 6.05736 -0.830267 0
M  V30 8497 H 843.315 6.8063 -1.47363 0
M  V30 8498 H 840.942 7.35383 -1.92653 0
M  V30 8499 N 842.517 -0.29412 1.54831 0
M  V30 8500 C 843.928 -0.866651 1.65366 0
M  V30 8501 C 844.279 -1.87834 0.56681 0
M  V30 8502 O 843.404 -2.14374 -0.295389 0
M  V30 8503 C 843.999 -1.57869 2.99771 0
M  V30 8504 C 842.558 -2.09954 3.12404 0
M  V30 8505 C 841.705 -0.934492 2.6108 0
M  V30 8506 H 844.656 -0.0709551 1.58541 0
M  V30 8507 H 844.677 -2.44462 2.91579 0
M  V30 8508 H 844.189 -0.84212 3.78853 0
M  V30 8509 H 842.29 -2.86637 2.38055 0
M  V30 8510 H 842.403 -2.32934 4.18663 0
M  V30 8511 H 840.767 -1.32199 2.17705 0
M  V30 8512 H 841.55 -0.211768 3.42646 0
M  V30 8513 N 843.995 -1.47404 -0.557645 0
M  V30 8514 C 845.22 -1.57868 -1.34508 0
M  V30 8515 C 845.645 -0.229151 -1.86699 0
M  V30 8516 O 845.003 0.794908 -1.62944 0
M  V30 8517 C 845.051 -2.60712 -2.49122 0
M  V30 8518 O 844.155 -2.15952 -3.51338 0
M  V30 8519 H 843.496 -0.530335 -0.399551 0
M  V30 8520 H 846.026 -1.93181 -0.673954 0
M  V30 8521 H 846.036 -2.81118 -2.95697 0
M  V30 8522 H 844.711 -3.58701 -2.10491 0
M  V30 8523 H 843.288 -2.05644 -3.11071 0
M  V30 8524 N 845.473 0.80434 -1.35529 0
M  V30 8525 C 846.889 1.10023 -1.15616 0
M  V30 8526 C 847.089 2.01478 0.0298535 0
M  V30 8527 O 846.145 2.42609 0.699778 0
M  V30 8528 C 847.458 1.72905 -2.46017 0
M  V30 8529 C 849.006 1.85315 -2.52245 0
M  V30 8530 C 849.481 2.51612 -3.82695 0
M  V30 8531 N 850.972 2.59095 -3.83958 0
M  V30 8532 C 851.707 3.11167 -4.81625 0
M  V30 8533 N 851.203 3.63659 -5.89681 0
M  V30 8534 N 852.996 3.09741 -4.6906 0
M  V30 8535 H 845.147 0.196428 -2.1149 0
M  V30 8536 H 847.41 0.149735 -0.9361 0
M  V30 8537 H 847.116 1.13171 -3.32994 0
M  V30 8538 H 846.99 2.72579 -2.6073 0
M  V30 8539 H 849.377 2.44191 -1.65695 0
M  V30 8540 H 849.458 0.844886 -2.41444 0
M  V30 8541 H 849.102 1.93385 -4.69643 0
M  V30 8542 H 849.032 3.5298 -3.90785 0
M  V30 8543 H 851.523 2.21908 -3.05884 0
M  V30 8544 H 851.836 4.01699 -6.60195 0
M  V30 8545 H 850.181 3.61852 -5.9337 0
M  V30 8546 H 853.372 2.68011 -3.83781 0
M  V30 8547 H 853.545 3.50016 -5.45338 0
M  V30 8548 N 846.951 1.19563 1.02676 0
M  V30 8549 C 848.199 0.997593 1.75763 0
M  V30 8550 C 848.52 -0.47253 1.89188 0
M  V30 8551 O 847.79 -1.34214 1.42701 0
M  V30 8552 H 846.37 0.366128 0.651122 0
M  V30 8553 H 849.032 1.50495 1.23844 0
M  V30 8554 H 848.128 1.44741 2.76508 0
M  V30 8555 N 848.429 -1.21819 0.999893 0
M  V30 8556 C 849.376 -2.24003 0.556005 0
M  V30 8557 C 850.346 -1.60825 -0.415287 0
M  V30 8558 O 851.531 -1.88123 -0.318481 0
M  V30 8559 C 848.671 -3.44904 -0.116289 0
M  V30 8560 C 847.784 -4.22573 0.897574 0
M  V30 8561 C 846.919 -5.30831 0.198073 0
M  V30 8562 C 845.958 -6.00225 1.19983 0
M  V30 8563 N 845.095 -7.00111 0.528157 0
M  V30 8564 H 849.935 -2.61334 1.43208 0
M  V30 8565 H 847.472 -1.28431 0.717205 0
M  V30 8566 H 849.43 -4.13908 -0.523055 0
M  V30 8567 H 848.06 -3.08315 -0.956108 0
M  V30 8568 H 847.112 -3.52797 1.42262 0
M  V30 8569 H 848.424 -4.70363 1.66013 0
M  V30 8570 H 847.578 -6.06121 -0.265065 0
M  V30 8571 H 846.317 -4.84033 -0.596924 0
M  V30 8572 H 845.322 -5.23711 1.67353 0
M  V30 8573 H 846.547 -6.4911 1.99582 0
M  V30 8574 H 844.493 -6.55534 -0.247276 0
M  V30 8575 H 844.41 -7.45943 1.22904 0
M  V30 8576 H 845.678 -7.7945 0.0880543 0
M  V30 8577 N 849.908 -0.773975 -1.37286 0
M  V30 8578 C 851.133 -0.349561 -2.04433 0
M  V30 8579 C 851.558 1.02082 -1.5799 0
M  V30 8580 O 850.916 1.65458 -0.741172 0
M  V30 8581 C 850.964 -0.404292 -3.58326 0
M  V30 8582 O 850.068 0.594447 -4.08093 0
M  V30 8583 H 849.409 -0.150959 -0.646612 0
M  V30 8584 H 851.939 -1.05079 -1.75555 0
M  V30 8585 H 851.949 -0.262378 -4.07155 0
M  V30 8586 H 850.624 -1.40403 -3.91484 0
M  V30 8587 H 849.201 0.415468 -3.70578 0
M  V30 8588 N 851.386 1.48609 -0.524698 0
M  V30 8589 C 852.611 2.07398 0.00952139 0
M  V30 8590 C 853.036 1.37939 1.27884 0
M  V30 8591 O 852.394 0.443633 1.75788 0
M  V30 8592 C 852.442 3.59916 0.221956 0
M  V30 8593 O 851.546 3.91647 1.29175 0
M  V30 8594 H 850.887 0.662981 -0.0367729 0
M  V30 8595 H 853.417 1.91092 -0.7311 0
M  V30 8596 H 853.427 4.05552 0.446236 0
M  V30 8597 H 852.102 4.09876 -0.705306 0
M  V30 8598 H 850.679 3.57796 1.05055 0
M  V30 8599 N 852.864 0.259585 1.55447 0
M  V30 8600 C 854.089 -0.368317 2.04103 0
M  V30 8601 C 854.514 -1.49827 1.13725 0
M  V30 8602 O 853.872 -1.80814 0.132705 0
M  V30 8603 C 853.92 -0.841506 3.50644 0
M  V30 8604 O 853.024 -1.95008 3.63381 0
M  V30 8605 H 852.365 -0.0785227 0.659341 0
M  V30 8606 H 854.895 0.389349 2.00861 0
M  V30 8607 H 854.905 -1.14138 3.9171 0
M  V30 8608 H 853.58 -0.0147001 4.15897 0
M  V30 8609 H 852.157 -1.65393 3.34215 0
M  V30 8610 N 854.342 -1.57594 -0.0133615 0
M  V30 8611 C 855.572 -1.93969 -0.711295 0
M  V30 8612 C 855.98 -0.859084 -1.68572 0
M  V30 8613 O 855.323 0.171842 -1.82894 0
M  V30 8614 C 855.385 -3.2625 -1.51001 0
M  V30 8615 C 855.049 -4.51628 -0.698645 0
M  V30 8616 C 856.046 -5.19899 0.00791185 0
M  V30 8617 C 853.731 -4.98095 -0.648553 0
M  V30 8618 C 855.725 -6.32928 0.753691 0
M  V30 8619 C 853.412 -6.11017 0.10096 0
M  V30 8620 C 854.41 -6.78289 0.800828 0
M  V30 8621 O 854.098 -7.89048 1.53814 0
M  V30 8622 H 853.83 -0.6445 -0.203951 0
M  V30 8623 H 856.384 -2.05378 0.0298267 0
M  V30 8624 H 854.614 -3.11211 -2.29531 0
M  V30 8625 H 856.303 -3.47835 -2.09202 0
M  V30 8626 H 857.069 -4.84995 -0.0217192 0
M  V30 8627 H 852.948 -4.45568 -1.18282 0
M  V30 8628 H 856.492 -6.85371 1.3005 0
M  V30 8629 H 852.389 -6.45364 0.132459 0
M  V30 8630 H 853.157 -8.05492 1.45345 0
M  V30 8631 N 855.82 0.285905 -1.54985 0
M  V30 8632 C 857.045 1.04207 -1.7932 0
M  V30 8633 C 857.47 1.79622 -0.558343 0
M  V30 8634 O 856.828 1.74506 0.491661 0
M  V30 8635 C 856.876 1.98648 -3.0095 0
M  V30 8636 O 855.98 3.07207 -2.75132 0
M  V30 8637 H 855.321 0.298596 -0.593074 0
M  V30 8638 H 857.851 0.318736 -2.02102 0
M  V30 8639 H 857.861 2.4084 -3.29333 0
M  V30 8640 H 856.536 1.43167 -3.90482 0
M  V30 8641 H 855.113 2.69423 -2.57809 0
M  V30 8642 N 857.298 1.47698 0.54982 0
M  V30 8643 C 858.245 1.60739 1.65625 0
M  V30 8644 C 859.215 0.450129 1.59884 0
M  V30 8645 O 860.4 0.671123 1.78607 0
M  V30 8646 C 857.54 1.63457 3.03934 0
M  V30 8647 C 856.653 2.90152 3.20056 0
M  V30 8648 C 855.788 2.84157 4.48807 0
M  V30 8649 C 854.827 4.05644 4.58387 0
M  V30 8650 N 853.964 3.97843 5.78503 0
M  V30 8651 H 858.804 2.55234 1.53817 0
M  V30 8652 H 856.341 1.26593 0.749173 0
M  V30 8653 H 858.299 1.63015 3.84034 0
M  V30 8654 H 856.929 0.724689 3.1456 0
M  V30 8655 H 855.981 3.00428 2.33339 0
M  V30 8656 H 857.293 3.80097 3.22998 0
M  V30 8657 H 856.447 2.82006 5.37175 0
M  V30 8658 H 855.186 1.91908 4.48356 0
M  V30 8659 H 854.191 4.08092 3.6843 0
M  V30 8660 H 855.416 4.9903 4.60593 0
M  V30 8661 H 853.362 3.08401 5.78986 0
M  V30 8662 H 853.279 4.81473 5.82855 0
M  V30 8663 H 854.547 3.99719 6.69212 0
M  V30 8664 N 858.776 -0.797141 1.35954 0
M  V30 8665 C 859.708 -1.91782 1.25509 0
M  V30 8666 C 860.721 -1.61843 0.176271 0
M  V30 8667 O 861.91 -1.73235 0.430343 0
M  V30 8668 C 859.01 -3.26396 0.912073 0
M  V30 8669 C 858.183 -3.84171 2.0912 0
M  V30 8670 C 857.242 -4.9721 1.72246 0
M  V30 8671 O 856.268 -5.14136 2.44239 0
M  V30 8672 N 857.47 -5.76831 0.651611 0
M  V30 8673 H 860.235 -2.01266 2.22063 0
M  V30 8674 H 857.796 -0.975033 1.29247 0
M  V30 8675 H 859.788 -3.99499 0.646707 0
M  V30 8676 H 858.358 -3.12579 0.0359079 0
M  V30 8677 H 857.578 -3.03148 2.51982 0
M  V30 8678 H 858.866 -4.19503 2.87914 0
M  V30 8679 H 858.264 -5.65675 0.0536678 0
M  V30 8680 H 856.821 -6.50272 0.44605 0
M  V30 8681 N 860.254 -1.20106 -1.0204 0
M  V30 8682 C 861.501 -1.00889 -1.75578 0
M  V30 8683 C 861.829 0.459415 -1.88996 0
M  V30 8684 O 861.084 1.35735 -1.40977 0
M  V30 8685 C 861.383 -1.63308 -3.17908 0
M  V30 8686 C 861.049 -3.13091 -3.24476 0
M  V30 8687 C 859.711 -3.53968 -3.25976 0
M  V30 8688 C 862.063 -4.09093 -3.22944 0
M  V30 8689 C 859.391 -4.89381 -3.2361 0
M  V30 8690 C 861.743 -5.44447 -3.22119 0
M  V30 8691 C 860.407 -5.84742 -3.2192 0
M  V30 8692 H 859.677 -0.36918 -0.642485 0
M  V30 8693 H 862.324 -1.49475 -1.19706 0
M  V30 8694 H 860.629 -1.06974 -3.76914 0
M  V30 8695 H 862.326 -1.45958 -3.73493 0
M  V30 8696 H 858.916 -2.80526 -3.24042 0
M  V30 8697 H 863.1 -3.78549 -3.20958 0
M  V30 8698 H 858.356 -5.1987 -3.21785 0
M  V30 8699 H 862.53 -6.18584 -3.19885 0
M  V30 8700 H 860.157 -6.89642 -3.19841 0
M  V30 8701 N 861.732 1.21287 -1.00634 0
M  V30 8702 C 862.96 1.94385 -0.708678 0
M  V30 8703 C 863.375 1.7416 0.728957 0
M  V30 8704 O 862.732 1.04906 1.49335 0
M  V30 8705 C 862.783 3.46755 -1.02193 0
M  V30 8706 O 862.504 3.6631 -2.40309 0
M  V30 8707 C 864.005 4.37014 -0.743867 0
M  V30 8708 H 861.225 0.618136 -0.261052 0
M  V30 8709 H 863.769 1.54067 -1.34475 0
M  V30 8710 H 861.924 3.8499 -0.431441 0
M  V30 8711 H 862.338 4.60393 -2.51274 0
M  V30 8712 H 863.812 5.42621 -1.01321 0
M  V30 8713 H 864.289 4.38017 0.322084 0
M  V30 8714 H 864.895 4.04426 -1.31603 0
M  V30 8715 N 863.21 0.781244 1.36873 0
M  V30 8716 C 864.435 0.360398 2.04245 0
M  V30 8717 C 864.86 -1.01242 1.58529 0
M  V30 8718 O 864.218 -1.65063 0.749936 0
M  V30 8719 C 864.266 0.42329 3.58107 0
M  V30 8720 O 863.37 -0.572796 4.08403 0
M  V30 8721 H 862.711 0.154386 0.645803 0
M  V30 8722 H 865.241 1.06008 1.74996 0
M  V30 8723 H 865.251 0.283967 4.07011 0
M  V30 8724 H 863.926 1.42477 3.90734 0
M  V30 8725 H 862.503 -0.395809 3.70793 0
M  V30 8726 N 864.689 -1.48329 0.532571 0
M  V30 8727 C 865.914 -2.074 0.00147755 0
M  V30 8728 C 866.339 -1.38615 -1.27151 0
M  V30 8729 O 865.697 -0.452949 -1.75551 0
M  V30 8730 C 865.745 -3.60029 -0.202866 0
M  V30 8731 O 864.849 -3.92327 -1.27097 0
M  V30 8732 H 864.19 -0.662777 0.0402883 0
M  V30 8733 H 866.72 -1.90701 0.741224 0
M  V30 8734 H 866.73 -4.05783 -0.424722 0
M  V30 8735 H 865.405 -4.09496 0.727033 0
M  V30 8736 H 863.982 -3.58348 -1.03156 0
M  V30 8737 N 866.167 -0.267825 -1.55308 0
M  V30 8738 C 867.395 0.354587 -2.03839 0
M  V30 8739 C 867.81 1.50007 -1.14644 0
M  V30 8740 O 867.167 1.81752 -0.165055 0
M  V30 8741 C 867.218 0.84254 -3.51544 0
M  V30 8742 O 866.939 -0.257318 -4.37344 0
M  V30 8743 C 868.44 1.53351 -4.15931 0
M  V30 8744 H 865.66 0.0818131 -0.665994 0
M  V30 8745 H 868.204 -0.397795 -2.00594 0
M  V30 8746 H 866.359 1.54503 -3.55257 0
M  V30 8747 H 866.773 0.116593 -5.2437 0
M  V30 8748 H 868.247 1.82643 -5.20908 0
M  V30 8749 H 868.724 2.4626 -3.63666 0
M  V30 8750 H 869.33 0.87506 -4.162 0
M  V30 8751 N 867.645 1.57599 0.00500368 0
M  V30 8752 C 868.87 1.95026 0.705663 0
M  V30 8753 C 869.295 0.869643 1.6679 0
M  V30 8754 O 868.653 -0.172659 1.80476 0
M  V30 8755 C 868.701 3.31545 1.4181 0
M  V30 8756 O 867.805 3.25495 2.53232 0
M  V30 8757 H 867.146 0.636808 0.188074 0
M  V30 8758 H 869.676 2.04547 -0.046696 0
M  V30 8759 H 869.686 3.66996 1.78265 0
M  V30 8760 H 868.361 4.09751 0.712543 0
M  V30 8761 H 866.938 3.01714 2.19142 0
M  V30 8762 N 869.123 -0.277682 1.55134 0
M  V30 8763 C 870.353 -1.02677 1.79279 0
M  V30 8764 C 870.761 -1.80599 0.563962 0
M  V30 8765 O 870.104 -1.77416 -0.476378 0
M  V30 8766 C 870.166 -2.03617 2.96277 0
M  V30 8767 C 869.83 -1.44676 4.33495 0
M  V30 8768 C 870.827 -0.864811 5.12657 0
M  V30 8769 C 868.512 -1.47537 4.80144 0
M  V30 8770 C 870.506 -0.319322 6.366 0
M  V30 8771 C 868.193 -0.926016 6.04043 0
M  V30 8772 C 869.191 -0.348988 6.82108 0
M  V30 8773 O 868.879 0.191964 8.03671 0
M  V30 8774 H 868.611 -0.309232 0.601125 0
M  V30 8775 H 871.165 -0.315308 2.02965 0
M  V30 8776 H 869.395 -2.78509 2.68272 0
M  V30 8777 H 871.084 -2.64616 3.07788 0
M  V30 8778 H 871.85 -0.835438 4.7775 0
M  V30 8779 H 867.729 -1.91389 4.19394 0
M  V30 8780 H 871.273 0.131709 6.97476 0
M  V30 8781 H 867.17 -0.952613 6.38432 0
M  V30 8782 H 867.938 0.0808779 8.1846 0
M  V30 8783 N 870.601 -1.47988 -0.541979 0
M  V30 8784 C 871.549 -1.62044 -1.66867 0
M  V30 8785 C 872.543 -0.487217 -1.62242 0
M  V30 8786 O 873.749 -0.66554 -1.67244 0
M  V30 8787 H 870.124 -0.51024 -0.552412 0
M  V30 8788 H 872.095 -2.56695 -1.52153 0
M  V30 8789 C 870.844 -1.66615 -3.0518 0
M  V30 8790 H 870.167 -2.5317 -3.09427 0
M  V30 8791 H 871.607 -1.80496 -3.83663 0
M  V30 8792 C 870.066 -0.402421 -3.34488 0
M  V30 8793 O 870.596 0.48992 -3.98701 0
M  V30 8794 N 868.802 -0.277778 -2.89269 0
M  V30 8795 H 868.349 -1.00488 -2.37192 0
M  V30 8796 H 868.307 0.566784 -3.09249 0
M  V30 8797 N 872.079 0.78992 -1.36375 0
M  V30 8798 C 873.495 1.0879 -1.16777 0
M  V30 8799 C 873.695 2.01498 0.00848236 0
M  V30 8800 O 872.751 2.43338 0.674007 0
M  V30 8801 C 874.064 1.70285 -2.47837 0
M  V30 8802 C 875.612 1.82629 -2.54196 0
M  V30 8803 C 876.087 2.47539 -3.85342 0
M  V30 8804 N 877.578 2.55008 -3.86685 0
M  V30 8805 C 878.313 3.06041 -4.84898 0
M  V30 8806 N 877.809 3.57385 -5.93505 0
M  V30 8807 N 879.602 3.04748 -4.72319 0
M  V30 8808 H 871.753 0.173985 -2.11686 0
M  V30 8809 H 874.016 0.139798 -0.937636 0
M  V30 8810 H 873.722 1.09633 -3.34176 0
M  V30 8811 H 873.596 2.69799 -2.63607 0
M  V30 8812 H 875.983 2.42419 -1.68276 0
M  V30 8813 H 876.064 0.81923 -2.42327 0
M  V30 8814 H 875.708 1.88393 -4.71668 0
M  V30 8815 H 875.638 3.48815 -3.94507 0
M  V30 8816 H 878.129 2.18651 -3.08221 0
M  V30 8817 H 878.442 3.94674 -6.64419 0
M  V30 8818 H 876.787 3.55538 -5.97175 0
M  V30 8819 H 879.978 2.63925 -3.86602 0
M  V30 8820 H 880.151 3.44212 -5.49019 0
M  V30 8821 N 873.557 1.20646 1.01402 0
M  V30 8822 C 874.805 1.01618 1.74695 0
M  V30 8823 C 875.126 -0.452438 1.89679 0
M  V30 8824 O 874.396 -1.32693 1.44116 0
M  V30 8825 H 872.976 0.373013 0.647202 0
M  V30 8826 H 875.638 1.518 1.22241 0
M  V30 8827 H 874.734 1.47666 2.74957 0
M  V30 8828 N 875.035 -1.20752 1.01276 0
M  V30 8829 C 876.312 -1.85676 0.615112 0
M  V30 8830 C 876.692 -1.90623 -0.906976 0
M  V30 8831 O 876.04 -1.41124 -1.79712 0
M  V30 8832 C 876.25 -3.2552 1.25847 0
M  V30 8833 C 877.598 -4.0184 1.37148 0
M  V30 8834 O 878.622 -3.3486 1.21438 0
M  V30 8835 O 877.481 -5.21783 1.62495 0
M  V30 8836 H 874.575 -0.799437 0.211729 0
M  V30 8837 H 877.121 -1.28372 1.10989 0
M  V30 8838 H 875.893 -3.16664 2.29869 0
M  V30 8839 H 875.516 -3.90452 0.750524 0
M  V30 8840 N 876.513 -0.788492 -1.36457 0
M  V30 8841 C 877.738 -0.371224 -2.04051 0
M  V30 8842 C 878.163 1.004 -1.59064 0
M  V30 8843 O 877.521 1.64663 -0.758679 0
M  V30 8844 C 877.569 -0.442275 -3.57877 0
M  V30 8845 O 876.673 0.55113 -4.08701 0
M  V30 8846 H 876.014 -0.157808 -0.644975 0
M  V30 8847 H 878.544 -1.06935 -1.74431 0
M  V30 8848 H 878.554 -0.305548 -4.06854 0
M  V30 8849 H 877.229 -1.44547 -3.89973 0
M  V30 8850 H 875.806 0.37614 -3.70998 0
M  V30 8851 N 877.991 1.48044 -0.54043 0
M  V30 8852 C 879.219 2.06895 -0.0145153 0
M  V30 8853 C 879.634 1.39552 1.27164 0
M  V30 8854 O 878.991 0.486454 1.75897 0
M  V30 8855 C 879.042 3.60934 0.202278 0
M  V30 8856 O 878.763 4.25749 -1.03293 0
M  V30 8857 C 880.264 4.36607 0.767387 0
M  V30 8858 H 877.484 0.66991 -0.0382368 0
M  V30 8859 H 880.028 1.90288 -0.749057 0
M  V30 8860 H 878.183 3.77111 0.886897 0
M  V30 8861 H 878.597 5.18048 -0.820167 0
M  V30 8862 H 880.071 5.45126 0.86845 0
M  V30 8863 H 880.548 4.01745 1.77477 0
M  V30 8864 H 881.154 4.25133 0.119002 0
M  V30 8865 N 879.47 0.276058 1.55163 0
M  V30 8866 C 880.717 -0.340455 1.99618 0
M  V30 8867 C 881.045 -1.5579 1.16446 0
M  V30 8868 O 880.3 -1.94433 0.222359 0
M  V30 8869 C 880.599 -0.765744 3.491 0
M  V30 8870 C 880.265 0.347174 4.49561 0
M  V30 8871 C 878.927 0.65276 4.76752 0
M  V30 8872 C 881.279 1.09705 5.09523 0
M  V30 8873 C 878.607 1.71179 5.61173 0
M  V30 8874 C 880.959 2.14581 5.95095 0
M  V30 8875 C 879.623 2.45773 6.20606 0
M  V30 8876 H 878.893 -0.124581 0.730452 0
M  V30 8877 H 881.54 0.389966 1.87487 0
M  V30 8878 H 879.845 -1.57585 3.58712 0
M  V30 8879 H 881.542 -1.25352 3.80904 0
M  V30 8880 H 878.132 0.0988779 4.28486 0
M  V30 8881 H 882.316 0.874223 4.8854 0
M  V30 8882 H 877.572 1.95846 5.79184 0
M  V30 8883 H 881.746 2.7316 6.40591 0
M  V30 8884 H 879.373 3.27969 6.85813 0
M  V30 8885 N 880.948 -1.576 0.00335426 0
M  V30 8886 C 881.858 -2.12067 -1.00322 0
M  V30 8887 C 882.874 -1.06672 -1.37467 0
M  V30 8888 O 884.05 -1.38592 -1.46131 0
M  V30 8889 C 881.115 -2.61593 -2.27531 0
M  V30 8890 C 880.176 -3.81602 -1.96668 0
M  V30 8891 C 879.409 -4.28756 -3.17811 0
M  V30 8892 O 879.632 -3.75222 -4.2961 0
M  V30 8893 O 878.566 -5.20877 -3.01613 0
M  V30 8894 H 882.392 -2.98299 -0.570199 0
M  V30 8895 H 879.977 -1.47835 -0.215682 0
M  V30 8896 H 881.859 -2.93631 -3.02256 0
M  V30 8897 H 880.534 -1.78457 -2.70065 0
M  V30 8898 H 879.441 -3.54531 -1.19408 0
M  V30 8899 H 880.774 -4.65822 -1.58968 0
M  V30 8900 N 882.426 0.269451 -1.5528 0
M  V30 8901 C 883.651 1.02299 -1.80415 0
M  V30 8902 C 884.076 1.7902 -0.577363 0
M  V30 8903 O 883.434 1.75018 0.473125 0
M  V30 8904 C 883.482 1.95445 -3.0304 0
M  V30 8905 O 882.586 3.04271 -2.78375 0
M  V30 8906 H 881.927 0.292289 -0.596207 0
M  V30 8907 H 884.457 0.297282 -2.02429 0
M  V30 8908 H 884.467 2.37333 -3.31869 0
M  V30 8909 H 883.142 1.39017 -3.91978 0
M  V30 8910 H 881.719 2.66673 -2.60653 0
M  V30 8911 N 883.904 1.48273 0.534124 0
M  V30 8912 C 884.851 1.62487 1.6391 0
M  V30 8913 C 885.821 0.467062 1.59398 0
M  V30 8914 O 887.006 0.690029 1.77885 0
M  V30 8915 C 884.146 1.66671 3.02183 0
M  V30 8916 C 883.259 2.9353 3.16961 0
M  V30 8917 C 882.394 2.88902 4.45768 0
M  V30 8918 C 881.433 4.10483 4.54059 0
M  V30 8919 N 880.57 4.03956 5.74251 0
M  V30 8920 H 885.41 2.56851 1.51101 0
M  V30 8921 H 882.947 1.27381 0.735704 0
M  V30 8922 H 884.905 1.67079 3.82283 0
M  V30 8923 H 883.535 0.758011 3.13774 0
M  V30 8924 H 882.587 3.02886 2.3014 0
M  V30 8925 H 883.899 3.83501 3.18949 0
M  V30 8926 H 883.053 2.87688 5.34154 0
M  V30 8927 H 881.792 1.96652 4.46295 0
M  V30 8928 H 880.797 4.11977 3.64081 0
M  V30 8929 H 882.022 5.03887 4.55274 0
M  V30 8930 H 879.968 3.14525 5.75682 0
M  V30 8931 H 879.885 4.87628 5.77715 0
M  V30 8932 H 881.153 4.06795 6.64935 0
M  V30 8933 N 885.382 -0.782676 1.36792 0
M  V30 8934 C 886.607 -1.57676 1.34733 0
M  V30 8935 C 887.032 -1.87979 -0.0675253 0
M  V30 8936 O 886.39 -1.48404 -1.04144 0
M  V30 8937 C 886.438 -2.87047 2.18257 0
M  V30 8938 O 885.542 -3.80946 1.57969 0
M  V30 8939 H 884.883 -0.478034 0.460846 0
M  V30 8940 H 887.413 -0.969578 1.80168 0
M  V30 8941 H 887.423 -3.36254 2.31079 0
M  V30 8942 H 886.098 -2.64319 3.21104 0
M  V30 8943 H 884.675 -3.39558 1.54126 0
M  V30 8944 N 886.86 -1.21182 -1.00761 0
M  V30 8945 C 888.09 -1.05182 -1.77821 0
M  V30 8946 C 888.498 0.401527 -1.8489 0
M  V30 8947 O 887.841 1.29042 -1.30743 0
M  V30 8948 C 887.903 -1.57066 -3.23374 0
M  V30 8949 C 887.567 -3.05491 -3.39889 0
M  V30 8950 C 888.564 -4.03065 -3.28381 0
M  V30 8951 C 886.249 -3.44641 -3.65415 0
M  V30 8952 C 888.243 -5.37778 -3.4216 0
M  V30 8953 C 885.93 -4.79507 -3.78836 0
M  V30 8954 C 886.928 -5.75884 -3.67214 0
M  V30 8955 O 886.616 -7.08304 -3.80212 0
M  V30 8956 H 886.348 -0.369983 -0.565763 0
M  V30 8957 H 888.902 -1.60914 -1.27655 0
M  V30 8958 H 887.132 -0.957273 -3.74664 0
M  V30 8959 H 888.821 -1.36949 -3.82099 0
M  V30 8960 H 889.587 -3.74163 -3.08588 0
M  V30 8961 H 885.466 -2.7016 -3.73544 0
M  V30 8962 H 889.01 -6.12987 -3.33005 0
M  V30 8963 H 884.907 -5.08096 -3.98132 0
M  V30 8964 H 885.675 -7.15677 -3.97175 0
M  V30 8965 N 888.338 1.20213 -1.01915 0
M  V30 8966 C 889.285 2.2309 -0.591571 0
M  V30 8967 C 890.255 1.61465 0.389649 0
M  V30 8968 O 891.44 1.88606 0.288511 0
M  V30 8969 C 888.58 3.45045 0.0614028 0
M  V30 8970 C 887.693 4.21091 -0.964688 0
M  V30 8971 C 886.828 5.30448 -0.282499 0
M  V30 8972 C 885.867 5.98241 -1.29517 0
M  V30 8973 N 885.004 6.99182 -0.639472 0
M  V30 8974 H 889.844 2.59023 -1.47347 0
M  V30 8975 H 887.381 1.27274 -0.737547 0
M  V30 8976 H 889.339 4.14688 0.45714 0
M  V30 8977 H 887.969 3.09797 0.906937 0
M  V30 8978 H 887.021 3.50489 -1.47857 0
M  V30 8979 H 888.333 4.67662 -1.73475 0
M  V30 8980 H 887.487 6.06466 0.168603 0
M  V30 8981 H 886.226 4.84922 0.519843 0
M  V30 8982 H 885.231 5.20982 -1.75663 0
M  V30 8983 H 886.456 6.45853 -2.09884 0
M  V30 8984 H 884.402 6.55844 0.142955 0
M  V30 8985 H 884.319 7.43893 -1.34756 0
M  V30 8986 H 885.587 7.79212 -0.212047 0
M  V30 8987 N 889.816 0.795718 1.36037 0
M  V30 8988 C 890.749 0.144269 2.27744 0
M  V30 8989 C 891.727 -0.683351 1.47543 0
M  V30 8990 O 892.911 -0.652976 1.76829 0
M  V30 8991 C 890.038 -0.800944 3.29094 0
M  V30 8992 C 889.084 -0.0543234 4.26465 0
M  V30 8993 S 889.917 1.27426 5.20118 0
M  V30 8994 C 891.073 0.333213 6.25012 0
M  V30 8995 H 891.306 0.921827 2.82648 0
M  V30 8996 H 888.839 0.590241 1.42673 0
M  V30 8997 H 890.797 -1.34082 3.87985 0
M  V30 8998 H 889.458 -1.5518 2.7309 0
M  V30 8999 H 888.651 -0.771788 4.98056 0
M  V30 9000 H 888.253 0.415264 3.71687 0
M  V30 9001 H 890.545 -0.485604 6.75757 0
M  V30 9002 H 891.488 1.01798 7.00744 0
M  V30 9003 H 891.896 -0.066256 5.64461 0
M  V30 9004 N 891.294 -1.47756 0.548274 0
M  V30 9005 C 892.257 -2.28379 -0.193857 0
M  V30 9006 C 893.257 -1.36436 -0.850986 0
M  V30 9007 O 894.447 -1.59154 -0.70822 0
M  V30 9008 C 891.579 -3.15858 -1.28243 0
M  V30 9009 H 892.772 -2.95458 0.514231 0
M  V30 9010 H 890.325 -1.53298 0.304879 0
M  V30 9011 H 891.06 -2.5345 -2.0232 0
M  V30 9012 H 890.845 -3.83512 -0.816148 0
M  V30 9013 H 892.335 -3.76627 -1.80393 0
M  V30 9014 N 892.772 -0.284283 -1.55015 0
M  V30 9015 C 894.049 0.382125 -1.91831 0
M  V30 9016 C 894.429 1.73007 -1.20962 0
M  V30 9017 O 893.777 2.25962 -0.339594 0
M  V30 9018 C 893.987 0.513341 -3.45204 0
M  V30 9019 C 895.335 0.791989 -4.17148 0
M  V30 9020 O 896.359 0.597799 -3.51148 0
M  V30 9021 O 895.218 1.16394 -5.33961 0
M  V30 9022 H 892.312 0.210707 -0.799707 0
M  V30 9023 H 894.858 -0.331111 -1.66438 0
M  V30 9024 H 893.63 -0.434911 -3.88876 0
M  V30 9025 H 893.253 1.27569 -3.76579 0
M  V30 9026 N 894.251 1.57596 -0.0117121 0
M  V30 9027 C 895.161 2.12596 0.991964 0
M  V30 9028 C 896.177 1.07399 1.36899 0
M  V30 9029 O 897.353 1.39365 1.45394 0
M  V30 9030 C 894.418 2.62796 2.2614 0
M  V30 9031 C 893.479 3.8264 1.94642 0
M  V30 9032 C 892.712 4.30435 3.15533 0
M  V30 9033 O 892.935 3.77495 4.27614 0
M  V30 9034 O 891.869 5.22469 2.98847 0
M  V30 9035 H 895.695 2.98597 0.554371 0
M  V30 9036 H 893.28 1.47947 0.207839 0
M  V30 9037 H 895.162 2.9523 3.00695 0
M  V30 9038 H 893.837 1.79886 2.69114 0
M  V30 9039 H 892.744 3.5516 1.17526 0
M  V30 9040 H 894.077 4.66658 1.56496 0
M  V30 9041 N 895.729 -0.261212 1.5542 0
M  V30 9042 C 896.692 -1.30645 1.8832 0
M  V30 9043 C 897.692 -1.41782 0.758588 0
M  V30 9044 O 898.882 -1.40729 1.02669 0
M  V30 9045 C 896.014 -2.6862 2.09895 0
M  V30 9046 H 897.207 -1.02698 2.81768 0
M  V30 9047 H 894.76 -0.499838 1.48092 0
M  V30 9048 H 895.495 -3.0173 1.18868 0
M  V30 9049 H 895.28 -2.61921 2.91787 0
M  V30 9050 H 896.77 -3.44121 2.36581 0
M  V30 9051 N 897.207 -1.48554 -0.526253 0
M  V30 9052 C 898.455 -1.56452 -1.27935 0
M  V30 9053 C 898.776 -0.24184 -1.93495 0
M  V30 9054 O 898.046 0.736917 -1.81511 0
M  V30 9055 H 896.626 -0.576379 -0.47518 0
M  V30 9056 H 899.288 -1.85039 -0.612083 0
M  V30 9057 H 898.384 -2.34751 -2.05666 0
M  V30 9058 N 898.685 0.775411 -1.37205 0
M  V30 9059 C 899.91 1.5696 -1.35567 0
M  V30 9060 C 900.335 1.88012 0.0575554 0
M  V30 9061 O 899.693 1.48954 1.03355 0
M  V30 9062 C 899.741 2.85886 -2.19776 0
M  V30 9063 O 898.845 3.80103 -1.59987 0
M  V30 9064 H 898.186 0.475583 -0.463375 0
M  V30 9065 H 900.716 0.96001 -1.80679 0
M  V30 9066 H 900.726 3.35024 -2.32859 0
M  V30 9067 H 899.401 2.62613 -3.22502 0
M  V30 9068 H 897.978 3.38736 -1.55924 0
M  V30 9069 N 900.163 1.21714 1.00117 0
M  V30 9070 C 901.073 0.99597 2.12409 0
M  V30 9071 C 902.089 -0.0531431 1.73919 0
M  V30 9072 O 903.265 0.137757 2.00928 0
M  V30 9073 C 900.33 0.567593 3.42022 0
M  V30 9074 C 899.391 1.68936 3.94663 0
M  V30 9075 C 898.624 1.28133 5.1809 0
M  V30 9076 O 898.847 0.156574 5.70185 0
M  V30 9077 O 897.781 2.0947 5.64275 0
M  V30 9078 H 901.607 1.93657 2.33946 0
M  V30 9079 H 899.192 1.00236 1.10784 0
M  V30 9080 H 901.074 0.338664 4.20037 0
M  V30 9081 H 899.749 -0.34424 3.21864 0
M  V30 9082 H 898.656 1.97274 3.17858 0
M  V30 9083 H 899.989 2.57876 4.19238 0
M  V30 9084 N 901.641 -1.19671 1.02551 0
M  V30 9085 C 902.604 -2.20987 0.608055 0
M  V30 9086 C 903.604 -1.5745 -0.326534 0
M  V30 9087 O 904.794 -1.73827 -0.114003 0
M  V30 9088 C 901.926 -3.4072 -0.11074 0
M  V30 9089 H 903.119 -2.59434 1.50446 0
M  V30 9090 H 900.672 -1.3329 0.816307 0
M  V30 9091 H 901.407 -3.07787 -1.02165 0
M  V30 9092 H 901.192 -3.88069 0.560772 0
M  V30 9093 H 902.682 -4.15776 -0.389848 0
M  V30 9094 N 903.119 -0.802921 -1.35613 0
M  V30 9095 C 904.396 -0.304993 -1.93208 0
M  V30 9096 C 904.776 1.20488 -1.73337 0
M  V30 9097 O 904.124 2.00268 -1.10022 0
M  V30 9098 C 904.334 -0.712383 -3.41652 0
M  V30 9099 C 905.682 -0.699785 -4.18794 0
M  V30 9100 O 906.706 -0.653698 -3.5015 0
M  V30 9101 O 905.565 -0.754842 -5.41262 0
M  V30 9102 H 902.659 -0.0789127 -0.823226 0
M  V30 9103 H 905.205 -0.886372 -1.44712 0
M  V30 9104 H 903.977 -1.75316 -3.49829 0
M  V30 9105 H 903.6 -0.105614 -3.9746 0
M  V30 9106 N 904.597 1.47463 -0.556102 0
M  V30 9107 C 905.547 2.27007 0.212592 0
M  V30 9108 C 906.531 1.34288 0.886312 0
M  V30 9109 O 907.723 1.5865 0.784801 0
M  V30 9110 C 904.852 3.20021 1.24263 0
M  V30 9111 C 903.938 4.2022 0.572385 0
M  V30 9112 N 904.329 5.04539 -0.35691 0
M  V30 9113 C 902.627 4.38276 0.826441 0
M  V30 9114 C 903.328 5.76895 -0.746134 0
M  V30 9115 N 902.304 5.43506 -0.101225 0
M  V30 9116 H 906.106 2.89582 -0.501925 0
M  V30 9117 H 903.62 1.57988 -0.375961 0
M  V30 9118 H 905.617 3.7569 1.80728 0
M  V30 9119 H 904.277 2.59003 1.95826 0
M  V30 9120 H 905.288 5.12715 -0.731012 0
M  V30 9121 H 901.965 3.88429 1.53066 0
M  V30 9122 H 903.355 6.5472 -1.50967 0
M  V30 9123 N 906.075 0.2925 1.54862 0
M  V30 9124 C 906.985 -0.597036 2.26876 0
M  V30 9125 C 908.001 -1.15558 1.30086 0
M  V30 9126 O 909.177 -1.18217 1.63054 0
M  V30 9127 C 906.242 -1.75664 2.98903 0
M  V30 9128 C 905.303 -1.23303 4.11212 0
M  V30 9129 C 904.536 -2.33736 4.79795 0
M  V30 9130 O 904.759 -3.53459 4.47686 0
M  V30 9131 O 903.693 -2.00908 5.67379 0
M  V30 9132 H 907.519 -0.0131242 3.03697 0
M  V30 9133 H 905.104 0.0592642 1.49282 0
M  V30 9134 H 906.986 -2.43241 3.4411 0
M  V30 9135 H 905.661 -2.32731 2.24984 0
M  V30 9136 H 904.568 -0.523222 3.70423 0
M  V30 9137 H 905.901 -0.707887 4.87083 0
M  V30 9138 N 907.553 -1.57587 0.0200696 0
M  V30 9139 C 908.801 -1.91046 -0.65922 0
M  V30 9140 C 909.122 -0.896197 -1.73186 0
M  V30 9141 O 908.392 0.0635952 -1.95797 0
M  V30 9142 H 906.972 -0.705163 -0.246483 0
M  V30 9143 H 909.634 -1.94789 0.0657368 0
M  V30 9144 H 908.73 -2.91399 -1.11773 0
M  V30 9145 N 909.032 0.252966 -1.55557 0
M  V30 9146 C 910.26 0.999565 -1.81153 0
M  V30 9147 C 910.675 1.79181 -0.594955 0
M  V30 9148 O 910.032 1.77208 0.436311 0
M  V30 9149 C 910.083 1.94227 -3.04891 0
M  V30 9150 O 909.804 1.18209 -4.21851 0
M  V30 9151 C 911.305 2.80536 -3.43241 0
M  V30 9152 H 908.525 0.294402 -0.602966 0
M  V30 9153 H 911.069 0.277686 -2.02606 0
M  V30 9154 H 909.224 2.6185 -2.85505 0
M  V30 9155 H 909.638 1.81922 -4.9194 0
M  V30 9156 H 911.112 3.42442 -4.32941 0
M  V30 9157 H 911.589 3.51337 -2.6355 0
M  V30 9158 H 912.195 2.18373 -3.64956 0
M  V30 9159 N 910.51 1.48831 0.518367 0
M  V30 9160 C 911.46 1.60614 1.61824 0
M  V30 9161 C 912.444 0.462631 1.54106 0
M  V30 9162 O 913.636 0.714689 1.6193 0
M  V30 9163 C 910.765 1.65984 3.00507 0
M  V30 9164 C 909.851 2.85854 3.13286 0
M  V30 9165 N 910.242 4.1014 2.96005 0
M  V30 9166 C 908.54 2.83429 3.4436 0
M  V30 9167 C 909.241 4.90626 3.12508 0
M  V30 9168 N 908.217 4.2366 3.40607 0
M  V30 9169 H 912.019 2.54443 1.47091 0
M  V30 9170 H 909.533 1.45363 0.724102 0
M  V30 9171 H 911.53 1.72521 3.79529 0
M  V30 9172 H 910.19 0.732792 3.16323 0
M  V30 9173 H 911.201 4.40395 2.72531 0
M  V30 9174 H 907.878 2.0003 3.66462 0
M  V30 9175 H 909.268 5.99302 3.03786 0
M  V30 9176 N 911.988 -0.768124 1.37614 0
M  V30 9177 C 913.213 -1.56239 1.36397 0
M  V30 9178 C 913.638 -1.8804 -0.0475839 0
M  V30 9179 O 912.996 -1.495 -1.02564 0
M  V30 9180 C 913.044 -2.84716 2.21289 0
M  V30 9181 O 912.148 -3.79249 1.62001 0
M  V30 9182 H 911.489 -0.473119 0.465891 0
M  V30 9183 H 914.019 -0.950415 1.81186 0
M  V30 9184 H 914.029 -3.33784 2.34632 0
M  V30 9185 H 912.704 -2.60899 3.2389 0
M  V30 9186 H 911.281 -3.37904 1.57719 0
M  V30 9187 N 913.466 -1.22244 -0.994698 0
M  V30 9188 C 914.694 -1.07218 -1.76952 0
M  V30 9189 C 915.109 0.377388 -1.8499 0
M  V30 9190 O 914.466 1.26157 -1.31874 0
M  V30 9191 C 914.517 -1.67496 -3.20355 0
M  V30 9192 O 914.238 -3.06782 -3.12756 0
M  V30 9193 C 915.739 -1.57721 -4.14294 0
M  V30 9194 H 912.959 -0.375966 -0.555779 0
M  V30 9195 H 915.503 -1.61799 -1.25065 0
M  V30 9196 H 913.658 -1.16982 -3.69315 0
M  V30 9197 H 914.072 -3.35784 -4.02926 0
M  V30 9198 H 915.546 -2.04623 -5.12673 0
M  V30 9199 H 916.023 -0.533434 -4.35949 0
M  V30 9200 H 916.629 -2.07531 -3.71229 0
M  V30 9201 N 914.944 1.19125 -1.03184 0
M  V30 9202 C 915.891 2.2245 -0.6152 0
M  V30 9203 C 916.861 1.61869 0.372502 0
M  V30 9204 O 918.046 1.88901 0.268491 0
M  V30 9205 C 915.186 3.45091 0.0248027 0
M  V30 9206 C 914.299 4.20044 -1.0093 0
M  V30 9207 C 913.434 5.30119 -0.338744 0
M  V30 9208 C 912.473 5.96833 -1.35855 0
M  V30 9209 N 911.61 6.98464 -0.713594 0
M  V30 9210 H 916.45 2.57445 -1.50086 0
M  V30 9211 H 913.987 1.26485 -0.751005 0
M  V30 9212 H 915.945 4.15149 0.413131 0
M  V30 9213 H 914.575 3.10742 0.874028 0
M  V30 9214 H 913.627 3.48901 -1.51566 0
M  V30 9215 H 914.939 4.65796 -1.78425 0
M  V30 9216 H 914.093 6.0661 0.104269 0
M  V30 9217 H 912.832 4.85446 0.468382 0
M  V30 9218 H 911.837 5.1909 -1.81179 0
M  V30 9219 H 913.062 6.4359 -2.16722 0
M  V30 9220 H 911.008 6.55959 0.0733863 0
M  V30 9221 H 910.925 7.42422 -1.42638 0
M  V30 9222 H 912.193 7.78943 -0.294681 0
M  V30 9223 N 916.422 0.810101 1.35185 0
M  V30 9224 C 917.838 0.494269 1.51754 0
M  V30 9225 C 918.038 -0.983907 1.75845 0
M  V30 9226 O 917.094 -1.76882 1.80191 0
M  V30 9227 C 918.407 1.34268 2.69059 0
M  V30 9228 C 919.955 1.33848 2.82938 0
M  V30 9229 C 920.43 2.17109 4.03271 0
M  V30 9230 N 921.921 2.14664 4.10456 0
M  V30 9231 C 922.656 2.75843 5.02691 0
M  V30 9232 N 922.152 3.45962 6.00235 0
M  V30 9233 N 923.945 2.65465 4.95464 0
M  V30 9234 H 916.096 1.76736 1.17805 0
M  V30 9235 H 918.359 0.752429 0.576676 0
M  V30 9236 H 918.065 2.39183 2.57845 0
M  V30 9237 H 917.939 0.998362 3.63748 0
M  V30 9238 H 920.326 0.29716 2.936 0
M  V30 9239 H 920.407 1.72269 1.89095 0
M  V30 9240 H 920.051 3.21283 3.93369 0
M  V30 9241 H 919.981 1.76046 4.96302 0
M  V30 9242 H 922.472 1.63648 3.40628 0
M  V30 9243 H 922.785 3.89922 6.67219 0
M  V30 9244 H 921.13 3.50067 6.00398 0
M  V30 9245 H 924.321 2.1027 4.18215 0
M  V30 9246 H 924.494 3.13433 5.67154 0
M  V30 9247 N 917.9 -1.47166 0.563914 0
M  V30 9248 C 919.148 -2.02056 0.0422873 0
M  V30 9249 C 919.469 -1.43992 -1.31497 0
M  V30 9250 O 918.739 -0.617578 -1.85911 0
M  V30 9251 H 917.319 -0.746893 0.0126427 0
M  V30 9252 H 919.981 -1.80492 0.735441 0
M  V30 9253 H 919.077 -3.12073 -0.0408044 0
M  V30 9254 N 919.378 -0.300708 -1.54705 0
M  V30 9255 C 920.328 0.590589 -2.20218 0
M  V30 9256 C 921.312 1.09913 -1.17507 0
M  V30 9257 O 922.504 1.03995 -1.43227 0
M  V30 9258 C 919.633 1.76214 -2.94625 0
M  V30 9259 C 918.719 1.26957 -4.04651 0
M  V30 9260 N 919.11 0.494982 -5.03372 0
M  V30 9261 C 917.408 1.55033 -4.18188 0
M  V30 9262 C 918.109 0.232724 -5.81234 0
M  V30 9263 N 917.085 0.812443 -5.37494 0
M  V30 9264 H 920.887 -0.00876354 -2.93899 0
M  V30 9265 H 918.401 -0.105456 -1.62057 0
M  V30 9266 H 920.398 2.41221 -3.40027 0
M  V30 9267 H 919.058 2.36519 -2.22461 0
M  V30 9268 H 920.069 0.13991 -5.17711 0
M  V30 9269 H 916.746 2.16089 -3.57228 0
M  V30 9270 H 918.136 -0.389362 -6.70771 0
M  V30 9271 N 920.856 1.57574 -0.0284266 0
M  V30 9272 C 921.819 2.09096 0.938691 0
M  V30 9273 C 922.819 1.00588 1.25454 0
M  V30 9274 O 924.009 1.2675 1.19499 0
M  V30 9275 C 921.141 2.55624 2.25542 0
M  V30 9276 H 922.334 2.95829 0.49248 0
M  V30 9277 H 919.887 1.5475 0.219594 0
M  V30 9278 H 920.622 1.72218 2.74793 0
M  V30 9279 H 920.407 3.34896 2.03929 0
M  V30 9280 H 921.897 2.95712 2.94863 0
M  V30 9281 N 922.334 -0.244713 1.55689 0
M  V30 9282 C 923.281 -1.30301 1.905 0
M  V30 9283 C 924.251 -1.4772 0.759478 0
M  V30 9284 O 925.436 -1.61667 1.01333 0
M  V30 9285 C 922.576 -2.653 2.20703 0
M  V30 9286 C 921.689 -2.55872 3.48071 0
M  V30 9287 C 920.824 -3.83238 3.67834 0
M  V30 9288 C 919.863 -3.68436 4.88796 0
M  V30 9289 N 919 -4.877 5.05068 0
M  V30 9290 H 923.84 -0.999143 2.80751 0
M  V30 9291 H 921.377 -0.482099 1.38976 0
M  V30 9292 H 923.335 -3.43884 2.36219 0
M  V30 9293 H 921.965 -2.93831 1.33653 0
M  V30 9294 H 921.017 -1.68846 3.40874 0
M  V30 9295 H 922.329 -2.40845 4.36801 0
M  V30 9296 H 921.483 -4.70266 3.83321 0
M  V30 9297 H 920.222 -4.01165 2.77341 0
M  V30 9298 H 919.227 -2.79793 4.73282 0
M  V30 9299 H 920.452 -3.52003 5.8075 0
M  V30 9300 H 918.398 -5.05983 4.17513 0
M  V30 9301 H 918.315 -4.75312 5.8789 0
M  V30 9302 H 919.583 -5.76219 5.24969 0
M  V30 9303 N 923.813 -1.49104 -0.510467 0
M  V30 9304 C 925.038 -1.62068 -1.29417 0
M  V30 9305 C 925.463 -0.288432 -1.85875 0
M  V30 9306 O 924.821 0.742667 -1.65391 0
M  V30 9307 C 924.869 -2.68506 -2.40701 0
M  V30 9308 O 923.973 -2.27021 -3.4429 0
M  V30 9309 H 923.314 -0.542778 -0.382476 0
M  V30 9310 H 925.844 -1.95228 -0.612154 0
M  V30 9311 H 925.854 -2.90383 -2.86604 0
M  V30 9312 H 924.529 -3.65216 -1.98973 0
M  V30 9313 H 923.106 -2.15436 -3.04371 0
M  V30 9314 N 925.291 0.760815 -1.38019 0
M  V30 9315 C 926.707 1.06289 -1.19058 0
M  V30 9316 C 926.907 2.01471 -0.0342603 0
M  V30 9317 O 925.963 2.44713 0.62224 0
M  V30 9318 C 927.276 1.6499 -2.51394 0
M  V30 9319 C 928.824 1.77196 -2.58013 0
M  V30 9320 C 929.299 2.3931 -3.90506 0
M  V30 9321 N 930.79 2.46749 -3.92007 0
M  V30 9322 C 931.525 2.95687 -4.91281 0
M  V30 9323 N 931.021 3.44715 -6.00952 0
M  V30 9324 N 932.814 2.94661 -4.78677 0
M  V30 9325 H 924.965 0.129045 -2.12008 0
M  V30 9326 H 927.228 0.119878 -0.94039 0
M  V30 9327 H 926.934 1.0252 -3.36426 0
M  V30 9328 H 926.808 2.64146 -2.6927 0
M  V30 9329 H 929.195 2.38796 -1.7338 0
M  V30 9330 H 929.276 0.767645 -2.4401 0
M  V30 9331 H 928.92 1.78346 -4.75558 0
M  V30 9332 H 928.85 3.40369 -4.01817 0
M  V30 9333 H 931.341 2.12064 -3.12789 0
M  V30 9334 H 931.654 3.80492 -6.72641 0
M  V30 9335 H 929.999 3.42791 -6.04582 0
M  V30 9336 H 933.19 2.55665 -3.92113 0
M  V30 9337 H 933.363 3.32489 -5.56197 0
M  V30 9338 N 926.769 1.22769 0.988202 0
M  V30 9339 C 928.18 1.0512 1.54294 0
M  V30 9340 C 928.531 -0.383904 1.92407 0
M  V30 9341 O 927.656 -1.26955 1.75246 0
M  V30 9342 C 928.251 1.90198 2.80375 0
M  V30 9343 C 926.81 1.76831 3.32276 0
M  V30 9344 C 925.957 1.86377 2.05326 0
M  V30 9345 H 928.908 1.36546 0.808758 0
M  V30 9346 H 928.929 1.42216 3.52923 0
M  V30 9347 H 928.441 2.9464 2.52605 0
M  V30 9348 H 926.542 0.751412 3.64945 0
M  V30 9349 H 926.655 2.59771 4.02562 0
M  V30 9350 H 925.019 1.2987 2.19103 0
M  V30 9351 H 925.802 2.9236 1.79946 0
M  V30 9352 N 928.247 -1.18576 1.03814 0
M  V30 9353 C 929.493 -1.88773 0.741132 0
M  V30 9354 C 929.826 -1.79993 -0.729127 0
M  V30 9355 O 929.101 -1.19851 -1.53186 0
M  V30 9356 C 929.384 -3.39352 1.20468 0
M  V30 9357 C 929.237 -3.56955 2.73684 0
M  V30 9358 C 930.556 -4.32901 0.792741 0
M  V30 9359 H 927.675 -0.685482 0.270708 0
M  V30 9360 H 930.317 -1.39523 1.2897 0
M  V30 9361 H 928.467 -3.81427 0.737974 0
M  V30 9362 H 930.139 -3.2399 3.28372 0
M  V30 9363 H 928.382 -2.99696 3.13632 0
M  V30 9364 H 929.053 -4.62598 3.01176 0
M  V30 9365 H 931.529 -3.98592 1.1943 0
M  V30 9366 H 930.405 -5.36828 1.14486 0
M  V30 9367 H 930.666 -4.41052 -0.304295 0
M  V30 9368 N 929.725 -0.817259 -1.34754 0
M  V30 9369 C 931.141 -0.502309 -1.51489 0
M  V30 9370 C 931.341 0.974568 -1.76364 0
M  V30 9371 O 930.397 1.75924 -1.81127 0
M  V30 9372 C 931.71 -1.35693 -2.68343 0
M  V30 9373 C 933.258 -1.35347 -2.82224 0
M  V30 9374 C 933.733 -2.19244 -4.02114 0
M  V30 9375 N 935.224 -2.16837 -4.09311 0
M  V30 9376 C 935.959 -2.78505 -5.01221 0
M  V30 9377 N 935.455 -3.4914 -5.98392 0
M  V30 9378 N 937.248 -2.68089 -4.94049 0
M  V30 9379 H 929.399 -1.77359 -1.16866 0
M  V30 9380 H 931.662 -0.755476 -0.572678 0
M  V30 9381 H 931.368 -2.40548 -2.56573 0
M  V30 9382 H 931.242 -1.01764 -3.63213 0
M  V30 9383 H 933.629 -0.312727 -2.93438 0
M  V30 9384 H 933.71 -1.7327 -1.88179 0
M  V30 9385 H 933.354 -3.23365 -3.9166 0
M  V30 9386 H 933.284 -1.78675 -4.95361 0
M  V30 9387 H 935.775 -1.65452 -3.39756 0
M  V30 9388 H 936.088 -3.93455 -6.65141 0
M  V30 9389 H 934.433 -3.53246 -5.98533 0
M  V30 9390 H 937.624 -2.12485 -4.17094 0
M  V30 9391 H 937.797 -3.16436 -5.65484 0
M  V30 9392 N 931.203 1.46865 -0.571711 0
M  V30 9393 C 932.48 1.95596 0.0132445 0
M  V30 9394 C 932.86 1.51438 1.47071 0
M  V30 9395 O 932.208 0.759917 2.15494 0
M  V30 9396 C 932.418 3.48689 -0.147335 0
M  V30 9397 C 933.766 4.24599 -0.00946329 0
M  V30 9398 O 934.79 3.5612 -0.0756112 0
M  V30 9399 O 933.649 5.46332 0.135361 0
M  V30 9400 H 930.743 0.825102 0.0560039 0
M  V30 9401 H 933.289 1.57199 -0.639256 0
M  V30 9402 H 932.061 3.73681 -1.16096 0
M  V30 9403 H 931.684 3.93887 0.542109 0
M  V30 9404 N 932.681 0.308908 1.54543 0
M  V30 9405 C 933.921 -0.298811 2.02204 0
M  V30 9406 C 934.285 -1.50484 1.19242 0
M  V30 9407 O 935.486 -2.18445 1.56637 0
M  V30 9408 C 933.757 -0.638849 3.51644 0
M  V30 9409 S 935.316 -1.22831 4.21258 0
M  V30 9410 H 932.134 -0.0912638 0.705118 0
M  V30 9411 H 934.736 0.438622 1.90516 0
M  V30 9412 H 933.44 0.24726 4.09654 0
M  V30 9413 H 932.971 -1.40687 3.67384 0
M  V30 9414 H 934.986 -2.51579 4.27694 0
M  V30 9415 N 934.159 -1.57557 0.0367827 0
M  V30 9416 C 935.436 -1.83427 -0.679261 0
M  V30 9417 C 935.816 -0.922274 -1.89888 0
M  V30 9418 O 935.164 0.02025 -2.28491 0
M  V30 9419 C 935.374 -3.32823 -1.05022 0
M  V30 9420 C 936.722 -3.99486 -1.43861 0
M  V30 9421 O 937.746 -3.37364 -1.14297 0
M  V30 9422 O 936.605 -5.0899 -1.98977 0
M  V30 9423 H 933.699 -0.756581 -0.333936 0
M  V30 9424 H 936.245 -1.69575 0.0650494 0
M  V30 9425 H 935.017 -3.90874 -0.182509 0
M  V30 9426 H 934.64 -3.5181 -1.85244 0
M  V30 9427 N 935.637 0.236453 -1.55816 0
M  V30 9428 C 936.914 0.986463 -1.68903 0
M  V30 9429 C 937.294 2.02984 -0.579722 0
M  V30 9430 O 936.642 2.24693 0.415389 0
M  V30 9431 C 936.852 1.61038 -3.09625 0
M  V30 9432 C 938.2 2.10829 -3.6856 0
M  V30 9433 O 939.224 1.7096 -3.12492 0
M  V30 9434 O 938.083 2.84064 -4.66873 0
M  V30 9435 H 935.177 0.459837 -0.687371 0
M  V30 9436 H 937.723 0.229412 -1.68142 0
M  V30 9437 H 936.495 0.856232 -3.81817 0
M  V30 9438 H 936.118 2.43336 -3.14441 0
M  V30 9439 N 937.115 1.49373 0.502552 0
M  V30 9440 C 938.361 1.59016 1.25864 0
M  V30 9441 C 938.694 0.27532 1.92238 0
M  V30 9442 O 937.969 -0.720988 1.80643 0
M  V30 9443 C 938.252 2.74828 2.32683 0
M  V30 9444 C 938.105 4.16102 1.7082 0
M  V30 9445 C 939.424 2.86288 3.34256 0
M  V30 9446 H 936.543 0.578798 0.456248 0
M  V30 9447 H 939.185 1.81651 0.557032 0
M  V30 9448 H 937.335 2.5566 2.92524 0
M  V30 9449 H 939.007 4.46782 1.14818 0
M  V30 9450 H 937.25 4.21822 1.01238 0
M  V30 9451 H 937.921 4.93006 2.48292 0
M  V30 9452 H 940.397 3.03733 2.84404 0
M  V30 9453 H 939.273 3.69001 4.06362 0
M  V30 9454 H 939.534 1.95576 3.96488 0
M  V30 9455 N 938.594 -0.753485 1.38421 0
M  V30 9456 C 939.524 -1.8808 1.38377 0
M  V30 9457 C 940.505 -1.68258 0.249664 0
M  V30 9458 O 941.69 -1.88848 0.45276 0
M  V30 9459 C 938.82 -3.25608 1.20818 0
M  V30 9460 C 937.774 -3.60032 2.31433 0
M  V30 9461 C 937.1 -4.96297 1.9898 0
M  V30 9462 C 938.4 -3.64898 3.73694 0
M  V30 9463 H 940.094 -1.88375 2.32713 0
M  V30 9464 H 937.64 -0.90489 1.12017 0
M  V30 9465 H 939.593 -4.04127 1.19412 0
M  V30 9466 H 938.317 -3.25793 0.229433 0
M  V30 9467 H 936.976 -2.83831 2.32025 0
M  V30 9468 H 936.624 -4.93043 0.995889 0
M  V30 9469 H 936.324 -5.20298 2.73063 0
M  V30 9470 H 937.848 -5.77196 1.99193 0
M  V30 9471 H 939.262 -4.33531 3.75132 0
M  V30 9472 H 937.659 -4.00407 4.46983 0
M  V30 9473 H 938.729 -2.65124 4.06002 0
M  V30 9474 N 940.072 -1.23292 -0.981677 0
M  V30 9475 C 941.004 -0.970782 -2.07626 0
M  V30 9476 C 942.017 0.0547506 -1.62708 0
M  V30 9477 O 943.206 -0.180623 -1.77584 0
M  V30 9478 C 940.306 -0.44055 -3.36024 0
M  V30 9479 C 939.479 -1.52595 -4.09919 0
M  V30 9480 C 938.538 -1.00082 -5.16595 0
M  V30 9481 O 937.564 -1.68951 -5.43548 0
M  V30 9482 N 938.766 0.172017 -5.80245 0
M  V30 9483 H 941.531 -1.91316 -2.30691 0
M  V30 9484 H 939.092 -1.14133 -1.14828 0
M  V30 9485 H 941.084 -0.0743111 -4.04632 0
M  V30 9486 H 939.654 0.407211 -3.09936 0
M  V30 9487 H 938.874 -2.06501 -3.35784 0
M  V30 9488 H 940.162 -2.2559 -4.56055 0
M  V30 9489 H 939.56 0.748129 -5.60731 0
M  V30 9490 H 938.117 0.479532 -6.50034 0
M  V30 9491 N 941.55 1.18024 -1.04442 0
M  V30 9492 C 942.778 1.92032 -0.770161 0
M  V30 9493 C 943.193 1.76391 0.673181 0
M  V30 9494 O 942.55 1.09604 1.45922 0
M  V30 9495 C 942.601 3.43328 -1.13173 0
M  V30 9496 O 942.322 3.5848 -2.51841 0
M  V30 9497 C 943.823 4.34427 -0.882523 0
M  V30 9498 H 941.043 0.609518 -0.280586 0
M  V30 9499 H 943.587 1.49711 -1.39308 0
M  V30 9500 H 941.742 3.83423 -0.553704 0
M  V30 9501 H 942.156 4.52166 -2.65794 0
M  V30 9502 H 943.63 5.39123 -1.18533 0
M  V30 9503 H 944.107 4.3882 0.18257 0
M  V30 9504 H 944.713 4.00035 -1.44403 0
M  V30 9505 N 943.028 0.824394 1.34319 0
M  V30 9506 C 943.978 0.219624 2.2694 0
M  V30 9507 C 944.962 -0.616964 1.48601 0
M  V30 9508 O 946.154 -0.471303 1.7061 0
M  V30 9509 C 943.283 -0.616379 3.37721 0
M  V30 9510 C 942.369 0.230917 4.23471 0
M  V30 9511 N 942.76 1.30264 4.88738 0
M  V30 9512 C 941.058 0.0155016 4.45997 0
M  V30 9513 C 941.759 1.82141 5.52449 0
M  V30 9514 N 940.735 1.12508 5.3183 0
M  V30 9515 H 944.537 1.03939 2.74907 0
M  V30 9516 H 942.051 0.667353 1.48055 0
M  V30 9517 H 944.048 -1.06582 4.03046 0
M  V30 9518 H 942.708 -1.43429 2.91304 0
M  V30 9519 H 943.719 1.68545 4.89707 0
M  V30 9520 H 940.396 -0.770128 4.10336 0
M  V30 9521 H 941.786 2.7181 6.14466 0
M  V30 9522 N 944.506 -1.46559 0.579492 0
M  V30 9523 C 945.917 -1.8608 0.152052 0
M  V30 9524 C 946.268 -1.48346 -1.28405 0
M  V30 9525 O 945.393 -0.89685 -1.9694 0
M  V30 9526 C 945.988 -3.37729 0.269171 0
M  V30 9527 C 944.547 -3.76258 -0.103376 0
M  V30 9528 C 943.694 -2.70584 0.60659 0
M  V30 9529 H 946.645 -1.3776 0.787904 0
M  V30 9530 H 946.666 -3.77116 -0.506339 0
M  V30 9531 H 946.178 -3.65162 1.31448 0
M  V30 9532 H 944.279 -3.54443 -1.14895 0
M  V30 9533 H 944.392 -4.78335 0.270701 0
M  V30 9534 H 942.756 -2.54656 0.0471984 0
M  V30 9535 H 943.539 -3.00856 1.65349 0
M  V30 9536 N 945.984 -0.3171 -1.54377 0
M  V30 9537 C 947.209 0.292311 -2.0533 0
M  V30 9538 C 947.634 1.45503 -1.19207 0
M  V30 9539 O 946.992 1.80197 -0.199721 0
M  V30 9540 C 947.04 0.710787 -3.53525 0
M  V30 9541 O 946.144 1.81387 -3.70368 0
M  V30 9542 H 945.485 0.0539976 -0.661801 0
M  V30 9543 H 948.015 -0.463629 -1.99278 0
M  V30 9544 H 948.025 0.995216 -3.95676 0
M  V30 9545 H 946.7 -0.139668 -4.15665 0
M  V30 9546 H 945.277 1.52875 -3.40123 0
M  V30 9547 N 947.462 1.57535 -0.0451378 0
M  V30 9548 C 948.71 1.92071 0.628743 0
M  V30 9549 C 949.031 0.923635 1.71738 0
M  V30 9550 O 948.301 -0.0324376 1.95873 0
M  V30 9551 H 946.881 0.708995 0.235233 0
M  V30 9552 H 949.543 1.9466 -0.0967177 0
M  V30 9553 H 948.639 2.9314 1.07123 0
M  V30 9554 N 948.94 -0.228186 1.55939 0
M  V30 9555 C 950.168 -0.970618 1.8272 0
M  V30 9556 C 950.583 -1.78212 0.623385 0
M  V30 9557 O 949.94 -1.77879 -0.408063 0
M  V30 9558 C 949.991 -1.89352 3.07942 0
M  V30 9559 O 949.712 -1.11483 4.23678 0
M  V30 9560 C 951.213 -2.75039 3.47661 0
M  V30 9561 H 948.433 -0.284772 0.607574 0
M  V30 9562 H 950.977 -0.245419 2.03022 0
M  V30 9563 H 949.132 -2.57275 2.89635 0
M  V30 9564 H 949.546 -1.74073 4.94772 0
M  V30 9565 H 951.02 -3.35511 4.38334 0
M  V30 9566 H 951.497 -3.471 2.69106 0
M  V30 9567 H 952.103 -2.1254 3.68384 0
M  V30 9568 N 950.418 -1.49637 -0.494624 0
M  V30 9569 C 951.35 -1.62902 -1.61231 0
M  V30 9570 C 952.363 -0.511425 -1.54558 0
M  V30 9571 O 953.552 -0.783724 -1.60375 0
M  V30 9572 C 950.652 -1.57564 -3.00045 0
M  V30 9573 C 949.825 -2.84964 -3.31835 0
M  V30 9574 C 948.884 -2.72591 -4.5009 0
M  V30 9575 O 947.91 -3.46532 -4.51558 0
M  V30 9576 N 949.112 -1.84563 -5.50379 0
M  V30 9577 H 951.877 -2.59301 -1.50276 0
M  V30 9578 H 949.438 -1.46806 -0.68262 0
M  V30 9579 H 951.43 -1.46932 -3.77085 0
M  V30 9580 H 950 -0.689974 -3.0489 0
M  V30 9581 H 949.22 -3.099 -2.4363 0
M  V30 9582 H 950.508 -3.69412 -3.49875 0
M  V30 9583 H 949.906 -1.23758 -5.51997 0
M  V30 9584 H 948.463 -1.79849 -6.26496 0
M  V30 9585 N 951.896 0.746133 -1.38819 0
M  V30 9586 C 953.121 1.54049 -1.38866 0
M  V30 9587 C 953.546 1.88092 0.0176624 0
M  V30 9588 O 952.904 1.51113 1.00173 0
M  V30 9589 C 952.952 2.8116 -2.25791 0
M  V30 9590 O 952.056 3.76623 -1.68014 0
M  V30 9591 H 951.397 0.465648 -0.473359 0
M  V30 9592 H 953.927 0.921469 -1.82675 0
M  V30 9593 H 953.937 3.30009 -2.39913 0
M  V30 9594 H 952.612 2.55713 -3.27999 0
M  V30 9595 H 951.189 3.35352 -1.63074 0
M  V30 9596 N 953.375 1.23811 0.975125 0
M  V30 9597 C 954.623 1.07124 1.71373 0
M  V30 9598 C 954.944 -0.391864 1.91022 0
M  V30 9599 O 954.214 -1.28041 1.48265 0
M  V30 9600 H 952.794 0.393415 0.635007 0
M  V30 9601 H 955.456 1.55612 1.17349 0
M  V30 9602 H 954.552 1.56338 2.7012 0
M  V30 9603 N 954.853 -1.17469 1.05066 0
M  V30 9604 C 956.102 -1.87032 0.755114 0
M  V30 9605 C 956.415 -1.81844 -0.720572 0
M  V30 9606 O 957.621 -2.46866 -1.13002 0
M  V30 9607 C 956.077 -3.35581 1.30052 0
M  V30 9608 C 955.685 -3.49274 2.80556 0
M  V30 9609 C 957.429 -4.1048 1.08196 0
M  V30 9610 C 955.336 -4.91838 3.28404 0
M  V30 9611 H 954.266 -0.70057 0.278779 0
M  V30 9612 H 956.917 -1.32663 1.26779 0
M  V30 9613 H 955.299 -3.89479 0.715667 0
M  V30 9614 H 956.473 -3.05598 3.44886 0
M  V30 9615 H 954.788 -2.87793 3.00939 0
M  V30 9616 H 957.385 -5.15652 1.41447 0
M  V30 9617 H 957.728 -4.16295 0.0196603 0
M  V30 9618 H 958.261 -3.62784 1.63195 0
M  V30 9619 H 955 -4.91196 4.34058 0
M  V30 9620 H 954.52 -5.36189 2.68815 0
M  V30 9621 H 956.199 -5.60602 3.23009 0
M  V30 9622 N 956.331 -0.831506 -1.3388 0
M  V30 9623 C 957.578 -0.423674 -1.98018 0
M  V30 9624 C 957.906 1.01533 -1.65895 0
M  V30 9625 O 957.161 1.72342 -0.927183 0
M  V30 9626 C 957.46 -0.582733 -3.52617 0
M  V30 9627 C 957.126 -1.98874 -4.04673 0
M  V30 9628 C 955.788 -2.37334 -4.186 0
M  V30 9629 C 958.14 -2.90745 -4.3257 0
M  V30 9630 C 955.468 -3.66984 -4.57755 0
M  V30 9631 C 957.82 -4.19868 -4.73174 0
M  V30 9632 C 956.484 -4.58294 -4.85307 0
M  V30 9633 H 955.754 -0.155033 -0.7246 0
M  V30 9634 H 958.401 -1.05711 -1.59679 0
M  V30 9635 H 956.706 0.134052 -3.91571 0
M  V30 9636 H 958.403 -0.247576 -4.00235 0
M  V30 9637 H 954.993 -1.68001 -3.94301 0
M  V30 9638 H 959.177 -2.62272 -4.2134 0
M  V30 9639 H 954.433 -3.9657 -4.65341 0
M  V30 9640 H 958.607 -4.91138 -4.93717 0
M  V30 9641 H 956.234 -5.58805 -5.15404 0
M  V30 9642 N 957.809 1.4625 -0.587256 0
M  V30 9643 C 958.757 2.32076 0.156108 0
M  V30 9644 C 959.751 1.44756 0.879887 0
M  V30 9645 O 960.957 1.61356 0.797759 0
M  V30 9646 H 957.332 0.748808 0.0692098 0
M  V30 9647 H 959.303 2.9258 -0.586497 0
M  V30 9648 C 958.052 3.28008 1.15352 0
M  V30 9649 H 957.375 3.9518 0.60601 0
M  V30 9650 H 958.815 3.90832 1.64396 0
M  V30 9651 C 957.274 2.53691 2.21681 0
M  V30 9652 O 957.804 2.30329 3.29107 0
M  V30 9653 N 956.01 2.14174 1.96412 0
M  V30 9654 H 955.557 2.33374 1.09061 0
M  V30 9655 H 955.515 1.6477 2.67765 0
M  V30 9656 N 959.287 0.325282 1.54207 0
M  V30 9657 C 960.536 -0.27768 1.99779 0
M  V30 9658 C 960.849 -1.5311 1.21723 0
M  V30 9659 O 962.055 -2.21017 1.57682 0
M  V30 9660 C 960.511 -0.545329 3.55745 0
M  V30 9661 C 960.119 0.691143 4.42637 0
M  V30 9662 C 961.863 -1.10815 4.09781 0
M  V30 9663 C 959.77 0.395302 5.90077 0
M  V30 9664 H 958.7 -0.107536 0.746292 0
M  V30 9665 H 961.351 0.437773 1.78202 0
M  V30 9666 H 959.733 -1.32101 3.73317 0
M  V30 9667 H 960.907 1.46653 4.3684 0
M  V30 9668 H 959.222 1.1743 3.99499 0
M  V30 9669 H 961.819 -1.34414 5.1753 0
M  V30 9670 H 962.162 -2.05806 3.6187 0
M  V30 9671 H 962.695 -0.393608 3.95848 0
M  V30 9672 H 959.434 1.31443 6.42186 0
M  V30 9673 H 958.954 -0.34235 5.98822 0
M  V30 9674 H 960.633 0.00576877 6.47 0
M  V30 9675 N 960.765 -1.57509 0.0534917 0
M  V30 9676 C 961.712 -2.11667 -0.920101 0
M  V30 9677 C 962.682 -1.0246 -1.30733 0
M  V30 9678 O 963.867 -1.30021 -1.39639 0
M  V30 9679 C 961.007 -2.66803 -2.18883 0
M  V30 9680 C 960.12 -3.90104 -1.85588 0
M  V30 9681 C 959.255 -4.33547 -3.06937 0
M  V30 9682 C 958.294 -5.49542 -2.69573 0
M  V30 9683 N 957.431 -5.88029 -3.83623 0
M  V30 9684 H 962.271 -2.94562 -0.451371 0
M  V30 9685 H 959.808 -1.45576 -0.211168 0
M  V30 9686 H 961.766 -2.96871 -2.93127 0
M  V30 9687 H 960.396 -1.86702 -2.63329 0
M  V30 9688 H 959.448 -3.66613 -1.01484 0
M  V30 9689 H 960.76 -4.74404 -1.54087 0
M  V30 9690 H 959.914 -4.6518 -3.89477 0
M  V30 9691 H 958.653 -3.48064 -3.41618 0
M  V30 9692 H 957.658 -5.17579 -1.8545 0
M  V30 9693 H 958.883 -6.36743 -2.36082 0
M  V30 9694 H 956.829 -5.05498 -4.181 0
M  V30 9695 H 956.746 -6.67025 -3.55828 0
M  V30 9696 H 958.014 -6.24277 -4.66796 0
M  V30 9697 N 962.243 0.219913 -1.56058 0
M  V30 9698 C 963.173 1.27572 -1.9557 0
M  V30 9699 C 964.154 1.48801 -0.824148 0
M  V30 9700 O 965.339 1.60957 -1.08658 0
M  V30 9701 C 962.469 2.62517 -2.27381 0
M  V30 9702 C 961.423 2.55941 -3.43042 0
M  V30 9703 C 960.749 3.94931 -3.60463 0
M  V30 9704 C 962.049 2.10584 -4.77966 0
M  V30 9705 H 963.743 0.947482 -2.84013 0
M  V30 9706 H 961.289 0.454337 -1.36645 0
M  V30 9707 H 963.242 3.36538 -2.53615 0
M  V30 9708 H 961.966 2.97031 -1.35794 0
M  V30 9709 H 960.625 1.84377 -3.1686 0
M  V30 9710 H 960.273 4.26756 -2.66249 0
M  V30 9711 H 959.973 3.91413 -4.38258 0
M  V30 9712 H 961.497 4.70611 -3.89046 0
M  V30 9713 H 962.911 2.74349 -5.03394 0
M  V30 9714 H 961.308 2.18122 -5.59055 0
M  V30 9715 H 962.378 1.05818 -4.73213 0
M  V30 9716 N 963.721 1.49897 0.486681 0
M  V30 9717 C 965.132 1.53142 1.06792 0
M  V30 9718 C 965.483 0.325856 1.93475 0
M  V30 9719 O 964.608 -0.562893 2.08951 0
M  V30 9720 C 965.203 2.77514 1.94348 0
M  V30 9721 C 963.762 2.83491 2.47609 0
M  V30 9722 C 962.909 2.47239 1.2557 0
M  V30 9723 H 965.86 1.56387 0.269962 0
M  V30 9724 H 965.881 2.58487 2.79221 0
M  V30 9725 H 965.393 3.65239 1.31232 0
M  V30 9726 H 963.494 2.0008 3.14323 0
M  V30 9727 H 963.607 3.86011 2.83782 0
M  V30 9728 H 961.971 1.99332 1.58552 0
M  V30 9729 H 962.754 3.37255 0.641404 0
M  V30 9730 N 965.199 -0.738761 1.39212 0
M  V30 9731 C 966.447 -1.49529 1.35962 0
M  V30 9732 C 966.768 -1.94948 -0.0450152 0
M  V30 9733 O 966.038 -1.68717 -0.995552 0
M  V30 9734 H 964.618 -0.554692 0.500326 0
M  V30 9735 H 967.28 -0.877255 1.74041 0
M  V30 9736 H 966.376 -2.37919 2.01993 0
M  V30 9737 N 966.677 -1.24326 -0.968545 0
M  V30 9738 C 967.902 -1.1104 -1.75171 0
M  V30 9739 C 968.327 0.333109 -1.85127 0
M  V30 9740 O 967.685 1.24115 -1.32156 0
M  V30 9741 C 967.733 -1.75397 -3.15068 0
M  V30 9742 O 966.837 -1.02417 -3.9948 0
M  V30 9743 H 966.178 -0.388488 -0.538491 0
M  V30 9744 H 968.708 -1.64617 -1.215 0
M  V30 9745 H 968.718 -1.8112 -3.65595 0
M  V30 9746 H 967.393 -2.80427 -3.07138 0
M  V30 9747 H 965.97 -1.04475 -3.57966 0
M  V30 9748 N 968.156 1.1691 -1.05688 0
M  V30 9749 C 969.381 1.91745 -0.790478 0
M  V30 9750 C 969.806 1.76568 0.648478 0
M  V30 9751 O 969.164 1.08682 1.45114 0
M  V30 9752 C 969.212 3.4067 -1.18222 0
M  V30 9753 O 968.316 4.11177 -0.317341 0
M  V30 9754 H 967.657 0.5976 -0.28943 0
M  V30 9755 H 970.187 1.48157 -1.41105 0
M  V30 9756 H 970.197 3.91424 -1.15114 0
M  V30 9757 H 968.872 3.51036 -2.2304 0
M  V30 9758 H 967.449 3.70645 -0.409459 0
M  V30 9759 N 969.634 0.838594 1.33437 0
M  V30 9760 C 970.581 0.269609 2.2922 0
M  V30 9761 C 971.551 -0.614429 1.54318 0
M  V30 9762 O 972.736 -0.552756 1.82618 0
M  V30 9763 C 969.876 -0.549527 3.40697 0
M  V30 9764 C 968.989 0.358502 4.3051 0
M  V30 9765 C 968.124 -0.471709 5.29101 0
M  V30 9766 C 967.163 0.434728 6.10554 0
M  V30 9767 N 966.3 -0.357339 7.0119 0
M  V30 9768 H 971.14 1.09172 2.77282 0
M  V30 9769 H 968.677 0.549832 1.36438 0
M  V30 9770 H 970.635 -1.03992 4.04032 0
M  V30 9771 H 969.265 -1.33661 2.93828 0
M  V30 9772 H 968.317 0.967204 3.67899 0
M  V30 9773 H 969.629 1.05483 4.87519 0
M  V30 9774 H 968.783 -1.02594 5.97963 0
M  V30 9775 H 967.522 -1.20147 4.72669 0
M  V30 9776 H 966.527 1.00097 5.40611 0
M  V30 9777 H 967.752 1.16285 6.6907 0
M  V30 9778 H 965.698 -1.07049 6.47207 0
M  V30 9779 H 965.615 0.280277 7.5548 0
M  V30 9780 H 966.883 -0.893814 7.74359 0
M  V30 9781 N 971.112 -1.45937 0.595003 0
M  V30 9782 C 972.361 -2.01529 0.0829531 0
M  V30 9783 C 972.674 -1.47071 -1.28955 0
M  V30 9784 O 973.88 -1.94561 -1.89363 0
M  V30 9785 C 972.336 -3.59767 0.0976597 0
M  V30 9786 C 971.944 -4.23223 1.46924 0
M  V30 9787 C 973.688 -4.22972 -0.359805 0
M  V30 9788 C 971.595 -5.73576 1.44101 0
M  V30 9789 H 970.525 -0.753508 0.0272425 0
M  V30 9790 H 973.176 -1.67541 0.748473 0
M  V30 9791 H 971.558 -3.90888 -0.634268 0
M  V30 9792 H 972.732 -4.03695 2.22187 0
M  V30 9793 H 971.047 -3.72161 1.86775 0
M  V30 9794 H 973.644 -5.33202 -0.39991 0
M  V30 9795 H 973.987 -3.92765 -1.37991 0
M  V30 9796 H 974.52 -3.96523 0.31845 0
M  V30 9797 H 971.259 -6.08462 2.43831 0
M  V30 9798 H 970.779 -5.95332 0.730767 0
M  V30 9799 H 972.458 -6.36531 1.1592 0
M  V30 9800 N 972.59 -0.333456 -1.54032 0
M  V30 9801 C 973.837 0.266133 -2.00744 0
M  V30 9802 C 974.165 1.51361 -1.22148 0
M  V30 9803 O 973.42 1.93473 -0.294368 0
M  V30 9804 C 973.719 0.63565 -3.51702 0
M  V30 9805 C 973.385 -0.513786 -4.47963 0
M  V30 9806 C 972.047 -0.829253 -4.74001 0
M  V30 9807 C 974.399 -1.2854 -5.05101 0
M  V30 9808 C 971.727 -1.91888 -5.54433 0
M  V30 9809 C 974.079 -2.3652 -5.86721 0
M  V30 9810 C 972.743 -2.68637 -6.11057 0
M  V30 9811 H 972.013 0.097385 -0.734573 0
M  V30 9812 H 974.66 -0.459282 -1.85911 0
M  V30 9813 H 972.965 1.44163 -3.64313 0
M  V30 9814 H 974.662 1.11129 -3.85294 0
M  V30 9815 H 971.252 -0.25784 -4.27824 0
M  V30 9816 H 975.436 -1.05494 -4.84958 0
M  V30 9817 H 970.692 -2.17208 -5.71516 0
M  V30 9818 H 974.866 -2.96747 -6.30011 0
M  V30 9819 H 972.493 -3.53197 -6.73169 0
M  V30 9820 N 974.068 1.57479 -0.061844 0
M  V30 9821 C 975.293 1.97843 0.622311 0
M  V30 9822 C 975.718 0.939602 1.62951 0
M  V30 9823 O 975.076 -0.095958 1.81046 0
M  V30 9824 C 975.124 3.37262 1.2762 0
M  V30 9825 O 974.228 3.35943 2.39199 0
M  V30 9826 H 973.569 0.644212 0.160896 0
M  V30 9827 H 976.099 2.04165 -0.133409 0
M  V30 9828 H 976.109 3.74226 1.62539 0
M  V30 9829 H 974.784 4.12404 0.538112 0
M  V30 9830 H 973.361 3.10737 2.06148 0
M  V30 9831 N 975.546 -0.211634 1.56173 0
M  V30 9832 C 976.792 -0.935935 1.79911 0
M  V30 9833 C 977.125 -1.83589 0.633155 0
M  V30 9834 O 976.4 -1.91004 -0.367132 0
M  V30 9835 C 976.683 -1.76638 3.13801 0
M  V30 9836 C 976.536 -0.892259 4.40861 0
M  V30 9837 C 977.855 -2.74224 3.44223 0
M  V30 9838 H 974.974 -0.338822 0.654499 0
M  V30 9839 H 977.616 -0.20422 1.88899 0
M  V30 9840 H 975.766 -2.39021 3.0627 0
M  V30 9841 H 977.438 -0.284407 4.60422 0
M  V30 9842 H 975.681 -0.198145 4.33347 0
M  V30 9843 H 976.352 -1.50793 5.31004 0
M  V30 9844 H 978.828 -2.21975 3.51946 0
M  V30 9845 H 977.704 -3.29424 4.39057 0
M  V30 9846 H 977.965 -3.52455 2.66885 0
M  V30 9847 N 977.024 -1.50153 -0.478725 0
M  V30 9848 C 978.254 -1.64266 -1.253 0
M  V30 9849 C 978.662 -0.322256 -1.86435 0
M  V30 9850 O 978.005 0.704925 -1.69636 0
M  V30 9851 C 978.067 -2.67017 -2.40712 0
M  V30 9852 C 977.731 -4.10779 -2.00274 0
M  V30 9853 C 978.728 -4.96889 -1.52963 0
M  V30 9854 C 976.413 -4.5665 -2.09228 0
M  V30 9855 C 978.407 -6.26914 -1.15139 0
M  V30 9856 C 976.094 -5.86683 -1.71015 0
M  V30 9857 C 977.092 -6.71641 -1.24048 0
M  V30 9858 O 976.78 -7.99248 -0.863617 0
M  V30 9859 H 976.512 -0.555382 -0.385392 0
M  V30 9860 H 979.066 -1.97078 -0.578751 0
M  V30 9861 H 977.296 -2.29432 -3.11284 0
M  V30 9862 H 978.985 -2.70428 -3.02694 0
M  V30 9863 H 979.751 -4.62669 -1.45474 0
M  V30 9864 H 975.63 -3.90674 -2.44735 0
M  V30 9865 H 979.174 -6.93179 -0.784089 0
M  V30 9866 H 975.071 -6.20426 -1.78162 0
M  V30 9867 H 975.839 -8.12452 -0.993139 0
M  V30 9868 N 978.502 0.731368 -1.39602 0
M  V30 9869 C 979.742 1.5036 -1.3846 0
M  V30 9870 C 980.106 1.91991 0.018784 0
M  V30 9871 O 981.307 2.68351 0.155236 0
M  V30 9872 C 979.578 2.70755 -2.33295 0
M  V30 9873 S 981.137 3.6036 -2.50372 0
M  V30 9874 H 977.955 0.514271 -0.490964 0
M  V30 9875 H 980.557 0.856654 -1.75732 0
M  V30 9876 H 979.261 2.38316 -3.34116 0
M  V30 9877 H 978.792 3.40376 -1.97251 0
M  V30 9878 H 980.807 4.64529 -1.74435 0
M  V30 9879 N 979.98 1.24838 0.961938 0
M  V30 9880 C 981.257 0.99939 1.68141 0
M  V30 9881 C 981.637 -0.476588 2.0565 0
M  V30 9882 O 980.985 -1.45224 1.76415 0
M  V30 9883 C 981.195 1.92797 2.90913 0
M  V30 9884 C 982.543 2.20219 3.63027 0
M  V30 9885 O 983.567 1.90496 3.00981 0
M  V30 9886 O 982.426 2.70725 4.74731 0
M  V30 9887 H 979.52 0.37842 0.735342 0
M  V30 9888 H 982.066 1.35961 1.01551 0
M  V30 9889 H 980.838 2.92492 2.59931 0
M  V30 9890 H 980.461 1.57127 3.65235 0
M  V30 9891 N 981.458 -1.16348 1.06306 0
M  V30 9892 C 982.39 -2.20316 0.631929 0
M  V30 9893 C 983.403 -1.59819 -0.310133 0
M  V30 9894 O 984.592 -1.78213 -0.101103 0
M  V30 9895 C 981.692 -3.3877 -0.0937645 0
M  V30 9896 C 980.865 -4.28826 0.861816 0
M  V30 9897 C 979.924 -5.25908 0.175346 0
M  V30 9898 O 978.95 -5.63363 0.813039 0
M  V30 9899 N 980.152 -5.70307 -1.08305 0
M  V30 9900 H 982.917 -2.57925 1.52626 0
M  V30 9901 H 980.478 -1.31358 0.946392 0
M  V30 9902 H 982.47 -4.00759 -0.563412 0
M  V30 9903 H 981.04 -2.99666 -0.889904 0
M  V30 9904 H 980.26 -3.64098 1.51083 0
M  V30 9905 H 981.548 -4.85875 1.51007 0
M  V30 9906 H 980.946 -5.4197 -1.62127 0
M  V30 9907 H 979.503 -6.34387 -1.49656 0
M  V30 9908 N 982.937 -0.845659 -1.3299 0
M  V30 9909 C 983.847 -0.2864 -2.32845 0
M  V30 9910 C 984.863 0.591105 -1.63652 0
M  V30 9911 O 986.039 0.493615 -1.95257 0
M  V30 9912 C 983.104 0.523636 -3.42723 0
M  V30 9913 C 982.165 -0.378945 -4.27624 0
M  V30 9914 C 981.398 0.392526 -5.32255 0
M  V30 9915 O 981.621 1.6235 -5.46808 0
M  V30 9916 O 980.555 -0.237 -6.01433 0
M  V30 9917 H 984.381 -1.11346 -2.82552 0
M  V30 9918 H 981.966 -0.608356 -1.36453 0
M  V30 9919 H 983.848 0.983718 -4.09757 0
M  V30 9920 H 982.523 1.32764 -2.95221 0
M  V30 9921 H 981.43 -0.887012 -3.63432 0
M  V30 9922 H 982.763 -1.1479 -4.78627 0
M  V30 9923 N 984.415 1.45619 -0.602734 0
M  V30 9924 C 985.643 2.06647 -0.102253 0
M  V30 9925 C 986.058 1.4482 1.21131 0
M  V30 9926 O 985.415 0.560621 1.73676 0
M  V30 9927 C 985.466 3.61467 0.0490113 0
M  V30 9928 O 985.187 4.20985 -1.21257 0
M  V30 9929 C 986.688 4.39469 0.581517 0
M  V30 9930 H 983.908 0.667685 -0.0666155 0
M  V30 9931 H 986.452 1.86939 -0.829091 0
M  V30 9932 H 984.607 3.80534 0.726153 0
M  V30 9933 H 985.021 5.14103 -1.03915 0
M  V30 9934 H 986.495 5.48318 0.636462 0
M  V30 9935 H 986.972 4.0891 1.60277 0
M  V30 9936 H 987.578 4.25256 -0.061419 0
M  V30 9937 N 985.893 0.34162 1.53853 0
M  V30 9938 C 987.118 -0.259608 2.05769 0
M  V30 9939 C 987.543 -1.43588 1.21507 0
M  V30 9940 O 986.901 -1.79856 0.228364 0
M  V30 9941 C 986.949 -0.654455 3.54611 0
M  V30 9942 O 986.053 -1.75472 3.73207 0
M  V30 9943 H 985.394 -0.0434621 0.662576 0
M  V30 9944 H 987.924 0.495274 1.98515 0
M  V30 9945 H 987.934 -0.932142 3.97209 0
M  V30 9946 H 986.609 0.205779 4.15391 0
M  V30 9947 H 985.186 -1.47444 3.42512 0
M  V30 9948 N 987.371 -1.57444 0.0701946 0
M  V30 9949 C 988.301 -2.15659 -0.895176 0
M  V30 9950 C 989.282 -1.08321 -1.31151 0
M  V30 9951 O 990.467 -1.36349 -1.38284 0
M  V30 9952 C 987.597 -2.71693 -2.16334 0
M  V30 9953 C 986.551 -3.84183 -1.88645 0
M  V30 9954 C 985.877 -4.26814 -3.22078 0
M  V30 9955 C 987.177 -5.08493 -1.19299 0
M  V30 9956 H 988.871 -2.96576 -0.410217 0
M  V30 9957 H 986.417 -1.42662 -0.195872 0
M  V30 9958 H 988.37 -3.11064 -2.84284 0
M  V30 9959 H 987.094 -1.87994 -2.67069 0
M  V30 9960 H 985.753 -3.45314 -1.23101 0
M  V30 9961 H 985.401 -3.40039 -3.70651 0
M  V30 9962 H 985.101 -5.02642 -3.04344 0
M  V30 9963 H 986.625 -4.68799 -3.91228 0
M  V30 9964 H 988.039 -5.4519 -1.77316 0
M  V30 9965 H 986.436 -5.89588 -1.11828 0
M  V30 9966 H 987.506 -4.84595 -0.171839 0
M  V30 9967 N 988.849 0.203349 -1.56283 0
M  V30 9968 C 990.097 0.923183 -1.79782 0
M  V30 9969 C 990.418 1.84134 -0.64185 0
M  V30 9970 O 989.688 1.92922 0.340292 0
M  V30 9971 H 988.268 0.343881 -0.66314 0
M  V30 9972 H 990.93 0.210837 -1.93756 0
M  V30 9973 H 990.026 1.51921 -2.72629 0
M  V30 9974 N 990.327 1.50405 0.470755 0
M  V30 9975 C 991.575 1.61092 1.2204 0
M  V30 9976 C 991.896 0.313487 1.92464 0
M  V30 9977 O 991.166 -0.669043 1.84121 0
M  V30 9978 H 989.746 0.593618 0.45346 0
M  V30 9979 H 992.408 1.87184 0.542985 0
M  V30 9980 H 991.504 2.42222 1.96812 0
M  V30 9981 N 991.805 -0.723954 1.39988 0
M  V30 9982 C 993.051 -1.48476 1.3902 0
M  V30 9983 C 993.406 -1.92397 -0.0105439 0
M  V30 9984 O 992.699 -1.64683 -0.979294 0
M  V30 9985 C 992.893 -2.73004 2.30659 0
M  V30 9986 C 992.722 -2.41261 3.79504 0
M  V30 9987 C 991.492 -2.33013 4.48367 0
M  V30 9988 C 993.69 -2.06078 4.71207 0
M  V30 9989 N 991.672 -1.93856 5.82489 0
M  V30 9990 C 993.043 -1.77455 5.94062 0
M  V30 9991 C 995.098 -1.92642 4.59123 0
M  V30 9992 C 993.801 -1.36748 7.06182 0
M  V30 9993 C 995.827 -1.53338 5.71175 0
M  V30 9994 C 995.189 -1.25607 6.93111 0
M  V30 9995 H 991.288 -0.54172 0.563971 0
M  V30 9996 H 993.872 -0.840344 1.75631 0
M  V30 9997 H 992.043 -3.35209 1.96188 0
M  V30 9998 H 993.775 -3.39286 2.20606 0
M  V30 9999 H 990.53 -2.50476 4.01944 0
M  V30 10000 H 990.954 -1.7684 6.53496 0
M  V30 10001 H 995.596 -2.12745 3.65376 0
M  V30 10002 H 993.314 -1.15386 7.9982 0
M  V30 10003 H 996.9 -1.43532 5.63817 0
M  V30 10004 H 995.78 -0.956505 7.78345 0
M  V30 10005 N 993.283 -1.25346 -0.955304 0
M  V30 10006 C 994.213 -1.08152 -2.06943 0
M  V30 10007 C 995.194 0.00922598 -1.70097 0
M  V30 10008 O 996.379 -0.160181 -1.93538 0
M  V30 10009 C 993.509 -0.698745 -3.40198 0
M  V30 10010 C 992.463 -1.73965 -3.9105 0
M  V30 10011 C 991.789 -1.21158 -5.20792 0
M  V30 10012 C 993.089 -3.13829 -4.17503 0
M  V30 10013 H 994.783 -2.01345 -2.21586 0
M  V30 10014 H 992.329 -0.969459 -1.06478 0
M  V30 10015 H 994.282 -0.565394 -4.1759 0
M  V30 10016 H 993.006 0.268892 -3.25491 0
M  V30 10017 H 991.665 -1.86143 -3.15827 0
M  V30 10018 H 991.313 -0.234193 -5.02455 0
M  V30 10019 H 991.013 -1.90728 -5.55785 0
M  V30 10020 H 992.537 -1.09061 -6.00781 0
M  V30 10021 H 993.951 -3.04809 -4.85556 0
M  V30 10022 H 992.348 -3.80863 -4.63749 0
M  V30 10023 H 993.418 -3.6094 -3.23806 0
M  V30 10024 N 994.761 1.15782 -1.06922 0
M  V30 10025 C 995.691 2.22538 -0.707045 0
M  V30 10026 C 996.672 1.67371 0.303471 0
M  V30 10027 O 997.857 1.9339 0.177189 0
M  V30 10028 C 994.987 3.47158 -0.0994269 0
M  V30 10029 C 993.941 4.15257 -1.03661 0
M  V30 10030 C 993.267 5.33902 -0.291974 0
M  V30 10031 C 994.567 4.65516 -2.36837 0
M  V30 10032 H 996.261 2.53089 -1.59958 0
M  V30 10033 H 993.807 1.21649 -0.770552 0
M  V30 10034 H 995.76 4.21073 0.165852 0
M  V30 10035 H 994.484 3.15926 0.828155 0
M  V30 10036 H 993.143 3.43276 -1.28674 0
M  V30 10037 H 992.791 4.98926 0.638928 0
M  V30 10038 H 992.491 5.80407 -0.916613 0
M  V30 10039 H 994.015 6.1059 -0.0343915 0
M  V30 10040 H 995.429 5.30981 -2.16175 0
M  V30 10041 H 993.826 5.22666 -2.94856 0
M  V30 10042 H 994.896 3.81387 -2.99453 0
M  V30 10043 N 996.239 0.8527 1.3254 0
M  V30 10044 C 997.488 0.45136 1.96585 0
M  V30 10045 C 997.801 -0.997773 1.68237 0
M  V30 10046 O 999.007 -1.50445 2.26006 0
M  V30 10047 C 997.463 0.75619 3.51866 0
M  V30 10048 C 997.071 2.22092 3.89075 0
M  V30 10049 C 998.815 0.422478 4.22392 0
M  V30 10050 C 996.722 2.46908 5.37392 0
M  V30 10051 H 995.652 0.165052 0.735713 0
M  V30 10052 H 998.303 1.04321 1.50962 0
M  V30 10053 H 996.685 0.0937988 3.95889 0
M  V30 10054 H 997.859 2.92494 3.56067 0
M  V30 10055 H 996.174 2.51896 3.31568 0
M  V30 10056 H 998.771 0.58533 5.31487 0
M  V30 10057 H 999.114 -0.635737 4.11417 0
M  V30 10058 H 999.647 1.04068 3.83946 0
M  V30 10059 H 996.386 3.51346 5.53386 0
M  V30 10060 H 995.906 1.81082 5.71812 0
M  V30 10061 H 997.585 2.30758 6.0445 0
M  V30 10062 N 997.718 -1.45297 0.610449 0
M  V30 10063 C 998.65 -2.28742 -0.144884 0
M  V30 10064 C 999.663 -1.40114 -0.828977 0
M  V30 10065 O 1000.85 -1.64461 -0.693887 0
M  V30 10066 C 997.952 -3.15934 -1.22632 0
M  V30 10067 C 997.125 -4.32857 -0.628785 0
M  V30 10068 C 996.184 -5.01237 -1.60148 0
M  V30 10069 O 995.21 -5.57938 -1.12667 0
M  V30 10070 N 996.412 -5.00785 -2.9359 0
M  V30 10071 H 999.177 -2.94207 0.571145 0
M  V30 10072 H 996.738 -1.55517 0.450134 0
M  V30 10073 H 998.73 -3.58545 -1.87691 0
M  V30 10074 H 997.3 -2.52358 -1.84483 0
M  V30 10075 H 996.52 -3.93693 0.199951 0
M  V30 10076 H 997.808 -5.08367 -0.209845 0
M  V30 10077 H 997.206 -4.56014 -3.34765 0
M  V30 10078 H 995.763 -5.4725 -3.54064 0
M  V30 10079 N 999.196 -0.349774 -1.5367 0
M  V30 10080 C 1000.13 0.538575 -2.22782 0
M  V30 10081 C 1001.14 1.05896 -1.23652 0
M  V30 10082 O 1002.33 0.968045 -1.4997 0
M  V30 10083 C 999.43 1.7546 -2.89943 0
M  V30 10084 C 998.603 1.36843 -4.15443 0
M  V30 10085 C 997.662 2.4448 -4.65957 0
M  V30 10086 O 996.688 2.07528 -5.3002 0
M  V30 10087 N 997.89 3.75829 -4.42417 0
M  V30 10088 H 1000.65 -0.053348 -2.99653 0
M  V30 10089 H 998.216 -0.174193 -1.6096 0
M  V30 10090 H 1000.21 2.46911 -3.20651 0
M  V30 10091 H 998.778 2.25375 -2.16622 0
M  V30 10092 H 997.998 0.484421 -3.91212 0
M  V30 10093 H 999.286 1.0865 -4.97064 0
M  V30 10094 H 998.684 4.08635 -3.91196 0
M  V30 10095 H 997.241 4.43432 -4.77714 0
M  V30 10096 N 1000.67 1.57404 -0.0785433 0
M  V30 10097 C 1002.09 1.57158 0.2781 0
M  V30 10098 C 1002.29 1.08847 1.69572 0
M  V30 10099 O 1001.35 0.757407 2.40873 0
M  V30 10100 C 1002.66 3.00589 0.0816067 0
M  V30 10101 C 1004.21 3.12637 0.150627 0
M  V30 10102 C 1004.68 4.57997 -0.0176685 0
M  V30 10103 N 1006.17 4.63185 0.0377145 0
M  V30 10104 C 1006.91 5.7336 -0.0679907 0
M  V30 10105 N 1006.4 6.92426 -0.227598 0
M  V30 10106 N 1008.2 5.62099 -0.0104424 0
M  V30 10107 H 1000.35 1.87121 -1.00496 0
M  V30 10108 H 1002.61 0.862937 -0.392484 0
M  V30 10109 H 1002.32 3.40072 -0.896869 0
M  V30 10110 H 1002.19 3.67931 0.831046 0
M  V30 10111 H 1004.58 2.73037 1.11959 0
M  V30 10112 H 1004.66 2.4792 -0.630028 0
M  V30 10113 H 1004.3 4.98288 -0.983431 0
M  V30 10114 H 1004.23 5.20754 0.782475 0
M  V30 10115 H 1006.72 3.77564 0.159208 0
M  V30 10116 H 1007.04 7.72217 -0.300217 0
M  V30 10117 H 1005.38 6.94502 -0.263049 0
M  V30 10118 H 1008.57 4.67964 0.112999 0
M  V30 10119 H 1008.75 6.47928 -0.0962747 0
M  V30 10120 N 1002.15 -0.195058 1.56388 0
M  V30 10121 C 1003.08 -1.26978 1.8961 0
M  V30 10122 C 1004.06 -1.43946 0.756199 0
M  V30 10123 O 1005.25 -1.59335 1.0072 0
M  V30 10124 C 1002.37 -2.63638 2.12632 0
M  V30 10125 C 1001.42 -2.6354 3.35334 0
M  V30 10126 S 1002.25 -2.1497 4.90457 0
M  V30 10127 C 1003.41 -3.53454 5.16547 0
M  V30 10128 H 1003.64 -0.986091 2.8047 0
M  V30 10129 H 1001.17 -0.398552 1.49167 0
M  V30 10130 H 1003.13 -3.42304 2.26579 0
M  V30 10131 H 1001.79 -2.89218 1.22522 0
M  V30 10132 H 1000.99 -3.64027 3.48569 0
M  V30 10133 H 1000.59 -1.92956 3.20381 0
M  V30 10134 H 1002.88 -4.49318 5.0707 0
M  V30 10135 H 1003.82 -3.45113 6.18306 0
M  V30 10136 H 1004.23 -3.48368 4.44185 0
M  V30 10137 N 1003.63 -1.50653 -0.462772 0
M  V30 10138 C 1004.91 -1.5258 -1.22387 0
M  V30 10139 C 1005.29 -0.275263 -2.09298 0
M  V30 10140 O 1004.63 0.740943 -2.16153 0
M  V30 10141 C 1004.84 -2.82611 -2.04773 0
M  V30 10142 C 1006.19 -3.33592 -2.62681 0
M  V30 10143 O 1007.22 -2.83989 -2.15008 0
M  V30 10144 O 1006.08 -4.20081 -3.49563 0
M  V30 10145 H 1003.17 -0.612367 -0.55582 0
M  V30 10146 H 1005.72 -1.62948 -0.473914 0
M  V30 10147 H 1004.49 -3.65098 -1.40781 0
M  V30 10148 H 1004.11 -2.75286 -2.86886 0
M  V30 10149 N 1005.11 0.71652 -1.4037 0
M  V30 10150 C 1006.36 1.47347 -1.38324 0
M  V30 10151 C 1006.68 1.94995 0.0139949 0
M  V30 10152 O 1005.95 1.7028 0.968585 0
M  V30 10153 H 1004.53 0.546662 -0.509087 0
M  V30 10154 H 1007.19 0.849455 -1.75415 0
M  V30 10155 H 1006.29 2.34675 -2.05752 0
M  V30 10156 N 1006.59 1.25851 0.948643 0
M  V30 10157 C 1007.81 1.13813 1.73382 0
M  V30 10158 C 1008.24 -0.303615 1.85633 0
M  V30 10159 O 1007.59 -1.21997 1.34114 0
M  V30 10160 C 1007.64 1.80388 3.12238 0
M  V30 10161 O 1006.75 1.08759 3.978 0
M  V30 10162 H 1006.09 0.397006 0.532243 0
M  V30 10163 H 1008.62 1.66529 1.18866 0
M  V30 10164 H 1008.63 1.86913 3.62667 0
M  V30 10165 H 1007.3 2.85278 3.02637 0
M  V30 10166 H 1005.88 1.10157 3.56258 0
M  V30 10167 N 1008.06 -1.15214 1.07534 0
M  V30 10168 C 1008.99 -2.2216 0.718837 0
M  V30 10169 C 1009.98 -1.6753 -0.29459 0
M  V30 10170 O 1011.16 -1.93481 -0.166931 0
M  V30 10171 C 1008.29 -3.471 0.117836 0
M  V30 10172 C 1007.24 -4.14701 1.05862 0
M  V30 10173 C 1006.57 -5.3374 0.320284 0
M  V30 10174 C 1007.87 -4.64254 2.39302 0
M  V30 10175 H 1009.56 -2.52237 1.61297 0
M  V30 10176 H 1007.11 -1.21239 0.776992 0
M  V30 10177 H 1009.06 -4.21156 -0.143519 0
M  V30 10178 H 1007.79 -3.16361 -0.811389 0
M  V30 10179 H 1006.45 -3.42589 1.30493 0
M  V30 10180 H 1006.09 -4.99257 -0.61246 0
M  V30 10181 H 1005.79 -5.79912 0.947381 0
M  V30 10182 H 1007.32 -6.10563 0.0667721 0
M  V30 10183 H 1008.73 -5.29827 2.18988 0
M  V30 10184 H 1007.13 -5.21095 2.97623 0
M  V30 10185 H 1008.2 -3.79793 3.01472 0
M  V30 10186 N 1009.54 -0.859717 -1.32086 0
M  V30 10187 C 1010.49 -0.296897 -2.30697 0
M  V30 10188 C 1011.48 0.582473 -1.59071 0
M  V30 10189 O 1012.69 0.469713 -1.73763 0
M  V30 10190 H 1009.07 -0.0773132 -0.748015 0
M  V30 10191 H 1011.04 -1.14273 -2.75652 0
M  V30 10192 C 1009.79 0.495546 -3.44151 0
M  V30 10193 H 1009.11 -0.171829 -3.99431 0
M  V30 10194 H 1010.55 0.854854 -4.15293 0
M  V30 10195 C 1009.01 1.68278 -2.91863 0
M  V30 10196 O 1009.54 2.78194 -2.89777 0
M  V30 10197 N 1007.74 1.51151 -2.48197 0
M  V30 10198 H 1007.29 0.617345 -2.50093 0
M  V30 10199 H 1007.25 2.3073 -2.13567 0
M  V30 10200 N 1011.02 1.44971 -0.618145 0
M  V30 10201 C 1012.27 2.02159 -0.117482 0
M  V30 10202 C 1012.6 1.48517 1.2559 0
M  V30 10203 O 1011.85 0.654192 1.84442 0
M  V30 10204 C 1012.15 3.57378 -0.0394861 0
M  V30 10205 C 1011.82 4.30218 -1.34993 0
M  V30 10206 C 1010.48 4.49835 -1.70886 0
M  V30 10207 C 1012.83 4.71768 -2.21551 0
M  V30 10208 C 1010.16 5.08258 -2.9307 0
M  V30 10209 C 1012.51 5.31543 -3.42993 0
M  V30 10210 C 1011.17 5.49381 -3.79126 0
M  V30 10211 H 1010.44 0.739752 -0.0429897 0
M  V30 10212 H 1013.09 1.73903 -0.801871 0
M  V30 10213 H 1011.4 3.84973 0.728217 0
M  V30 10214 H 1013.09 3.99343 0.364213 0
M  V30 10215 H 1009.68 4.15271 -1.06057 0
M  V30 10216 H 1013.87 4.56336 -1.95117 0
M  V30 10217 H 1009.12 5.20257 -3.21158 0
M  V30 10218 H 1013.3 5.62691 -4.10308 0
M  V30 10219 H 1010.92 5.94419 -4.73888 0
M  V30 10220 N 1012.5 0.357919 1.53482 0
M  V30 10221 C 1013.45 -0.507364 2.26999 0
M  V30 10222 C 1014.44 -1.08987 1.29685 0
M  V30 10223 O 1015.65 -1.03396 1.47341 0
M  V30 10224 H 1012.02 -0.182326 0.729562 0
M  V30 10225 H 1013.99 0.134547 2.98097 0
M  V30 10226 C 1012.74 -1.63911 3.06641 0
M  V30 10227 H 1012.06 -1.20017 3.81361 0
M  V30 10228 H 1013.5 -2.21943 3.61272 0
M  V30 10229 C 1011.96 -2.57697 2.17011 0
M  V30 10230 O 1012.49 -3.60318 1.77578 0
M  V30 10231 N 1010.7 -2.2671 1.818 0
M  V30 10232 H 1010.25 -1.43296 2.14065 0
M  V30 10233 H 1010.2 -2.89716 1.22115 0
M  V30 10234 N 1013.98 -1.5736 0.0868897 0
M  V30 10235 C 1015.39 -1.57304 -0.269762 0
M  V30 10236 C 1015.59 -1.09745 -1.68992 0
M  V30 10237 O 1014.65 -0.77017 -2.40468 0
M  V30 10238 C 1015.96 -3.00628 -0.0656646 0
M  V30 10239 C 1017.51 -3.12713 -0.134045 0
M  V30 10240 C 1017.98 -4.57981 0.0419569 0
M  V30 10241 N 1019.48 -4.63198 -0.0131501 0
M  V30 10242 C 1020.21 -5.73316 0.0983964 0
M  V30 10243 N 1019.71 -6.92296 0.264315 0
M  V30 10244 N 1021.5 -5.62086 0.0402517 0
M  V30 10245 H 1013.65 -1.86585 1.01487 0
M  V30 10246 H 1015.91 -0.860843 0.397055 0
M  V30 10247 H 1015.62 -3.39592 0.914891 0
M  V30 10248 H 1015.49 -3.68367 -0.811522 0
M  V30 10249 H 1017.88 -2.73627 -1.1051 0
M  V30 10250 H 1017.96 -2.47582 0.643167 0
M  V30 10251 H 1017.61 -4.9776 1.00984 0
M  V30 10252 H 1017.54 -5.21162 -0.754847 0
M  V30 10253 H 1020.03 -3.77644 -0.139183 0
M  V30 10254 H 1020.34 -7.72047 0.341165 0
M  V30 10255 H 1018.68 -6.94353 0.299876 0
M  V30 10256 H 1021.88 -4.68017 -0.0881801 0
M  V30 10257 H 1022.05 -6.47868 0.130635 0
M  V30 10258 N 1015.45 0.186762 -1.56489 0
M  V30 10259 C 1016.68 0.921832 -1.85229 0
M  V30 10260 C 1017.1 1.76496 -0.670416 0
M  V30 10261 O 1016.45 1.78899 0.360758 0
M  V30 10262 C 1016.51 1.81121 -3.12854 0
M  V30 10263 O 1016.23 1.00211 -4.26485 0
M  V30 10264 C 1017.73 2.65725 -3.54831 0
M  V30 10265 H 1014.95 0.268563 -0.61491 0
M  V30 10266 H 1017.49 0.191505 -2.03601 0
M  V30 10267 H 1015.65 2.49506 -2.96354 0
M  V30 10268 H 1016.06 1.60893 -4.99213 0
M  V30 10269 H 1017.53 3.23771 -4.47075 0
M  V30 10270 H 1018.01 3.39843 -2.78215 0
M  V30 10271 H 1018.62 2.02698 -3.7389 0
M  V30 10272 N 1016.93 1.50896 0.454776 0
M  V30 10273 C 1018.18 1.63905 1.20444 0
M  V30 10274 C 1018.53 0.342692 1.89323 0
M  V30 10275 O 1017.83 -0.660465 1.79857 0
M  V30 10276 C 1018.02 2.76839 2.26042 0
M  V30 10277 C 1017.85 4.17332 1.67524 0
M  V30 10278 C 1016.62 4.83512 1.46779 0
M  V30 10279 C 1018.82 5.01022 1.1611 0
M  V30 10280 N 1016.8 6.08171 0.83675 0
M  V30 10281 C 1018.17 6.16538 0.654283 0
M  V30 10282 C 1020.23 4.86677 1.05119 0
M  V30 10283 C 1018.93 7.19284 0.0483821 0
M  V30 10284 C 1020.95 5.89614 0.459211 0
M  V30 10285 C 1020.32 7.0439 -0.0371476 0
M  V30 10286 H 1016.42 0.653802 0.42903 0
M  V30 10287 H 1019 1.88069 0.503783 0
M  V30 10288 H 1017.17 2.54369 2.93515 0
M  V30 10289 H 1018.9 2.7912 2.93043 0
M  V30 10290 H 1015.66 4.41082 1.72464 0
M  V30 10291 H 1016.08 6.7485 0.539176 0
M  V30 10292 H 1020.72 3.98211 1.42085 0
M  V30 10293 H 1018.44 8.07412 -0.333438 0
M  V30 10294 H 1022.03 5.80582 0.376315 0
M  V30 10295 H 1020.91 7.8268 -0.488035 0
M  V30 10296 N 1018.41 -0.709066 1.40748 0
M  V30 10297 C 1019.34 -1.83412 1.37451 0
M  V30 10298 C 1020.36 -1.60394 0.27884 0
M  V30 10299 O 1021.54 -1.70147 0.539642 0
M  V30 10300 C 1018.64 -3.19935 1.1178 0
M  V30 10301 C 1017.82 -3.70095 2.33128 0
M  V30 10302 C 1016.88 -4.85249 2.03518 0
M  V30 10303 O 1015.9 -4.97563 2.76442 0
M  V30 10304 N 1017.1 -5.7152 1.01714 0
M  V30 10305 H 1019.87 -1.86736 2.34414 0
M  V30 10306 H 1017.43 -0.890863 1.35186 0
M  V30 10307 H 1019.42 -3.94578 0.899464 0
M  V30 10308 H 1017.99 -3.11718 0.234624 0
M  V30 10309 H 1017.21 -2.8651 2.70751 0
M  V30 10310 H 1018.5 -4.00344 3.1401 0
M  V30 10311 H 1017.9 -5.64188 0.413307 0
M  V30 10312 H 1016.46 -6.46119 0.858696 0
M  V30 10313 N 1019.89 -1.26353 -0.941956 0
M  V30 10314 C 1021.17 -1.02601 -1.6653 0
M  V30 10315 C 1021.55 0.44381 -2.06382 0
M  V30 10316 O 1020.89 1.42399 -1.78703 0
M  V30 10317 C 1021.1 -1.97401 -2.87809 0
M  V30 10318 C 1022.45 -2.25967 -3.59478 0
M  V30 10319 O 1023.48 -1.95261 -2.97912 0
M  V30 10320 O 1022.34 -2.78244 -4.70364 0
M  V30 10321 H 1019.43 -0.39007 -0.729228 0
M  V30 10322 H 1021.98 -1.37559 -0.993754 0
M  V30 10323 H 1020.75 -2.9659 -2.55245 0
M  V30 10324 H 1020.37 -1.62918 -3.62689 0
M  V30 10325 N 1021.37 1.14642 -1.08144 0
M  V30 10326 C 1022.6 1.89209 -0.82966 0
M  V30 10327 C 1023.01 1.78697 0.621604 0
M  V30 10328 O 1022.35 1.14224 1.4387 0
M  V30 10329 C 1022.41 3.39958 -1.16915 0
M  V30 10330 C 1022.07 3.74254 -2.62264 0
M  V30 10331 C 1023.07 3.746 -3.60514 0
M  V30 10332 C 1020.76 4.04316 -2.9805 0
M  V30 10333 C 1022.75 4.04527 -4.92582 0
M  V30 10334 C 1020.44 4.33906 -4.30312 0
M  V30 10335 C 1021.44 4.33995 -5.27388 0
M  V30 10336 O 1021.12 4.62869 -6.57273 0
M  V30 10337 H 1020.86 0.606259 -0.299042 0
M  V30 10338 H 1023.41 1.46132 -1.44342 0
M  V30 10339 H 1021.64 3.83475 -0.498377 0
M  V30 10340 H 1023.33 3.95828 -0.89862 0
M  V30 10341 H 1024.09 3.51466 -3.34211 0
M  V30 10342 H 1019.97 4.03402 -2.23132 0
M  V30 10343 H 1023.52 4.04511 -5.68346 0
M  V30 10344 H 1019.41 4.5651 -4.56365 0
M  V30 10345 H 1020.18 4.80598 -6.62546 0
M  V30 10346 N 1022.85 0.866709 1.31628 0
M  V30 10347 C 1023.79 0.318169 2.28596 0
M  V30 10348 C 1024.76 -0.581558 1.55586 0
M  V30 10349 O 1025.95 -0.513895 1.83749 0
M  V30 10350 C 1023.09 -0.477137 3.41786 0
M  V30 10351 C 1022.2 0.449739 4.29653 0
M  V30 10352 C 1021.34 -0.359373 5.29983 0
M  V30 10353 C 1020.37 0.564138 6.09495 0
M  V30 10354 N 1019.51 -0.208526 7.0179 0
M  V30 10355 H 1024.35 1.15029 2.74904 0
M  V30 10356 H 1021.89 0.578649 1.35241 0
M  V30 10357 H 1023.85 -0.953985 4.06146 0
M  V30 10358 H 1022.48 -1.27398 2.96597 0
M  V30 10359 H 1021.53 1.04502 3.65764 0
M  V30 10360 H 1022.84 1.158 4.85172 0
M  V30 10361 H 1021.99 -0.89887 6.00004 0
M  V30 10362 H 1020.73 -1.10094 4.75111 0
M  V30 10363 H 1019.74 1.11542 5.38366 0
M  V30 10364 H 1020.96 1.30451 6.66453 0
M  V30 10365 H 1018.91 -0.932969 6.49332 0
M  V30 10366 H 1018.83 0.440463 7.54716 0
M  V30 10367 H 1020.09 -0.72936 7.7608 0
M  V30 10368 N 1024.32 -1.44642 0.625825 0
M  V30 10369 C 1025.74 -1.56925 0.290992 0
M  V30 10370 C 1025.94 -1.61424 -1.20601 0
M  V30 10371 O 1025 -1.55439 -1.98985 0
M  V30 10372 C 1026.31 -2.84343 0.978242 0
M  V30 10373 C 1027.86 -2.98047 0.955882 0
M  V30 10374 C 1028.33 -4.2826 1.62349 0
M  V30 10375 N 1029.82 -4.35062 1.58983 0
M  V30 10376 C 1030.56 -5.34524 2.07538 0
M  V30 10377 N 1030.05 -6.4042 2.6426 0
M  V30 10378 N 1031.85 -5.25998 1.98198 0
M  V30 10379 H 1024 -1.39965 1.59761 0
M  V30 10380 H 1026.26 -0.670368 0.670306 0
M  V30 10381 H 1025.97 -2.86985 2.03304 0
M  V30 10382 H 1025.84 -3.73699 0.512726 0
M  V30 10383 H 1028.23 -2.94961 -0.0904292 0
M  V30 10384 H 1028.31 -2.10053 1.45984 0
M  V30 10385 H 1027.95 -4.32105 2.66923 0
M  V30 10386 H 1027.88 -5.15102 1.09441 0
M  V30 10387 H 1030.37 -3.59147 1.17565 0
M  V30 10388 H 1030.69 -7.1259 2.99056 0
M  V30 10389 H 1029.03 -6.41121 2.68308 0
M  V30 10390 H 1032.22 -4.42178 1.5361 0
M  V30 10391 H 1032.4 -6.03359 2.3635 0
M  V30 10392 N 1025.8 -0.366053 -1.5329 0
M  V30 10393 C 1027.05 0.223051 -2.00865 0
M  V30 10394 C 1027.37 1.49244 -1.25504 0
M  V30 10395 O 1026.64 1.92404 -0.368444 0
M  V30 10396 H 1025.22 0.085413 -0.742101 0
M  V30 10397 H 1027.88 -0.492396 -1.88578 0
M  V30 10398 H 1026.98 0.449701 -3.08843 0
M  V30 10399 N 1027.28 1.57312 -0.0952337 0
M  V30 10400 C 1028.53 1.94358 0.568442 0
M  V30 10401 C 1028.85 0.97698 1.68182 0
M  V30 10402 O 1028.11 -0.00340398 1.957 0
M  V30 10403 C 1028.41 3.37937 1.16332 0
M  V30 10404 C 1028.07 4.50565 0.173715 0
M  V30 10405 C 1026.74 4.81099 -0.0984673 0
M  V30 10406 C 1029.09 5.18777 -0.501992 0
M  V30 10407 C 1026.42 5.77172 -1.05305 0
M  V30 10408 C 1028.77 6.15874 -1.44505 0
M  V30 10409 C 1027.43 6.44813 -1.72546 0
M  V30 10410 H 1026.7 0.711206 0.208007 0
M  V30 10411 H 1029.35 1.90734 -0.171096 0
M  V30 10412 H 1027.65 3.3814 1.97911 0
M  V30 10413 H 1029.35 3.63902 1.68453 0
M  V30 10414 H 1025.94 4.26766 0.396042 0
M  V30 10415 H 1030.13 4.95363 -0.304855 0
M  V30 10416 H 1025.38 5.97909 -1.2773 0
M  V30 10417 H 1029.56 6.67824 -1.97444 0
M  V30 10418 H 1027.18 7.19067 -2.46671 0
M  V30 10419 N 1028.76 -0.17846 1.56586 0
M  V30 10420 C 1030.01 -0.894464 1.81228 0
M  V30 10421 C 1030.33 -1.83089 0.671062 0
M  V30 10422 O 1029.6 -1.93439 -0.309557 0
M  V30 10423 H 1028.18 -0.333288 0.668527 0
M  V30 10424 H 1030.84 -0.179986 1.94067 0
M  V30 10425 H 1029.93 -1.47565 2.75011 0
M  V30 10426 N 1030.24 -1.51135 -0.446768 0
M  V30 10427 C 1031.46 -1.67411 -1.22427 0
M  V30 10428 C 1031.89 -0.367009 -1.84485 0
M  V30 10429 O 1031.24 0.67185 -1.68392 0
M  V30 10430 C 1031.29 -2.78473 -2.29096 0
M  V30 10431 O 1030.4 -2.41419 -3.34351 0
M  V30 10432 H 1029.74 -0.558512 -0.359111 0
M  V30 10433 H 1032.27 -1.97648 -0.5288 0
M  V30 10434 H 1032.28 -3.02277 -2.7403 0
M  V30 10435 H 1030.95 -3.73326 -1.83304 0
M  V30 10436 H 1029.53 -2.28152 -2.9496 0
M  V30 10437 N 1031.71 0.701592 -1.41122 0
M  V30 10438 C 1032.64 1.82815 -1.45262 0
M  V30 10439 C 1033.62 1.67215 -0.311939 0
M  V30 10440 O 1034.81 1.87038 -0.522538 0
M  V30 10441 C 1031.94 3.20899 -1.32819 0
M  V30 10442 C 1030.89 3.51194 -2.44636 0
M  V30 10443 C 1030.22 4.8857 -2.17263 0
M  V30 10444 C 1031.52 3.50777 -3.86979 0
M  V30 10445 H 1033.21 1.79608 -2.39544 0
M  V30 10446 H 1030.76 0.862693 -1.15298 0
M  V30 10447 H 1032.71 3.99417 -1.34329 0
M  V30 10448 H 1031.44 3.24717 -0.350191 0
M  V30 10449 H 1030.1 2.75024 -2.42399 0
M  V30 10450 H 1029.74 4.89007 -1.17819 0
M  V30 10451 H 1029.44 5.09805 -2.92186 0
M  V30 10452 H 1030.97 5.69405 -2.20478 0
M  V30 10453 H 1032.38 4.19309 -3.90964 0
M  V30 10454 H 1030.78 3.83542 -4.61536 0
M  V30 10455 H 1031.85 2.49873 -4.15562 0
M  V30 10456 N 1033.19 1.2685 0.935242 0
M  V30 10457 C 1034.14 1.08746 2.05614 0
M  V30 10458 C 1035.13 0.012681 1.69395 0
M  V30 10459 O 1036.34 0.169822 1.79197 0
M  V30 10460 H 1032.71 0.33485 0.673335 0
M  V30 10461 H 1034.69 2.03725 2.18033 0
M  V30 10462 C 1033.43 0.74346 3.39659 0
M  V30 10463 H 1032.76 1.56236 3.68008 0
M  V30 10464 H 1034.2 0.656607 4.18885 0
M  V30 10465 C 1032.66 -0.551751 3.32351 0
M  V30 10466 O 1033.19 -1.58836 3.68963 0
M  V30 10467 N 1031.39 -0.544583 2.85452 0
M  V30 10468 H 1030.94 0.29939 2.55854 0
M  V30 10469 H 1030.9 -1.41129 2.80945 0
M  V30 10470 N 1034.67 -1.14067 1.0875 0
M  V30 10471 C 1035.95 -1.81389 0.73195 0
M  V30 10472 C 1036.33 -1.96005 -0.78391 0
M  V30 10473 O 1035.68 -1.52267 -1.70373 0
M  V30 10474 C 1035.89 -3.16858 1.46294 0
M  V30 10475 C 1037.23 -3.92305 1.62426 0
M  V30 10476 O 1038.26 -3.26459 1.42488 0
M  V30 10477 O 1037.12 -5.10393 1.9535 0
M  V30 10478 H 1034.21 -0.784354 0.262141 0
M  V30 10479 H 1036.76 -1.21054 1.18929 0
M  V30 10480 H 1035.53 -3.01404 2.49542 0
M  V30 10481 H 1035.15 -3.84889 0.997318 0
M  V30 10482 N 1036.15 -0.873678 -1.31166 0
M  V30 10483 C 1037.06 -0.335726 -2.32185 0
M  V30 10484 C 1038.07 0.556259 -1.64869 0
M  V30 10485 O 1039.25 0.452087 -1.9626 0
M  V30 10486 C 1036.32 0.450822 -3.43756 0
M  V30 10487 C 1035.38 -0.469565 -4.26724 0
M  V30 10488 C 1034.61 0.279538 -5.32967 0
M  V30 10489 O 1034.83 1.50715 -5.50128 0
M  V30 10490 O 1033.77 -0.36452 -6.00795 0
M  V30 10491 H 1037.59 -1.17314 -2.80127 0
M  V30 10492 H 1035.18 -0.637163 -1.35132 0
M  V30 10493 H 1037.06 0.896582 -4.11752 0
M  V30 10494 H 1035.73 1.26472 -2.9797 0
M  V30 10495 H 1034.64 -0.963902 -3.61469 0
M  V30 10496 H 1035.97 -1.24916 -4.76085 0
M  V30 10497 N 1037.63 1.44308 -0.633487 0
M  V30 10498 C 1038.87 2.01624 -0.138643 0
M  V30 10499 C 1039.2 1.50101 1.24477 0
M  V30 10500 O 1038.47 0.705575 1.82752 0
M  V30 10501 H 1037.05 0.745439 -0.0482636 0
M  V30 10502 H 1039.71 1.76777 -0.820719 0
M  V30 10503 H 1038.8 3.11913 -0.108136 0
M  V30 10504 N 1039.1 0.374177 1.53094 0
M  V30 10505 C 1040.01 -0.475935 2.29722 0
M  V30 10506 C 1041.03 -1.085 1.36029 0
M  V30 10507 O 1042.21 -1.09408 1.69091 0
M  V30 10508 C 1039.27 -1.59572 3.07795 0
M  V30 10509 C 1038.33 -1.01332 4.17169 0
M  V30 10510 C 1037.57 -2.07975 4.9151 0
M  V30 10511 O 1037.79 -3.29232 4.65793 0
M  V30 10512 O 1036.72 -1.7055 5.77232 0
M  V30 10513 H 1040.55 0.147877 3.0334 0
M  V30 10514 H 1038.13 0.138312 1.48758 0
M  V30 10515 H 1040.02 -2.24658 3.5652 0
M  V30 10516 H 1038.69 -2.20478 2.37005 0
M  V30 10517 H 1037.6 -0.326133 3.72676 0
M  V30 10518 H 1038.93 -0.4487 4.90151 0
M  V30 10519 N 1040.58 -1.57259 0.103575 0
M  V30 10520 C 1041.83 -1.94272 -0.557024 0
M  V30 10521 C 1042.15 -0.986739 -1.68192 0
M  V30 10522 O 1041.42 -0.0402818 -1.95859 0
M  V30 10523 H 1040 -0.717237 -0.208757 0
M  V30 10524 H 1042.66 -1.94167 0.168898 0
M  V30 10525 H 1041.76 -2.96914 -0.961691 0
M  V30 10526 N 1042.06 0.170153 -1.56679 0
M  V30 10527 C 1042.97 1.23057 -1.99735 0
M  V30 10528 C 1043.99 1.48374 -0.908912 0
M  V30 10529 O 1045.16 1.60499 -1.21663 0
M  V30 10530 C 1042.23 2.54944 -2.34956 0
M  V30 10531 C 1041.29 2.3748 -3.57634 0
M  V30 10532 C 1040.52 3.63078 -3.91165 0
M  V30 10533 O 1040.74 4.68304 -3.2565 0
M  V30 10534 O 1039.68 3.57119 -4.8451 0
M  V30 10535 H 1043.5 0.895104 -2.9021 0
M  V30 10536 H 1041.09 0.377109 -1.44562 0
M  V30 10537 H 1042.97 3.32742 -2.58574 0
M  V30 10538 H 1041.65 2.88068 -1.47643 0
M  V30 10539 H 1040.55 1.57709 -3.39232 0
M  V30 10540 H 1041.89 2.0928 -4.45491 0
M  V30 10541 N 1043.54 1.5137 0.438746 0
M  V30 10542 C 1044.79 1.63969 1.1883 0
M  V30 10543 C 1045.11 0.355245 1.91228 0
M  V30 10544 O 1044.37 -0.660605 1.84213 0
M  V30 10545 C 1044.67 2.79221 2.23093 0
M  V30 10546 C 1044.33 4.18547 1.67717 0
M  V30 10547 C 1043 4.5645 1.52337 0
M  V30 10548 C 1045.35 5.05494 1.26986 0
M  V30 10549 C 1042.68 5.79007 0.946996 0
M  V30 10550 C 1045.03 6.28628 0.707785 0
M  V30 10551 C 1043.69 6.65305 0.540881 0
M  V30 10552 H 1042.96 0.600003 0.43483 0
M  V30 10553 H 1045.61 1.85398 0.479565 0
M  V30 10554 H 1043.91 2.52008 2.99999 0
M  V30 10555 H 1045.61 2.86168 2.80907 0
M  V30 10556 H 1042.2 3.88663 1.80663 0
M  V30 10557 H 1046.38 4.76818 1.37689 0
M  V30 10558 H 1041.64 6.06072 0.805432 0
M  V30 10559 H 1045.81 6.95342 0.38366 0
M  V30 10560 H 1043.44 7.60144 0.0921324 0
M  V30 10561 N 1045.02 -0.694098 1.41492 0
M  V30 10562 C 1046.26 -1.45493 1.42138 0
M  V30 10563 C 1046.62 -1.92376 0.0302688 0
M  V30 10564 O 1045.91 -1.66723 -0.944142 0
M  V30 10565 C 1046.1 -2.6805 2.36398 0
M  V30 10566 C 1045.93 -2.33157 3.84536 0
M  V30 10567 C 1044.7 -2.2345 4.53209 0
M  V30 10568 C 1046.9 -1.96037 4.75473 0
M  V30 10569 N 1044.88 -1.81457 5.8647 0
M  V30 10570 C 1046.25 -1.64814 5.97693 0
M  V30 10571 C 1048.31 -1.8286 4.63106 0
M  V30 10572 C 1047.01 -1.21738 7.08923 0
M  V30 10573 C 1049.04 -1.41188 5.74299 0
M  V30 10574 C 1048.4 -1.10877 6.95619 0
M  V30 10575 H 1044.5 -0.529635 0.575335 0
M  V30 10576 H 1047.08 -0.802901 1.77374 0
M  V30 10577 H 1045.25 -3.30972 2.03254 0
M  V30 10578 H 1046.99 -3.34531 2.27753 0
M  V30 10579 H 1043.74 -2.41894 4.07166 0
M  V30 10580 H 1044.17 -1.62938 6.571 0
M  V30 10581 H 1048.81 -2.04947 3.69806 0
M  V30 10582 H 1046.53 -0.983947 8.02087 0
M  V30 10583 H 1050.11 -1.3154 5.66735 0
M  V30 10584 H 1048.99 -0.791191 7.80199 0
M  V30 10585 N 1046.49 -1.27344 -0.928501 0
M  V30 10586 C 1047.42 -1.12517 -2.04602 0
M  V30 10587 C 1048.41 -0.0268563 -1.70079 0
M  V30 10588 O 1049.59 -0.201197 -1.93155 0
M  V30 10589 C 1046.72 -0.770749 -3.3864 0
M  V30 10590 C 1045.67 -1.8222 -3.87272 0
M  V30 10591 C 1045 -1.32178 -5.18105 0
M  V30 10592 C 1046.3 -3.22614 -4.10752 0
M  V30 10593 H 1047.99 -2.06 -2.17265 0
M  V30 10594 H 1045.54 -0.991827 -1.04397 0
M  V30 10595 H 1047.49 -0.653843 -4.16297 0
M  V30 10596 H 1046.22 0.19979 -3.25988 0
M  V30 10597 H 1044.88 -1.928 -3.11807 0
M  V30 10598 H 1044.52 -0.340719 -5.01845 0
M  V30 10599 H 1044.22 -2.02474 -5.51614 0
M  V30 10600 H 1045.75 -1.2178 -5.98333 0
M  V30 10601 H 1047.16 -3.1504 -4.78981 0
M  V30 10602 H 1045.56 -3.90614 -4.55566 0
M  V30 10603 H 1046.63 -3.67727 -3.16077 0
M  V30 10604 N 1047.97 1.13488 -1.09353 0
M  V30 10605 C 1049.22 1.84383 -0.827488 0
M  V30 10606 C 1049.54 1.83892 0.648745 0
M  V30 10607 O 1048.81 1.29415 1.47066 0
M  V30 10608 H 1047.39 0.682732 -0.303127 0
M  V30 10609 H 1050.05 1.37477 -1.38152 0
M  V30 10610 H 1049.15 2.88919 -1.18035 0
M  V30 10611 N 1049.45 0.880621 1.30701 0
M  V30 10612 C 1050.4 0.333562 2.30196 0
M  V30 10613 C 1051.39 -0.557092 1.59978 0
M  V30 10614 O 1052.6 -0.442009 1.74489 0
M  V30 10615 H 1048.97 0.0892036 0.746691 0
M  V30 10616 H 1050.95 1.18644 2.73799 0
M  V30 10617 C 1049.69 -0.440731 3.44895 0
M  V30 10618 H 1049.02 0.235353 3.99107 0
M  V30 10619 H 1050.46 -0.788676 4.166 0
M  V30 10620 C 1048.92 -1.63613 2.94504 0
M  V30 10621 O 1049.45 -2.73549 2.94166 0
M  V30 10622 N 1047.65 -1.47183 2.5057 0
M  V30 10623 H 1047.2 -0.577479 2.51044 0
M  V30 10624 H 1047.16 -2.27303 2.17211 0
M  V30 10625 N 1050.93 -1.4397 0.641131 0
M  V30 10626 C 1052.21 -1.95436 0.0800918 0
M  V30 10627 C 1052.59 -1.58282 -1.39678 0
M  V30 10628 O 1051.93 -0.861867 -2.11623 0
M  V30 10629 C 1052.14 -3.47589 0.313531 0
M  V30 10630 C 1053.49 -4.2407 0.212034 0
M  V30 10631 O 1054.52 -3.55353 0.245434 0
M  V30 10632 O 1053.38 -5.46356 0.125455 0
M  V30 10633 H 1050.47 -0.826834 -0.0165735 0
M  V30 10634 H 1053.02 -1.5397 0.71353 0
M  V30 10635 H 1051.79 -3.67716 1.33793 0
M  V30 10636 H 1051.41 -3.96025 -0.353563 0
M  V30 10637 N 1052.41 -0.382291 -1.52893 0
M  V30 10638 C 1053.64 0.202114 -2.05609 0
M  V30 10639 C 1054.05 1.4164 -1.25438 0
M  V30 10640 O 1053.39 1.81359 -0.292324 0
M  V30 10641 C 1053.45 0.64356 -3.53693 0
M  V30 10642 C 1053.11 -0.456305 -4.54716 0
M  V30 10643 C 1054.11 -1.3115 -5.03086 0
M  V30 10644 C 1051.8 -0.621329 -4.98442 0
M  V30 10645 C 1053.79 -2.3169 -5.938 0
M  V30 10646 C 1051.48 -1.63008 -5.88958 0
M  V30 10647 C 1052.48 -2.47629 -6.36529 0
M  V30 10648 O 1052.16 -3.46781 -7.25257 0
M  V30 10649 H 1051.9 0.0358014 -0.675051 0
M  V30 10650 H 1054.45 -0.543935 -1.98067 0
M  V30 10651 H 1052.68 1.44148 -3.58829 0
M  V30 10652 H 1054.37 1.15284 -3.89184 0
M  V30 10653 H 1055.13 -1.19528 -4.70041 0
M  V30 10654 H 1051.01 0.027593 -4.60992 0
M  V30 10655 H 1054.56 -2.97776 -6.30853 0
M  V30 10656 H 1050.45 -1.74671 -6.21418 0
M  V30 10657 H 1051.22 -3.42707 -7.433 0
M  V30 10658 N 1053.89 1.57202 -0.111913 0
M  V30 10659 C 1054.82 2.17957 0.837683 0
M  V30 10660 C 1055.8 1.1176 1.28233 0
M  V30 10661 O 1056.98 1.39967 1.34621 0
M  V30 10662 C 1054.11 2.77333 2.09054 0
M  V30 10663 C 1053.07 3.8905 1.78393 0
M  V30 10664 C 1052.39 4.35203 3.10649 0
M  V30 10665 C 1053.69 5.11477 1.05775 0
M  V30 10666 H 1055.39 2.9756 0.331441 0
M  V30 10667 H 1052.93 1.43131 0.157979 0
M  V30 10668 H 1054.88 3.18492 2.75936 0
M  V30 10669 H 1053.61 1.95009 2.6199 0
M  V30 10670 H 1052.27 3.48456 1.13903 0
M  V30 10671 H 1051.92 3.49747 3.61506 0
M  V30 10672 H 1051.62 5.10534 2.9091 0
M  V30 10673 H 1053.14 4.79007 3.78661 0
M  V30 10674 H 1054.55 5.497 1.62798 0
M  V30 10675 H 1052.95 5.92346 0.961573 0
M  V30 10676 H 1054.02 4.84881 0.043297 0
M  V30 10677 N 1055.36 -0.161842 1.56767 0
M  V30 10678 C 1056.31 -1.20506 1.93552 0
M  V30 10679 C 1057.3 -1.39317 0.804952 0
M  V30 10680 O 1058.49 -1.41129 1.06825 0
M  V30 10681 C 1055.62 -2.54227 2.30702 0
M  V30 10682 C 1054.7 -2.3907 3.50295 0
M  V30 10683 N 1055.1 -1.93642 4.67265 0
M  V30 10684 C 1053.39 -2.69868 3.55088 0
M  V30 10685 C 1054.09 -1.91175 5.49388 0
M  V30 10686 N 1053.07 -2.33935 4.90689 0
M  V30 10687 H 1056.87 -0.845687 2.8147 0
M  V30 10688 H 1054.39 -0.370034 1.58128 0
M  V30 10689 H 1056.38 -3.29623 2.55254 0
M  V30 10690 H 1055.04 -2.90959 1.44128 0
M  V30 10691 H 1056.05 -1.63834 4.91303 0
M  V30 10692 H 1052.73 -3.10574 2.79016 0
M  V30 10693 H 1054.12 -1.57671 6.53138 0
M  V30 10694 N 1056.84 -1.516 -0.430713 0
M  V30 10695 C 1057.77 -1.76342 -1.53054 0
M  V30 10696 C 1058.75 -0.61349 -1.58652 0
M  V30 10697 O 1059.94 -0.856888 -1.74273 0
M  V30 10698 C 1057.07 -1.8945 -2.91077 0
M  V30 10699 C 1056.02 -3.04928 -3.00339 0
M  V30 10700 C 1055.35 -3.03228 -4.40405 0
M  V30 10701 C 1056.65 -4.44777 -2.73808 0
M  V30 10702 H 1058.34 -2.68435 -1.326 0
M  V30 10703 H 1055.89 -1.29171 -0.636466 0
M  V30 10704 H 1057.84 -2.05343 -3.67984 0
M  V30 10705 H 1056.56 -0.940114 -3.12777 0
M  V30 10706 H 1055.22 -2.88751 -2.25872 0
M  V30 10707 H 1054.87 -2.05553 -4.59083 0
M  V30 10708 H 1054.57 -3.80776 -4.47531 0
M  V30 10709 H 1056.1 -3.21222 -5.19277 0
M  V30 10710 H 1057.51 -4.6127 -3.40445 0
M  V30 10711 H 1055.91 -5.2408 -2.92335 0
M  V30 10712 H 1056.98 -4.54358 -1.69372 0
M  V30 10713 N 1058.32 0.686584 -1.41858 0
M  V30 10714 C 1059.25 1.81264 -1.47193 0
M  V30 10715 C 1060.23 1.66875 -0.329657 0
M  V30 10716 O 1061.42 1.86473 -0.542347 0
M  V30 10717 C 1058.55 3.19472 -1.36216 0
M  V30 10718 C 1057.5 3.4858 -2.48347 0
M  V30 10719 C 1056.83 4.86239 -2.22432 0
M  V30 10720 C 1058.13 3.46653 -3.90678 0
M  V30 10721 H 1059.82 1.77057 -2.41436 0
M  V30 10722 H 1057.37 0.850415 -1.16206 0
M  V30 10723 H 1059.32 3.97969 -1.38558 0
M  V30 10724 H 1058.04 3.24327 -0.384611 0
M  V30 10725 H 1056.7 2.72437 -2.45303 0
M  V30 10726 H 1056.35 4.8773 -1.22999 0
M  V30 10727 H 1056.05 5.06677 -2.97577 0
M  V30 10728 H 1057.57 5.67034 -2.26505 0
M  V30 10729 H 1058.99 4.15139 -3.95389 0
M  V30 10730 H 1057.38 3.78625 -4.65578 0
M  V30 10731 H 1058.45 2.45451 -4.18189 0
M  V30 10732 N 1059.8 1.27835 0.921735 0
M  V30 10733 C 1061.03 1.17352 1.704 0
M  V30 10734 C 1061.44 -0.268892 1.86875 0
M  V30 10735 O 1060.8 -1.18253 1.39005 0
M  V30 10736 C 1060.85 1.85889 3.10045 0
M  V30 10737 O 1060.57 3.24495 2.94338 0
M  V30 10738 C 1062.07 1.81607 4.04393 0
M  V30 10739 H 1059.29 0.40773 0.532914 0
M  V30 10740 H 1061.83 1.68815 1.15419 0
M  V30 10741 H 1059.99 1.38316 3.61867 0
M  V30 10742 H 1060.4 3.58705 3.82663 0
M  V30 10743 H 1061.88 2.34165 4.99871 0
M  V30 10744 H 1062.35 0.786697 4.32097 0
M  V30 10745 H 1062.96 2.28822 3.58498 0
M  V30 10746 N 1061.28 -1.12907 1.09954 0
M  V30 10747 C 1062.21 -2.18194 0.701701 0
M  V30 10748 C 1063.22 -1.60724 -0.259131 0
M  V30 10749 O 1064.41 -1.78445 -0.0443549 0
M  V30 10750 C 1061.51 -3.38897 0.0140602 0
M  V30 10751 C 1060.68 -4.25867 0.997807 0
M  V30 10752 C 1059.74 -5.25084 0.34257 0
M  V30 10753 O 1058.77 -5.60492 0.991857 0
M  V30 10754 N 1059.97 -5.73464 -0.901058 0
M  V30 10755 H 1062.73 -2.52939 1.60755 0
M  V30 10756 H 1060.3 -1.28281 0.987703 0
M  V30 10757 H 1062.29 -4.02349 -0.435628 0
M  V30 10758 H 1060.86 -3.02345 -0.794118 0
M  V30 10759 H 1060.08 -3.59107 1.6259 0
M  V30 10760 H 1061.37 -4.80825 1.66388 0
M  V30 10761 H 1060.76 -5.46854 -1.44802 0
M  V30 10762 H 1059.32 -6.38827 -1.29398 0
M  V30 10763 N 1062.75 -0.88754 -1.30232 0
M  V30 10764 C 1064.17 -0.581904 -1.48614 0
M  V30 10765 C 1064.37 0.879711 -1.81282 0
M  V30 10766 O 1063.43 1.66076 -1.90198 0
M  V30 10767 C 1064.74 -1.49726 -2.60773 0
M  V30 10768 C 1066.29 -1.50117 -2.74653 0
M  V30 10769 C 1066.76 -2.40251 -3.89927 0
M  V30 10770 N 1068.25 -2.38229 -3.97242 0
M  V30 10771 C 1068.99 -3.04682 -4.85754 0
M  V30 10772 N 1068.48 -3.80369 -5.79043 0
M  V30 10773 N 1070.28 -2.93901 -4.79144 0
M  V30 10774 H 1062.43 -1.83304 -1.073 0
M  V30 10775 H 1064.69 -0.78477 -0.531826 0
M  V30 10776 H 1064.4 -2.5381 -2.43462 0
M  V30 10777 H 1064.27 -1.20874 -3.57308 0
M  V30 10778 H 1066.66 -0.467832 -2.91368 0
M  V30 10779 H 1066.74 -1.83001 -1.7873 0
M  V30 10780 H 1066.38 -3.43671 -3.73969 0
M  V30 10781 H 1066.31 -2.04682 -4.85194 0
M  V30 10782 H 1068.8 -1.83229 -3.30508 0
M  V30 10783 H 1069.12 -4.28159 -6.4335 0
M  V30 10784 H 1067.46 -3.84477 -5.78967 0
M  V30 10785 H 1070.65 -2.34296 -4.05245 0
M  V30 10786 H 1070.83 -3.45967 -5.47915 0
M  V30 10787 N 1064.23 1.43628 -0.648757 0
M  V30 10788 C 1065.48 2.01465 -0.16002 0
M  V30 10789 C 1065.8 1.51413 1.22878 0
M  V30 10790 O 1065.07 0.724919 1.81994 0
M  V30 10791 H 1063.65 0.744885 -0.0561672 0
M  V30 10792 H 1066.31 1.75897 -0.839422 0
M  V30 10793 H 1065.41 3.1178 -0.141213 0
M  V30 10794 N 1065.71 0.390394 1.52688 0
M  V30 10795 C 1066.94 -0.194013 2.06491 0
M  V30 10796 C 1067.36 -1.3965 1.26014 0
M  V30 10797 O 1066.72 -1.79038 0.285468 0
M  V30 10798 C 1066.77 -0.541306 3.56514 0
M  V30 10799 O 1065.87 -1.63509 3.78601 0
M  V30 10800 H 1065.21 -0.0223608 0.663623 0
M  V30 10801 H 1067.74 0.558179 1.96839 0
M  V30 10802 H 1067.75 -0.805301 3.99974 0
M  V30 10803 H 1066.43 0.337828 4.14526 0
M  V30 10804 H 1065 -1.36473 3.4703 0
M  V30 10805 N 1067.19 -1.57141 0.120249 0
M  V30 10806 C 1068.43 -1.95527 -0.538245 0
M  V30 10807 C 1068.77 -1.00373 -1.6625 0
M  V30 10808 O 1068.04 -0.0411734 -1.94456 0
M  V30 10809 C 1068.33 -3.43843 -1.06976 0
M  V30 10810 C 1068.18 -4.49771 0.0511596 0
M  V30 10811 C 1069.5 -3.94035 -1.96022 0
M  V30 10812 H 1066.62 -0.710958 -0.194183 0
M  V30 10813 H 1069.26 -1.88986 0.196061 0
M  V30 10814 H 1067.41 -3.49548 -1.69553 0
M  V30 10815 H 1069.08 -4.56163 0.686503 0
M  V30 10816 H 1067.32 -4.27882 0.714127 0
M  V30 10817 H 1067.99 -5.50812 -0.361995 0
M  V30 10818 H 1070.47 -3.9064 -1.43315 0
M  V30 10819 H 1069.35 -4.98329 -2.3013 0
M  V30 10820 H 1069.61 -3.34803 -2.8872 0
M  V30 10821 N 1068.67 0.153526 -1.5685 0
M  V30 10822 C 1069.6 1.19162 -2.00805 0
M  V30 10823 C 1070.58 1.45172 -0.886518 0
M  V30 10824 O 1071.76 1.56203 -1.15387 0
M  V30 10825 C 1068.89 2.52637 -2.38311 0
M  V30 10826 C 1067.85 2.41161 -3.53589 0
M  V30 10827 C 1067.17 3.79287 -3.76889 0
M  V30 10828 C 1068.47 1.90122 -4.86468 0
M  V30 10829 H 1070.17 0.82617 -2.87776 0
M  V30 10830 H 1067.71 0.395972 -1.38449 0
M  V30 10831 H 1069.67 3.25478 -2.6766 0
M  V30 10832 H 1068.39 2.91005 -1.4827 0
M  V30 10833 H 1067.05 1.70772 -3.24395 0
M  V30 10834 H 1066.7 4.15079 -2.84109 0
M  V30 10835 H 1066.4 3.72472 -4.54465 0
M  V30 10836 H 1067.92 4.53687 -4.08657 0
M  V30 10837 H 1069.33 2.52752 -5.14577 0
M  V30 10838 H 1067.73 1.94214 -5.67804 0
M  V30 10839 H 1068.8 0.856517 -4.77275 0
M  V30 10840 N 1070.14 1.51827 0.422667 0
M  V30 10841 C 1071.56 1.40328 0.760275 0
M  V30 10842 C 1071.76 0.497119 1.95272 0
M  V30 10843 O 1070.82 -0.0422083 2.52465 0
M  V30 10844 C 1072.13 2.82622 1.02689 0
M  V30 10845 C 1073.68 2.91874 1.13044 0
M  V30 10846 C 1074.15 4.35107 1.4299 0
M  V30 10847 N 1075.64 4.3828 1.49883 0
M  V30 10848 C 1076.38 5.46153 1.74655 0
M  V30 10849 N 1075.87 6.64165 1.9712 0
M  V30 10850 N 1077.67 5.33651 1.76558 0
M  V30 10851 H 1069.82 2.09285 -0.362455 0
M  V30 10852 H 1072.08 0.94273 -0.0998161 0
M  V30 10853 H 1071.79 3.50991 0.223226 0
M  V30 10854 H 1071.66 3.22844 1.95068 0
M  V30 10855 H 1074.05 2.23694 1.92471 0
M  V30 10856 H 1074.13 2.55128 0.185326 0
M  V30 10857 H 1073.77 5.03841 0.640848 0
M  V30 10858 H 1073.7 4.69377 2.38731 0
M  V30 10859 H 1076.19 3.53206 1.34366 0
M  V30 10860 H 1076.51 7.42165 2.15434 0
M  V30 10861 H 1074.85 6.67255 1.94413 0
M  V30 10862 H 1078.04 4.40436 1.58536 0
M  V30 10863 H 1078.22 6.17798 1.95525 0
M  V30 10864 N 1071.62 -0.679052 1.4222 0
M  V30 10865 C 1072.87 -1.44125 1.42674 0
M  V30 10866 C 1073.2 -1.94156 0.041438 0
M  V30 10867 O 1072.48 -1.70628 -0.93361 0
M  V30 10868 C 1072.76 -2.64133 2.44756 0
M  V30 10869 C 1072.61 -2.19761 3.9246 0
M  V30 10870 C 1073.93 -3.66347 2.43881 0
M  V30 10871 H 1071.05 -0.522729 0.519541 0
M  V30 10872 H 1073.69 -0.772067 1.73606 0
M  V30 10873 H 1071.84 -3.21225 2.1851 0
M  V30 10874 H 1073.51 -1.67869 4.29671 0
M  V30 10875 H 1071.76 -1.51377 4.06531 0
M  V30 10876 H 1072.43 -3.05944 4.59459 0
M  V30 10877 H 1074.9 -3.18963 2.67211 0
M  V30 10878 H 1073.78 -4.47902 3.17293 0
M  V30 10879 H 1074.04 -4.17183 1.46325 0
M  V30 10880 N 1073.1 -1.28322 -0.914942 0
M  V30 10881 C 1074.01 -1.13993 -2.05043 0
M  V30 10882 C 1075.03 -0.0667921 -1.73872 0
M  V30 10883 O 1076.2 -0.275845 -1.99502 0
M  V30 10884 C 1073.27 -0.801856 -3.373 0
M  V30 10885 C 1072.33 -1.95723 -3.82088 0
M  V30 10886 C 1071.56 -1.63519 -5.08033 0
M  V30 10887 O 1071.78 -0.54899 -5.67752 0
M  V30 10888 O 1070.72 -2.47844 -5.48504 0
M  V30 10889 H 1074.54 -2.09313 -2.2005 0
M  V30 10890 H 1072.13 -1.0763 -1.03616 0
M  V30 10891 H 1074.01 -0.627214 -4.16706 0
M  V30 10892 H 1072.69 0.121696 -3.23471 0
M  V30 10893 H 1071.59 -2.18702 -3.03514 0
M  V30 10894 H 1072.93 -2.86144 -4.00478 0
M  V30 10895 N 1074.58 1.12322 -1.10551 0
M  V30 10896 C 1075.51 2.20176 -0.777486 0
M  V30 10897 C 1076.49 1.68252 0.250069 0
M  V30 10898 O 1077.67 1.93856 0.115574 0
M  V30 10899 C 1074.8 3.46666 -0.209822 0
M  V30 10900 C 1073.76 4.11749 -1.1682 0
M  V30 10901 C 1073.08 5.32703 -0.461684 0
M  V30 10902 C 1074.38 4.57746 -2.51527 0
M  V30 10903 H 1076.08 2.47872 -1.67928 0
M  V30 10904 H 1073.62 1.19136 -0.808863 0
M  V30 10905 H 1075.58 4.21388 0.0318068 0
M  V30 10906 H 1074.3 3.18401 0.727226 0
M  V30 10907 H 1072.96 3.39009 -1.3953 0
M  V30 10908 H 1072.61 5.00706 0.479875 0
M  V30 10909 H 1072.31 5.77197 -1.1008 0
M  V30 10910 H 1073.83 6.10172 -0.228629 0
M  V30 10911 H 1075.25 5.23835 -2.32958 0
M  V30 10912 H 1073.64 5.13021 -3.11335 0
M  V30 10913 H 1074.71 3.71667 -3.11435 0
M  V30 10914 N 1076.06 0.894434 1.2976 0
M  V30 10915 C 1076.97 0.372622 2.31622 0
M  V30 10916 C 1077.98 -0.52996 1.65733 0
M  V30 10917 O 1079.16 -0.420807 1.96955 0
M  V30 10918 C 1076.22 -0.396076 3.4443 0
M  V30 10919 C 1075.28 0.537394 4.25923 0
M  V30 10920 C 1074.52 -0.194713 5.33345 0
M  V30 10921 O 1074.74 -1.41943 5.52457 0
M  V30 10922 O 1073.67 0.460055 6.00139 0
M  V30 10923 H 1077.5 1.21756 2.78225 0
M  V30 10924 H 1075.09 0.65858 1.34101 0
M  V30 10925 H 1076.97 -0.830962 4.13126 0
M  V30 10926 H 1075.64 -1.21716 2.99945 0
M  V30 10927 H 1074.55 1.02129 3.5989 0
M  V30 10928 H 1075.88 1.32475 4.74037 0
M  V30 10929 N 1077.53 -1.43282 0.656365 0
M  V30 10930 C 1078.81 -1.9534 0.100816 0
M  V30 10931 C 1079.19 -1.59755 -1.37992 0
M  V30 10932 O 1078.54 -0.884264 -2.10697 0
M  V30 10933 C 1078.75 -3.47237 0.35038 0
M  V30 10934 C 1080.1 -4.23822 0.257001 0
M  V30 10935 O 1081.12 -3.55073 0.283111 0
M  V30 10936 O 1079.98 -5.46192 0.183397 0
M  V30 10937 H 1077.07 -0.826963 -0.00780287 0
M  V30 10938 H 1079.62 -1.53205 0.72982 0
M  V30 10939 H 1078.39 -3.66276 1.37685 0
M  V30 10940 H 1078.02 -3.96378 -0.311539 0
M  V30 10941 N 1079.01 -0.398486 -1.52479 0
M  V30 10942 C 1080.26 0.17345 -2.02659 0
M  V30 10943 C 1080.61 1.43702 -1.27935 0
M  V30 10944 O 1079.91 1.87916 -0.37392 0
M  V30 10945 C 1080.1 0.485909 -3.54081 0
M  V30 10946 C 1079.93 -0.745833 -4.43472 0
M  V30 10947 C 1078.7 -1.26785 -4.89136 0
M  V30 10948 C 1080.9 -1.62085 -4.88091 0
M  V30 10949 N 1078.88 -2.45619 -5.62623 0
M  V30 10950 C 1080.25 -2.65552 -5.60252 0
M  V30 10951 C 1082.31 -1.63986 -4.7012 0
M  V30 10952 C 1081.01 -3.70818 -6.1635 0
M  V30 10953 C 1083.04 -2.68164 -5.27107 0
M  V30 10954 C 1082.4 -3.70353 -5.99181 0
M  V30 10955 H 1078.5 0.0253159 -0.78159 0
M  V30 10956 H 1081.08 -0.550442 -1.86757 0
M  V30 10957 H 1079.25 1.17885 -3.70078 0
M  V30 10958 H 1080.98 1.0458 -3.90954 0
M  V30 10959 H 1077.74 -0.827472 -4.66315 0
M  V30 10960 H 1078.16 -3.05771 -6.04014 0
M  V30 10961 H 1082.8 -0.863253 -4.13893 0
M  V30 10962 H 1080.52 -4.49341 -6.71653 0
M  V30 10963 H 1084.11 -2.7053 -5.15077 0
M  V30 10964 H 1082.99 -4.49642 -6.42489 0
M  V30 10965 N 1080.49 1.57075 -0.12858 0
M  V30 10966 C 1081.45 2.14643 0.803813 0
M  V30 10967 C 1082.45 1.08363 1.18803 0
M  V30 10968 O 1083.64 1.34093 1.11197 0
M  V30 10969 C 1080.78 2.6945 2.08829 0
M  V30 10970 H 1081.97 2.98362 0.303347 0
M  V30 10971 H 1079.52 1.55833 0.120735 0
M  V30 10972 H 1080.26 1.89345 2.63285 0
M  V30 10973 H 1080.04 3.47187 1.82218 0
M  V30 10974 H 1081.53 3.13865 2.7546 0
M  V30 10975 N 1081.97 -0.145205 1.5693 0
M  V30 10976 C 1083.22 -0.855822 1.83085 0
M  V30 10977 C 1083.54 -1.81625 0.709747 0
M  V30 10978 O 1082.81 -1.94052 -0.268456 0
M  V30 10979 H 1081.39 -0.319032 0.675446 0
M  V30 10980 H 1084.05 -0.138781 1.94405 0
M  V30 10981 H 1083.15 -1.41698 2.78079 0
M  V30 10982 N 1083.45 -1.52049 -0.414609 0
M  V30 10983 C 1084.4 -1.75603 -1.52533 0
M  V30 10984 C 1085.39 -0.622965 -1.57529 0
M  V30 10985 O 1086.6 -0.804886 -1.61002 0
M  V30 10986 H 1082.97 -0.555222 -0.507181 0
M  V30 10987 H 1084.94 -2.68666 -1.2985 0
M  V30 10988 C 1083.69 -1.9188 -2.89961 0
M  V30 10989 H 1083.01 -2.78483 -2.86857 0
M  V30 10990 H 1084.45 -2.12363 -3.66985 0
M  V30 10991 C 1082.91 -0.684453 -3.29874 0
M  V30 10992 O 1083.44 0.150256 -4.01419 0
M  V30 10993 N 1081.65 -0.521936 -2.85874 0
M  V30 10994 H 1081.2 -1.20229 -2.27822 0
M  V30 10995 H 1081.15 0.302655 -3.1294 0
M  V30 10996 N 1084.93 0.6715 -1.42579 0
M  V30 10997 C 1085.84 1.81435 -1.48723 0
M  V30 10998 C 1086.85 1.69895 -0.375716 0
M  V30 10999 O 1088.03 1.91388 -0.627115 0
M  V30 11000 C 1085.09 3.17599 -1.39038 0
M  V30 11001 C 1084.15 3.41071 -2.60709 0
M  V30 11002 C 1083.39 4.7074 -2.51476 0
M  V30 11003 O 1083.61 5.48868 -1.55243 0
M  V30 11004 O 1082.54 4.95528 -3.41666 0
M  V30 11005 H 1086.37 1.79206 -2.45191 0
M  V30 11006 H 1083.95 0.827666 -1.24379 0
M  V30 11007 H 1085.84 3.98847 -1.3601 0
M  V30 11008 H 1084.51 3.20458 -0.456966 0
M  V30 11009 H 1083.42 2.59659 -2.69311 0
M  V30 11010 H 1084.75 3.43045 -3.5296 0
M  V30 11011 N 1086.4 1.28806 0.908124 0
M  V30 11012 C 1087.37 1.13228 1.99279 0
M  V30 11013 C 1088.37 0.0702456 1.60646 0
M  V30 11014 O 1089.56 0.316494 1.71301 0
M  V30 11015 C 1086.69 0.729629 3.33 0
M  V30 11016 H 1087.88 2.09566 2.14528 0
M  V30 11017 H 1085.43 1.11872 1.09153 0
M  V30 11018 H 1086.17 -0.234268 3.23453 0
M  V30 11019 H 1085.95 1.49688 3.62403 0
M  V30 11020 H 1087.44 0.643449 4.12613 0
M  V30 11021 N 1087.88 -1.11734 1.11145 0
M  V30 11022 C 1089.11 -1.86943 0.879534 0
M  V30 11023 C 1089.52 -1.80283 -0.574007 0
M  V30 11024 O 1088.86 -1.17998 -1.40791 0
M  V30 11025 C 1088.92 -3.36738 1.25887 0
M  V30 11026 C 1088.59 -3.67169 2.72095 0
M  V30 11027 C 1089.59 -3.6491 3.7032 0
M  V30 11028 C 1087.27 -3.96272 3.08665 0
M  V30 11029 C 1089.26 -3.91325 5.03134 0
M  V30 11030 C 1086.95 -4.22345 4.41665 0
M  V30 11031 C 1087.95 -4.19859 5.38709 0
M  V30 11032 O 1087.64 -4.4528 6.69314 0
M  V30 11033 H 1087.37 -0.598117 0.315011 0
M  V30 11034 H 1089.92 -1.42253 1.48166 0
M  V30 11035 H 1088.15 -3.82019 0.599873 0
M  V30 11036 H 1089.84 -3.93306 1.00325 0
M  V30 11037 H 1090.61 -3.42481 3.43412 0
M  V30 11038 H 1086.49 -3.97344 2.33749 0
M  V30 11039 H 1090.03 -3.893 5.78871 0
M  V30 11040 H 1085.93 -4.4425 4.68308 0
M  V30 11041 H 1086.7 -4.62863 6.75056 0
M  V30 11042 N 1089.36 -0.901303 -1.29284 0
M  V30 11043 C 1090.32 -0.385081 -2.25942 0
M  V30 11044 C 1091.32 0.481626 -1.53418 0
M  V30 11045 O 1092.51 0.286451 -1.71829 0
M  V30 11046 C 1089.64 0.449319 -3.37926 0
M  V30 11047 H 1090.84 -1.23877 -2.7312 0
M  V30 11048 H 1088.39 -0.679586 -1.40753 0
M  V30 11049 H 1089.13 1.32292 -2.9609 0
M  V30 11050 H 1088.91 -0.171731 -3.91724 0
M  V30 11051 H 1090.4 0.801746 -4.09831 0
M  V30 11052 N 1090.84 1.42931 -0.663954 0
M  V30 11053 C 1091.75 2.3459 0.0214234 0
M  V30 11054 C 1092.76 1.54487 0.800611 0
M  V30 11055 O 1093.94 1.87098 0.74541 0
M  V30 11056 C 1091 3.32896 0.968556 0
M  V30 11057 C 1090.07 4.28901 0.185108 0
M  V30 11058 C 1089.3 5.2251 1.08713 0
M  V30 11059 O 1089.52 5.20795 2.32655 0
M  V30 11060 O 1088.46 5.99347 0.553758 0
M  V30 11061 H 1092.28 2.94714 -0.733308 0
M  V30 11062 H 1089.87 1.43252 -0.424159 0
M  V30 11063 H 1091.75 3.93318 1.51257 0
M  V30 11064 H 1090.42 2.75261 1.70333 0
M  V30 11065 H 1089.33 3.71926 -0.402752 0
M  V30 11066 H 1090.66 4.89547 -0.510319 0
M  V30 11067 N 1092.32 0.406567 1.52266 0
M  V30 11068 C 1093.55 -0.169378 2.05905 0
M  V30 11069 C 1093.95 -1.39626 1.27676 0
M  V30 11070 O 1093.3 -1.80871 0.32114 0
M  V30 11071 C 1093.36 -0.587209 3.54672 0
M  V30 11072 C 1093.02 0.528588 4.53933 0
M  V30 11073 C 1094.02 1.39137 5.00936 0
M  V30 11074 C 1091.7 0.700549 4.97391 0
M  V30 11075 C 1093.7 2.41108 5.90039 0
M  V30 11076 C 1091.39 1.72357 5.8629 0
M  V30 11077 C 1092.38 2.57725 6.32509 0
M  V30 11078 O 1092.07 3.58275 7.19649 0
M  V30 11079 H 1091.8 -0.0250574 0.675535 0
M  V30 11080 H 1094.36 0.575377 1.97177 0
M  V30 11081 H 1092.59 -1.38421 3.61077 0
M  V30 11082 H 1094.28 -1.09078 3.90969 0
M  V30 11083 H 1095.04 1.26991 4.68079 0
M  V30 11084 H 1090.92 0.0457503 4.60977 0
M  V30 11085 H 1094.47 3.07774 6.26036 0
M  V30 11086 H 1090.36 1.84535 6.1856 0
M  V30 11087 H 1091.13 3.54489 7.37753 0
M  V30 11088 N 1093.79 -1.57004 0.136909 0
M  V30 11089 C 1094.74 -2.12815 -0.818144 0
M  V30 11090 C 1095.73 -1.0534 -1.21623 0
M  V30 11091 O 1096.92 -1.31539 -1.18434 0
M  V30 11092 C 1094.05 -2.74533 -2.06122 0
M  V30 11093 C 1093.14 -3.89117 -1.68669 0
M  V30 11094 N 1093.53 -4.95412 -1.01983 0
M  V30 11095 C 1091.82 -3.99636 -1.98009 0
M  V30 11096 C 1092.53 -5.75594 -0.840624 0
M  V30 11097 N 1091.5 -5.26019 -1.37131 0
M  V30 11098 H 1095.3 -2.92372 -0.299315 0
M  V30 11099 H 1092.82 -1.6227 -0.0649741 0
M  V30 11100 H 1094.81 -3.12872 -2.7553 0
M  V30 11101 H 1093.47 -1.96446 -2.58532 0
M  V30 11102 H 1094.49 -5.13393 -0.681744 0
M  V30 11103 H 1091.16 -3.32613 -2.52339 0
M  V30 11104 H 1092.55 -6.71157 -0.315807 0
M  V30 11105 N 1095.27 0.136881 -1.57004 0
M  V30 11106 C 1096.52 0.847775 -1.83899 0
M  V30 11107 C 1096.85 1.80709 -0.719332 0
M  V30 11108 O 1096.1 1.93527 0.290838 0
M  V30 11109 C 1096.4 1.64711 -3.17183 0
M  V30 11110 C 1096.07 0.833683 -4.43126 0
M  V30 11111 C 1094.73 0.609306 -4.77327 0
M  V30 11112 C 1097.08 0.265504 -5.20523 0
M  V30 11113 C 1094.41 -0.193793 -5.8638 0
M  V30 11114 C 1096.76 -0.524688 -6.3042 0
M  V30 11115 C 1095.43 -0.759548 -6.63164 0
M  V30 11116 H 1094.7 0.310223 -0.672936 0
M  V30 11117 H 1097.34 0.110937 -1.91178 0
M  V30 11118 H 1095.65 2.45435 -3.054 0
M  V30 11119 H 1097.34 2.20081 -3.3521 0
M  V30 11120 H 1093.93 1.01864 -4.16319 0
M  V30 11121 H 1098.12 0.426109 -4.94467 0
M  V30 11122 H 1093.37 -0.385153 -6.10186 0
M  V30 11123 H 1097.55 -0.972033 -6.89583 0
M  V30 11124 H 1095.18 -1.38369 -7.47501 0
M  V30 11125 N 1096.75 1.52266 0.40654 0
M  V30 11126 C 1098.17 1.41127 0.745348 0
M  V30 11127 C 1098.37 0.517802 1.94733 0
M  V30 11128 O 1097.42 -0.0154286 2.52495 0
M  V30 11129 C 1098.74 2.83696 0.996859 0
M  V30 11130 C 1100.28 2.93056 1.09942 0
M  V30 11131 C 1100.76 4.36599 1.38367 0
M  V30 11132 N 1102.25 4.39845 1.45226 0
M  V30 11133 C 1102.98 5.47975 1.68852 0
M  V30 11134 N 1102.48 6.66219 1.90065 0
M  V30 11135 N 1104.27 5.35494 1.70888 0
M  V30 11136 H 1096.42 2.08888 -0.384632 0
M  V30 11137 H 1098.69 0.941619 -0.109809 0
M  V30 11138 H 1098.39 3.51208 0.185986 0
M  V30 11139 H 1098.27 3.24895 1.91632 0
M  V30 11140 H 1100.65 2.25723 1.90088 0
M  V30 11141 H 1100.74 2.5531 0.158256 0
M  V30 11142 H 1100.38 5.04492 0.587373 0
M  V30 11143 H 1100.31 4.71883 2.33739 0
M  V30 11144 H 1102.8 3.54611 1.30612 0
M  V30 11145 H 1103.11 7.44408 2.0755 0
M  V30 11146 H 1101.46 6.69279 1.87325 0
M  V30 11147 H 1104.65 4.42093 1.53856 0
M  V30 11148 H 1104.82 6.19837 1.88962 0
M  V30 11149 N 1098.23 -0.663929 1.42933 0
M  V30 11150 C 1099.47 -1.42603 1.44195 0
M  V30 11151 C 1099.81 -1.94101 0.0620284 0
M  V30 11152 O 1099.08 -1.71609 -0.91546 0
M  V30 11153 C 1099.37 -2.61522 2.47544 0
M  V30 11154 C 1099.22 -2.15587 3.94769 0
M  V30 11155 C 1100.54 -3.6374 2.47753 0
M  V30 11156 H 1097.66 -0.517189 0.525056 0
M  V30 11157 H 1100.3 -0.75361 1.74415 0
M  V30 11158 H 1098.45 -3.1889 2.21904 0
M  V30 11159 H 1100.12 -1.63303 4.31428 0
M  V30 11160 H 1098.36 -1.47057 4.08114 0
M  V30 11161 H 1099.03 -3.01053 4.62678 0
M  V30 11162 H 1101.51 -3.16111 2.70579 0
M  V30 11163 H 1100.39 -4.44512 3.22025 0
M  V30 11164 H 1100.65 -4.15607 1.50742 0
M  V30 11165 N 1099.71 -1.29285 -0.901281 0
M  V30 11166 C 1100.95 -1.16934 -1.64836 0
M  V30 11167 C 1101.28 0.279826 -1.92982 0
M  V30 11168 O 1100.55 1.19179 -1.55478 0
M  V30 11169 H 1099.13 -0.429768 -0.61099 0
M  V30 11170 H 1101.79 -1.62189 -1.08077 0
M  V30 11171 H 1100.88 -1.71821 -2.60545 0
M  V30 11172 N 1101.18 1.11143 -1.11736 0
M  V30 11173 C 1102.41 1.87285 -0.891007 0
M  V30 11174 C 1102.83 1.79758 0.553971 0
M  V30 11175 O 1102.19 1.16221 1.39149 0
M  V30 11176 C 1102.24 3.33924 -1.36114 0
M  V30 11177 O 1101.34 4.08917 -0.534851 0
M  V30 11178 H 1100.69 0.581418 -0.320701 0
M  V30 11179 H 1103.22 1.40469 -1.4876 0
M  V30 11180 H 1103.23 3.84772 -1.35701 0
M  V30 11181 H 1101.9 3.38719 -2.41334 0
M  V30 11182 H 1100.48 3.67954 -0.605355 0
M  V30 11183 N 1102.66 0.908147 1.28804 0
M  V30 11184 C 1103.57 0.397167 2.31214 0
M  V30 11185 C 1104.59 -0.512352 1.66286 0
M  V30 11186 O 1105.76 -0.399893 1.9739 0
M  V30 11187 C 1102.83 -0.359522 3.44831 0
M  V30 11188 C 1101.89 0.582539 4.25329 0
M  V30 11189 C 1101.12 -0.138133 5.33521 0
M  V30 11190 O 1101.35 -1.36076 5.53931 0
M  V30 11191 O 1100.28 0.523682 5.99618 0
M  V30 11192 H 1104.11 1.247 2.76918 0
M  V30 11193 H 1101.69 0.672766 1.33395 0
M  V30 11194 H 1103.57 -0.787098 4.13984 0
M  V30 11195 H 1102.25 -1.18528 3.01219 0
M  V30 11196 H 1101.16 1.0594 3.58786 0
M  V30 11197 H 1102.49 1.37495 4.72605 0
M  V30 11198 N 1104.14 -1.42577 0.671525 0
M  V30 11199 C 1105.1 -2.292 0.000392482 0
M  V30 11200 C 1106.1 -1.43158 -0.732294 0
M  V30 11201 O 1107.29 -1.64583 -0.570789 0
M  V30 11202 C 1104.43 -3.25591 -1.01013 0
M  V30 11203 H 1105.62 -2.90037 0.762783 0
M  V30 11204 H 1103.17 -1.50162 0.433703 0
M  V30 11205 H 1103.91 -2.69685 -1.80112 0
M  V30 11206 H 1103.69 -3.89049 -0.488183 0
M  V30 11207 H 1105.18 -3.90561 -1.47824 0
M  V30 11208 N 1105.62 -0.414636 -1.52048 0
M  V30 11209 C 1106.53 0.414861 -2.30903 0
M  V30 11210 C 1107.54 1.04855 -1.38858 0
M  V30 11211 O 1108.72 1.04886 -1.71933 0
M  V30 11212 C 1105.79 1.51356 -3.11917 0
M  V30 11213 C 1104.85 0.902359 -4.19709 0
M  V30 11214 C 1104.08 1.9487 -4.96852 0
M  V30 11215 O 1104.3 3.16766 -4.74358 0
M  V30 11216 O 1103.24 1.55186 -5.8155 0
M  V30 11217 H 1107.06 -0.228251 -3.02841 0
M  V30 11218 H 1104.65 -0.177704 -1.48339 0
M  V30 11219 H 1106.53 2.15127 -3.62351 0
M  V30 11220 H 1105.2 2.14117 -2.42767 0
M  V30 11221 H 1104.11 0.22721 -3.73409 0
M  V30 11222 H 1105.44 0.318587 -4.91168 0
M  V30 11223 N 1107.1 1.56929 -0.145233 0
M  V30 11224 C 1108.34 1.95681 0.50532 0
M  V30 11225 C 1108.67 1.03098 1.65516 0
M  V30 11226 O 1107.94 0.0921961 1.95683 0
M  V30 11227 H 1106.52 0.72252 0.189668 0
M  V30 11228 H 1109.18 1.93651 -0.220318 0
M  V30 11229 H 1108.27 2.99359 0.882631 0
M  V30 11230 N 1108.58 -0.128553 1.57075 0
M  V30 11231 C 1109.81 -0.851214 1.8825 0
M  V30 11232 C 1110.21 -1.74402 0.733531 0
M  V30 11233 O 1109.56 -1.81149 -0.305108 0
M  V30 11234 C 1109.62 -1.74451 3.14336 0
M  V30 11235 C 1109.28 -1.02699 4.45311 0
M  V30 11236 C 1110.28 -0.37224 5.18566 0
M  V30 11237 C 1107.96 -1.01101 4.9202 0
M  V30 11238 C 1109.96 0.2889 6.36745 0
M  V30 11239 C 1107.65 -0.346063 6.10119 0
M  V30 11240 C 1108.64 0.302744 6.82329 0
M  V30 11241 O 1108.33 0.9571 7.98182 0
M  V30 11242 H 1108.06 -0.250529 0.627863 0
M  V30 11243 H 1110.62 -0.120418 2.05047 0
M  V30 11244 H 1108.85 -2.51671 2.93596 0
M  V30 11245 H 1110.54 -2.34075 3.31608 0
M  V30 11246 H 1111.3 -0.376271 4.83538 0
M  V30 11247 H 1107.18 -1.50543 4.35727 0
M  V30 11248 H 1110.73 0.795901 6.93045 0
M  V30 11249 H 1106.62 -0.339762 6.44605 0
M  V30 11250 H 1107.39 0.860616 8.13963 0
M  V30 11251 N 1110.05 -1.5248 -0.398459 0
M  V30 11252 C 1111.02 -1.75949 -1.46883 0
M  V30 11253 C 1112.02 -0.629431 -1.47969 0
M  V30 11254 O 1113.21 -0.897407 -1.49306 0
M  V30 11255 C 1110.34 -1.85162 -2.8623 0
M  V30 11256 H 1111.53 -2.71513 -1.2736 0
M  V30 11257 H 1109.08 -1.43058 -0.629619 0
M  V30 11258 H 1109.82 -0.915505 -3.11109 0
M  V30 11259 H 1109.6 -2.67326 -2.86844 0
M  V30 11260 H 1111.09 -2.05025 -3.63805 0
M  V30 11261 N 1111.53 0.65634 -1.43283 0
M  V30 11262 C 1112.46 1.78101 -1.51004 0
M  V30 11263 C 1113.44 1.66138 -0.36498 0
M  V30 11264 O 1114.63 1.85281 -0.581778 0
M  V30 11265 C 1111.76 3.16511 -1.42961 0
M  V30 11266 C 1110.71 3.43233 -2.55685 0
M  V30 11267 C 1110.04 4.81411 -2.32696 0
M  V30 11268 C 1111.34 3.38288 -3.97943 0
M  V30 11269 H 1113.03 1.71896 -2.45137 0
M  V30 11270 H 1110.58 0.825575 -1.17984 0
M  V30 11271 H 1112.53 3.94941 -1.46968 0
M  V30 11272 H 1111.25 3.23439 -0.45332 0
M  V30 11273 H 1109.91 2.67173 -2.51026 0
M  V30 11274 H 1109.56 4.85011 -1.33317 0
M  V30 11275 H 1109.26 5.00251 -3.08257 0
M  V30 11276 H 1110.79 5.62102 -2.38481 0
M  V30 11277 H 1112.2 4.06659 -4.04106 0
M  V30 11278 H 1110.6 3.68664 -4.73505 0
M  V30 11279 H 1111.67 2.36525 -4.23301 0
M  V30 11280 N 1113.01 1.29761 0.894412 0
M  V30 11281 C 1113.94 1.1115 2.00445 0
M  V30 11282 C 1114.95 0.0574655 1.62699 0
M  V30 11283 O 1116.14 0.302528 1.75918 0
M  V30 11284 C 1113.24 0.670984 3.32191 0
M  V30 11285 C 1112.42 1.80471 3.98433 0
M  V30 11286 C 1111.48 1.35431 5.08473 0
M  V30 11287 O 1110.5 2.05994 5.30618 0
M  V30 11288 N 1111.7 0.22811 5.80052 0
M  V30 11289 H 1114.47 2.06753 2.16964 0
M  V30 11290 H 1112.03 1.21772 1.06692 0
M  V30 11291 H 1114.02 0.352877 4.03159 0
M  V30 11292 H 1112.59 -0.192735 3.12005 0
M  V30 11293 H 1111.81 2.29142 3.20761 0
M  V30 11294 H 1113.1 2.56471 4.39431 0
M  V30 11295 H 1112.5 -0.360076 5.64553 0
M  V30 11296 H 1111.05 -0.0305985 6.51793 0
M  V30 11297 N 1114.49 -1.10549 1.12324 0
M  V30 11298 C 1115.73 -1.82755 0.879117 0
M  V30 11299 C 1116.07 -1.84905 -0.593604 0
M  V30 11300 O 1115.34 -1.30884 -1.43873 0
M  V30 11301 C 1115.62 -3.29481 1.45308 0
M  V30 11302 C 1115.48 -3.3567 2.99408 0
M  V30 11303 C 1116.8 -4.25828 1.11167 0
M  V30 11304 H 1113.92 -0.663513 0.32081 0
M  V30 11305 H 1116.56 -1.29572 1.38965 0
M  V30 11306 H 1114.71 -3.74902 1.01887 0
M  V30 11307 H 1116.38 -2.98739 3.515 0
M  V30 11308 H 1114.62 -2.75606 3.34998 0
M  V30 11309 H 1115.29 -4.38983 3.34661 0
M  V30 11310 H 1117.77 -3.88635 1.48667 0
M  V30 11311 H 1116.65 -5.26857 1.53991 0
M  V30 11312 H 1116.91 -4.42094 0.0237046 0
M  V30 11313 N 1115.97 -0.914965 -1.28321 0
M  V30 11314 C 1117.19 -0.564023 -1.99583 0
M  V30 11315 C 1117.62 0.847821 -1.6791 0
M  V30 11316 O 1116.97 1.56682 -0.912171 0
M  V30 11317 C 1117.02 -0.781368 -3.52033 0
M  V30 11318 O 1116.13 0.159072 -4.12093 0
M  V30 11319 H 1115.47 -0.218565 -0.626997 0
M  V30 11320 H 1118 -1.23074 -1.63444 0
M  V30 11321 H 1118.01 -0.691946 -4.0209 0
M  V30 11322 H 1116.68 -1.81059 -3.7442 0
M  V30 11323 H 1115.26 0.0208145 -3.72894 0
M  V30 11324 N 1117.44 1.42219 -0.679077 0
M  V30 11325 C 1118.67 2.06333 -0.210097 0
M  V30 11326 C 1119.09 1.50703 1.12562 0
M  V30 11327 O 1118.45 0.627241 1.70104 0
M  V30 11328 C 1118.5 3.60243 -0.160322 0
M  V30 11329 O 1117.6 4.03122 0.869872 0
M  V30 11330 H 1116.94 0.655362 -0.106754 0
M  V30 11331 H 1119.47 1.82278 -0.929294 0
M  V30 11332 H 1119.48 4.07997 0.014384 0
M  V30 11333 H 1118.16 4.00106 -1.13526 0
M  V30 11334 H 1116.74 3.66907 0.66586 0
M  V30 11335 N 1118.92 0.422693 1.51826 0
M  V30 11336 C 1120.15 -0.14753 2.06073 0
M  V30 11337 C 1120.56 -1.38264 1.2915 0
M  V30 11338 O 1119.9 -1.8052 0.340306 0
M  V30 11339 C 1119.96 -0.549558 3.55275 0
M  V30 11340 C 1119.63 0.576704 4.53347 0
M  V30 11341 C 1120.63 1.44442 4.99432 0
M  V30 11342 C 1118.31 0.753264 4.9662 0
M  V30 11343 C 1120.3 2.47352 5.87448 0
M  V30 11344 C 1117.99 1.78566 5.84429 0
M  V30 11345 C 1118.99 2.64419 6.29739 0
M  V30 11346 O 1118.68 3.65888 7.15808 0
M  V30 11347 H 1118.41 -0.0178911 0.675763 0
M  V30 11348 H 1120.96 0.596258 1.96555 0
M  V30 11349 H 1119.19 -1.34583 3.62525 0
M  V30 11350 H 1120.88 -1.04925 3.92104 0
M  V30 11351 H 1121.65 1.31948 4.66706 0
M  V30 11352 H 1117.53 0.0946405 4.60903 0
M  V30 11353 H 1121.07 3.14397 6.22736 0
M  V30 11354 H 1116.97 1.91086 6.16568 0
M  V30 11355 H 1117.74 3.62294 7.33952 0
M  V30 11356 N 1120.4 -1.5685 0.153553 0
M  V30 11357 C 1121.31 -2.20664 -0.796528 0
M  V30 11358 C 1122.33 -1.19289 -1.26674 0
M  V30 11359 O 1123.5 -1.51889 -1.32256 0
M  V30 11360 C 1120.57 -2.82088 -2.01561 0
M  V30 11361 C 1119.63 -3.9861 -1.59401 0
M  V30 11362 C 1118.86 -4.57096 -2.75498 0
M  V30 11363 O 1119.08 -4.14462 -3.9189 0
M  V30 11364 O 1118.02 -5.47254 -2.50593 0
M  V30 11365 H 1121.84 -3.02376 -0.283282 0
M  V30 11366 H 1119.43 -1.49218 -0.0737927 0
M  V30 11367 H 1121.31 -3.21103 -2.72893 0
M  V30 11368 H 1119.99 -2.03385 -2.51826 0
M  V30 11369 H 1118.89 -3.64299 -0.850725 0
M  V30 11370 H 1120.23 -4.78853 -1.13845 0
M  V30 11371 N 1121.88 0.120221 -1.57141 0
M  V30 11372 C 1123.13 0.826586 -1.84423 0
M  V30 11373 C 1123.45 1.80473 -0.738553 0
M  V30 11374 O 1122.72 1.94454 0.23755 0
M  V30 11375 H 1121.3 0.308246 -0.680436 0
M  V30 11376 H 1123.96 0.107835 -1.94601 0
M  V30 11377 H 1123.05 1.37256 -2.80298 0
M  V30 11378 N 1123.36 1.52689 0.390367 0
M  V30 11379 C 1124.58 1.71541 1.15678 0
M  V30 11380 C 1125 0.433171 1.83764 0
M  V30 11381 O 1124.36 -0.592248 1.72623 0
M  V30 11382 C 1124.41 2.864 2.20584 0
M  V30 11383 O 1124.13 4.0966 1.55274 0
M  V30 11384 C 1125.63 3.1692 3.09962 0
M  V30 11385 H 1122.85 0.574381 0.346883 0
M  V30 11386 H 1125.39 1.99332 0.456851 0
M  V30 11387 H 1123.55 2.61075 2.86214 0
M  V30 11388 H 1123.96 4.73802 2.2497 0
M  V30 11389 H 1125.44 4.00755 3.79604 0
M  V30 11390 H 1125.91 2.31245 3.73393 0
M  V30 11391 H 1126.52 3.4408 2.49979 0
M  V30 11392 N 1124.83 -0.648732 1.43629 0
M  V30 11393 C 1125.8 -1.74331 1.488 0
M  V30 11394 C 1126.8 -1.56434 0.372147 0
M  V30 11395 O 1127.99 -1.6225 0.634078 0
M  V30 11396 C 1125.12 -3.13248 1.34494 0
M  V30 11397 H 1126.31 -1.71125 2.46285 0
M  V30 11398 H 1123.87 -0.860798 1.30461 0
M  V30 11399 H 1124.6 -3.22062 0.380345 0
M  V30 11400 H 1124.39 -3.27643 2.15389 0
M  V30 11401 H 1125.88 -3.93056 1.41055 0
M  V30 11402 N 1126.31 -1.30234 -0.887518 0
M  V30 11403 C 1127.56 -1.18675 -1.63587 0
M  V30 11404 C 1127.88 0.259342 -1.93268 0
M  V30 11405 O 1127.15 1.17523 -1.56733 0
M  V30 11406 H 1125.73 -0.436224 -0.606397 0
M  V30 11407 H 1128.39 -1.63326 -1.06351 0
M  V30 11408 H 1127.49 -1.74575 -2.58708 0
M  V30 11409 N 1127.79 1.09952 -1.12909 0
M  V30 11410 C 1129.07 1.78547 -0.798767 0
M  V30 11411 C 1129.45 1.9878 0.710624 0
M  V30 11412 O 1128.8 1.58485 1.64604 0
M  V30 11413 C 1129.01 3.1121 -1.57953 0
M  V30 11414 C 1130.35 3.86006 -1.76874 0
M  V30 11415 O 1131.38 3.20946 -1.54506 0
M  V30 11416 O 1130.24 5.02791 -2.14158 0
M  V30 11417 H 1127.33 0.774084 -0.291072 0
M  V30 11418 H 1129.88 1.16557 -1.2334 0
M  V30 11419 H 1128.65 2.91935 -2.60557 0
M  V30 11420 H 1128.27 3.80922 -1.13948 0
M  V30 11421 N 1129.27 0.921757 1.27833 0
M  V30 11422 C 1130.23 0.420978 2.25301 0
M  V30 11423 C 1131.23 -0.457158 1.54165 0
M  V30 11424 O 1132.42 -0.259079 1.72263 0
M  V30 11425 C 1129.55 -0.395501 3.38598 0
M  V30 11426 H 1130.75 1.28206 2.71115 0
M  V30 11427 H 1128.3 0.701893 1.39654 0
M  V30 11428 H 1129.03 -1.27565 2.98157 0
M  V30 11429 H 1128.82 0.234029 3.91401 0
M  V30 11430 H 1130.31 -0.736444 4.11055 0
M  V30 11431 N 1130.75 -1.41857 0.686609 0
M  V30 11432 C 1131.68 -2.33481 0.0298353 0
M  V30 11433 C 1132.66 -1.51329 -0.776756 0
M  V30 11434 O 1133.84 -1.79895 -0.731535 0
M  V30 11435 C 1130.97 -3.35065 -0.913707 0
M  V30 11436 C 1129.93 -4.2746 -0.214861 0
M  V30 11437 C 1129.25 -5.19346 -1.27215 0
M  V30 11438 C 1130.55 -5.14252 0.913367 0
M  V30 11439 H 1132.25 -2.8865 0.795067 0
M  V30 11440 H 1129.79 -1.38792 0.383785 0
M  V30 11441 H 1131.75 -3.98082 -1.38234 0
M  V30 11442 H 1130.47 -2.78226 -1.7105 0
M  V30 11443 H 1129.13 -3.65855 0.233651 0
M  V30 11444 H 1128.78 -4.58827 -2.06124 0
M  V30 11445 H 1128.48 -5.81996 -0.80961 0
M  V30 11446 H 1130 -5.85239 -1.74147 0
M  V30 11447 H 1131.41 -5.70887 0.525424 0
M  V30 11448 H 1129.81 -5.85796 1.30244 0
M  V30 11449 H 1130.88 -4.51949 1.75699 0
M  V30 11450 N 1132.22 -0.430739 -1.51599 0
M  V30 11451 C 1133.47 0.139396 -2.01218 0
M  V30 11452 C 1133.79 1.44361 -1.31982 0
M  V30 11453 O 1134.99 2.0963 -1.72533 0
M  V30 11454 C 1133.45 0.298969 -3.58656 0
M  V30 11455 C 1133.06 -0.994424 -4.36824 0
M  V30 11456 C 1134.8 0.82323 -4.16441 0
M  V30 11457 C 1132.71 -0.800855 -5.85952 0
M  V30 11458 H 1131.64 0.0558698 -0.751927 0
M  V30 11459 H 1134.29 -0.559493 -1.74762 0
M  V30 11460 H 1132.67 1.06071 -3.8153 0
M  V30 11461 H 1133.84 -1.76398 -4.257 0
M  V30 11462 H 1132.16 -1.44672 -3.9046 0
M  V30 11463 H 1134.76 0.984434 -5.2556 0
M  V30 11464 H 1135.1 1.80388 -3.75188 0
M  V30 11465 H 1135.63 0.119982 -3.97619 0
M  V30 11466 H 1132.37 -1.75369 -6.31606 0
M  V30 11467 H 1131.89 -0.0709793 -5.99758 0
M  V30 11468 H 1133.57 -0.451459 -6.45423 0
M  V30 11469 N 1133.7 1.56767 -0.161869 0
M  V30 11470 C 1134.61 2.21083 0.784814 0
M  V30 11471 C 1135.63 1.19959 1.26039 0
M  V30 11472 O 1136.8 1.52588 1.31449 0
M  V30 11473 C 1133.87 2.83153 2.00063 0
M  V30 11474 C 1132.93 3.9945 1.57285 0
M  V30 11475 C 1132.16 4.5855 2.7307 0
M  V30 11476 O 1132.39 4.16534 3.89686 0
M  V30 11477 O 1131.32 5.48575 2.47688 0
M  V30 11478 H 1135.15 3.02522 0.267243 0
M  V30 11479 H 1132.73 1.49255 0.0658783 0
M  V30 11480 H 1134.61 3.22546 2.71186 0
M  V30 11481 H 1133.29 2.04718 2.50744 0
M  V30 11482 H 1132.2 3.64745 0.831393 0
M  V30 11483 H 1133.53 4.7945 1.11304 0
M  V30 11484 N 1135.18 -0.111886 1.57202 0
M  V30 11485 C 1136.43 -0.816794 1.84859 0
M  V30 11486 C 1136.75 -1.80079 0.748113 0
M  V30 11487 O 1136.02 -1.94578 -0.227235 0
M  V30 11488 H 1134.6 -0.304633 0.682061 0
M  V30 11489 H 1137.26 -0.097513 1.94656 0
M  V30 11490 H 1136.36 -1.35768 2.81022 0
M  V30 11491 N 1136.66 -1.52894 -0.382264 0
M  V30 11492 C 1137.88 -1.72453 -1.15216 0
M  V30 11493 C 1138.31 -0.444925 -1.82762 0
M  V30 11494 O 1137.67 0.599825 -1.7109 0
M  V30 11495 C 1137.71 -2.87939 -2.17079 0
M  V30 11496 O 1136.82 -2.55383 -3.23811 0
M  V30 11497 H 1136.16 -0.57324 -0.335099 0
M  V30 11498 H 1138.69 -1.99713 -0.444495 0
M  V30 11499 H 1138.7 -3.13628 -2.60963 0
M  V30 11500 H 1137.37 -3.80765 -1.67305 0
M  V30 11501 H 1135.95 -2.40457 -2.85018 0
M  V30 11502 N 1138.14 0.641106 -1.43971 0
M  V30 11503 C 1139.38 1.40291 -1.46445 0
M  V30 11504 C 1139.72 1.93978 -0.0929004 0
M  V30 11505 O 1138.99 1.73043 0.888043 0
M  V30 11506 C 1139.27 2.57551 -2.51673 0
M  V30 11507 C 1139.13 2.09279 -3.98149 0
M  V30 11508 C 1140.45 3.59752 -2.53508 0
M  V30 11509 H 1137.57 0.508771 -0.533218 0
M  V30 11510 H 1140.21 0.725767 -1.75592 0
M  V30 11511 H 1138.36 3.15319 -2.2695 0
M  V30 11512 H 1140.03 1.56418 -4.33971 0
M  V30 11513 H 1138.27 1.40545 -4.10402 0
M  V30 11514 H 1138.94 2.93655 -4.67409 0
M  V30 11515 H 1141.42 3.11766 -2.75574 0
M  V30 11516 H 1140.3 4.39332 -3.29057 0
M  V30 11517 H 1140.56 4.13156 -1.57335 0
M  V30 11518 N 1139.62 1.30703 0.880598 0
M  V30 11519 C 1140.53 1.19389 2.01949 0
M  V30 11520 C 1141.54 0.112868 1.73634 0
M  V30 11521 O 1142.72 0.328643 1.98701 0
M  V30 11522 C 1139.78 0.891004 3.35055 0
M  V30 11523 C 1138.84 2.05784 3.76764 0
M  V30 11524 C 1138.08 1.76931 5.03519 0
M  V30 11525 O 1138.3 0.699326 5.66097 0
M  V30 11526 O 1137.23 2.623 5.4174 0
M  V30 11527 H 1141.06 2.15073 2.14423 0
M  V30 11528 H 1138.64 1.10339 1.00726 0
M  V30 11529 H 1140.53 0.737476 4.14897 0
M  V30 11530 H 1139.2 -0.0358909 3.2368 0
M  V30 11531 H 1138.11 2.26672 2.97608 0
M  V30 11532 H 1139.44 2.96661 3.9275 0
M  V30 11533 N 1141.09 -1.09351 1.1349 0
M  V30 11534 C 1142 -2.19564 0.826366 0
M  V30 11535 C 1143.02 -1.72967 -0.189339 0
M  V30 11536 O 1144.2 -2.0139 -0.0202033 0
M  V30 11537 C 1141.26 -3.4542 0.297685 0
M  V30 11538 C 1140.32 -4.06694 1.37473 0
M  V30 11539 C 1139.55 -5.26542 0.871183 0
M  V30 11540 O 1139.78 -5.69657 -0.290958 0
M  V30 11541 O 1138.71 -5.78961 1.64584 0
M  V30 11542 H 1142.54 -2.4841 1.74718 0
M  V30 11543 H 1140.12 -1.18302 0.912414 0
M  V30 11544 H 1142 -4.21399 0.00829479 0
M  V30 11545 H 1140.68 -3.18175 -0.595536 0
M  V30 11546 H 1139.59 -3.32347 1.71745 0
M  V30 11547 H 1140.92 -4.38166 2.24212 0
M  V30 11548 N 1142.57 -0.928524 -1.27343 0
M  V30 11549 C 1143.82 -0.568267 -1.93946 0
M  V30 11550 C 1144.14 0.893501 -1.73325 0
M  V30 11551 O 1143.41 1.63344 -1.08147 0
M  V30 11552 H 1141.99 -0.207173 -0.717696 0
M  V30 11553 H 1144.65 -1.1811 -1.55036 0
M  V30 11554 H 1143.75 -0.775246 -3.02318 0
M  V30 11555 N 1144.05 1.41491 -0.694123 0
M  V30 11556 C 1145.01 2.2917 -0.0368562 0
M  V30 11557 C 1146.01 1.44305 0.709426 0
M  V30 11558 O 1147.2 1.6547 0.544533 0
M  V30 11559 C 1144.33 3.27156 0.958201 0
M  V30 11560 H 1145.53 2.88787 -0.808829 0
M  V30 11561 H 1143.08 1.49453 -0.457538 0
M  V30 11562 H 1143.82 2.72516 1.75799 0
M  V30 11563 H 1143.6 3.89776 0.426227 0
M  V30 11564 H 1145.09 3.92863 1.41592 0
M  V30 11565 N 1145.53 0.438773 1.51369 0
M  V30 11566 C 1146.44 -0.378074 2.31534 0
M  V30 11567 C 1147.45 -1.02632 1.40508 0
M  V30 11568 O 1148.63 -1.02138 1.73579 0
M  V30 11569 C 1145.69 -1.46374 3.14286 0
M  V30 11570 C 1144.76 -0.835473 4.21092 0
M  V30 11571 C 1143.99 -1.86941 4.99889 0
M  V30 11572 O 1144.21 -3.0918 4.79337 0
M  V30 11573 O 1143.15 -1.45914 5.83946 0
M  V30 11574 H 1146.97 0.276401 3.0244 0
M  V30 11575 H 1144.56 0.201281 1.48038 0
M  V30 11576 H 1146.44 -2.09335 3.65728 0
M  V30 11577 H 1145.11 -2.10227 2.46143 0
M  V30 11578 H 1144.02 -0.167775 3.73724 0
M  V30 11579 H 1145.35 -0.240406 4.91613 0
M  V30 11580 N 1147.01 -1.56678 0.170181 0
M  V30 11581 C 1148.24 -2.00931 -0.480664 0
M  V30 11582 C 1148.64 -1.04947 -1.57425 0
M  V30 11583 O 1147.99 -0.042229 -1.83651 0
M  V30 11584 C 1148.05 -3.4161 -1.11996 0
M  V30 11585 C 1147.71 -4.5669 -0.168167 0
M  V30 11586 C 1148.71 -5.16273 0.613059 0
M  V30 11587 C 1146.39 -5.02259 -0.0643243 0
M  V30 11588 C 1148.39 -6.19852 1.48534 0
M  V30 11589 C 1146.08 -6.05687 0.811542 0
M  V30 11590 C 1147.07 -6.64355 1.58496 0
M  V30 11591 O 1146.76 -7.65778 2.44619 0
M  V30 11592 H 1146.49 -0.66386 -0.12754 0
M  V30 11593 H 1149.05 -2.03635 0.2687 0
M  V30 11594 H 1147.28 -3.35815 -1.91743 0
M  V30 11595 H 1148.97 -3.69823 -1.67289 0
M  V30 11596 H 1149.73 -4.81951 0.542999 0
M  V30 11597 H 1145.61 -4.56307 -0.656102 0
M  V30 11598 H 1149.16 -6.65572 2.08948 0
M  V30 11599 H 1145.05 -6.39435 0.88281 0
M  V30 11600 H 1145.82 -7.83096 2.38122 0
M  V30 11601 N 1148.48 0.103547 -1.57259 0
M  V30 11602 C 1149.71 0.82235 -1.89855 0
M  V30 11603 C 1150.13 1.72694 -0.76303 0
M  V30 11604 O 1149.48 1.8056 0.265421 0
M  V30 11605 C 1149.53 1.64282 -3.22015 0
M  V30 11606 O 1149.26 0.774628 -4.31197 0
M  V30 11607 C 1150.76 2.46543 -3.68418 0
M  V30 11608 H 1147.98 0.235591 -0.628282 0
M  V30 11609 H 1150.52 0.0833106 -2.0433 0
M  V30 11610 H 1148.68 2.33446 -3.09163 0
M  V30 11611 H 1149.09 1.34205 -5.0704 0
M  V30 11612 H 1150.56 2.99618 -4.63609 0
M  V30 11613 H 1151.04 3.24618 -2.95838 0
M  V30 11614 H 1151.65 1.82594 -3.84109 0
M  V30 11615 N 1149.96 1.53094 0.37415 0
M  V30 11616 C 1151.19 1.73061 1.143 0
M  V30 11617 C 1151.61 0.454611 1.82524 0
M  V30 11618 O 1150.97 -0.590743 1.71406 0
M  V30 11619 C 1151.02 2.89086 2.15549 0
M  V30 11620 O 1150.12 2.57096 3.22452 0
M  V30 11621 H 1149.46 0.575009 0.332055 0
M  V30 11622 H 1151.99 1.99946 0.433897 0
M  V30 11623 H 1152 3.15007 2.59296 0
M  V30 11624 H 1150.68 3.81647 1.65283 0
M  V30 11625 H 1149.25 2.41965 2.83738 0
M  V30 11626 N 1151.44 -0.633461 1.44309 0
M  V30 11627 C 1152.39 -1.73919 1.47432 0
M  V30 11628 C 1153.37 -1.57258 0.340381 0
M  V30 11629 O 1154.57 -1.67035 0.585529 0
M  V30 11630 C 1151.69 -3.12595 1.41912 0
M  V30 11631 C 1150.78 -3.34734 2.60411 0
M  V30 11632 N 1151.17 -3.2725 3.85669 0
M  V30 11633 C 1149.47 -3.65522 2.55557 0
M  V30 11634 C 1150.17 -3.50013 4.64613 0
M  V30 11635 N 1149.15 -3.72775 3.95651 0
M  V30 11636 H 1152.95 -1.66588 2.42128 0
M  V30 11637 H 1150.46 -0.835844 1.39239 0
M  V30 11638 H 1152.46 -3.91887 1.42233 0
M  V30 11639 H 1151.12 -3.21095 0.482525 0
M  V30 11640 H 1152.13 -3.06221 4.17671 0
M  V30 11641 H 1148.81 -3.81017 1.70682 0
M  V30 11642 H 1150.2 -3.49839 5.73639 0
M  V30 11643 N 1152.92 -1.31168 -0.873655 0
M  V30 11644 C 1153.87 -1.18432 -2.00191 0
M  V30 11645 C 1154.86 -0.0934873 -1.69142 0
M  V30 11646 O 1156.07 -0.255126 -1.78183 0
M  V30 11647 H 1152.44 -0.366594 -0.656592 0
M  V30 11648 H 1154.41 -2.13896 -2.08065 0
M  V30 11649 C 1153.16 -0.904668 -3.35725 0
M  V30 11650 H 1152.48 -1.73617 -3.60135 0
M  V30 11651 H 1153.92 -0.855715 -4.15275 0
M  V30 11652 C 1152.38 0.392554 -3.34605 0
M  V30 11653 O 1152.91 1.41052 -3.76121 0
M  V30 11654 N 1151.12 0.40777 -2.87725 0
M  V30 11655 H 1150.67 -0.42112 -2.54134 0
M  V30 11656 H 1150.62 1.27564 -2.87358 0
M  V30 11657 N 1154.4 1.08748 -1.14068 0
M  V30 11658 C 1155.34 2.17667 -0.819981 0
M  V30 11659 C 1156.34 1.68207 0.200654 0
M  V30 11660 O 1157.54 1.79909 0.0571014 0
M  V30 11661 H 1153.92 0.710129 -0.247427 0
M  V30 11662 H 1155.89 2.41944 -1.74659 0
M  V30 11663 C 1154.64 3.46315 -0.309985 0
M  V30 11664 H 1153.96 3.84748 -1.08669 0
M  V30 11665 H 1155.4 4.23818 -0.124094 0
M  V30 11666 C 1153.86 3.22762 0.965724 0
M  V30 11667 O 1154.39 3.46034 2.04018 0
M  V30 11668 N 1152.6 2.76326 0.899576 0
M  V30 11669 H 1152.14 2.57588 0.0250598 0
M  V30 11670 H 1152.1 2.60945 1.75371 0
M  V30 11671 N 1155.87 0.935264 1.26849 0
M  V30 11672 C 1156.81 0.384563 2.24936 0
M  V30 11673 C 1157.79 -0.523311 1.53949 0
M  V30 11674 O 1158.97 -0.462103 1.82748 0
M  V30 11675 C 1156.1 -0.448043 3.35723 0
M  V30 11676 C 1155.14 0.397466 4.24644 0
M  V30 11677 S 1155.98 1.81773 5.03705 0
M  V30 11678 C 1157.13 0.99302 6.17972 0
M  V30 11679 H 1157.36 1.21588 2.713 0
M  V30 11680 H 1154.9 0.737966 1.35622 0
M  V30 11681 H 1156.86 -0.922541 3.99999 0
M  V30 11682 H 1155.52 -1.25397 2.87983 0
M  V30 11683 H 1154.71 -0.240176 5.03427 0
M  V30 11684 H 1154.31 0.806423 3.65202 0
M  V30 11685 H 1156.6 0.232526 6.77101 0
M  V30 11686 H 1157.55 1.75412 6.86029 0
M  V30 11687 H 1157.95 0.531692 5.6199 0
M  V30 11688 N 1157.35 -1.41121 0.701616 0
M  V30 11689 C 1158.28 -2.292 0.000880842 0
M  V30 11690 C 1159.3 -1.45102 -0.738192 0
M  V30 11691 O 1160.49 -1.68541 -0.587891 0
M  V30 11692 C 1157.59 -3.23094 -1.02292 0
M  V30 11693 C 1156.76 -4.35979 -0.352231 0
M  V30 11694 C 1155.82 -5.10408 -1.27947 0
M  V30 11695 O 1154.84 -5.63974 -0.769561 0
M  V30 11696 N 1156.05 -5.18442 -2.61147 0
M  V30 11697 H 1158.81 -2.8998 0.757094 0
M  V30 11698 H 1156.37 -1.52339 0.548126 0
M  V30 11699 H 1158.36 -3.69755 -1.64509 0
M  V30 11700 H 1156.93 -2.6358 -1.68061 0
M  V30 11701 H 1156.15 -3.91624 0.44992 0
M  V30 11702 H 1157.44 -5.08673 0.113882 0
M  V30 11703 H 1156.84 -4.76381 -3.05087 0
M  V30 11704 H 1155.4 -5.68659 -3.18544 0
M  V30 11705 N 1158.83 -0.446794 -1.51134 0
M  V30 11706 C 1160.08 0.116493 -2.02165 0
M  V30 11707 C 1160.41 1.41884 -1.33039 0
M  V30 11708 O 1159.66 1.90757 -0.437071 0
M  V30 11709 C 1159.96 0.373015 -3.55448 0
M  V30 11710 C 1159.63 -0.844659 -4.42918 0
M  V30 11711 C 1158.29 -1.17857 -4.66544 0
M  V30 11712 C 1160.64 -1.65653 -4.94174 0
M  V30 11713 C 1157.97 -2.32486 -5.38672 0
M  V30 11714 C 1160.32 -2.7939 -5.6756 0
M  V30 11715 C 1158.98 -3.13224 -5.89446 0
M  V30 11716 H 1158.25 0.0426279 -0.739773 0
M  V30 11717 H 1160.9 -0.595921 -1.81992 0
M  V30 11718 H 1159.21 1.16742 -3.74003 0
M  V30 11719 H 1160.9 0.822425 -3.92476 0
M  V30 11720 H 1157.49 -0.574478 -4.24733 0
M  V30 11721 H 1161.68 -1.41176 -4.75797 0
M  V30 11722 H 1156.93 -2.59003 -5.5383 0
M  V30 11723 H 1161.11 -3.42662 -6.06264 0
M  V30 11724 H 1158.73 -4.02158 -6.45115 0
M  V30 11725 N 1160.31 1.56586 -0.178487 0
M  V30 11726 C 1161.53 2.01915 0.473841 0
M  V30 11727 C 1161.96 1.05789 1.55533 0
M  V30 11728 O 1161.32 0.0386018 1.81259 0
M  V30 11729 C 1161.36 3.45799 1.02251 0
M  V30 11730 O 1160.47 3.52761 2.1362 0
M  V30 11731 H 1159.81 0.654372 0.112666 0
M  V30 11732 H 1162.34 2.02613 -0.284486 0
M  V30 11733 H 1162.35 3.85252 1.34332 0
M  V30 11734 H 1161.02 4.1526 0.230719 0
M  V30 11735 H 1159.6 3.25172 1.8253 0
M  V30 11736 N 1161.79 -0.095206 1.57312 0
M  V30 11737 C 1163.01 -0.81227 1.90289 0
M  V30 11738 C 1163.43 -1.72287 0.772178 0
M  V30 11739 O 1162.79 -1.80698 -0.255841 0
M  V30 11740 C 1162.84 -1.62572 3.22882 0
M  V30 11741 O 1162.56 -0.75175 4.31602 0
M  V30 11742 C 1164.06 -2.44585 3.6972 0
M  V30 11743 H 1161.28 -0.232256 0.629522 0
M  V30 11744 H 1163.82 -0.0724733 2.04372 0
M  V30 11745 H 1161.98 -2.31803 3.10397 0
M  V30 11746 H 1162.39 -1.31514 5.07744 0
M  V30 11747 H 1163.87 -2.97155 4.65191 0
M  V30 11748 H 1164.34 -3.23044 2.97555 0
M  V30 11749 H 1164.95 -1.80554 3.85072 0
M  V30 11750 N 1163.26 -1.53291 -0.366026 0
M  V30 11751 C 1164.51 -1.69451 -1.10872 0
M  V30 11752 C 1164.84 -0.446078 -1.89316 0
M  V30 11753 O 1164.09 0.571962 -1.87155 0
M  V30 11754 C 1164.39 -2.89547 -2.09517 0
M  V30 11755 C 1164.06 -4.26073 -1.47556 0
M  V30 11756 C 1162.72 -4.63199 -1.30386 0
M  V30 11757 C 1165.07 -5.10977 -1.02724 0
M  V30 11758 C 1162.4 -5.82866 -0.669666 0
M  V30 11759 C 1164.75 -6.31289 -0.407052 0
M  V30 11760 C 1163.42 -6.67128 -0.222839 0
M  V30 11761 H 1162.69 -0.620066 -0.405708 0
M  V30 11762 H 1165.33 -1.87475 -0.390563 0
M  V30 11763 H 1163.64 -2.66034 -2.87634 0
M  V30 11764 H 1165.34 -2.99245 -2.66933 0
M  V30 11765 H 1161.93 -3.9684 -1.61914 0
M  V30 11766 H 1166.11 -4.82844 -1.14783 0
M  V30 11767 H 1161.37 -6.09224 -0.515351 0
M  V30 11768 H 1165.54 -6.96381 -0.0514661 0
M  V30 11769 H 1163.17 -7.59718 0.270647 0
M  V30 11770 N 1164.74 0.6258 -1.44643 0
M  V30 11771 C 1166.02 1.38439 -1.38181 0
M  V30 11772 C 1166.4 2.11056 -0.0431928 0
M  V30 11773 O 1165.75 2.06683 0.974383 0
M  V30 11774 C 1165.96 2.34639 -2.58352 0
M  V30 11775 C 1167.31 2.97807 -3.02649 0
M  V30 11776 O 1168.33 2.44963 -2.58595 0
M  V30 11777 O 1167.19 3.93682 -3.79048 0
M  V30 11778 H 1164.28 0.619852 -0.54746 0
M  V30 11779 H 1166.83 0.650409 -1.56741 0
M  V30 11780 H 1165.6 1.80116 -3.47382 0
M  V30 11781 H 1165.22 3.15446 -2.42032 0
M  V30 11782 N 1166.22 1.31629 0.866686 0
M  V30 11783 C 1167.64 1.10358 1.15296 0
M  V30 11784 C 1167.84 -0.123807 2.01119 0
M  V30 11785 O 1166.89 -0.81219 2.39081 0
M  V30 11786 C 1168.21 2.37684 1.84193 0
M  V30 11787 C 1169.75 2.43326 1.9688 0
M  V30 11788 C 1170.23 3.70541 2.69191 0
M  V30 11789 N 1171.72 3.71454 2.76724 0
M  V30 11790 C 1172.45 4.66585 3.33295 0
M  V30 11791 N 1171.95 5.72075 3.90771 0
M  V30 11792 N 1173.74 4.541 3.31284 0
M  V30 11793 H 1165.89 2.10343 0.29487 0
M  V30 11794 H 1168.16 0.928096 0.193239 0
M  V30 11795 H 1167.86 3.27352 1.28582 0
M  V30 11796 H 1167.74 2.47731 2.84445 0
M  V30 11797 H 1170.12 1.54124 2.51654 0
M  V30 11798 H 1170.21 2.3724 0.956596 0
M  V30 11799 H 1169.85 4.60111 2.15083 0
M  V30 11800 H 1169.78 3.73894 3.70825 0
M  V30 11801 H 1172.27 2.952 2.35936 0
M  V30 11802 H 1172.58 6.40738 4.32058 0
M  V30 11803 H 1170.93 5.75844 3.89138 0
M  V30 11804 H 1174.12 3.70861 2.85622 0
M  V30 11805 H 1174.29 5.28416 3.75074 0
M  V30 11806 N 1167.7 -1.08142 1.14644 0
M  V30 11807 C 1168.98 -1.77254 0.827071 0
M  V30 11808 C 1169.36 -1.99885 -0.67891 0
M  V30 11809 O 1168.7 -1.61084 -1.62062 0
M  V30 11810 C 1168.91 -3.08658 1.62884 0
M  V30 11811 C 1170.26 -3.83143 1.82993 0
M  V30 11812 O 1171.29 -3.18447 1.59593 0
M  V30 11813 O 1170.15 -4.9932 2.2213 0
M  V30 11814 H 1167.24 -0.769356 0.30335 0
M  V30 11815 H 1169.79 -1.1458 1.25178 0
M  V30 11816 H 1168.56 -2.87753 2.65168 0
M  V30 11817 H 1168.18 -3.79061 1.19994 0
M  V30 11818 N 1169.18 -0.941978 -1.26351 0
M  V30 11819 C 1170.14 -0.456768 -2.24602 0
M  V30 11820 C 1171.14 0.432574 -1.54872 0
M  V30 11821 O 1172.33 0.23164 -1.72653 0
M  V30 11822 C 1169.46 0.341583 -3.39184 0
M  V30 11823 H 1170.66 -1.32503 -2.69041 0
M  V30 11824 H 1168.21 -0.724021 -1.38519 0
M  V30 11825 H 1168.94 1.22806 -3.00149 0
M  V30 11826 H 1168.73 -0.296268 -3.90979 0
M  V30 11827 H 1170.22 0.670955 -4.12175 0
M  V30 11828 N 1170.66 1.40747 -0.709091 0
M  V30 11829 C 1171.93 1.94831 -0.173246 0
M  V30 11830 C 1172.31 1.64766 1.31967 0
M  V30 11831 O 1171.66 0.961853 2.07269 0
M  V30 11832 C 1171.87 3.45697 -0.479013 0
M  V30 11833 C 1173.22 4.22576 -0.414122 0
M  V30 11834 O 1174.24 3.53778 -0.414699 0
M  V30 11835 O 1173.1 5.45135 -0.385986 0
M  V30 11836 H 1170.2 0.826683 -0.0228947 0
M  V30 11837 H 1172.74 1.50391 -0.786178 0
M  V30 11838 H 1171.51 3.60914 -1.51185 0
M  V30 11839 H 1171.14 3.97261 0.164211 0
M  V30 11840 N 1172.13 0.454803 1.50895 0
M  V30 11841 C 1173.07 -0.383826 2.25963 0
M  V30 11842 C 1174.08 -0.971263 1.30653 0
M  V30 11843 O 1175.27 -0.862434 1.56283 0
M  V30 11844 C 1172.37 -1.55069 3.01342 0
M  V30 11845 C 1171.54 -1.07899 4.23883 0
M  V30 11846 C 1170.6 -2.118 4.81692 0
M  V30 11847 O 1169.63 -1.70523 5.43057 0
M  V30 11848 N 1170.83 -3.44459 4.67256 0
M  V30 11849 H 1173.59 0.259646 2.98573 0
M  V30 11850 H 1171.15 0.284661 1.59378 0
M  V30 11851 H 1173.15 -2.24236 3.36898 0
M  V30 11852 H 1171.72 -2.09917 2.31633 0
M  V30 11853 H 1170.94 -0.213773 3.9362 0
M  V30 11854 H 1172.22 -0.741501 5.03368 0
M  V30 11855 H 1171.62 -3.80716 4.18416 0
M  V30 11856 H 1170.18 -4.0947 5.07127 0
M  V30 11857 N 1173.61 -1.56489 0.186789 0
M  V30 11858 C 1174.86 -1.98399 -0.448244 0
M  V30 11859 C 1175.21 -1.07139 -1.59809 0
M  V30 11860 O 1174.51 -0.114119 -1.9126 0
M  V30 11861 C 1174.7 -3.44145 -0.964315 0
M  V30 11862 C 1174.53 -4.495 0.133992 0
M  V30 11863 C 1173.3 -5.01857 0.588851 0
M  V30 11864 C 1175.5 -5.05637 0.939971 0
M  V30 11865 N 1173.48 -5.90866 1.66585 0
M  V30 11866 C 1174.85 -5.91236 1.86655 0
M  V30 11867 C 1176.9 -4.88093 0.983319 0
M  V30 11868 C 1175.61 -6.61167 2.83286 0
M  V30 11869 C 1177.63 -5.58757 1.93764 0
M  V30 11870 C 1177 -6.44096 2.85167 0
M  V30 11871 H 1173.09 -0.770833 -0.131684 0
M  V30 11872 H 1175.68 -1.9252 0.290571 0
M  V30 11873 H 1173.85 -3.50541 -1.6726 0
M  V30 11874 H 1175.58 -3.73036 -1.56926 0
M  V30 11875 H 1172.34 -4.73244 0.183712 0
M  V30 11876 H 1172.76 -6.40075 2.2053 0
M  V30 11877 H 1177.4 -4.218 0.290658 0
M  V30 11878 H 1175.12 -7.26664 3.53532 0
M  V30 11879 H 1178.71 -5.47163 1.97748 0
M  V30 11880 H 1177.59 -6.97813 3.57808 0
M  V30 11881 N 1175.09 0.086862 -1.5736 0
M  V30 11882 C 1176 1.12297 -2.05977 0
M  V30 11883 C 1177.02 1.43347 -0.986284 0
M  V30 11884 O 1178.19 1.53825 -1.3 0
M  V30 11885 C 1175.26 2.42131 -2.4814 0
M  V30 11886 C 1174.32 2.18189 -3.69719 0
M  V30 11887 C 1173.55 3.41833 -4.09861 0
M  V30 11888 O 1173.77 4.50383 -3.50016 0
M  V30 11889 O 1172.71 3.30934 -5.02759 0
M  V30 11890 H 1176.53 0.740012 -2.94546 0
M  V30 11891 H 1174.12 0.29995 -1.46358 0
M  V30 11892 H 1176 3.18568 -2.75848 0
M  V30 11893 H 1174.68 2.79837 -1.62705 0
M  V30 11894 H 1173.58 1.39506 -3.47115 0
M  V30 11895 H 1174.92 1.85372 -4.55959 0
M  V30 11896 N 1176.57 1.53483 0.357892 0
M  V30 11897 C 1177.48 1.83434 1.4625 0
M  V30 11898 C 1178.49 0.723313 1.58254 0
M  V30 11899 O 1179.67 1.01416 1.74002 0
M  V30 11900 C 1176.73 2.0249 2.81423 0
M  V30 11901 C 1175.8 3.26378 2.78883 0
M  V30 11902 C 1175.03 3.44516 4.07608 0
M  V30 11903 O 1175.25 2.66787 5.04163 0
M  V30 11904 O 1174.19 4.37898 4.12952 0
M  V30 11905 H 1178.01 2.77294 1.23861 0
M  V30 11906 H 1175.6 1.38958 0.548722 0
M  V30 11907 H 1177.48 2.16552 3.61501 0
M  V30 11908 H 1176.15 1.11819 3.03773 0
M  V30 11909 H 1175.06 3.17733 1.97475 0
M  V30 11910 H 1176.39 4.16996 2.61486 0
M  V30 11911 N 1178.05 -0.61812 1.44973 0
M  V30 11912 C 1178.99 -1.75059 1.53157 0
M  V30 11913 C 1179.99 -1.64554 0.402282 0
M  V30 11914 O 1181.19 -1.70475 0.577767 0
M  V30 11915 H 1177.57 -0.57817 0.480856 0
M  V30 11916 H 1179.54 -1.65281 2.48445 0
M  V30 11917 C 1178.29 -3.13423 1.50538 0
M  V30 11918 H 1177.61 -3.2216 2.36755 0
M  V30 11919 H 1179.05 -3.92521 1.60323 0
M  V30 11920 C 1177.51 -3.36127 0.228127 0
M  V30 11921 O 1178.04 -3.95618 -0.696364 0
M  V30 11922 N 1176.25 -2.90322 0.127142 0
M  V30 11923 H 1175.79 -2.42091 0.880317 0
M  V30 11924 H 1175.75 -3.05887 -0.726659 0
M  V30 11925 N 1179.52 -1.32087 -0.859693 0
M  V30 11926 C 1180.76 -1.23671 -1.62742 0
M  V30 11927 C 1181.13 0.19966 -1.90959 0
M  V30 11928 O 1182.33 0.407478 -2.65694 0
M  V30 11929 C 1180.6 -2.06736 -2.91539 0
M  V30 11930 S 1182.16 -2.15292 -3.82354 0
M  V30 11931 H 1178.98 -0.440306 -0.558258 0
M  V30 11932 H 1181.58 -1.66875 -1.01848 0
M  V30 11933 H 1180.28 -3.10166 -2.68747 0
M  V30 11934 H 1179.81 -1.64291 -3.57452 0
M  V30 11935 H 1181.83 -1.29874 -4.78902 0
M  V30 11936 N 1181 1.07532 -1.15215 0
M  V30 11937 C 1181.96 2.1286 -0.84989 0
M  V30 11938 C 1182.96 1.60103 0.149524 0
M  V30 11939 O 1184.15 1.74017 -0.0798918 0
M  V30 11940 C 1181.29 3.3984 -0.268617 0
M  V30 11941 H 1182.48 2.41106 -1.78347 0
M  V30 11942 H 1180.03 1.23392 -0.959386 0
M  V30 11943 H 1180.77 3.17235 0.67325 0
M  V30 11944 H 1180.55 3.79433 -0.988592 0
M  V30 11945 H 1182.04 4.17533 -0.0746554 0
M  V30 11946 N 1182.48 0.948665 1.2585 0
M  V30 11947 C 1183.39 0.470525 2.29833 0
M  V30 11948 C 1184.41 -0.45919 1.67832 0
M  V30 11949 O 1185.58 -0.336893 1.98562 0
M  V30 11950 C 1182.65 -0.249635 3.458 0
M  V30 11951 C 1181.71 0.717559 4.23261 0
M  V30 11952 C 1180.94 0.0316724 5.33691 0
M  V30 11953 O 1181.16 -1.18384 5.5798 0
M  V30 11954 O 1180.1 0.71418 5.97648 0
M  V30 11955 H 1183.92 1.33447 2.72811 0
M  V30 11956 H 1181.51 0.714864 1.31187 0
M  V30 11957 H 1183.39 -0.654993 4.16279 0
M  V30 11958 H 1182.07 -1.08885 3.04837 0
M  V30 11959 H 1180.97 1.17301 3.55234 0
M  V30 11960 H 1182.31 1.52461 4.67992 0
M  V30 11961 N 1183.96 -1.40369 0.716545 0
M  V30 11962 C 1185.2 -2.01167 0.256846 0
M  V30 11963 C 1185.54 -1.56689 -1.14727 0
M  V30 11964 O 1184.81 -0.787384 -1.7785 0
M  V30 11965 C 1185.1 -3.58511 0.337963 0
M  V30 11966 C 1184.95 -4.13059 1.78052 0
M  V30 11967 C 1186.27 -4.39142 -0.290295 0
M  V30 11968 H 1183.39 -0.730877 0.0948028 0
M  V30 11969 H 1186.03 -1.66833 0.909225 0
M  V30 11970 H 1184.18 -3.87891 -0.217482 0
M  V30 11971 H 1185.85 -3.94472 2.39143 0
M  V30 11972 H 1184.09 -3.67311 2.30793 0
M  V30 11973 H 1184.76 -5.22217 1.78867 0
M  V30 11974 H 1187.24 -4.15697 0.182987 0
M  V30 11975 H 1186.12 -5.48524 -0.203097 0
M  V30 11976 H 1186.38 -4.20209 -1.37394 0
M  V30 11977 N 1185.44 -0.462799 -1.50652 0
M  V30 11978 C 1186.67 0.0928413 -2.06391 0
M  V30 11979 C 1187.07 1.34791 -1.3277 0
M  V30 11980 O 1186.42 1.79555 -0.388048 0
M  V30 11981 C 1186.48 0.45517 -3.56607 0
M  V30 11982 C 1186.14 -0.696698 -4.51658 0
M  V30 11983 C 1187.14 -1.57633 -4.95427 0
M  V30 11984 C 1184.83 -0.884669 -4.94448 0
M  V30 11985 C 1186.82 -2.62841 -5.80684 0
M  V30 11986 C 1184.51 -1.93998 -5.79489 0
M  V30 11987 C 1185.5 -2.81022 -6.22508 0
M  V30 11988 O 1185.19 -3.84738 -7.05856 0
M  V30 11989 H 1184.92 -3.18898e-05 -0.676 0
M  V30 11990 H 1187.48 -0.648161 -1.94905 0
M  V30 11991 H 1185.71 1.24924 -3.65966 0
M  V30 11992 H 1187.4 0.944923 -3.94748 0
M  V30 11993 H 1188.16 -1.44276 -4.63044 0
M  V30 11994 H 1184.04 -0.216807 -4.6049 0
M  V30 11995 H 1187.59 -3.30797 -6.14182 0
M  V30 11996 H 1183.48 -2.07366 -6.11285 0
M  V30 11997 H 1184.25 -3.81626 -7.24088 0
M  V30 11998 N 1186.91 1.56388 -0.195085 0
M  V30 11999 C 1188.16 1.97189 0.44281 0
M  V30 12000 C 1188.48 1.08312 1.62153 0
M  V30 12001 O 1187.75 0.154404 1.95291 0
M  V30 12002 H 1186.33 0.728188 0.166585 0
M  V30 12003 H 1189 1.92852 -0.281815 0
M  V30 12004 H 1188.09 3.02016 0.786945 0
M  V30 12005 N 1188.39 -0.0785156 1.57404 0
M  V30 12006 C 1189.64 -0.777399 1.8655 0
M  V30 12007 C 1189.96 -1.78451 0.786142 0
M  V30 12008 O 1189.23 -1.95016 -0.185911 0
M  V30 12009 H 1187.81 -0.290097 0.688369 0
M  V30 12010 H 1190.47 -0.0562017 1.94819 0
M  V30 12011 H 1189.57 -1.29776 2.83839 0
M  V30 12012 N 1189.87 -1.5367 -0.349747 0
M  V30 12013 C 1191.12 -1.70281 -1.08853 0
M  V30 12014 C 1191.44 -0.465438 -1.89364 0
M  V30 12015 O 1190.71 0.520615 -1.88856 0
M  V30 12016 H 1189.29 -0.627775 -0.404854 0
M  V30 12017 H 1191.95 -1.90906 -0.392523 0
M  V30 12018 H 1191.05 -2.57096 -1.76941 0
M  V30 12019 N 1191.35 0.610423 -1.45298 0
M  V30 12020 C 1192.59 1.36959 -1.50379 0
M  V30 12021 C 1192.95 1.91872 -0.142378 0
M  V30 12022 O 1192.24 1.71944 0.845332 0
M  V30 12023 C 1192.44 2.53812 -2.51623 0
M  V30 12024 C 1192.27 2.10341 -3.97476 0
M  V30 12025 C 1191.04 1.96646 -4.65466 0
M  V30 12026 C 1193.23 1.67982 -4.86093 0
M  V30 12027 N 1191.22 1.46956 -5.96051 0
M  V30 12028 C 1192.59 1.29686 -6.06285 0
M  V30 12029 C 1194.64 1.55548 -4.72979 0
M  V30 12030 C 1193.34 0.801985 -7.14815 0
M  V30 12031 C 1195.37 1.07465 -5.81554 0
M  V30 12032 C 1194.73 0.701317 -7.009 0
M  V30 12033 H 1190.83 0.495191 -0.605236 0
M  V30 12034 H 1193.42 0.698121 -1.81754 0
M  V30 12035 H 1191.59 3.18558 -2.22205 0
M  V30 12036 H 1193.32 3.20683 -2.4687 0
M  V30 12037 H 1190.07 2.17743 -4.20577 0
M  V30 12038 H 1190.5 1.2435 -6.65482 0
M  V30 12039 H 1195.14 1.83038 -3.81126 0
M  V30 12040 H 1192.86 0.514634 -8.0646 0
M  V30 12041 H 1196.44 0.98274 -5.7344 0
M  V30 12042 H 1195.32 0.334967 -7.83484 0
M  V30 12043 N 1192.83 1.32541 0.852676 0
M  V30 12044 C 1194.07 1.24406 1.60918 0
M  V30 12045 C 1194.43 -0.19184 1.91441 0
M  V30 12046 O 1193.72 -1.13016 1.54719 0
M  V30 12047 C 1193.91 2.039 2.9353 0
M  V30 12048 C 1193.74 3.55074 2.75957 0
M  V30 12049 C 1192.51 4.24409 2.74236 0
M  V30 12050 C 1194.71 4.49686 2.49574 0
M  V30 12051 N 1192.69 5.61624 2.47895 0
M  V30 12052 C 1194.06 5.74692 2.32658 0
M  V30 12053 C 1196.12 4.38921 2.35058 0
M  V30 12054 C 1194.82 6.90149 2.027 0
M  V30 12055 C 1196.85 5.5418 2.06491 0
M  V30 12056 C 1196.21 6.78186 1.90377 0
M  V30 12057 H 1192.31 0.510401 0.592465 0
M  V30 12058 H 1194.89 1.66929 1.00214 0
M  V30 12059 H 1193.06 1.6372 3.52208 0
M  V30 12060 H 1194.8 1.87644 3.58569 0
M  V30 12061 H 1191.55 3.76546 2.87246 0
M  V30 12062 H 1191.98 6.33918 2.37648 0
M  V30 12063 H 1196.62 3.43697 2.46236 0
M  V30 12064 H 1194.34 7.85383 1.90259 0
M  V30 12065 H 1197.92 5.47779 1.96035 0
M  V30 12066 H 1196.8 7.65864 1.68587 0
M  V30 12067 N 1194.3 -1.0692 1.15784 0
M  V30 12068 C 1195.53 -1.83045 0.958031 0
M  V30 12069 C 1195.94 -1.82555 -0.497027 0
M  V30 12070 O 1195.29 -1.23864 -1.35659 0
M  V30 12071 C 1195.35 -3.31096 1.40056 0
M  V30 12072 C 1195.01 -3.55299 2.87423 0
M  V30 12073 C 1196.01 -3.48875 3.85463 0
M  V30 12074 C 1193.69 -3.82824 3.25194 0
M  V30 12075 C 1195.69 -3.69633 5.19279 0
M  V30 12076 C 1193.37 -4.03232 4.59181 0
M  V30 12077 C 1194.37 -3.96633 5.56032 0
M  V30 12078 O 1194.06 -4.16492 6.87597 0
M  V30 12079 H 1193.79 -0.584218 0.340095 0
M  V30 12080 H 1196.35 -1.35841 1.54066 0
M  V30 12081 H 1194.58 -3.79131 0.761361 0
M  V30 12082 H 1196.27 -3.88697 1.16916 0
M  V30 12083 H 1197.03 -3.27608 3.57629 0
M  V30 12084 H 1192.91 -3.87073 2.50391 0
M  V30 12085 H 1196.45 -3.64398 5.94861 0
M  V30 12086 H 1192.35 -4.23988 4.86729 0
M  V30 12087 H 1193.12 -4.33815 6.9408 0
M  V30 12088 N 1195.78 -0.955326 -1.25345 0
M  V30 12089 C 1196.73 -0.467205 -2.2786 0
M  V30 12090 C 1197.72 0.462873 -1.62954 0
M  V30 12091 O 1198.93 0.339526 -1.76769 0
M  V30 12092 H 1195.31 -0.132586 -0.74022 0
M  V30 12093 H 1197.28 -1.34406 -2.66416 0
M  V30 12094 C 1196.03 0.238898 -3.46878 0
M  V30 12095 H 1195.35 -0.467644 -3.97056 0
M  V30 12096 H 1196.79 0.544444 -4.2049 0
M  V30 12097 C 1195.25 1.46164 -3.03542 0
M  V30 12098 O 1195.78 2.55933 -3.09615 0
M  V30 12099 N 1193.98 1.32324 -2.58725 0
M  V30 12100 H 1193.53 0.430131 -2.53984 0
M  V30 12101 H 1193.49 2.14253 -2.30094 0
M  V30 12102 N 1197.26 1.39987 -0.723979 0
M  V30 12103 C 1198.21 2.32507 -0.0658033 0
M  V30 12104 C 1199.2 1.52484 0.737908 0
M  V30 12105 O 1200.41 1.68225 0.640332 0
M  V30 12106 H 1196.78 0.751996 -0.00247717 0
M  V30 12107 H 1198.76 2.85657 -0.862696 0
M  V30 12108 C 1197.5 3.37509 0.835628 0
M  V30 12109 H 1196.83 3.99157 0.226589 0
M  V30 12110 H 1198.27 4.04722 1.26396 0
M  V30 12111 C 1196.73 2.73665 1.96492 0
M  V30 12112 O 1197.26 2.60649 3.05655 0
M  V30 12113 N 1195.46 2.3192 1.75104 0
M  V30 12114 H 1195.01 2.42707 0.863204 0
M  V30 12115 H 1194.97 1.89542 2.50841 0
M  V30 12116 N 1198.74 0.470782 1.50404 0
M  V30 12117 C 1199.98 -0.0830648 2.04231 0
M  V30 12118 C 1200.34 -1.37015 1.34503 0
M  V30 12119 O 1201.54 -2.00635 1.78883 0
M  V30 12120 C 1199.82 -0.262986 3.56431 0
M  V30 12121 S 1201.37 -0.775432 4.31894 0
M  V30 12122 H 1198.19 -0.0161025 0.710818 0
M  V30 12123 H 1200.79 0.63785 1.84802 0
M  V30 12124 H 1199.5 0.679558 4.04735 0
M  V30 12125 H 1199.03 -1.01002 3.80213 0
M  V30 12126 H 1201.04 -2.04887 4.51924 0
M  V30 12127 N 1200.22 -1.56282 0.203376 0
M  V30 12128 C 1201.15 -2.16714 -0.74616 0
M  V30 12129 C 1202.16 -1.13121 -1.17079 0
M  V30 12130 O 1203.35 -1.40179 -1.10509 0
M  V30 12131 C 1200.45 -2.72115 -2.02007 0
M  V30 12132 C 1199.62 -4.00695 -1.75391 0
M  V30 12133 C 1198.68 -4.40839 -2.8731 0
M  V30 12134 O 1197.71 -5.081 -2.56561 0
M  V30 12135 N 1198.91 -4.05024 -4.15856 0
M  V30 12136 H 1201.68 -2.98821 -0.229326 0
M  V30 12137 H 1199.24 -1.61885 0.0217049 0
M  V30 12138 H 1201.23 -2.95951 -2.76035 0
M  V30 12139 H 1199.8 -1.94415 -2.44789 0
M  V30 12140 H 1199.02 -3.84905 -0.851 0
M  V30 12141 H 1200.31 -4.8461 -1.55017 0
M  V30 12142 H 1199.71 -3.50938 -4.43688 0
M  V30 12143 H 1198.26 -4.33792 -4.86485 0
M  V30 12144 N 1201.7 0.070167 -1.57444 0
M  V30 12145 C 1202.66 1.06761 -2.02817 0
M  V30 12146 C 1203.66 1.31498 -0.925462 0
M  V30 12147 O 1204.85 1.27192 -1.19029 0
M  V30 12148 C 1201.98 2.41086 -2.41019 0
M  V30 12149 H 1203.17 0.67651 -2.9217 0
M  V30 12150 H 1200.73 0.315936 -1.53074 0
M  V30 12151 H 1201.46 2.85025 -1.54697 0
M  V30 12152 H 1201.25 2.24472 -3.21488 0
M  V30 12153 H 1202.74 3.12778 -2.76694 0
M  V30 12154 N 1203.17 1.53854 0.341593 0
M  V30 12155 C 1204.14 1.8128 1.40251 0
M  V30 12156 C 1205.14 0.683915 1.45531 0
M  V30 12157 O 1206.33 0.952202 1.45872 0
M  V30 12158 C 1203.46 1.95658 2.79161 0
M  V30 12159 H 1204.65 2.76053 1.17195 0
M  V30 12160 H 1202.2 1.45296 0.57609 0
M  V30 12161 H 1202.94 1.03034 3.07497 0
M  V30 12162 H 1202.72 2.77788 2.76724 0
M  V30 12163 H 1204.21 2.18387 3.55945 0
M  V30 12164 N 1204.65 -0.602709 1.4562 0
M  V30 12165 C 1205.6 -1.73425 1.55005 0
M  V30 12166 C 1206.59 -1.64118 0.419713 0
M  V30 12167 O 1207.8 -1.69853 0.595815 0
M  V30 12168 H 1204.17 -0.573038 0.486962 0
M  V30 12169 H 1206.15 -1.62637 2.50184 0
M  V30 12170 C 1204.89 -3.11808 1.53853 0
M  V30 12171 H 1204.22 -3.19631 2.40158 0
M  V30 12172 H 1205.66 -3.90798 1.64477 0
M  V30 12173 C 1204.12 -3.35866 0.263765 0
M  V30 12174 O 1204.65 -3.96334 -0.654364 0
M  V30 12175 N 1202.85 -2.90171 0.157927 0
M  V30 12176 H 1202.4 -2.41144 0.905944 0
M  V30 12177 H 1202.36 -3.06641 -0.694175 0
M  V30 12178 N 1206.13 -1.32992 -0.845635 0
M  V30 12179 C 1207.06 -1.25301 -1.97033 0
M  V30 12180 C 1208.04 -0.134966 -1.69564 0
M  V30 12181 O 1209.23 -0.323629 -1.91484 0
M  V30 12182 C 1206.36 -0.984551 -3.33052 0
M  V30 12183 C 1205.31 -2.06481 -3.749 0
M  V30 12184 C 1204.64 -1.6486 -5.08651 0
M  V30 12185 C 1205.94 -3.48083 -3.89404 0
M  V30 12186 H 1207.63 -2.194 -2.03725 0
M  V30 12187 H 1205.18 -1.05621 -0.978783 0
M  V30 12188 H 1207.13 -0.917269 -4.11296 0
M  V30 12189 H 1205.85 -0.00793116 -3.26599 0
M  V30 12190 H 1204.51 -2.1224 -2.98915 0
M  V30 12191 H 1204.16 -0.659183 -4.98662 0
M  V30 12192 H 1203.86 -2.37145 -5.37621 0
M  V30 12193 H 1205.38 -1.59585 -5.89377 0
M  V30 12194 H 1206.8 -3.44863 -4.57976 0
M  V30 12195 H 1205.19 -4.18796 -4.29802 0
M  V30 12196 H 1206.26 -3.87084 -2.92051 0
M  V30 12197 N 1207.61 1.06304 -1.1635 0
M  V30 12198 C 1208.56 2.15879 -0.865967 0
M  V30 12199 C 1209.55 1.68595 0.164929 0
M  V30 12200 O 1210.76 1.7999 0.0189271 0
M  V30 12201 H 1207.13 0.704721 -0.262435 0
M  V30 12202 H 1209.1 2.38185 -1.79751 0
M  V30 12203 C 1207.85 3.4558 -0.383374 0
M  V30 12204 H 1207.17 3.82356 -1.16806 0
M  V30 12205 H 1208.61 4.2346 -0.213964 0
M  V30 12206 C 1207.07 3.24738 0.897044 0
M  V30 12207 O 1207.6 3.50284 1.96632 0
M  V30 12208 N 1205.81 2.78172 0.840761 0
M  V30 12209 H 1205.36 2.57583 -0.029584 0
M  V30 12210 H 1205.31 2.64606 1.69797 0
M  V30 12211 N 1209.09 0.96196 1.24836 0
M  V30 12212 C 1210.33 0.619489 1.92371 0
M  V30 12213 C 1210.65 -0.847233 1.75633 0
M  V30 12214 O 1209.92 -1.60419 1.12439 0
M  V30 12215 H 1208.5 0.226129 0.711951 0
M  V30 12216 H 1211.17 1.22179 1.5185 0
M  V30 12217 H 1210.26 0.855128 3.00157 0
M  V30 12218 N 1210.56 -1.39601 0.731392 0
M  V30 12219 C 1211.81 -1.99821 0.274661 0
M  V30 12220 C 1212.13 -1.58693 -1.1435 0
M  V30 12221 O 1213.33 -2.11724 -1.69957 0
M  V30 12222 C 1211.79 -3.57199 0.440124 0
M  V30 12223 C 1211.4 -4.07292 1.86594 0
M  V30 12224 C 1213.14 -4.24476 0.0449851 0
M  V30 12225 C 1211.05 -5.57229 1.98115 0
M  V30 12226 H 1209.98 -0.747481 0.0989383 0
M  V30 12227 H 1212.63 -1.59645 0.904755 0
M  V30 12228 H 1211.01 -3.95153 -0.25881 0
M  V30 12229 H 1212.18 -3.80679 2.59654 0
M  V30 12230 H 1210.5 -3.52665 2.21397 0
M  V30 12231 H 1213.1 -5.34587 0.110126 0
M  V30 12232 H 1213.44 -4.04129 -0.999269 0
M  V30 12233 H 1213.97 -3.91683 0.694942 0
M  V30 12234 H 1210.71 -5.82452 3.00716 0
M  V30 12235 H 1210.23 -5.85656 1.29487 0
M  V30 12236 H 1211.91 -6.22584 1.76063 0
M  V30 12237 N 1212.04 -0.478751 -1.50152 0
M  V30 12238 C 1213.27 0.0709455 -2.06478 0
M  V30 12239 C 1213.68 1.33376 -1.34192 0
M  V30 12240 O 1213.02 1.79133 -0.40707 0
M  V30 12241 C 1213.09 0.417322 -3.5707 0
M  V30 12242 C 1212.75 -0.744563 -4.50894 0
M  V30 12243 C 1213.75 -1.62879 -4.93727 0
M  V30 12244 C 1211.43 -0.937062 -4.93482 0
M  V30 12245 C 1213.43 -2.68985 -5.77863 0
M  V30 12246 C 1211.11 -2.00134 -5.77399 0
M  V30 12247 C 1212.11 -2.87609 -6.19492 0
M  V30 12248 O 1211.8 -3.92203 -7.01735 0
M  V30 12249 H 1211.53 -0.00720177 -0.675962 0
M  V30 12250 H 1214.08 -0.668797 -1.94207 0
M  V30 12251 H 1212.31 1.21036 -3.6727 0
M  V30 12252 H 1214 0.903002 -3.95728 0
M  V30 12253 H 1214.77 -1.49179 -4.61488 0
M  V30 12254 H 1210.65 -0.265636 -4.60234 0
M  V30 12255 H 1214.19 -3.37293 -6.10639 0
M  V30 12256 H 1210.09 -2.13837 -6.09052 0
M  V30 12257 H 1210.86 -3.89284 -7.2 0
M  V30 12258 N 1213.52 1.56172 -0.211661 0
M  V30 12259 C 1214.75 2.02135 0.427222 0
M  V30 12260 C 1215.16 1.09084 1.54587 0
M  V30 12261 O 1214.5 0.090906 1.83475 0
M  V30 12262 C 1214.56 3.44459 1.029 0
M  V30 12263 C 1214.23 4.56976 0.0470243 0
M  V30 12264 C 1215.22 5.14466 -0.749724 0
M  V30 12265 C 1212.91 5.02253 -0.0688634 0
M  V30 12266 C 1214.9 6.15696 -1.64916 0
M  V30 12267 C 1212.59 6.03323 -0.971844 0
M  V30 12268 C 1213.59 6.5992 -1.76055 0
M  V30 12269 O 1213.28 7.59024 -2.64837 0
M  V30 12270 H 1213.01 0.667008 0.109894 0
M  V30 12271 H 1215.56 2.02851 -0.322595 0
M  V30 12272 H 1213.79 3.4078 1.82772 0
M  V30 12273 H 1215.48 3.74128 1.57425 0
M  V30 12274 H 1216.25 4.80342 -0.670588 0
M  V30 12275 H 1212.13 4.57886 0.534889 0
M  V30 12276 H 1215.67 6.59798 -2.26521 0
M  V30 12277 H 1211.57 6.36869 -1.05203 0
M  V30 12278 H 1212.34 7.76508 -2.58801 0
M  V30 12279 N 1215 -0.0618163 1.57479 0
M  V30 12280 C 1216.41 -0.612461 1.76368 0
M  V30 12281 C 1216.76 -1.77381 0.838466 0
M  V30 12282 O 1215.89 -2.16386 0.0250211 0
M  V30 12283 C 1216.48 -1.11782 3.19829 0
M  V30 12284 C 1215.04 -1.61424 3.40028 0
M  V30 12285 C 1214.19 -0.53795 2.72032 0
M  V30 12286 H 1217.14 0.164382 1.57846 0
M  V30 12287 H 1217.16 -1.98634 3.24538 0
M  V30 12288 H 1216.67 -0.272353 3.87143 0
M  V30 12289 H 1214.77 -2.48263 2.77842 0
M  V30 12290 H 1214.88 -1.68431 4.48517 0
M  V30 12291 H 1213.25 -0.985355 2.34868 0
M  V30 12292 H 1214.03 0.297495 3.42009 0
M  V30 12293 N 1216.48 -1.54033 -0.333429 0
M  V30 12294 C 1217.72 -1.71426 -1.0704 0
M  V30 12295 C 1218.05 -0.485496 -1.8886 0
M  V30 12296 O 1217.32 0.500555 -1.89397 0
M  V30 12297 H 1215.9 -0.632034 -0.398173 0
M  V30 12298 H 1218.56 -1.91312 -0.372252 0
M  V30 12299 H 1217.65 -2.58958 -1.74205 0
M  V30 12300 N 1217.95 0.594978 -1.45938 0
M  V30 12301 C 1219.2 1.35093 -1.50314 0
M  V30 12302 C 1219.52 1.94412 -0.151315 0
M  V30 12303 O 1218.79 1.77876 0.820787 0
M  V30 12304 H 1217.37 0.501549 -0.553586 0
M  V30 12305 H 1220.04 0.697735 -1.81983 0
M  V30 12306 H 1219.13 2.16393 -2.24901 0
M  V30 12307 N 1219.43 1.33438 0.838571 0
M  V30 12308 C 1220.66 1.28097 1.63113 0
M  V30 12309 C 1221.08 -0.145197 1.87539 0
M  V30 12310 O 1220.44 -1.10191 1.43971 0
M  V30 12311 C 1220.49 2.06201 2.95827 0
M  V30 12312 O 1219.59 1.42082 3.87152 0
M  V30 12313 H 1218.93 0.440685 0.496681 0
M  V30 12314 H 1221.46 1.76004 1.04325 0
M  V30 12315 H 1221.47 2.16977 3.45521 0
M  V30 12316 H 1220.15 3.099 2.77371 0
M  V30 12317 H 1218.73 1.39953 3.45641 0
M  V30 12318 N 1220.91 -1.05686 1.16912 0
M  V30 12319 C 1222.14 -1.82018 0.977392 0
M  V30 12320 C 1222.55 -1.83072 -0.477636 0
M  V30 12321 O 1221.89 -1.25296 -1.34338 0
M  V30 12322 C 1221.95 -3.29592 1.4356 0
M  V30 12323 C 1221.62 -3.5223 2.91175 0
M  V30 12324 C 1222.61 -3.44767 3.89142 0
M  V30 12325 C 1220.3 -3.79353 3.29236 0
M  V30 12326 C 1222.29 -3.64104 5.2317 0
M  V30 12327 C 1219.98 -3.98339 4.63432 0
M  V30 12328 C 1220.98 -3.90713 5.60207 0
M  V30 12329 O 1220.67 -4.09175 6.91976 0
M  V30 12330 H 1220.4 -0.580578 0.346273 0
M  V30 12331 H 1222.95 -1.34199 1.55498 0
M  V30 12332 H 1221.18 -3.78302 0.80153 0
M  V30 12333 H 1222.87 -3.87435 1.21032 0
M  V30 12334 H 1223.64 -3.23796 3.61083 0
M  V30 12335 H 1219.52 -3.84395 2.54482 0
M  V30 12336 H 1223.06 -3.58068 5.98693 0
M  V30 12337 H 1218.96 -4.18801 4.91198 0
M  V30 12338 H 1219.73 -4.26429 6.98642 0
M  V30 12339 N 1222.39 -0.968567 -1.24324 0
M  V30 12340 C 1223.67 -0.547774 -1.87773 0
M  V30 12341 C 1224.05 0.975107 -1.87229 0
M  V30 12342 O 1223.39 1.84683 -1.34553 0
M  V30 12343 C 1223.6 -1.1403 -3.29846 0
M  V30 12344 C 1224.95 -1.22572 -4.06523 0
M  V30 12345 O 1225.98 -1.09287 -3.3902 0
M  V30 12346 O 1224.83 -1.43579 -5.27302 0
M  V30 12347 H 1221.93 -0.182771 -0.806551 0
M  V30 12348 H 1224.47 -1.06289 -1.3229 0
M  V30 12349 H 1223.25 -2.18303 -3.24745 0
M  V30 12350 H 1222.87 -0.609275 -3.92904 0
M  V30 12351 N 1223.87 1.39211 -0.738786 0
M  V30 12352 C 1225.28 1.83237 -0.357916 0
M  V30 12353 C 1225.63 1.61698 1.11123 0
M  V30 12354 O 1224.75 1.11017 1.85753 0
M  V30 12355 C 1225.35 3.32645 -0.64285 0
M  V30 12356 C 1223.91 3.75076 -0.315432 0
M  V30 12357 C 1223.05 2.62166 -0.903556 0
M  V30 12358 H 1226.01 1.2815 -0.936127 0
M  V30 12359 H 1226.03 3.80407 0.0840812 0
M  V30 12360 H 1225.54 3.4829 -1.71218 0
M  V30 12361 H 1223.64 3.65017 0.747907 0
M  V30 12362 H 1223.75 4.72363 -0.800638 0
M  V30 12363 H 1222.12 2.52554 -0.329927 0
M  V30 12364 H 1222.9 2.80616 -1.97761 0
M  V30 12365 N 1225.34 0.486708 1.49896 0
M  V30 12366 C 1226.76 0.141788 1.58969 0
M  V30 12367 C 1226.96 -1.35279 1.49338 0
M  V30 12368 O 1226.02 -2.1275 1.35992 0
M  V30 12369 C 1227.33 0.70588 2.92297 0
M  V30 12370 C 1228.88 0.670704 3.0573 0
M  V30 12371 C 1229.35 1.21261 4.41656 0
M  V30 12372 N 1230.84 1.17269 4.4811 0
M  V30 12373 C 1231.58 1.56233 5.51705 0
M  V30 12374 N 1231.07 2.02721 6.62477 0
M  V30 12375 N 1232.87 1.47738 5.42337 0
M  V30 12376 H 1225.02 1.45858 1.544 0
M  V30 12377 H 1227.28 0.604137 0.730563 0
M  V30 12378 H 1226.99 1.7535 3.04869 0
M  V30 12379 H 1226.86 0.158215 3.76868 0
M  V30 12380 H 1229.25 -0.368041 2.92796 0
M  V30 12381 H 1229.33 1.25535 2.22878 0
M  V30 12382 H 1228.97 2.25006 4.5534 0
M  V30 12383 H 1228.9 0.604031 5.23124 0
M  V30 12384 H 1231.39 0.831905 3.6863 0
M  V30 12385 H 1231.71 2.3056 7.37606 0
M  V30 12386 H 1230.05 2.06686 6.63556 0
M  V30 12387 H 1233.24 1.11249 4.54688 0
M  V30 12388 H 1233.42 1.78429 6.2295 0
M  V30 12389 N 1226.82 -1.56058 0.219941 0
M  V30 12390 C 1227.77 -2.21585 -0.707321 0
M  V30 12391 C 1228.77 -1.19473 -1.20094 0
M  V30 12392 O 1229.97 -1.37557 -1.16095 0
M  V30 12393 H 1226.35 -0.710447 -0.246515 0
M  V30 12394 H 1228.32 -2.98111 -0.131214 0
M  V30 12395 C 1227.07 -2.90841 -1.90544 0
M  V30 12396 H 1226.39 -3.6917 -1.53472 0
M  V30 12397 H 1227.83 -3.40092 -2.53206 0
M  V30 12398 C 1226.29 -1.93223 -2.75983 0
M  V30 12399 O 1226.82 -1.44815 -3.74689 0
M  V30 12400 N 1225.02 -1.60907 -2.41986 0
M  V30 12401 H 1224.57 -2.00467 -1.61774 0
M  V30 12402 H 1224.53 -0.958534 -2.99432 0
M  V30 12403 N 1228.3 0.053464 -1.57509 0
M  V30 12404 C 1229.25 1.08014 -2.05999 0
M  V30 12405 C 1230.24 1.38958 -0.968862 0
M  V30 12406 O 1231.45 1.3815 -1.15389 0
M  V30 12407 H 1227.82 0.36575 -0.657062 0
M  V30 12408 H 1229.8 0.645169 -2.91342 0
M  V30 12409 C 1228.54 2.38004 -2.53475 0
M  V30 12410 H 1227.87 2.15048 -3.37038 0
M  V30 12411 H 1229.31 3.08244 -2.91138 0
M  V30 12412 C 1227.77 3.05259 -1.42543 0
M  V30 12413 O 1228.3 3.94097 -0.777832 0
M  V30 12414 N 1226.5 2.66182 -1.16599 0
M  V30 12415 H 1226.05 1.94027 -1.69444 0
M  V30 12416 H 1226.01 3.11503 -0.42585 0
M  V30 12417 N 1229.78 1.54207 0.325255 0
M  V30 12418 C 1231 1.7661 1.08736 0
M  V30 12419 C 1231.43 0.512449 1.80985 0
M  V30 12420 O 1230.79 -0.535913 1.73198 0
M  V30 12421 C 1230.84 2.95797 2.06243 0
M  V30 12422 O 1229.94 2.67225 3.14109 0
M  V30 12423 H 1229.28 0.585282 0.313593 0
M  V30 12424 H 1231.81 2.01225 0.370066 0
M  V30 12425 H 1231.82 3.23097 2.49143 0
M  V30 12426 H 1230.5 3.86712 1.53058 0
M  V30 12427 H 1229.07 2.50869 2.75897 0
M  V30 12428 N 1231.26 -0.58723 1.46251 0
M  V30 12429 C 1232.67 -1.16933 1.45546 0
M  V30 12430 C 1233.02 -1.9524 0.193879 0
M  V30 12431 O 1232.14 -2.04652 -0.70332 0
M  V30 12432 C 1232.74 -2.12723 2.63693 0
M  V30 12433 C 1231.3 -2.66267 2.66043 0
M  V30 12434 C 1230.45 -1.42051 2.38153 0
M  V30 12435 H 1233.4 -0.375411 1.54196 0
M  V30 12436 H 1233.42 -2.96111 2.38953 0
M  V30 12437 H 1232.93 -1.55703 3.55497 0
M  V30 12438 H 1231.03 -3.2717 1.783 0
M  V30 12439 H 1231.14 -3.0931 3.65874 0
M  V30 12440 H 1229.51 -1.71707 1.88119 0
M  V30 12441 H 1230.29 -0.868675 3.32128 0
M  V30 12442 N 1232.74 -1.33881 -0.831482 0
M  V30 12443 C 1233.97 -1.28625 -1.61676 0
M  V30 12444 C 1234.37 0.143588 -1.88654 0
M  V30 12445 O 1233.72 1.09847 -1.47239 0
M  V30 12446 C 1233.78 -2.00022 -2.98716 0
M  V30 12447 C 1233.44 -3.49309 -2.94674 0
M  V30 12448 C 1234.44 -4.44375 -2.69864 0
M  V30 12449 C 1232.12 -3.91596 -3.14576 0
M  V30 12450 C 1234.12 -5.79703 -2.64996 0
M  V30 12451 C 1231.81 -5.27026 -3.09333 0
M  V30 12452 C 1232.8 -6.20892 -2.84575 0
M  V30 12453 O 1232.49 -7.53841 -2.79248 0
M  V30 12454 H 1232.22 -0.444235 -0.50954 0
M  V30 12455 H 1234.78 -1.76933 -1.04326 0
M  V30 12456 H 1233.01 -1.46316 -3.57951 0
M  V30 12457 H 1234.7 -1.88168 -3.59649 0
M  V30 12458 H 1235.46 -4.13027 -2.54231 0
M  V30 12459 H 1231.34 -3.18938 -3.32865 0
M  V30 12460 H 1234.89 -6.5294 -2.45591 0
M  V30 12461 H 1230.78 -5.57996 -3.24516 0
M  V30 12462 H 1231.55 -7.63476 -2.95037 0
M  V30 12463 N 1234.21 1.05064 -1.1747 0
M  V30 12464 C 1235.12 2.16346 -0.907286 0
M  V30 12465 C 1236.14 1.7355 0.125013 0
M  V30 12466 O 1237.32 2.01326 -0.0545551 0
M  V30 12467 C 1234.38 3.44077 -0.425681 0
M  V30 12468 C 1233.44 4.01311 -1.52473 0
M  V30 12469 C 1232.67 5.22946 -1.06601 0
M  V30 12470 O 1232.9 5.70345 0.0793329 0
M  V30 12471 O 1231.83 5.72454 -1.85958 0
M  V30 12472 H 1235.66 2.41754 -1.83817 0
M  V30 12473 H 1233.24 1.14834 -0.955693 0
M  V30 12474 H 1235.12 4.21078 -0.164689 0
M  V30 12475 H 1233.8 3.20166 0.477037 0
M  V30 12476 H 1232.71 3.25744 -1.83961 0
M  V30 12477 H 1234.04 4.29543 -2.4032 0
M  V30 12478 N 1235.69 0.975146 1.23809 0
M  V30 12479 C 1236.94 0.636678 1.91388 0
M  V30 12480 C 1237.25 -0.832876 1.76982 0
M  V30 12481 O 1238.46 -1.28218 2.39316 0
M  V30 12482 C 1236.92 1.08813 3.43057 0
M  V30 12483 C 1236.52 2.58165 3.66135 0
M  V30 12484 C 1238.27 0.823154 4.16443 0
M  V30 12485 C 1236.17 2.97004 5.11412 0
M  V30 12486 H 1235.1 0.234424 0.716632 0
M  V30 12487 H 1237.76 1.18235 1.40331 0
M  V30 12488 H 1236.14 0.470709 3.93192 0
M  V30 12489 H 1237.31 3.25101 3.26567 0
M  V30 12490 H 1235.63 2.82353 3.06049 0
M  V30 12491 H 1238.22 1.08925 5.23488 0
M  V30 12492 H 1238.57 -0.240705 4.15604 0
M  V30 12493 H 1239.1 1.4019 3.72279 0
M  V30 12494 H 1235.84 4.02492 5.17378 0
M  V30 12495 H 1235.36 2.34759 5.51949 0
M  V30 12496 H 1237.04 2.8732 5.79704 0
M  V30 12497 N 1237.17 -1.38817 0.746158 0
M  V30 12498 C 1238.08 -2.34316 0.115386 0
M  V30 12499 C 1239.1 -1.58892 -0.709179 0
M  V30 12500 O 1240.27 -1.91126 -0.635059 0
M  V30 12501 C 1237.34 -3.37977 -0.772821 0
M  V30 12502 C 1236.4 -4.2925 0.0652679 0
M  V30 12503 C 1235.63 -5.2796 -0.78064 0
M  V30 12504 O 1235.85 -5.33474 -2.01896 0
M  V30 12505 O 1234.79 -6.01556 -0.20338 0
M  V30 12506 H 1238.61 -2.89937 0.903887 0
M  V30 12507 H 1236.2 -1.40536 0.506958 0
M  V30 12508 H 1238.08 -4.01468 -1.28068 0
M  V30 12509 H 1236.76 -2.84723 -1.53994 0
M  V30 12510 H 1235.66 -3.68945 0.61891 0
M  V30 12511 H 1237 -4.85739 0.794871 0
M  V30 12512 N 1238.65 -0.49465 -1.49636 0
M  V30 12513 C 1239.6 0.300929 -2.30645 0
M  V30 12514 C 1240.59 0.968687 -1.38971 0
M  V30 12515 O 1241.8 0.897101 -1.56052 0
M  V30 12516 H 1238.17 0.1159 -0.743015 0
M  V30 12517 H 1240.14 -0.402387 -2.95674 0
M  V30 12518 C 1238.89 1.35638 -3.20153 0
M  V30 12519 H 1238.21 0.851946 -3.90617 0
M  V30 12520 H 1239.65 1.88515 -3.79787 0
M  V30 12521 C 1238.11 2.37112 -2.39331 0
M  V30 12522 O 1238.64 3.42867 -2.09298 0
M  V30 12523 N 1236.85 2.09421 -2.01473 0
M  V30 12524 H 1236.4 1.23441 -2.26097 0
M  V30 12525 H 1236.35 2.77545 -1.47703 0
M  V30 12526 N 1240.13 1.55939 -0.228214 0
M  V30 12527 C 1241.37 1.98084 0.400884 0
M  V30 12528 C 1241.69 1.11727 1.59819 0
M  V30 12529 O 1240.96 0.195794 1.94919 0
M  V30 12530 H 1239.54 0.731558 0.151102 0
M  V30 12531 H 1242.21 1.92211 -0.322659 0
M  V30 12532 H 1241.3 3.03617 0.722706 0
M  V30 12533 N 1241.6 -0.0451101 1.57535 0
M  V30 12534 C 1242.85 -0.740209 1.88809 0
M  V30 12535 C 1243.18 -1.75854 0.823956 0
M  V30 12536 O 1242.46 -1.93817 -0.16286 0
M  V30 12537 C 1242.74 -1.42424 3.30737 0
M  V30 12538 C 1242.59 -0.42052 4.4783 0
M  V30 12539 C 1243.91 -2.36241 3.7132 0
M  V30 12540 H 1241.03 -0.267628 0.686691 0
M  V30 12541 H 1243.67 -0.00309149 1.9 0
M  V30 12542 H 1241.82 -2.05254 3.29853 0
M  V30 12543 H 1243.5 0.204625 4.60846 0
M  V30 12544 H 1241.74 0.261739 4.3301 0
M  V30 12545 H 1242.41 -0.937298 5.43984 0
M  V30 12546 H 1244.89 -1.83468 3.73468 0
M  V30 12547 H 1243.76 -2.81091 4.71465 0
M  V30 12548 H 1244.02 -3.2222 3.02699 0
M  V30 12549 N 1243.08 -1.54377 -0.317073 0
M  V30 12550 C 1244.33 -1.73149 -1.05581 0
M  V30 12551 C 1244.66 -0.507176 -1.8746 0
M  V30 12552 O 1243.94 0.495837 -1.88074 0
M  V30 12553 C 1244.22 -3.01098 -1.97515 0
M  V30 12554 C 1244.07 -4.33794 -1.18922 0
M  V30 12555 C 1245.39 -3.24831 -2.9694 0
M  V30 12556 H 1242.51 -0.630011 -0.382434 0
M  V30 12557 H 1245.15 -1.87079 -0.331873 0
M  V30 12558 H 1243.3 -2.89352 -2.59244 0
M  V30 12559 H 1244.97 -4.57433 -0.596039 0
M  V30 12560 H 1243.22 -4.31005 -0.491612 0
M  V30 12561 H 1243.89 -5.19554 -1.86462 0
M  V30 12562 H 1246.36 -3.3608 -2.45335 0
M  V30 12563 H 1245.24 -4.15702 -3.58445 0
M  V30 12564 H 1245.5 -2.42365 -3.69745 0
M  V30 12565 N 1244.56 0.579466 -1.4656 0
M  V30 12566 C 1245.81 1.33738 -1.5325 0
M  V30 12567 C 1246.16 1.91527 -0.183045 0
M  V30 12568 O 1245.45 1.73698 0.80867 0
M  V30 12569 C 1245.65 2.48417 -2.56951 0
M  V30 12570 C 1245.48 2.01862 -4.01848 0
M  V30 12571 C 1244.25 1.86729 -4.69532 0
M  V30 12572 C 1246.45 1.57633 -4.89547 0
M  V30 12573 N 1244.43 1.34279 -5.99034 0
M  V30 12574 C 1245.8 1.16797 -6.08899 0
M  V30 12575 C 1247.85 1.45481 -4.76172 0
M  V30 12576 C 1246.56 0.650182 -7.16355 0
M  V30 12577 C 1248.58 0.951049 -5.83703 0
M  V30 12578 C 1247.94 0.552488 -7.0223 0
M  V30 12579 H 1244.04 0.482241 -0.615603 0
M  V30 12580 H 1246.63 0.659411 -1.83193 0
M  V30 12581 H 1244.8 3.13773 -2.28912 0
M  V30 12582 H 1246.53 3.15374 -2.53616 0
M  V30 12583 H 1243.29 2.08773 -4.25101 0
M  V30 12584 H 1243.71 1.10207 -6.6797 0
M  V30 12585 H 1248.35 1.74912 -3.84923 0
M  V30 12586 H 1246.07 0.343456 -8.0737 0
M  V30 12587 H 1249.66 0.860884 -5.75396 0
M  V30 12588 H 1248.54 0.168703 -7.84019 0
M  V30 12589 N 1246.04 1.3432 0.824371 0
M  V30 12590 C 1247.28 1.26783 1.58284 0
M  V30 12591 C 1247.62 -0.162282 1.93521 0
M  V30 12592 O 1246.89 -1.1073 1.59903 0
M  V30 12593 C 1247.18 2.15725 2.88331 0
M  V30 12594 C 1247.03 3.67266 2.59684 0
M  V30 12595 C 1248.35 2.04141 3.8989 0
M  V30 12596 H 1245.47 0.461893 0.574303 0
M  V30 12597 H 1248.11 1.64558 0.949769 0
M  V30 12598 H 1246.26 1.83639 3.42358 0
M  V30 12599 H 1247.93 4.09711 2.11978 0
M  V30 12600 H 1246.17 3.88426 1.93151 0
M  V30 12601 H 1246.84 4.24863 3.52414 0
M  V30 12602 H 1249.32 2.3231 3.45212 0
M  V30 12603 H 1248.2 2.68601 4.7869 0
M  V30 12604 H 1248.46 1.01795 4.30221 0
M  V30 12605 N 1247.52 -1.0444 1.18026 0
M  V30 12606 C 1248.74 -1.81772 0.998684 0
M  V30 12607 C 1249.17 -1.82682 -0.448225 0
M  V30 12608 O 1248.52 -1.24136 -1.32136 0
M  V30 12609 C 1248.57 -3.2542 1.55352 0
M  V30 12610 O 1247.68 -4.05103 0.772351 0
M  V30 12611 H 1247.02 -0.561731 0.354054 0
M  V30 12612 H 1249.55 -1.31557 1.56697 0
M  V30 12613 H 1249.56 -3.76206 1.57903 0
M  V30 12614 H 1248.23 -3.24073 2.60672 0
M  V30 12615 H 1246.81 -3.63798 0.818852 0
M  V30 12616 N 1248.99 -0.981699 -1.2329 0
M  V30 12617 C 1250.24 -0.651302 -1.9174 0
M  V30 12618 C 1250.57 0.815318 -1.76587 0
M  V30 12619 O 1249.82 1.60377 -1.1215 0
M  V30 12620 C 1250.12 -0.989244 -3.43437 0
M  V30 12621 C 1249.79 -2.44629 -3.78771 0
M  V30 12622 C 1248.45 -2.84449 -3.88127 0
M  V30 12623 C 1250.8 -3.39123 -3.95784 0
M  V30 12624 C 1248.13 -4.17775 -4.11923 0
M  V30 12625 C 1250.48 -4.72095 -4.21081 0
M  V30 12626 C 1249.15 -5.11672 -4.28659 0
M  V30 12627 H 1248.42 -0.238328 -0.701627 0
M  V30 12628 H 1251.06 -1.2358 -1.46288 0
M  V30 12629 H 1249.37 -0.322677 -3.90469 0
M  V30 12630 H 1251.07 -0.711796 -3.94632 0
M  V30 12631 H 1247.66 -2.12759 -3.72064 0
M  V30 12632 H 1251.84 -3.09536 -3.87945 0
M  V30 12633 H 1247.1 -4.48043 -4.16013 0
M  V30 12634 H 1251.27 -5.45271 -4.33189 0
M  V30 12635 H 1248.9 -6.15003 -4.46851 0
M  V30 12636 N 1250.47 1.3842 -0.753509 0
M  V30 12637 C 1251.89 1.53668 -0.431095 0
M  V30 12638 C 1252.09 1.71626 1.05578 0
M  V30 12639 O 1251.14 1.72723 1.84182 0
M  V30 12640 C 1252.46 2.74381 -1.23027 0
M  V30 12641 C 1254.01 2.8823 -1.22034 0
M  V30 12642 C 1254.48 4.11904 -2.00248 0
M  V30 12643 N 1255.97 4.18981 -1.97508 0
M  V30 12644 C 1256.71 5.13667 -2.5482 0
M  V30 12645 N 1256.2 6.14027 -3.20846 0
M  V30 12646 N 1258 5.06017 -2.44751 0
M  V30 12647 H 1250.15 1.25012 -1.71714 0
M  V30 12648 H 1252.41 0.607296 -0.727939 0
M  V30 12649 H 1252.12 2.67515 -2.28317 0
M  V30 12650 H 1251.99 3.67565 -0.847098 0
M  V30 12651 H 1254.38 2.94578 -0.175502 0
M  V30 12652 H 1254.46 1.96057 -1.64303 0
M  V30 12653 H 1254.1 4.06318 -3.04742 0
M  V30 12654 H 1254.03 5.03157 -1.55373 0
M  V30 12655 H 1256.52 3.47104 -1.49423 0
M  V30 12656 H 1256.84 6.82771 -3.61999 0
M  V30 12657 H 1255.18 6.1436 -3.24941 0
M  V30 12658 H 1258.37 4.26552 -1.92797 0
M  V30 12659 H 1258.54 5.7963 -2.89713 0
M  V30 12660 N 1251.95 0.502579 1.49372 0
M  V30 12661 C 1253.2 -0.0412993 2.02058 0
M  V30 12662 C 1253.52 -1.37338 1.38431 0
M  V30 12663 O 1252.79 -1.88305 0.540175 0
M  V30 12664 H 1251.37 -0.0182522 0.746777 0
M  V30 12665 H 1254.03 0.660179 1.83378 0
M  V30 12666 H 1253.13 -0.169812 3.11638 0
M  V30 12667 N 1253.43 -1.55816 0.23648 0
M  V30 12668 C 1254.39 -2.1967 -0.654041 0
M  V30 12669 C 1255.39 -1.1629 -1.11056 0
M  V30 12670 O 1256.58 -1.41435 -1.01695 0
M  V30 12671 C 1253.71 -2.83196 -1.89771 0
M  V30 12672 H 1254.91 -2.99743 -0.0970911 0
M  V30 12673 H 1252.46 -1.56295 -0.013098 0
M  V30 12674 H 1253.19 -2.07033 -2.49616 0
M  V30 12675 H 1252.98 -3.58915 -1.57868 0
M  V30 12676 H 1254.47 -3.32095 -2.53184 0
M  V30 12677 N 1254.91 0.036755 -1.57557 0
M  V30 12678 C 1256.18 0.764087 -1.80059 0
M  V30 12679 C 1256.56 1.93983 -0.83269 0
M  V30 12680 O 1255.91 2.28148 0.126815 0
M  V30 12681 C 1256.12 1.20433 -3.27562 0
M  V30 12682 C 1257.47 1.6234 -3.9234 0
M  V30 12683 O 1258.49 1.29911 -3.31665 0
M  V30 12684 O 1257.35 2.22504 -4.99154 0
M  V30 12685 H 1254.45 0.368866 -0.74018 0
M  V30 12686 H 1256.99 0.0141254 -1.69694 0
M  V30 12687 H 1255.76 0.364646 -3.89597 0
M  V30 12688 H 1255.39 2.01454 -3.42786 0
M  V30 12689 N 1256.39 1.54543 0.308881 0
M  V30 12690 C 1257.62 1.77174 1.06268 0
M  V30 12691 C 1258.02 0.527461 1.81699 0
M  V30 12692 O 1257.37 -0.512027 1.7642 0
M  V30 12693 C 1257.43 2.92115 2.09545 0
M  V30 12694 C 1257.09 4.30492 1.5338 0
M  V30 12695 C 1258.09 5.1081 0.967923 0
M  V30 12696 C 1255.77 4.77074 1.5718 0
M  V30 12697 C 1257.77 6.35827 0.447517 0
M  V30 12698 C 1255.46 6.02055 1.04753 0
M  V30 12699 C 1256.45 6.81266 0.486345 0
M  V30 12700 O 1256.14 8.03894 -0.0300055 0
M  V30 12701 H 1255.87 0.594773 0.321281 0
M  V30 12702 H 1258.43 2.02289 0.356136 0
M  V30 12703 H 1256.66 2.62606 2.83857 0
M  V30 12704 H 1258.35 3.02394 2.70763 0
M  V30 12705 H 1259.11 4.7597 0.931523 0
M  V30 12706 H 1254.99 4.15453 1.998 0
M  V30 12707 H 1258.54 6.97599 0.00884212 0
M  V30 12708 H 1254.43 6.36383 1.08105 0
M  V30 12709 H 1255.2 8.18457 0.0840381 0
M  V30 12710 N 1257.86 -0.571685 1.46866 0
M  V30 12711 C 1259.09 -1.36008 1.56578 0
M  V30 12712 C 1259.51 -1.86909 0.211326 0
M  V30 12713 O 1258.87 -1.62179 -0.810421 0
M  V30 12714 C 1258.92 -2.51598 2.58323 0
M  V30 12715 O 1258.02 -3.53383 2.1259 0
M  V30 12716 H 1257.36 -0.404593 0.526498 0
M  V30 12717 H 1259.89 -0.692357 1.92529 0
M  V30 12718 H 1259.9 -2.98366 2.78283 0
M  V30 12719 H 1258.58 -2.13904 3.56676 0
M  V30 12720 H 1257.16 -3.13019 2.02666 0
M  V30 12721 N 1259.34 -1.34755 -0.817236 0
M  V30 12722 C 1260.27 -1.29452 -1.94331 0
M  V30 12723 C 1261.25 -0.170902 -1.69239 0
M  V30 12724 O 1262.44 -0.364173 -1.90755 0
M  V30 12725 C 1259.57 -1.05497 -3.30889 0
M  V30 12726 C 1258.52 -2.14386 -3.70436 0
M  V30 12727 C 1257.85 -1.75612 -5.05039 0
M  V30 12728 C 1259.15 -3.56265 -3.81933 0
M  V30 12729 H 1260.84 -2.23672 -1.99025 0
M  V30 12730 H 1258.39 -1.07674 -0.956159 0
M  V30 12731 H 1260.34 -1.0043 -4.09257 0
M  V30 12732 H 1259.06 -0.0772059 -3.26509 0
M  V30 12733 H 1257.72 -2.18532 -2.94345 0
M  V30 12734 H 1257.37 -0.764809 -4.97152 0
M  V30 12735 H 1257.07 -2.48495 -5.3247 0
M  V30 12736 H 1258.6 -1.72051 -5.85859 0
M  V30 12737 H 1260.01 -3.545 -4.50558 0
M  V30 12738 H 1258.41 -4.27818 -4.20822 0
M  V30 12739 H 1259.48 -3.93192 -2.83775 0
M  V30 12740 N 1260.82 1.03812 -1.18578 0
M  V30 12741 C 1262.24 1.29271 -0.936011 0
M  V30 12742 C 1262.44 1.97551 0.396965 0
M  V30 12743 O 1261.49 2.25769 1.13069 0
M  V30 12744 C 1262.8 2.1489 -2.1034 0
M  V30 12745 C 1264.35 2.28228 -2.14198 0
M  V30 12746 C 1264.83 3.17214 -3.30362 0
M  V30 12747 N 1266.32 3.24802 -3.30239 0
M  V30 12748 C 1267.05 3.9382 -4.16765 0
M  V30 12749 N 1266.55 4.65147 -5.1343 0
M  V30 12750 N 1268.34 3.90125 -4.04671 0
M  V30 12751 H 1260.49 0.579011 -2.04356 0
M  V30 12752 H 1262.76 0.318021 -0.893066 0
M  V30 12753 H 1262.46 1.72029 -3.06755 0
M  V30 12754 H 1262.34 3.15576 -2.06619 0
M  V30 12755 H 1264.72 2.70324 -1.18359 0
M  V30 12756 H 1264.8 1.27124 -2.21976 0
M  V30 12757 H 1264.45 2.75829 -4.26475 0
M  V30 12758 H 1264.38 4.18356 -3.19821 0
M  V30 12759 H 1266.87 2.73994 -2.60261 0
M  V30 12760 H 1267.18 5.15414 -5.7582 0
M  V30 12761 H 1265.53 4.64043 -5.17387 0
M  V30 12762 H 1268.72 3.33536 -3.28438 0
M  V30 12763 H 1268.89 4.43641 -4.7232 0
M  V30 12764 N 1262.3 0.988223 1.22768 0
M  V30 12765 C 1263.26 0.539813 2.22752 0
M  V30 12766 C 1264.26 -0.374796 1.56371 0
M  V30 12767 O 1265.45 -0.167402 1.73394 0
M  V30 12768 C 1262.58 -0.215461 3.40218 0
M  V30 12769 H 1263.78 1.42397 2.63938 0
M  V30 12770 H 1261.33 0.774933 1.35737 0
M  V30 12771 H 1262.06 -1.11581 3.045 0
M  V30 12772 H 1261.85 0.441173 3.8961 0
M  V30 12773 H 1263.34 -0.517517 4.14381 0
M  V30 12774 N 1263.78 -1.38018 0.760839 0
M  V30 12775 C 1265.02 -2.00248 0.320716 0
M  V30 12776 C 1265.35 -1.60259 -1.09684 0
M  V30 12777 O 1264.63 -0.843567 -1.75255 0
M  V30 12778 C 1264.91 -3.57254 0.451849 0
M  V30 12779 C 1264.77 -4.07185 1.91103 0
M  V30 12780 C 1266.08 -4.39843 -0.150439 0
M  V30 12781 H 1263.2 -0.727491 0.118007 0
M  V30 12782 H 1265.85 -1.63855 0.961842 0
M  V30 12783 H 1264 -3.88386 -0.0939672 0
M  V30 12784 H 1265.67 -3.86665 2.51571 0
M  V30 12785 H 1263.91 -3.59782 2.42362 0
M  V30 12786 H 1264.58 -5.16262 1.9539 0
M  V30 12787 H 1267.06 -4.14905 0.315145 0
M  V30 12788 H 1265.93 -5.48893 -0.0284853 0
M  V30 12789 H 1266.19 -4.24367 -1.23956 0
M  V30 12790 N 1265.25 -0.510493 -1.49103 0
M  V30 12791 C 1266.67 -0.167061 -1.58723 0
M  V30 12792 C 1266.87 1.32886 -1.51471 0
M  V30 12793 O 1265.93 2.10559 -1.39359 0
M  V30 12794 C 1267.24 -0.752293 -2.91137 0
M  V30 12795 C 1268.79 -0.719258 -3.04624 0
M  V30 12796 C 1269.26 -1.28272 -4.39671 0
M  V30 12797 N 1270.75 -1.24383 -4.46187 0
M  V30 12798 C 1271.49 -1.6499 -5.4915 0
M  V30 12799 N 1270.98 -2.13235 -6.59168 0
M  V30 12800 N 1272.78 -1.56348 -5.39918 0
M  V30 12801 H 1264.93 -1.48296 -1.5206 0
M  V30 12802 H 1267.19 -0.615683 -0.72086 0
M  V30 12803 H 1266.9 -1.80178 -3.02041 0
M  V30 12804 H 1266.77 -0.218152 -3.76569 0
M  V30 12805 H 1269.16 0.321413 -2.93344 0
M  V30 12806 H 1269.24 -1.29065 -2.20852 0
M  V30 12807 H 1268.88 -2.32222 -4.51703 0
M  V30 12808 H 1268.81 -0.687179 -5.22097 0
M  V30 12809 H 1271.3 -0.890446 -3.67259 0
M  V30 12810 H 1271.62 -2.42266 -7.33844 0
M  V30 12811 H 1269.96 -2.17216 -6.60183 0
M  V30 12812 H 1273.15 -1.18469 -4.52861 0
M  V30 12813 H 1273.33 -1.88317 -6.20033 0
M  V30 12814 N 1266.73 1.55688 -0.24474 0
M  V30 12815 C 1267.66 2.17317 0.696311 0
M  V30 12816 C 1268.64 1.12456 1.17441 0
M  V30 12817 O 1269.83 1.40832 1.25294 0
M  V30 12818 C 1266.95 2.77211 1.94606 0
M  V30 12819 C 1266 3.95107 1.60602 0
M  V30 12820 S 1266.83 5.30765 0.710525 0
M  V30 12821 C 1267.99 5.94111 1.96933 0
M  V30 12822 H 1268.22 2.96799 0.172566 0
M  V30 12823 H 1265.75 1.54372 -0.0292155 0
M  V30 12824 H 1267.71 3.12355 2.66354 0
M  V30 12825 H 1266.37 1.9768 2.44093 0
M  V30 12826 H 1265.57 4.35598 2.53517 0
M  V30 12827 H 1265.17 3.61229 0.968986 0
M  V30 12828 H 1267.46 6.11496 2.91682 0
M  V30 12829 H 1268.4 6.89602 1.60794 0
M  V30 12830 H 1268.81 5.23161 2.12043 0
M  V30 12831 N 1268.21 -0.0283989 1.57574 0
M  V30 12832 C 1269.16 -1.02881 2.06601 0
M  V30 12833 C 1270.13 -1.35879 0.955308 0
M  V30 12834 O 1271.31 -1.46205 1.22592 0
M  V30 12835 C 1268.45 -2.32447 2.55073 0
M  V30 12836 C 1267.56 -2.05602 3.79937 0
M  V30 12837 C 1266.7 -3.29043 4.17018 0
M  V30 12838 C 1265.74 -2.97755 5.34797 0
M  V30 12839 N 1264.88 -4.1365 5.67308 0
M  V30 12840 H 1269.72 -0.603772 2.91819 0
M  V30 12841 H 1267.25 -0.286503 1.44283 0
M  V30 12842 H 1269.21 -3.08152 2.81244 0
M  V30 12843 H 1267.84 -2.72672 1.72771 0
M  V30 12844 H 1266.89 -1.2039 3.60847 0
M  V30 12845 H 1268.2 -1.78522 4.65759 0
M  V30 12846 H 1267.36 -4.13115 4.4432 0
M  V30 12847 H 1266.1 -3.59237 3.29849 0
M  V30 12848 H 1265.1 -2.12085 5.07247 0
M  V30 12849 H 1266.33 -2.68839 6.23621 0
M  V30 12850 H 1264.27 -4.43794 4.83097 0
M  V30 12851 H 1264.19 -3.89996 6.47641 0
M  V30 12852 H 1265.46 -4.98594 5.99186 0
M  V30 12853 N 1269.69 -1.54705 -0.300681 0
M  V30 12854 C 1270.94 -1.73211 -1.03349 0
M  V30 12855 C 1271.25 -0.52518 -1.88418 0
M  V30 12856 O 1272.46 -0.592049 -2.64966 0
M  V30 12857 C 1270.91 -3.06453 -1.88717 0
M  V30 12858 C 1270.52 -4.34625 -1.0865 0
M  V30 12859 C 1272.26 -3.34317 -2.61595 0
M  V30 12860 C 1270.17 -5.58919 -1.93297 0
M  V30 12861 H 1269.1 -0.64556 -0.389574 0
M  V30 12862 H 1271.75 -1.81186 -0.290472 0
M  V30 12863 H 1270.13 -2.92443 -2.67008 0
M  V30 12864 H 1271.31 -4.59471 -0.349707 0
M  V30 12865 H 1269.62 -4.13699 -0.473521 0
M  V30 12866 H 1272.22 -4.2438 -3.25278 0
M  V30 12867 H 1272.56 -2.53207 -3.30442 0
M  V30 12868 H 1273.1 -3.493 -1.90354 0
M  V30 12869 H 1269.83 -6.42697 -1.2892 0
M  V30 12870 H 1269.35 -5.38258 -2.64647 0
M  V30 12871 H 1271.03 -5.96187 -2.51336 0
M  V30 12872 N 1271.17 0.563888 -1.47167 0
M  V30 12873 C 1272.58 0.889156 -1.32537 0
M  V30 12874 C 1272.78 1.99088 -0.310854 0
M  V30 12875 O 1271.84 2.50943 0.27998 0
M  V30 12876 C 1273.15 1.28871 -2.71685 0
M  V30 12877 C 1274.7 1.40051 -2.79919 0
M  V30 12878 C 1275.17 1.83364 -4.19692 0
M  V30 12879 N 1276.67 1.90526 -4.22201 0
M  V30 12880 C 1277.4 2.25355 -5.2726 0
M  V30 12881 N 1276.9 2.58844 -6.42629 0
M  V30 12882 N 1278.69 2.26071 -5.14634 0
M  V30 12883 H 1270.84 -0.163581 -2.11769 0
M  V30 12884 H 1273.1 -0.0105151 -0.947942 0
M  V30 12885 H 1272.81 0.553057 -3.47324 0
M  V30 12886 H 1272.68 2.24629 -3.03021 0
M  V30 12887 H 1275.07 2.12698 -2.04557 0
M  V30 12888 H 1275.15 0.424971 -2.52245 0
M  V30 12889 H 1274.8 1.11289 -4.95557 0
M  V30 12890 H 1274.73 2.81909 -4.44786 0
M  V30 12891 H 1277.22 1.67059 -3.38968 0
M  V30 12892 H 1277.53 2.84427 -7.18555 0
M  V30 12893 H 1275.87 2.56439 -6.4596 0
M  V30 12894 H 1279.07 1.99343 -4.23533 0
M  V30 12895 H 1279.24 2.52885 -5.96618 0
M  V30 12896 N 1272.64 1.35187 0.810078 0
M  V30 12897 C 1274.06 1.25329 1.38381 0
M  V30 12898 C 1274.41 -0.115799 1.95858 0
M  V30 12899 O 1273.53 -1.01663 1.91033 0
M  V30 12900 C 1274.13 2.2693 2.51572 0
M  V30 12901 C 1272.69 2.20824 3.04818 0
M  V30 12902 C 1271.83 2.1283 1.7776 0
M  V30 12903 H 1274.78 1.46366 0.613402 0
M  V30 12904 H 1274.8 1.89375 3.30026 0
M  V30 12905 H 1274.32 3.26563 2.09709 0
M  V30 12906 H 1272.42 1.24589 3.51153 0
M  V30 12907 H 1272.53 3.12637 3.63036 0
M  V30 12908 H 1270.89 1.58752 1.99173 0
M  V30 12909 H 1271.68 3.14318 1.38054 0
M  V30 12910 N 1274.12 -1.03182 1.19127 0
M  V30 12911 C 1275.05 -2.13301 0.94999 0
M  V30 12912 C 1276.03 -1.69707 -0.115577 0
M  V30 12913 O 1277.22 -1.94161 0.0388395 0
M  V30 12914 C 1274.35 -3.43902 0.484637 0
M  V30 12915 C 1273.3 -4.01164 1.4917 0
M  V30 12916 C 1272.63 -5.2735 0.883537 0
M  V30 12917 C 1273.93 -4.36311 2.87107 0
M  V30 12918 H 1275.62 -2.33743 1.87095 0
M  V30 12919 H 1273.17 -1.12332 0.900977 0
M  V30 12920 H 1275.12 -4.20308 0.30315 0
M  V30 12921 H 1273.85 -3.23173 -0.471909 0
M  V30 12922 H 1272.5 -3.26849 1.66028 0
M  V30 12923 H 1272.15 -5.02936 -0.0804712 0
M  V30 12924 H 1271.85 -5.66624 1.55599 0
M  V30 12925 H 1273.38 -6.06425 0.71278 0
M  V30 12926 H 1274.79 -5.03666 2.73848 0
M  V30 12927 H 1273.19 -4.86659 3.51117 0
M  V30 12928 H 1274.26 -3.45743 3.39985 0
M  V30 12929 N 1275.6 -0.99472 -1.22242 0
M  V30 12930 C 1276.85 -0.672596 -1.91322 0
M  V30 12931 C 1277.18 0.793542 -1.77247 0
M  V30 12932 O 1276.45 1.57407 -1.14251 0
M  V30 12933 C 1276.74 -1.08155 -3.43474 0
M  V30 12934 C 1276.59 -2.60638 -3.6659 0
M  V30 12935 C 1277.91 -0.636161 -4.35478 0
M  V30 12936 H 1275.03 -0.24582 -0.694796 0
M  V30 12937 H 1277.67 -1.23857 -1.44082 0
M  V30 12938 H 1275.82 -0.599987 -3.83839 0
M  V30 12939 H 1277.49 -3.16479 -3.35617 0
M  V30 12940 H 1275.74 -3.02624 -3.10808 0
M  V30 12941 H 1276.41 -2.84304 -4.73155 0
M  V30 12942 H 1278.88 -1.04982 -4.02639 0
M  V30 12943 H 1277.76 -0.950584 -5.40606 0
M  V30 12944 H 1278.02 0.4631 -4.39668 0
M  V30 12945 N 1277.08 1.37613 -0.768148 0
M  V30 12946 C 1278.31 2.04052 -0.342111 0
M  V30 12947 C 1278.72 1.57936 1.03449 0
M  V30 12948 O 1278.08 0.758981 1.65969 0
M  V30 12949 C 1278.13 3.5958 -0.372096 0
M  V30 12950 O 1277.85 4.04008 -1.69439 0
M  V30 12951 C 1279.35 4.43251 0.0659884 0
M  V30 12952 H 1276.57 0.655391 -0.143886 0
M  V30 12953 H 1279.12 1.76017 -1.04107 0
M  V30 12954 H 1277.27 3.86399 0.278248 0
M  V30 12955 H 1277.68 4.98511 -1.63054 0
M  V30 12956 H 1279.16 5.52 -0.00614775 0
M  V30 12957 H 1279.64 4.24788 1.11588 0
M  V30 12958 H 1280.24 4.2165 -0.55603 0
M  V30 12959 N 1278.56 0.518393 1.4883 0
M  V30 12960 C 1279.49 -0.287642 2.27388 0
M  V30 12961 C 1280.5 -0.914974 1.34655 0
M  V30 12962 O 1281.69 -0.795373 1.598 0
M  V30 12963 C 1278.79 -1.42149 3.07647 0
M  V30 12964 C 1277.96 -0.898238 4.28078 0
M  V30 12965 C 1277.02 -1.91179 4.90242 0
M  V30 12966 O 1276.05 -1.47337 5.498 0
M  V30 12967 N 1277.25 -3.24331 4.81445 0
M  V30 12968 H 1280.02 0.386047 2.97203 0
M  V30 12969 H 1277.58 0.352002 1.58027 0
M  V30 12970 H 1279.57 -2.09745 3.46106 0
M  V30 12971 H 1278.14 -1.99903 2.40328 0
M  V30 12972 H 1277.36 -0.0466326 3.94172 0
M  V30 12973 H 1278.65 -0.527338 5.0606 0
M  V30 12974 H 1278.04 -3.62627 4.34187 0
M  V30 12975 H 1276.6 -3.87593 5.24037 0
M  V30 12976 O 1280.07 -1.566 0.394809 0
M  V30 12977 H 1280.76 -1.93126 -0.149067 0
M  V30 END ATOM
M  V30 BEGIN BOND
M  V30 END BOND
M  V30 END CTAB
M  END
$$$$
