drugbank_target|P02751 Fibronectin (DB01593; DB06245; DB08888; DB14487; DB14533; DB14548)
 OpenBabel12092119493D

  0  0  0     0  0            999 V3000
M  V30 BEGIN CTAB
M  V30 COUNTS 36232 36700 0 0 0
M  V30 BEGIN ATOM
M  V30 1 H -0.908 1.98254 -0.117106 0
M  V30 2 N 0 1.576 0 0
M  V30 3 C 0.933 2.03868 1.02534 0
M  V30 4 C 1.911 0.928543 1.3348 0
M  V30 5 O 3.095 1.19667 1.45644 0
M  V30 6 C 0.222 2.43627 2.35294 0
M  V30 7 C -0.732 3.65373 2.2001 0
M  V30 8 S 0.101 5.13292 1.52614 0
M  V30 9 C 1.257 5.56322 2.86805 0
M  V30 10 H 1.49 2.90518 0.631377 0
M  V30 11 H -0.977 1.52953 0.210867 0
M  V30 12 H 0.981 2.67203 3.11629 0
M  V30 13 H -0.358 1.57376 2.7183 0
M  V30 14 H -1.165 3.90944 3.18086 0
M  V30 15 H -1.563 3.418 1.51819 0
M  V30 16 H 0.729 5.58782 3.83104 0
M  V30 17 H 1.672 6.56266 2.65933 0
M  V30 18 H 2.08 4.83886 2.90714 0
M  V30 19 N 1.4781 -0.272755 1.55222 0
M  V30 20 C 2.4081 -1.34136 1.91127 0
M  V30 21 C 3.3891 -1.51513 0.773168 0
M  V30 22 O 4.5741 -1.64552 1.03132 0
M  V30 23 C 1.7041 -2.70083 2.1834 0
M  V30 24 C 0.6581 -2.67437 3.34158 0
M  V30 25 C -0.0159 -4.06938 3.46851 0
M  V30 26 C 1.2841 -2.26686 4.70543 0
M  V30 27 H 2.9781 -1.04333 2.80633 0
M  V30 28 H 0.5241 -0.500454 1.35024 0
M  V30 29 H 2.4771 -3.44952 2.42046 0
M  V30 30 H 1.2011 -3.01469 1.25634 0
M  V30 31 H -0.1399 -1.95026 3.1042 0
M  V30 32 H -0.4919 -4.35547 2.51611 0
M  V30 33 H -0.7919 -4.06062 4.2472 0
M  V30 34 H 0.7321 -4.83545 3.72849 0
M  V30 35 H 2.1461 -2.91277 4.93792 0
M  V30 36 H 0.5431 -2.36971 5.5133 0
M  V30 37 H 1.6131 -1.21818 4.69349 0
M  V30 38 N 2.9562 -1.48159 -0.537278 0
M  V30 39 C 4.3722 -1.34118 -0.865129 0
M  V30 40 C 4.5722 -0.346678 -1.98495 0
M  V30 41 O 3.6282 0.234715 -2.51407 0
M  V30 42 C 4.9412 -2.73963 -1.23954 0
M  V30 43 C 6.4892 -2.82397 -1.34984 0
M  V30 44 C 6.9642 -4.22928 -1.75772 0
M  V30 45 N 8.4552 -4.25566 -1.82887 0
M  V30 46 C 9.1902 -5.31235 -2.15817 0
M  V30 47 N 8.6862 -6.47189 -2.47222 0
M  V30 48 N 10.4792 -5.18624 -2.16761 0
M  V30 49 H 2.6302 -2.1144 0.201715 0
M  V30 50 H 4.8932 -0.947598 0.0275949 0
M  V30 51 H 4.5992 -3.48264 -0.490381 0
M  V30 52 H 4.4732 -3.0702 -2.19132 0
M  V30 53 H 6.8602 -2.08356 -2.08978 0
M  V30 54 H 6.9412 -2.5297 -0.379448 0
M  V30 55 H 6.5852 -4.97482 -1.02341 0
M  V30 56 H 6.5152 -4.49794 -2.73848 0
M  V30 57 H 9.0062 -3.41924 -1.60924 0
M  V30 58 H 9.3192 -7.23564 -2.71433 0
M  V30 59 H 7.6642 -6.50476 -2.44757 0
M  V30 60 H 10.8552 -4.27056 -1.91679 0
M  V30 61 H 11.0282 -6.01078 -2.42093 0
M  V30 62 N 4.4343 0.785586 -1.36625 0
M  V30 63 C 5.6823 1.54057 -1.30808 0
M  V30 64 C 6.0033 1.94683 0.111157 0
M  V30 65 O 5.2733 1.65241 1.05224 0
M  V30 66 H 3.8533 0.571354 -0.481211 0
M  V30 67 H 6.5153 0.935821 -1.70963 0
M  V30 68 H 5.6113 2.44637 -1.93801 0
M  V30 69 N 5.9124 1.20967 1.01018 0
M  V30 70 C 7.3234 1.02319 1.56165 0
M  V30 71 C 7.6744 -0.418546 1.91684 0
M  V30 72 O 6.7994 -1.30096 1.72928 0
M  V30 73 C 7.3944 1.85109 2.8376 0
M  V30 74 C 5.9534 1.70809 3.35412 0
M  V30 75 C 5.1004 1.82643 2.08655 0
M  V30 76 H 8.0514 1.35065 0.833255 0
M  V30 77 H 8.0724 1.35827 3.55431 0
M  V30 78 H 7.5844 2.90035 2.57878 0
M  V30 79 H 5.6854 0.685464 3.66241 0
M  V30 80 H 5.7984 2.52467 4.07182 0
M  V30 81 H 4.1624 1.25896 2.21409 0
M  V30 82 H 4.9454 2.89066 1.85191 0
M  V30 83 N 7.3905 -1.2043 1.01659 0
M  V30 84 C 8.6385 -1.89423 0.704522 0
M  V30 85 C 8.9595 -1.79231 -0.768197 0
M  V30 86 O 8.2295 -1.1947 -1.55254 0
M  V30 87 H 6.8095 -0.701178 0.257602 0
M  V30 88 H 9.4715 -1.4626 1.28818 0
M  V30 89 H 8.5675 -2.96052 0.987916 0
M  V30 90 N 8.8686 -0.792821 -1.36206 0
M  V30 91 C 10.2796 -0.429513 -1.81692 0
M  V30 92 C 10.6306 1.04695 -1.65932 0
M  V30 93 O 9.7556 1.81256 -1.18218 0
M  V30 94 C 10.3506 -0.772831 -3.29868 0
M  V30 95 C 8.9096 -0.462307 -3.7355 0
M  V30 96 C 8.0566 -1.00569 -2.5842 0
M  V30 97 H 11.0076 -0.985672 -1.24379 0
M  V30 98 H 11.0286 -0.0651928 -3.80444 0
M  V30 99 H 10.5406 -1.84747 -3.41307 0
M  V30 100 H 8.6416 0.604158 -3.67669 0
M  V30 101 H 8.7546 -0.985299 -4.68859 0
M  V30 102 H 7.1186 -0.428734 -2.51066 0
M  V30 103 H 7.9016 -2.08616 -2.72643 0
M  V30 104 N 10.3467 1.47872 -0.545128 0
M  V30 105 C 11.5947 2.02093 -0.016553 0
M  V30 106 C 11.9157 1.42305 1.3332 0
M  V30 107 O 11.1857 0.593853 1.86682 0
M  V30 108 H 9.7657 0.746993 -0.00313038 0
M  V30 109 H 12.4277 1.81414 -0.712397 0
M  V30 110 H 11.5237 3.11996 0.0805422 0
M  V30 111 N 11.8248 0.280983 1.55075 0
M  V30 112 C 12.7548 -0.597469 2.25727 0
M  V30 113 C 13.7358 -1.15417 1.24952 0
M  V30 114 O 14.9208 -1.18722 1.53684 0
M  V30 115 C 12.0508 -1.7789 2.98283 0
M  V30 116 C 11.0048 -1.35347 4.06036 0
M  V30 117 C 10.3308 -2.61846 4.66198 0
M  V30 118 C 11.6308 -0.499354 5.19907 0
M  V30 119 H 13.3248 -0.00824265 2.99399 0
M  V30 120 H 10.8708 -0.0025244 1.44 0
M  V30 121 H 12.8238 -2.39937 3.46422 0
M  V30 122 H 11.5478 -2.39405 2.22155 0
M  V30 123 H 10.2068 -0.756156 3.58717 0
M  V30 124 H 9.8548 -3.21632 3.86732 0
M  V30 125 H 9.5548 -2.3409 5.38958 0
M  V30 126 H 11.0788 -3.24732 5.1709 0
M  V30 127 H 12.4928 -1.02498 5.64063 0
M  V30 128 H 10.8898 -0.316424 5.99265 0
M  V30 129 H 11.9598 0.480459 4.82514 0
M  V30 130 N 13.3029 -1.57598 0.00835791 0
M  V30 131 C 14.2329 -2.1198 -0.979113 0
M  V30 132 C 15.2139 -1.03091 -1.35301 0
M  V30 133 O 16.3989 -1.30818 -1.43528 0
M  V30 134 C 13.5289 -2.62995 -2.26828 0
M  V30 135 C 12.4829 -3.76485 -2.03576 0
M  V30 136 C 11.8089 -4.13846 -3.38579 0
M  V30 137 C 13.1089 -5.0342 -1.39161 0
M  V30 138 H 14.8029 -2.94738 -0.526281 0
M  V30 139 H 12.3489 -1.41783 -0.251704 0
M  V30 140 H 14.3019 -2.99669 -2.96271 0
M  V30 141 H 13.0259 -1.7737 -2.7424 0
M  V30 142 H 11.6849 -3.40217 -1.36557 0
M  V30 143 H 11.3329 -3.25232 -3.83709 0
M  V30 144 H 11.0329 -4.90312 -3.23834 0
M  V30 145 H 12.5569 -4.53086 -4.09323 0
M  V30 146 H 13.9709 -5.37812 -1.98573 0
M  V30 147 H 12.3679 -5.84746 -1.34878 0
M  V30 148 H 13.4379 -4.83548 -0.361868 0
M  V30 149 N 14.781 0.264519 -1.55364 0
M  V30 150 C 15.711 1.33121 -1.91836 0
M  V30 151 C 16.692 1.51101 -0.781192 0
M  V30 152 O 17.877 1.64003 -1.04003 0
M  V30 153 C 15.007 2.68921 -2.19769 0
M  V30 154 C 13.961 2.65661 -3.35571 0
M  V30 155 C 13.287 4.05093 -3.49004 0
M  V30 156 C 14.587 2.24187 -4.71739 0
M  V30 157 H 16.281 1.02844 -2.81182 0
M  V30 158 H 13.827 0.493286 -1.35287 0
M  V30 159 H 15.78 3.43663 -2.43872 0
M  V30 160 H 14.504 3.00799 -1.27231 0
M  V30 161 H 13.163 1.93377 -3.1145 0
M  V30 162 H 12.811 4.34206 -2.53917 0
M  V30 163 H 12.511 4.03804 -4.26868 0
M  V30 164 H 14.035 4.81561 -3.75408 0
M  V30 165 H 15.449 2.88654 -4.9533 0
M  V30 166 H 13.846 2.34044 -5.52579 0
M  V30 167 H 14.916 1.19327 -4.69988 0
M  V30 168 N 16.2591 1.48442 0.529413 0
M  V30 169 C 17.1891 1.65902 1.64313 0
M  V30 170 C 18.1701 0.507897 1.6234 0
M  V30 171 O 19.3551 0.740503 1.79528 0
M  V30 172 C 16.4851 1.69911 3.02898 0
M  V30 173 C 15.4391 2.8453 3.19729 0
M  V30 174 C 14.7651 2.73629 4.59381 0
M  V30 175 C 16.0651 4.25821 3.02447 0
M  V30 176 H 17.7591 2.5914 1.49955 0
M  V30 177 H 15.3051 1.24709 0.719982 0
M  V30 178 H 17.2581 1.80715 3.80684 0
M  V30 179 H 15.9821 0.732524 3.18279 0
M  V30 180 H 14.6411 2.73283 2.44361 0
M  V30 181 H 14.2891 1.74938 4.71599 0
M  V30 182 H 13.9891 3.50541 4.71588 0
M  V30 183 H 15.5131 2.86401 5.39265 0
M  V30 184 H 16.9271 4.37898 3.70024 0
M  V30 185 H 15.3241 5.03735 3.26146 0
M  V30 186 H 16.3941 4.42244 1.98867 0
M  V30 187 N 17.7372 -0.778329 1.37039 0
M  V30 188 C 18.7002 -1.87301 1.32102 0
M  V30 189 C 19.7002 -1.59198 0.226405 0
M  V30 190 O 20.8902 -1.67403 0.481861 0
M  V30 191 C 18.0222 -3.24309 1.05055 0
M  V30 192 H 19.2152 -1.93093 2.29467 0
M  V30 193 H 16.7682 -0.977358 1.21973 0
M  V30 194 H 17.5032 -3.24196 0.0819373 0
M  V30 195 H 17.2882 -3.46098 1.84279 0
M  V30 196 H 18.7782 -4.04382 1.04234 0
M  V30 197 N 19.2153 -1.21501 -1.00376 0
M  V30 198 C 20.4613 -1.03452 -1.74429 0
M  V30 199 C 20.7943 0.430764 -1.89362 0
M  V30 200 O 20.0693 1.31962 -1.42886 0
M  V30 201 C 20.3523 -1.73375 -3.15615 0
M  V30 202 C 20.2053 -3.27431 -3.08397 0
M  V30 203 C 21.5243 -1.47732 -4.14564 0
M  V30 204 H 18.6433 -0.377226 -0.633143 0
M  V30 205 H 21.2853 -1.49693 -1.17013 0
M  V30 206 H 19.4353 -1.34064 -3.64636 0
M  V30 207 H 21.1073 -3.76119 -2.67081 0
M  V30 208 H 19.3503 -3.5767 -2.45468 0
M  V30 209 H 20.0213 -3.71524 -4.08258 0
M  V30 210 H 22.4973 -1.8186 -3.74254 0
M  V30 211 H 21.3733 -1.99169 -5.11491 0
M  V30 212 H 21.6343 -0.407589 -4.40217 0
M  V30 213 N 20.6934 1.19889 -1.02296 0
M  V30 214 C 21.6254 2.22334 -0.556787 0
M  V30 215 C 22.6384 1.58674 0.364199 0
M  V30 216 O 23.8274 1.77768 0.161533 0
M  V30 217 C 20.9274 3.38257 0.208694 0
M  V30 218 C 20.1004 4.31504 -0.71577 0
M  V30 219 C 19.1594 5.262 0.00325597 0
M  V30 220 O 18.1854 5.65798 -0.621357 0
M  V30 221 N 19.3874 5.66303 1.27599 0
M  V30 222 H 22.1524 2.62957 -1.43784 0
M  V30 223 H 19.7134 1.34495 -0.901261 0
M  V30 224 H 21.7054 3.98616 0.699111 0
M  V30 225 H 20.2754 2.96472 0.991102 0
M  V30 226 H 19.4954 3.69016 -1.38638 0
M  V30 227 H 20.7834 4.9072 -1.34428 0
M  V30 228 H 20.1814 5.36155 1.80429 0
M  V30 229 H 18.7384 6.28942 1.71102 0
M  V30 230 N 22.1715 0.800033 1.35784 0
M  V30 231 C 23.4115 0.382891 2.00782 0
M  V30 232 C 23.7755 -1.02891 1.62103 0
M  V30 233 O 24.9765 -1.54771 2.19771 0
M  V30 234 C 23.2475 0.553299 3.53091 0
M  V30 235 S 24.8065 0.225608 4.3822 0
M  V30 236 H 21.6245 0.145737 0.695904 0
M  V30 237 H 24.2265 1.04085 1.65489 0
M  V30 238 H 22.9305 1.58091 3.78729 0
M  V30 239 H 22.4615 -0.120214 3.93216 0
M  V30 240 H 24.4765 -0.969074 4.86645 0
M  V30 241 N 23.6496 -1.47581 0.552962 0
M  V30 242 C 24.5796 -2.32762 -0.185451 0
M  V30 243 C 25.5606 -1.43527 -0.912905 0
M  V30 244 O 26.7456 -1.72388 -0.894201 0
M  V30 245 C 23.8756 -3.25219 -1.21859 0
M  V30 246 C 22.8296 -4.23661 -0.607864 0
M  V30 247 C 22.1556 -5.05413 -1.74533 0
M  V30 248 C 23.4556 -5.20481 0.435582 0
M  V30 249 H 25.1496 -2.94749 0.525684 0
M  V30 250 H 22.6956 -1.41738 0.254251 0
M  V30 251 H 24.6486 -3.8365 -1.7433 0
M  V30 252 H 23.3726 -2.61279 -1.95961 0
M  V30 253 H 22.0316 -3.66451 -0.104489 0
M  V30 254 H 21.6796 -4.3788 -2.47529 0
M  V30 255 H 21.3796 -5.72059 -1.34249 0
M  V30 256 H 22.9036 -5.66701 -2.27338 0
M  V30 257 H 24.3176 -5.733 -0.00290157 0
M  V30 258 H 22.7146 -5.95305 0.757067 0
M  V30 259 H 23.7846 -4.66217 1.33303 0
M  V30 260 N 25.1277 -0.289203 -1.54924 0
M  V30 261 C 26.3757 0.322879 -1.99504 0
M  V30 262 C 26.6967 1.55313 -1.1791 0
M  V30 263 O 25.9667 1.94001 -0.272097 0
M  V30 264 H 24.5467 0.122291 -0.736922 0
M  V30 265 H 27.2087 -0.397802 -1.90797 0
M  V30 266 H 26.3047 0.603061 -3.06218 0
M  V30 267 N 26.6058 1.57591 -0.0167156 0
M  V30 268 C 27.8338 1.95575 0.675128 0
M  V30 269 C 28.2488 0.892542 1.6637 0
M  V30 270 O 27.6058 -0.126912 1.82058 0
M  V30 271 C 27.6568 3.33608 1.39239 0
M  V30 272 O 27.3778 4.3585 0.443444 0
M  V30 273 C 28.8788 3.86151 2.17721 0
M  V30 274 H 26.0988 0.644423 0.186978 0
M  V30 275 H 28.6428 2.0437 -0.0728 0
M  V30 276 H 26.7978 3.2607 2.09182 0
M  V30 277 H 27.2118 5.158 0.951358 0
M  V30 278 H 28.6858 4.85114 2.63379 0
M  V30 279 H 29.1628 3.19738 3.01105 0
M  V30 280 H 29.7688 3.96918 1.52761 0
M  V30 281 N 28.0839 -0.256276 1.55502 0
M  V30 282 C 29.0469 -1.30047 1.88734 0
M  V30 283 C 30.0469 -1.4154 0.763086 0
M  V30 284 O 31.2369 -1.40403 1.03115 0
M  V30 285 C 28.3689 -2.67953 2.10747 0
M  V30 286 H 29.5619 -1.01802 2.82093 0
M  V30 287 H 27.1149 -0.495134 1.4825 0
M  V30 288 H 27.8499 -3.01351 1.19825 0
M  V30 289 H 27.6349 -2.60993 2.92617 0
M  V30 290 H 29.1249 -3.43368 2.37673 0
M  V30 291 N 29.562 -1.4872 -0.521534 0
M  V30 292 C 30.808 -1.574 -1.27879 0
M  V30 293 C 31.141 -0.250817 -1.92573 0
M  V30 294 O 30.416 0.743934 -1.79711 0
M  V30 295 C 30.699 -2.71843 -2.36164 0
M  V30 296 C 30.552 -4.13893 -1.76105 0
M  V30 297 C 31.871 -2.82008 -3.37875 0
M  V30 298 H 28.99 -0.572941 -0.463581 0
M  V30 299 H 31.632 -1.80927 -0.580119 0
M  V30 300 H 29.782 -2.51914 -2.95756 0
M  V30 301 H 31.454 -4.45284 -1.20499 0
M  V30 302 H 29.697 -4.20498 -1.06601 0
M  V30 303 H 30.368 -4.89804 -2.5455 0
M  V30 304 H 32.844 -3.00086 -2.88249 0
M  V30 305 H 31.72 -3.63796 -4.11028 0
M  V30 306 H 31.981 -1.90511 -3.98946 0
M  V30 307 N 31.0401 0.771051 -1.3745 0
M  V30 308 C 32.4511 1.34737 -1.29239 0
M  V30 309 C 32.8021 1.96109 0.0596908 0
M  V30 310 O 31.9271 1.93865 0.961534 0
M  V30 311 C 32.5221 2.44973 -2.34037 0
M  V30 312 C 31.0811 2.98372 -2.29458 0
M  V30 313 C 30.2281 1.71595 -2.17831 0
M  V30 314 H 33.1791 0.571256 -1.48062 0
M  V30 315 H 33.2001 3.24471 -1.98744 0
M  V30 316 H 32.7121 2.00276 -3.32432 0
M  V30 317 H 30.8131 3.47443 -1.34589 0
M  V30 318 H 30.9261 3.53939 -3.229 0
M  V30 319 H 29.2901 1.94547 -1.64388 0
M  V30 320 H 30.0731 1.29001 -3.18141 0
M  V30 321 N 32.5182 1.22032 0.997298 0
M  V30 322 C 33.7432 1.06921 1.77715 0
M  V30 323 C 34.1682 -0.376226 1.84299 0
M  V30 324 O 33.5262 -1.27165 1.29223 0
M  V30 325 C 33.5742 1.67996 3.19076 0
M  V30 326 O 32.6782 0.930653 4.01762 0
M  V30 327 H 32.0192 0.375814 0.547412 0
M  V30 328 H 34.5492 1.61737 1.25309 0
M  V30 329 H 34.5592 1.72538 3.69723 0
M  V30 330 H 33.2342 2.73182 3.13599 0
M  V30 331 H 31.8112 0.960917 3.60307 0
M  V30 332 N 33.9963 -1.19345 1.0293 0
M  V30 333 C 35.2243 -1.92997 0.745644 0
M  V30 334 C 35.6393 -1.75519 -0.695589 0
M  V30 335 O 34.9963 -1.07737 -1.47306 0
M  V30 336 C 35.0473 -3.44741 1.08792 0
M  V30 337 O 34.7683 -3.61658 2.47256 0
M  V30 338 C 36.2693 -4.35515 0.827129 0
M  V30 339 H 33.4893 -0.613042 0.272801 0
M  V30 340 H 36.0333 -1.51473 1.3739 0
M  V30 341 H 34.1883 -3.84097 0.504832 0
M  V30 342 H 34.6023 -4.55514 2.60015 0
M  V30 343 H 36.0763 -5.40589 1.11658 0
M  V30 344 H 36.5533 -4.38552 -0.238436 0
M  V30 345 H 37.1593 -4.01841 1.39297 0
M  V30 346 N 35.4744 -0.807222 -1.35358 0
M  V30 347 C 36.7224 -0.387122 -1.98358 0
M  V30 348 C 37.0434 1.04942 -1.64354 0
M  V30 349 O 36.3134 1.72615 -0.926339 0
M  V30 350 H 34.8934 -0.140154 -0.733734 0
M  V30 351 H 37.5554 -1.0332 -1.6526 0
M  V30 352 H 36.6514 -0.493352 -3.08176 0
M  V30 353 N 36.9525 1.47285 -0.560781 0
M  V30 354 C 37.9155 2.28535 0.174488 0
M  V30 355 C 38.9155 1.37153 0.839388 0
M  V30 356 O 40.1055 1.59748 0.694702 0
M  V30 357 C 37.2375 3.16934 1.25561 0
M  V30 358 H 38.4305 2.95012 -0.539262 0
M  V30 359 H 35.9835 1.53034 -0.317865 0
M  V30 360 H 36.7185 2.55157 2.00164 0
M  V30 361 H 36.5035 3.8419 0.783604 0
M  V30 362 H 37.9935 3.78143 1.77193 0
M  V30 363 N 38.4306 0.297415 1.54768 0
M  V30 364 C 39.6556 -0.318435 2.04941 0
M  V30 365 C 40.0806 -1.4701 1.17345 0
M  V30 366 O 39.4386 -1.80436 0.176758 0
M  V30 367 C 39.4866 -0.755749 3.52592 0
M  V30 368 O 38.5906 -1.86088 3.68028 0
M  V30 369 H 37.9316 -0.062421 0.661059 0
M  V30 370 H 40.4616 0.438215 1.99852 0
M  V30 371 H 40.4716 -1.04552 3.94376 0
M  V30 372 H 39.1466 0.0867233 4.1581 0
M  V30 373 H 37.7236 -1.57193 3.38149 0
M  V30 374 N 39.9087 -1.5758 0.0250728 0
M  V30 375 C 40.8557 -2.09973 -0.958129 0
M  V30 376 C 41.8257 -1.00085 -1.3256 0
M  V30 377 O 43.0107 -1.27481 -1.41962 0
M  V30 378 C 40.1507 -2.62812 -2.2366 0
M  V30 379 C 39.2637 -3.86693 -1.92594 0
M  V30 380 C 38.3987 -4.27941 -3.14707 0
M  V30 381 C 37.4377 -5.44591 -2.79442 0
M  V30 382 N 36.5747 -5.81014 -3.94167 0
M  V30 383 H 41.4147 -2.937 -0.504428 0
M  V30 384 H 38.9517 -1.45172 -0.237392 0
M  V30 385 H 40.9097 -2.91536 -2.98434 0
M  V30 386 H 39.5397 -1.81922 -2.66654 0
M  V30 387 H 38.5917 -3.64723 -1.0808 0
M  V30 388 H 39.9037 -4.71547 -1.62619 0
M  V30 389 H 39.0577 -4.58079 -3.97804 0
M  V30 390 H 37.7967 -3.41845 -3.4784 0
M  V30 391 H 36.8017 -5.1415 -1.94755 0
M  V30 392 H 38.0267 -6.32382 -2.47528 0
M  V30 393 H 35.9727 -4.97874 -4.2715 0
M  V30 394 H 35.8897 -6.60498 -3.67801 0
M  V30 395 H 37.1577 -6.15756 -4.7798 0
M  V30 396 N 41.3868 0.248026 -1.55636 0
M  V30 397 C 42.6118 0.998028 -1.81808 0
M  V30 398 C 43.0368 1.78207 -0.601979 0
M  V30 399 O 42.3948 1.75653 0.448961 0
M  V30 400 C 42.4428 1.9125 -3.05705 0
M  V30 401 O 41.5468 3.00406 -2.82542 0
M  V30 402 H 40.8878 0.284045 -0.600179 0
M  V30 403 H 43.4178 0.269357 -2.02819 0
M  V30 404 H 43.4278 2.32737 -3.35108 0
M  V30 405 H 42.1028 1.33602 -3.93857 0
M  V30 406 H 40.6798 2.63056 -2.64303 0
M  V30 407 N 42.8649 1.48995 0.513639 0
M  V30 408 C 43.8119 1.6473 1.61656 0
M  V30 409 C 44.7819 0.488984 1.58739 0
M  V30 410 O 45.9669 0.714478 1.76918 0
M  V30 411 C 43.1069 1.7082 2.99858 0
M  V30 412 C 42.2199 2.9787 3.12885 0
M  V30 413 C 41.3549 2.95017 4.41744 0
M  V30 414 C 40.3939 4.16702 4.48359 0
M  V30 415 N 39.5309 4.11832 5.68629 0
M  V30 416 H 44.3709 2.58909 1.47547 0
M  V30 417 H 41.9079 1.28382 0.71808 0
M  V30 418 H 43.8659 1.72331 3.79944 0
M  V30 419 H 42.4959 0.801181 3.12699 0
M  V30 420 H 41.5479 3.06029 2.25944 0
M  V30 421 H 42.8599 3.8786 3.13633 0
M  V30 422 H 42.0139 2.95021 5.30139 0
M  V30 423 H 40.7529 2.02784 4.43542 0
M  V30 424 H 39.7579 4.16955 3.58369 0
M  V30 425 H 40.9829 5.10113 4.48287 0
M  V30 426 H 38.9289 3.22428 5.71293 0
M  V30 427 H 38.8459 4.95543 5.7094 0
M  V30 428 H 40.1139 4.1592 6.59266 0
M  V30 429 N 44.343 -0.763751 1.37857 0
M  V30 430 C 45.759 -1.06542 1.18832 0
M  V30 431 C 45.959 -2.01478 0.0299722 0
M  V30 432 O 45.015 -2.4458 -0.627447 0
M  V30 433 C 46.328 -1.65525 2.51042 0
M  V30 434 C 47.876 -1.77745 2.57635 0
M  V30 435 C 48.351 -2.4014 3.89996 0
M  V30 436 N 49.842 -2.47582 3.91481 0
M  V30 437 C 50.577 -2.96732 4.9065 0
M  V30 438 N 50.073 -3.45993 6.00217 0
M  V30 439 N 51.866 -2.95679 4.78048 0
M  V30 440 H 44.017 -0.133556 2.1198 0
M  V30 441 H 46.28 -0.121879 0.940133 0
M  V30 442 H 45.986 -1.03236 3.36207 0
M  V30 443 H 45.86 -2.64719 2.68707 0
M  V30 444 H 48.247 -2.39164 1.72872 0
M  V30 445 H 48.328 -0.772836 2.43846 0
M  V30 446 H 47.972 -1.79358 4.75177 0
M  V30 447 H 47.902 -3.41223 4.01092 0
M  V30 448 H 50.393 -2.1273 3.12337 0
M  V30 449 H 50.706 -3.81922 6.7183 0
M  V30 450 H 49.051 -3.44077 6.03851 0
M  V30 451 H 52.242 -2.56499 3.91568 0
M  V30 452 H 52.415 -3.33672 5.55488 0
M  V30 453 N 45.8211 -1.22559 -0.990812 0
M  V30 454 C 46.7531 -0.955325 -2.08342 0
M  V30 455 C 47.7661 0.0668408 -1.62663 0
M  V30 456 O 48.9551 -0.167421 -1.77713 0
M  V30 457 C 46.0551 -0.415566 -3.36342 0
M  V30 458 C 45.2281 -1.49544 -4.11042 0
M  V30 459 C 44.2871 -0.962399 -5.17324 0
M  V30 460 O 43.3131 -1.64907 -5.44788 0
M  V30 461 N 44.5151 0.215134 -5.80101 0
M  V30 462 H 47.2801 -1.89596 -2.32106 0
M  V30 463 H 44.8411 -1.13276 -1.15673 0
M  V30 464 H 46.8331 -0.0442386 -4.04676 0
M  V30 465 H 45.4031 0.430232 -3.09625 0
M  V30 466 H 44.6231 -2.04 -3.37309 0
M  V30 467 H 45.9111 -2.22195 -4.57719 0
M  V30 468 H 45.3091 0.789779 -5.6016 0
M  V30 469 H 43.8661 0.527826 -6.49659 0
M  V30 470 N 47.2992 1.18797 -1.03562 0
M  V30 471 C 48.2622 2.20464 -0.626769 0
M  V30 472 C 49.2622 1.57721 0.313173 0
M  V30 473 O 50.4522 1.73917 0.0992615 0
M  V30 474 C 47.5842 3.40802 0.0818498 0
M  V30 475 H 48.7772 2.58149 -1.5264 0
M  V30 476 H 46.3302 1.32593 -0.827578 0
M  V30 477 H 47.0652 3.08642 0.995518 0
M  V30 478 H 46.8502 3.8758 -0.593652 0
M  V30 479 H 48.3402 4.16092 0.354584 0
M  V30 480 N 48.7773 0.814389 1.34928 0
M  V30 481 C 49.7093 0.187834 2.28429 0
M  V30 482 C 50.7223 -0.617374 1.5064 0
M  V30 483 O 51.9113 -0.448454 1.72775 0
M  V30 484 C 49.0113 -0.755962 3.30361 0
M  V30 485 C 48.1843 0.00456686 4.374 0
M  V30 486 C 47.2433 -0.858876 5.19143 0
M  V30 487 O 46.2693 -0.306968 5.68372 0
M  V30 488 N 47.4713 -2.17988 5.38016 0
M  V30 489 H 50.2363 0.991105 2.82838 0
M  V30 490 H 47.7973 0.670561 1.4736 0
M  V30 491 H 49.7893 -1.338 3.81942 0
M  V30 492 H 48.3593 -1.46001 2.7641 0
M  V30 493 H 47.5793 0.767865 3.86649 0
M  V30 494 H 48.8673 0.528422 5.06049 0
M  V30 495 H 48.2653 -2.65212 4.99679 0
M  V30 496 H 46.8223 -2.71098 5.92747 0
M  V30 497 N 50.2554 -1.46986 0.568584 0
M  V30 498 C 51.1874 -2.28233 -0.210337 0
M  V30 499 C 52.2004 -1.37682 -0.868767 0
M  V30 500 O 53.3894 -1.62406 -0.740705 0
M  V30 501 C 50.4894 -3.12293 -1.3163 0
M  V30 502 C 49.6624 -4.30878 -0.7525 0
M  V30 503 C 48.7214 -4.96445 -1.74439 0
M  V30 504 O 47.7474 -5.54482 -1.286 0
M  V30 505 N 48.9494 -4.92171 -3.07812 0
M  V30 506 H 51.7144 -2.95723 0.486648 0
M  V30 507 H 49.2754 -1.56742 0.405409 0
M  V30 508 H 51.2674 -3.53022 -1.97883 0
M  V30 509 H 49.8374 -2.46971 -1.91636 0
M  V30 510 H 49.0574 -3.94104 0.0871128 0
M  V30 511 H 50.3454 -5.07558 -0.35536 0
M  V30 512 H 49.7434 -4.46239 -3.47688 0
M  V30 513 H 48.3004 -5.36884 -3.69592 0
M  V30 514 N 51.7335 -0.305618 -1.54608 0
M  V30 515 C 52.6665 0.610536 -2.19881 0
M  V30 516 C 53.6445 1.1294 -1.16976 0
M  V30 517 O 54.8285 1.19673 -1.45638 0
M  V30 518 C 51.9555 1.83583 -2.84631 0
M  V30 519 C 51.0015 1.4498 -4.01102 0
M  V30 520 S 51.8345 0.501793 -5.33144 0
M  V30 521 C 52.9905 1.73478 -6.01379 0
M  V30 522 H 53.2235 0.0560177 -2.97247 0
M  V30 523 H 50.7565 -0.0897434 -1.54139 0
M  V30 524 H 52.7145 2.53898 -3.22562 0
M  V30 525 H 51.3755 2.36152 -2.07102 0
M  V30 526 H 50.5685 2.36236 -4.45206 0
M  V30 527 H 50.1705 0.826553 -3.64752 0
M  V30 528 H 52.4625 2.67473 -6.22467 0
M  V30 529 H 53.4055 1.33622 -6.95378 0
M  V30 530 H 53.8135 1.9136 -5.31076 0
M  V30 531 N 53.2116 1.57565 -0.0334293 0
M  V30 532 C 54.4576 1.92262 0.645226 0
M  V30 533 C 54.7906 0.910543 1.71531 0
M  V30 534 O 54.0656 -0.066099 1.94388 0
M  V30 535 C 54.3486 3.37422 1.2577 0
M  V30 536 C 54.2016 4.49369 0.196891 0
M  V30 537 C 55.5206 3.82628 2.17449 0
M  V30 538 H 52.6396 0.699171 0.233085 0
M  V30 539 H 55.2816 1.89779 -0.0915694 0
M  V30 540 H 53.4316 3.39669 1.88566 0
M  V30 541 H 55.1036 4.59254 -0.433962 0
M  V30 542 H 53.3466 4.31168 -0.477137 0
M  V30 543 H 54.0176 5.47978 0.665124 0
M  V30 544 H 56.4936 3.82145 1.64634 0
M  V30 545 H 55.3696 4.84883 2.57254 0
M  V30 546 H 55.6306 3.18376 3.0674 0
M  V30 547 N 54.6897 -0.239769 1.55765 0
M  V30 548 C 55.6217 -1.32001 1.87372 0
M  V30 549 C 56.6347 -1.43944 0.760522 0
M  V30 550 O 57.8237 -1.45167 1.0387 0
M  V30 551 C 54.9237 -2.69779 2.05115 0
M  V30 552 C 54.0967 -2.80014 3.36022 0
M  V30 553 C 53.1557 -3.98684 3.4342 0
M  V30 554 O 52.1817 -3.87877 4.16582 0
M  V30 555 N 53.3837 -5.12176 2.73232 0
M  V30 556 H 56.1487 -1.0522 2.80622 0
M  V30 557 H 53.7097 -0.429857 1.56089 0
M  V30 558 H 55.7017 -3.47517 2.07399 0
M  V30 559 H 54.2717 -2.89237 1.18577 0
M  V30 560 H 53.4917 -1.88896 3.45994 0
M  V30 561 H 54.7797 -2.83808 4.22292 0
M  V30 562 H 54.1777 -5.2385 2.13536 0
M  V30 563 H 52.7347 -5.88022 2.81199 0
M  V30 564 N 56.1678 -1.49265 -0.50573 0
M  V30 565 C 57.5788 -1.51769 -1.08734 0
M  V30 566 C 57.9298 -0.301192 -1.93874 0
M  V30 567 O 57.0548 0.589456 -2.08217 0
M  V30 568 C 57.6498 -2.75017 -1.97867 0
M  V30 569 C 56.2088 -2.80314 -2.51199 0
M  V30 570 C 55.3558 -2.4562 -1.28709 0
M  V30 571 H 58.3068 -1.56031 -0.289855 0
M  V30 572 H 58.3278 -2.5491 -2.82491 0
M  V30 573 H 57.8398 -3.63539 -1.35873 0
M  V30 574 H 55.9408 -1.96061 -3.16845 0
M  V30 575 H 56.0538 -3.82366 -2.88675 0
M  V30 576 H 54.4178 -1.97297 -1.61078 0
M  V30 577 H 55.2008 -3.36411 -0.6843 0
M  V30 578 N 57.6459 0.756429 -1.3826 0
M  V30 579 C 58.5779 1.87971 -1.31147 0
M  V30 580 C 59.5909 1.61248 -0.224239 0
M  V30 581 O 60.7799 1.71881 -0.481581 0
M  V30 582 C 57.8799 3.23545 -1.00857 0
M  V30 583 C 57.0529 3.77794 -2.20432 0
M  V30 584 C 56.1119 4.91877 -1.86931 0
M  V30 585 O 55.1379 5.06659 -2.59395 0
M  V30 586 N 56.3399 5.74643 -0.822568 0
M  V30 587 H 59.1049 1.94585 -2.2794 0
M  V30 588 H 56.6659 0.936234 -1.32084 0
M  V30 589 H 58.6579 3.97403 -0.765021 0
M  V30 590 H 57.2279 3.12335 -0.128687 0
M  V30 591 H 56.4479 2.95534 -2.6087 0
M  V30 592 H 57.7359 4.10771 -3.00241 0
M  V30 593 H 57.1339 5.65266 -0.221575 0
M  V30 594 H 55.6909 6.48661 -0.638899 0
M  V30 595 N 59.124 1.23083 0.984299 0
M  V30 596 C 60.349 1.088 1.76571 0
M  V30 597 C 60.774 -0.356657 1.84688 0
M  V30 598 O 60.132 -1.25788 1.30565 0
M  V30 599 C 60.18 1.71371 3.17277 0
M  V30 600 O 59.284 0.973213 4.00752 0
M  V30 601 H 58.625 0.381599 0.543395 0
M  V30 602 H 61.155 1.63057 1.23587 0
M  V30 603 H 61.165 1.76449 3.67872 0
M  V30 604 H 59.84 2.76493 3.10684 0
M  V30 605 H 58.417 0.999078 3.59267 0
M  V30 606 N 60.6021 -1.18246 1.0419 0
M  V30 607 C 62.0131 -1.69914 0.773698 0
M  V30 608 C 62.3641 -1.83085 -0.705297 0
M  V30 609 O 61.4891 -1.51123 -1.5489 0
M  V30 610 C 62.0841 -3.08619 1.39784 0
M  V30 611 C 60.6431 -3.57494 1.17792 0
M  V30 612 C 59.7901 -2.34013 1.48773 0
M  V30 613 H 62.7411 -1.02904 1.20816 0
M  V30 614 H 62.7621 -3.71958 0.801714 0
M  V30 615 H 62.2741 -2.99001 2.47426 0
M  V30 616 H 60.3751 -3.72406 0.120295 0
M  V30 617 H 60.4881 -4.40852 1.87581 0
M  V30 618 H 58.8521 -2.37986 0.907463 0
M  V30 619 H 59.6351 -2.27013 2.57527 0
M  V30 620 N 62.0802 -0.821533 -1.34494 0
M  V30 621 C 63.3262 -0.409552 -1.98622 0
M  V30 622 C 63.6592 1.0244 -1.64984 0
M  V30 623 O 62.9342 1.71325 -0.920758 0
M  V30 624 C 63.2172 -0.610458 -3.54888 0
M  V30 625 C 63.0702 -2.09043 -3.98273 0
M  V30 626 C 64.3892 -0.0455379 -4.40076 0
M  V30 627 H 61.5082 -0.15028 -0.721516 0
M  V30 628 H 64.1502 -1.03384 -1.59411 0
M  V30 629 H 62.3002 -0.079044 -3.8842 0
M  V30 630 H 63.9722 -2.68537 -3.75081 0
M  V30 631 H 62.2152 -2.58139 -3.48635 0
M  V30 632 H 62.8862 -2.18182 -5.07051 0
M  V30 633 H 65.3622 -0.499557 -4.1309 0
M  V30 634 H 64.2382 -0.215922 -5.48475 0
M  V30 635 H 64.4992 1.04939 -4.29465 0
M  V30 636 N 63.5583 1.46682 -0.576371 0
M  V30 637 C 64.5213 2.28707 0.150239 0
M  V30 638 C 65.5213 1.38035 0.824794 0
M  V30 639 O 66.7113 1.60476 0.677719 0
M  V30 640 C 63.8433 3.18248 1.22192 0
M  V30 641 H 65.0363 2.94423 -0.570521 0
M  V30 642 H 62.5893 1.52688 -0.334078 0
M  V30 643 H 63.3243 2.57265 1.97447 0
M  V30 644 H 63.1093 3.85 0.742812 0
M  V30 645 H 64.5993 3.80001 1.73172 0
M  V30 646 N 65.0364 0.313813 1.54444 0
M  V30 647 C 66.2824 -0.292108 2.00685 0
M  V30 648 C 66.6154 -1.52548 1.20177 0
M  V30 649 O 65.8904 -1.92452 0.281531 0
M  V30 650 C 66.1734 -0.635968 3.5444 0
M  V30 651 C 66.0264 0.607437 4.4568 0
M  V30 652 C 67.3454 -1.45747 4.15266 0
M  V30 653 H 64.4644 -0.104697 0.729526 0
M  V30 654 H 67.1064 0.428457 1.85106 0
M  V30 655 H 65.2564 -1.24986 3.67846 0
M  V30 656 H 66.9284 1.24581 4.44159 0
M  V30 657 H 65.1714 1.23822 4.15753 0
M  V30 658 H 65.8424 0.322515 5.51057 0
M  V30 659 H 68.3184 -0.938645 4.05375 0
M  V30 660 H 67.1944 -1.66683 5.2298 0
M  V30 661 H 67.4554 -2.45063 3.67963 0
M  V30 662 N 66.5145 -1.57545 0.0417849 0
M  V30 663 C 67.7395 -1.97035 -0.647455 0
M  V30 664 C 68.1645 -0.918775 -1.64135 0
M  V30 665 O 67.5225 0.119006 -1.80909 0
M  V30 666 C 67.5705 -3.35609 -1.31905 0
M  V30 667 O 66.6745 -3.3287 -2.43457 0
M  V30 668 H 66.0155 -0.64211 -0.169086 0
M  V30 669 H 68.5455 -2.04318 0.107399 0
M  V30 670 H 68.5555 -3.72126 -1.67291 0
M  V30 671 H 67.2305 -4.11685 -0.590586 0
M  V30 672 H 65.8075 -3.08087 -2.10088 0
M  V30 673 N 67.9926 0.231505 -1.5589 0
M  V30 674 C 68.9246 1.31006 -1.8807 0
M  V30 675 C 69.9376 1.43539 -0.768145 0
M  V30 676 O 71.1266 1.44614 -1.04638 0
M  V30 677 C 68.2266 2.68688 -2.06543 0
M  V30 678 C 67.3996 2.78228 -3.37502 0
M  V30 679 C 66.4586 3.96857 -3.4553 0
M  V30 680 O 65.4846 3.85662 -4.18633 0
M  V30 681 N 66.6866 5.1072 -2.75944 0
M  V30 682 H 69.4516 1.03731 -2.81176 0
M  V30 683 H 67.0126 0.421573 -1.56315 0
M  V30 684 H 69.0046 3.46412 -2.09239 0
M  V30 685 H 67.5746 2.88605 -1.20109 0
M  V30 686 H 66.7946 1.87059 -3.46991 0
M  V30 687 H 68.0826 2.81564 -4.23791 0
M  V30 688 H 67.4806 5.2271 -2.16311 0
M  V30 689 H 66.0376 5.86523 -2.84314 0
M  V30 690 N 69.4707 1.49531 0.497807 0
M  V30 691 C 70.6957 1.63159 1.28039 0
M  V30 692 C 71.1207 0.30418 1.85624 0
M  V30 693 O 70.4787 -0.728618 1.66015 0
M  V30 694 C 70.5267 2.70537 2.38416 0
M  V30 695 O 69.6307 2.29931 3.42353 0
M  V30 696 H 68.9717 0.546001 0.377861 0
M  V30 697 H 71.5017 1.9574 0.59558 0
M  V30 698 H 71.5117 2.92802 2.84132 0
M  V30 699 H 70.1867 3.6689 1.95869 0
M  V30 700 H 68.7637 2.18009 3.02533 0
M  V30 701 N 70.9488 -0.749086 1.3866 0
M  V30 702 C 71.8958 -1.86291 1.36251 0
M  V30 703 C 72.8658 -1.64578 0.224347 0
M  V30 704 O 74.0508 -1.86181 0.417279 0
M  V30 705 C 71.1908 -3.23644 1.19786 0
M  V30 706 C 70.3038 -3.57158 2.43027 0
M  V30 707 C 69.4388 -4.83838 2.19258 0
M  V30 708 C 68.4778 -5.10152 3.38247 0
M  V30 709 N 67.6148 -6.28029 3.13884 0
M  V30 710 H 72.4548 -1.87685 2.3147 0
M  V30 711 H 69.9918 -0.917287 1.14997 0
M  V30 712 H 71.9498 -4.0291 1.08254 0
M  V30 713 H 70.5798 -3.21566 0.282031 0
M  V30 714 H 69.6318 -2.72701 2.65214 0
M  V30 715 H 70.9438 -3.7253 3.31697 0
M  V30 716 H 70.0978 -5.71057 2.04888 0
M  V30 717 H 68.8368 -4.70614 1.2796 0
M  V30 718 H 67.8418 -4.21401 3.53131 0
M  V30 719 H 69.0668 -5.25271 4.30427 0
M  V30 720 H 67.0128 -6.1612 2.25238 0
M  V30 721 H 66.9298 -6.43922 3.96106 0
M  V30 722 H 68.1978 -7.18124 3.03179 0
M  V30 723 N 72.4269 -1.23603 -0.977757 0
M  V30 724 C 73.8379 -1.06424 -1.53398 0
M  V30 725 C 74.1889 0.367578 -1.92726 0
M  V30 726 O 73.3139 1.25465 -1.76316 0
M  V30 727 C 73.9089 -1.92568 -2.78753 0
M  V30 728 C 72.4679 -1.79642 -3.30765 0
M  V30 729 C 71.6149 -1.88111 -2.03739 0
M  V30 730 H 74.5659 -1.37227 -0.797152 0
M  V30 731 H 74.5869 -1.45203 -3.51705 0
M  V30 732 H 74.0989 -2.96771 -2.50098 0
M  V30 733 H 72.1999 -0.782325 -3.64294 0
M  V30 734 H 72.3129 -2.63174 -4.00345 0
M  V30 735 H 70.6769 -1.31723 -2.17994 0
M  V30 736 H 71.4599 -2.93875 -1.77461 0
M  V30 737 N 73.905 1.17692 -1.04816 0
M  V30 738 C 75.153 1.87488 -0.754497 0
M  V30 739 C 75.474 1.81205 0.720407 0
M  V30 740 O 74.744 1.23544 1.52032 0
M  V30 741 H 73.324 0.694101 -0.276102 0
M  V30 742 H 75.986 1.42793 -1.32651 0
M  V30 743 H 75.082 2.93328 -1.06606 0
M  V30 744 N 75.3831 0.828654 1.34056 0
M  V30 745 C 76.6231 0.425394 1.99924 0
M  V30 746 C 76.9871 -0.994294 1.64249 0
M  V30 747 O 78.1881 -1.50074 2.23005 0
M  V30 748 C 76.4591 0.628071 3.51838 0
M  V30 749 S 78.0181 0.318511 4.37642 0
M  V30 750 H 74.8361 0.160465 0.692656 0
M  V30 751 H 77.4381 1.07572 1.63244 0
M  V30 752 H 76.1421 1.66089 3.7529 0
M  V30 753 H 75.6731 -0.0367799 3.93383 0
M  V30 754 H 77.6881 -0.865632 4.88591 0
M  V30 755 N 76.8612 -1.46375 0.584142 0
M  V30 756 C 78.0912 -2.06461 0.0758195 0
M  V30 757 C 78.4992 -1.43322 -1.23512 0
M  V30 758 O 77.8422 -0.533216 -1.75791 0
M  V30 759 C 77.9042 -3.59131 -0.162773 0
M  V30 760 C 77.5682 -4.4447 1.06279 0
M  V30 761 C 78.5652 -4.80918 1.97519 0
M  V30 762 C 76.2502 -4.85584 1.28504 0
M  V30 763 C 78.2442 -5.57309 3.09331 0
M  V30 764 C 75.9312 -5.61734 2.4062 0
M  V30 765 C 76.9292 -5.9751 3.30863 0
M  V30 766 O 76.6172 -6.72121 4.41032 0
M  V30 767 H 76.3492 -0.673745 0.0551725 0
M  V30 768 H 78.9032 -1.88969 0.804984 0
M  V30 769 H 77.1332 -3.74936 -0.946565 0
M  V30 770 H 78.8222 -4.0114 -0.619782 0
M  V30 771 H 79.5882 -4.49732 1.81565 0
M  V30 772 H 75.4672 -4.57187 0.591702 0
M  V30 773 H 79.0112 -5.85152 3.79793 0
M  V30 774 H 74.9082 -5.92334 2.56537 0
M  V30 775 H 75.6762 -6.90547 4.39417 0
M  V30 776 N 78.3393 -0.321999 -1.54275 0
M  V30 777 C 79.6163 0.335232 -1.92706 0
M  V30 778 C 79.9963 1.70006 -1.25145 0
M  V30 779 O 79.3443 2.25067 -0.394596 0
M  V30 780 C 79.5543 0.429008 -3.46353 0
M  V30 781 C 80.9023 0.690029 -4.18956 0
M  V30 782 O 81.9263 0.511992 -3.52501 0
M  V30 783 O 80.7853 1.03338 -5.36641 0
M  V30 784 H 77.8793 0.191143 -0.804608 0
M  V30 785 H 80.4253 -0.3716 -1.65581 0
M  V30 786 H 79.1973 -0.529611 -3.87699 0
M  V30 787 H 78.8203 1.18348 -3.79578 0
M  V30 788 N 79.8174 1.5752 -0.0501392 0
M  V30 789 C 80.7654 2.12651 0.942459 0
M  V30 790 C 81.7594 1.05807 1.32292 0
M  V30 791 O 82.9654 1.24217 1.3027 0
M  V30 792 H 79.3404 0.679673 0.321789 0
M  V30 793 H 81.3114 2.94951 0.452356 0
M  V30 794 C 80.0604 2.68565 2.20836 0
M  V30 795 H 79.3834 3.50439 1.92439 0
M  V30 796 H 80.8234 3.10761 2.8845 0
M  V30 797 C 79.2824 1.62291 2.95234 0
M  V30 798 O 79.8124 1.03508 3.88135 0
M  V30 799 N 78.0184 1.33836 2.57946 0
M  V30 800 H 77.5654 1.81826 1.82475 0
M  V30 801 H 77.5234 0.629595 3.08032 0
M  V30 802 N 81.2955 -0.223234 1.56011 0
M  V30 803 C 82.5435 -0.946003 1.78592 0
M  V30 804 C 82.8645 -1.84936 0.618349 0
M  V30 805 O 82.1345 -1.92473 -0.364833 0
M  V30 806 H 80.7145 -0.352298 0.658707 0
M  V30 807 H 83.3765 -0.235494 1.93472 0
M  V30 808 H 82.4725 -1.55381 2.70672 0
M  V30 809 N 82.7736 -1.49793 -0.48987 0
M  V30 810 C 83.7206 -1.67281 -1.59014 0
M  V30 811 C 84.6906 -0.514177 -1.57941 0
M  V30 812 O 85.8756 -0.742533 -1.75759 0
M  V30 813 C 83.0156 -1.75569 -2.97102 0
M  V30 814 C 82.1286 -3.0281 -3.08107 0
M  V30 815 C 81.2636 -3.02008 -4.36995 0
M  V30 816 C 80.3026 -4.23782 -4.41673 0
M  V30 817 N 79.4396 -4.20826 -5.62005 0
M  V30 818 H 84.2796 -2.61224 -1.43409 0
M  V30 819 H 81.8166 -1.29508 -0.697565 0
M  V30 820 H 83.7746 -1.78354 -3.77155 0
M  V30 821 H 82.4046 -0.850827 -3.11385 0
M  V30 822 H 81.4566 -3.09584 -2.21047 0
M  V30 823 H 82.7686 -3.92801 -3.07423 0
M  V30 824 H 81.9226 -3.03418 -5.25378 0
M  V30 825 H 80.6616 -2.09815 -4.4026 0
M  V30 826 H 79.6666 -4.22604 -3.5169 0
M  V30 827 H 80.8916 -5.17181 -4.40115 0
M  V30 828 H 78.8376 -3.31476 -5.66091 0
M  V30 829 H 78.7546 -5.04564 -5.62984 0
M  V30 830 H 80.0226 -4.26355 -6.52565 0
M  V30 831 N 84.2517 0.741722 -1.39055 0
M  V30 832 C 85.2017 1.84661 -1.33732 0
M  V30 833 C 86.1857 1.59397 -0.219401 0
M  V30 834 O 87.3777 1.71015 -0.456375 0
M  V30 835 C 84.5067 3.22512 -1.17647 0
M  V30 836 C 83.5927 3.53628 -2.34112 0
M  V30 837 N 83.9837 3.55723 -3.59576 0
M  V30 838 C 82.2817 3.83956 -2.26923 0
M  V30 839 C 82.9827 3.84443 -4.36553 0
M  V30 840 N 81.9587 4.01877 -3.66055 0
M  V30 841 H 85.7607 1.84576 -2.28711 0
M  V30 842 H 83.2747 0.939647 -1.32455 0
M  V30 843 H 85.2717 4.01597 -1.11917 0
M  V30 844 H 83.9317 3.2384 -0.236124 0
M  V30 845 H 84.9427 3.37196 -3.93089 0
M  V30 846 H 81.6197 3.92929 -1.41113 0
M  V30 847 H 83.0097 3.92588 -5.45274 0
M  V30 848 N 85.7298 1.2412 0.971189 0
M  V30 849 C 86.9598 1.10415 1.7462 0
M  V30 850 C 87.3678 -0.346462 1.86001 0
M  V30 851 O 86.7108 -1.25104 1.34517 0
M  V30 852 C 86.7728 1.66596 3.18568 0
M  V30 853 C 86.4368 3.15446 3.3067 0
M  V30 854 C 87.4338 4.12636 3.16271 0
M  V30 855 C 85.1188 3.55337 3.55022 0
M  V30 856 C 87.1128 5.47699 3.26044 0
M  V30 857 C 84.7998 4.90542 3.64434 0
M  V30 858 C 85.7978 5.86532 3.49956 0
M  V30 859 O 85.4858 7.19279 3.59017 0
M  V30 860 H 85.2178 0.386616 0.55453 0
M  V30 861 H 87.7718 1.64633 1.22821 0
M  V30 862 H 86.0018 1.06808 3.71657 0
M  V30 863 H 87.6908 1.48232 3.77865 0
M  V30 864 H 88.4568 3.8316 2.97344 0
M  V30 865 H 84.3358 2.8113 3.65359 0
M  V30 866 H 87.8798 6.22603 3.14661 0
M  V30 867 H 83.7768 5.19691 3.82873 0
M  V30 868 H 84.5448 7.27153 3.75754 0
M  V30 869 N 87.2079 -1.17134 1.05439 0
M  V30 870 C 88.1399 -2.2078 0.615539 0
M  V30 871 C 89.1529 -1.59584 -0.322001 0
M  V30 872 O 90.3419 -1.78133 -0.114344 0
M  V30 873 C 87.4419 -3.38691 -0.118938 0
M  V30 874 C 86.6149 -4.29454 0.829924 0
M  V30 875 C 85.6739 -5.26024 0.136258 0
M  V30 876 O 84.6999 -5.63952 0.77115 0
M  V30 877 N 85.9019 -5.69487 -1.1254 0
M  V30 878 H 88.6669 -2.59052 1.50705 0
M  V30 879 H 86.2279 -1.32058 0.936603 0
M  V30 880 H 88.2199 -4.00329 -0.593179 0
M  V30 881 H 86.7899 -2.98996 -0.91215 0
M  V30 882 H 86.0099 -3.65211 1.48373 0
M  V30 883 H 87.2979 -4.86984 1.47392 0
M  V30 884 H 86.6959 -5.4075 -1.6615 0
M  V30 885 H 85.2529 -6.33257 -1.54366 0
M  V30 886 N 88.686 -0.835752 -1.33615 0
M  V30 887 C 89.935 -0.426289 -1.97144 0
M  V30 888 C 90.248 1.01912 -1.66953 0
M  V30 889 O 91.454 1.53311 -2.24072 0
M  V30 890 C 89.91 -0.711321 -3.52801 0
M  V30 891 C 89.518 -2.1712 -3.91871 0
M  V30 892 C 91.262 -0.368654 -4.22896 0
M  V30 893 C 89.169 -2.40044 -5.40493 0
M  V30 894 H 88.099 -0.15567 -0.737755 0
M  V30 895 H 90.75 -1.0239 -1.52278 0
M  V30 896 H 89.132 -0.0433766 -3.95976 0
M  V30 897 H 90.306 -2.87936 -3.59763 0
M  V30 898 H 88.621 -2.47654 -3.34749 0
M  V30 899 H 91.218 -0.517601 -5.32189 0
M  V30 900 H 91.561 0.688078 -4.10574 0
M  V30 901 H 92.094 -0.991702 -3.8524 0
M  V30 902 H 88.833 -3.44271 -5.57815 0
M  V30 903 H 88.353 -1.73785 -5.74072 0
M  V30 904 H 90.032 -2.23042 -6.0734 0
M  V30 905 N 90.1641 1.46063 -0.591896 0
M  V30 906 C 91.1121 2.32124 0.148739 0
M  V30 907 C 92.1061 1.45035 0.875286 0
M  V30 908 O 93.3121 1.61609 0.792632 0
M  V30 909 H 89.6871 0.749024 0.066832 0
M  V30 910 H 91.6581 2.92392 -0.595783 0
M  V30 911 C 90.4071 3.28373 1.1431 0
M  V30 912 H 89.7301 3.95371 0.59346 0
M  V30 913 H 91.1701 3.91352 1.63155 0
M  V30 914 C 89.6291 2.54393 2.20875 0
M  V30 915 O 90.1591 2.31373 3.28374 0
M  V30 916 N 88.3651 2.14797 1.95731 0
M  V30 917 H 87.9121 2.33719 1.08319 0
M  V30 918 H 87.8701 1.65619 2.67241 0
M  V30 919 N 91.6422 0.330177 1.54103 0
M  V30 920 C 92.5742 -0.566902 2.22079 0
M  V30 921 C 93.5872 -1.07462 1.22294 0
M  V30 922 O 94.7762 -0.987065 1.48726 0
M  V30 923 C 91.8762 -1.79138 2.87685 0
M  V30 924 C 91.0492 -1.42123 4.13666 0
M  V30 925 C 90.1082 -2.50394 4.62806 0
M  V30 926 O 89.1342 -2.14261 5.27334 0
M  V30 927 N 90.3362 -3.81433 4.37595 0
M  V30 928 H 93.1012 0.0151844 2.99696 0
M  V30 929 H 90.6622 0.153681 1.61169 0
M  V30 930 H 92.6542 -2.50975 3.1748 0
M  V30 931 H 91.2242 -2.28115 2.13734 0
M  V30 932 H 90.4442 -0.534201 3.90564 0
M  V30 933 H 91.7322 -1.14971 4.9564 0
M  V30 934 H 91.1302 -4.13584 3.8596 0
M  V30 935 H 89.6872 -4.4948 4.72029 0
M  V30 936 N 93.1203 -1.57491 0.0584922 0
M  V30 937 C 94.0523 -2.08916 -0.942694 0
M  V30 938 C 95.0653 -1.0185 -1.27006 0
M  V30 939 O 96.2543 -1.29398 -1.22957 0
M  V30 940 C 93.3543 -2.52341 -2.26224 0
M  V30 941 C 92.5273 -3.82827 -2.1157 0
M  V30 942 C 91.5863 -4.12487 -3.26712 0
M  V30 943 O 90.6123 -4.82295 -3.02292 0
M  V30 944 N 91.8143 -3.64978 -4.5141 0
M  V30 945 H 94.5793 -2.95437 -0.503722 0
M  V30 946 H 92.1403 -1.61397 -0.12757 0
M  V30 947 H 94.1323 -2.69254 -3.02133 0
M  V30 948 H 92.7023 -1.7103 -2.61663 0
M  V30 949 H 91.9223 -3.75425 -1.20208 0
M  V30 950 H 93.2103 -4.68263 -1.99015 0
M  V30 951 H 92.6083 -3.08558 -4.7414 0
M  V30 952 H 91.1653 -3.87115 -5.2439 0
M  V30 953 N 94.5984 0.214957 -1.56127 0
M  V30 954 C 95.8444 0.935325 -1.80619 0
M  V30 955 C 96.1994 1.81706 -0.632507 0
M  V30 956 O 95.4924 1.87931 0.373182 0
M  V30 957 C 95.6864 1.80314 -3.0858 0
M  V30 958 C 95.5154 1.00691 -4.38282 0
M  V30 959 C 94.2854 0.699211 -5.00439 0
M  V30 960 C 96.4834 0.369057 -5.12974 0
M  V30 961 N 94.4654 -0.117734 -6.13787 0
M  V30 962 C 95.8364 -0.310981 -6.1922 0
M  V30 963 C 97.8914 0.282759 -4.97096 0
M  V30 964 C 96.5944 -1.06907 -7.11311 0
M  V30 965 C 98.6204 -0.461881 -5.89594 0
M  V30 966 C 97.9824 -1.13044 -6.9527 0
M  V30 967 H 94.0814 0.322307 -0.71249 0
M  V30 968 H 96.6654 0.205649 -1.93611 0
M  V30 969 H 94.8364 2.50458 -2.96859 0
M  V30 970 H 96.5684 2.46148 -3.21237 0
M  V30 971 H 93.3234 1.01884 -4.62511 0
M  V30 972 H 93.7474 -0.515235 -6.75037 0
M  V30 973 H 98.3894 0.785292 -4.15443 0
M  V30 974 H 96.1074 -1.5831 -7.92442 0
M  V30 975 H 99.6934 -0.529746 -5.79383 0
M  V30 976 H 98.5734 -1.69742 -7.65609 0
M  V30 977 N 96.0765 1.50051 0.48192 0
M  V30 978 C 96.9865 1.7089 1.60728 0
M  V30 979 C 98.0025 0.591788 1.63627 0
M  V30 980 O 99.1785 0.868817 1.81696 0
M  V30 981 C 96.2435 1.78855 2.97005 0
M  V30 982 C 95.3045 3.02537 3.04581 0
M  V30 983 C 94.5375 3.10112 4.34357 0
M  V30 984 O 94.7605 2.24765 5.24249 0
M  V30 985 O 93.6945 4.02747 4.47301 0
M  V30 986 H 97.5205 2.66264 1.46072 0
M  V30 987 H 95.1055 1.34018 0.660264 0
M  V30 988 H 96.9875 1.86336 3.77964 0
M  V30 989 H 95.6625 0.866628 3.11883 0
M  V30 990 H 94.5695 3.00563 2.22739 0
M  V30 991 H 95.9025 3.94272 2.94636 0
M  V30 992 N 97.5546 -0.734337 1.39446 0
M  V30 993 C 98.9706 -1.03997 1.21065 0
M  V30 994 C 99.1706 -2.01369 0.0727019 0
M  V30 995 O 98.2266 -2.45856 -0.575426 0
M  V30 996 C 99.5396 -1.60163 2.54496 0
M  V30 997 C 101.088 -1.7224 2.61347 0
M  V30 998 C 101.563 -2.31814 3.95002 0
M  V30 999 N 103.054 -2.39223 3.96644 0
M  V30 1000 C 103.789 -2.86258 4.96834 0
M  V30 1001 N 103.285 -3.33184 6.07421 0
M  V30 1002 N 105.078 -2.85473 4.84213 0
M  V30 1003 H 97.2286 -0.0885624 2.12215 0
M  V30 1004 H 99.4916 -0.10191 0.942506 0
M  V30 1005 H 99.1976 -0.960811 3.38321 0
M  V30 1006 H 99.0716 -2.5896 2.74262 0
M  V30 1007 H 101.459 -2.35443 1.77906 0
M  V30 1008 H 101.54 -0.720939 2.4543 0
M  V30 1009 H 101.184 -1.69238 4.78875 0
M  V30 1010 H 101.114 -3.32638 4.08239 0
M  V30 1011 H 103.605 -2.06057 3.16779 0
M  V30 1012 H 103.918 -3.67586 6.7978 0
M  V30 1013 H 102.263 -3.31191 6.11013 0
M  V30 1014 H 105.454 -2.48136 3.96921 0
M  V30 1015 H 105.627 -3.21814 5.62441 0
M  V30 1016 N 99.0327 -1.24633 -0.964593 0
M  V30 1017 C 100.261 -1.11501 -1.74285 0
M  V30 1018 C 100.676 0.332165 -1.85855 0
M  V30 1019 O 100.033 1.22903 -1.34911 0
M  V30 1020 C 100.084 -1.75258 -3.16175 0
M  V30 1021 O 99.8047 -3.14318 -3.05182 0
M  V30 1022 C 101.306 -1.67776 -4.10324 0
M  V30 1023 H 98.5257 -0.389407 -0.546446 0
M  V30 1024 H 101.07 -1.64801 -1.21083 0
M  V30 1025 H 99.2247 -1.25954 -3.66353 0
M  V30 1026 H 99.6387 -3.4551 -3.94618 0
M  V30 1027 H 101.113 -2.17064 -5.0753 0
M  V30 1028 H 101.59 -0.639584 -4.34518 0
M  V30 1029 H 102.196 -2.16522 -3.66058 0
M  V30 1030 N 100.511 1.16574 -1.06058 0
M  V30 1031 C 101.741 1.90675 -0.795397 0
M  V30 1032 C 102.149 1.77547 0.653735 0
M  V30 1033 O 101.492 1.11611 1.45907 0
M  V30 1034 C 101.554 3.42011 -1.10764 0
M  V30 1035 C 101.218 3.78924 -2.55471 0
M  V30 1036 C 102.215 3.81042 -3.53699 0
M  V30 1037 C 99.8998 4.09626 -2.90708 0
M  V30 1038 C 101.894 4.13346 -4.85205 0
M  V30 1039 C 99.5808 4.41597 -4.22416 0
M  V30 1040 C 100.579 4.43436 -5.19474 0
M  V30 1041 O 100.267 4.74649 -6.48817 0
M  V30 1042 H 99.9988 0.611554 -0.288058 0
M  V30 1043 H 102.553 1.48711 -1.41683 0
M  V30 1044 H 100.783 3.84312 -0.429128 0
M  V30 1045 H 102.472 3.97384 -0.827077 0
M  V30 1046 H 103.238 3.57437 -3.27817 0
M  V30 1047 H 99.1168 4.07361 -2.15819 0
M  V30 1048 H 102.661 4.14696 -5.60957 0
M  V30 1049 H 98.5578 4.64667 -4.48056 0
M  V30 1050 H 99.3258 4.9247 -6.5377 0
M  V30 1051 N 101.989 0.842826 1.3317 0
M  V30 1052 C 102.919 0.294028 2.31641 0
M  V30 1053 C 103.9 -0.600401 1.59151 0
M  V30 1054 O 105.085 -0.523124 1.87022 0
M  V30 1055 C 102.215 -0.528416 3.43257 0
M  V30 1056 C 101.169 0.27056 4.27144 0
M  V30 1057 C 100.495 -0.675881 5.30411 0
M  V30 1058 C 101.795 1.48981 5.00602 0
M  V30 1059 H 103.489 1.11681 2.77791 0
M  V30 1060 H 101.035 0.538478 1.33553 0
M  V30 1061 H 102.988 -0.922674 4.11175 0
M  V30 1062 H 101.712 -1.38445 2.95805 0
M  V30 1063 H 100.371 0.646427 3.60856 0
M  V30 1064 H 100.019 -1.52842 4.79216 0
M  V30 1065 H 99.7189 -0.145374 5.8742 0
M  V30 1066 H 101.243 -1.06757 6.01195 0
M  V30 1067 H 102.657 1.16849 5.61266 0
M  V30 1068 H 101.054 1.95739 5.6728 0
M  V30 1069 H 102.124 2.25746 4.29147 0
M  V30 1070 N 103.467 -1.45747 0.599634 0
M  V30 1071 C 104.715 -2.01893 0.0915472 0
M  V30 1072 C 105.036 -1.47155 -1.27946 0
M  V30 1073 O 104.306 -0.66273 -1.84349 0
M  V30 1074 H 102.886 -0.746363 0.0308524 0
M  V30 1075 H 105.548 -1.78645 0.779237 0
M  V30 1076 H 104.644 -3.1208 0.0353086 0
M  V30 1077 N 104.945 -0.338344 -1.53925 0
M  V30 1078 C 105.893 0.536231 -2.26335 0
M  V30 1079 C 106.887 1.1063 -1.28286 0
M  V30 1080 O 108.093 1.05264 -1.46012 0
M  V30 1081 H 104.468 0.191602 -0.727181 0
M  V30 1082 H 106.439 -0.0965747 -2.98244 0
M  V30 1083 C 105.188 1.67803 -3.04528 0
M  V30 1084 H 104.511 1.24864 -3.79801 0
M  V30 1085 H 105.951 2.26526 -3.58416 0
M  V30 1086 C 104.41 2.60439 -2.13712 0
M  V30 1087 O 104.94 3.6255 -1.72975 0
M  V30 1088 N 103.146 2.29006 -1.78898 0
M  V30 1089 H 102.693 1.46011 -2.12223 0
M  V30 1090 H 102.651 2.91248 -1.18416 0
M  V30 1091 N 106.423 1.57458 -0.0668435 0
M  V30 1092 C 107.386 2.11323 0.887422 0
M  V30 1093 C 108.386 1.03618 1.22964 0
M  V30 1094 O 109.576 1.29626 1.16373 0
M  V30 1095 C 106.708 2.61048 2.19242 0
M  V30 1096 H 107.901 2.96942 0.420194 0
M  V30 1097 H 105.454 1.55239 0.181793 0
M  V30 1098 H 106.189 1.78868 2.70512 0
M  V30 1099 H 105.974 3.39769 1.95702 0
M  V30 1100 H 107.464 3.02814 2.87565 0
M  V30 1101 N 107.901 -0.206675 1.56239 0
M  V30 1102 C 108.831 -1.25909 1.96645 0
M  V30 1103 C 109.812 -1.48097 0.836734 0
M  V30 1104 O 110.997 -1.6003 1.10019 0
M  V30 1105 C 108.127 -2.6058 2.29599 0
M  V30 1106 C 107.081 -2.53024 3.452 0
M  V30 1107 C 106.407 -3.91861 3.63798 0
M  V30 1108 C 107.707 -2.06524 4.79734 0
M  V30 1109 H 109.401 -0.923369 2.84806 0
M  V30 1110 H 106.947 -0.442735 1.37025 0
M  V30 1111 H 108.9 -3.34375 2.56459 0
M  V30 1112 H 107.624 -2.95869 1.38307 0
M  V30 1113 H 106.283 -1.81684 3.18412 0
M  V30 1114 H 105.931 -4.24483 2.69857 0
M  V30 1115 H 105.631 -3.87683 4.4156 0
M  V30 1116 H 107.155 -4.67296 3.93022 0
M  V30 1117 H 108.569 -2.70072 5.05702 0
M  V30 1118 H 106.966 -2.13374 5.60885 0
M  V30 1119 H 108.036 -1.01802 4.74093 0
M  V30 1120 N 109.379 -1.50304 -0.473955 0
M  V30 1121 C 110.625 -1.61389 -1.22806 0
M  V30 1122 C 110.958 -0.311955 -1.91678 0
M  V30 1123 O 110.233 0.686384 -1.81986 0
M  V30 1124 C 110.516 -2.79219 -2.27396 0
M  V30 1125 C 110.369 -4.19286 -1.62848 0
M  V30 1126 C 111.688 -2.92614 -3.28732 0
M  V30 1127 H 108.807 -0.587399 -0.445119 0
M  V30 1128 H 111.449 -1.82681 -0.522265 0
M  V30 1129 H 109.599 -2.61195 -2.87592 0
M  V30 1130 H 111.271 -4.48892 -1.06271 0
M  V30 1131 H 109.514 -4.23677 -0.931693 0
M  V30 1132 H 110.185 -4.97655 -2.38838 0
M  V30 1133 H 112.661 -3.09105 -2.78556 0
M  V30 1134 H 111.537 -3.76688 -3.99246 0
M  V30 1135 H 111.798 -2.03107 -3.92683 0
M  V30 1136 N 110.857 0.726932 -1.39834 0
M  V30 1137 C 112.097 1.4992 -1.38936 0
M  V30 1138 C 112.461 1.91996 0.0126883 0
M  V30 1139 O 113.662 2.68399 0.146715 0
M  V30 1140 C 111.933 2.70013 -2.34153 0
M  V30 1141 S 113.492 3.59563 -2.51515 0
M  V30 1142 H 110.31 0.51271 -0.492595 0
M  V30 1143 H 112.912 0.85107 -1.76003 0
M  V30 1144 H 111.616 2.37254 -3.34871 0
M  V30 1145 H 111.147 3.39748 -1.98331 0
M  V30 1146 H 113.162 4.63973 -1.75909 0
M  V30 1147 N 112.336 1.25143 0.95797 0
M  V30 1148 C 113.564 1.12424 1.73691 0
M  V30 1149 C 113.979 -0.322304 1.86029 0
M  V30 1150 O 113.336 -1.22186 1.35561 0
M  V30 1151 C 113.387 1.76933 3.15241 0
M  V30 1152 O 113.108 3.15932 3.03511 0
M  V30 1153 C 114.609 1.6995 4.09429 0
M  V30 1154 H 111.829 0.3923 0.544373 0
M  V30 1155 H 114.373 1.6544 1.20207 0
M  V30 1156 H 112.528 1.27895 3.6568 0
M  V30 1157 H 112.942 3.47598 3.9278 0
M  V30 1158 H 114.416 2.19753 5.06372 0
M  V30 1159 H 114.893 0.662619 4.34173 0
M  V30 1160 H 115.499 2.18461 3.64904 0
M  V30 1161 N 113.814 -1.1601 1.06675 0
M  V30 1162 C 115.054 -1.88304 0.795037 0
M  V30 1163 C 115.418 -1.80062 -0.666466 0
M  V30 1164 O 116.619 -2.47319 -1.05293 0
M  V30 1165 C 114.89 -3.33664 1.28076 0
M  V30 1166 S 116.449 -4.23768 1.13868 0
M  V30 1167 H 113.267 -0.649928 0.288296 0
M  V30 1168 H 115.869 -1.4001 1.36445 0
M  V30 1169 H 114.573 -3.37203 2.33927 0
M  V30 1170 H 114.104 -3.87009 0.706253 0
M  V30 1171 H 116.119 -4.96148 0.0719668 0
M  V30 1172 N 115.292 -0.849877 -1.32721 0
M  V30 1173 C 116.522 -0.46408 -2.0132 0
M  V30 1174 C 116.93 0.94246 -1.64056 0
M  V30 1175 O 116.273 1.6257 -0.855379 0
M  V30 1176 C 116.335 -0.517887 -3.5575 0
M  V30 1177 C 115.999 -1.88248 -4.16427 0
M  V30 1178 C 116.996 -2.84726 -4.35002 0
M  V30 1179 C 114.681 -2.17832 -4.52609 0
M  V30 1180 C 116.675 -4.08945 -4.8892 0
M  V30 1181 C 114.362 -3.42304 -5.06232 0
M  V30 1182 C 115.36 -4.37677 -5.24335 0
M  V30 1183 O 115.048 -5.59946 -5.76815 0
M  V30 1184 H 114.78 -0.181327 -0.651227 0
M  V30 1185 H 117.334 -1.14713 -1.70382 0
M  V30 1186 H 115.564 0.221997 -3.86062 0
M  V30 1187 H 117.253 -0.148366 -4.05629 0
M  V30 1188 H 118.019 -2.63174 -4.07388 0
M  V30 1189 H 113.898 -1.44385 -4.37806 0
M  V30 1190 H 117.442 -4.83396 -5.02966 0
M  V30 1191 H 113.339 -3.63709 -5.33278 0
M  V30 1192 H 114.107 -5.61838 -5.95214 0
M  V30 1193 N 116.77 1.45427 -0.607355 0
M  V30 1194 C 118.018 2.01841 -0.102253 0
M  V30 1195 C 118.339 1.47832 1.27164 0
M  V30 1196 O 117.609 0.672497 1.83995 0
M  V30 1197 H 116.189 0.746188 -0.0348101 0
M  V30 1198 H 118.851 1.78229 -0.7887 0
M  V30 1199 H 117.947 3.12057 -0.0518585 0
M  V30 1200 N 118.248 0.346503 1.53744 0
M  V30 1201 C 119.496 -0.248612 2.00565 0
M  V30 1202 C 119.817 -1.5083 1.23593 0
M  V30 1203 O 119.087 -1.92858 0.343912 0
M  V30 1204 H 117.667 -0.0948564 0.740953 0
M  V30 1205 H 120.329 0.468341 1.89189 0
M  V30 1206 H 119.425 -0.488994 3.08245 0
M  V30 1207 N 119.726 -1.57421 0.075193 0
M  V30 1208 C 120.951 -1.98364 -0.605515 0
M  V30 1209 C 121.376 -0.953383 -1.62149 0
M  V30 1210 O 120.734 0.0806053 -1.81121 0
M  V30 1211 C 120.782 -3.38332 -1.24756 0
M  V30 1212 O 119.886 -3.37959 -2.36342 0
M  V30 1213 H 119.227 -0.645553 -0.155428 0
M  V30 1214 H 121.757 -2.04044 0.150714 0
M  V30 1215 H 121.767 -3.75591 -1.5936 0
M  V30 1216 H 120.442 -4.12846 -0.503129 0
M  V30 1217 H 119.019 -3.12474 -2.03506 0
M  V30 1218 N 121.204 0.198386 -1.56346 0
M  V30 1219 C 122.62 0.549085 -1.49857 0
M  V30 1220 C 122.82 1.86016 -0.774611 0
M  V30 1221 O 121.876 2.50416 -0.323776 0
M  V30 1222 C 123.189 0.606868 -2.94512 0
M  V30 1223 C 124.737 0.695925 -3.05165 0
M  V30 1224 C 125.212 0.784848 -4.51225 0
M  V30 1225 N 126.703 0.848463 -4.55363 0
M  V30 1226 C 127.438 0.937378 -5.65686 0
M  V30 1227 N 126.934 0.9888 -6.85707 0
M  V30 1228 N 128.727 0.974312 -5.53592 0
M  V30 1229 H 120.878 -0.661655 -2.01831 0
M  V30 1230 H 123.141 -0.235261 -0.918344 0
M  V30 1231 H 122.847 -0.28732 -3.50524 0
M  V30 1232 H 122.721 1.46268 -3.47686 0
M  V30 1233 H 125.108 1.58055 -2.49204 0
M  V30 1234 H 125.189 -0.186022 -2.55123 0
M  V30 1235 H 124.833 -0.0954072 -5.0781 0
M  V30 1236 H 124.763 1.68255 -4.98997 0
M  V30 1237 H 127.254 0.818103 -3.68938 0
M  V30 1238 H 127.567 1.05707 -7.65536 0
M  V30 1239 H 125.912 0.957534 -6.88372 0
M  V30 1240 H 129.103 0.930954 -4.58749 0
M  V30 1241 H 129.276 1.04015 -6.39597 0
M  V30 1242 N 122.682 1.50554 0.465978 0
M  V30 1243 C 123.93 1.61479 1.21528 0
M  V30 1244 C 124.251 0.319596 1.92363 0
M  V30 1245 O 123.521 -0.663194 1.84333 0
M  V30 1246 H 122.101 0.595055 0.451573 0
M  V30 1247 H 124.763 1.87355 0.53704 0
M  V30 1248 H 123.859 2.42846 1.96042 0
M  V30 1249 N 124.16 -0.719506 1.40217 0
M  V30 1250 C 125.407 -1.47933 1.38283 0
M  V30 1251 C 125.735 -1.94493 -0.0161536 0
M  V30 1252 O 124.99 -1.68224 -0.999956 0
M  V30 1253 C 125.289 -2.72271 2.31524 0
M  V30 1254 C 124.955 -2.44496 3.78857 0
M  V30 1255 C 123.617 -2.36631 4.18998 0
M  V30 1256 C 125.969 -2.21104 4.71977 0
M  V30 1257 C 123.297 -2.03437 5.503 0
M  V30 1258 C 125.649 -1.89423 6.03574 0
M  V30 1259 C 124.313 -1.80038 6.42762 0
M  V30 1260 H 123.583 -0.541325 0.506012 0
M  V30 1261 H 126.23 -0.824502 1.72842 0
M  V30 1262 H 124.535 -3.42572 1.90137 0
M  V30 1263 H 126.232 -3.30348 2.27313 0
M  V30 1264 H 122.822 -2.51503 3.47051 0
M  V30 1265 H 127.006 -2.26139 4.41786 0
M  V30 1266 H 122.262 -1.94705 5.79569 0
M  V30 1267 H 126.436 -1.70336 6.75247 0
M  V30 1268 H 124.063 -1.54083 7.44421 0
M  V30 1269 N 125.638 -1.25649 -0.95132 0
M  V30 1270 C 126.586 -1.06118 -2.06982 0
M  V30 1271 C 127.58 0.00889169 -1.69398 0
M  V30 1272 O 128.786 -0.146988 -1.79399 0
M  V30 1273 H 125.161 -0.326248 -0.677544 0
M  V30 1274 H 127.132 -2.00932 -2.2061 0
M  V30 1275 C 125.881 -0.700145 -3.40578 0
M  V30 1276 H 125.204 -1.51537 -3.69968 0
M  V30 1277 H 126.644 -0.603211 -4.19687 0
M  V30 1278 C 125.103 0.59403 -3.31622 0
M  V30 1279 O 125.633 1.63522 -3.66911 0
M  V30 1280 N 123.839 0.58089 -2.84735 0
M  V30 1281 H 123.386 -0.266783 -2.56215 0
M  V30 1282 H 123.344 1.44695 -2.79125 0
M  V30 1283 N 127.117 1.15442 -1.07289 0
M  V30 1284 C 128.357 1.8788 -0.805012 0
M  V30 1285 C 128.721 1.80413 0.656907 0
M  V30 1286 O 129.922 2.47874 1.0398 0
M  V30 1287 C 128.193 3.3298 -1.29843 0
M  V30 1288 S 129.752 4.23158 -1.16114 0
M  V30 1289 H 126.57 0.64839 -0.291739 0
M  V30 1290 H 129.172 1.39285 -1.37186 0
M  V30 1291 H 127.876 3.35958 -2.35712 0
M  V30 1292 H 127.407 3.86629 -0.726767 0
M  V30 1293 H 129.422 4.96103 -0.0982778 0
M  V30 1294 N 128.595 0.856903 1.32268 0
M  V30 1295 C 129.505 0.306131 2.32594 0
M  V30 1296 C 130.521 -0.577209 1.64147 0
M  V30 1297 O 131.697 -0.477043 1.95669 0
M  V30 1298 C 128.762 -0.494561 3.43154 0
M  V30 1299 C 127.823 0.415186 4.27288 0
M  V30 1300 C 127.056 -0.347387 5.32568 0
M  V30 1301 O 127.279 -1.57708 5.48165 0
M  V30 1302 O 126.213 0.287982 6.01211 0
M  V30 1303 H 130.039 1.13737 2.81598 0
M  V30 1304 H 127.624 0.619902 1.35932 0
M  V30 1305 H 129.506 -0.948944 4.10576 0
M  V30 1306 H 128.181 -1.30257 2.96336 0
M  V30 1307 H 127.088 0.917793 3.62667 0
M  V30 1308 H 128.421 1.18844 4.77637 0
M  V30 1309 N 130.073 -1.45103 0.615059 0
M  V30 1310 C 131.298 -2.07064 0.117988 0
M  V30 1311 C 131.723 -1.4554 -1.19163 0
M  V30 1312 O 131.081 -0.550855 -1.72729 0
M  V30 1313 C 131.129 -3.606 -0.000288387 0
M  V30 1314 O 130.233 -3.98847 -1.04856 0
M  V30 1315 H 129.574 -0.659467 0.0774581 0
M  V30 1316 H 132.104 -1.86236 0.847186 0
M  V30 1317 H 132.114 -4.07529 -0.196091 0
M  V30 1318 H 130.789 -4.04765 0.955932 0
M  V30 1319 H 129.366 -3.63577 -0.828619 0
M  V30 1320 N 131.551 -0.354651 -1.53558 0
M  V30 1321 C 132.498 0.496968 -2.25386 0
M  V30 1322 C 133.468 1.0865 -1.25636 0
M  V30 1323 O 134.653 1.12104 -1.54394 0
M  V30 1324 C 131.793 1.63637 -3.03837 0
M  V30 1325 C 130.906 1.07307 -4.18461 0
M  V30 1326 C 130.041 2.18068 -4.84376 0
M  V30 1327 C 129.08 1.59147 -5.91049 0
M  V30 1328 N 128.217 2.63695 -6.50699 0
M  V30 1329 H 133.057 -0.122075 -2.9775 0
M  V30 1330 H 130.594 -0.0720154 -1.46924 0
M  V30 1331 H 132.552 2.30734 -3.47589 0
M  V30 1332 H 131.182 2.22623 -2.33749 0
M  V30 1333 H 130.234 0.292708 -3.79272 0
M  V30 1334 H 131.546 0.602193 -4.95152 0
M  V30 1335 H 130.7 2.93007 -5.31255 0
M  V30 1336 H 129.439 2.68504 -4.07133 0
M  V30 1337 H 128.444 0.827175 -5.43542 0
M  V30 1338 H 129.669 1.09549 -6.70206 0
M  V30 1339 H 127.615 3.13365 -5.76315 0
M  V30 1340 H 127.532 2.21263 -7.22896 0
M  V30 1341 H 128.8 3.3837 -7.02229 0
M  V30 1342 N 133.029 1.57378 -0.0835403 0
M  V30 1343 C 134.44 1.81261 0.447358 0
M  V30 1344 C 134.791 0.998331 1.68902 0
M  V30 1345 O 133.916 0.224282 2.15235 0
M  V30 1346 C 134.511 3.28767 0.818386 0
M  V30 1347 C 133.07 3.53455 1.29409 0
M  V30 1348 C 132.217 2.75831 0.285024 0
M  V30 1349 H 135.168 1.5566 -0.309115 0
M  V30 1350 H 135.189 3.41459 1.67887 0
M  V30 1351 H 134.701 3.88006 -0.0855019 0
M  V30 1352 H 132.802 2.99534 2.21608 0
M  V30 1353 H 132.915 4.62128 1.2639 0
M  V30 1354 H 131.279 2.42947 0.764767 0
M  V30 1355 H 132.062 3.37813 -0.611341 0
M  V30 1356 N 134.507 -0.190092 1.56449 0
M  V30 1357 C 135.417 -1.25591 1.98152 0
M  V30 1358 C 136.433 -1.49519 0.889944 0
M  V30 1359 O 137.609 -1.62036 1.19609 0
M  V30 1360 C 134.674 -2.57916 2.3169 0
M  V30 1361 C 133.735 -2.42015 3.5458 0
M  V30 1362 C 132.968 -3.6803 3.8651 0
M  V30 1363 O 133.191 -4.72413 3.1966 0
M  V30 1364 O 132.125 -3.6326 4.79923 0
M  V30 1365 H 135.951 -0.931988 2.89046 0
M  V30 1366 H 133.536 -0.395488 1.4407 0
M  V30 1367 H 135.418 -3.36008 2.54316 0
M  V30 1368 H 134.093 -2.89925 1.43963 0
M  V30 1369 H 133 -1.62017 3.37196 0
M  V30 1370 H 134.333 -2.14937 4.4279 0
M  V30 1371 N 135.985 -1.50799 -0.457987 0
M  V30 1372 C 136.948 -1.7005 -1.53674 0
M  V30 1373 C 137.948 -0.570881 -1.50325 0
M  V30 1374 O 139.138 -0.838126 -1.52712 0
M  V30 1375 C 136.27 -1.73788 -2.93276 0
M  V30 1376 H 137.463 -2.66306 -1.37917 0
M  V30 1377 H 135.016 -1.40477 -0.685271 0
M  V30 1378 H 135.751 -0.792717 -3.14462 0
M  V30 1379 H 135.536 -2.55864 -2.97113 0
M  V30 1380 H 137.026 -1.90591 -3.71571 0
M  V30 1381 N 137.463 0.71206 -1.40597 0
M  V30 1382 C 138.373 1.8562 -1.43466 0
M  V30 1383 C 139.389 1.70902 -0.326902 0
M  V30 1384 O 140.565 1.93105 -0.572043 0
M  V30 1385 C 137.63 3.21451 -1.29884 0
M  V30 1386 C 136.691 3.48398 -2.50833 0
M  V30 1387 C 135.924 4.77749 -2.3789 0
M  V30 1388 O 136.147 5.53089 -1.39459 0
M  V30 1389 O 135.081 5.05111 -3.27333 0
M  V30 1390 H 138.907 1.86155 -2.39958 0
M  V30 1391 H 136.492 0.86295 -1.21957 0
M  V30 1392 H 138.374 4.02579 -1.24531 0
M  V30 1393 H 137.049 3.21636 -0.364997 0
M  V30 1394 H 135.956 2.67265 -2.61763 0
M  V30 1395 H 137.289 3.53014 -3.4299 0
M  V30 1396 N 138.941 1.26152 0.944643 0
M  V30 1397 C 139.851 1.09176 2.07648 0
M  V30 1398 C 140.867 0.0261935 1.7398 0
M  V30 1399 O 142.043 0.229208 2.00091 0
M  V30 1400 C 139.108 0.722915 3.39079 0
M  V30 1401 C 138.169 1.86752 3.86552 0
M  V30 1402 C 137.402 1.51617 5.11711 0
M  V30 1403 O 137.625 0.416331 5.68879 0
M  V30 1404 O 136.559 2.34975 5.54139 0
M  V30 1405 H 140.385 2.0412 2.24875 0
M  V30 1406 H 137.97 1.05182 1.061 0
M  V30 1407 H 139.852 0.529787 4.18056 0
M  V30 1408 H 138.527 -0.197159 3.23099 0
M  V30 1409 H 137.434 2.11558 3.08535 0
M  V30 1410 H 138.767 2.76719 4.07047 0
M  V30 1411 N 140.419 -1.14872 1.07899 0
M  V30 1412 C 141.647 -1.89661 0.82683 0
M  V30 1413 C 142.062 -1.78312 -0.620519 0
M  V30 1414 O 141.419 -1.13888 -1.42604 0
M  V30 1415 C 141.47 -3.39817 1.23316 0
M  V30 1416 O 141.191 -3.50845 2.62372 0
M  V30 1417 C 142.692 -4.31615 1.0111 0
M  V30 1418 H 139.912 -0.60092 0.298557 0
M  V30 1419 H 142.456 -1.4551 1.43691 0
M  V30 1420 H 140.611 -3.8161 0.667286 0
M  V30 1421 H 141.025 -4.44076 2.79101 0
M  V30 1422 H 142.499 -5.35367 1.34486 0
M  V30 1423 H 142.976 -4.39169 -0.0522168 0
M  V30 1424 H 143.582 -3.95572 1.56215 0
M  V30 1425 N 141.898 -0.863906 -1.31812 0
M  V30 1426 C 143.138 -0.47825 -1.98726 0
M  V30 1427 C 143.502 0.950397 -1.66828 0
M  V30 1428 O 144.703 1.44109 -2.26905 0
M  V30 1429 C 142.974 -0.721134 -3.50049 0
M  V30 1430 S 144.533 -0.434432 -4.36644 0
M  V30 1431 H 141.351 -0.178773 -0.688158 0
M  V30 1432 H 143.953 -1.11862 -1.60334 0
M  V30 1433 H 142.657 -1.75981 -3.70755 0
M  V30 1434 H 142.188 -0.0675315 -3.93342 0
M  V30 1435 H 144.203 0.735786 -4.90714 0
M  V30 1436 N 143.376 1.44774 -0.622745 0
M  V30 1437 C 144.623 2.02121 -0.1239 0
M  V30 1438 C 144.951 1.48915 1.25118 0
M  V30 1439 O 144.206 0.660045 1.84233 0
M  V30 1440 C 144.505 3.57364 -0.0508323 0
M  V30 1441 C 144.171 4.29787 -1.36358 0
M  V30 1442 C 142.833 4.4929 -1.72314 0
M  V30 1443 C 145.185 4.71062 -2.23048 0
M  V30 1444 C 142.513 5.07325 -2.94682 0
M  V30 1445 C 144.865 5.30452 -3.44679 0
M  V30 1446 C 143.529 5.48175 -3.80868 0
M  V30 1447 H 142.799 0.739612 -0.0453381 0
M  V30 1448 H 145.446 1.73648 -0.807389 0
M  V30 1449 H 143.751 3.85202 0.715991 0
M  V30 1450 H 145.448 3.99456 0.351533 0
M  V30 1451 H 142.038 4.14932 -1.07375 0
M  V30 1452 H 146.222 4.55715 -1.96565 0
M  V30 1453 H 141.478 5.19235 -3.22809 0
M  V30 1454 H 145.652 5.61385 -4.12092 0
M  V30 1455 H 143.279 5.92912 -4.75773 0
M  V30 1456 N 144.854 0.36279 1.53368 0
M  V30 1457 C 146.131 -0.284021 1.93527 0
M  V30 1458 C 146.511 -1.66628 1.29608 0
M  V30 1459 O 145.859 -2.23942 0.45413 0
M  V30 1460 C 146.069 -0.337028 3.47369 0
M  V30 1461 C 147.417 -0.578708 4.20638 0
M  V30 1462 O 148.441 -0.418352 3.53735 0
M  V30 1463 O 147.3 -0.89074 5.39192 0
M  V30 1464 H 144.394 -0.169743 0.809393 0
M  V30 1465 H 146.94 0.41537 1.64538 0
M  V30 1466 H 145.712 0.632217 3.86159 0
M  V30 1467 H 145.335 -1.08243 3.82582 0
M  V30 1468 N 146.332 -1.57332 0.0918853 0
M  V30 1469 C 147.279 -2.13847 -0.868211 0
M  V30 1470 C 148.249 -1.05618 -1.28196 0
M  V30 1471 O 149.434 -1.33387 -1.36427 0
M  V30 1472 C 146.574 -2.72062 -2.12312 0
M  V30 1473 C 145.687 -3.94514 -1.7602 0
M  V30 1474 C 144.822 -4.40903 -2.96273 0
M  V30 1475 C 143.861 -5.55953 -2.56092 0
M  V30 1476 N 142.998 -5.97209 -3.69169 0
M  V30 1477 H 147.838 -2.95575 -0.379406 0
M  V30 1478 H 145.375 -1.46048 -0.175606 0
M  V30 1479 H 147.333 -3.03931 -2.858 0
M  V30 1480 H 145.963 -1.93068 -2.58698 0
M  V30 1481 H 145.015 -3.68979 -0.925135 0
M  V30 1482 H 146.327 -4.7802 -1.42472 0
M  V30 1483 H 145.481 -4.74539 -3.78018 0
M  V30 1484 H 144.22 -3.56291 -3.33029 0
M  V30 1485 H 143.225 -5.21948 -1.72773 0
M  V30 1486 H 144.45 -6.42311 -2.20484 0
M  V30 1487 H 142.396 -5.15543 -4.05649 0
M  V30 1488 H 142.313 -6.75504 -3.39456 0
M  V30 1489 H 143.581 -6.35475 -4.51434 0
M  V30 1490 N 147.81 0.181792 -1.56548 0
M  V30 1491 C 149.04 0.914618 -1.85252 0
M  V30 1492 C 149.448 1.76791 -0.673914 0
M  V30 1493 O 148.791 1.80009 0.366416 0
M  V30 1494 C 148.853 1.85019 -3.08234 0
M  V30 1495 C 148.517 1.17754 -4.41569 0
M  V30 1496 C 149.514 0.548035 -5.17003 0
M  V30 1497 C 147.199 1.17742 -4.88305 0
M  V30 1498 C 149.193 -0.0726128 -6.37359 0
M  V30 1499 C 146.88 0.552946 -6.08593 0
M  V30 1500 C 147.878 -0.070978 -6.82963 0
M  V30 1501 O 147.566 -0.685635 -8.00971 0
M  V30 1502 H 147.298 0.271695 -0.618998 0
M  V30 1503 H 149.852 0.189944 -2.0452 0
M  V30 1504 H 148.082 2.61491 -2.84885 0
M  V30 1505 H 149.771 2.45195 -3.23472 0
M  V30 1506 H 150.537 0.540174 -4.81982 0
M  V30 1507 H 146.416 1.65246 -4.30366 0
M  V30 1508 H 149.96 -0.560213 -6.95347 0
M  V30 1509 H 145.857 0.558354 -6.43081 0
M  V30 1510 H 146.625 -0.58385 -8.16415 0
M  V30 1511 N 149.288 1.51039 0.449983 0
M  V30 1512 C 150.516 1.66869 1.2232 0
M  V30 1513 C 150.931 0.360727 1.85322 0
M  V30 1514 O 150.288 -0.659531 1.70166 0
M  V30 1515 C 150.339 2.77524 2.31652 0
M  V30 1516 O 150.06 4.03252 1.7123 0
M  V30 1517 C 151.561 3.04512 3.2216 0
M  V30 1518 H 148.781 0.560326 0.369155 0
M  V30 1519 H 151.325 1.97385 0.534719 0
M  V30 1520 H 149.48 2.49642 2.96239 0
M  V30 1521 H 149.894 4.64609 2.43389 0
M  V30 1522 H 151.368 3.85551 3.95038 0
M  V30 1523 H 151.845 2.16415 3.8218 0
M  V30 1524 H 152.451 3.34005 2.63288 0
M  V30 1525 N 150.766 -0.704594 1.40972 0
M  V30 1526 C 152.014 -1.46169 1.39568 0
M  V30 1527 C 152.335 -1.95 0.00253745 0
M  V30 1528 O 151.605 -1.71095 -0.954114 0
M  V30 1529 H 150.185 -0.542326 0.513704 0
M  V30 1530 H 152.847 -0.834553 1.76128 0
M  V30 1531 H 151.943 -2.32922 2.07735 0
M  V30 1532 N 152.244 -1.26651 -0.937939 0
M  V30 1533 C 153.192 -1.08308 -2.05845 0
M  V30 1534 C 154.186 -0.0090757 -1.69398 0
M  V30 1535 O 155.392 -0.166007 -1.79233 0
M  V30 1536 H 151.767 -0.333416 -0.674046 0
M  V30 1537 H 153.738 -2.03261 -2.18467 0
M  V30 1538 C 152.487 -0.736229 -3.39816 0
M  V30 1539 H 151.81 -1.55453 -3.6834 0
M  V30 1540 H 153.25 -0.64769 -4.19024 0
M  V30 1541 C 151.709 0.558824 -3.32233 0
M  V30 1542 O 152.239 1.59621 -3.68624 0
M  V30 1543 N 150.445 0.550657 -2.85335 0
M  V30 1544 H 149.992 -0.293943 -2.55917 0
M  V30 1545 H 149.95 1.41726 -2.80644 0
M  V30 1546 N 153.722 1.14298 -1.08507 0
M  V30 1547 C 154.95 1.89219 -0.836876 0
M  V30 1548 C 155.365 1.78638 0.611054 0
M  V30 1549 O 154.722 1.14643 1.41998 0
M  V30 1550 C 154.773 3.39158 -1.25116 0
M  V30 1551 O 154.494 3.49449 -2.64229 0
M  V30 1552 C 155.995 4.31073 -1.03398 0
M  V30 1553 H 153.215 0.599328 -0.301739 0
M  V30 1554 H 155.759 1.44746 -1.44461 0
M  V30 1555 H 153.914 3.81251 -0.687514 0
M  V30 1556 H 154.328 4.42589 -2.81452 0
M  V30 1557 H 155.802 5.34646 -1.37323 0
M  V30 1558 H 156.279 4.3919 0.0289259 0
M  V30 1559 H 156.885 3.94738 -1.58311 0
M  V30 1560 N 155.201 0.870884 1.31352 0
M  V30 1561 C 156.431 0.496049 2.00557 0
M  V30 1562 C 156.839 -0.916241 1.65534 0
M  V30 1563 O 156.182 -1.61188 0.881134 0
M  V30 1564 C 156.244 0.574418 3.54881 0
M  V30 1565 C 155.908 1.94849 4.1338 0
M  V30 1566 C 156.905 2.91611 4.30417 0
M  V30 1567 C 154.59 2.25005 4.49086 0
M  V30 1568 C 156.584 4.16672 4.82352 0
M  V30 1569 C 154.271 3.50315 5.00722 0
M  V30 1570 C 155.269 4.45964 5.17306 0
M  V30 1571 O 154.957 5.69052 5.67833 0
M  V30 1572 H 154.689 0.191664 0.64826 0
M  V30 1573 H 157.243 1.17409 1.68536 0
M  V30 1574 H 155.473 -0.160549 3.86367 0
M  V30 1575 H 157.162 0.212879 4.05341 0
M  V30 1576 H 157.928 2.69622 4.03149 0
M  V30 1577 H 153.807 1.51332 4.35453 0
M  V30 1578 H 157.351 4.91336 4.95211 0
M  V30 1579 H 153.248 3.72147 5.27424 0
M  V30 1580 H 154.016 5.71236 5.86201 0
M  V30 1581 N 156.679 -1.44442 0.630414 0
M  V30 1582 C 158.095 -1.56832 0.295973 0
M  V30 1583 C 158.295 -1.61806 -1.20088 0
M  V30 1584 O 157.351 -1.5607 -1.9849 0
M  V30 1585 C 158.664 -2.84031 0.987264 0
M  V30 1586 C 160.212 -2.97742 0.96534 0
M  V30 1587 C 160.687 -4.27743 1.63708 0
M  V30 1588 N 162.178 -4.34555 1.60364 0
M  V30 1589 C 162.913 -5.33862 2.09234 0
M  V30 1590 N 162.409 -6.39578 2.66292 0
M  V30 1591 N 164.202 -5.25366 1.99867 0
M  V30 1592 H 156.353 -1.39457 1.60205 0
M  V30 1593 H 158.616 -0.668237 0.672431 0
M  V30 1594 H 158.322 -2.86338 2.04215 0
M  V30 1595 H 158.196 -3.73534 0.524588 0
M  V30 1596 H 160.583 -2.94989 -0.0810639 0
M  V30 1597 H 160.664 -2.09589 1.4665 0
M  V30 1598 H 160.308 -4.31255 2.68293 0
M  V30 1599 H 160.238 -5.14752 1.11076 0
M  V30 1600 H 162.729 -3.58772 1.18705 0
M  V30 1601 H 163.042 -7.11637 3.01317 0
M  V30 1602 H 161.387 -6.40265 2.70343 0
M  V30 1603 H 164.578 -4.41688 1.55013 0
M  V30 1604 H 164.751 -6.02606 2.38265 0
M  V30 1605 N 158.157 -0.370918 -1.53173 0
M  V30 1606 C 159.403 0.217423 -2.01631 0
M  V30 1607 C 159.736 1.47983 -1.25756 0
M  V30 1608 O 159.011 1.91274 -0.352764 0
M  V30 1609 C 159.294 0.503982 -3.56556 0
M  V30 1610 C 159.147 -0.77243 -4.43118 0
M  V30 1611 C 160.466 1.30234 -4.20389 0
M  V30 1612 H 157.585 0.0775486 -0.732909 0
M  V30 1613 H 160.227 -0.496863 -1.83388 0
M  V30 1614 H 158.377 1.11248 -3.72231 0
M  V30 1615 H 160.049 -1.4098 -4.39229 0
M  V30 1616 H 158.292 -1.39167 -4.10871 0
M  V30 1617 H 158.963 -0.526815 -5.4948 0
M  V30 1618 H 161.439 0.787546 -4.08579 0
M  V30 1619 H 160.315 1.47158 -5.28806 0
M  V30 1620 H 160.576 2.31237 -3.76805 0
M  V30 1621 N 159.635 1.57281 -0.100228 0
M  V30 1622 C 160.883 1.94153 0.561157 0
M  V30 1623 C 161.204 0.983157 1.68401 0
M  V30 1624 O 160.474 0.0361132 1.95867 0
M  V30 1625 H 159.054 0.716791 0.210283 0
M  V30 1626 H 161.716 1.94202 -0.164765 0
M  V30 1627 H 160.812 2.96709 0.968008 0
M  V30 1628 N 161.113 -0.173488 1.56642 0
M  V30 1629 C 162.39 -0.917617 1.7274 0
M  V30 1630 C 162.77 -2.00484 0.661027 0
M  V30 1631 O 162.118 -2.26184 -0.32453 0
M  V30 1632 C 162.328 -1.48433 3.15862 0
M  V30 1633 C 163.676 -1.95809 3.76754 0
M  V30 1634 O 164.7 -1.58231 3.19126 0
M  V30 1635 O 163.559 -2.65024 4.77938 0
M  V30 1636 H 160.653 -0.431772 0.705338 0
M  V30 1637 H 163.199 -0.161487 1.6893 0
M  V30 1638 H 161.971 -0.701715 3.84957 0
M  V30 1639 H 161.594 -2.30471 3.23989 0
M  V30 1640 N 162.591 -1.51276 -0.441967 0
M  V30 1641 C 163.819 -1.67516 -1.21434 0
M  V30 1642 C 164.234 -0.37055 -1.85128 0
M  V30 1643 O 163.591 0.650498 -1.70513 0
M  V30 1644 C 163.642 -2.78748 -2.30177 0
M  V30 1645 O 163.363 -4.04154 -1.69089 0
M  V30 1646 C 164.864 -3.06217 -3.20541 0
M  V30 1647 H 162.084 -0.562276 -0.366178 0
M  V30 1648 H 164.628 -1.97666 -0.524244 0
M  V30 1649 H 162.783 -2.5121 -2.94911 0
M  V30 1650 H 163.197 -4.65894 -2.40922 0
M  V30 1651 H 164.671 -3.8764 -3.92987 0
M  V30 1652 H 165.148 -2.18439 -3.81026 0
M  V30 1653 H 165.754 -3.35397 -2.61513 0
M  V30 1654 N 164.069 0.697108 -1.41344 0
M  V30 1655 C 165.299 1.48377 -1.43763 0
M  V30 1656 C 165.707 1.89156 -0.0408726 0
M  V30 1657 O 165.05 1.57239 0.949812 0
M  V30 1658 C 165.112 2.7781 -2.2817 0
M  V30 1659 C 164.776 2.59244 -3.76353 0
M  V30 1660 C 165.773 2.25292 -4.68551 0
M  V30 1661 C 163.458 2.74933 -4.20378 0
M  V30 1662 C 165.452 2.07264 -6.02761 0
M  V30 1663 C 163.139 2.56521 -5.54653 0
M  V30 1664 C 164.137 2.22737 -6.4566 0
M  V30 1665 O 163.825 2.04485 -7.77458 0
M  V30 1666 H 163.557 0.463842 -0.491759 0
M  V30 1667 H 166.111 0.865934 -1.86255 0
M  V30 1668 H 164.341 3.41995 -1.8049 0
M  V30 1669 H 166.03 3.39608 -2.22309 0
M  V30 1670 H 166.796 2.12787 -4.35829 0
M  V30 1671 H 162.675 3.00213 -3.49848 0
M  V30 1672 H 166.219 1.80817 -6.73759 0
M  V30 1673 H 162.116 2.68616 -5.86955 0
M  V30 1674 H 162.884 2.1926 -7.88586 0
M  V30 1675 N 165.547 1.27147 0.931209 0
M  V30 1676 C 166.457 1.11372 2.06478 0
M  V30 1677 C 167.473 0.044645 1.73943 0
M  V30 1678 O 168.649 0.250417 1.99837 0
M  V30 1679 C 165.714 0.758838 3.38294 0
M  V30 1680 C 164.775 1.90841 3.84549 0
M  V30 1681 C 164.008 1.57036 5.10074 0
M  V30 1682 O 164.231 0.476645 5.68405 0
M  V30 1683 O 163.165 2.40839 5.51616 0
M  V30 1684 H 166.991 2.06493 2.22698 0
M  V30 1685 H 164.576 1.06301 1.04978 0
M  V30 1686 H 166.458 0.574098 4.17471 0
M  V30 1687 H 165.133 -0.162879 3.2329 0
M  V30 1688 H 164.04 2.14819 3.06274 0
M  V30 1689 H 165.373 2.81021 4.04089 0
M  V30 1690 N 167.025 -1.13721 1.09112 0
M  V30 1691 C 168.441 -1.36914 0.820174 0
M  V30 1692 C 168.641 -1.93356 -0.567079 0
M  V30 1693 O 167.697 -2.15093 -1.32255 0
M  V30 1694 C 169.01 -2.3235 1.90877 0
M  V30 1695 C 170.558 -2.45973 1.93562 0
M  V30 1696 C 171.033 -3.44714 3.01556 0
M  V30 1697 N 172.524 -3.52263 3.00775 0
M  V30 1698 C 173.259 -4.28536 3.80978 0
M  V30 1699 N 172.755 -5.07991 4.71081 0
M  V30 1700 N 174.548 -4.23804 3.69251 0
M  V30 1701 H 166.699 -0.754348 1.98553 0
M  V30 1702 H 168.962 -0.3944 0.862063 0
M  V30 1703 H 168.668 -1.98027 2.90651 0
M  V30 1704 H 168.542 -3.32332 1.78424 0
M  V30 1705 H 170.929 -2.79584 0.944286 0
M  V30 1706 H 171.01 -1.45926 2.10093 0
M  V30 1707 H 170.654 -3.11835 4.00901 0
M  V30 1708 H 170.584 -4.44558 2.82269 0
M  V30 1709 H 173.075 -2.95567 2.35475 0
M  V30 1710 H 173.388 -5.63487 5.28869 0
M  V30 1711 H 171.733 -5.07235 4.75119 0
M  V30 1712 H 174.924 -3.60806 2.98222 0
M  V30 1713 H 175.097 -4.82995 4.31995 0
M  V30 1714 N 168.503 -0.877838 -1.30888 0
M  V30 1715 C 169.914 -0.544193 -1.78593 0
M  V30 1716 C 170.265 0.939301 -1.72254 0
M  V30 1717 O 169.39 1.7337 -1.29505 0
M  V30 1718 C 169.985 -0.98105 -3.24285 0
M  V30 1719 C 168.544 -0.698935 -3.69854 0
M  V30 1720 C 167.691 -1.168 -2.51502 0
M  V30 1721 H 170.642 -1.06278 -1.17859 0
M  V30 1722 H 170.663 -0.307009 -3.79259 0
M  V30 1723 H 170.175 -2.06079 -3.28866 0
M  V30 1724 H 168.276 0.369112 -3.70767 0
M  V30 1725 H 168.389 -1.28148 -4.61644 0
M  V30 1726 H 166.753 -0.587535 -2.47831 0
M  V30 1727 H 167.536 -2.25533 -2.58824 0
M  V30 1728 N 169.982 1.44106 -0.638065 0
M  V30 1729 C 170.929 2.30715 0.062701 0
M  V30 1730 C 171.899 1.43882 0.829883 0
M  V30 1731 O 173.084 1.72775 0.809532 0
M  V30 1732 C 170.224 3.29258 1.03358 0
M  V30 1733 C 169.337 4.31192 0.26409 0
M  V30 1734 C 168.472 5.16825 1.22741 0
M  V30 1735 C 167.511 6.10462 0.447475 0
M  V30 1736 N 166.648 6.8877 1.36161 0
M  V30 1737 H 171.488 2.90096 -0.681781 0
M  V30 1738 H 169.025 1.42925 -0.347988 0
M  V30 1739 H 170.983 3.84886 1.60992 0
M  V30 1740 H 169.613 2.71562 1.74511 0
M  V30 1741 H 168.665 3.77981 -0.428295 0
M  V30 1742 H 169.977 4.97619 -0.343052 0
M  V30 1743 H 169.131 5.77004 1.87487 0
M  V30 1744 H 167.87 4.50488 1.86847 0
M  V30 1745 H 166.875 5.49386 -0.213433 0
M  V30 1746 H 168.1 6.78837 -0.188968 0
M  V30 1747 H 166.046 6.25096 1.98975 0
M  V30 1748 H 165.963 7.51663 0.808656 0
M  V30 1749 H 167.231 7.53467 1.99769 0
M  V30 1750 N 171.46 0.379036 1.52974 0
M  V30 1751 C 172.737 -0.263479 1.93817 0
M  V30 1752 C 173.117 -1.65244 1.31368 0
M  V30 1753 O 172.465 -2.23448 0.477856 0
M  V30 1754 C 172.675 -0.300166 3.47707 0
M  V30 1755 C 174.023 -0.534061 4.21228 0
M  V30 1756 O 175.047 -0.38081 3.54159 0
M  V30 1757 O 173.906 -0.833501 5.40106 0
M  V30 1758 H 171 -0.161149 0.811147 0
M  V30 1759 H 173.546 0.432798 1.64088 0
M  V30 1760 H 172.318 0.673138 3.85467 0
M  V30 1761 H 171.941 -1.04179 3.83709 0
M  V30 1762 N 172.938 -1.57226 0.108567 0
M  V30 1763 C 174.163 -1.99604 -0.563303 0
M  V30 1764 C 174.588 -0.987563 -1.6009 0
M  V30 1765 O 173.946 0.0421687 -1.81251 0
M  V30 1766 C 173.994 -3.40902 -1.17552 0
M  V30 1767 O 173.098 -3.42896 -2.2912 0
M  V30 1768 H 172.439 -0.648704 -0.1417 0
M  V30 1769 H 174.969 -2.03679 0.193961 0
M  V30 1770 H 174.979 -3.78886 -1.51357 0
M  V30 1771 H 173.654 -4.1382 -0.415445 0
M  V30 1772 H 172.231 -3.1672 -1.96832 0
M  V30 1773 N 174.416 0.165178 -1.56732 0
M  V30 1774 C 175.349 1.23336 -1.91998 0
M  V30 1775 C 176.327 1.42476 -0.783531 0
M  V30 1776 O 177.511 1.57384 -1.03743 0
M  V30 1777 C 174.638 2.59533 -2.17625 0
M  V30 1778 C 173.684 2.57093 -3.40302 0
M  V30 1779 S 174.517 2.05571 -4.9447 0
M  V30 1780 C 175.673 3.43532 -5.23198 0
M  V30 1781 H 175.906 0.932387 -2.82301 0
M  V30 1782 H 173.439 0.370013 -1.49901 0
M  V30 1783 H 175.397 3.37918 -2.3307 0
M  V30 1784 H 174.058 2.86827 -1.28019 0
M  V30 1785 H 173.251 3.57308 -3.55453 0
M  V30 1786 H 172.853 1.86806 -3.24005 0
M  V30 1787 H 175.145 4.39559 -5.15552 0
M  V30 1788 H 176.088 3.33251 -6.2478 0
M  V30 1789 H 176.496 3.39828 -4.50752 0
M  V30 1790 N 175.894 1.51508 0.433938 0
M  V30 1791 C 177.143 1.63578 1.18005 0
M  V30 1792 C 177.456 0.359514 1.92268 0
M  V30 1793 O 178.662 0.359632 2.69108 0
M  V30 1794 C 177.118 2.88901 2.14626 0
M  V30 1795 C 176.726 4.23544 1.45995 0
M  V30 1796 C 178.47 3.10328 2.89649 0
M  V30 1797 C 176.377 5.40014 2.4112 0
M  V30 1798 H 175.307 0.609277 0.444182 0
M  V30 1799 H 177.958 1.77978 0.446773 0
M  V30 1800 H 176.34 2.68142 2.91403 0
M  V30 1801 H 177.514 4.54696 0.747532 0
M  V30 1802 H 175.829 4.08021 0.831115 0
M  V30 1803 H 178.426 3.94518 3.60915 0
M  V30 1804 H 178.769 2.23544 3.51189 0
M  V30 1805 H 179.302 3.31443 2.19978 0
M  V30 1806 H 176.041 6.29068 1.84264 0
M  V30 1807 H 175.561 5.13233 3.10406 0
M  V30 1808 H 177.24 5.72099 3.02177 0
M  V30 1809 N 177.372 -0.689602 1.41712 0
M  V30 1810 C 178.618 -1.45041 1.42599 0
M  V30 1811 C 178.973 -1.92366 0.0363764 0
M  V30 1812 O 178.266 -1.67022 -0.938844 0
M  V30 1813 C 178.46 -2.67298 2.37247 0
M  V30 1814 C 178.289 -2.31935 3.85274 0
M  V30 1815 C 177.059 -2.2201 4.53916 0
M  V30 1816 C 179.257 -1.94526 4.76093 0
M  V30 1817 N 177.239 -1.79594 5.87043 0
M  V30 1818 C 178.61 -1.62915 5.98213 0
M  V30 1819 C 180.665 -1.81388 4.63684 0
M  V30 1820 C 179.368 -1.19486 7.09306 0
M  V30 1821 C 181.394 -1.39364 5.74745 0
M  V30 1822 C 180.756 -1.08668 6.95967 0
M  V30 1823 H 176.855 -0.527806 0.577014 0
M  V30 1824 H 179.439 -0.797266 1.77628 0
M  V30 1825 H 177.61 -3.30325 2.04304 0
M  V30 1826 H 179.342 -3.33806 2.28814 0
M  V30 1827 H 176.097 -2.406 4.07932 0
M  V30 1828 H 176.521 -1.60851 6.57614 0
M  V30 1829 H 181.163 -2.03772 3.70455 0
M  V30 1830 H 178.881 -0.958477 8.02396 0
M  V30 1831 H 182.467 -1.2974 5.6715 0
M  V30 1832 H 181.347 -0.766417 7.80446 0
M  V30 1833 N 178.85 -1.27639 -0.924453 0
M  V30 1834 C 180.127 -1.04887 -1.651 0
M  V30 1835 C 180.507 0.415327 -2.06974 0
M  V30 1836 O 179.855 1.39923 -1.80648 0
M  V30 1837 C 180.065 -2.01348 -2.85061 0
M  V30 1838 C 181.413 -2.30899 -3.56329 0
M  V30 1839 O 182.437 -1.99348 -2.95193 0
M  V30 1840 O 181.296 -2.84699 -4.66485 0
M  V30 1841 H 178.39 -0.400083 -0.723784 0
M  V30 1842 H 180.936 -1.38916 -0.974703 0
M  V30 1843 H 179.708 -3.0008 -2.51133 0
M  V30 1844 H 179.331 -1.679 -3.6041 0
M  V30 1845 N 180.328 1.1314 -1.09713 0
M  V30 1846 C 181.568 1.8613 -0.844683 0
M  V30 1847 C 181.932 1.81765 0.618491 0
M  V30 1848 O 183.133 2.50024 0.98699 0
M  V30 1849 C 181.404 3.30151 -1.36877 0
M  V30 1850 S 182.963 4.206 -1.25064 0
M  V30 1851 H 179.781 0.642056 -0.305427 0
M  V30 1852 H 182.383 1.36343 -1.4011 0
M  V30 1853 H 181.087 3.30883 -2.42786 0
M  V30 1854 H 180.618 3.85 -0.808614 0
M  V30 1855 H 182.633 4.95783 -0.203486 0
M  V30 1856 N 181.806 0.884767 1.30421 0
M  V30 1857 C 183.034 0.518044 2.0031 0
M  V30 1858 C 183.449 -0.893408 1.66324 0
M  V30 1859 O 182.806 -1.5875 0.900262 0
M  V30 1860 C 182.857 0.682997 3.54989 0
M  V30 1861 O 182.578 2.03888 3.87764 0
M  V30 1862 C 184.079 0.31924 4.42149 0
M  V30 1863 H 181.299 0.200265 0.640418 0
M  V30 1864 H 183.843 1.19001 1.6631 0
M  V30 1865 H 181.998 0.0584052 3.87356 0
M  V30 1866 H 182.412 2.05735 4.82466 0
M  V30 1867 H 183.886 0.485555 5.4986 0
M  V30 1868 H 184.363 -0.742717 4.32875 0
M  V30 1869 H 184.969 0.920147 4.15227 0
M  V30 1870 N 183.284 -1.43765 0.645699 0
M  V30 1871 C 184.524 -2.03776 0.159542 0
M  V30 1872 C 184.888 -1.49792 -1.2011 0
M  V30 1873 O 186.089 -2.01398 -1.78023 0
M  V30 1874 C 184.36 -3.57036 0.161251 0
M  V30 1875 S 185.919 -4.3804 -0.258159 0
M  V30 1876 H 182.737 -0.707717 0.0682454 0
M  V30 1877 H 185.339 -1.75941 0.852352 0
M  V30 1878 H 184.043 -3.9383 1.15439 0
M  V30 1879 H 183.574 -3.89503 -0.552339 0
M  V30 1880 H 185.589 -4.7302 -1.49889 0
M  V30 1881 N 184.763 -0.387143 -1.52771 0
M  V30 1882 C 186.012 0.19697 -2.00736 0
M  V30 1883 C 186.325 1.48082 -1.27793 0
M  V30 1884 O 187.531 2.14485 -1.66458 0
M  V30 1885 C 185.987 0.401568 -3.57653 0
M  V30 1886 C 185.595 -0.868907 -4.39493 0
M  V30 1887 C 187.339 0.942164 -4.13912 0
M  V30 1888 C 185.246 -0.632705 -5.88006 0
M  V30 1889 H 184.176 0.0773827 -0.750019 0
M  V30 1890 H 186.827 -0.50921 -1.76293 0
M  V30 1891 H 185.209 1.16954 -3.78335 0
M  V30 1892 H 186.383 -1.64133 -4.30577 0
M  V30 1893 H 184.698 -1.33429 -3.94443 0
M  V30 1894 H 187.295 1.13455 -5.22525 0
M  V30 1895 H 187.638 1.9106 -3.69867 0
M  V30 1896 H 188.171 0.233814 -3.97112 0
M  V30 1897 H 184.91 -1.57208 -6.36369 0
M  V30 1898 H 184.43 0.100825 -5.99715 0
M  V30 1899 H 186.109 -0.26642 -6.46451 0
M  V30 1900 N 186.241 1.57166 -0.116904 0
M  V30 1901 C 187.489 1.94737 0.540533 0
M  V30 1902 C 187.81 1.00096 1.67349 0
M  V30 1903 O 187.08 0.0568854 1.95817 0
M  V30 1904 H 185.66 0.718981 0.202669 0
M  V30 1905 H 188.322 1.94017 -0.185353 0
M  V30 1906 H 187.418 2.97719 0.936483 0
M  V30 1907 N 187.719 -0.156864 1.56817 0
M  V30 1908 C 188.682 -1.17781 1.96622 0
M  V30 1909 C 189.682 -1.36401 0.851555 0
M  V30 1910 O 190.872 -1.33561 1.11836 0
M  V30 1911 C 188.004 -2.54008 2.27361 0
M  V30 1912 H 189.197 -0.836564 2.87996 0
M  V30 1913 H 186.75 -0.39985 1.51099 0
M  V30 1914 H 187.485 -2.9312 1.38748 0
M  V30 1915 H 187.27 -2.41856 3.08623 0
M  V30 1916 H 188.76 -3.27558 2.59029 0
M  V30 1917 N 189.197 -1.51736 -0.425897 0
M  V30 1918 C 190.445 -1.64644 -1.17204 0
M  V30 1919 C 190.766 -0.370486 -1.91448 0
M  V30 1920 O 190.036 0.614088 -1.86026 0
M  V30 1921 H 188.616 -0.606819 -0.435638 0
M  V30 1922 H 191.278 -1.88713 -0.487177 0
M  V30 1923 H 190.374 -2.47958 -1.89534 0
M  V30 1924 N 190.675 0.682077 -1.42076 0
M  V30 1925 C 192.091 0.994324 -1.24841 0
M  V30 1926 C 192.291 2.0096 -0.147389 0
M  V30 1927 O 191.347 2.47822 0.483782 0
M  V30 1928 C 192.66 1.50607 -2.60265 0
M  V30 1929 C 194.208 1.62421 -2.6756 0
M  V30 1930 C 194.683 2.16994 -4.03333 0
M  V30 1931 N 196.174 2.24337 -4.0525 0
M  V30 1932 C 196.909 2.67621 -5.07116 0
M  V30 1933 N 196.405 3.1041 -6.19368 0
M  V30 1934 N 198.198 2.67305 -4.94474 0
M  V30 1935 H 190.349 0.00973908 -2.12398 0
M  V30 1936 H 192.612 0.0668593 -0.945639 0
M  V30 1937 H 192.318 0.834583 -3.41654 0
M  V30 1938 H 192.192 2.48602 -2.83684 0
M  V30 1939 H 194.579 2.28678 -1.86521 0
M  V30 1940 H 194.66 0.629352 -2.47937 0
M  V30 1941 H 194.304 1.51349 -4.84826 0
M  V30 1942 H 194.234 3.17258 -4.20304 0
M  V30 1943 H 196.725 1.94158 -3.24209 0
M  V30 1944 H 197.038 3.42103 -6.92954 0
M  V30 1945 H 195.383 3.08286 -6.22884 0
M  V30 1946 H 198.574 2.33233 -4.05857 0
M  V30 1947 H 198.747 3.00718 -5.73997 0
M  V30 1948 N 192.153 1.28127 0.917671 0
M  V30 1949 C 193.401 1.14825 1.66312 0
M  V30 1950 C 193.722 -0.304379 1.9261 0
M  V30 1951 O 192.992 -1.21149 1.53947 0
M  V30 1952 H 191.572 0.421953 0.616413 0
M  V30 1953 H 194.234 1.608 1.10134 0
M  V30 1954 H 193.33 1.68489 2.62712 0
M  V30 1955 N 193.631 -1.12557 1.10312 0
M  V30 1956 C 195.047 -1.36036 0.834649 0
M  V30 1957 C 195.247 -1.93946 -0.546539 0
M  V30 1958 O 194.303 -2.16484 -1.29966 0
M  V30 1959 C 195.616 -2.30312 1.9333 0
M  V30 1960 C 197.164 -2.43906 1.9616 0
M  V30 1961 C 197.639 -3.41496 3.05195 0
M  V30 1962 N 199.13 -3.49053 3.04494 0
M  V30 1963 C 199.865 -4.24471 3.85502 0
M  V30 1964 N 199.361 -5.02966 4.76442 0
M  V30 1965 N 201.154 -4.19864 3.73725 0
M  V30 1966 H 193.305 -0.733246 1.99342 0
M  V30 1967 H 195.568 -0.385234 0.866198 0
M  V30 1968 H 195.274 -1.94933 2.92735 0
M  V30 1969 H 195.148 -3.30421 1.81939 0
M  V30 1970 H 197.535 -2.78567 0.973886 0
M  V30 1971 H 197.616 -1.4369 2.11629 0
M  V30 1972 H 197.26 -3.07565 4.04186 0
M  V30 1973 H 197.19 -4.41539 2.86968 0
M  V30 1974 H 199.681 -2.93053 2.38596 0
M  V30 1975 H 199.994 -5.57846 5.34815 0
M  V30 1976 H 198.339 -5.02167 4.80472 0
M  V30 1977 H 201.53 -3.57623 3.02032 0
M  V30 1978 H 201.703 -4.78386 4.37093 0
M  V30 1979 N 195.109 -0.891671 -1.2995 0
M  V30 1980 C 196.358 -0.509521 -1.95158 0
M  V30 1981 C 196.671 0.947388 -1.71125 0
M  V30 1982 O 197.877 1.43669 -2.30372 0
M  V30 1983 C 196.333 -0.860315 -3.49466 0
M  V30 1984 C 195.941 -2.33545 -3.8231 0
M  V30 1985 C 197.685 -0.547687 -4.20952 0
M  V30 1986 C 195.592 -2.62752 -5.29826 0
M  V30 1987 H 194.522 -0.18682 -0.730489 0
M  V30 1988 H 197.173 -1.08756 -1.47798 0
M  V30 1989 H 195.555 -0.211285 -3.95436 0
M  V30 1990 H 196.729 -3.02936 -3.47227 0
M  V30 1991 H 195.044 -2.61629 -3.23944 0
M  V30 1992 H 197.641 -0.742854 -5.29515 0
M  V30 1993 H 197.984 0.51332 -4.13123 0
M  V30 1994 H 198.517 -1.1542 -3.80688 0
M  V30 1995 H 195.256 -3.6762 -5.42712 0
M  V30 1996 H 194.776 -1.97977 -5.66185 0
M  V30 1997 H 196.455 -2.48601 -5.97333 0
M  V30 1998 N 196.587 1.43421 -0.653314 0
M  V30 1999 C 197.812 2.06678 -0.172846 0
M  V30 2000 C 198.237 1.48648 1.15262 0
M  V30 2001 O 197.595 0.596457 1.71208 0
M  V30 2002 C 197.643 3.60474 -0.0953184 0
M  V30 2003 O 196.747 4.01487 0.942442 0
M  V30 2004 H 196.088 0.657181 -0.0949155 0
M  V30 2005 H 198.618 1.83925 -0.896265 0
M  V30 2006 H 198.628 4.07905 0.0879728 0
M  V30 2007 H 197.303 4.02088 -1.06291 0
M  V30 2008 H 195.88 3.65646 0.731932 0
M  V30 2009 N 198.065 0.39524 1.52563 0
M  V30 2010 C 199.305 -0.184744 2.03563 0
M  V30 2011 C 199.669 -1.43548 1.27507 0
M  V30 2012 O 200.87 -2.093 1.68662 0
M  V30 2013 C 199.141 -0.440294 3.54678 0
M  V30 2014 S 200.7 -0.989712 4.27493 0
M  V30 2015 H 197.518 -0.0515075 0.709132 0
M  V30 2016 H 200.12 0.544957 1.87751 0
M  V30 2017 H 198.824 0.477005 4.07618 0
M  V30 2018 H 198.355 -1.19825 3.74707 0
M  V30 2019 H 200.37 -2.27155 4.41152 0
M  V30 2020 N 199.544 -1.57102 0.125237 0
M  V30 2021 C 200.772 -1.99761 -0.538797 0
M  V30 2022 C 201.187 -1.00503 -1.59827 0
M  V30 2023 O 200.544 0.00119474 -1.825 0
M  V30 2024 C 200.595 -3.42408 -1.15927 0
M  V30 2025 O 200.316 -4.37869 -0.142143 0
M  V30 2026 C 201.817 -4.00232 -1.90602 0
M  V30 2027 H 199.037 -0.655772 -0.14214 0
M  V30 2028 H 201.581 -2.03383 0.213413 0
M  V30 2029 H 199.736 -3.39706 -1.86223 0
M  V30 2030 H 200.15 -5.21128 -0.593775 0
M  V30 2031 H 201.624 -5.02105 -2.29335 0
M  V30 2032 H 202.101 -3.39721 -2.78363 0
M  V30 2033 H 202.707 -4.06499 -1.25055 0
M  V30 2034 N 201.022 0.148545 -1.56898 0
M  V30 2035 C 202.271 0.85984 -1.82454 0
M  V30 2036 C 202.584 1.82406 -0.706229 0
M  V30 2037 O 203.79 2.57938 -0.847349 0
M  V30 2038 C 202.246 1.57967 -3.2338 0
M  V30 2039 C 201.854 0.65794 -4.43142 0
M  V30 2040 C 203.598 2.27784 -3.58211 0
M  V30 2041 C 201.505 1.3793 -5.75091 0
M  V30 2042 H 200.435 0.324834 -0.68044 0
M  V30 2043 H 203.086 0.112588 -1.83154 0
M  V30 2044 H 201.468 2.37249 -3.17063 0
M  V30 2045 H 202.642 -0.0995497 -4.60692 0
M  V30 2046 H 200.957 0.0682643 -4.16344 0
M  V30 2047 H 203.554 2.8239 -4.54048 0
M  V30 2048 H 203.897 3.04204 -2.84193 0
M  V30 2049 H 204.43 1.55421 -3.66182 0
M  V30 2050 H 201.169 0.656982 -6.52199 0
M  V30 2051 H 200.689 2.10954 -5.61479 0
M  V30 2052 H 202.368 1.92063 -6.17835 0
M  V30 2053 N 202.5 1.5196 0.417844 0
M  V30 2054 C 203.463 1.74065 1.49111 0
M  V30 2055 C 204.463 0.610537 1.48758 0
M  V30 2056 O 205.653 0.87832 1.50437 0
M  V30 2057 C 202.785 1.81502 2.88565 0
M  V30 2058 H 203.978 2.69869 1.30807 0
M  V30 2059 H 201.531 1.42244 0.647785 0
M  V30 2060 H 202.266 0.875813 3.1225 0
M  V30 2061 H 202.051 2.63651 2.90225 0
M  V30 2062 H 203.541 2.00376 3.66387 0
M  V30 2063 N 203.978 -0.674533 1.42435 0
M  V30 2064 C 204.926 -1.80934 1.46169 0
M  V30 2065 C 205.92 -1.66006 0.3374 0
M  V30 2066 O 207.126 -1.72611 0.510425 0
M  V30 2067 H 203.501 -0.596594 0.457798 0
M  V30 2068 H 205.472 -1.74903 2.41767 0
M  V30 2069 C 204.221 -3.19088 1.38123 0
M  V30 2070 H 203.544 -3.31203 2.23931 0
M  V30 2071 H 204.984 -3.9851 1.44797 0
M  V30 2072 C 203.443 -3.36763 0.0960517 0
M  V30 2073 O 203.973 -3.92581 -0.851073 0
M  V30 2074 N 202.179 -2.90597 0.0131186 0
M  V30 2075 H 201.726 -2.45359 0.784639 0
M  V30 2076 H 201.684 -3.028 -0.846133 0
M  V30 2077 N 205.456 -1.28612 -0.910864 0
M  V30 2078 C 206.872 -1.06381 -1.18976 0
M  V30 2079 C 207.072 0.191998 -2.00583 0
M  V30 2080 O 206.128 0.892869 -2.36187 0
M  V30 2081 C 207.441 -2.31295 -1.92154 0
M  V30 2082 C 208.989 -2.36503 -2.05025 0
M  V30 2083 C 209.464 -3.61191 -2.81612 0
M  V30 2084 N 210.955 -3.61847 -2.89172 0
M  V30 2085 C 211.69 -4.55004 -3.4894 0
M  V30 2086 N 211.186 -5.58482 -4.09963 0
M  V30 2087 N 212.979 -4.42594 -3.46506 0
M  V30 2088 H 205.13 -2.09221 -0.366094 0
M  V30 2089 H 207.393 -0.921003 -0.224629 0
M  V30 2090 H 207.099 -3.228 -1.39618 0
M  V30 2091 H 206.973 -2.37934 -2.9269 0
M  V30 2092 H 209.36 -1.45494 -2.5674 0
M  V30 2093 H 209.441 -2.33857 -1.03657 0
M  V30 2094 H 209.085 -4.52545 -2.30576 0
M  V30 2095 H 209.015 -3.61092 -3.83302 0
M  V30 2096 H 211.506 -2.87022 -2.45819 0
M  V30 2097 H 211.819 -6.25704 -4.53557 0
M  V30 2098 H 210.164 -5.62305 -4.08459 0
M  V30 2099 H 213.355 -3.60953 -2.98045 0
M  V30 2100 H 213.528 -5.15381 -3.92793 0
M  V30 2101 N 206.934 1.1197 -1.10907 0
M  V30 2102 C 208.174 1.85224 -0.864378 0
M  V30 2103 C 208.538 1.82411 0.599178 0
M  V30 2104 O 209.739 2.51057 0.960416 0
M  V30 2105 C 208.01 3.2868 -1.40371 0
M  V30 2106 S 209.569 4.1925 -1.29518 0
M  V30 2107 H 206.387 0.63878 -0.312219 0
M  V30 2108 H 208.989 1.3485 -1.41548 0
M  V30 2109 H 207.693 3.28289 -2.46281 0
M  V30 2110 H 207.224 3.84121 -0.849402 0
M  V30 2111 H 209.239 4.95539 -0.256059 0
M  V30 2112 N 208.412 0.89855 1.29475 0
M  V30 2113 C 209.362 0.346767 2.25348 0
M  V30 2114 C 210.346 -0.532509 1.51833 0
M  V30 2115 O 211.538 -0.374714 1.72988 0
M  V30 2116 C 208.667 -0.425681 3.40651 0
M  V30 2117 C 207.753 0.46845 4.21505 0
M  V30 2118 N 208.144 1.57514 4.80648 0
M  V30 2119 C 206.442 0.26603 4.45206 0
M  V30 2120 C 207.143 2.12889 5.41344 0
M  V30 2121 N 206.119 1.42208 5.24669 0
M  V30 2122 H 209.921 1.19219 2.68634 0
M  V30 2123 H 207.435 0.749473 1.44072 0
M  V30 2124 H 209.432 -0.837716 4.08397 0
M  V30 2125 H 208.092 -1.26838 2.98902 0
M  V30 2126 H 209.103 1.95789 4.79465 0
M  V30 2127 H 205.78 -0.538394 4.14014 0
M  V30 2128 H 207.17 3.05901 5.98226 0
M  V30 2129 N 209.89 -1.43072 0.660911 0
M  V30 2130 C 210.8 -2.34585 -0.0264163 0
M  V30 2131 C 211.816 -1.54316 -0.803898 0
M  V30 2132 O 212.992 -1.86939 -0.749391 0
M  V30 2133 C 210.057 -3.32689 -0.975639 0
M  V30 2134 C 209.118 -4.2886 -0.194236 0
M  V30 2135 C 208.351 -5.22278 -1.09825 0
M  V30 2136 O 208.574 -5.20299 -2.33763 0
M  V30 2137 O 207.508 -5.99228 -0.566513 0
M  V30 2138 H 211.334 -2.94869 0.727034 0
M  V30 2139 H 208.919 -1.43342 0.42111 0
M  V30 2140 H 210.801 -3.92995 -1.52094 0
M  V30 2141 H 209.476 -2.74898 -1.70918 0
M  V30 2142 H 208.383 -3.72011 0.394835 0
M  V30 2143 H 209.716 -4.89655 0.499899 0
M  V30 2144 N 211.368 -0.403325 -1.52352 0
M  V30 2145 C 212.616 0.174003 -2.0135 0
M  V30 2146 C 212.937 1.46139 -1.29106 0
M  V30 2147 O 212.207 1.91448 -0.415253 0
M  V30 2148 H 210.787 0.0672911 -0.743963 0
M  V30 2149 H 213.449 -0.538235 -1.87321 0
M  V30 2150 H 212.545 0.374254 -3.09848 0
M  V30 2151 N 212.846 1.57033 -0.133567 0
M  V30 2152 C 214.094 1.953 0.519848 0
M  V30 2153 C 214.415 1.01866 1.66278 0
M  V30 2154 O 213.685 0.0776513 1.95746 0
M  V30 2155 H 212.265 0.721091 0.195032 0
M  V30 2156 H 214.927 1.93809 -0.205921 0
M  V30 2157 H 214.023 2.98695 0.904854 0
M  V30 2158 N 214.325 -0.140222 1.56975 0
M  V30 2159 C 215.257 -1.19818 1.95388 0
M  V30 2160 C 216.27 -1.38816 0.850525 0
M  V30 2161 O 217.459 -1.38267 1.12891 0
M  V30 2162 C 214.559 -2.56189 2.21857 0
M  V30 2163 C 213.732 -2.58077 3.5315 0
M  V30 2164 C 212.791 -3.76037 3.6808 0
M  V30 2165 O 211.817 -3.60598 4.40406 0
M  V30 2166 N 213.019 -4.93763 3.05251 0
M  V30 2167 H 215.784 -0.871609 2.86746 0
M  V30 2168 H 213.345 -0.32972 1.58507 0
M  V30 2169 H 215.337 -3.33623 2.2908 0
M  V30 2170 H 213.907 -2.81111 1.36731 0
M  V30 2171 H 213.127 -1.6651 3.57307 0
M  V30 2172 H 214.415 -2.56377 4.39486 0
M  V30 2173 H 213.813 -5.09209 2.46419 0
M  V30 2174 H 212.37 -5.68949 3.18026 0
M  V30 2175 N 215.803 -1.52179 -0.40978 0
M  V30 2176 C 217.028 -1.70347 -1.18308 0
M  V30 2177 C 217.453 -0.411887 -1.83535 0
M  V30 2178 O 216.811 0.630587 -1.6998 0
M  V30 2179 C 216.859 -2.83977 -2.22238 0
M  V30 2180 O 215.963 -2.495 -3.28365 0
M  V30 2181 H 215.304 -0.567103 -0.345384 0
M  V30 2182 H 217.834 -1.98879 -0.480445 0
M  V30 2183 H 217.844 -3.0887 -2.66577 0
M  V30 2184 H 216.519 -3.77685 -1.74146 0
M  V30 2185 H 215.096 -2.35277 -2.89308 0
M  V30 2186 N 217.281 0.66697 -1.42791 0
M  V30 2187 C 218.511 1.45294 -1.46878 0
M  V30 2188 C 218.919 1.89027 -0.0809861 0
M  V30 2189 O 218.262 1.59219 0.916246 0
M  V30 2190 C 218.324 2.72908 -2.34012 0
M  V30 2191 C 217.988 2.51203 -3.81767 0
M  V30 2192 C 218.985 2.15302 -4.73224 0
M  V30 2193 C 216.67 2.65954 -4.26115 0
M  V30 2194 C 218.664 1.94431 -6.07022 0
M  V30 2195 C 216.351 2.44699 -5.59969 0
M  V30 2196 C 217.349 2.08992 -6.5024 0
M  V30 2197 O 217.037 1.87948 -7.81621 0
M  V30 2198 H 216.769 0.453306 -0.501487 0
M  V30 2199 H 219.323 0.826232 -1.88049 0
M  V30 2200 H 217.553 3.38089 -1.87703 0
M  V30 2201 H 219.242 3.34816 -2.29462 0
M  V30 2202 H 220.008 2.03495 -4.40244 0
M  V30 2203 H 215.887 2.92724 -3.56137 0
M  V30 2204 H 219.431 1.66484 -6.77443 0
M  V30 2205 H 215.328 2.56105 -5.9252 0
M  V30 2206 H 216.096 2.02483 -7.93059 0
M  V30 2207 N 218.759 1.29093 0.90403 0
M  V30 2208 C 219.706 1.13853 2.00764 0
M  V30 2209 C 220.676 0.0330084 1.66067 0
M  V30 2210 O 221.861 0.199733 1.89752 0
M  V30 2211 C 219.001 0.816537 3.35301 0
M  V30 2212 C 218.114 2.00206 3.82807 0
M  V30 2213 C 217.249 1.61983 5.059 0
M  V30 2214 C 216.288 2.77143 5.45764 0
M  V30 2215 N 215.425 2.39346 6.60044 0
M  V30 2216 H 220.265 2.08276 2.13132 0
M  V30 2217 H 217.802 1.03648 1.04381 0
M  V30 2218 H 219.76 0.610557 4.12708 0
M  V30 2219 H 218.39 -0.090779 3.22672 0
M  V30 2220 H 217.442 2.31988 3.01473 0
M  V30 2221 H 218.754 2.86512 4.08304 0
M  V30 2222 H 217.908 1.37649 5.90879 0
M  V30 2223 H 216.647 0.728202 4.82233 0
M  V30 2224 H 215.652 3.02165 4.59322 0
M  V30 2225 H 216.877 3.66964 5.71414 0
M  V30 2226 H 214.823 1.52665 6.37989 0
M  V30 2227 H 214.74 3.19185 6.85315 0
M  V30 2228 H 216.008 2.1832 7.48303 0
M  V30 2229 N 220.237 -1.11381 1.11499 0
M  V30 2230 C 221.486 -1.82494 0.858993 0
M  V30 2231 C 221.799 -1.85605 -0.617278 0
M  V30 2232 O 223.005 -2.52824 -0.989552 0
M  V30 2233 C 221.461 -3.27745 1.48699 0
M  V30 2234 C 221.069 -3.32961 2.99735 0
M  V30 2235 C 222.813 -4.03754 1.31085 0
M  V30 2236 C 220.72 -4.72612 3.55516 0
M  V30 2237 H 219.65 -0.683802 0.317696 0
M  V30 2238 H 222.301 -1.25331 1.34031 0
M  V30 2239 H 220.683 -3.84844 0.933339 0
M  V30 2240 H 221.857 -2.85741 3.61509 0
M  V30 2241 H 220.172 -2.70433 3.16631 0
M  V30 2242 H 222.769 -5.06891 1.70192 0
M  V30 2243 H 223.112 -4.15527 0.253496 0
M  V30 2244 H 223.645 -3.53043 1.83318 0
M  V30 2245 H 220.384 -4.66036 4.60967 0
M  V30 2246 H 219.904 -5.2024 2.98513 0
M  V30 2247 H 221.583 -5.4157 3.53992 0
M  V30 2248 N 221.715 -0.905404 -1.28997 0
M  V30 2249 C 222.963 -0.533192 -1.9494 0
M  V30 2250 C 223.284 0.924618 -1.71685 0
M  V30 2251 O 222.554 1.65268 -1.05183 0
M  V30 2252 H 221.134 -0.194194 -0.721317 0
M  V30 2253 H 223.796 -1.15294 -1.57141 0
M  V30 2254 H 222.892 -0.72059 -3.03667 0
M  V30 2255 N 223.193 1.4272 -0.668489 0
M  V30 2256 C 224.47 1.95248 -0.117373 0
M  V30 2257 C 224.85 1.60919 1.36632 0
M  V30 2258 O 224.198 0.902095 2.09939 0
M  V30 2259 C 224.408 3.46927 -0.379806 0
M  V30 2260 C 225.756 4.23588 -0.292923 0
M  V30 2261 O 226.78 3.5482 -0.313204 0
M  V30 2262 O 225.639 5.46017 -0.229697 0
M  V30 2263 H 222.733 0.827 0.00079152 0
M  V30 2264 H 225.279 1.52581 -0.742783 0
M  V30 2265 H 224.051 3.65096 -1.40786 0
M  V30 2266 H 223.674 3.96627 0.277923 0
M  V30 2267 N 224.671 0.411399 1.52136 0
M  V30 2268 C 225.899 -0.163076 2.06256 0
M  V30 2269 C 226.314 -1.3867 1.28125 0
M  V30 2270 O 225.671 -1.79423 0.333721 0
M  V30 2271 C 225.722 -0.511252 3.57867 0
M  V30 2272 O 225.443 0.66378 4.33042 0
M  V30 2273 C 226.944 -1.13921 4.28412 0
M  V30 2274 H 224.164 -0.0193897 0.67072 0
M  V30 2275 H 226.708 0.583007 1.96013 0
M  V30 2276 H 224.863 -1.20723 3.6811 0
M  V30 2277 H 225.277 0.372601 5.23175 0
M  V30 2278 H 226.751 -1.33302 5.35663 0
M  V30 2279 H 227.228 -2.11296 3.85033 0
M  V30 2280 H 227.834 -0.483373 4.22544 0
M  V30 2281 N 226.149 -1.5696 0.141893 0
M  V30 2282 C 227.395 -1.97034 -0.504884 0
M  V30 2283 C 227.75 -1.02518 -1.62812 0
M  V30 2284 O 227.043 -0.0592943 -1.91508 0
M  V30 2285 C 227.237 -3.41242 -1.06249 0
M  V30 2286 C 227.066 -4.497 0.00519653 0
M  V30 2287 C 225.836 -5.03338 0.444873 0
M  V30 2288 C 228.034 -5.08122 0.794767 0
M  V30 2289 N 226.016 -5.95395 1.49593 0
M  V30 2290 C 227.387 -5.96339 1.69645 0
M  V30 2291 C 229.442 -4.9071 0.843122 0
M  V30 2292 C 228.145 -6.69009 2.64233 0
M  V30 2293 C 230.171 -5.64077 1.77681 0
M  V30 2294 C 229.533 -6.51999 2.66603 0
M  V30 2295 H 225.632 -0.766745 -0.153707 0
M  V30 2296 H 228.216 -1.93273 0.235313 0
M  V30 2297 H 226.387 -3.45606 -1.77231 0
M  V30 2298 H 228.119 -3.68389 -1.67546 0
M  V30 2299 H 224.874 -4.73576 0.0480959 0
M  V30 2300 H 225.298 -6.46128 2.02107 0
M  V30 2301 H 229.94 -4.22459 0.169732 0
M  V30 2302 H 227.658 -7.36492 3.32575 0
M  V30 2303 H 231.244 -5.52602 1.81996 0
M  V30 2304 H 230.124 -7.07775 3.37675 0
M  V30 2305 N 227.627 0.131896 -1.57047 0
M  V30 2306 C 229.043 0.485031 -1.52051 0
M  V30 2307 C 229.243 1.82563 -0.85281 0
M  V30 2308 O 228.299 2.48817 -0.429694 0
M  V30 2309 C 229.612 0.481409 -2.96821 0
M  V30 2310 C 231.16 0.565868 -3.07842 0
M  V30 2311 C 231.635 0.592762 -4.54148 0
M  V30 2312 N 233.126 0.654564 -4.58552 0
M  V30 2313 C 233.861 0.696608 -5.69153 0
M  V30 2314 N 233.357 0.697078 -6.89284 0
M  V30 2315 N 235.15 0.738639 -5.57226 0
M  V30 2316 H 227.301 -0.746664 -1.98843 0
M  V30 2317 H 229.564 -0.273999 -0.90754 0
M  V30 2318 H 229.27 -0.435731 -3.4899 0
M  V30 2319 H 229.144 1.3139 -3.53577 0
M  V30 2320 H 231.531 1.47343 -2.55684 0
M  V30 2321 H 231.612 -0.29406 -2.54104 0
M  V30 2322 H 231.256 -0.310701 -5.06949 0
M  V30 2323 H 231.186 1.46939 -5.05684 0
M  V30 2324 H 233.677 0.660887 -3.72076 0
M  V30 2325 H 233.99 0.731426 -7.69331 0
M  V30 2326 H 232.335 0.66471 -6.91814 0
M  V30 2327 H 235.526 0.735545 -4.62285 0
M  V30 2328 H 235.699 0.767938 -6.43434 0
M  V30 2329 N 229.106 1.52395 0.401703 0
M  V30 2330 C 230.522 1.41363 0.740864 0
M  V30 2331 C 230.722 0.523982 1.94568 0
M  V30 2332 O 229.778 -0.00741204 2.52499 0
M  V30 2333 C 231.091 2.84011 0.987847 0
M  V30 2334 C 232.639 2.93404 1.09011 0
M  V30 2335 C 233.114 4.37036 1.3698 0
M  V30 2336 N 234.605 4.40304 1.43829 0
M  V30 2337 C 235.34 5.48508 1.67112 0
M  V30 2338 N 234.836 6.66819 1.87949 0
M  V30 2339 N 236.629 5.36034 1.69187 0
M  V30 2340 H 228.78 2.08765 -0.391262 0
M  V30 2341 H 231.043 0.941265 -0.112798 0
M  V30 2342 H 230.749 3.51265 0.174835 0
M  V30 2343 H 230.623 3.25502 1.906 0
M  V30 2344 H 233.01 2.26325 1.8937 0
M  V30 2345 H 233.091 2.55359 0.15015 0
M  V30 2346 H 232.735 5.04676 0.571353 0
M  V30 2347 H 232.665 4.72623 2.3224 0
M  V30 2348 H 235.156 3.55024 1.29486 0
M  V30 2349 H 235.469 7.45063 2.05185 0
M  V30 2350 H 233.814 6.6987 1.85199 0
M  V30 2351 H 237.005 4.42579 1.52451 0
M  V30 2352 H 237.178 6.20434 1.86993 0
M  V30 2353 N 230.584 -0.659388 1.43143 0
M  V30 2354 C 231.995 -1.24041 1.39537 0
M  V30 2355 C 232.346 -1.95963 0.0963364 0
M  V30 2356 O 231.471 -2.00892 -0.804438 0
M  V30 2357 C 232.066 -2.25601 2.52764 0
M  V30 2358 C 230.625 -2.79195 2.52443 0
M  V30 2359 C 229.772 -1.53743 2.30778 0
M  V30 2360 H 232.723 -0.451792 1.52133 0
M  V30 2361 H 232.744 -3.07651 2.23899 0
M  V30 2362 H 232.256 -1.73226 3.47296 0
M  V30 2363 H 230.357 -3.35649 1.61773 0
M  V30 2364 H 230.47 -3.2716 3.50004 0
M  V30 2365 H 228.834 -1.80869 1.79328 0
M  V30 2366 H 229.617 -1.03312 3.27386 0
M  V30 2367 N 232.062 -1.29571 -0.897171 0
M  V30 2368 C 233.012 -1.11539 -1.98855 0
M  V30 2369 C 233.996 -0.0340716 -1.60864 0
M  V30 2370 O 235.188 -0.256062 -1.75138 0
M  V30 2371 C 232.317 -0.796603 -3.3393 0
M  V30 2372 C 231.403 -1.91758 -3.78272 0
M  V30 2373 N 231.794 -3.16143 -3.94826 0
M  V30 2374 C 230.092 -1.81119 -4.07568 0
M  V30 2375 C 230.793 -3.89293 -4.32233 0
M  V30 2376 N 229.769 -3.17255 -4.41419 0
M  V30 2377 H 233.571 -2.05894 -2.09726 0
M  V30 2378 H 231.085 -1.20732 -1.08616 0
M  V30 2379 H 233.082 -0.648459 -4.11826 0
M  V30 2380 H 231.742 0.139003 -3.24402 0
M  V30 2381 H 232.753 -3.5157 -3.80288 0
M  V30 2382 H 229.43 -0.948461 -4.06584 0
M  V30 2383 H 230.82 -4.9635 -4.52865 0
M  V30 2384 N 233.54 1.10788 -1.12088 0
M  V30 2385 C 234.45 2.20599 -0.798338 0
M  V30 2386 C 235.466 1.72712 0.21135 0
M  V30 2387 O 236.642 2.01348 0.0458477 0
M  V30 2388 C 233.707 3.45771 -0.253674 0
M  V30 2389 C 232.768 4.08411 -1.32283 0
M  V30 2390 C 232.001 5.27608 -0.80406 0
M  V30 2391 O 232.224 5.69241 0.363478 0
M  V30 2392 O 231.158 5.8101 -1.57198 0
M  V30 2393 H 234.984 2.50614 -1.7154 0
M  V30 2394 H 232.569 1.19454 -0.897275 0
M  V30 2395 H 234.451 4.21376 0.0453691 0
M  V30 2396 H 233.126 3.1739 0.636005 0
M  V30 2397 H 232.033 3.34507 -1.67499 0
M  V30 2398 H 233.366 4.40986 -2.18614 0
M  V30 2399 N 235.018 0.912232 1.28515 0
M  V30 2400 C 236.246 0.560416 1.99166 0
M  V30 2401 C 236.661 -0.857927 1.68182 0
M  V30 2402 O 236.018 -1.56805 0.933733 0
M  V30 2403 C 236.069 0.758142 3.53461 0
M  V30 2404 O 235.79 2.12067 3.83352 0
M  V30 2405 C 237.291 0.412954 4.41372 0
M  V30 2406 H 234.511 0.213805 0.636026 0
M  V30 2407 H 237.055 1.22502 1.63749 0
M  V30 2408 H 235.21 0.140556 3.87145 0
M  V30 2409 H 235.624 2.15923 4.77993 0
M  V30 2410 H 237.098 0.60208 5.48707 0
M  V30 2411 H 237.575 -0.65073 4.34353 0
M  V30 2412 H 238.181 1.00802 4.13182 0
M  V30 2413 N 236.496 -1.42363 0.676048 0
M  V30 2414 C 237.744 -2.01123 0.198437 0
M  V30 2415 C 238.065 -1.53731 -1.19966 0
M  V30 2416 O 237.335 -0.759518 -1.80577 0
M  V30 2417 H 235.915 -0.743678 0.0703721 0
M  V30 2418 H 238.577 -1.74263 0.872837 0
M  V30 2419 H 237.673 -3.11454 0.200686 0
M  V30 2420 N 237.974 -0.419461 -1.51915 0
M  V30 2421 C 239.222 0.152637 -2.01523 0
M  V30 2422 C 239.543 1.44762 -1.30649 0
M  V30 2423 O 238.813 1.90997 -0.435535 0
M  V30 2424 H 237.393 0.0593966 -0.744635 0
M  V30 2425 H 240.055 -0.558073 -1.86739 0
M  V30 2426 H 239.151 0.341369 -3.10227 0
M  V30 2427 N 239.452 1.56882 -0.150215 0
M  V30 2428 C 240.682 2.00302 0.506213 0
M  V30 2429 C 241.09 1.02934 1.58749 0
M  V30 2430 O 240.433 0.0188384 1.8369 0
M  V30 2431 C 240.495 3.40156 1.16337 0
M  V30 2432 C 240.159 4.56439 0.226311 0
M  V30 2433 C 241.156 5.17012 -0.547265 0
M  V30 2434 C 238.841 5.02136 0.128279 0
M  V30 2435 C 240.835 6.21693 -1.40629 0
M  V30 2436 C 238.522 6.06672 -0.734345 0
M  V30 2437 C 239.52 6.6632 -1.50023 0
M  V30 2438 O 239.208 7.68831 -2.34848 0
M  V30 2439 H 238.94 0.662182 0.135984 0
M  V30 2440 H 241.494 2.03961 -0.242746 0
M  V30 2441 H 239.724 3.33346 1.96004 0
M  V30 2442 H 241.413 3.67663 1.71985 0
M  V30 2443 H 242.179 4.82603 -0.48158 0
M  V30 2444 H 238.058 4.55435 0.714157 0
M  V30 2445 H 241.602 6.68179 -2.00455 0
M  V30 2446 H 237.499 6.40507 -0.801309 0
M  V30 2447 H 238.267 7.86065 -2.28131 0
M  V30 2448 N 240.93 -0.123565 1.57115 0
M  V30 2449 C 241.863 -1.18202 1.95201 0
M  V30 2450 C 242.841 -1.40349 0.821031 0
M  V30 2451 O 244.025 -1.54578 1.07879 0
M  V30 2452 C 241.152 -2.53671 2.24429 0
M  V30 2453 C 240.198 -2.4798 3.46999 0
M  V30 2454 S 241.031 -1.92389 4.99747 0
M  V30 2455 C 242.187 -3.2954 5.32123 0
M  V30 2456 H 242.42 -0.857212 2.84674 0
M  V30 2457 H 239.953 -0.33014 1.50829 0
M  V30 2458 H 241.911 -3.3162 2.41947 0
M  V30 2459 H 240.572 -2.83332 1.35579 0
M  V30 2460 H 239.765 -3.47758 3.64801 0
M  V30 2461 H 239.367 -1.7815 3.28844 0
M  V30 2462 H 241.659 -4.25736 5.27025 0
M  V30 2463 H 242.602 -3.16569 6.33395 0
M  V30 2464 H 243.01 -3.27758 4.59603 0
M  V30 2465 N 242.408 -1.52605 -0.393616 0
M  V30 2466 C 243.338 -1.80022 -1.48709 0
M  V30 2467 C 244.319 -0.651995 -1.57108 0
M  V30 2468 O 245.504 -0.89913 -1.72132 0
M  V30 2469 C 242.634 -1.96492 -2.86371 0
M  V30 2470 C 241.588 -3.12161 -2.92813 0
M  V30 2471 C 240.914 -3.13877 -4.3288 0
M  V30 2472 C 242.214 -4.51322 -2.6288 0
M  V30 2473 H 243.908 -2.71589 -1.26015 0
M  V30 2474 H 241.454 -1.30684 -0.604778 0
M  V30 2475 H 243.407 -2.14255 -3.62867 0
M  V30 2476 H 242.131 -1.01611 -3.10391 0
M  V30 2477 H 240.79 -2.94173 -2.18764 0
M  V30 2478 H 240.438 -2.16687 -4.53933 0
M  V30 2479 H 240.138 -3.91576 -4.38112 0
M  V30 2480 H 241.662 -3.33789 -5.1129 0
M  V30 2481 H 243.076 -4.69435 -3.29096 0
M  V30 2482 H 241.473 -5.31053 -2.79468 0
M  V30 2483 H 242.543 -4.58353 -1.58242 0
M  V30 2484 N 243.887 0.651787 -1.4349 0
M  V30 2485 C 244.797 1.79368 -1.5121 0
M  V30 2486 C 245.813 1.69361 -0.399093 0
M  V30 2487 O 246.989 1.90505 -0.653431 0
M  V30 2488 C 244.054 3.15653 -1.43401 0
M  V30 2489 C 243.115 3.37446 -2.65384 0
M  V30 2490 C 242.348 4.67229 -2.57939 0
M  V30 2491 O 242.571 5.46676 -1.62792 0
M  V30 2492 O 241.505 4.90773 -3.48462 0
M  V30 2493 H 245.331 1.7581 -2.47638 0
M  V30 2494 H 242.916 0.810447 -1.25507 0
M  V30 2495 H 244.798 3.96935 -1.41494 0
M  V30 2496 H 243.473 3.19798 -0.501085 0
M  V30 2497 H 242.38 2.55923 -2.72863 0
M  V30 2498 H 243.713 3.38148 -3.57654 0
M  V30 2499 N 245.365 1.30045 0.890287 0
M  V30 2500 C 246.605 1.19839 1.65584 0
M  V30 2501 C 246.969 -0.244175 1.90441 0
M  V30 2502 O 248.17 -0.469378 2.6467 0
M  V30 2503 C 246.441 1.99876 2.96284 0
M  V30 2504 S 248 2.06309 3.87275 0
M  V30 2505 H 244.818 0.427157 0.568382 0
M  V30 2506 H 247.42 1.64453 1.05715 0
M  V30 2507 H 246.124 3.03809 2.75913 0
M  V30 2508 H 245.655 1.55903 3.61189 0
M  V30 2509 H 247.67 1.18661 4.81803 0
M  V30 2510 N 246.843 -1.10192 1.12674 0
M  V30 2511 C 248.089 -1.82475 0.884915 0
M  V30 2512 C 248.422 -1.85093 -0.58773 0
M  V30 2513 O 247.697 -1.3134 -1.43457 0
M  V30 2514 C 247.98 -3.29018 1.46353 0
M  V30 2515 C 247.833 -3.34718 3.00473 0
M  V30 2516 C 249.152 -4.25473 1.12519 0
M  V30 2517 H 246.271 -0.662492 0.322915 0
M  V30 2518 H 248.913 -1.2913 1.39375 0
M  V30 2519 H 247.063 -3.74576 1.03077 0
M  V30 2520 H 248.735 -2.97622 3.52447 0
M  V30 2521 H 246.978 -2.74541 3.35872 0
M  V30 2522 H 247.649 -4.37918 3.36053 0
M  V30 2523 H 250.125 -3.88161 1.499 0
M  V30 2524 H 249.001 -5.26365 1.55663 0
M  V30 2525 H 249.262 -4.42084 0.0377407 0
M  V30 2526 N 248.321 -0.919034 -1.28029 0
M  V30 2527 C 249.561 -0.562107 -1.96519 0
M  V30 2528 C 249.925 0.878784 -1.70708 0
M  V30 2529 O 251.126 1.34355 -2.32813 0
M  V30 2530 C 249.397 -0.868953 -3.46676 0
M  V30 2531 S 250.956 -0.619237 -4.34409 0
M  V30 2532 H 247.774 -0.2078 -0.679956 0
M  V30 2533 H 250.376 -1.18562 -1.55446 0
M  V30 2534 H 249.08 -1.91547 -3.62957 0
M  V30 2535 H 248.611 -0.234301 -3.92702 0
M  V30 2536 H 250.626 0.526995 -4.93394 0
M  V30 2537 N 249.799 1.42003 -0.683588 0
M  V30 2538 C 250.729 2.33487 -0.024866 0
M  V30 2539 C 251.71 1.51163 0.779975 0
M  V30 2540 O 252.895 1.79739 0.735362 0
M  V30 2541 C 250.025 3.3487 0.920836 0
M  V30 2542 C 248.979 4.27414 0.223958 0
M  V30 2543 C 248.305 5.19074 1.2832 0
M  V30 2544 C 249.605 5.14445 -0.90242 0
M  V30 2545 H 251.299 2.88819 -0.788921 0
M  V30 2546 H 248.845 1.38873 -0.38083 0
M  V30 2547 H 250.798 3.97787 1.39081 0
M  V30 2548 H 249.522 2.77861 1.71642 0
M  V30 2549 H 248.181 3.65904 -0.225864 0
M  V30 2550 H 247.829 4.58387 2.071 0
M  V30 2551 H 247.529 5.81822 0.821995 0
M  V30 2552 H 249.053 5.84867 1.75392 0
M  V30 2553 H 250.467 5.70998 -0.513272 0
M  V30 2554 H 248.864 5.86072 -1.28997 0
M  V30 2555 H 249.934 4.52322 -1.74737 0
M  V30 2556 N 251.277 0.427512 1.51691 0
M  V30 2557 C 252.525 -0.141948 2.01601 0
M  V30 2558 C 252.846 -1.44067 1.31414 0
M  V30 2559 O 252.116 -1.90763 0.445658 0
M  V30 2560 H 250.696 -0.0554468 0.744939 0
M  V30 2561 H 253.358 0.567968 1.86441 0
M  V30 2562 H 252.454 -0.324913 3.10404 0
M  V30 2563 N 252.755 -1.56801 0.158532 0
M  V30 2564 C 253.703 -2.18638 -0.793729 0
M  V30 2565 C 254.697 -1.14669 -1.24689 0
M  V30 2566 O 255.903 -1.32895 -1.21403 0
M  V30 2567 H 252.278 -0.700226 -0.274204 0
M  V30 2568 H 254.249 -2.97367 -0.248095 0
M  V30 2569 C 252.998 -2.83139 -2.0181 0
M  V30 2570 H 252.321 -3.62863 -1.67841 0
M  V30 2571 H 253.761 -3.29894 -2.66357 0
M  V30 2572 C 252.22 -1.82244 -2.83353 0
M  V30 2573 O 252.75 -1.3 -3.80083 0
M  V30 2574 N 250.956 -1.51288 -2.48114 0
M  V30 2575 H 250.503 -1.93964 -1.69516 0
M  V30 2576 H 250.461 -0.840296 -3.02963 0
M  V30 2577 N 254.233 0.115231 -1.57178 0
M  V30 2578 C 255.481 0.820727 -1.84685 0
M  V30 2579 C 255.802 1.80237 -0.744279 0
M  V30 2580 O 255.072 1.94529 0.231375 0
M  V30 2581 H 253.652 0.306084 -0.681411 0
M  V30 2582 H 256.314 0.101656 -1.94635 0
M  V30 2583 H 255.41 1.36366 -2.80733 0
M  V30 2584 N 255.711 1.52812 0.385517 0
M  V30 2585 C 256.658 1.77838 1.47113 0
M  V30 2586 C 257.628 0.621757 1.54024 0
M  V30 2587 O 258.813 0.861846 1.70226 0
M  V30 2588 C 255.953 1.95618 2.84302 0
M  V30 2589 C 255.066 3.23316 2.86515 0
M  V30 2590 C 254.201 3.31394 4.15152 0
M  V30 2591 C 253.24 4.53201 4.1143 0
M  V30 2592 N 252.377 4.58542 5.3168 0
M  V30 2593 H 257.217 2.70482 1.25073 0
M  V30 2594 H 254.754 1.34006 0.606692 0
M  V30 2595 H 256.712 2.03912 3.63972 0
M  V30 2596 H 255.342 1.06331 3.04784 0
M  V30 2597 H 254.394 3.24076 1.99195 0
M  V30 2598 H 255.706 4.13045 2.79634 0
M  V30 2599 H 254.86 3.3889 5.03228 0
M  V30 2600 H 253.599 2.39645 4.24761 0
M  V30 2601 H 252.604 4.45827 3.21742 0
M  V30 2602 H 253.829 5.46271 4.03442 0
M  V30 2603 H 251.775 3.69686 5.41912 0
M  V30 2604 H 251.692 5.42148 5.26889 0
M  V30 2605 H 252.96 4.70296 6.21644 0
M  V30 2606 N 257.189 -0.644168 1.43834 0
M  V30 2607 C 258.437 -1.40117 1.45642 0
M  V30 2608 C 258.758 -1.94814 0.0852413 0
M  V30 2609 O 258.028 -1.74988 -0.880688 0
M  V30 2610 H 256.608 -0.52005 0.536243 0
M  V30 2611 H 259.27 -0.7591 1.7951 0
M  V30 2612 H 258.366 -2.23902 2.17427 0
M  V30 2613 N 258.668 -1.30515 -0.883378 0
M  V30 2614 C 259.578 -1.18959 -2.02203 0
M  V30 2615 C 260.594 -0.109172 -1.73657 0
M  V30 2616 O 261.77 -0.324413 -1.9877 0
M  V30 2617 C 258.835 -0.883871 -3.35244 0
M  V30 2618 C 257.896 -2.04982 -3.77201 0
M  V30 2619 C 257.129 -1.75859 -5.03894 0
M  V30 2620 O 257.352 -0.687276 -5.66244 0
M  V30 2621 O 256.286 -2.61146 -5.42297 0
M  V30 2622 H 260.112 -2.14616 -2.1488 0
M  V30 2623 H 257.697 -1.10124 -1.0096 0
M  V30 2624 H 259.579 -0.728644 -4.15053 0
M  V30 2625 H 258.254 0.0427798 -3.23672 0
M  V30 2626 H 257.161 -2.26038 -2.9809 0
M  V30 2627 H 258.494 -2.95825 -3.93381 0
M  V30 2628 N 260.146 1.09593 -1.13257 0
M  V30 2629 C 261.392 1.82181 -0.904521 0
M  V30 2630 C 261.747 1.83967 0.563358 0
M  V30 2631 O 261.04 1.29566 1.41149 0
M  V30 2632 C 261.234 3.27802 -1.42411 0
M  V30 2633 C 261.063 3.40201 -2.94097 0
M  V30 2634 C 259.833 3.52104 -3.62424 0
M  V30 2635 C 262.031 3.32875 -3.92044 0
M  V30 2636 N 260.013 3.53169 -5.0214 0
M  V30 2637 C 261.384 3.40789 -5.17941 0
M  V30 2638 C 263.439 3.16531 -3.84334 0
M  V30 2639 C 262.142 3.34042 -6.37031 0
M  V30 2640 C 264.168 3.11109 -5.02956 0
M  V30 2641 C 263.53 3.19614 -6.27715 0
M  V30 2642 H 259.629 0.681015 -0.384373 0
M  V30 2643 H 262.213 1.3099 -1.44048 0
M  V30 2644 H 260.384 3.77466 -0.915086 0
M  V30 2645 H 262.116 3.88393 -1.13722 0
M  V30 2646 H 258.871 3.5548 -3.12939 0
M  V30 2647 H 259.295 3.57291 -5.75041 0
M  V30 2648 H 263.937 3.08827 -2.88766 0
M  V30 2649 H 261.655 3.4051 -7.32857 0
M  V30 2650 H 265.241 2.99601 -4.98729 0
M  V30 2651 H 264.121 3.15432 -7.17964 0
M  V30 2652 N 261.624 0.925811 1.2754 0
M  V30 2653 C 262.852 0.581509 1.9856 0
M  V30 2654 C 263.267 -0.840041 1.69082 0
M  V30 2655 O 262.624 -1.55805 0.950312 0
M  V30 2656 C 262.675 0.795589 3.52637 0
M  V30 2657 O 262.396 2.16121 3.81082 0
M  V30 2658 C 263.897 0.459744 4.4091 0
M  V30 2659 H 261.117 0.220538 0.633722 0
M  V30 2660 H 263.661 1.24232 1.6244 0
M  V30 2661 H 261.816 0.18161 3.86974 0
M  V30 2662 H 262.23 2.2098 4.75676 0
M  V30 2663 H 263.704 0.660244 5.48037 0
M  V30 2664 H 264.181 -0.604625 4.35018 0
M  V30 2665 H 264.787 1.05178 4.12089 0
M  V30 2666 N 263.102 -1.41638 0.69111 0
M  V30 2667 C 264.342 -2.03166 0.224291 0
M  V30 2668 C 264.706 -1.53537 -1.15284 0
M  V30 2669 O 265.907 -2.0696 -1.71525 0
M  V30 2670 C 264.178 -3.56342 0.274758 0
M  V30 2671 S 265.737 -4.3864 -0.118669 0
M  V30 2672 H 262.555 -0.705188 0.0907263 0
M  V30 2673 H 265.157 -1.7314 0.907895 0
M  V30 2674 H 263.861 -3.89958 1.2791 0
M  V30 2675 H 263.392 -3.91063 -0.428142 0
M  V30 2676 H 265.407 -4.77549 -1.34764 0
M  V30 2677 N 264.58 -0.43555 -1.51462 0
M  V30 2678 C 265.527 0.376797 -2.27703 0
M  V30 2679 C 266.497 1.01838 -1.31219 0
M  V30 2680 O 267.682 1.03762 -1.60119 0
M  V30 2681 C 264.822 1.47301 -3.12084 0
M  V30 2682 C 263.935 0.849744 -4.2356 0
M  V30 2683 C 263.07 1.92086 -4.95254 0
M  V30 2684 C 262.109 1.27593 -5.98654 0
M  V30 2685 N 261.246 2.28833 -6.63762 0
M  V30 2686 H 266.086 -0.279734 -2.96684 0
M  V30 2687 H 263.623 -0.149795 -1.46335 0
M  V30 2688 H 265.581 2.11984 -3.59331 0
M  V30 2689 H 264.211 2.0992 -2.45221 0
M  V30 2690 H 263.263 0.0912529 -3.80291 0
M  V30 2691 H 264.575 0.338878 -4.97648 0
M  V30 2692 H 263.729 2.64435 -5.46039 0
M  V30 2693 H 262.468 2.46545 -4.20793 0
M  V30 2694 H 261.473 0.537893 -5.47162 0
M  V30 2695 H 262.698 0.738693 -6.7507 0
M  V30 2696 H 260.644 2.82375 -5.92115 0
M  V30 2697 H 260.561 1.82632 -7.33608 0
M  V30 2698 H 261.829 3.00671 -7.19178 0
M  V30 2699 N 266.058 1.56714 -0.166846 0
M  V30 2700 C 267.469 1.83378 0.350646 0
M  V30 2701 C 267.82 1.08646 1.63372 0
M  V30 2702 O 266.945 0.338058 2.13743 0
M  V30 2703 C 267.54 3.32643 0.642963 0
M  V30 2704 C 266.099 3.59818 1.10491 0
M  V30 2705 C 265.246 2.76954 0.138411 0
M  V30 2706 H 268.197 1.53803 -0.391193 0
M  V30 2707 H 268.218 3.49878 1.49551 0
M  V30 2708 H 267.73 3.87007 -0.291055 0
M  V30 2709 H 265.831 3.1086 2.05418 0
M  V30 2710 H 265.944 4.68178 1.01716 0
M  V30 2711 H 264.308 2.4666 0.634911 0
M  V30 2712 H 265.091 3.34097 -0.789549 0
M  V30 2713 N 267.536 -0.106894 1.57237 0
M  V30 2714 C 268.785 -0.811163 1.8467 0
M  V30 2715 C 269.098 -1.80469 0.754342 0
M  V30 2716 O 270.304 -2.55601 0.915439 0
M  V30 2717 C 268.76 -1.49337 3.27454 0
M  V30 2718 C 268.368 -0.540217 4.44731 0
M  V30 2719 C 270.112 -2.18206 3.64124 0
M  V30 2720 C 268.019 -1.22634 5.78545 0
M  V30 2721 H 266.949 -0.306679 0.688813 0
M  V30 2722 H 269.6 -0.0639887 1.83388 0
M  V30 2723 H 267.982 -2.2876 3.23241 0
M  V30 2724 H 269.156 0.221659 4.60267 0
M  V30 2725 H 267.471 0.042146 4.16379 0
M  V30 2726 H 270.068 -2.70253 4.61376 0
M  V30 2727 H 270.411 -2.96562 2.92158 0
M  V30 2728 H 270.944 -1.45658 3.70174 0
M  V30 2729 H 267.683 -0.483832 6.53712 0
M  V30 2730 H 267.203 -1.95993 5.66874 0
M  V30 2731 H 268.882 -1.75615 6.2271 0
M  V30 2732 N 269.014 -1.53014 -0.377408 0
M  V30 2733 C 269.977 -1.77957 -1.44444 0
M  V30 2734 C 270.977 -0.649763 -1.47087 0
M  V30 2735 O 272.167 -0.917897 -1.48055 0
M  V30 2736 C 269.299 -1.89089 -2.83651 0
M  V30 2737 H 270.492 -2.73243 -1.23606 0
M  V30 2738 H 268.045 -1.43912 -0.609844 0
M  V30 2739 H 268.78 -0.958293 -3.09818 0
M  V30 2740 H 268.565 -2.71254 -2.83132 0
M  V30 2741 H 270.055 -2.1002 -3.60945 0
M  V30 2742 N 270.492 0.636531 -1.44174 0
M  V30 2743 C 271.402 1.77754 -1.53103 0
M  V30 2744 C 272.418 1.68928 -0.417034 0
M  V30 2745 O 273.594 1.89801 -0.6736 0
M  V30 2746 C 270.659 3.14115 -1.46741 0
M  V30 2747 C 269.72 3.34612 -2.68948 0
M  V30 2748 C 268.953 4.64467 -2.6288 0
M  V30 2749 O 269.176 5.44919 -1.68581 0
M  V30 2750 O 268.11 4.87049 -3.53648 0
M  V30 2751 H 271.936 1.73174 -2.49489 0
M  V30 2752 H 269.521 0.79709 -1.2636 0
M  V30 2753 H 271.403 3.95412 -1.45696 0
M  V30 2754 H 270.078 3.19249 -0.534975 0
M  V30 2755 H 268.985 2.53014 -2.75562 0
M  V30 2756 H 270.318 3.34336 -3.61221 0
M  V30 2757 N 271.97 1.30982 0.876444 0
M  V30 2758 C 272.917 1.18085 1.98304 0
M  V30 2759 C 273.887 0.0682263 1.6596 0
M  V30 2760 O 275.072 0.239937 1.89285 0
M  V30 2761 C 272.212 0.887475 3.33493 0
M  V30 2762 C 271.325 2.08281 3.78475 0
M  V30 2763 C 270.46 1.72678 5.0235 0
M  V30 2764 C 269.499 2.88657 5.39762 0
M  V30 2765 N 268.636 2.53292 6.54819 0
M  V30 2766 H 273.476 2.1275 2.08666 0
M  V30 2767 H 271.013 1.05839 1.02159 0
M  V30 2768 H 272.971 0.697961 4.1132 0
M  V30 2769 H 271.601 -0.022315 3.22792 0
M  V30 2770 H 270.653 2.3833 2.96484 0
M  V30 2771 H 271.965 2.95108 4.02135 0
M  V30 2772 H 271.119 1.50151 5.87826 0
M  V30 2773 H 269.858 0.830327 4.8058 0
M  V30 2774 H 268.863 3.1184 4.52809 0
M  V30 2775 H 270.088 3.79002 5.63502 0
M  V30 2776 H 268.034 1.66163 6.34607 0
M  V30 2777 H 267.951 3.3365 6.7839 0
M  V30 2778 H 269.219 2.34143 7.43503 0
M  V30 2779 N 273.449 -1.08991 1.13837 0
M  V30 2780 C 274.689 -1.82867 0.913183 0
M  V30 2781 C 275.053 -1.83936 -0.550604 0
M  V30 2782 O 276.254 -2.53515 -0.893515 0
M  V30 2783 C 274.525 -3.24843 1.49036 0
M  V30 2784 S 276.084 -4.15669 1.40588 0
M  V30 2785 H 272.902 -0.630278 0.329046 0
M  V30 2786 H 275.504 -1.31049 1.45073 0
M  V30 2787 H 274.208 -3.21644 2.54899 0
M  V30 2788 H 273.739 -3.81734 0.950947 0
M  V30 2789 H 275.754 -4.94686 0.387353 0
M  V30 2790 N 274.927 -0.932562 -1.27047 0
M  V30 2791 C 276.174 -0.575559 -1.94148 0
M  V30 2792 C 276.502 0.883984 -1.73251 0
M  V30 2793 O 275.757 1.64655 -1.0577 0
M  V30 2794 C 276.056 -0.853713 -3.47054 0
M  V30 2795 C 275.722 -2.29577 -3.88079 0
M  V30 2796 C 274.384 -2.68999 -3.9899 0
M  V30 2797 C 276.736 -3.23331 -4.08787 0
M  V30 2798 C 274.064 -4.01289 -4.28 0
M  V30 2799 C 276.416 -4.55207 -4.39282 0
M  V30 2800 C 275.08 -4.94457 -4.48407 0
M  V30 2801 H 274.35 -0.210612 -0.710439 0
M  V30 2802 H 276.997 -1.17744 -1.51025 0
M  V30 2803 H 275.302 -0.169204 -3.91434 0
M  V30 2804 H 276.999 -0.55639 -3.97121 0
M  V30 2805 H 273.589 -1.97994 -3.80127 0
M  V30 2806 H 277.773 -2.94074 -3.99793 0
M  V30 2807 H 273.029 -4.31374 -4.33275 0
M  V30 2808 H 277.203 -5.27852 -4.54252 0
M  V30 2809 H 274.83 -5.96994 -4.7064 0
M  V30 2810 N 276.405 1.4127 -0.698611 0
M  V30 2811 C 277.682 1.94955 -0.158762 0
M  V30 2812 C 278.062 1.63781 1.33188 0
M  V30 2813 O 277.41 0.946423 2.07979 0
M  V30 2814 C 277.62 3.46044 -0.453309 0
M  V30 2815 C 278.968 4.22872 -0.382707 0
M  V30 2816 O 279.992 3.54076 -0.388396 0
M  V30 2817 O 278.851 5.45407 -0.345463 0
M  V30 2818 H 275.945 0.82683 -0.0167505 0
M  V30 2819 H 278.491 1.50971 -0.77498 0
M  V30 2820 H 277.263 3.62028 -1.48498 0
M  V30 2821 H 276.886 3.97128 0.19373 0
M  V30 2822 N 277.883 0.443576 1.51229 0
M  V30 2823 C 278.833 -0.382787 2.24764 0
M  V30 2824 C 279.817 -0.984836 1.27239 0
M  V30 2825 O 281.009 -0.901943 1.52296 0
M  V30 2826 C 278.138 -1.47989 3.09765 0
M  V30 2827 C 277.224 -0.886931 4.14722 0
M  V30 2828 N 277.615 -0.0237103 5.05794 0
M  V30 2829 C 275.913 -1.15385 4.30816 0
M  V30 2830 C 276.614 0.309971 5.80874 0
M  V30 2831 N 275.59 -0.307989 5.42727 0
M  V30 2832 H 279.392 0.282624 2.92538 0
M  V30 2833 H 276.906 0.256027 1.60369 0
M  V30 2834 H 278.903 -2.08482 3.61027 0
M  V30 2835 H 277.563 -2.14758 2.43535 0
M  V30 2836 H 278.574 0.34318 5.16762 0
M  V30 2837 H 275.251 -1.81857 3.75812 0
M  V30 2838 H 276.641 1.01279 6.64223 0
M  V30 2839 N 279.361 -1.56624 0.175154 0
M  V30 2840 C 280.324 -2.16934 -0.739738 0
M  V30 2841 C 281.324 -1.11842 -1.15533 0
M  V30 2842 O 282.514 -1.37335 -1.07167 0
M  V30 2843 C 279.646 -2.75531 -2.00738 0
M  V30 2844 H 280.839 -2.99131 -0.214639 0
M  V30 2845 H 278.392 -1.56123 -0.0744197 0
M  V30 2846 H 279.127 -1.97078 -2.57548 0
M  V30 2847 H 278.912 -3.52444 -1.71831 0
M  V30 2848 H 280.402 -3.21904 -2.66021 0
M  V30 2849 N 280.839 0.0985539 -1.57292 0
M  V30 2850 C 281.802 1.10402 -2.00858 0
M  V30 2851 C 282.802 1.33146 -0.901593 0
M  V30 2852 O 283.992 1.29318 -1.16716 0
M  V30 2853 C 281.124 2.45394 -2.36632 0
M  V30 2854 H 282.317 0.729099 -2.90902 0
M  V30 2855 H 279.87 0.343495 -1.52479 0
M  V30 2856 H 280.605 2.87769 -1.49531 0
M  V30 2857 H 280.39 2.30235 -3.17387 0
M  V30 2858 H 281.88 3.17718 -2.71007 0
M  V30 2859 N 282.317 1.53212 0.369288 0
M  V30 2860 C 283.565 1.68881 1.11012 0
M  V30 2861 C 283.886 0.441285 1.89941 0
M  V30 2862 O 283.156 -0.544623 1.88177 0
M  V30 2863 H 281.736 0.622569 0.412816 0
M  V30 2864 H 284.398 1.90391 0.416802 0
M  V30 2865 H 283.494 2.54822 1.80201 0
M  V30 2866 N 283.795 -0.628877 1.44509 0
M  V30 2867 C 285.023 -1.41554 1.50897 0
M  V30 2868 C 285.438 -1.8832 0.134564 0
M  V30 2869 O 284.795 -1.60969 -0.859965 0
M  V30 2870 C 284.846 -2.63435 2.47556 0
M  V30 2871 O 284.567 -2.18619 3.79654 0
M  V30 2872 C 286.068 -3.56537 2.63431 0
M  V30 2873 H 283.288 -0.434044 0.511709 0
M  V30 2874 H 285.832 -0.768895 1.89495 0
M  V30 2875 H 283.987 -3.24187 2.12089 0
M  V30 2876 H 284.401 -2.97652 4.31861 0
M  V30 2877 H 285.875 -4.38657 3.35088 0
M  V30 2878 H 286.352 -4.05493 1.68738 0
M  V30 2879 H 286.958 -3.01653 2.9981 0
M  V30 2880 N 285.273 -1.31445 -0.869486 0
M  V30 2881 C 286.498 -1.24256 -1.66058 0
M  V30 2882 C 286.923 0.188928 -1.87149 0
M  V30 2883 O 286.281 1.13522 -1.4136 0
M  V30 2884 C 286.329 -1.9924 -3.00559 0
M  V30 2885 O 285.433 -1.33007 -3.90362 0
M  V30 2886 H 284.774 -0.428973 -0.506831 0
M  V30 2887 H 287.304 -1.73521 -1.08404 0
M  V30 2888 H 287.314 -2.08854 -3.50491 0
M  V30 2889 H 285.989 -3.03342 -2.84528 0
M  V30 2890 H 284.566 -1.31848 -3.48813 0
M  V30 2891 N 286.751 1.08385 -1.14413 0
M  V30 2892 C 287.981 1.8425 -0.934644 0
M  V30 2893 C 288.389 1.81907 0.520234 0
M  V30 2894 O 287.732 1.22126 1.37226 0
M  V30 2895 C 287.794 3.32853 -1.35828 0
M  V30 2896 C 287.458 3.5893 -2.82875 0
M  V30 2897 C 288.455 3.53756 -3.80989 0
M  V30 2898 C 286.14 3.86934 -3.20293 0
M  V30 2899 C 288.134 3.76216 -5.14529 0
M  V30 2900 C 285.821 4.09047 -4.54008 0
M  V30 2901 C 286.819 4.03682 -5.50936 0
M  V30 2902 O 286.507 4.25214 -6.82238 0
M  V30 2903 H 286.239 0.588502 -0.332628 0
M  V30 2904 H 288.793 1.37792 -1.52324 0
M  V30 2905 H 287.023 3.8007 -0.713019 0
M  V30 2906 H 288.712 3.90154 -1.11957 0
M  V30 2907 H 289.478 3.32135 -3.53428 0
M  V30 2908 H 285.357 3.9023 -2.45442 0
M  V30 2909 H 288.901 3.71943 -5.90173 0
M  V30 2910 H 284.798 4.30151 -4.8129 0
M  V30 2911 H 285.566 4.42619 -6.88499 0
M  V30 2912 N 288.23 0.939286 1.26551 0
M  V30 2913 C 289.476 0.586715 1.94128 0
M  V30 2914 C 289.809 -0.8717 1.73537 0
M  V30 2915 O 289.084 -1.62339 1.07127 0
M  V30 2916 C 289.367 0.927497 3.4795 0
M  V30 2917 C 289.22 2.44052 3.77834 0
M  V30 2918 C 290.539 0.441569 4.37879 0
M  V30 2919 H 287.658 0.21463 0.705055 0
M  V30 2920 H 290.3 1.17316 1.49455 0
M  V30 2921 H 288.45 0.428431 3.8613 0
M  V30 2922 H 290.122 3.01216 3.4938 0
M  V30 2923 H 288.365 2.8848 3.23978 0
M  V30 2924 H 289.036 2.62947 4.85348 0
M  V30 2925 H 291.512 0.869448 4.06915 0
M  V30 2926 H 290.388 0.708856 5.44304 0
M  V30 2927 H 290.649 -0.658467 4.37169 0
M  V30 2928 N 289.708 -1.40897 0.706093 0
M  V30 2929 C 290.954 -2.01352 0.241889 0
M  V30 2930 C 291.287 -1.55832 -1.15888 0
M  V30 2931 O 290.562 -0.774145 -1.7843 0
M  V30 2932 C 290.845 -3.58752 0.311311 0
M  V30 2933 C 290.698 -4.1437 1.74978 0
M  V30 2934 C 292.017 -4.38914 -0.322922 0
M  V30 2935 H 289.136 -0.731562 0.0893687 0
M  V30 2936 H 291.778 -1.67504 0.896802 0
M  V30 2937 H 289.928 -3.87718 -0.246302 0
M  V30 2938 H 291.6 -3.96239 2.36205 0
M  V30 2939 H 289.843 -3.69016 2.28057 0
M  V30 2940 H 290.514 -5.23532 1.74981 0
M  V30 2941 H 292.99 -4.15822 0.152089 0
M  V30 2942 H 291.866 -5.48358 -0.243855 0
M  V30 2943 H 292.127 -4.19176 -1.40513 0
M  V30 2944 N 291.186 -0.45159 -1.50991 0
M  V30 2945 C 292.434 0.109857 -2.01801 0
M  V30 2946 C 292.755 1.41958 -1.3369 0
M  V30 2947 O 292.025 1.9003 -0.475951 0
M  V30 2948 H 290.605 0.0435884 -0.745727 0
M  V30 2949 H 293.267 -0.597557 -1.85514 0
M  V30 2950 H 292.363 0.275489 -3.10882 0
M  V30 2951 N 292.664 1.56529 -0.183458 0
M  V30 2952 C 293.574 2.22144 0.754272 0
M  V30 2953 C 294.59 1.21684 1.24374 0
M  V30 2954 O 295.766 1.54385 1.29333 0
M  V30 2955 C 292.831 2.85884 1.96141 0
M  V30 2956 C 291.892 4.01579 1.51765 0
M  V30 2957 C 291.125 4.6227 2.66725 0
M  V30 2958 O 291.348 4.21865 3.83909 0
M  V30 2959 O 290.282 5.51936 2.40104 0
M  V30 2960 H 294.108 3.02861 0.225527 0
M  V30 2961 H 291.693 1.49331 0.0453032 0
M  V30 2962 H 293.575 3.26253 2.66715 0
M  V30 2963 H 292.25 2.08154 2.47899 0
M  V30 2964 H 291.157 3.65856 0.781049 0
M  V30 2965 H 292.49 4.80938 1.04686 0
M  V30 2966 N 294.142 -0.090211 1.57342 0
M  V30 2967 C 295.37 -0.806224 1.90546 0
M  V30 2968 C 295.785 -1.72041 0.777644 0
M  V30 2969 O 295.142 -1.80778 -0.250103 0
M  V30 2970 C 295.193 -1.61546 3.23396 0
M  V30 2971 O 294.914 -0.738043 4.31839 0
M  V30 2972 C 296.415 -2.4341 3.70495 0
M  V30 2973 H 293.635 -0.230256 0.630257 0
M  V30 2974 H 296.179 -0.0659843 2.04394 0
M  V30 2975 H 294.334 -2.30816 3.11131 0
M  V30 2976 H 294.748 -1.29901 5.08159 0
M  V30 2977 H 296.222 -2.95676 4.66133 0
M  V30 2978 H 296.699 -3.22098 2.98579 0
M  V30 2979 H 297.305 -1.79331 3.85643 0
M  V30 2980 N 295.62 -1.53406 -0.361157 0
M  V30 2981 C 296.866 -1.70999 -1.1014 0
M  V30 2982 C 297.221 -0.458425 -1.86859 0
M  V30 2983 O 296.514 0.548654 -1.83577 0
M  V30 2984 C 296.708 -2.90211 -2.08596 0
M  V30 2985 C 296.537 -4.26841 -1.41553 0
M  V30 2986 C 295.307 -4.91621 -1.16778 0
M  V30 2987 C 297.505 -5.07212 -0.850915 0
M  V30 2988 N 295.487 -6.12164 -0.461312 0
M  V30 2989 C 296.858 -6.19394 -0.274046 0
M  V30 2990 C 298.913 -4.92218 -0.750036 0
M  V30 2991 C 297.616 -7.18221 0.393868 0
M  V30 2992 C 299.642 -5.91322 -0.095894 0
M  V30 2993 C 299.004 -7.0283 0.470081 0
M  V30 2994 H 295.103 -0.678939 -0.388028 0
M  V30 2995 H 297.687 -1.90811 -0.38722 0
M  V30 2996 H 295.858 -2.71931 -2.77323 0
M  V30 2997 H 297.59 -2.96606 -2.7533 0
M  V30 2998 H 294.345 -4.50849 -1.45024 0
M  V30 2999 H 294.769 -6.76888 -0.123312 0
M  V30 3000 H 299.411 -4.06192 -1.17337 0
M  V30 3001 H 297.129 -8.03835 0.82914 0
M  V30 3002 H 300.715 -5.81797 -0.0187075 0
M  V30 3003 H 299.595 -7.782 0.968241 0
M  V30 3004 N 297.098 0.621204 -1.44841 0
M  V30 3005 C 298.008 1.7612 -1.5498 0
M  V30 3006 C 299.024 1.68477 -0.434927 0
M  V30 3007 O 300.2 1.89076 -0.693693 0
M  V30 3008 C 297.265 3.1254 -1.50065 0
M  V30 3009 C 296.326 3.31741 -2.72482 0
M  V30 3010 C 295.559 4.61653 -2.67792 0
M  V30 3011 O 295.782 5.431 -1.74352 0
M  V30 3012 O 294.716 4.83271 -3.58794 0
M  V30 3013 H 298.542 1.70518 -2.51311 0
M  V30 3014 H 296.127 0.783643 -1.27198 0
M  V30 3015 H 298.009 3.93844 -1.49882 0
M  V30 3016 H 296.684 3.18663 -0.568806 0
M  V30 3017 H 295.591 2.50077 -2.7823 0
M  V30 3018 H 296.924 3.30486 -3.64746 0
M  V30 3019 N 298.576 1.31904 0.862503 0
M  V30 3020 C 299.523 1.20182 1.9704 0
M  V30 3021 C 300.493 0.0858247 1.65878 0
M  V30 3022 O 301.678 0.26 1.8902 0
M  V30 3023 C 298.818 0.922797 3.32533 0
M  V30 3024 C 297.931 2.12284 3.76244 0
M  V30 3025 C 297.066 1.77996 5.00491 0
M  V30 3026 C 296.105 2.94366 5.36671 0
M  V30 3027 N 295.242 2.60223 6.52095 0
M  V30 3028 H 300.082 2.14951 2.06398 0
M  V30 3029 H 297.619 1.06917 1.01031 0
M  V30 3030 H 299.577 0.741548 4.10557 0
M  V30 3031 H 298.207 0.0119227 3.22798 0
M  V30 3032 H 297.259 2.41461 2.9394 0
M  V30 3033 H 298.571 2.99357 3.98982 0
M  V30 3034 H 297.725 1.56377 5.862 0
M  V30 3035 H 296.464 0.881252 4.79672 0
M  V30 3036 H 295.469 3.16625 4.49476 0
M  V30 3037 H 296.694 3.84957 5.59451 0
M  V30 3038 H 294.64 1.72884 6.32809 0
M  V30 3039 H 294.557 3.40827 6.74814 0
M  V30 3040 H 295.825 2.42016 7.40978 0
M  V30 3041 N 300.054 -1.07777 1.14986 0
M  V30 3042 C 301.465 -1.61766 0.932127 0
M  V30 3043 C 301.816 -1.88974 -0.527581 0
M  V30 3044 O 300.941 -1.65198 -1.39781 0
M  V30 3045 C 301.536 -2.93891 1.68563 0
M  V30 3046 C 300.095 -3.44639 1.5133 0
M  V30 3047 C 299.242 -2.18767 1.704 0
M  V30 3048 H 302.193 -0.909201 1.30074 0
M  V30 3049 H 302.214 -3.62623 1.15259 0
M  V30 3050 H 301.726 -2.74057 2.74799 0
M  V30 3051 H 299.827 -3.69564 0.474702 0
M  V30 3052 H 299.94 -4.20966 2.28746 0
M  V30 3053 H 298.304 -2.28253 1.13016 0
M  V30 3054 H 299.087 -2.01433 2.77992 0
M  V30 3055 N 301.532 -0.945985 -1.26051 0
M  V30 3056 C 302.762 -0.612136 -1.97323 0
M  V30 3057 C 303.17 0.818171 -1.70595 0
M  V30 3058 O 302.513 1.55777 -0.973613 0
M  V30 3059 C 302.575 -0.780347 -3.50929 0
M  V30 3060 C 302.239 -2.18619 -4.01317 0
M  V30 3061 C 303.236 -3.16209 -4.12683 0
M  V30 3062 C 300.921 -2.50805 -4.35203 0
M  V30 3063 C 302.915 -4.44085 -4.57238 0
M  V30 3064 C 300.602 -3.78912 -4.79446 0
M  V30 3065 C 301.6 -4.75365 -4.90425 0
M  V30 3066 O 301.288 -6.01191 -5.3369 0
M  V30 3067 H 301.02 -0.229134 -0.635982 0
M  V30 3068 H 303.574 -1.27036 -1.61404 0
M  V30 3069 H 301.804 -0.0649864 -3.86645 0
M  V30 3070 H 303.493 -0.448842 -4.03411 0
M  V30 3071 H 304.259 -2.92668 -3.86744 0
M  V30 3072 H 300.138 -1.76463 -4.2589 0
M  V30 3073 H 303.682 -5.19373 -4.65723 0
M  V30 3074 H 299.579 -4.02265 -5.0483 0
M  V30 3075 H 300.347 -6.04442 -5.51899 0
M  V30 3076 N 303.011 1.40521 -0.713556 0
M  V30 3077 C 303.943 2.29191 -0.0203126 0
M  V30 3078 C 304.956 1.45723 0.725864 0
M  V30 3079 O 306.145 1.69033 0.573581 0
M  V30 3080 C 303.245 3.2395 0.995486 0
M  V30 3081 C 302.418 4.36262 0.315256 0
M  V30 3082 C 301.477 5.11474 1.23616 0
M  V30 3083 O 300.503 5.64606 0.721719 0
M  V30 3084 N 301.705 5.20638 2.56743 0
M  V30 3085 H 304.47 2.89327 -0.781652 0
M  V30 3086 H 302.031 1.51869 -0.561022 0
M  V30 3087 H 304.023 3.71137 1.61368 0
M  V30 3088 H 302.593 2.64995 1.6582 0
M  V30 3089 H 301.813 3.91228 -0.483106 0
M  V30 3090 H 303.101 5.08558 -0.157004 0
M  V30 3091 H 302.499 4.7895 3.01037 0
M  V30 3092 H 301.056 5.71339 3.13712 0
M  V30 3093 N 304.489 0.459591 1.5075 0
M  V30 3094 C 305.737 -0.0991532 2.01857 0
M  V30 3095 C 306.058 -1.41247 1.34441 0
M  V30 3096 O 305.328 -1.89775 0.486022 0
M  V30 3097 H 303.908 -0.039633 0.745948 0
M  V30 3098 H 306.57 0.607387 1.85194 0
M  V30 3099 H 305.666 -0.258998 3.11023 0
M  V30 3100 N 305.967 -1.56429 0.191757 0
M  V30 3101 C 307.213 -1.98541 -0.441943 0
M  V30 3102 C 307.568 -1.07646 -1.59468 0
M  V30 3103 O 306.861 -0.120191 -1.91223 0
M  V30 3104 C 307.055 -3.44449 -0.953384 0
M  V30 3105 C 306.884 -4.49456 0.148262 0
M  V30 3106 C 305.654 -5.01668 0.604781 0
M  V30 3107 C 307.852 -5.05336 0.95602 0
M  V30 3108 N 305.834 -5.90334 1.6846 0
M  V30 3109 C 307.205 -5.9064 1.88531 0
M  V30 3110 C 309.26 -4.87779 0.998811 0
M  V30 3111 C 307.963 -6.60264 2.85383 0
M  V30 3112 C 309.989 -5.58139 1.95537 0
M  V30 3113 C 309.351 -6.43187 2.8721 0
M  V30 3114 H 305.45 -0.771247 -0.129236 0
M  V30 3115 H 308.034 -1.92426 0.296682 0
M  V30 3116 H 306.205 -3.5107 -1.66146 0
M  V30 3117 H 307.937 -3.73533 -1.55741 0
M  V30 3118 H 304.692 -4.73183 0.198736 0
M  V30 3119 H 305.116 -6.39371 2.22561 0
M  V30 3120 H 309.758 -4.21705 0.304048 0
M  V30 3121 H 307.476 -7.25538 3.55837 0
M  V30 3122 H 311.062 -5.46532 1.99484 0
M  V30 3123 H 309.942 -6.96674 3.60022 0
M  V30 3124 N 307.445 0.0818655 -1.57387 0
M  V30 3125 C 308.378 1.12986 -1.98266 0
M  V30 3126 C 309.356 1.38123 -0.857954 0
M  V30 3127 O 310.54 1.51663 -1.1194 0
M  V30 3128 C 307.667 2.47632 -2.31076 0
M  V30 3129 C 306.713 2.38693 -3.53452 0
M  V30 3130 S 307.546 1.79071 -5.04672 0
M  V30 3131 C 308.702 3.15316 -5.40673 0
M  V30 3132 H 308.935 0.781435 -2.86846 0
M  V30 3133 H 306.468 0.290034 -1.51651 0
M  V30 3134 H 308.426 3.25089 -2.50654 0
M  V30 3135 H 307.087 2.79638 -1.43043 0
M  V30 3136 H 306.28 3.37964 -3.73893 0
M  V30 3137 H 305.882 1.69369 -3.33452 0
M  V30 3138 H 308.174 4.11613 -5.38127 0
M  V30 3139 H 309.117 2.99664 -6.41566 0
M  V30 3140 H 309.525 3.15457 -4.68132 0
M  V30 3141 N 308.923 1.53595 0.353017 0
M  V30 3142 C 309.856 1.7572 1.45594 0
M  V30 3143 C 310.834 0.605961 1.50887 0
M  V30 3144 O 312.018 0.840023 1.68748 0
M  V30 3145 C 309.145 1.84732 2.83887 0
M  V30 3146 C 308.191 3.06808 2.96262 0
M  V30 3147 S 309.024 4.66065 2.63711 0
M  V30 3148 C 310.18 4.77943 4.04131 0
M  V30 3149 H 310.413 2.68994 1.26608 0
M  V30 3150 H 307.946 1.44343 0.548117 0
M  V30 3151 H 309.904 1.9061 3.63563 0
M  V30 3152 H 308.565 0.92488 3.00175 0
M  V30 3153 H 307.758 3.09761 3.97573 0
M  V30 3154 H 307.36 2.99108 2.24523 0
M  V30 3155 H 309.652 4.5877 4.98534 0
M  V30 3156 H 310.595 5.80022 4.06177 0
M  V30 3157 H 311.003 4.06472 3.91715 0
M  V30 3158 N 310.401 -0.613514 1.45168 0
M  V30 3159 C 311.647 -1.37471 1.49096 0
M  V30 3160 C 311.98 -1.93765 0.129901 0
M  V30 3161 O 311.255 -1.74707 -0.854858 0
M  V30 3162 C 311.538 -2.52701 2.56542 0
M  V30 3163 C 311.391 -2.01643 4.0207 0
M  V30 3164 C 312.71 -3.54849 2.60327 0
M  V30 3165 H 309.829 -0.498502 0.54283 0
M  V30 3166 H 312.471 -0.692125 1.76945 0
M  V30 3167 H 310.621 -3.10931 2.32926 0
M  V30 3168 H 312.293 -1.48108 4.36877 0
M  V30 3169 H 310.536 -1.32688 4.13009 0
M  V30 3170 H 311.207 -2.84681 4.72928 0
M  V30 3171 H 313.683 -3.0645 2.81474 0
M  V30 3172 H 312.559 -4.32973 3.37381 0
M  V30 3173 H 312.82 -4.10079 1.6519 0
M  V30 3174 N 311.879 -1.3236 -0.855495 0
M  V30 3175 C 313.156 -1.13491 -1.59309 0
M  V30 3176 C 313.536 0.30503 -2.08885 0
M  V30 3177 O 312.884 1.30151 -1.87811 0
M  V30 3178 C 313.094 -2.16176 -2.73987 0
M  V30 3179 C 314.442 -2.49463 -3.43589 0
M  V30 3180 O 315.466 -2.14715 -2.84211 0
M  V30 3181 O 314.325 -3.09027 -4.50738 0
M  V30 3182 H 311.419 -0.437887 -0.701559 0
M  V30 3183 H 313.965 -1.43887 -0.899696 0
M  V30 3184 H 312.737 -3.1297 -2.34873 0
M  V30 3185 H 312.36 -1.86769 -3.51003 0
M  V30 3186 N 313.357 1.07166 -1.15556 0
M  V30 3187 C 314.597 1.81391 -0.94216 0
M  V30 3188 C 314.961 1.84788 0.521272 0
M  V30 3189 O 316.162 2.54904 0.85307 0
M  V30 3190 C 314.433 3.22431 -1.54185 0
M  V30 3191 S 315.992 4.13379 -1.47183 0
M  V30 3192 H 312.81 0.624963 -0.339031 0
M  V30 3193 H 315.412 1.28725 -1.4714 0
M  V30 3194 H 314.116 3.17548 -2.59984 0
M  V30 3195 H 313.647 3.80172 -1.01156 0
M  V30 3196 H 315.662 4.94007 -0.466004 0
M  V30 3197 N 314.835 0.952656 1.25548 0
M  V30 3198 C 316.063 0.623496 1.97282 0
M  V30 3199 C 316.478 -0.803987 1.70826 0
M  V30 3200 O 315.835 -1.53755 0.983147 0
M  V30 3201 C 315.886 0.870209 3.5087 0
M  V30 3202 O 315.607 2.24156 3.76412 0
M  V30 3203 C 317.108 0.553164 4.39835 0
M  V30 3204 H 314.328 0.233931 0.628902 0
M  V30 3205 H 316.872 1.27649 1.59768 0
M  V30 3206 H 315.027 0.263652 3.86502 0
M  V30 3207 H 315.441 2.31021 4.70882 0
M  V30 3208 H 316.915 0.776342 5.46513 0
M  V30 3209 H 317.392 -0.512215 4.36203 0
M  V30 3210 H 317.998 1.13896 4.09766 0
M  V30 3211 N 316.313 -1.40141 0.720998 0
M  V30 3212 C 317.553 -2.02644 0.267335 0
M  V30 3213 C 317.917 -1.55948 -1.12001 0
M  V30 3214 O 319.118 -2.10552 -1.67097 0
M  V30 3215 C 317.389 -3.55679 0.350281 0
M  V30 3216 S 318.948 -4.38793 -0.0256004 0
M  V30 3217 H 315.766 -0.703105 0.105664 0
M  V30 3218 H 318.368 -1.71175 0.944416 0
M  V30 3219 H 317.072 -3.87157 1.36153 0
M  V30 3220 H 316.603 -3.91883 -0.345096 0
M  V30 3221 H 318.618 -4.803 -1.24604 0
M  V30 3222 N 317.792 -0.46758 -1.50504 0
M  V30 3223 C 318.722 0.318381 -2.31319 0
M  V30 3224 C 319.703 0.993564 -1.38066 0
M  V30 3225 O 320.888 0.991411 -1.66987 0
M  V30 3226 C 318.018 1.40275 -3.17711 0
M  V30 3227 C 316.972 0.849373 -4.19487 0
M  V30 3228 C 316.298 2.03177 -4.94594 0
M  V30 3229 C 317.598 -0.136942 -5.2212 0
M  V30 3230 H 319.292 -0.356106 -2.97275 0
M  V30 3231 H 316.838 -0.172703 -1.42961 0
M  V30 3232 H 318.791 1.96004 -3.73042 0
M  V30 3233 H 317.515 2.10596 -2.49634 0
M  V30 3234 H 316.174 0.314076 -3.65252 0
M  V30 3235 H 315.822 2.72187 -4.22993 0
M  V30 3236 H 315.522 1.66774 -5.63436 0
M  V30 3237 H 317.046 2.59403 -5.52759 0
M  V30 3238 H 318.46 0.331056 -5.72343 0
M  V30 3239 H 316.857 -0.41507 -5.98663 0
M  V30 3240 H 317.927 -1.06398 -4.73083 0
M  V30 3241 N 319.27 1.56325 -0.20005 0
M  V30 3242 C 320.518 1.97329 0.436547 0
M  V30 3243 C 320.839 1.08826 1.61808 0
M  V30 3244 O 320.109 0.160604 1.95241 0
M  V30 3245 H 318.689 0.728714 0.164272 0
M  V30 3246 H 321.351 1.92761 -0.287937 0
M  V30 3247 H 320.447 3.02264 0.777353 0
M  V30 3248 N 320.748 -0.0735177 1.57428 0
M  V30 3249 C 321.658 -1.10547 2.06922 0
M  V30 3250 C 322.674 -1.42506 0.998402 0
M  V30 3251 O 323.85 -1.52717 1.31299 0
M  V30 3252 C 320.915 -2.40019 2.50184 0
M  V30 3253 C 319.976 -2.15046 3.71556 0
M  V30 3254 C 319.209 -3.38345 4.12745 0
M  V30 3255 O 319.432 -4.47399 3.53822 0
M  V30 3256 O 318.366 -3.2666 5.05546 0
M  V30 3257 H 322.192 -0.715013 2.95163 0
M  V30 3258 H 319.777 -0.287531 1.46607 0
M  V30 3259 H 321.659 -3.16218 2.78539 0
M  V30 3260 H 320.334 -2.78447 1.65072 0
M  V30 3261 H 319.241 -1.36558 3.48285 0
M  V30 3262 H 320.574 -1.81499 4.57514 0
M  V30 3263 N 322.226 -1.5378 -0.344866 0
M  V30 3264 C 323.474 -1.70625 -1.08311 0
M  V30 3265 C 323.795 -0.471447 -1.89215 0
M  V30 3266 O 323.065 0.514616 -1.8902 0
M  V30 3267 H 321.645 -0.629058 -0.402859 0
M  V30 3268 H 324.307 -1.9103 -0.386459 0
M  V30 3269 H 323.403 -2.57656 -1.76124 0
M  V30 3270 N 323.704 0.605807 -1.45491 0
M  V30 3271 C 324.929 1.39625 -1.53361 0
M  V30 3272 C 325.354 1.87351 -0.167645 0
M  V30 3273 O 324.712 1.60243 0.848051 0
M  V30 3274 C 324.76 2.57559 -2.5238 0
M  V30 3275 O 323.864 3.58248 -2.04285 0
M  V30 3276 H 323.205 0.416771 -0.516912 0
M  V30 3277 H 325.735 0.737103 -1.90861 0
M  V30 3278 H 325.745 3.0478 -2.71244 0
M  V30 3279 H 324.42 2.22171 -3.51586 0
M  V30 3280 H 322.997 3.17664 -1.95305 0
M  V30 3281 N 325.182 1.32811 0.848464 0
M  V30 3282 C 326.43 1.23479 1.59991 0
M  V30 3283 C 326.751 -0.201853 1.93952 0
M  V30 3284 O 326.021 -1.12818 1.60153 0
M  V30 3285 H 324.601 0.454034 0.593179 0
M  V30 3286 H 327.263 1.66412 1.01455 0
M  V30 3287 H 326.359 1.82178 2.53412 0
M  V30 3288 N 326.66 -1.06551 1.16123 0
M  V30 3289 C 328.076 -1.3142 0.905585 0
M  V30 3290 C 328.276 -1.96571 -0.442964 0
M  V30 3291 O 327.332 -2.23068 -1.18308 0
M  V30 3292 C 328.645 -2.19741 2.05267 0
M  V30 3293 C 330.193 -2.33165 2.08813 0
M  V30 3294 C 330.668 -3.24838 3.22868 0
M  V30 3295 N 332.159 -3.32421 3.22568 0
M  V30 3296 C 332.894 -4.0344 4.0746 0
M  V30 3297 N 332.39 -4.77003 5.02434 0
M  V30 3298 N 334.183 -3.99464 3.95456 0
M  V30 3299 H 326.334 -0.626548 2.02949 0
M  V30 3300 H 328.597 -0.338777 0.8854 0
M  V30 3301 H 328.303 -1.79142 3.02657 0
M  V30 3302 H 328.177 -3.20313 1.99198 0
M  V30 3303 H 330.564 -2.73013 1.12018 0
M  V30 3304 H 330.645 -1.3227 2.18948 0
M  V30 3305 H 330.289 -2.85708 4.19921 0
M  V30 3306 H 330.219 -4.25707 3.0997 0
M  V30 3307 H 332.71 -2.79994 2.53795 0
M  V30 3308 H 333.023 -5.28712 5.63634 0
M  V30 3309 H 331.368 -4.75992 5.06415 0
M  V30 3310 H 334.559 -3.4111 3.20564 0
M  V30 3311 H 334.732 -4.54544 4.61837 0
M  V30 3312 N 328.138 -0.959301 -1.25041 0
M  V30 3313 C 329.387 -0.612254 -1.92183 0
M  V30 3314 C 329.7 0.855347 -1.75907 0
M  V30 3315 O 330.906 1.31256 -2.37664 0
M  V30 3316 C 329.362 -1.04435 -3.44414 0
M  V30 3317 C 328.97 -2.53482 -3.69393 0
M  V30 3318 C 330.714 -0.770055 -4.17457 0
M  V30 3319 C 328.621 -2.90468 -5.15153 0
M  V30 3320 H 327.551 -0.225279 -0.719559 0
M  V30 3321 H 330.202 -1.16438 -1.41825 0
M  V30 3322 H 328.584 -0.4206 -3.9376 0
M  V30 3323 H 329.758 -3.20916 -3.30681 0
M  V30 3324 H 328.073 -2.78432 -3.0962 0
M  V30 3325 H 330.67 -1.02249 -5.24832 0
M  V30 3326 H 331.013 0.293611 -4.15263 0
M  V30 3327 H 331.546 -1.35437 -3.74034 0
M  V30 3328 H 328.285 -3.95871 -5.22462 0
M  V30 3329 H 327.805 -2.27711 -5.54894 0
M  V30 3330 H 329.484 -2.79914 -5.83315 0
M  V30 3331 N 329.616 1.39756 -0.72842 0
M  V30 3332 C 330.844 2.04948 -0.283528 0
M  V30 3333 C 331.259 1.54908 1.0793 0
M  V30 3334 O 330.616 0.711135 1.68075 0
M  V30 3335 C 330.667 3.60498 -0.268957 0
M  V30 3336 O 330.388 4.08695 -1.57798 0
M  V30 3337 C 331.889 4.4288 0.192912 0
M  V30 3338 H 329.109 0.659243 -0.125056 0
M  V30 3339 H 331.653 1.78927 -0.990226 0
M  V30 3340 H 329.808 3.85444 0.388801 0
M  V30 3341 H 330.222 5.02977 -1.48709 0
M  V30 3342 H 331.696 5.51791 0.151952 0
M  V30 3343 H 332.173 4.21418 1.23708 0
M  V30 3344 H 332.779 4.23069 -0.435039 0
M  V30 3345 N 331.094 0.475555 1.50254 0
M  V30 3346 C 332.334 -0.0765802 2.04256 0
M  V30 3347 C 332.698 -1.36587 1.34937 0
M  V30 3348 O 333.899 -2.00066 1.79519 0
M  V30 3349 C 332.17 -0.251668 3.56513 0
M  V30 3350 S 333.729 -0.761716 4.32138 0
M  V30 3351 H 330.547 -0.0138456 0.710865 0
M  V30 3352 H 333.149 0.643714 1.84598 0
M  V30 3353 H 331.853 0.692404 4.04517 0
M  V30 3354 H 331.384 -0.997946 3.80532 0
M  V30 3355 H 333.399 -2.03451 4.52573 0
M  V30 3356 N 332.573 -1.56217 0.208337 0
M  V30 3357 C 333.801 -2.02337 -0.43215 0
M  V30 3358 C 334.216 -1.08834 -1.54275 0
M  V30 3359 O 333.573 -0.0955462 -1.8225 0
M  V30 3360 C 333.624 -3.48072 -0.976138 0
M  V30 3361 O 333.345 -4.38007 0.0901621 0
M  V30 3362 C 334.846 -4.09773 -1.69119 0
M  V30 3363 H 332.066 -0.662385 -0.10718 0
M  V30 3364 H 334.61 -2.01966 0.320923 0
M  V30 3365 H 332.765 -3.49099 -1.67954 0
M  V30 3366 H 333.179 -5.23543 -0.316701 0
M  V30 3367 H 334.653 -5.13556 -2.02397 0
M  V30 3368 H 335.13 -3.53999 -2.59964 0
M  V30 3369 H 335.736 -4.12556 -1.03332 0
M  V30 3370 N 334.051 0.0651679 -1.57465 0
M  V30 3371 C 335.276 0.779605 -1.9219 0
M  V30 3372 C 335.701 1.69988 -0.805333 0
M  V30 3373 O 335.059 1.79685 0.241435 0
M  V30 3374 C 335.107 1.54364 -3.2589 0
M  V30 3375 O 334.211 2.65474 -3.1559 0
M  V30 3376 H 333.552 0.212249 -0.629163 0
M  V30 3377 H 336.082 0.0314294 -2.04576 0
M  V30 3378 H 336.092 1.92146 -3.59922 0
M  V30 3379 H 334.767 0.868457 -4.06732 0
M  V30 3380 H 333.344 2.30501 -2.93128 0
M  V30 3381 N 335.529 1.53961 0.336706 0
M  V30 3382 C 336.945 1.44378 0.680241 0
M  V30 3383 C 337.145 0.606034 1.9217 0
M  V30 3384 O 336.201 0.099688 2.52303 0
M  V30 3385 C 337.514 2.87945 0.8665 0
M  V30 3386 C 339.062 2.97763 0.964682 0
M  V30 3387 C 339.537 4.42453 1.18321 0
M  V30 3388 N 341.028 4.46008 1.25025 0
M  V30 3389 C 341.763 5.55102 1.43697 0
M  V30 3390 N 341.259 6.7419 1.59498 0
M  V30 3391 N 343.052 5.42727 1.463 0
M  V30 3392 H 335.203 2.06918 -0.479455 0
M  V30 3393 H 337.466 0.935634 -0.152619 0
M  V30 3394 H 337.172 3.51691 0.0256937 0
M  V30 3395 H 337.046 3.33293 1.76623 0
M  V30 3396 H 339.433 2.34153 1.796 0
M  V30 3397 H 339.514 2.55766 0.041708 0
M  V30 3398 H 339.158 5.06645 0.356788 0
M  V30 3399 H 339.088 4.82048 2.11985 0
M  V30 3400 H 341.579 3.60196 1.14312 0
M  V30 3401 H 341.892 7.53095 1.734 0
M  V30 3402 H 340.237 6.77123 1.56621 0
M  V30 3403 H 343.428 4.48647 1.33543 0
M  V30 3404 H 343.601 6.27806 1.6051 0
M  V30 3405 N 337.007 -0.598083 1.45811 0
M  V30 3406 C 337.955 -1.72932 1.55555 0
M  V30 3407 C 338.949 -1.63984 0.424921 0
M  V30 3408 O 340.155 -1.69663 0.601205 0
M  V30 3409 H 336.53 -0.571489 0.488779 0
M  V30 3410 H 338.501 -1.61842 2.50699 0
M  V30 3411 C 337.25 -3.11318 1.54843 0
M  V30 3412 H 336.573 -3.18867 2.41172 0
M  V30 3413 H 338.013 -3.90274 1.65717 0
M  V30 3414 C 336.472 -3.3578 0.274427 0
M  V30 3415 O 337.002 -3.9654 -0.641778 0
M  V30 3416 N 335.208 -2.90119 0.167139 0
M  V30 3417 H 334.755 -2.40855 0.913596 0
M  V30 3418 H 334.713 -3.0686 -0.684435 0
M  V30 3419 N 338.485 -1.33259 -0.841409 0
M  V30 3420 C 339.901 -1.12538 -1.13169 0
M  V30 3421 C 340.101 0.0854037 -2.01319 0
M  V30 3422 O 339.157 0.766417 -2.40587 0
M  V30 3423 C 340.47 -2.41156 -1.79623 0
M  V30 3424 C 342.018 -2.47038 -1.922 0
M  V30 3425 C 342.493 -3.7561 -2.6207 0
M  V30 3426 N 343.984 -3.76667 -2.69585 0
M  V30 3427 C 344.719 -4.72861 -3.2433 0
M  V30 3428 N 344.215 -5.79428 -3.79783 0
M  V30 3429 N 346.008 -4.6034 -3.22558 0
M  V30 3430 H 338.159 -2.10868 -0.254676 0
M  V30 3431 H 340.422 -0.931615 -0.175493 0
M  V30 3432 H 340.128 -3.29747 -1.22311 0
M  V30 3433 H 340.002 -2.53114 -2.79666 0
M  V30 3434 H 342.389 -1.58898 -2.48667 0
M  V30 3435 H 342.47 -2.39022 -0.911148 0
M  V30 3436 H 342.114 -4.64131 -2.06263 0
M  V30 3437 H 342.044 -3.80902 -3.63622 0
M  V30 3438 H 344.535 -2.99648 -2.30259 0
M  V30 3439 H 344.848 -6.48867 -4.19752 0
M  V30 3440 H 343.193 -5.83166 -3.78078 0
M  V30 3441 H 346.384 -3.76244 -2.78492 0
M  V30 3442 H 346.557 -5.35478 -3.64921 0
M  V30 3443 N 339.963 1.05934 -1.16686 0
M  V30 3444 C 341.203 1.80382 -0.961345 0
M  V30 3445 C 341.567 1.85331 0.501643 0
M  V30 3446 O 342.768 2.55795 0.825986 0
M  V30 3447 C 341.039 3.20777 -1.57596 0
M  V30 3448 S 342.598 4.11795 -1.51559 0
M  V30 3449 H 339.416 0.621332 -0.345641 0
M  V30 3450 H 342.018 1.27157 -1.48497 0
M  V30 3451 H 340.722 3.14773 -2.63337 0
M  V30 3452 H 340.253 3.79078 -1.05182 0
M  V30 3453 H 342.268 4.93485 -0.518374 0
M  V30 3454 N 341.441 0.965919 1.2453 0
M  V30 3455 C 342.389 0.486506 2.27455 0
M  V30 3456 C 343.383 -0.449041 1.6334 0
M  V30 3457 O 344.589 -0.324527 1.7705 0
M  V30 3458 H 340.964 0.138857 0.739069 0
M  V30 3459 H 342.935 1.3666 2.65267 0
M  V30 3460 C 341.684 -0.209481 3.47068 0
M  V30 3461 H 341.007 0.50129 3.96645 0
M  V30 3462 H 342.447 -0.508775 4.20936 0
M  V30 3463 C 340.906 -1.43586 3.0477 0
M  V30 3464 O 341.436 -2.53299 3.11773 0
M  V30 3465 N 339.642 -1.30126 2.59838 0
M  V30 3466 H 339.189 -0.408583 2.54339 0
M  V30 3467 H 339.147 -2.12294 2.31902 0
M  V30 3468 N 342.919 -1.39368 0.735821 0
M  V30 3469 C 344.196 -1.94465 0.210395 0
M  V30 3470 C 344.576 -1.67254 -1.28799 0
M  V30 3471 O 343.924 -1.00123 -2.05396 0
M  V30 3472 C 344.134 -3.4472 0.544897 0
M  V30 3473 C 345.482 -4.21708 0.494689 0
M  V30 3474 O 346.506 -3.52922 0.482136 0
M  V30 3475 O 345.365 -5.44299 0.489947 0
M  V30 3476 H 342.459 -0.826096 0.0386666 0
M  V30 3477 H 345.005 -1.48863 0.814735 0
M  V30 3478 H 343.777 -3.57963 1.58045 0
M  V30 3479 H 343.4 -3.97502 -0.08837 0
M  V30 3480 N 344.397 -0.483516 -1.5 0
M  V30 3481 C 345.329 0.340634 -2.26655 0
M  V30 3482 C 346.342 0.946152 -1.32483 0
M  V30 3483 O 347.531 0.832453 -1.579 0
M  V30 3484 C 344.631 1.4929 -3.04246 0
M  V30 3485 C 343.804 0.997903 -4.25865 0
M  V30 3486 C 342.863 2.02569 -4.85646 0
M  V30 3487 O 341.889 1.60128 -5.46212 0
M  V30 3488 N 343.091 3.3548 -4.73744 0
M  V30 3489 H 345.856 -0.316577 -2.98023 0
M  V30 3490 H 343.417 -0.315024 -1.58806 0
M  V30 3491 H 345.409 2.17766 -3.41116 0
M  V30 3492 H 343.979 2.05458 -2.35597 0
M  V30 3493 H 343.199 0.138617 -3.93956 0
M  V30 3494 H 344.487 0.645305 -5.04691 0
M  V30 3495 H 343.885 3.72661 -4.25605 0
M  V30 3496 H 342.442 3.99718 -5.14848 0
M  V30 3497 N 345.875 1.56104 -0.216619 0
M  V30 3498 C 347.152 1.89988 0.465165 0
M  V30 3499 C 347.532 1.13326 1.78102 0
M  V30 3500 O 346.88 0.241033 2.27225 0
M  V30 3501 C 347.09 3.42646 0.662939 0
M  V30 3502 C 348.438 4.13311 0.972602 0
M  V30 3503 O 349.462 3.48217 0.749901 0
M  V30 3504 O 348.321 5.28396 1.39499 0
M  V30 3505 H 345.415 0.78979 0.245276 0
M  V30 3506 H 347.961 1.67721 -0.258436 0
M  V30 3507 H 346.733 3.90399 -0.26543 0
M  V30 3508 H 346.356 3.70677 1.43821 0
M  V30 3509 N 347.353 -0.0568162 1.57498 0
M  V30 3510 C 348.581 -0.765626 1.92213 0
M  V30 3511 C 348.996 -1.70353 0.813961 0
M  V30 3512 O 348.353 -1.81268 -0.211701 0
M  V30 3513 C 348.404 -1.5465 3.2675 0
M  V30 3514 O 348.125 -0.646278 4.33307 0
M  V30 3515 C 349.626 -2.35497 3.75574 0
M  V30 3516 H 346.846 -0.216835 0.634999 0
M  V30 3517 H 349.39 -0.0226146 2.04487 0
M  V30 3518 H 347.545 -2.24165 3.15957 0
M  V30 3519 H 347.959 -1.19093 5.108 0
M  V30 3520 H 349.433 -2.85722 4.72299 0
M  V30 3521 H 349.91 -3.15692 3.05344 0
M  V30 3522 H 350.516 -1.7111 3.8936 0
M  V30 3523 N 348.832 -1.54138 -0.328536 0
M  V30 3524 C 350.248 -1.44736 -0.672574 0
M  V30 3525 C 350.448 -0.616217 -1.91846 0
M  V30 3526 O 349.504 -0.113067 -2.52247 0
M  V30 3527 C 350.817 -2.884 -0.851217 0
M  V30 3528 C 352.365 -2.98271 -0.948877 0
M  V30 3529 C 352.84 -4.43074 -1.15973 0
M  V30 3530 N 354.331 -4.46665 -1.22658 0
M  V30 3531 C 355.066 -5.55857 -1.40751 0
M  V30 3532 N 354.562 -6.75026 -1.5592 0
M  V30 3533 N 356.355 -5.43495 -1.4342 0
M  V30 3534 H 348.506 -2.06661 0.490421 0
M  V30 3535 H 350.769 -0.934812 0.157579 0
M  V30 3536 H 350.475 -3.51699 -0.00704236 0
M  V30 3537 H 350.349 -3.34225 -1.74853 0
M  V30 3538 H 352.736 -2.35102 -1.78356 0
M  V30 3539 H 352.817 -2.55785 -0.0281435 0
M  V30 3540 H 352.461 -5.06827 -0.329915 0
M  V30 3541 H 352.391 -4.83165 -2.09426 0
M  V30 3542 H 354.882 -3.60797 -1.124 0
M  V30 3543 H 355.195 -7.54004 -1.69404 0
M  V30 3544 H 353.54 -6.77944 -1.53027 0
M  V30 3545 H 356.731 -4.49349 -1.31162 0
M  V30 3546 H 356.904 -6.28649 -1.57178 0
M  V30 3547 N 350.31 0.590341 -1.46126 0
M  V30 3548 C 351.538 1.37504 -1.54597 0
M  V30 3549 C 351.953 1.87897 -0.184447 0
M  V30 3550 O 351.31 1.63192 0.816984 0
M  V30 3551 C 351.361 2.56779 -2.54454 0
M  V30 3552 O 351.082 2.08476 -3.85317 0
M  V30 3553 C 352.583 3.49427 -2.72792 0
M  V30 3554 H 349.803 0.420325 -0.523037 0
M  V30 3555 H 352.347 0.718383 -1.91467 0
M  V30 3556 H 350.502 3.1845 -2.20609 0
M  V30 3557 H 350.916 2.86097 -4.396 0
M  V30 3558 H 352.39 4.29619 -3.466 0
M  V30 3559 H 352.867 4.00876 -1.79429 0
M  V30 3560 H 353.473 2.93598 -3.07702 0
M  V30 3561 N 351.788 1.33704 0.83433 0
M  V30 3562 C 353.013 1.28615 1.62705 0
M  V30 3563 C 353.438 -0.139242 1.87584 0
M  V30 3564 O 352.796 -1.09734 1.4432 0
M  V30 3565 C 352.844 2.07139 2.95171 0
M  V30 3566 O 351.948 1.4331 3.86699 0
M  V30 3567 H 351.289 0.44226 0.49528 0
M  V30 3568 H 353.819 1.76335 1.03766 0
M  V30 3569 H 353.829 2.18073 3.44831 0
M  V30 3570 H 352.504 3.10779 2.76386 0
M  V30 3571 H 351.081 1.4105 3.45195 0
M  V30 3572 N 353.266 -1.05314 1.17247 0
M  V30 3573 C 354.496 -1.81707 0.983166 0
M  V30 3574 C 354.904 -1.83222 -0.471822 0
M  V30 3575 O 354.247 -1.25721 -1.3394 0
M  V30 3576 C 354.309 -3.29134 1.44606 0
M  V30 3577 C 353.973 -3.51304 2.92292 0
M  V30 3578 C 354.97 -3.4353 3.90235 0
M  V30 3579 C 352.655 -3.78306 3.30439 0
M  V30 3580 C 354.649 -3.62442 5.24323 0
M  V30 3581 C 352.336 -3.96866 4.64694 0
M  V30 3582 C 353.334 -3.88933 5.61445 0
M  V30 3583 O 353.022 -4.06976 6.93272 0
M  V30 3584 H 352.754 -0.579476 0.348114 0
M  V30 3585 H 355.308 -1.33705 1.55924 0
M  V30 3586 H 353.538 -3.78046 0.813537 0
M  V30 3587 H 355.227 -3.87049 1.22262 0
M  V30 3588 H 355.993 -3.22648 3.62109 0
M  V30 3589 H 351.872 -3.83585 2.55702 0
M  V30 3590 H 355.416 -3.56165 5.99827 0
M  V30 3591 H 351.313 -4.1724 4.92525 0
M  V30 3592 H 352.081 -4.24209 6.99992 0
M  V30 3593 N 354.744 -0.972509 -1.24016 0
M  V30 3594 C 356.16 -0.679827 -1.44397 0
M  V30 3595 C 356.36 0.756716 -1.86751 0
M  V30 3596 O 355.416 1.53007 -2.00861 0
M  V30 3597 C 356.729 -1.66803 -2.50195 0
M  V30 3598 C 358.277 -1.68119 -2.64017 0
M  V30 3599 C 358.752 -2.65748 -3.73017 0
M  V30 3600 N 360.243 -2.64219 -3.8045 0
M  V30 3601 C 360.978 -3.36433 -4.64328 0
M  V30 3602 N 360.474 -4.1818 -5.52356 0
M  V30 3603 N 362.267 -3.25235 -4.58453 0
M  V30 3604 H 354.418 -1.90059 -0.948228 0
M  V30 3605 H 356.681 -0.818527 -0.478245 0
M  V30 3606 H 356.387 -2.69498 -2.25973 0
M  V30 3607 H 356.261 -1.4446 -3.48441 0
M  V30 3608 H 358.648 -0.661319 -2.87594 0
M  V30 3609 H 358.729 -1.94525 -1.66113 0
M  V30 3610 H 358.373 -3.67872 -3.50189 0
M  V30 3611 H 358.303 -2.36619 -4.70446 0
M  V30 3612 H 360.794 -2.04887 -3.17537 0
M  V30 3613 H 361.107 -4.70157 -6.13329 0
M  V30 3614 H 359.452 -4.22273 -5.52006 0
M  V30 3615 H 362.643 -2.60829 -3.88698 0
M  V30 3616 H 362.816 -3.81776 -5.23594 0
M  V30 3617 N 356.222 1.38976 -0.743202 0
M  V30 3618 C 357.471 1.99581 -0.291592 0
M  V30 3619 C 357.784 1.59656 1.13001 0
M  V30 3620 O 358.99 2.13157 1.68156 0
M  V30 3621 C 357.446 3.56813 -0.470391 0
M  V30 3622 C 357.054 4.05695 -1.90041 0
M  V30 3623 C 358.798 4.24423 -0.0809709 0
M  V30 3624 C 356.705 5.5553 -2.02832 0
M  V30 3625 H 355.635 0.746615 -0.105272 0
M  V30 3626 H 358.286 1.58872 -0.918258 0
M  V30 3627 H 356.668 3.95359 0.225299 0
M  V30 3628 H 357.842 3.78464 -2.62872 0
M  V30 3629 H 356.157 3.50775 -2.24379 0
M  V30 3630 H 358.754 5.34474 -0.155445 0
M  V30 3631 H 359.097 4.04962 0.96497 0
M  V30 3632 H 359.63 3.9108 -0.728124 0
M  V30 3633 H 356.369 5.79881 -3.05643 0
M  V30 3634 H 355.889 5.84537 -1.34448 0
M  V30 3635 H 357.568 6.21069 -1.81335 0
M  V30 3636 N 357.7 0.491464 1.49741 0
M  V30 3637 C 358.948 -0.0563141 2.02022 0
M  V30 3638 C 359.269 -1.38363 1.37407 0
M  V30 3639 O 358.539 -1.88702 0.526166 0
M  V30 3640 H 357.119 -0.0238014 0.746621 0
M  V30 3641 H 359.781 0.646533 1.83864 0
M  V30 3642 H 358.877 -0.192967 3.11503 0
M  V30 3643 N 359.178 -1.55987 0.224894 0
M  V30 3644 C 360.455 -1.90232 -0.455083 0
M  V30 3645 C 360.835 -1.14269 -1.77499 0
M  V30 3646 O 360.183 -0.253079 -2.27094 0
M  V30 3647 C 360.393 -3.42993 -0.644758 0
M  V30 3648 C 361.741 -4.13821 -0.950669 0
M  V30 3649 O 362.765 -3.4861 -0.731423 0
M  V30 3650 O 361.624 -5.29128 -1.36695 0
M  V30 3651 H 358.718 -0.79108 -0.241084 0
M  V30 3652 H 361.264 -1.67581 0.267327 0
M  V30 3653 H 360.036 -3.90252 0.28613 0
M  V30 3654 H 359.659 -3.71434 -1.41853 0
M  V30 3655 N 360.656 0.0484629 -1.57525 0
M  V30 3656 C 361.884 0.755421 -1.92616 0
M  V30 3657 C 362.299 1.69919 -0.822984 0
M  V30 3658 O 361.656 1.81378 0.202085 0
M  V30 3659 C 361.707 1.52915 -3.27566 0
M  V30 3660 O 361.428 0.62329 -4.33644 0
M  V30 3661 C 362.929 2.33502 -3.76818 0
M  V30 3662 H 360.149 0.213465 -0.63614 0
M  V30 3663 H 362.693 0.0117698 -2.04497 0
M  V30 3664 H 360.848 2.22486 -3.17142 0
M  V30 3665 H 361.262 1.16383 -5.11425 0
M  V30 3666 H 362.736 2.83214 -4.73808 0
M  V30 3667 H 363.213 3.14068 -3.07014 0
M  V30 3668 H 363.819 1.69043 -3.90262 0
M  V30 3669 N 362.134 1.5431 0.320358 0
M  V30 3670 C 363.38 1.73859 1.05568 0
M  V30 3671 C 363.735 0.507807 1.85578 0
M  V30 3672 O 363.028 -0.499789 1.84967 0
M  V30 3673 C 363.222 2.95639 2.00828 0
M  V30 3674 C 363.051 4.30444 1.30186 0
M  V30 3675 C 361.821 4.94544 1.03703 0
M  V30 3676 C 364.019 5.0929 0.716138 0
M  V30 3677 N 362.001 6.13172 0.298846 0
M  V30 3678 C 363.372 6.19903 0.109729 0
M  V30 3679 C 365.427 4.94034 0.619269 0
M  V30 3680 C 364.13 7.16924 -0.584153 0
M  V30 3681 C 366.156 5.91369 -0.0609184 0
M  V30 3682 C 365.518 7.01336 -0.656258 0
M  V30 3683 H 361.617 0.688988 0.36989 0
M  V30 3684 H 364.201 1.9177 0.336494 0
M  V30 3685 H 362.372 2.79188 2.70016 0
M  V30 3686 H 364.104 3.03802 2.6737 0
M  V30 3687 H 360.859 4.54536 1.33019 0
M  V30 3688 H 361.283 6.76977 -0.0561964 0
M  V30 3689 H 365.925 4.0916 1.06526 0
M  V30 3690 H 363.643 8.01354 -1.04197 0
M  V30 3691 H 367.229 5.81642 -0.135552 0
M  V30 3692 H 366.109 7.75359 -1.17423 0
M  V30 3693 N 363.613 -0.582584 1.46437 0
M  V30 3694 C 364.838 -1.37168 1.55563 0
M  V30 3695 C 365.263 -1.87061 0.19743 0
M  V30 3696 O 364.621 -1.61572 -0.822451 0
M  V30 3697 C 364.669 -2.53511 2.56446 0
M  V30 3698 O 363.773 -3.54953 2.09958 0
M  V30 3699 H 363.114 -0.408494 0.523477 0
M  V30 3700 H 365.644 -0.706646 1.9201 0
M  V30 3701 H 365.654 -3.00426 2.76058 0
M  V30 3702 H 364.329 -2.16549 3.55076 0
M  V30 3703 H 362.906 -3.14516 2.00334 0
M  V30 3704 N 365.091 -1.34144 -0.827227 0
M  V30 3705 C 366.038 -1.25364 -1.93785 0
M  V30 3706 C 367.008 -0.129774 -1.65592 0
M  V30 3707 O 368.193 -0.310024 -1.88264 0
M  V30 3708 C 365.333 -1.01064 -3.2997 0
M  V30 3709 C 364.446 -2.22185 -3.70484 0
M  V30 3710 C 363.581 -1.91203 -4.95595 0
M  V30 3711 C 362.62 -3.08491 -5.28677 0
M  V30 3712 N 361.757 -2.77421 -6.44967 0
M  V30 3713 H 366.597 -2.20347 -2.00627 0
M  V30 3714 H 364.134 -1.09558 -0.981608 0
M  V30 3715 H 366.092 -0.850139 -4.08446 0
M  V30 3716 H 364.722 -0.0975026 -3.22653 0
M  V30 3717 H 363.774 -2.4917 -2.87434 0
M  V30 3718 H 365.086 -3.0983 -3.90905 0
M  V30 3719 H 364.24 -1.71864 -5.81848 0
M  V30 3720 H 362.979 -1.00812 -4.77167 0
M  V30 3721 H 361.984 -3.28431 -4.40923 0
M  V30 3722 H 363.209 -3.99655 -5.49047 0
M  V30 3723 H 361.155 -1.89601 -6.28003 0
M  V30 3724 H 361.072 -3.58598 -6.6554 0
M  V30 3725 H 362.34 -2.61577 -7.34301 0
M  V30 3726 N 366.569 1.04691 -1.17803 0
M  V30 3727 C 367.516 2.12557 -0.899343 0
M  V30 3728 C 368.486 1.65339 0.158771 0
M  V30 3729 O 369.671 1.90789 0.0204797 0
M  V30 3730 C 366.811 3.42481 -0.424315 0
M  V30 3731 C 365.924 4.03346 -1.54713 0
M  V30 3732 C 365.059 5.21208 -1.02546 0
M  V30 3733 C 364.098 5.74089 -2.12339 0
M  V30 3734 N 363.235 6.83247 -1.61612 0
M  V30 3735 H 368.075 2.35734 -1.823 0
M  V30 3736 H 365.612 1.1564 -0.909159 0
M  V30 3737 H 367.57 4.16996 -0.130421 0
M  V30 3738 H 366.2 3.19471 0.462377 0
M  V30 3739 H 365.252 3.2622 -1.95664 0
M  V30 3740 H 366.564 4.38628 -2.37501 0
M  V30 3741 H 365.718 6.02812 -0.685718 0
M  V30 3742 H 364.457 4.87414 -0.167084 0
M  V30 3743 H 363.462 4.91111 -2.47165 0
M  V30 3744 H 364.687 6.0993 -2.98601 0
M  V30 3745 H 362.633 6.5134 -0.780533 0
M  V30 3746 H 362.55 7.17559 -2.38003 0
M  V30 3747 H 363.818 7.68491 -1.30545 0
M  V30 3748 N 368.047 0.979072 1.23499 0
M  V30 3749 C 369.324 0.563674 1.87302 0
M  V30 3750 C 369.704 -0.959199 1.88049 0
M  V30 3751 O 369.052 -1.83535 1.36114 0
M  V30 3752 C 369.262 1.16822 3.28867 0
M  V30 3753 C 370.61 1.26014 4.0547 0
M  V30 3754 O 371.634 1.12158 3.38082 0
M  V30 3755 O 370.493 1.48044 5.26066 0
M  V30 3756 H 367.587 0.189602 0.804972 0
M  V30 3757 H 370.133 1.07407 1.31384 0
M  V30 3758 H 368.905 2.21049 3.22883 0
M  V30 3759 H 368.528 0.642564 3.92373 0
M  V30 3760 N 369.525 -1.3858 0.750561 0
M  V30 3761 C 370.473 -2.32339 0.110162 0
M  V30 3762 C 371.467 -1.53864 -0.708674 0
M  V30 3763 O 372.673 -1.69417 -0.608112 0
M  V30 3764 H 369.048 -0.751812 0.0168275 0
M  V30 3765 H 371.019 -2.83959 0.917053 0
M  V30 3766 C 369.768 -3.39043 -0.771067 0
M  V30 3767 H 369.091 -3.99517 -0.150374 0
M  V30 3768 H 370.531 -4.07061 -1.1865 0
M  V30 3769 C 368.99 -2.77365 -1.91234 0
M  V30 3770 O 369.52 -2.66434 -3.00626 0
M  V30 3771 N 367.726 -2.35219 -1.70646 0
M  V30 3772 H 367.273 -2.4431 -0.81673 0
M  V30 3773 H 367.231 -1.94294 -2.47178 0
M  V30 3774 N 371.003 -0.499398 -1.49478 0
M  V30 3775 C 372.419 -0.155261 -1.58843 0
M  V30 3776 C 372.619 1.34008 -1.50479 0
M  V30 3777 O 371.675 2.11589 -1.37791 0
M  V30 3778 C 372.988 -0.730636 -2.91689 0
M  V30 3779 C 374.536 -0.696599 -3.0515 0
M  V30 3780 C 375.011 -1.25001 -4.40612 0
M  V30 3781 N 376.502 -1.21064 -4.47099 0
M  V30 3782 C 377.237 -1.60905 -5.50361 0
M  V30 3783 N 376.733 -2.08331 -6.60735 0
M  V30 3784 N 378.526 -1.52331 -5.41065 0
M  V30 3785 H 370.677 -1.47162 -1.53158 0
M  V30 3786 H 372.94 -0.610309 -0.725415 0
M  V30 3787 H 372.646 -1.77928 -3.03372 0
M  V30 3788 H 372.52 -0.190161 -3.7672 0
M  V30 3789 H 374.907 0.343204 -2.93097 0
M  V30 3790 H 374.988 -1.2742 -2.21806 0
M  V30 3791 H 374.632 -2.28859 -4.53416 0
M  V30 3792 H 374.562 -0.64836 -5.22593 0
M  V30 3793 H 377.053 -0.863128 -3.67911 0
M  V30 3794 H 377.366 -2.36805 -7.35624 0
M  V30 3795 H 375.711 -2.12304 -6.6178 0
M  V30 3796 H 378.902 -1.151 -4.53729 0
M  V30 3797 H 379.075 -1.83704 -6.21415 0
M  V30 3798 N 372.481 1.55866 -0.233164 0
M  V30 3799 C 373.729 1.9821 0.394593 0
M  V30 3800 C 374.05 1.12234 1.59463 0
M  V30 3801 O 373.32 0.201981 1.94856 0
M  V30 3802 H 371.9 0.732034 0.148778 0
M  V30 3803 H 374.562 1.92107 -0.32876 0
M  V30 3804 H 373.658 3.03845 0.713063 0
M  V30 3805 N 373.959 -0.0401083 1.57549 0
M  V30 3806 C 374.907 -1.06264 2.06908 0
M  V30 3807 C 375.901 -1.38132 0.980608 0
M  V30 3808 O 377.107 -1.37167 1.16556 0
M  V30 3809 H 373.482 -0.360166 0.660139 0
M  V30 3810 H 375.453 -0.620445 2.91878 0
M  V30 3811 C 374.202 -2.35846 2.55483 0
M  V30 3812 H 373.525 -2.12183 3.38849 0
M  V30 3813 H 374.965 -3.05765 2.93741 0
M  V30 3814 C 373.424 -3.0404 1.45126 0
M  V30 3815 O 373.954 -3.93424 0.811216 0
M  V30 3816 N 372.16 -2.65184 1.18852 0
M  V30 3817 H 371.707 -1.92584 1.71083 0
M  V30 3818 H 371.665 -3.1113 0.452244 0
M  V30 3819 N 375.437 -1.54477 -0.31217 0
M  V30 3820 C 376.367 -1.87652 -1.38957 0
M  V30 3821 C 377.348 -0.734358 -1.53431 0
M  V30 3822 O 378.533 -0.98911 -1.67123 0
M  V30 3823 C 375.663 -2.11396 -2.75552 0
M  V30 3824 C 374.617 -3.27243 -2.75855 0
M  V30 3825 C 373.943 -3.36382 -4.15633 0
M  V30 3826 C 375.243 -4.64622 -2.38587 0
M  V30 3827 H 376.937 -2.77887 -1.11442 0
M  V30 3828 H 374.483 -1.33707 -0.534655 0
M  V30 3829 H 376.436 -2.33189 -3.51 0
M  V30 3830 H 375.16 -1.17921 -3.04569 0
M  V30 3831 H 373.819 -3.05356 -2.02863 0
M  V30 3832 H 373.467 -2.40445 -4.41809 0
M  V30 3833 H 373.167 -4.14249 -4.1674 0
M  V30 3834 H 374.691 -3.60422 -4.92877 0
M  V30 3835 H 376.105 -4.86219 -3.03749 0
M  V30 3836 H 374.502 -5.45121 -2.50925 0
M  V30 3837 H 375.572 -4.66097 -1.33723 0
M  V30 3838 N 376.915 0.57481 -1.46744 0
M  V30 3839 C 377.845 1.69337 -1.60771 0
M  V30 3840 C 378.826 1.63825 -0.457736 0
M  V30 3841 O 380.011 1.8172 -0.684947 0
M  V30 3842 C 377.141 3.0798 -1.60517 0
M  V30 3843 C 376.095 3.28327 -2.74564 0
M  V30 3844 C 375.421 4.67578 -2.59373 0
M  V30 3845 C 376.721 3.15398 -4.16319 0
M  V30 3846 H 378.415 1.57853 -2.54407 0
M  V30 3847 H 375.961 0.75799 -1.22436 0
M  V30 3848 H 377.914 3.86061 -1.68923 0
M  V30 3849 H 376.638 3.20381 -0.634305 0
M  V30 3850 H 375.297 2.52649 -2.65639 0
M  V30 3851 H 374.945 4.76755 -1.60353 0
M  V30 3852 H 374.645 4.82144 -3.35873 0
M  V30 3853 H 376.169 5.47817 -2.69682 0
M  V30 3854 H 377.583 3.83315 -4.26313 0
M  V30 3855 H 375.98 3.41482 -4.93468 0
M  V30 3856 H 377.05 2.12372 -4.3592 0
M  V30 3857 N 378.394 1.34581 0.820102 0
M  V30 3858 C 379.326 1.22236 1.93884 0
M  V30 3859 C 380.339 0.148776 1.62119 0
M  V30 3860 O 381.528 0.400877 1.7394 0
M  V30 3861 C 378.628 0.856542 3.27897 0
M  V30 3862 C 377.801 2.02569 3.87666 0
M  V30 3863 C 376.86 1.63782 5.00062 0
M  V30 3864 O 375.886 2.35477 5.18208 0
M  V30 3865 N 377.088 0.553611 5.77854 0
M  V30 3866 H 379.853 2.18615 2.05006 0
M  V30 3867 H 377.414 1.27573 0.99683 0
M  V30 3868 H 379.406 0.578806 4.0054 0
M  V30 3869 H 377.976 -0.0171518 3.12595 0
M  V30 3870 H 377.196 2.468 3.07382 0
M  V30 3871 H 378.484 2.80752 4.24329 0
M  V30 3872 H 377.882 -0.0423528 5.65684 0
M  V30 3873 H 376.439 0.335614 6.50935 0
M  V30 3874 N 379.872 -1.04064 1.18357 0
M  V30 3875 C 381.112 -1.78829 0.989921 0
M  V30 3876 C 381.476 -1.86106 -0.472095 0
M  V30 3877 O 382.677 -2.57076 -0.785187 0
M  V30 3878 C 380.948 -3.1823 1.6268 0
M  V30 3879 S 382.507 -4.09332 1.58091 0
M  V30 3880 H 379.325 -0.615754 0.355482 0
M  V30 3881 H 381.927 -1.24778 1.50501 0
M  V30 3882 H 380.631 -3.10543 2.68311 0
M  V30 3883 H 380.162 -3.77357 1.112 0
M  V30 3884 H 382.177 -4.92598 0.596817 0
M  V30 3885 N 381.35 -0.985608 -1.22978 0
M  V30 3886 C 382.599 -0.652881 -1.90841 0
M  V30 3887 C 382.912 0.817842 -1.77681 0
M  V30 3888 O 384.118 1.26185 -2.40395 0
M  V30 3889 C 382.574 -1.11717 -3.42122 0
M  V30 3890 C 382.182 -2.6126 -3.63933 0
M  V30 3891 C 383.926 -0.85843 -4.1573 0
M  V30 3892 C 381.833 -3.0133 -5.08876 0
M  V30 3893 H 380.763 -0.240491 -0.714619 0
M  V30 3894 H 383.414 -1.1942 -1.39324 0
M  V30 3895 H 381.796 -0.504027 -3.92779 0
M  V30 3896 H 382.97 -3.27858 -3.23799 0
M  V30 3897 H 381.285 -2.84937 -3.03644 0
M  V30 3898 H 383.882 -1.13359 -5.22546 0
M  V30 3899 H 384.225 0.205461 -4.15793 0
M  V30 3900 H 384.758 -1.43341 -3.71077 0
M  V30 3901 H 381.497 -4.06864 -5.13947 0
M  V30 3902 H 381.017 -2.3943 -5.49939 0
M  V30 3903 H 382.696 -2.92224 -5.77247 0
M  V30 3904 N 382.828 1.3818 -0.7579 0
M  V30 3905 C 384.068 2.01864 -0.320968 0
M  V30 3906 C 384.432 1.58863 1.07827 0
M  V30 3907 O 385.633 2.14908 1.61456 0
M  V30 3908 C 383.904 3.54626 -0.44446 0
M  V30 3909 S 385.463 4.38706 -0.0907467 0
M  V30 3910 H 382.281 0.700056 -0.124268 0
M  V30 3911 H 384.883 1.68611 -0.989468 0
M  V30 3912 H 383.587 3.83411 -1.4637 0
M  V30 3913 H 383.118 3.92661 0.241073 0
M  V30 3914 H 385.133 4.83435 1.11826 0
M  V30 3915 N 384.306 0.507319 1.49211 0
M  V30 3916 C 385.534 -0.0315749 2.06876 0
M  V30 3917 C 385.949 -1.30241 1.36685 0
M  V30 3918 O 385.306 -1.76937 0.447152 0
M  V30 3919 C 385.357 -0.282627 3.60393 0
M  V30 3920 O 385.078 0.937835 4.27944 0
M  V30 3921 C 386.579 -0.864453 4.3479 0
M  V30 3922 H 383.799 0.0233048 0.670595 0
M  V30 3923 H 386.343 0.706484 1.91909 0
M  V30 3924 H 384.498 -0.97068 3.75042 0
M  V30 3925 H 384.912 0.704567 5.19746 0
M  V30 3926 H 386.386 -0.989664 5.43056 0
M  V30 3927 H 386.863 -1.86382 3.97692 0
M  V30 3928 H 387.469 -0.213672 4.24763 0
M  V30 3929 N 385.784 -1.5574 0.241426 0
M  V30 3930 C 387.032 -1.98417 -0.384075 0
M  V30 3931 C 387.353 -1.13078 -1.58866 0
M  V30 3932 O 386.623 -0.212312 -1.94746 0
M  V30 3933 H 385.203 -0.732813 -0.144894 0
M  V30 3934 H 387.865 -1.9193 0.338943 0
M  V30 3935 H 386.961 -3.04219 -0.696939 0
M  V30 3936 N 387.262 0.0317525 -1.57568 0
M  V30 3937 C 388.21 1.05165 -2.07468 0
M  V30 3938 C 389.204 1.3761 -0.98792 0
M  V30 3939 O 390.41 1.36546 -1.17282 0
M  V30 3940 H 386.785 0.35666 -0.66204 0
M  V30 3941 H 388.756 0.604958 -2.92203 0
M  V30 3942 C 387.505 2.34488 -2.56731 0
M  V30 3943 H 386.828 2.10383 -3.39969 0
M  V30 3944 H 388.268 3.04203 -2.95358 0
M  V30 3945 C 386.727 3.03266 -1.46736 0
M  V30 3946 O 387.257 3.92988 -0.832069 0
M  V30 3947 N 385.463 2.6455 -1.20256 0
M  V30 3948 H 385.01 1.91674 -1.72102 0
M  V30 3949 H 384.968 3.10886 -0.468737 0
M  V30 3950 N 388.74 1.54641 0.303973 0
M  V30 3951 C 389.988 1.73437 1.0375 0
M  V30 3952 C 390.309 0.521449 1.87899 0
M  V30 3953 O 389.579 -0.46432 1.90318 0
M  V30 3954 H 388.159 0.639518 0.386039 0
M  V30 3955 H 390.821 1.91988 0.335675 0
M  V30 3956 H 389.917 2.62235 1.69231 0
M  V30 3957 N 390.218 -0.567019 1.47046 0
M  V30 3958 C 391.634 -0.891975 1.32348 0
M  V30 3959 C 391.834 -1.99154 0.306616 0
M  V30 3960 O 390.89 -2.50883 -0.28532 0
M  V30 3961 C 392.203 -1.29449 2.7141 0
M  V30 3962 C 393.751 -1.40646 2.79621 0
M  V30 3963 C 394.226 -1.84257 4.19301 0
M  V30 3964 N 395.717 -1.91424 4.21795 0
M  V30 3965 C 396.452 -2.26476 5.26779 0
M  V30 3966 N 395.948 -2.60211 6.42077 0
M  V30 3967 N 397.741 -2.27166 5.14152 0
M  V30 3968 H 389.892 0.159074 2.11803 0
M  V30 3969 H 392.155 0.00849752 0.947962 0
M  V30 3970 H 391.861 -0.560448 3.47206 0
M  V30 3971 H 391.735 -2.25273 3.02542 0
M  V30 3972 H 394.122 -2.13133 2.04104 0
M  V30 3973 H 394.203 -0.430339 2.52154 0
M  V30 3974 H 393.847 -1.12343 4.95319 0
M  V30 3975 H 393.777 -2.82855 4.44185 0
M  V30 3976 H 396.268 -1.6778 3.38612 0
M  V30 3977 H 396.581 -2.85956 7.17948 0
M  V30 3978 H 394.926 -2.57813 6.45413 0
M  V30 3979 H 398.117 -2.00244 4.23107 0
M  V30 3980 H 398.29 -2.54154 5.96079 0
M  V30 3981 N 391.696 -1.35014 -0.812953 0
M  V30 3982 C 392.944 -1.27678 -1.56661 0
M  V30 3983 C 393.265 0.150359 -1.94419 0
M  V30 3984 O 392.535 1.08532 -1.63088 0
M  V30 3985 H 391.115 -0.469602 -0.580933 0
M  V30 3986 H 393.777 -1.69043 -0.970076 0
M  V30 3987 H 392.873 -1.88833 -2.48492 0
M  V30 3988 N 393.175 1.03435 -1.18907 0
M  V30 3989 C 394.085 2.15075 -0.937015 0
M  V30 3990 C 395.101 1.73706 0.101085 0
M  V30 3991 O 396.277 2.01232 -0.0822948 0
M  V30 3992 C 393.342 3.43458 -0.473057 0
M  V30 3993 C 392.403 3.99172 -1.57989 0
M  V30 3994 C 391.636 5.21427 -1.13797 0
M  V30 3995 O 391.859 5.704 0.000725941 0
M  V30 3996 O 390.793 5.69837 -1.9383 0
M  V30 3997 H 394.619 2.39198 -1.87131 0
M  V30 3998 H 392.204 1.13506 -0.971427 0
M  V30 3999 H 394.086 4.20811 -0.222702 0
M  V30 4000 H 392.761 3.20793 0.432869 0
M  V30 4001 H 391.668 3.23178 -1.88433 0
M  V30 4002 H 393.001 4.2619 -2.46217 0
M  V30 4003 N 394.653 0.992116 1.22453 0
M  V30 4004 C 395.899 0.678177 1.91761 0
M  V30 4005 C 396.254 -0.781141 1.75829 0
M  V30 4006 O 395.547 -1.55747 1.11595 0
M  V30 4007 C 395.741 1.01832 3.42586 0
M  V30 4008 C 395.57 2.50916 3.73191 0
M  V30 4009 C 394.34 3.17308 3.93248 0
M  V30 4010 C 396.538 3.49032 3.77732 0
M  V30 4011 N 394.52 4.55876 4.11157 0
M  V30 4012 C 395.891 4.73055 4.00773 0
M  V30 4013 C 397.946 3.43349 3.60577 0
M  V30 4014 C 396.649 5.92089 4.0844 0
M  V30 4015 C 398.675 4.61759 3.69503 0
M  V30 4016 C 398.037 5.84582 3.92993 0
M  V30 4017 H 394.136 0.299425 0.722405 0
M  V30 4018 H 396.72 1.27197 1.47408 0
M  V30 4019 H 394.891 0.453118 3.85748 0
M  V30 4020 H 396.623 0.660454 3.99274 0
M  V30 4021 H 393.378 2.67778 3.9063 0
M  V30 4022 H 393.802 5.27748 4.24042 0
M  V30 4023 H 398.444 2.49408 3.41402 0
M  V30 4024 H 396.162 6.86435 4.26418 0
M  V30 4025 H 399.748 4.58951 3.57569 0
M  V30 4026 H 398.628 6.74676 3.99728 0
M  V30 4027 N 396.131 -1.37776 0.765217 0
M  V30 4028 C 397.078 -2.30342 0.145274 0
M  V30 4029 C 398.048 -1.5077 -0.696971 0
M  V30 4030 O 399.233 -1.79362 -0.650689 0
M  V30 4031 C 396.373 -3.37227 -0.732939 0
M  V30 4032 C 395.486 -4.31819 0.125199 0
M  V30 4033 C 394.621 -5.25777 -0.757107 0
M  V30 4034 C 393.66 -6.12012 0.103963 0
M  V30 4035 N 392.797 -6.98232 -0.735953 0
M  V30 4036 H 397.637 -2.8278 0.940195 0
M  V30 4037 H 395.174 -1.39211 0.475255 0
M  V30 4038 H 397.132 -3.97818 -1.25686 0
M  V30 4039 H 395.762 -2.86171 -1.49353 0
M  V30 4040 H 394.814 -3.7259 0.766865 0
M  V30 4041 H 396.126 -4.92509 0.789683 0
M  V30 4042 H 395.28 -5.91541 -1.34776 0
M  V30 4043 H 394.019 -4.65481 -1.45529 0
M  V30 4044 H 393.024 -5.45233 0.707197 0
M  V30 4045 H 394.249 -6.74379 0.799381 0
M  V30 4046 H 392.195 -6.40472 -1.41887 0
M  V30 4047 H 392.112 -7.55891 -0.128624 0
M  V30 4048 H 393.38 -7.68393 -1.31121 0
M  V30 4049 N 397.609 -0.515225 -1.4894 0
M  V30 4050 C 398.849 0.0223983 -2.04388 0
M  V30 4051 C 399.213 1.32961 -1.38511 0
M  V30 4052 O 400.414 1.95236 -1.8476 0
M  V30 4053 C 398.685 0.157056 -3.57055 0
M  V30 4054 S 400.244 0.646875 -4.34006 0
M  V30 4055 H 397.062 -0.00500662 -0.710982 0
M  V30 4056 H 399.664 -0.69243 -1.82827 0
M  V30 4057 H 398.368 -0.799412 -4.02539 0
M  V30 4058 H 397.899 0.896704 -3.83044 0
M  V30 4059 H 399.914 1.91381 -4.57808 0
M  V30 4060 N 399.087 1.5561 -0.249682 0
M  V30 4061 C 399.997 2.25143 0.659375 0
M  V30 4062 C 401.013 1.2685 1.19101 0
M  V30 4063 O 402.189 1.59732 1.22669 0
M  V30 4064 C 399.254 2.93945 1.8384 0
M  V30 4065 C 398.315 4.07655 1.34596 0
M  V30 4066 C 397.548 4.73167 2.46878 0
M  V30 4067 O 397.771 4.37768 3.65671 0
M  V30 4068 O 396.705 5.61623 2.16478 0
M  V30 4069 H 400.531 3.03545 0.0968698 0
M  V30 4070 H 398.116 1.49389 -0.018074 0
M  V30 4071 H 399.998 3.37271 2.52638 0
M  V30 4072 H 398.673 2.18481 2.38847 0
M  V30 4073 H 397.58 3.68839 0.625174 0
M  V30 4074 H 398.913 4.84946 0.841941 0
M  V30 4075 N 400.565 -0.0233959 1.57583 0
M  V30 4076 C 401.981 -0.379134 1.55031 0
M  V30 4077 C 402.181 -1.76255 0.976548 0
M  V30 4078 O 401.237 -2.45266 0.600078 0
M  V30 4079 C 402.55 -0.275792 2.99433 0
M  V30 4080 C 404.098 -0.352458 3.11009 0
M  V30 4081 C 404.573 -0.278501 4.57152 0
M  V30 4082 N 406.064 -0.337123 4.61972 0
M  V30 4083 C 406.799 -0.302876 5.726 0
M  V30 4084 N 406.295 -0.220589 6.92449 0
M  V30 4085 N 408.088 -0.353023 5.6099 0
M  V30 4086 H 400.239 0.881869 1.93227 0
M  V30 4087 H 402.502 0.335867 0.886509 0
M  V30 4088 H 402.208 0.675108 3.4516 0
M  V30 4089 H 402.082 -1.06721 3.61788 0
M  V30 4090 H 404.469 -1.29379 2.65226 0
M  V30 4091 H 404.55 0.468409 2.51475 0
M  V30 4092 H 404.194 0.659189 5.03604 0
M  V30 4093 H 404.124 -1.11755 5.14605 0
M  V30 4094 H 406.615 -0.403002 3.75745 0
M  V30 4095 H 406.928 -0.199713 7.72542 0
M  V30 4096 H 405.273 -0.186555 6.9475 0
M  V30 4097 H 408.464 -0.415339 4.66254 0
M  V30 4098 H 408.637 -0.322866 6.47195 0
M  V30 4099 N 402.043 -1.548 -0.295768 0
M  V30 4100 C 402.993 -1.82497 -1.3667 0
M  V30 4101 C 403.977 -0.682434 -1.45711 0
M  V30 4102 O 405.169 -0.943207 -1.49775 0
M  V30 4103 C 402.298 -2.08036 -2.73086 0
M  V30 4104 C 401.384 -3.28488 -2.68247 0
M  V30 4105 N 401.775 -4.48924 -2.33025 0
M  V30 4106 C 400.073 -3.3062 -2.99343 0
M  V30 4107 C 400.774 -5.30956 -2.37613 0
M  V30 4108 N 399.75 -4.68805 -2.75178 0
M  V30 4109 H 403.552 -2.73175 -1.0841 0
M  V30 4110 H 401.066 -1.5437 -0.504361 0
M  V30 4111 H 403.063 -2.26027 -3.5031 0
M  V30 4112 H 401.723 -1.18629 -3.02254 0
M  V30 4113 H 402.734 -4.75432 -2.05389 0
M  V30 4114 H 399.411 -2.51336 -3.33371 0
M  V30 4115 H 400.801 -6.37199 -2.13135 0
M  V30 4116 N 403.521 0.559213 -1.47345 0
M  V30 4117 C 404.749 1.34194 -1.57479 0
M  V30 4118 C 405.164 1.87463 -0.224261 0
M  V30 4119 O 404.521 1.64888 0.782185 0
M  V30 4120 C 404.572 2.51324 -2.59843 0
M  V30 4121 O 404.293 2.00256 -3.89653 0
M  V30 4122 C 405.794 3.43563 -2.80142 0
M  V30 4123 H 403.014 0.409136 -0.531835 0
M  V30 4124 H 405.558 0.677609 -1.92947 0
M  V30 4125 H 403.713 3.13699 -2.27314 0
M  V30 4126 H 404.127 2.76708 -4.4557 0
M  V30 4127 H 405.601 4.2217 -3.55635 0
M  V30 4128 H 406.078 3.9698 -1.87892 0
M  V30 4129 H 406.684 2.87005 -3.1386 0
M  V30 4130 N 404.999 1.35443 0.805782 0
M  V30 4131 C 406.224 1.32037 1.59941 0
M  V30 4132 C 406.649 -0.0994215 1.87837 0
M  V30 4133 O 406.007 -1.06648 1.46615 0
M  V30 4134 C 406.055 2.13354 2.90711 0
M  V30 4135 O 405.159 1.5148 3.83572 0
M  V30 4136 H 404.5 0.452666 0.485787 0
M  V30 4137 H 407.03 1.78496 1.00002 0
M  V30 4138 H 407.04 2.25338 3.40128 0
M  V30 4139 H 405.715 3.16572 2.69732 0
M  V30 4140 H 404.292 1.4834 3.42125 0
M  V30 4141 N 406.477 -1.02803 1.19454 0
M  V30 4142 C 407.723 -1.76478 0.999171 0
M  V30 4143 C 408.056 -1.88456 -0.468828 0
M  V30 4144 O 407.331 -1.40198 -1.34814 0
M  V30 4145 C 407.614 -3.19044 1.66981 0
M  V30 4146 C 407.467 -3.14932 3.21151 0
M  V30 4147 C 408.786 -4.17456 1.39349 0
M  V30 4148 H 405.905 -0.640614 0.364393 0
M  V30 4149 H 408.547 -1.20005 1.47305 0
M  V30 4150 H 406.697 -3.67263 1.2669 0
M  V30 4151 H 408.369 -2.74605 3.70661 0
M  V30 4152 H 406.612 -2.52625 3.52652 0
M  V30 4153 H 407.283 -4.1566 3.63223 0
M  V30 4154 H 409.759 -3.77842 1.74283 0
M  V30 4155 H 408.635 -5.154 1.88823 0
M  V30 4156 H 408.896 -4.40949 0.318813 0
M  V30 4157 N 407.956 -0.998596 -1.21925 0
M  V30 4158 C 408.888 -0.511879 -2.23411 0
M  V30 4159 C 409.901 0.396094 -1.57908 0
M  V30 4160 O 411.09 0.197316 -1.77406 0
M  V30 4161 C 408.19 0.276802 -3.37768 0
M  V30 4162 C 407.363 -0.628687 -4.32858 0
M  V30 4163 C 406.422 0.109272 -5.26087 0
M  V30 4164 O 405.448 -0.507237 -5.66935 0
M  V30 4165 N 406.65 1.38983 -5.63617 0
M  V30 4166 H 409.415 -1.38457 -2.658 0
M  V30 4167 H 406.976 -0.873981 -1.36283 0
M  V30 4168 H 408.968 0.77928 -3.97126 0
M  V30 4169 H 407.538 1.05063 -2.94415 0
M  V30 4170 H 406.758 -1.31175 -3.71735 0
M  V30 4171 H 408.046 -1.24514 -4.93329 0
M  V30 4172 H 407.444 1.91194 -5.32411 0
M  V30 4173 H 406.001 1.83739 -6.25367 0
M  V30 4174 N 409.434 1.37368 -0.772513 0
M  V30 4175 C 410.662 2.03942 -0.348588 0
M  V30 4176 C 411.077 1.58264 1.02947 0
M  V30 4177 O 410.434 0.764246 1.65727 0
M  V30 4178 C 410.485 3.5946 -0.38351 0
M  V30 4179 O 410.206 4.03468 -1.70721 0
M  V30 4180 C 411.707 4.4327 0.0519152 0
M  V30 4181 H 408.927 0.654931 -0.145966 0
M  V30 4182 H 411.471 1.75686 -1.04665 0
M  V30 4183 H 409.626 3.86486 0.265978 0
M  V30 4184 H 410.04 4.97991 -1.64636 0
M  V30 4185 H 411.514 5.51995 -0.0236733 0
M  V30 4186 H 411.991 4.2514 1.10238 0
M  V30 4187 H 412.597 4.21471 -0.569415 0
M  V30 4188 N 410.912 0.523116 1.48665 0
M  V30 4189 C 412.14 -0.0096312 2.06898 0
M  V30 4190 C 412.555 -1.28784 1.38059 0
M  V30 4191 O 411.912 -1.76453 0.465893 0
M  V30 4192 C 411.963 -0.244386 3.60673 0
M  V30 4193 O 411.684 0.983172 4.26925 0
M  V30 4194 C 413.185 -0.818289 4.35682 0
M  V30 4195 H 410.405 0.0304161 0.67031 0
M  V30 4196 H 412.949 0.726799 1.91149 0
M  V30 4197 H 411.104 -0.930847 3.76051 0
M  V30 4198 H 411.518 0.759653 5.1897 0
M  V30 4199 H 412.992 -0.93201 5.44075 0
M  V30 4200 H 413.469 -1.82153 3.99646 0
M  V30 4201 H 414.075 -0.168609 4.24966 0
M  V30 4202 N 412.39 -1.55475 0.257931 0
M  V30 4203 C 413.615 -2.04064 -0.370488 0
M  V30 4204 C 414.04 -1.13565 -1.49948 0
M  V30 4205 O 413.398 -0.130781 -1.80828 0
M  V30 4206 C 413.446 -3.50554 -0.845237 0
M  V30 4207 O 412.55 -3.63173 -1.95394 0
M  V30 4208 H 411.891 -0.659257 -0.0792243 0
M  V30 4209 H 414.421 -2.00903 0.387212 0
M  V30 4210 H 414.431 -3.91588 -1.14555 0
M  V30 4211 H 413.106 -4.15896 -0.0191259 0
M  V30 4212 H 411.683 -3.34039 -1.65748 0
M  V30 4213 N 413.868 0.0150385 -1.57593 0
M  V30 4214 C 415.093 0.718067 -1.94573 0
M  V30 4215 C 415.518 1.6734 -0.859005 0
M  V30 4216 O 414.876 1.80362 0.184147 0
M  V30 4217 C 414.924 1.43918 -3.30636 0
M  V30 4218 O 414.028 2.55299 -3.23876 0
M  V30 4219 H 413.369 0.192125 -0.635597 0
M  V30 4220 H 415.899 -0.0336708 -2.04572 0
M  V30 4221 H 415.909 1.80598 -3.65853 0
M  V30 4222 H 414.584 0.738619 -4.09289 0
M  V30 4223 H 413.161 2.21058 -3.00312 0
M  V30 4224 N 415.346 1.54954 0.287554 0
M  V30 4225 C 416.594 1.74528 1.01904 0
M  V30 4226 C 416.915 0.541349 1.87335 0
M  V30 4227 O 416.185 -0.444108 1.908 0
M  V30 4228 H 414.765 0.643576 0.379235 0
M  V30 4229 H 417.427 1.92333 0.315294 0
M  V30 4230 H 416.523 2.64015 1.6644 0
M  V30 4231 N 416.824 -0.551391 1.4764 0
M  V30 4232 C 418.049 -1.33837 1.58437 0
M  V30 4233 C 418.474 -1.866 0.237063 0
M  V30 4234 O 417.832 -1.6328 -0.787994 0
M  V30 4235 C 417.88 -2.48014 2.61766 0
M  V30 4236 O 416.984 -3.50419 2.1744 0
M  V30 4237 H 416.325 -0.397299 0.532024 0
M  V30 4238 H 418.855 -0.665759 1.93465 0
M  V30 4239 H 418.865 -2.94503 2.82369 0
M  V30 4240 H 417.54 -2.08969 3.5959 0
M  V30 4241 H 416.117 -3.10196 2.06961 0
M  V30 4242 N 418.302 -1.35869 -0.798587 0
M  V30 4243 C 419.55 -1.29332 -1.55298 0
M  V30 4244 C 419.871 0.129729 -1.94568 0
M  V30 4245 O 419.141 1.06796 -1.6423 0
M  V30 4246 H 417.721 -0.475737 -0.57592 0
M  V30 4247 H 420.383 -1.70062 -0.952093 0
M  V30 4248 H 419.479 -1.91458 -2.46476 0
M  V30 4249 N 419.78 1.02168 -1.19998 0
M  V30 4250 C 421.191 1.57135 -1.00825 0
M  V30 4251 C 421.542 1.91276 0.436818 0
M  V30 4252 O 420.667 1.71679 1.3174 0
M  V30 4253 C 421.262 2.85514 -1.82393 0
M  V30 4254 C 419.821 3.37027 -1.67601 0
M  V30 4255 C 418.968 2.10388 -1.80644 0
M  V30 4256 H 421.919 0.846106 -1.34264 0
M  V30 4257 H 421.94 3.56711 -1.32429 0
M  V30 4258 H 421.452 2.60634 -2.87561 0
M  V30 4259 H 419.553 3.66878 -0.650485 0
M  V30 4260 H 419.666 4.09572 -2.4857 0
M  V30 4261 H 418.03 2.22601 -1.23778 0
M  V30 4262 H 418.813 1.8794 -2.87286 0
M  V30 4263 N 421.258 1.00505 1.21394 0
M  V30 4264 C 422.505 0.687774 1.90462 0
M  V30 4265 C 422.833 -0.78147 1.7811 0
M  V30 4266 O 422.088 -1.58208 1.1519 0
M  V30 4267 C 422.387 1.0546 3.41486 0
M  V30 4268 C 422.053 2.51812 3.74034 0
M  V30 4269 C 420.715 2.91804 3.82628 0
M  V30 4270 C 423.067 3.46614 3.8924 0
M  V30 4271 C 420.395 4.2556 4.03876 0
M  V30 4272 C 422.747 4.80044 4.11995 0
M  V30 4273 C 421.411 5.19759 4.18816 0
M  V30 4274 H 420.681 0.251674 0.696951 0
M  V30 4275 H 423.328 1.26349 1.43903 0
M  V30 4276 H 421.633 0.397133 3.89782 0
M  V30 4277 H 423.33 0.786976 3.93202 0
M  V30 4278 H 419.92 2.1982 3.67936 0
M  V30 4279 H 424.104 3.16883 3.81967 0
M  V30 4280 H 419.36 4.55901 4.07387 0
M  V30 4281 H 423.534 5.53439 4.22704 0
M  V30 4282 H 421.161 6.23418 4.35033 0
M  V30 4283 N 422.737 -1.36956 0.779787 0
M  V30 4284 C 423.965 -2.03755 0.359398 0
M  V30 4285 C 424.38 -1.58807 -1.02106 0
M  V30 4286 O 423.737 -0.773024 -1.6532 0
M  V30 4287 C 423.788 -3.59251 0.402568 0
M  V30 4288 O 423.509 -4.02557 1.72858 0
M  V30 4289 C 425.01 -4.43291 -0.0284068 0
M  V30 4290 H 422.23 -0.654148 0.149437 0
M  V30 4291 H 424.774 -1.75128 1.05595 0
M  V30 4292 H 422.929 -3.86621 -0.245478 0
M  V30 4293 H 423.343 -4.97111 1.67275 0
M  V30 4294 H 424.817 -5.51975 0.0529466 0
M  V30 4295 H 425.294 -4.25719 -1.07982 0
M  V30 4296 H 425.9 -4.21163 0.591758 0
M  V30 4297 N 424.215 -0.530993 -1.48385 0
M  V30 4298 C 425.492 0.0671788 -1.95485 0
M  V30 4299 C 425.872 1.51191 -1.47324 0
M  V30 4300 O 425.22 2.17507 -0.700202 0
M  V30 4301 C 425.43 -0.0511206 -3.48963 0
M  V30 4302 C 426.778 0.107632 -4.24464 0
M  V30 4303 O 427.802 0.0226248 -3.56193 0
M  V30 4304 O 426.661 0.285972 -5.45751 0
M  V30 4305 H 423.755 0.0787365 -0.823243 0
M  V30 4306 H 426.301 -0.595662 -1.58902 0
M  V30 4307 H 425.073 -1.05747 -3.7674 0
M  V30 4308 H 424.696 0.650525 -3.92242 0
M  V30 4309 N 425.693 1.55336 -0.266172 0
M  V30 4310 C 426.939 1.99692 0.353681 0
M  V30 4311 C 427.272 1.1543 1.56172 0
M  V30 4312 O 426.547 0.222218 1.93226 0
M  V30 4313 C 426.83 3.52316 0.74466 0
M  V30 4314 C 426.683 4.47337 -0.470101 0
M  V30 4315 C 428.002 4.10588 1.58447 0
M  V30 4316 H 425.121 0.725961 0.12708 0
M  V30 4317 H 427.763 1.86336 -0.371333 0
M  V30 4318 H 425.913 3.63829 1.36239 0
M  V30 4319 H 427.585 4.4778 -1.10864 0
M  V30 4320 H 425.828 4.19364 -1.10978 0
M  V30 4321 H 426.499 5.51788 -0.15291 0
M  V30 4322 H 428.975 4.02297 1.06286 0
M  V30 4323 H 427.851 5.17607 1.82686 0
M  V30 4324 H 428.112 3.60253 2.56262 0
M  V30 4325 N 427.171 -0.0066808 1.57599 0
M  V30 4326 C 428.587 -0.36267 1.55425 0
M  V30 4327 C 428.787 -1.75209 0.995187 0
M  V30 4328 O 427.843 -2.44616 0.626058 0
M  V30 4329 C 429.156 -0.244017 2.99708 0
M  V30 4330 C 430.704 -0.319451 3.11366 0
M  V30 4331 C 431.179 -0.229998 4.57422 0
M  V30 4332 N 432.67 -0.288105 4.62303 0
M  V30 4333 C 433.405 -0.242127 5.72889 0
M  V30 4334 N 432.901 -0.147133 6.92644 0
M  V30 4335 N 434.694 -0.293502 5.61333 0
M  V30 4336 H 426.845 0.902314 1.92281 0
M  V30 4337 H 429.108 0.34525 0.882896 0
M  V30 4338 H 428.814 0.711678 3.44424 0
M  V30 4339 H 428.688 -1.02877 3.629 0
M  V30 4340 H 431.075 -1.26559 2.66584 0
M  V30 4341 H 431.156 0.495055 2.50964 0
M  V30 4342 H 430.8 0.712566 5.02877 0
M  V30 4343 H 430.73 -1.0629 5.15761 0
M  V30 4344 H 433.221 -0.363126 3.76151 0
M  V30 4345 H 433.534 -0.117763 7.7271 0
M  V30 4346 H 431.879 -0.112857 6.94908 0
M  V30 4347 H 435.07 -0.365864 4.66668 0
M  V30 4348 H 435.243 -0.254204 6.47501 0
M  V30 4349 N 428.649 -1.55105 -0.279332 0
M  V30 4350 C 429.612 -1.86783 -1.32834 0
M  V30 4351 C 430.612 -0.74199 -1.42657 0
M  V30 4352 O 431.802 -1.0102 -1.41918 0
M  V30 4353 C 428.934 -2.06746 -2.71052 0
M  V30 4354 H 430.127 -2.8055 -1.05979 0
M  V30 4355 H 427.68 -1.47499 -0.517087 0
M  V30 4356 H 428.415 -1.15339 -3.03097 0
M  V30 4357 H 428.2 -2.88711 -2.65309 0
M  V30 4358 H 429.69 -2.32549 -3.46858 0
M  V30 4359 N 430.127 0.543554 -1.4793 0
M  V30 4360 C 431.09 1.63156 -1.60975 0
M  V30 4361 C 432.09 1.53346 -0.483899 0
M  V30 4362 O 433.28 1.5726 -0.749339 0
M  V30 4363 C 430.412 3.02743 -1.56716 0
M  V30 4364 H 431.605 1.52934 -2.57975 0
M  V30 4365 H 429.158 0.764557 -1.36324 0
M  V30 4366 H 429.893 3.18484 -0.611418 0
M  V30 4367 H 429.678 3.11272 -2.38438 0
M  V30 4368 H 431.168 3.81871 -1.6901 0
M  V30 4369 N 431.605 1.3629 0.791371 0
M  V30 4370 C 432.851 1.30605 1.55146 0
M  V30 4371 C 433.184 -0.115042 1.93859 0
M  V30 4372 O 432.459 -1.06798 1.62556 0
M  V30 4373 C 432.742 2.22692 2.82985 0
M  V30 4374 C 432.595 3.73489 2.50651 0
M  V30 4375 C 433.914 2.13588 3.84796 0
M  V30 4376 H 431.033 0.475761 0.562868 0
M  V30 4377 H 433.675 1.66825 0.909358 0
M  V30 4378 H 431.825 1.91933 3.37778 0
M  V30 4379 H 433.497 4.14758 2.01924 0
M  V30 4380 H 431.74 3.93021 1.83622 0
M  V30 4381 H 432.411 4.3333 3.41949 0
M  V30 4382 H 434.887 2.40659 3.39445 0
M  V30 4383 H 433.763 2.80195 4.71998 0
M  V30 4384 H 434.024 1.12256 4.27611 0
M  V30 4385 N 433.083 -1.0153 1.20538 0
M  V30 4386 C 434.313 -1.78487 1.04048 0
M  V30 4387 C 434.721 -1.84631 -0.413292 0
M  V30 4388 O 434.064 -1.29919 -1.29872 0
M  V30 4389 C 434.126 -3.24367 1.55003 0
M  V30 4390 C 433.79 -3.41827 3.0332 0
M  V30 4391 C 434.787 -3.30941 4.00966 0
M  V30 4392 C 432.472 -3.67602 3.42307 0
M  V30 4393 C 434.466 -3.45577 5.35589 0
M  V30 4394 C 432.153 -3.81881 4.77085 0
M  V30 4395 C 433.151 -3.70874 5.73534 0
M  V30 4396 O 432.839 -3.84714 7.05868 0
M  V30 4397 H 432.571 -0.568108 0.366373 0
M  V30 4398 H 435.125 -1.28677 1.60098 0
M  V30 4399 H 433.355 -3.75266 0.933397 0
M  V30 4400 H 435.044 -3.82963 1.34514 0
M  V30 4401 H 435.81 -3.10964 3.72191 0
M  V30 4402 H 431.689 -3.75256 2.67776 0
M  V30 4403 H 435.233 -3.36902 6.10854 0
M  V30 4404 H 431.13 -4.01359 5.0555 0
M  V30 4405 H 431.898 -4.01724 7.13134 0
M  V30 4406 N 434.561 -1.01147 -1.20859 0
M  V30 4407 C 435.493 -0.535546 -2.22855 0
M  V30 4408 C 436.506 0.379323 -1.58319 0
M  V30 4409 O 437.695 0.178489 -1.77605 0
M  V30 4410 C 434.795 0.240962 -3.38042 0
M  V30 4411 C 433.968 -0.674562 -4.32167 0
M  V30 4412 C 433.027 0.053467 -5.26173 0
M  V30 4413 O 432.053 -0.567339 -5.66366 0
M  V30 4414 N 433.255 1.32997 -5.65059 0
M  V30 4415 H 436.02 -1.41268 -2.64317 0
M  V30 4416 H 433.581 -0.888386 -1.35349 0
M  V30 4417 H 435.573 0.737115 -3.97931 0
M  V30 4418 H 434.143 1.01935 -2.95513 0
M  V30 4419 H 433.363 -1.35111 -3.70322 0
M  V30 4420 H 434.651 -1.2974 -4.91981 0
M  V30 4421 H 434.049 1.85536 -5.34409 0
M  V30 4422 H 432.606 1.77095 -6.2728 0
M  V30 4423 N 436.039 1.36541 -0.78704 0
M  V30 4424 C 437.45 1.81873 -0.421807 0
M  V30 4425 C 437.801 1.65487 1.05397 0
M  V30 4426 O 436.926 1.17448 1.81755 0
M  V30 4427 C 437.521 3.30192 -0.758841 0
M  V30 4428 C 436.08 3.73743 -0.446468 0
M  V30 4429 C 435.227 2.58844 -0.994728 0
M  V30 4430 H 438.178 1.24796 -0.98039 0
M  V30 4431 H 438.199 3.80468 -0.0490648 0
M  V30 4432 H 437.711 3.42087 -1.83299 0
M  V30 4433 H 435.812 3.6741 0.619739 0
M  V30 4434 H 435.925 4.69272 -0.965415 0
M  V30 4435 H 434.289 2.51245 -0.418087 0
M  V30 4436 H 435.072 2.73525 -2.07458 0
M  V30 4437 N 437.518 0.538854 1.48102 0
M  V30 4438 C 438.45 -0.256278 2.27763 0
M  V30 4439 C 439.463 -0.89633 1.35904 0
M  V30 4440 O 440.652 -0.773275 1.60881 0
M  V30 4441 C 437.752 -1.37896 3.09577 0
M  V30 4442 C 436.925 -0.839159 4.29275 0
M  V30 4443 C 435.984 -1.84405 4.9283 0
M  V30 4444 O 435.01 -1.39746 5.51779 0
M  V30 4445 N 436.212 -3.17666 4.85869 0
M  V30 4446 H 438.977 0.426968 2.96643 0
M  V30 4447 H 436.538 0.373747 1.57527 0
M  V30 4448 H 438.53 -2.04955 3.48963 0
M  V30 4449 H 437.1 -1.96572 2.4306 0
M  V30 4450 H 436.32 0.00769287 3.94199 0
M  V30 4451 H 437.608 -0.457548 5.06739 0
M  V30 4452 H 437.006 -3.56609 4.39143 0
M  V30 4453 H 435.563 -3.80334 5.29329 0
M  V30 4454 N 438.996 -1.55193 0.274407 0
M  V30 4455 C 440.407 -1.85358 -0.223488 0
M  V30 4456 C 440.758 -1.19642 -1.555 0
M  V30 4457 O 439.883 -0.484498 -2.10907 0
M  V30 4458 C 440.478 -3.36282 -0.412285 0
M  V30 4459 C 439.037 -3.66574 -0.854413 0
M  V30 4460 C 438.184 -2.7725 0.0527056 0
M  V30 4461 H 441.135 -1.50743 0.496215 0
M  V30 4462 H 441.156 -3.59349 -1.25094 0
M  V30 4463 H 440.668 -3.84083 0.556965 0
M  V30 4464 H 438.769 -3.24273 -1.83516 0
M  V30 4465 H 438.882 -4.74073 -0.692226 0
M  V30 4466 H 437.246 -2.50447 -0.463484 0
M  V30 4467 H 438.029 -3.27865 1.01783 0
M  V30 4468 N 440.474 -0.00167713 -1.576 0
M  V30 4469 C 441.424 0.997744 -2.0501 0
M  V30 4470 C 442.408 1.30214 -0.94515 0
M  V30 4471 O 443.6 1.29284 -1.20891 0
M  V30 4472 C 440.729 2.2892 -2.55833 0
M  V30 4473 C 439.815 2.01437 -3.73208 0
M  V30 4474 N 440.206 1.44119 -4.84833 0
M  V30 4475 C 438.504 2.31571 -3.8117 0
M  V30 4476 C 439.205 1.33145 -5.66257 0
M  V30 4477 N 438.181 1.81763 -5.12312 0
M  V30 4478 H 441.983 0.549098 -2.88725 0
M  V30 4479 H 439.497 0.20398 -1.61114 0
M  V30 4480 H 441.494 3.01361 -2.88075 0
M  V30 4481 H 440.154 2.74436 -1.73537 0
M  V30 4482 H 441.165 1.11978 -5.0565 0
M  V30 4483 H 437.842 2.7995 -3.09732 0
M  V30 4484 H 439.232 0.890567 -6.65972 0
M  V30 4485 N 441.952 1.55251 0.271103 0
M  V30 4486 C 443.363 1.66635 0.842007 0
M  V30 4487 C 443.714 0.594631 1.86972 0
M  V30 4488 O 442.839 -0.263532 2.14789 0
M  V30 4489 C 443.434 3.02082 1.53401 0
M  V30 4490 C 441.993 3.15487 2.05293 0
M  V30 4491 C 441.14 2.62438 0.895631 0
M  V30 4492 H 444.091 1.58629 0.0474117 0
M  V30 4493 H 444.112 2.95176 2.40107 0
M  V30 4494 H 443.624 3.80062 0.785786 0
M  V30 4495 H 441.725 2.42284 2.83071 0
M  V30 4496 H 441.838 4.22075 2.26693 0
M  V30 4497 H 440.202 2.19644 1.28953 0
M  V30 4498 H 440.985 3.42923 0.160878 0
M  V30 4499 N 443.43 -0.535701 1.48216 0
M  V30 4500 C 444.362 -1.65662 1.58394 0
M  V30 4501 C 445.375 -1.5591 0.468607 0
M  V30 4502 O 446.564 -1.62475 0.7392 0
M  V30 4503 C 443.664 -3.04276 1.4923 0
M  V30 4504 C 442.837 -3.39567 2.75705 0
M  V30 4505 C 441.896 -4.57436 2.60075 0
M  V30 4506 O 440.922 -4.60942 3.33948 0
M  V30 4507 N 442.124 -5.55259 1.69315 0
M  V30 4508 H 444.889 -1.5737 2.55058 0
M  V30 4509 H 442.45 -0.722845 1.44867 0
M  V30 4510 H 444.442 -3.80994 1.36477 0
M  V30 4511 H 443.012 -3.06677 0.605632 0
M  V30 4512 H 442.232 -2.52083 3.03064 0
M  V30 4513 H 443.52 -3.59929 3.59623 0
M  V30 4514 H 442.918 -5.552 1.08489 0
M  V30 4515 H 441.475 -6.31218 1.62504 0
M  V30 4516 N 444.908 -1.36708 -0.784132 0
M  V30 4517 C 446.319 -1.27947 -1.35965 0
M  V30 4518 C 446.67 0.0784013 -1.96043 0
M  V30 4519 O 445.795 0.979989 -1.92938 0
M  V30 4520 C 446.39 -2.31689 -2.47195 0
M  V30 4521 C 444.949 -2.26601 -3.00548 0
M  V30 4522 C 444.096 -2.16184 -1.73666 0
M  V30 4523 H 447.047 -1.4751 -0.585358 0
M  V30 4524 H 447.068 -1.95638 -3.26352 0
M  V30 4525 H 446.58 -3.30506 -2.03439 0
M  V30 4526 H 444.681 -1.31268 -3.48711 0
M  V30 4527 H 444.794 -3.19508 -3.57004 0
M  V30 4528 H 443.158 -1.62524 -1.96107 0
M  V30 4529 H 443.941 -3.16896 -1.32031 0
M  V30 4530 N 446.386 1.0089 -1.21074 0
M  V30 4531 C 447.797 1.56056 -1.02486 0
M  V30 4532 C 448.148 1.91728 0.416506 0
M  V30 4533 O 447.273 1.73066 1.29912 0
M  V30 4534 C 447.868 2.83563 -1.85411 0
M  V30 4535 C 446.427 3.3523 -1.71166 0
M  V30 4536 C 445.574 2.0846 -1.82865 0
M  V30 4537 H 448.525 0.831818 -1.35154 0
M  V30 4538 H 448.546 3.55286 -1.36205 0
M  V30 4539 H 448.058 2.57569 -2.9031 0
M  V30 4540 H 446.159 3.66167 -0.689361 0
M  V30 4541 H 446.272 4.06913 -2.52901 0
M  V30 4542 H 444.636 2.21275 -1.26132 0
M  V30 4543 H 445.419 1.84883 -2.89263 0
M  V30 4544 N 447.864 1.01787 1.20321 0
M  V30 4545 C 449.275 0.739307 1.71438 0
M  V30 4546 C 449.626 -0.742041 1.81627 0
M  V30 4547 O 448.751 -1.57903 1.47971 0
M  V30 4548 C 449.346 1.33538 3.11373 0
M  V30 4549 C 447.905 1.10566 3.59795 0
M  V30 4550 C 447.052 1.44028 2.36962 0
M  V30 4551 H 450.003 1.18718 1.05317 0
M  V30 4552 H 450.024 0.726611 3.73498 0
M  V30 4553 H 449.536 2.41352 3.03926 0
M  V30 4554 H 447.637 0.0452405 3.72573 0
M  V30 4555 H 447.75 1.78661 4.44542 0
M  V30 4556 H 446.114 0.85933 2.39766 0
M  V30 4557 H 446.897 2.52901 2.32155 0
M  V30 4558 N 449.342 -1.36122 0.79427 0
M  V30 4559 C 450.572 -2.03067 0.380437 0
M  V30 4560 C 450.98 -1.60018 -1.00949 0
M  V30 4561 O 450.323 -0.787425 -1.65968 0
M  V30 4562 C 450.385 -3.57587 0.37034 0
M  V30 4563 C 450.049 -4.23855 1.70867 0
M  V30 4564 C 451.046 -4.46404 2.66496 0
M  V30 4565 C 448.731 -4.61229 1.9893 0
M  V30 4566 C 450.725 -5.05412 3.88378 0
M  V30 4567 C 448.412 -5.19953 3.21079 0
M  V30 4568 C 449.41 -5.41985 4.15621 0
M  V30 4569 O 449.098 -5.99475 5.35616 0
M  V30 4570 H 448.83 -0.658168 0.154243 0
M  V30 4571 H 451.384 -1.7498 1.0757 0
M  V30 4572 H 449.614 -3.84814 -0.381444 0
M  V30 4573 H 451.303 -4.05895 -0.0194894 0
M  V30 4574 H 452.069 -4.17921 2.46103 0
M  V30 4575 H 447.948 -4.43402 1.26158 0
M  V30 4576 H 451.492 -5.22524 4.62185 0
M  V30 4577 H 447.389 -5.47862 3.41347 0
M  V30 4578 H 448.157 -6.17937 5.36745 0
M  V30 4579 N 450.82 -0.546701 -1.47814 0
M  V30 4580 C 452.068 -0.0187037 -2.02091 0
M  V30 4581 C 452.389 1.33168 -1.42447 0
M  V30 4582 O 451.659 1.86619 -0.595839 0
M  V30 4583 H 450.239 -0.00392531 -0.74699 0
M  V30 4584 H 452.901 -0.714327 -1.81338 0
M  V30 4585 H 451.997 0.0772219 -3.12004 0
M  V30 4586 N 452.299 1.55045 -0.282633 0
M  V30 4587 C 453.249 2.19514 0.616249 0
M  V30 4588 C 454.233 1.16216 1.11277 0
M  V30 4589 O 455.425 1.42004 1.05659 0
M  V30 4590 C 452.554 2.92548 1.7964 0
M  V30 4591 C 451.64 4.03142 1.31671 0
M  V30 4592 N 452.031 5.0276 0.553695 0
M  V30 4593 C 450.329 4.1635 1.59903 0
M  V30 4594 C 451.03 5.80923 0.30054 0
M  V30 4595 N 450.006 5.3651 0.875116 0
M  V30 4596 H 453.808 2.93889 0.0255363 0
M  V30 4597 H 451.322 1.62169 -0.0865362 0
M  V30 4598 H 453.319 3.37188 2.45173 0
M  V30 4599 H 451.979 2.19685 2.39099 0
M  V30 4600 H 452.99 5.17512 0.20032 0
M  V30 4601 H 449.667 3.54682 2.20243 0
M  V30 4602 H 451.057 6.7118 -0.311053 0
M  V30 4603 N 453.777 0.010035 1.57597 0
M  V30 4604 C 455.017 -0.677084 1.9286 0
M  V30 4605 C 455.381 -1.70377 0.885192 0
M  V30 4606 O 456.582 -2.44199 1.12339 0
M  V30 4607 C 454.853 -1.29452 3.33132 0
M  V30 4608 S 456.412 -2.00537 3.90295 0
M  V30 4609 H 453.23 -0.223409 0.674989 0
M  V30 4610 H 455.832 0.0691289 1.95378 0
M  V30 4611 H 454.536 -0.534593 4.06903 0
M  V30 4612 H 454.067 -2.07845 3.34012 0
M  V30 4613 H 456.082 -3.28168 3.72183 0
M  V30 4614 N 455.255 -1.55392 -0.262866 0
M  V30 4615 C 456.501 -1.76737 -0.99458 0
M  V30 4616 C 456.834 -0.572453 -1.85571 0
M  V30 4617 O 456.109 0.429732 -1.89693 0
M  V30 4618 C 456.392 -3.07824 -1.8686 0
M  V30 4619 C 456.245 -4.3769 -1.03672 0
M  V30 4620 C 457.564 -3.35021 -2.85393 0
M  V30 4621 H 454.683 -0.643005 -0.360157 0
M  V30 4622 H 457.325 -1.88126 -0.266216 0
M  V30 4623 H 455.475 -2.98245 -2.48962 0
M  V30 4624 H 457.147 -4.59238 -0.43563 0
M  V30 4625 H 455.39 -4.32461 -0.340513 0
M  V30 4626 H 456.061 -5.25759 -1.6817 0
M  V30 4627 H 458.537 -3.44458 -2.33426 0
M  V30 4628 H 457.413 -4.27989 -3.43681 0
M  V30 4629 H 457.674 -2.55153 -3.61039 0
M  V30 4630 N 456.733 0.527833 -1.48498 0
M  V30 4631 C 457.961 1.30823 -1.6029 0
M  V30 4632 C 458.376 1.86945 -0.263974 0
M  V30 4633 O 457.733 1.6651 0.747034 0
M  V30 4634 C 457.784 2.45756 -2.65116 0
M  V30 4635 O 457.505 1.91946 -3.93813 0
M  V30 4636 C 459.006 3.37543 -2.87367 0
M  V30 4637 H 456.226 0.397763 -0.540394 0
M  V30 4638 H 458.77 0.636529 -1.94341 0
M  V30 4639 H 456.925 3.08806 -2.33917 0
M  V30 4640 H 457.339 2.67195 -4.51339 0
M  V30 4641 H 458.813 4.14532 -3.6451 0
M  V30 4642 H 459.29 3.92905 -1.9627 0
M  V30 4643 H 459.896 2.80283 -3.19878 0
M  V30 4644 N 458.211 1.37122 0.776871 0
M  V30 4645 C 459.488 1.22586 1.52421 0
M  V30 4646 C 459.868 -0.182726 2.10308 0
M  V30 4647 O 459.216 -1.18979 1.9508 0
M  V30 4648 C 459.426 2.31782 2.60918 0
M  V30 4649 C 460.774 2.69071 3.2846 0
M  V30 4650 O 461.798 2.3092 2.71209 0
M  V30 4651 O 460.657 3.3478 4.31954 0
M  V30 4652 H 457.751 0.478045 0.674835 0
M  V30 4653 H 460.297 1.48888 0.814275 0
M  V30 4654 H 459.069 3.26131 2.16227 0
M  V30 4655 H 458.692 2.06916 3.39517 0
M  V30 4656 N 459.689 -1.00246 1.21608 0
M  V30 4657 C 460.914 -1.78167 1.06167 0
M  V30 4658 C 461.339 -1.84138 -0.384035 0
M  V30 4659 O 460.697 -1.28683 -1.27712 0
M  V30 4660 C 460.745 -3.19786 1.66642 0
M  V30 4661 O 459.849 -4.02153 0.913613 0
M  V30 4662 H 459.19 -0.549 0.37349 0
M  V30 4663 H 461.72 -1.25994 1.61204 0
M  V30 4664 H 461.73 -3.70451 1.70969 0
M  V30 4665 H 460.405 -3.14754 2.7185 0
M  V30 4666 H 458.982 -3.60711 0.945635 0
M  V30 4667 N 461.167 -1.02423 -1.1978 0
M  V30 4668 C 462.415 -0.716569 -1.8897 0
M  V30 4669 C 462.736 0.756769 -1.79716 0
M  V30 4670 O 462.006 1.5449 -1.20456 0
M  V30 4671 H 460.586 -0.262062 -0.699523 0
M  V30 4672 H 463.248 -1.29747 -1.45436 0
M  V30 4673 H 462.344 -1.00675 -2.95417 0
M  V30 4674 N 462.645 1.35699 -0.801477 0
M  V30 4675 C 463.891 1.99208 -0.380022 0
M  V30 4676 C 464.224 1.63445 1.04878 0
M  V30 4677 O 463.499 0.895223 1.72673 0
M  V30 4678 C 463.782 3.55755 -0.557708 0
M  V30 4679 C 463.635 4.01332 -2.03107 0
M  V30 4680 C 464.954 4.40096 0.0197968 0
M  V30 4681 H 462.073 0.723667 -0.139552 0
M  V30 4682 H 464.715 1.60928 -1.01006 0
M  V30 4683 H 462.865 3.88494 -0.0213741 0
M  V30 4684 H 464.537 3.79026 -2.62939 0
M  V30 4685 H 462.78 3.52429 -2.52936 0
M  V30 4686 H 463.451 5.10234 -2.1063 0
M  V30 4687 H 465.927 4.13786 -0.438179 0
M  V30 4688 H 464.803 5.48735 -0.134477 0
M  V30 4689 H 465.064 4.2786 1.11303 0
M  V30 4690 N 464.123 0.554532 1.47522 0
M  V30 4691 C 465.369 0.0295227 2.02779 0
M  V30 4692 C 465.702 -1.31582 1.42828 0
M  V30 4693 O 464.977 -1.85561 0.582872 0
M  V30 4694 C 465.26 -0.0664057 3.60039 0
M  V30 4695 C 465.113 1.30585 4.30427 0
M  V30 4696 C 466.432 -0.781162 4.33112 0
M  V30 4697 H 463.551 0.0122027 0.736899 0
M  V30 4698 H 466.193 0.716305 1.7598 0
M  V30 4699 H 464.343 -0.651307 3.83002 0
M  V30 4700 H 466.015 1.93374 4.18813 0
M  V30 4701 H 464.258 1.88125 3.90886 0
M  V30 4702 H 464.929 1.19147 5.38988 0
M  V30 4703 H 467.405 -0.284565 4.15126 0
M  V30 4704 H 466.281 -0.817237 5.42782 0
M  V30 4705 H 466.542 -1.83672 4.0214 0
M  V30 4706 N 465.601 -1.54893 0.290851 0
M  V30 4707 C 466.831 -2.04047 -0.323818 0
M  V30 4708 C 467.239 -1.16809 -1.48837 0
M  V30 4709 O 466.582 -0.184145 -1.82775 0
M  V30 4710 C 466.644 -3.49248 -0.852395 0
M  V30 4711 C 466.308 -4.56623 0.185557 0
M  V30 4712 C 467.305 -5.09985 1.01053 0
M  V30 4713 C 464.99 -5.01252 0.324332 0
M  V30 4714 C 466.984 -6.06507 1.96031 0
M  V30 4715 C 464.671 -5.97596 1.27757 0
M  V30 4716 C 465.669 -6.50107 2.09405 0
M  V30 4717 O 465.357 -7.44565 3.03114 0
M  V30 4718 H 465.089 -0.671735 -0.0758129 0
M  V30 4719 H 467.643 -2.00947 0.425393 0
M  V30 4720 H 465.873 -3.49639 -1.65195 0
M  V30 4721 H 467.562 -3.81654 -1.38185 0
M  V30 4722 H 468.328 -4.76307 0.914129 0
M  V30 4723 H 464.207 -4.60015 -0.301213 0
M  V30 4724 H 467.751 -6.47418 2.598 0
M  V30 4725 H 463.648 -6.30691 1.37473 0
M  V30 4726 H 464.416 -7.62334 2.97976 0
M  V30 4727 N 467.08 -0.0183926 -1.57589 0
M  V30 4728 C 468.305 0.676634 -1.96052 0
M  V30 4729 C 468.73 1.6548 -0.894307 0
M  V30 4730 O 468.088 1.80712 0.145849 0
M  V30 4731 C 468.136 1.36872 -3.33614 0
M  V30 4732 O 467.24 2.48372 -3.29219 0
M  V30 4733 H 466.581 0.1786 -0.63953 0
M  V30 4734 H 469.111 -0.077056 -2.04455 0
M  V30 4735 H 469.121 1.72797 -3.69601 0
M  V30 4736 H 467.796 0.651636 -4.10763 0
M  V30 4737 H 466.373 2.14639 -3.04934 0
M  V30 4738 N 468.558 1.5553 0.254621 0
M  V30 4739 C 469.804 1.77262 0.985193 0
M  V30 4740 C 470.137 0.582286 1.85265 0
M  V30 4741 O 469.412 -0.419666 1.89919 0
M  V30 4742 C 469.695 3.0881 1.85225 0
M  V30 4743 C 469.548 4.38233 1.0135 0
M  V30 4744 C 470.867 3.3653 2.83612 0
M  V30 4745 H 467.986 0.644906 0.356742 0
M  V30 4746 H 470.628 1.88264 0.256236 0
M  V30 4747 H 468.778 2.99562 2.47376 0
M  V30 4748 H 470.45 4.59463 0.411269 0
M  V30 4749 H 468.693 4.32636 0.317574 0
M  V30 4750 H 469.364 5.26644 1.65379 0
M  V30 4751 H 471.84 3.45691 2.31596 0
M  V30 4752 H 470.716 4.29805 3.41407 0
M  V30 4753 H 470.977 2.57064 3.59681 0
M  V30 4754 N 470.036 -0.519951 1.48776 0
M  V30 4755 C 471.284 -1.2727 1.56993 0
M  V30 4756 C 471.605 -1.9339 0.25004 0
M  V30 4757 O 470.875 -1.81822 -0.729216 0
M  V30 4758 H 469.455 -0.472732 0.578389 0
M  V30 4759 H 472.117 -0.604234 1.85297 0
M  V30 4760 H 471.213 -2.04669 2.3562 0
M  V30 4761 N 471.514 -1.37532 -0.769588 0
M  V30 4762 C 472.447 -1.27839 -1.8903 0
M  V30 4763 C 473.425 -0.158504 -1.61826 0
M  V30 4764 O 474.609 -0.333086 -1.85534 0
M  V30 4765 C 471.736 -0.977072 -3.24301 0
M  V30 4766 C 470.782 -2.11414 -3.70414 0
M  V30 4767 S 471.615 -3.73409 -3.83831 0
M  V30 4768 C 472.771 -3.45432 -5.21946 0
M  V30 4769 H 473.004 -2.22694 -1.96963 0
M  V30 4770 H 470.537 -1.2318 -0.930914 0
M  V30 4771 H 472.495 -0.810049 -4.02428 0
M  V30 4772 H 471.156 -0.0459701 -3.14066 0
M  V30 4773 H 470.349 -1.85837 -4.68488 0
M  V30 4774 H 469.951 -2.24141 -2.99394 0
M  V30 4775 H 472.243 -3.00554 -6.07185 0
M  V30 4776 H 473.186 -4.42841 -5.52537 0
M  V30 4777 H 473.594 -2.80311 -4.89986 0
M  V30 4778 N 472.992 0.995999 -1.22138 0
M  V30 4779 C 473.924 2.08745 -0.946485 0
M  V30 4780 C 474.937 1.62633 0.0737356 0
M  V30 4781 O 476.126 1.77782 -0.159886 0
M  V30 4782 C 473.226 3.36516 -0.401305 0
M  V30 4783 C 472.399 4.11672 -1.47801 0
M  V30 4784 C 471.458 5.17728 -0.940461 0
M  V30 4785 O 470.484 5.45482 -1.62596 0
M  V30 4786 N 471.686 5.80005 0.239723 0
M  V30 4787 H 474.451 2.32908 -1.88611 0
M  V30 4788 H 472.012 1.16152 -1.12785 0
M  V30 4789 H 474.004 4.04691 -0.0270837 0
M  V30 4790 H 472.574 3.0944 0.443354 0
M  V30 4791 H 471.794 3.38171 -2.02568 0
M  V30 4792 H 473.082 4.58657 -2.20253 0
M  V30 4793 H 472.48 5.5982 0.813518 0
M  V30 4794 H 471.037 6.4943 0.555361 0
M  V30 4795 N 474.47 1.03057 1.19235 0
M  V30 4796 C 475.716 0.738841 1.89506 0
M  V30 4797 C 476.071 -0.724807 1.78225 0
M  V30 4798 O 475.364 -1.52118 1.16494 0
M  V30 4799 C 475.558 1.1268 3.39172 0
M  V30 4800 C 475.387 2.62662 3.65019 0
M  V30 4801 C 474.157 3.29658 3.82954 0
M  V30 4802 C 476.355 3.60873 3.66436 0
M  V30 4803 N 474.337 4.68726 3.96446 0
M  V30 4804 C 475.708 4.85566 3.8552 0
M  V30 4805 C 477.763 3.54647 3.49471 0
M  V30 4806 C 476.466 6.04783 3.89397 0
M  V30 4807 C 478.492 4.73281 3.54625 0
M  V30 4808 C 477.854 5.96789 3.74196 0
M  V30 4809 H 473.953 0.322256 0.712513 0
M  V30 4810 H 476.537 1.31822 1.43287 0
M  V30 4811 H 474.708 0.575612 3.84111 0
M  V30 4812 H 476.44 0.787145 3.96971 0
M  V30 4813 H 473.195 2.8007 3.81913 0
M  V30 4814 H 473.619 5.40971 4.07037 0
M  V30 4815 H 478.261 2.60143 3.33295 0
M  V30 4816 H 475.979 6.99654 4.04364 0
M  V30 4817 H 479.565 4.70094 3.42787 0
M  V30 4818 H 478.445 6.87051 3.78061 0
M  V30 4819 N 475.948 -1.35272 0.808662 0
M  V30 4820 C 476.878 -2.32315 0.234981 0
M  V30 4821 C 477.859 -1.57572 -0.64071 0
M  V30 4822 O 479.044 -1.8563 -0.570551 0
M  V30 4823 C 476.174 -3.41801 -0.615601 0
M  V30 4824 C 475.128 -4.27694 0.161767 0
M  V30 4825 C 474.454 -5.28519 -0.810649 0
M  V30 4826 C 475.754 -5.04231 1.36193 0
M  V30 4827 H 477.448 -2.80543 1.04575 0
M  V30 4828 H 474.994 -1.3488 0.504315 0
M  V30 4829 H 476.947 -4.08693 -1.02702 0
M  V30 4830 H 475.671 -2.92186 -1.45928 0
M  V30 4831 H 474.33 -3.62384 0.554382 0
M  V30 4832 H 473.978 -4.75171 -1.64988 0
M  V30 4833 H 473.678 -5.8686 -0.294822 0
M  V30 4834 H 475.202 -5.98283 -1.22023 0
M  V30 4835 H 476.616 -5.64058 1.02528 0
M  V30 4836 H 475.013 -5.72077 1.81239 0
M  V30 4837 H 476.083 -4.34753 2.14751 0
M  V30 4838 N 477.426 -0.562348 -1.47226 0
M  V30 4839 C 478.373 0.182461 -2.30078 0
M  V30 4840 C 479.343 0.903503 -1.39377 0
M  V30 4841 O 480.528 0.898188 -1.68337 0
M  V30 4842 C 477.668 1.20322 -3.23445 0
M  V30 4843 C 476.781 0.487717 -4.29238 0
M  V30 4844 C 475.916 1.49422 -5.09752 0
M  V30 4845 C 474.955 0.763976 -6.07314 0
M  V30 4846 N 474.092 1.71755 -6.80768 0
M  V30 4847 H 478.932 -0.530169 -2.93246 0
M  V30 4848 H 476.469 -0.273276 -1.44539 0
M  V30 4849 H 478.427 1.80768 -3.76004 0
M  V30 4850 H 477.057 1.88382 -2.6213 0
M  V30 4851 H 476.109 -0.231374 -3.79696 0
M  V30 4852 H 477.421 -0.0841003 -4.98729 0
M  V30 4853 H 476.575 2.17206 -5.66486 0
M  V30 4854 H 475.314 2.09995 -4.40174 0
M  V30 4855 H 474.319 0.0722344 -5.49753 0
M  V30 4856 H 475.544 0.16391 -6.78902 0
M  V30 4857 H 473.49 2.31177 -6.13916 0
M  V30 4858 H 473.407 1.19802 -7.46447 0
M  V30 4859 H 474.675 2.38638 -7.42073 0
M  V30 4860 N 478.904 1.54736 -0.299062 0
M  V30 4861 C 480.132 2.04512 0.313447 0
M  V30 4862 C 480.547 1.17643 1.47667 0
M  V30 4863 O 479.904 0.20164 1.81383 0
M  V30 4864 C 479.955 3.53171 0.771542 0
M  V30 4865 O 479.676 4.36736 -0.345379 0
M  V30 4866 C 481.177 4.18936 1.4494 0
M  V30 4867 H 478.397 0.667507 0.0683784 0
M  V30 4868 H 480.941 1.99752 -0.438129 0
M  V30 4869 H 479.096 3.58298 1.47314 0
M  V30 4870 H 479.51 5.24499 0.0109219 0
M  V30 4871 H 480.984 5.24482 1.72111 0
M  V30 4872 H 481.461 3.68554 2.38883 0
M  V30 4873 H 482.067 4.17879 0.791028 0
M  V30 4874 N 480.382 0.0267497 1.57577 0
M  V30 4875 C 481.314 -0.984594 2.06974 0
M  V30 4876 C 482.327 -1.29032 0.992705 0
M  V30 4877 O 483.516 -1.25539 1.26895 0
M  V30 4878 C 480.616 -2.31262 2.47732 0
M  V30 4879 C 479.789 -2.1924 3.78487 0
M  V30 4880 C 478.848 -3.34956 4.05821 0
M  V30 4881 O 477.874 -3.11948 4.76106 0
M  V30 4882 N 479.076 -4.58672 3.55809 0
M  V30 4883 H 481.841 -0.563143 2.94362 0
M  V30 4884 H 479.402 -0.160061 1.61107 0
M  V30 4885 H 481.394 -3.07496 2.63112 0
M  V30 4886 H 479.964 -2.65056 1.65723 0
M  V30 4887 H 479.184 -1.27747 3.72927 0
M  V30 4888 H 480.472 -2.08409 4.64158 0
M  V30 4889 H 479.87 -4.8026 2.98942 0
M  V30 4890 H 478.427 -5.32083 3.76472 0
M  V30 4891 N 481.861 -1.55662 -0.24637 0
M  V30 4892 C 483.109 -1.77168 -0.972411 0
M  V30 4893 C 483.43 -0.590827 -1.85834 0
M  V30 4894 O 482.7 0.393365 -1.9191 0
M  V30 4895 H 481.28 -0.653405 -0.362038 0
M  V30 4896 H 483.942 -1.93101 -0.264189 0
M  V30 4897 H 483.038 -2.68335 -1.59382 0
M  V30 4898 N 483.339 0.512053 -1.4905 0
M  V30 4899 C 484.287 1.63568 -1.65373 0
M  V30 4900 C 485.281 1.61228 -0.519806 0
M  V30 4901 O 486.487 1.65869 -0.699101 0
M  V30 4902 H 482.862 0.542019 -0.521267 0
M  V30 4903 H 484.833 1.4695 -2.59708 0
M  V30 4904 C 483.582 3.01761 -1.7273 0
M  V30 4905 H 482.905 3.04263 -2.59353 0
M  V30 4906 H 484.345 3.79948 -1.8819 0
M  V30 4907 C 482.804 3.33609 -0.46973 0
M  V30 4908 O 483.334 3.99607 0.409492 0
M  V30 4909 N 481.54 2.88651 -0.336003 0
M  V30 4910 H 481.087 2.35119 -1.05247 0
M  V30 4911 H 481.045 3.10328 0.504363 0
M  V30 4912 N 484.817 1.37938 0.762283 0
M  V30 4913 C 485.764 1.34467 1.87583 0
M  V30 4914 C 486.734 0.208633 1.64785 0
M  V30 4915 O 487.919 0.399494 1.86571 0
M  V30 4916 C 485.059 1.16692 3.24772 0
M  V30 4917 C 484.172 2.39608 3.59461 0
M  V30 4918 C 483.307 2.14631 4.85908 0
M  V30 4919 C 482.346 3.33364 5.13357 0
M  V30 4920 N 481.483 3.07877 6.30996 0
M  V30 4921 H 486.323 2.29669 1.89885 0
M  V30 4922 H 483.86 1.14116 0.928219 0
M  V30 4923 H 485.818 1.04405 4.03925 0
M  V30 4924 H 484.448 0.251333 3.2182 0
M  V30 4925 H 483.5 2.626 2.75219 0
M  V30 4926 H 484.812 3.28128 3.75678 0
M  V30 4927 H 483.966 1.99429 5.72986 0
M  V30 4928 H 482.705 1.23463 4.71814 0
M  V30 4929 H 481.71 3.49094 4.24751 0
M  V30 4930 H 482.935 4.25395 5.29354 0
M  V30 4931 H 480.881 2.19348 6.18241 0
M  V30 4932 H 480.798 3.89944 6.47673 0
M  V30 4933 H 482.066 2.96313 7.20985 0
M  V30 4934 N 486.295 -0.989507 1.22664 0
M  V30 4935 C 487.227 -2.0824 0.957542 0
M  V30 4936 C 488.24 -1.6267 -0.0651098 0
M  V30 4937 O 489.429 -1.77695 0.169312 0
M  V30 4938 C 486.529 -3.36298 0.419145 0
M  V30 4939 C 485.702 -4.10882 1.49982 0
M  V30 4940 C 484.761 -5.17221 0.967904 0
M  V30 4941 O 483.787 -5.44613 1.65487 0
M  V30 4942 N 484.989 -5.80124 -0.20896 0
M  V30 4943 H 487.754 -2.31904 1.89843 0
M  V30 4944 H 485.315 -1.15552 1.13399 0
M  V30 4945 H 487.307 -4.04671 0.0485451 0
M  V30 4946 H 485.877 -3.09671 -0.426937 0
M  V30 4947 H 485.097 -3.37092 2.04359 0
M  V30 4948 H 486.385 -4.57482 2.22682 0
M  V30 4949 H 485.783 -5.60244 -0.783818 0
M  V30 4950 H 484.34 -6.49715 -0.520913 0
M  V30 4951 N 487.773 -1.03688 -1.18687 0
M  V30 4952 C 488.706 -0.569112 -2.2099 0
M  V30 4953 C 489.684 0.394315 -1.57746 0
M  V30 4954 O 490.868 0.309519 -1.85941 0
M  V30 4955 C 487.995 0.169104 -3.38278 0
M  V30 4956 C 487.041 -0.746989 -4.19908 0
M  V30 4957 S 487.874 -2.22773 -4.86963 0
M  V30 4958 C 489.03 -1.50025 -6.07654 0
M  V30 4959 H 489.263 -1.43589 -2.60326 0
M  V30 4960 H 486.796 -0.847507 -1.29061 0
M  V30 4961 H 488.754 0.588868 -4.06254 0
M  V30 4962 H 487.415 1.01172 -2.9736 0
M  V30 4963 H 486.608 -0.176626 -5.0369 0
M  V30 4964 H 486.21 -1.10543 -3.5729 0
M  V30 4965 H 488.502 -0.791217 -6.72864 0
M  V30 4966 H 489.445 -2.31498 -6.69189 0
M  V30 4967 H 489.853 -0.994245 -5.55675 0
M  V30 4968 N 489.251 1.34841 -0.815825 0
M  V30 4969 C 490.181 2.32187 -0.247298 0
M  V30 4970 C 491.162 1.5791 0.632344 0
M  V30 4971 O 492.347 1.8593 0.560698 0
M  V30 4972 C 489.477 3.42122 0.597466 0
M  V30 4973 C 488.431 4.27602 -0.184446 0
M  V30 4974 C 487.757 5.28942 0.782609 0
M  V30 4975 C 489.057 5.03502 -1.38865 0
M  V30 4976 H 490.751 2.79985 -1.06061 0
M  V30 4977 H 488.297 1.34611 -0.511461 0
M  V30 4978 H 490.25 4.09232 1.00533 0
M  V30 4979 H 488.974 2.92956 1.44376 0
M  V30 4980 H 487.633 3.62085 -0.573592 0
M  V30 4981 H 487.281 4.7604 1.62466 0
M  V30 4982 H 486.981 5.87008 0.263695 0
M  V30 4983 H 488.505 5.98922 1.18848 0
M  V30 4984 H 489.919 5.63506 -1.05518 0
M  V30 4985 H 488.316 5.71108 -1.8427 0
M  V30 4986 H 489.386 4.33608 -2.17054 0
M  V30 4987 N 490.729 0.570148 1.46925 0
M  V30 4988 C 491.969 0.0534743 2.0433 0
M  V30 4989 C 492.333 -1.27729 1.4335 0
M  V30 4990 O 493.534 -1.88244 1.91879 0
M  V30 4991 C 491.805 -0.0244296 3.57392 0
M  V30 4992 S 493.364 -0.485351 4.36108 0
M  V30 4993 H 490.182 0.0313908 0.710307 0
M  V30 4994 H 492.784 0.759808 1.80131 0
M  V30 4995 H 491.488 0.948261 3.99295 0
M  V30 4996 H 491.019 -0.753922 3.86108 0
M  V30 4997 H 493.034 -1.74258 4.64595 0
M  V30 4998 N 492.207 -1.54576 0.307264 0
M  V30 4999 C 493.435 -2.04675 -0.302597 0
M  V30 5000 C 493.85 -1.18425 -1.47041 0
M  V30 5001 O 493.207 -0.211257 -1.81273 0
M  V30 5002 C 493.258 -3.53575 -0.752801 0
M  V30 5003 O 492.979 -4.36547 0.368536 0
M  V30 5004 C 494.48 -4.19699 -1.42717 0
M  V30 5005 H 491.7 -0.66786 -0.0648374 0
M  V30 5006 H 494.244 -1.99516 0.448716 0
M  V30 5007 H 492.399 -3.59074 -1.45412 0
M  V30 5008 H 492.813 -5.24497 0.0168937 0
M  V30 5009 H 494.287 -5.25388 -1.69327 0
M  V30 5010 H 494.764 -3.69815 -2.36925 0
M  V30 5011 H 495.37 -4.18293 -0.768856 0
M  V30 5012 N 493.685 -0.035106 -1.57561 0
M  V30 5013 C 494.925 0.646316 -1.93913 0
M  V30 5014 C 495.289 1.68947 -0.912185 0
M  V30 5015 O 496.49 2.42381 -1.1621 0
M  V30 5016 C 494.761 1.24136 -3.35149 0
M  V30 5017 S 496.32 1.94302 -3.93436 0
M  V30 5018 H 493.138 0.212642 -0.678457 0
M  V30 5019 H 495.74 -0.100203 -1.95243 0
M  V30 5020 H 494.444 0.46979 -4.07702 0
M  V30 5021 H 493.975 2.02505 -3.37276 0
M  V30 5022 H 495.99 3.22205 -3.77357 0
M  V30 5023 N 495.163 1.55791 0.238111 0
M  V30 5024 C 496.093 1.94068 1.29846 0
M  V30 5025 C 497.074 0.806726 1.49753 0
M  V30 5026 O 498.259 1.06772 1.62214 0
M  V30 5027 C 495.389 2.24302 2.65153 0
M  V30 5028 C 494.343 3.40032 2.59927 0
M  V30 5029 C 493.669 3.55829 3.99111 0
M  V30 5030 C 494.969 4.75476 2.16148 0
M  V30 5031 H 496.663 2.82887 0.980563 0
M  V30 5032 H 494.209 1.36105 0.470253 0
M  V30 5033 H 496.162 2.4967 3.39475 0
M  V30 5034 H 494.886 1.32318 2.98596 0
M  V30 5035 H 493.545 3.14687 1.88063 0
M  V30 5036 H 493.193 2.6125 4.29834 0
M  V30 5037 H 492.893 4.3366 3.96501 0
M  V30 5038 H 494.417 3.83528 4.7512 0
M  V30 5039 H 495.831 5.00158 2.80205 0
M  V30 5040 H 494.228 5.56472 2.24631 0
M  V30 5041 H 495.298 4.71946 1.11333 0
M  V30 5042 N 496.642 -0.504142 1.49319 0
M  V30 5043 C 497.89 -1.25598 1.58334 0
M  V30 5044 C 498.211 -1.93114 0.270538 0
M  V30 5045 O 497.481 -1.82585 -0.709891 0
M  V30 5046 H 496.061 -0.466571 0.58337 0
M  V30 5047 H 498.723 -0.584547 1.85928 0
M  V30 5048 H 497.819 -2.02159 2.37778 0
M  V30 5049 N 498.12 -1.38341 -0.754957 0
M  V30 5050 C 499.068 -1.35573 -1.89005 0
M  V30 5051 C 500.062 -0.241824 -1.67665 0
M  V30 5052 O 501.268 -0.410785 -1.7525 0
M  V30 5053 H 497.643 -0.422898 -0.621821 0
M  V30 5054 H 499.614 -2.31359 -1.88455 0
M  V30 5055 C 498.363 -1.19631 -3.26471 0
M  V30 5056 H 497.686 -2.04605 -3.43477 0
M  V30 5057 H 499.126 -1.21748 -4.06144 0
M  V30 5058 C 497.585 0.0968705 -3.36761 0
M  V30 5059 O 498.115 1.07439 -3.87066 0
M  V30 5060 N 496.321 0.153242 -2.90196 0
M  V30 5061 H 495.868 -0.642908 -2.49448 0
M  V30 5062 H 495.826 1.01807 -2.9746 0
M  V30 5063 N 499.598 0.982988 -1.23187 0
M  V30 5064 C 500.846 1.72052 -1.06031 0
M  V30 5065 C 501.167 1.90769 0.404019 0
M  V30 5066 O 500.437 1.47446 1.28982 0
M  V30 5067 H 499.017 0.637499 -0.389363 0
M  V30 5068 H 501.679 1.18338 -1.54862 0
M  V30 5069 H 500.775 2.7111 -1.54615 0
M  V30 5070 N 501.076 1.04316 1.18135 0
M  V30 5071 C 502.322 0.749128 1.88457 0
M  V30 5072 C 502.655 -0.72149 1.803 0
M  V30 5073 O 501.93 -1.52676 1.205 0
M  V30 5074 C 502.213 1.21905 3.38838 0
M  V30 5075 C 502.066 2.75195 3.55792 0
M  V30 5076 C 503.385 0.811085 4.32561 0
M  V30 5077 H 500.504 0.273611 0.684329 0
M  V30 5078 H 503.146 1.29561 1.38975 0
M  V30 5079 H 501.296 0.754137 3.8111 0
M  V30 5080 H 502.968 3.29743 3.22595 0
M  V30 5081 H 501.211 3.14899 2.98364 0
M  V30 5082 H 501.882 3.03135 4.61317 0
M  V30 5083 H 504.358 1.21118 3.98082 0
M  V30 5084 H 503.234 1.16761 5.36338 0
M  V30 5085 H 503.495 -0.285596 4.41177 0
M  V30 5086 N 502.554 -1.34406 0.822964 0
M  V30 5087 C 503.779 -2.0304 0.423034 0
M  V30 5088 C 504.204 -1.61568 -0.963196 0
M  V30 5089 O 503.562 -0.800339 -1.62678 0
M  V30 5090 C 503.61 -3.56636 0.53321 0
M  V30 5091 O 502.714 -4.09971 -0.446939 0
M  V30 5092 H 502.055 -0.64075 0.174171 0
M  V30 5093 H 504.585 -1.71653 1.11339 0
M  V30 5094 H 504.595 -4.05945 0.408991 0
M  V30 5095 H 503.27 -3.86168 1.54425 0
M  V30 5096 H 501.847 -3.71835 -0.281601 0
M  V30 5097 N 504.032 -0.577932 -1.46621 0
M  V30 5098 C 505.272 -0.0643097 -2.04299 0
M  V30 5099 C 505.636 1.26967 -1.44026 0
M  V30 5100 O 506.837 1.87224 -1.92875 0
M  V30 5101 C 505.108 0.00547588 -3.574 0
M  V30 5102 S 506.667 0.462216 -4.36359 0
M  V30 5103 H 503.485 -0.0351573 -0.71013 0
M  V30 5104 H 506.087 -0.76935 -1.79725 0
M  V30 5105 H 504.791 -0.969423 -3.98786 0
M  V30 5106 H 504.322 0.733435 -3.86503 0
M  V30 5107 H 506.337 1.71791 -4.65513 0
M  V30 5108 N 505.51 1.54411 -0.315457 0
M  V30 5109 C 506.442 2.21527 0.588067 0
M  V30 5110 C 507.455 1.21263 1.08624 0
M  V30 5111 O 508.644 1.47777 1.00121 0
M  V30 5112 C 505.744 2.85963 1.81875 0
M  V30 5113 C 504.917 4.12291 1.46063 0
M  V30 5114 C 503.976 4.60396 2.54799 0
M  V30 5115 O 503.002 5.25265 2.19283 0
M  V30 5116 N 504.204 4.33935 3.85591 0
M  V30 5117 H 506.969 2.99697 0.013414 0
M  V30 5118 H 504.53 1.61308 -0.138295 0
M  V30 5119 H 506.522 3.15071 2.53993 0
M  V30 5120 H 505.092 2.11548 2.30144 0
M  V30 5121 H 504.312 3.90036 0.571445 0
M  V30 5122 H 505.6 4.9452 1.19695 0
M  V30 5123 H 504.998 3.81996 4.17248 0
M  V30 5124 H 503.555 4.67718 4.53964 0
M  V30 5125 N 506.988 0.0434614 1.5754 0
M  V30 5126 C 507.898 -0.94893 2.14552 0
M  V30 5127 C 508.914 -1.34707 1.10136 0
M  V30 5128 O 510.09 -1.42557 1.42266 0
M  V30 5129 C 507.155 -2.208 2.67298 0
M  V30 5130 C 506.216 -1.86893 3.86484 0
M  V30 5131 C 505.449 -3.06797 4.36705 0
M  V30 5132 O 505.672 -4.19921 3.86034 0
M  V30 5133 O 504.606 -2.8826 5.28384 0
M  V30 5134 H 508.432 -0.494099 2.99654 0
M  V30 5135 H 506.017 -0.177989 1.48336 0
M  V30 5136 H 507.899 -2.94686 3.01228 0
M  V30 5137 H 506.574 -2.65436 1.85272 0
M  V30 5138 H 505.481 -1.10347 3.57455 0
M  V30 5139 H 506.814 -1.47062 4.69716 0
M  V30 5140 N 508.466 -1.55915 -0.229846 0
M  V30 5141 C 509.694 -1.82617 -0.972562 0
M  V30 5142 C 510.109 -0.621488 -1.78278 0
M  V30 5143 O 509.466 0.409956 -1.77836 0
M  V30 5144 C 509.517 -3.0774 -1.89679 0
M  V30 5145 O 509.238 -4.23559 -1.11934 0
M  V30 5146 C 510.739 -3.47368 -2.75409 0
M  V30 5147 H 507.959 -0.60727 -0.285419 0
M  V30 5148 H 510.503 -2.02996 -0.247579 0
M  V30 5149 H 508.658 -2.89361 -2.57583 0
M  V30 5150 H 509.072 -4.94586 -1.74599 0
M  V30 5151 H 510.546 -4.37977 -3.35977 0
M  V30 5152 H 511.023 -2.68737 -3.47386 0
M  V30 5153 H 511.629 -3.68158 -2.12931 0
M  V30 5154 N 509.944 0.496216 -1.49584 0
M  V30 5155 C 510.907 1.57952 -1.66084 0
M  V30 5156 C 511.907 1.51729 -0.53244 0
M  V30 5157 O 513.097 1.54796 -0.79899 0
M  V30 5158 C 510.229 2.97604 -1.66268 0
M  V30 5159 H 511.422 1.44649 -2.6271 0
M  V30 5160 H 508.975 0.7208 -1.38687 0
M  V30 5161 H 509.71 3.16378 -0.712432 0
M  V30 5162 H 509.495 3.03528 -2.4822 0
M  V30 5163 H 510.985 3.76301 -1.81073 0
M  V30 5164 N 511.423 1.38739 0.74761 0
M  V30 5165 C 512.669 1.35475 1.50912 0
M  V30 5166 C 513.002 -0.0533093 1.94127 0
M  V30 5167 O 512.277 -1.01572 1.65871 0
M  V30 5168 C 512.56 2.31582 2.75757 0
M  V30 5169 C 512.413 3.81274 2.38642 0
M  V30 5170 C 513.732 2.25722 3.77806 0
M  V30 5171 H 510.851 0.493427 0.547447 0
M  V30 5172 H 513.493 1.69634 0.855823 0
M  V30 5173 H 511.643 2.02582 3.31501 0
M  V30 5174 H 513.315 4.20972 1.88626 0
M  V30 5175 H 511.558 3.98664 1.71025 0
M  V30 5176 H 512.229 4.4399 3.27989 0
M  V30 5177 H 514.705 2.51336 3.31616 0
M  V30 5178 H 513.581 2.95069 4.62845 0
M  V30 5179 H 513.842 1.25803 4.23823 0
M  V30 5180 N 512.901 -0.976442 1.23707 0
M  V30 5181 C 514.129 -1.75341 1.09833 0
M  V30 5182 C 514.544 -1.8553 -0.349885 0
M  V30 5183 O 513.901 -1.33732 -1.24185 0
M  V30 5184 C 513.952 -3.17833 1.72233 0
M  V30 5185 O 513.673 -3.08167 3.11391 0
M  V30 5186 C 515.174 -4.11906 1.63853 0
M  V30 5187 H 512.394 -0.550137 0.384175 0
M  V30 5188 H 514.938 -1.2265 1.63638 0
M  V30 5189 H 513.093 -3.67538 1.22452 0
M  V30 5190 H 513.507 -3.97897 3.41729 0
M  V30 5191 H 514.981 -5.09579 2.12211 0
M  V30 5192 H 515.458 -4.35109 0.598092 0
M  V30 5193 H 516.064 -3.68107 2.13019 0
M  V30 5194 N 514.379 -1.04941 -1.1758 0
M  V30 5195 C 515.311 -0.606174 -2.21039 0
M  V30 5196 C 516.324 0.328763 -1.59446 0
M  V30 5197 O 517.513 0.121895 -1.78083 0
M  V30 5198 C 514.613 0.133294 -3.38638 0
M  V30 5199 C 513.786 -0.811711 -4.29802 0
M  V30 5200 C 512.845 -0.113958 -5.26077 0
M  V30 5201 O 511.871 -0.747237 -5.64274 0
M  V30 5202 N 513.073 1.14953 -5.69004 0
M  V30 5203 H 515.838 -1.49606 -2.59689 0
M  V30 5204 H 513.399 -0.930997 -1.32454 0
M  V30 5205 H 515.391 0.610144 -4.00074 0
M  V30 5206 H 513.961 0.924816 -2.98607 0
M  V30 5207 H 513.181 -1.46824 -3.65837 0
M  V30 5208 H 514.469 -1.45326 -4.87604 0
M  V30 5209 H 513.867 1.68441 -5.40041 0
M  V30 5210 H 512.424 1.57049 -6.32597 0
M  V30 5211 N 515.857 1.33968 -0.830081 0
M  V30 5212 C 517.085 2.0228 -0.434773 0
M  V30 5213 C 517.5 1.62487 0.961419 0
M  V30 5214 O 516.857 0.833849 1.62337 0
M  V30 5215 C 516.908 3.5751 -0.535625 0
M  V30 5216 O 516.629 3.95864 -1.87679 0
M  V30 5217 C 518.13 4.43091 -0.136137 0
M  V30 5218 H 515.35 0.648151 -0.173613 0
M  V30 5219 H 517.894 1.71089 -1.12022 0
M  V30 5220 H 516.049 3.87266 0.101817 0
M  V30 5221 H 516.463 4.9056 -1.85609 0
M  V30 5222 H 517.937 5.51398 -0.257772 0
M  V30 5223 H 518.414 4.29433 0.921076 0
M  V30 5224 H 519.02 4.18677 -0.747662 0
M  V30 5225 N 517.335 0.585699 1.46312 0
M  V30 5226 C 518.565 0.0780166 2.06453 0
M  V30 5227 C 518.973 -1.2336 1.43454 0
M  V30 5228 O 518.316 -1.75734 0.535086 0
M  V30 5229 C 518.378 -0.158951 3.59148 0
M  V30 5230 C 518.042 1.06752 4.44357 0
M  V30 5231 C 519.039 1.98031 4.80708 0
M  V30 5232 C 516.724 1.2902 4.85447 0
M  V30 5233 C 518.718 3.09924 5.5698 0
M  V30 5234 C 516.405 2.41218 5.61478 0
M  V30 5235 C 517.403 3.31499 5.97158 0
M  V30 5236 O 517.091 4.41747 6.71651 0
M  V30 5237 H 516.823 0.0558894 0.673686 0
M  V30 5238 H 519.377 0.806994 1.88883 0
M  V30 5239 H 517.607 -0.942575 3.75037 0
M  V30 5240 H 519.296 -0.615513 4.01206 0
M  V30 5241 H 520.062 1.82043 4.49539 0
M  V30 5242 H 515.941 0.596567 4.57124 0
M  V30 5243 H 519.485 3.80415 5.84748 0
M  V30 5244 H 515.382 2.57167 5.9206 0
M  V30 5245 H 516.15 4.40152 6.90079 0
M  V30 5246 N 518.813 -1.54241 0.323641 0
M  V30 5247 C 520.061 -2.00174 -0.278359 0
M  V30 5248 C 520.382 -1.2134 -1.52648 0
M  V30 5249 O 519.652 -0.315244 -1.93347 0
M  V30 5250 H 518.232 -0.739463 -0.105845 0
M  V30 5251 H 520.894 -1.89864 0.440204 0
M  V30 5252 H 519.99 -3.07486 -0.5347 0
M  V30 5253 N 520.291 -0.0518155 -1.57515 0
M  V30 5254 C 521.539 0.620595 -1.92336 0
M  V30 5255 C 521.86 1.71345 -0.930907 0
M  V30 5256 O 521.13 1.95885 0.0241341 0
M  V30 5257 H 519.71 0.232226 -0.709986 0
M  V30 5258 H 522.372 -0.104969 -1.94617 0
M  V30 5259 H 521.468 1.05879 -2.93592 0
M  V30 5260 N 521.769 1.56035 0.221574 0
M  V30 5261 C 522.717 1.93269 1.29421 0
M  V30 5262 C 523.711 0.814727 1.48521 0
M  V30 5263 O 524.917 0.999559 1.49696 0
M  V30 5264 H 521.292 0.614188 0.43391 0
M  V30 5265 H 523.263 2.82773 0.952987 0
M  V30 5266 C 522.012 2.26573 2.63742 0
M  V30 5267 H 521.335 3.12112 2.49853 0
M  V30 5268 H 522.775 2.5651 3.37607 0
M  V30 5269 C 521.234 1.09086 3.1875 0
M  V30 5270 O 521.764 0.351985 4.00155 0
M  V30 5271 N 519.97 0.874693 2.77124 0
M  V30 5272 H 519.517 1.47726 2.11033 0
M  V30 5273 H 519.475 0.0903349 3.1427 0
M  V30 5274 N 523.247 -0.488276 1.49845 0
M  V30 5275 C 524.472 -1.26997 1.63971 0
M  V30 5276 C 524.897 -1.85427 0.315994 0
M  V30 5277 O 524.255 -1.66475 -0.718032 0
M  V30 5278 C 524.303 -2.36689 2.72049 0
M  V30 5279 O 523.407 -3.40882 2.32107 0
M  V30 5280 H 522.748 -0.374376 0.548396 0
M  V30 5281 H 525.278 -0.583104 1.96115 0
M  V30 5282 H 525.288 -2.82262 2.94605 0
M  V30 5283 H 523.963 -1.93529 3.68129 0
M  V30 5284 H 522.54 -3.01139 2.19931 0
M  V30 5285 N 524.725 -1.39134 -0.740242 0
M  V30 5286 C 525.673 -1.3757 -1.87556 0
M  V30 5287 C 526.667 -0.259593 -1.67399 0
M  V30 5288 O 527.873 -0.429349 -1.74804 0
M  V30 5289 H 524.248 -0.42947 -0.6173 0
M  V30 5290 H 526.219 -2.33345 -1.85991 0
M  V30 5291 C 524.968 -1.23087 -3.25184 0
M  V30 5292 H 524.291 -2.08237 -3.41288 0
M  V30 5293 H 525.731 -1.26049 -4.0483 0
M  V30 5294 C 524.19 0.0611471 -3.36845 0
M  V30 5295 O 524.72 1.03328 -3.88183 0
M  V30 5296 N 522.926 0.122454 -2.90342 0
M  V30 5297 H 522.473 -0.669329 -2.48752 0
M  V30 5298 H 522.431 0.986463 -2.98523 0
M  V30 5299 N 526.204 0.969867 -1.24223 0
M  V30 5300 C 527.452 1.70918 -1.0785 0
M  V30 5301 C 527.773 1.91186 0.383763 0
M  V30 5302 O 527.043 1.48806 1.27411 0
M  V30 5303 H 525.623 0.633334 -0.396103 0
M  V30 5304 H 528.285 1.16689 -1.56108 0
M  V30 5305 H 527.381 2.69455 -1.57482 0
M  V30 5306 N 527.682 1.05563 1.17022 0
M  V30 5307 C 528.592 0.670758 2.24807 0
M  V30 5308 C 529.608 -0.309865 1.71219 0
M  V30 5309 O 530.784 -0.161025 2.00755 0
M  V30 5310 C 527.849 0.055337 3.46656 0
M  V30 5311 C 526.91 1.08688 4.15314 0
M  V30 5312 C 526.143 0.500736 5.31346 0
M  V30 5313 O 526.366 -0.688718 5.66227 0
M  V30 5314 O 525.3 1.23683 5.89055 0
M  V30 5315 H 529.126 1.56914 2.60023 0
M  V30 5316 H 526.711 0.827428 1.24395 0
M  V30 5317 H 528.593 -0.286492 4.20425 0
M  V30 5318 H 527.268 -0.816638 3.13229 0
M  V30 5319 H 526.175 1.48077 3.43546 0
M  V30 5320 H 527.508 1.93014 4.52777 0
M  V30 5321 N 529.16 -1.33526 0.837174 0
M  V30 5322 C 530.571 -1.80182 0.489017 0
M  V30 5323 C 530.922 -1.69285 -0.991826 0
M  V30 5324 O 530.047 -1.24113 -1.77271 0
M  V30 5325 C 530.642 -3.27149 0.880866 0
M  V30 5326 C 529.201 -3.71828 0.584872 0
M  V30 5327 C 528.348 -2.54974 1.09011 0
M  V30 5328 H 531.299 -1.21071 1.02603 0
M  V30 5329 H 531.32 -3.80024 0.190239 0
M  V30 5330 H 530.832 -3.35048 1.95869 0
M  V30 5331 H 528.933 -3.69457 -0.48295 0
M  V30 5332 H 529.046 -4.65366 1.13892 0
M  V30 5333 H 527.41 -2.4952 0.511047 0
M  V30 5334 H 528.193 -2.65637 2.17467 0
M  V30 5335 N 530.638 -0.59345 -1.46 0
M  V30 5336 C 531.878 -0.0859747 -2.04219 0
M  V30 5337 C 532.242 1.25432 -1.45364 0
M  V30 5338 O 533.443 1.85168 -1.9485 0
M  V30 5339 C 531.714 -0.0324314 -3.57385 0
M  V30 5340 S 533.273 0.415908 -4.36824 0
M  V30 5341 H 530.091 -0.0426872 -0.709717 0
M  V30 5342 H 532.693 -0.788369 -1.78899 0
M  V30 5343 H 531.397 -1.01166 -3.97735 0
M  V30 5344 H 530.928 0.6924 -3.87259 0
M  V30 5345 H 532.943 1.66844 -4.67309 0
M  V30 5346 N 532.116 1.54067 -0.331816 0
M  V30 5347 C 533.362 2.01012 0.268667 0
M  V30 5348 C 533.695 1.2195 1.51136 0
M  V30 5349 O 532.97 0.303972 1.9211 0
M  V30 5350 C 533.253 3.55158 0.59456 0
M  V30 5351 C 533.106 4.4494 -0.659409 0
M  V30 5352 C 534.425 4.16939 1.4089 0
M  V30 5353 H 531.544 0.730698 0.0961756 0
M  V30 5354 H 534.186 1.84593 -0.450031 0
M  V30 5355 H 532.336 3.6928 1.20685 0
M  V30 5356 H 534.008 4.42675 -1.29756 0
M  V30 5357 H 532.251 4.1428 -1.28665 0
M  V30 5358 H 532.922 5.50643 -0.386804 0
M  V30 5359 H 535.398 4.06443 0.891272 0
M  V30 5360 H 534.274 5.24889 1.60569 0
M  V30 5361 H 534.535 3.70798 2.40752 0
M  V30 5362 N 533.594 0.0601682 1.57485 0
M  V30 5363 C 534.524 -0.90889 2.15085 0
M  V30 5364 C 535.505 -1.31838 1.07484 0
M  V30 5365 O 536.69 -1.3915 1.35466 0
M  V30 5366 C 533.82 -2.18059 2.7031 0
M  V30 5367 C 532.774 -1.91088 3.82974 0
M  V30 5368 C 532.1 -3.24789 4.24754 0
M  V30 5369 C 533.4 -1.22535 5.07723 0
M  V30 5370 H 535.094 -0.429093 2.96309 0
M  V30 5371 H 532.64 -0.204952 1.42534 0
M  V30 5372 H 534.593 -2.86258 3.09248 0
M  V30 5373 H 533.317 -2.6826 1.8629 0
M  V30 5374 H 531.976 -1.25297 3.44523 0
M  V30 5375 H 531.624 -3.72809 3.37672 0
M  V30 5376 H 531.324 -3.07538 5.00694 0
M  V30 5377 H 532.848 -3.94205 4.66299 0
M  V30 5378 H 534.262 -1.80783 5.4405 0
M  V30 5379 H 532.659 -1.1558 5.88864 0
M  V30 5380 H 533.729 -0.202692 4.84476 0
M  V30 5381 N 535.072 -1.5615 -0.213296 0
M  V30 5382 C 536.483 -1.69645 -0.779582 0
M  V30 5383 C 536.834 -0.663615 -1.84636 0
M  V30 5384 O 535.959 0.183633 -2.15619 0
M  V30 5385 C 536.554 -3.07567 -1.42084 0
M  V30 5386 C 535.113 -3.22889 -1.93442 0
M  V30 5387 C 534.26 -2.65581 -0.797612 0
M  V30 5388 H 537.211 -1.58696 0.0114951 0
M  V30 5389 H 537.232 -3.03884 -2.28986 0
M  V30 5390 H 536.744 -3.82716 -0.644187 0
M  V30 5391 H 534.845 -2.52623 -2.73884 0
M  V30 5392 H 534.958 -4.30197 -2.10872 0
M  V30 5393 H 533.322 -2.24278 -1.20712 0
M  V30 5394 H 534.105 -3.43284 -0.033494 0
M  V30 5395 N 536.55 0.480323 -1.50102 0
M  V30 5396 C 537.797 1.23307 -1.60629 0
M  V30 5397 C 538.125 1.92135 -0.302375 0
M  V30 5398 O 537.38 1.82321 0.711154 0
M  V30 5399 C 537.679 2.30708 -2.72963 0
M  V30 5400 C 537.345 1.79195 -4.13763 0
M  V30 5401 C 536.007 1.64867 -4.52076 0
M  V30 5402 C 538.359 1.40878 -5.018 0
M  V30 5403 C 535.687 1.10631 -5.76175 0
M  V30 5404 C 538.039 0.880872 -6.26437 0
M  V30 5405 C 536.703 0.724146 -6.6356 0
M  V30 5406 H 535.973 0.451211 -0.587784 0
M  V30 5407 H 538.62 0.53051 -1.84005 0
M  V30 5408 H 536.925 3.06834 -2.43639 0
M  V30 5409 H 538.622 2.88692 -2.78313 0
M  V30 5410 H 535.212 1.91313 -3.83533 0
M  V30 5411 H 539.396 1.50786 -4.7284 0
M  V30 5412 H 534.652 0.972263 -6.0362 0
M  V30 5413 H 538.826 0.575269 -6.9402 0
M  V30 5414 H 536.453 0.301722 -7.59601 0
M  V30 5415 N 538.028 1.39524 0.732853 0
M  V30 5416 C 539.256 1.40143 1.52209 0
M  V30 5417 C 539.671 -0.00348836 1.888 0
M  V30 5418 O 539.028 -0.975357 1.5425 0
M  V30 5419 C 539.079 2.27632 2.8083 0
M  V30 5420 O 538.8 3.62654 2.45792 0
M  V30 5421 C 540.301 2.36658 3.74844 0
M  V30 5422 H 537.521 0.478604 0.470297 0
M  V30 5423 H 540.065 1.83366 0.905388 0
M  V30 5424 H 538.22 1.87818 3.38826 0
M  V30 5425 H 538.634 4.08941 3.28431 0
M  V30 5426 H 540.108 3.02118 4.61984 0
M  V30 5427 H 540.585 1.38638 4.16745 0
M  V30 5428 H 541.191 2.76951 3.22766 0
M  V30 5429 N 539.506 -0.963266 1.24736 0
M  V30 5430 C 540.736 -1.73913 1.11524 0
M  V30 5431 C 541.144 -1.86218 -0.334612 0
M  V30 5432 O 540.487 -1.3531 -1.24245 0
M  V30 5433 C 540.549 -3.17501 1.68622 0
M  V30 5434 C 540.213 -3.28655 3.17546 0
M  V30 5435 C 541.21 -3.13637 4.14642 0
M  V30 5436 C 538.895 -3.52753 3.5759 0
M  V30 5437 C 540.889 -3.2255 5.49764 0
M  V30 5438 C 538.576 -3.61303 4.92852 0
M  V30 5439 C 539.574 -3.46214 5.88748 0
M  V30 5440 O 539.262 -3.5443 7.2155 0
M  V30 5441 H 538.994 -0.552057 0.390139 0
M  V30 5442 H 541.548 -1.2177 1.65412 0
M  V30 5443 H 539.778 -3.70969 1.09172 0
M  V30 5444 H 541.467 -3.76914 1.50635 0
M  V30 5445 H 542.233 -2.94899 3.85045 0
M  V30 5446 H 538.112 -3.63561 2.83451 0
M  V30 5447 H 541.656 -3.1069 6.24594 0
M  V30 5448 H 537.553 -3.79556 5.22118 0
M  V30 5449 H 538.321 -3.71116 7.29531 0
M  V30 5450 N 540.985 -1.06182 -1.16461 0
M  V30 5451 C 541.933 -0.665716 -2.2287 0
M  V30 5452 C 542.927 0.317822 -1.66392 0
M  V30 5453 O 544.133 0.182807 -1.79069 0
M  V30 5454 H 540.508 -0.197148 -0.725697 0
M  V30 5455 H 542.479 -1.57307 -2.53569 0
M  V30 5456 C 541.228 -0.0669803 -3.47635 0
M  V30 5457 H 540.551 -0.814899 -3.91407 0
M  V30 5458 H 541.991 0.172669 -4.23648 0
M  V30 5459 C 540.45 1.18913 -3.15216 0
M  V30 5460 O 540.98 2.27723 -3.30916 0
M  V30 5461 N 539.186 1.09066 -2.69357 0
M  V30 5462 H 538.733 0.20518 -2.56782 0
M  V30 5463 H 538.691 1.93195 -2.48039 0
M  V30 5464 N 542.463 1.3308 -0.844243 0
M  V30 5465 C 543.711 1.97215 -0.441676 0
M  V30 5466 C 544.032 1.67185 1.0037 0
M  V30 5467 O 543.302 0.973588 1.69994 0
M  V30 5468 H 541.882 0.72959 -0.160335 0
M  V30 5469 H 544.544 1.62348 -1.07838 0
M  V30 5470 H 543.64 3.06698 -0.57815 0
M  V30 5471 N 543.941 0.601185 1.45683 0
M  V30 5472 C 545.357 0.264315 1.57396 0
M  V30 5473 C 545.557 -1.23324 1.59353 0
M  V30 5474 O 544.613 -2.01594 1.52039 0
M  V30 5475 C 545.926 0.929839 2.85962 0
M  V30 5476 C 547.474 0.905156 2.99626 0
M  V30 5477 C 547.949 1.55057 4.30954 0
M  V30 5478 N 549.44 1.51576 4.37697 0
M  V30 5479 C 550.175 1.98436 5.37969 0
M  V30 5480 N 549.671 2.53352 6.44813 0
M  V30 5481 N 551.464 1.89242 5.29286 0
M  V30 5482 H 543.615 1.57363 1.42656 0
M  V30 5483 H 545.878 0.658831 0.681649 0
M  V30 5484 H 545.584 1.98404 2.90394 0
M  V30 5485 H 545.458 0.449224 3.74515 0
M  V30 5486 H 547.845 -0.14048 2.94765 0
M  V30 5487 H 547.926 1.42397 2.12501 0
M  V30 5488 H 547.57 2.5955 4.36573 0
M  V30 5489 H 547.5 1.00682 5.16886 0
M  V30 5490 H 549.991 1.11452 3.61091 0
M  V30 5491 H 550.304 2.86918 7.17564 0
M  V30 5492 H 548.649 2.57388 6.45582 0
M  V30 5493 H 551.84 1.46083 4.44722 0
M  V30 5494 H 552.013 2.26075 6.07284 0
M  V30 5495 N 545.419 -1.53889 0.339982 0
M  V30 5496 C 546.647 -2.05271 -0.259114 0
M  V30 5497 C 547.062 -1.21517 -1.44496 0
M  V30 5498 O 546.419 -0.24966 -1.80784 0
M  V30 5499 C 546.47 -3.55092 -0.677634 0
M  V30 5500 O 546.191 -4.35667 0.461051 0
M  V30 5501 C 547.692 -4.22631 -1.33782 0
M  V30 5502 H 544.912 -0.669085 -0.0506566 0
M  V30 5503 H 547.456 -1.9852 0.490935 0
M  V30 5504 H 545.611 -3.62077 -1.37763 0
M  V30 5505 H 546.025 -5.24343 0.128144 0
M  V30 5506 H 547.499 -5.28861 -1.58145 0
M  V30 5507 H 547.976 -3.74758 -2.29027 0
M  V30 5508 H 548.582 -4.19829 -0.679957 0
M  V30 5509 N 546.897 -0.0685191 -1.57451 0
M  V30 5510 C 548.144 0.601348 -1.93365 0
M  V30 5511 C 548.472 1.69816 -0.948294 0
M  V30 5512 O 547.727 1.95666 0.0366199 0
M  V30 5513 C 548.026 1.22051 -3.35914 0
M  V30 5514 C 547.692 0.250165 -4.50205 0
M  V30 5515 C 546.354 -0.0167954 -4.81197 0
M  V30 5516 C 548.706 -0.413867 -5.19554 0
M  V30 5517 C 546.034 -0.95493 -5.78876 0
M  V30 5518 C 548.386 -1.3403 -6.18238 0
M  V30 5519 C 547.05 -1.61576 -6.47649 0
M  V30 5520 H 546.32 0.220049 -0.707573 0
M  V30 5521 H 548.967 -0.138697 -1.90997 0
M  V30 5522 H 547.272 2.03622 -3.34732 0
M  V30 5523 H 548.969 1.74605 -3.6099 0
M  V30 5524 H 545.559 0.468421 -4.26033 0
M  V30 5525 H 549.743 -0.220733 -4.95809 0
M  V30 5526 H 544.999 -1.17563 -5.99991 0
M  V30 5527 H 549.173 -1.86081 -6.71079 0
M  V30 5528 H 546.8 -2.34431 -7.2315 0
M  V30 5529 N 548.375 1.56261 0.205012 0
M  V30 5530 C 549.605 1.83874 0.942018 0
M  V30 5531 C 550.013 0.647595 1.77772 0
M  V30 5532 O 549.356 -0.393098 1.79445 0
M  V30 5533 C 549.418 3.05453 1.89575 0
M  V30 5534 C 549.082 4.39772 1.24296 0
M  V30 5535 C 550.079 5.16133 0.624724 0
M  V30 5536 C 547.764 4.86504 1.24978 0
M  V30 5537 C 549.758 6.37396 0.0220117 0
M  V30 5538 C 547.445 6.07705 0.643232 0
M  V30 5539 C 548.443 6.82993 0.0304164 0
M  V30 5540 O 548.131 8.019 -0.566654 0
M  V30 5541 H 547.863 0.614896 0.280854 0
M  V30 5542 H 550.417 2.04215 0.220285 0
M  V30 5543 H 548.647 2.80972 2.65691 0
M  V30 5544 H 550.336 3.19797 2.4997 0
M  V30 5545 H 551.102 4.81127 0.611666 0
M  V30 5546 H 546.981 4.27865 1.71616 0
M  V30 5547 H 550.525 6.96102 -0.456926 0
M  V30 5548 H 546.422 6.42181 0.653759 0
M  V30 5549 H 547.19 8.17192 -0.462588 0
M  V30 5550 N 549.853 -0.472356 1.50355 0
M  V30 5551 C 551.078 -1.25251 1.65309 0
M  V30 5552 C 551.503 -1.85081 0.335643 0
M  V30 5553 O 550.861 -1.67227 -0.700335 0
M  V30 5554 C 550.909 -2.3379 2.74544 0
M  V30 5555 O 550.013 -3.38401 2.35709 0
M  V30 5556 H 549.354 -0.368539 0.552336 0
M  V30 5557 H 551.884 -0.562271 1.96722 0
M  V30 5558 H 551.894 -2.79121 2.97583 0
M  V30 5559 H 550.569 -1.89614 3.70161 0
M  V30 5560 H 549.146 -2.9879 2.23112 0
M  V30 5561 N 551.331 -1.39911 -0.725443 0
M  V30 5562 C 552.571 -1.39096 -1.49772 0
M  V30 5563 C 552.935 0.0106452 -1.91997 0
M  V30 5564 O 554.136 0.143859 -2.68415 0
M  V30 5565 C 552.407 -2.34441 -2.69764 0
M  V30 5566 S 553.966 -2.51898 -3.59295 0
M  V30 5567 H 550.784 -0.49314 -0.512186 0
M  V30 5568 H 553.386 -1.76093 -0.849197 0
M  V30 5569 H 552.09 -3.35123 -2.36898 0
M  V30 5570 H 551.621 -1.98692 -3.39537 0
M  V30 5571 H 553.636 -1.76402 -4.63785 0
M  V30 5572 N 552.809 0.956637 -1.25245 0
M  V30 5573 C 554.037 1.73571 -1.12608 0
M  V30 5574 C 554.452 1.86063 0.320324 0
M  V30 5575 O 553.809 1.35691 1.22042 0
M  V30 5576 C 553.86 3.15053 -1.77268 0
M  V30 5577 O 553.581 3.03174 -3.16255 0
M  V30 5578 C 555.082 4.09248 -1.70386 0
M  V30 5579 H 552.302 0.543955 -0.392879 0
M  V30 5580 H 554.846 1.20031 -1.65568 0
M  V30 5581 H 553.001 3.65543 -1.28284 0
M  V30 5582 H 553.415 3.9241 -3.48015 0
M  V30 5583 H 554.889 5.06138 -2.20291 0
M  V30 5584 H 555.366 4.34102 -0.667239 0
M  V30 5585 H 555.972 3.64672 -2.18849 0
M  V30 5586 N 554.287 1.06798 1.15896 0
M  V30 5587 C 555.515 0.808694 1.90441 0
M  V30 5588 C 555.93 -0.637506 1.77711 0
M  V30 5589 O 555.287 -1.43684 1.12522 0
M  V30 5590 C 555.338 1.20068 3.40978 0
M  V30 5591 O 555.059 2.59013 3.53333 0
M  V30 5592 C 556.56 0.96987 4.3256 0
M  V30 5593 H 553.78 0.292809 0.603742 0
M  V30 5594 H 556.324 1.42296 1.46874 0
M  V30 5595 H 554.479 0.630842 3.82229 0
M  V30 5596 H 554.893 2.7485 4.46719 0
M  V30 5597 H 556.367 1.29371 5.36626 0
M  V30 5598 H 556.844 -0.0941209 4.39099 0
M  V30 5599 H 557.45 1.52433 3.97044 0
M  V30 5600 N 555.766 -1.3263 0.851289 0
M  V30 5601 C 556.676 -2.32722 0.296268 0
M  V30 5602 C 557.692 -1.63901 -0.584162 0
M  V30 5603 O 558.868 -1.95465 -0.485334 0
M  V30 5604 C 555.933 -3.42942 -0.509103 0
M  V30 5605 C 554.994 -4.2746 0.397069 0
M  V30 5606 C 554.227 -5.32416 -0.36996 0
M  V30 5607 O 554.45 -5.47491 -1.6003 0
M  V30 5608 O 553.384 -6.01327 0.262493 0
M  V30 5609 H 557.21 -2.82078 1.12543 0
M  V30 5610 H 554.795 -1.36194 0.614135 0
M  V30 5611 H 556.677 -4.1017 -0.96634 0
M  V30 5612 H 555.352 -2.95781 -1.31512 0
M  V30 5613 H 554.259 -3.63053 0.902411 0
M  V30 5614 H 555.592 -4.78136 1.16818 0
M  V30 5615 N 557.244 -0.608902 -1.45362 0
M  V30 5616 C 558.492 -0.104401 -2.0183 0
M  V30 5617 C 558.813 1.27007 -1.47967 0
M  V30 5618 O 558.083 1.83924 -0.674455 0
M  V30 5619 H 556.663 -0.0356042 -0.746151 0
M  V30 5620 H 559.325 -0.790596 -1.78145 0
M  V30 5621 H 558.421 -0.0551793 -3.12051 0
M  V30 5622 N 558.722 1.53707 -0.348139 0
M  V30 5623 C 560.138 1.596 0.00361134 0
M  V30 5624 C 560.338 1.36394 1.4832 0
M  V30 5625 O 559.394 1.16046 2.24253 0
M  V30 5626 C 560.707 2.97512 -0.436682 0
M  V30 5627 C 562.255 3.10568 -0.389416 0
M  V30 5628 C 562.73 4.50866 -0.805249 0
M  V30 5629 N 564.221 4.56929 -0.759616 0
M  V30 5630 C 564.956 5.63643 -1.05327 0
M  V30 5631 N 564.452 6.78189 -1.41531 0
M  V30 5632 N 566.245 5.5354 -0.977207 0
M  V30 5633 H 558.396 1.67044 -1.31187 0
M  V30 5634 H 560.659 0.782559 -0.535075 0
M  V30 5635 H 560.365 3.19575 -1.46849 0
M  V30 5636 H 560.239 3.76742 0.185744 0
M  V30 5637 H 562.626 2.88226 0.633228 0
M  V30 5638 H 562.707 2.33387 -1.04711 0
M  V30 5639 H 562.351 4.73943 -1.82593 0
M  V30 5640 H 562.281 5.26452 -0.124989 0
M  V30 5641 H 564.772 3.74675 -0.49265 0
M  V30 5642 H 565.085 7.55541 -1.62411 0
M  V30 5643 H 563.43 6.79624 -1.45381 0
M  V30 5644 H 566.621 4.62932 -0.693675 0
M  V30 5645 H 566.794 6.36614 -1.2094 0
M  V30 5646 N 560.2 0.0768682 1.57412 0
M  V30 5647 C 561.132 -0.918248 2.10002 0
M  V30 5648 C 562.145 -1.25808 1.03325 0
M  V30 5649 O 563.334 -1.21438 1.30824 0
M  V30 5650 C 560.434 -2.23263 2.54964 0
M  V30 5651 C 559.607 -2.07088 3.8527 0
M  V30 5652 C 558.666 -3.21876 4.16272 0
M  V30 5653 O 557.692 -2.96643 4.8579 0
M  V30 5654 N 558.894 -4.4712 3.70221 0
M  V30 5655 H 561.659 -0.469209 2.96004 0
M  V30 5656 H 559.22 -0.108725 1.61535 0
M  V30 5657 H 561.212 -2.9897 2.72762 0
M  V30 5658 H 559.782 -2.59649 1.74072 0
M  V30 5659 H 559.002 -1.15818 3.76802 0
M  V30 5660 H 560.29 -1.93537 4.70554 0
M  V30 5661 H 559.688 -4.70506 3.1407 0
M  V30 5662 H 558.245 -5.19837 3.93209 0
M  V30 5663 N 561.678 -1.56367 -0.196722 0
M  V30 5664 C 562.955 -1.71359 -0.943159 0
M  V30 5665 C 563.335 -0.631192 -2.01443 0
M  V30 5666 O 562.683 0.358071 -2.25677 0
M  V30 5667 C 562.893 -3.13623 -1.53106 0
M  V30 5668 C 564.241 -3.73806 -2.01381 0
M  V30 5669 O 565.265 -3.16742 -1.62951 0
M  V30 5670 O 564.124 -4.73951 -2.7209 0
M  V30 5671 H 561.218 -0.698851 -0.442195 0
M  V30 5672 H 563.764 -1.68672 -0.186547 0
M  V30 5673 H 562.536 -3.83873 -0.758785 0
M  V30 5674 H 562.159 -3.20532 -2.35255 0
M  V30 5675 N 563.156 0.464375 -1.50603 0
M  V30 5676 C 564.404 1.21356 -1.61608 0
M  V30 5677 C 564.725 1.92329 -0.321643 0
M  V30 5678 O 563.995 1.84403 0.661232 0
M  V30 5679 H 562.575 0.45094 -0.595535 0
M  V30 5680 H 565.237 0.535046 -1.87412 0
M  V30 5681 H 564.333 1.95783 -2.43054 0
M  V30 5682 N 564.634 1.40294 0.718013 0
M  V30 5683 C 565.584 1.36847 1.82365 0
M  V30 5684 C 566.568 0.246424 1.59002 0
M  V30 5685 O 567.76 0.485336 1.70216 0
M  V30 5686 C 564.889 1.23105 3.20469 0
M  V30 5687 C 563.975 2.4008 3.49603 0
M  V30 5688 N 564.366 3.65562 3.49568 0
M  V30 5689 C 562.664 2.33407 3.80049 0
M  V30 5690 C 563.365 4.43015 3.76978 0
M  V30 5691 N 562.341 3.72823 3.95606 0
M  V30 5692 H 566.143 2.31811 1.80668 0
M  V30 5693 H 563.657 1.34031 0.91703 0
M  V30 5694 H 565.654 1.18718 3.9964 0
M  V30 5695 H 564.314 0.291056 3.23393 0
M  V30 5696 H 565.325 3.98756 3.30476 0
M  V30 5697 H 562.002 1.47762 3.90478 0
M  V30 5698 H 563.392 5.51859 3.83276 0
M  V30 5699 N 566.112 -0.949982 1.2575 0
M  V30 5700 C 567.042 -2.06483 1.09028 0
M  V30 5701 C 568.023 -1.701 -0.00201532 0
M  V30 5702 O 569.208 -1.93469 0.168383 0
M  V30 5703 C 566.338 -3.39899 0.71316 0
M  V30 5704 C 565.292 -3.90309 1.75621 0
M  V30 5705 C 564.618 -5.20274 1.23365 0
M  V30 5706 C 565.918 -4.16169 3.15596 0
M  V30 5707 H 567.612 -2.20731 2.02283 0
M  V30 5708 H 565.158 -1.06066 0.973964 0
M  V30 5709 H 567.111 -4.17346 0.58309 0
M  V30 5710 H 565.835 -3.25602 -0.255091 0
M  V30 5711 H 564.494 -3.15035 1.8748 0
M  V30 5712 H 564.142 -5.02351 0.255491 0
M  V30 5713 H 563.842 -5.54971 1.93082 0
M  V30 5714 H 565.366 -6.00314 1.11607 0
M  V30 5715 H 566.78 -4.84259 3.06864 0
M  V30 5716 H 565.177 -4.62131 3.82825 0
M  V30 5717 H 566.247 -3.22273 3.6231 0
M  V30 5718 N 567.59 -1.07411 -1.15328 0
M  V30 5719 C 568.836 -0.808666 -1.86634 0
M  V30 5720 C 569.191 0.65816 -1.80793 0
M  V30 5721 O 568.484 1.47689 -1.22059 0
M  V30 5722 C 568.678 -1.25191 -3.34757 0
M  V30 5723 C 568.507 -2.76028 -3.55019 0
M  V30 5724 C 567.277 -3.43644 -3.70455 0
M  V30 5725 C 569.475 -3.74224 -3.5279 0
M  V30 5726 N 567.457 -4.83117 -3.78776 0
M  V30 5727 C 568.828 -4.9954 -3.67233 0
M  V30 5728 C 570.883 -3.67373 -3.36068 0
M  V30 5729 C 569.586 -6.18819 -3.66682 0
M  V30 5730 C 571.612 -4.86116 -3.36816 0
M  V30 5731 C 570.974 -6.10266 -3.51789 0
M  V30 5732 H 567.073 -0.348478 -0.700062 0
M  V30 5733 H 569.657 -1.37049 -1.38295 0
M  V30 5734 H 567.828 -0.717775 -3.8171 0
M  V30 5735 H 569.56 -0.933936 -3.93776 0
M  V30 5736 H 566.315 -2.94051 -3.71256 0
M  V30 5737 H 566.739 -5.55705 -3.86679 0
M  V30 5738 H 571.381 -2.72334 -3.2341 0
M  V30 5739 H 569.099 -7.14179 -3.78118 0
M  V30 5740 H 572.685 -4.82492 -3.25103 0
M  V30 5741 H 571.565 -7.00609 -3.52301 0
M  V30 5742 N 569.068 1.32177 -0.85831 0
M  V30 5743 C 570.308 1.98927 -0.469822 0
M  V30 5744 C 570.672 1.66423 0.95746 0
M  V30 5745 O 571.873 2.26293 1.45069 0
M  V30 5746 C 570.144 3.50352 -0.706288 0
M  V30 5747 S 571.703 4.36824 -0.415918 0
M  V30 5748 H 568.521 0.688909 -0.175855 0
M  V30 5749 H 571.123 1.60807 -1.11181 0
M  V30 5750 H 569.827 3.71497 -1.74407 0
M  V30 5751 H 569.358 3.93367 -0.0508568 0
M  V30 5752 H 571.373 4.90398 0.756581 0
M  V30 5753 N 570.547 0.616602 1.45037 0
M  V30 5754 C 571.772 0.120192 2.07051 0
M  V30 5755 C 572.197 -1.19008 1.45666 0
M  V30 5756 O 571.555 -1.7267 0.552692 0
M  V30 5757 C 571.603 0.00354901 3.606 0
M  V30 5758 O 570.707 -1.04431 3.98958 0
M  V30 5759 H 570.048 0.0781599 0.659384 0
M  V30 5760 H 572.578 0.849167 1.86146 0
M  V30 5761 H 572.588 -0.191754 4.07549 0
M  V30 5762 H 571.263 0.960239 4.04663 0
M  V30 5763 H 569.84 -0.824749 3.63665 0
M  V30 5764 N 572.025 -1.5352 0.356285 0
M  V30 5765 C 573.253 -2.05534 -0.237328 0
M  V30 5766 C 573.668 -1.23043 -1.43199 0
M  V30 5767 O 573.025 -0.268821 -1.80509 0
M  V30 5768 C 573.076 -3.55791 -0.639933 0
M  V30 5769 O 572.797 -4.35154 0.507233 0
M  V30 5770 C 574.298 -4.24027 -1.29292 0
M  V30 5771 H 571.518 -0.669585 -0.0435572 0
M  V30 5772 H 574.062 -1.97988 0.511963 0
M  V30 5773 H 572.217 -3.63518 -1.33915 0
M  V30 5774 H 572.631 -5.24178 0.18375 0
M  V30 5775 H 574.105 -5.30509 -1.52527 0
M  V30 5776 H 574.582 -3.77166 -2.25039 0
M  V30 5777 H 575.188 -4.20527 -0.63539 0
M  V30 5778 N 573.503 -0.0852151 -1.57369 0
M  V30 5779 C 574.731 0.58946 -1.98325 0
M  V30 5780 C 575.146 1.62333 -0.96403 0
M  V30 5781 O 574.503 1.82438 0.0476395 0
M  V30 5782 C 574.554 1.24604 -3.39347 0
M  V30 5783 O 574.275 0.253532 -4.37366 0
M  V30 5784 C 575.776 2.00726 -3.95252 0
M  V30 5785 H 572.996 0.158783 -0.651942 0
M  V30 5786 H 575.54 -0.161584 -2.03861 0
M  V30 5787 H 573.695 1.94808 -3.34856 0
M  V30 5788 H 574.109 0.726207 -5.19448 0
M  V30 5789 H 575.583 2.42039 -4.96106 0
M  V30 5790 H 576.06 2.86919 -3.32527 0
M  V30 5791 H 576.666 1.3536 -4.03185 0
M  V30 5792 N 574.981 1.5647 0.188427 0
M  V30 5793 C 576.206 1.85486 0.927891 0
M  V30 5794 C 576.631 0.669575 1.75779 0
M  V30 5795 O 575.989 -0.381573 1.77239 0
M  V30 5796 C 576.037 3.12784 1.7944 0
M  V30 5797 O 575.141 2.93805 2.894 0
M  V30 5798 H 574.482 0.610585 0.260925 0
M  V30 5799 H 577.012 2.037 0.191729 0
M  V30 5800 H 577.022 3.43749 2.19774 0
M  V30 5801 H 575.697 3.98671 1.18468 0
M  V30 5802 H 574.274 2.74153 2.52774 0
M  V30 5803 N 576.459 -0.456382 1.50847 0
M  V30 5804 C 577.407 -1.57318 1.71329 0
M  V30 5805 C 578.401 -1.59187 0.579287 0
M  V30 5806 O 579.607 -1.6316 0.76018 0
M  V30 5807 H 575.982 -0.5223 0.541024 0
M  V30 5808 H 577.953 -1.3721 2.64983 0
M  V30 5809 C 576.702 -2.95142 1.83811 0
M  V30 5810 H 576.025 -2.94428 2.70467 0
M  V30 5811 H 577.465 -3.72702 2.02161 0
M  V30 5812 C 575.924 -3.31636 0.593224 0
M  V30 5813 O 576.454 -4.00852 -0.260898 0
M  V30 5814 N 574.66 -2.87205 0.442902 0
M  V30 5815 H 574.207 -2.31051 1.13901 0
M  V30 5816 H 574.165 -3.11986 -0.38884 0
M  V30 5817 N 577.937 -1.40673 -0.710563 0
M  V30 5818 C 579.167 -1.4234 -1.49742 0
M  V30 5819 C 579.575 -0.022821 -1.89186 0
M  V30 5820 O 578.918 0.964773 -1.56326 0
M  V30 5821 C 578.98 -2.25509 -2.79975 0
M  V30 5822 C 578.644 -3.73862 -2.62824 0
M  V30 5823 C 579.641 -4.66379 -2.29752 0
M  V30 5824 C 577.326 -4.17735 -2.78932 0
M  V30 5825 C 579.32 -6.00756 -2.13006 0
M  V30 5826 C 577.007 -5.5218 -2.61802 0
M  V30 5827 C 578.005 -6.43505 -2.28888 0
M  V30 5828 O 577.693 -7.75472 -2.11894 0
M  V30 5829 H 577.425 -0.487311 -0.468513 0
M  V30 5830 H 579.979 -1.8542 -0.883668 0
M  V30 5831 H 578.209 -1.77218 -3.43701 0
M  V30 5832 H 579.898 -2.19058 -3.41714 0
M  V30 5833 H 580.664 -4.33778 -2.16936 0
M  V30 5834 H 576.543 -3.46967 -3.03537 0
M  V30 5835 H 580.087 -6.72003 -1.87237 0
M  V30 5836 H 575.984 -5.84365 -2.74204 0
M  V30 5837 H 576.752 -7.86458 -2.26775 0
M  V30 5838 N 579.415 0.9433 -1.26252 0
M  V30 5839 C 580.325 2.07532 -1.09397 0
M  V30 5840 C 581.341 1.73977 -0.0280449 0
M  V30 5841 O 582.517 2.00067 -0.231337 0
M  V30 5842 C 579.582 3.39002 -0.726523 0
M  V30 5843 C 578.643 3.86353 -1.87163 0
M  V30 5844 C 577.876 5.11549 -1.52162 0
M  V30 5845 O 578.099 5.68834 -0.422385 0
M  V30 5846 O 577.033 5.53889 -2.35565 0
M  V30 5847 H 580.859 2.24658 -2.04359 0
M  V30 5848 H 578.444 1.05988 -1.05295 0
M  V30 5849 H 580.326 4.18 -0.534236 0
M  V30 5850 H 579.001 3.2312 0.193721 0
M  V30 5851 H 577.908 3.0831 -2.11886 0
M  V30 5852 H 579.241 4.06752 -2.77152 0
M  V30 5853 N 580.893 1.08022 1.14757 0
M  V30 5854 C 581.825 0.664566 2.19354 0
M  V30 5855 C 582.838 -0.286374 1.60261 0
M  V30 5856 O 584.027 -0.0746362 1.78344 0
M  V30 5857 C 581.127 -0.0434634 3.38872 0
M  V30 5858 C 580.3 0.925381 4.27499 0
M  V30 5859 C 579.359 0.253398 5.2559 0
M  V30 5860 O 578.385 0.896581 5.62094 0
M  V30 5861 N 579.587 -0.998263 5.71852 0
M  V30 5862 H 582.352 1.56438 2.55631 0
M  V30 5863 H 579.913 0.965788 1.29939 0
M  V30 5864 H 581.905 -0.503857 4.01551 0
M  V30 5865 H 580.475 -0.845321 3.00954 0
M  V30 5866 H 579.695 1.56472 3.61815 0
M  V30 5867 H 580.983 1.58203 4.8358 0
M  V30 5868 H 580.381 -1.54063 5.44317 0
M  V30 5869 H 578.938 -1.40222 6.36538 0
M  V30 5870 N 582.371 -1.3172 0.865308 0
M  V30 5871 C 583.648 -1.91574 0.394789 0
M  V30 5872 C 584.028 -1.78769 -1.12271 0
M  V30 5873 O 583.376 -1.19245 -1.94918 0
M  V30 5874 C 583.586 -3.37957 0.870982 0
M  V30 5875 C 584.934 -4.15073 0.894384 0
M  V30 5876 O 585.958 -3.4672 0.816325 0
M  V30 5877 O 584.817 -5.37151 1.00651 0
M  V30 5878 H 581.911 -0.818649 0.117229 0
M  V30 5879 H 584.457 -1.4042 0.952913 0
M  V30 5880 H 583.229 -3.41269 1.91444 0
M  V30 5881 H 582.852 -3.96534 0.290907 0
M  V30 5882 N 583.85 -0.624285 -1.44708 0
M  V30 5883 C 584.782 0.12305 -2.28869 0
M  V30 5884 C 585.795 0.81557 -1.40898 0
M  V30 5885 O 586.984 0.678162 -1.65116 0
M  V30 5886 C 584.084 1.19612 -3.1709 0
M  V30 5887 C 583.257 0.587452 -4.33437 0
M  V30 5888 C 582.316 1.55358 -5.02743 0
M  V30 5889 O 581.341 1.07338 -5.58988 0
M  V30 5890 N 582.543 2.88798 -5.03563 0
M  V30 5891 H 585.308 -0.599193 -2.93649 0
M  V30 5892 H 582.87 -0.464954 -1.5508 0
M  V30 5893 H 584.861 1.84261 -3.60319 0
M  V30 5894 H 583.432 1.82067 -2.54107 0
M  V30 5895 H 582.652 -0.237509 -3.93484 0
M  V30 5896 H 583.94 0.161326 -5.08544 0
M  V30 5897 H 583.338 3.30399 -4.59188 0
M  V30 5898 H 581.894 3.48826 -5.50603 0
M  V30 5899 N 585.328 1.53329 -0.364422 0
M  V30 5900 C 586.275 2.25698 0.482607 0
M  V30 5901 C 587.245 1.26325 1.07848 0
M  V30 5902 O 588.43 1.55104 1.11119 0
M  V30 5903 C 585.57 3.04873 1.61699 0
M  V30 5904 C 584.683 4.19135 1.0464 0
M  V30 5905 C 583.818 4.85754 2.14979 0
M  V30 5906 C 582.857 5.9205 1.5538 0
M  V30 5907 N 581.994 6.52365 2.59547 0
M  V30 5908 H 586.834 2.97666 -0.141032 0
M  V30 5909 H 584.371 1.46875 -0.0813692 0
M  V30 5910 H 586.329 3.49051 2.28516 0
M  V30 5911 H 584.959 2.35162 2.2113 0
M  V30 5912 H 584.011 3.79451 0.268553 0
M  V30 5913 H 585.323 4.95525 0.570653 0
M  V30 5914 H 584.477 5.3311 2.89619 0
M  V30 5915 H 583.216 4.08834 2.65906 0
M  V30 5916 H 582.221 5.44058 0.792549 0
M  V30 5917 H 583.446 6.7089 1.0528 0
M  V30 5918 H 581.392 5.78298 3.09689 0
M  V30 5919 H 581.309 7.2429 2.16655 0
M  V30 5920 H 582.577 7.0437 3.33892 0
M  V30 5921 N 586.806 0.0935595 1.57322 0
M  V30 5922 C 588.036 -0.578095 1.98347 0
M  V30 5923 C 588.444 -1.62357 0.971441 0
M  V30 5924 O 587.787 -1.83639 -0.0473959 0
M  V30 5925 C 587.849 -1.28525 3.3574 0
M  V30 5926 C 587.513 -0.390714 4.55327 0
M  V30 5927 C 588.51 0.360522 5.18648 0
M  V30 5928 C 586.195 -0.309221 5.01347 0
M  V30 5929 C 588.189 1.18125 6.26359 0
M  V30 5930 C 585.876 0.515157 6.08925 0
M  V30 5931 C 586.874 1.25904 6.71295 0
M  V30 5932 O 586.562 2.06978 7.76798 0
M  V30 5933 H 586.294 -0.159767 0.656849 0
M  V30 5934 H 588.848 0.169058 2.04703 0
M  V30 5935 H 587.078 -2.07894 3.26063 0
M  V30 5936 H 588.767 -1.85128 3.61223 0
M  V30 5937 H 589.533 0.307285 4.84026 0
M  V30 5938 H 585.412 -0.877881 4.52564 0
M  V30 5939 H 588.956 1.76236 6.74971 0
M  V30 5940 H 584.853 0.56988 6.42979 0
M  V30 5941 H 585.621 1.99644 7.93779 0
M  V30 5942 N 588.284 -1.56567 -0.180126 0
M  V30 5943 C 589.509 -1.85975 -0.918041 0
M  V30 5944 C 589.934 -0.678888 -1.75422 0
M  V30 5945 O 589.292 0.372168 -1.77439 0
M  V30 5946 C 589.34 -3.13731 -1.77779 0
M  V30 5947 O 588.444 -2.95335 -2.87838 0
M  V30 5948 H 587.785 -0.61196 -0.257683 0
M  V30 5949 H 590.315 -2.03798 -0.180923 0
M  V30 5950 H 590.325 -3.4491 -2.17948 0
M  V30 5951 H 589 -3.99293 -1.16352 0
M  V30 5952 H 587.577 -2.7549 -2.51316 0
M  V30 5953 N 589.762 0.448376 -1.51087 0
M  V30 5954 C 591.009 1.19872 -1.63209 0
M  V30 5955 C 591.337 1.91451 -0.343062 0
M  V30 5956 O 590.592 1.83789 0.672321 0
M  V30 5957 C 590.891 2.24866 -2.77795 0
M  V30 5958 C 590.557 1.70378 -4.17471 0
M  V30 5959 C 589.219 1.55241 -4.55471 0
M  V30 5960 C 591.571 1.30203 -5.04675 0
M  V30 5961 C 588.899 0.983844 -5.78392 0
M  V30 5962 C 591.251 0.747798 -6.28165 0
M  V30 5963 C 589.915 0.583233 -6.64947 0
M  V30 5964 H 589.185 0.438642 -0.597222 0
M  V30 5965 H 591.832 0.49136 -1.85089 0
M  V30 5966 H 590.137 3.01598 -2.50092 0
M  V30 5967 H 591.834 2.82723 -2.84374 0
M  V30 5968 H 588.424 1.83134 -3.87505 0
M  V30 5969 H 592.608 1.40723 -4.75932 0
M  V30 5970 H 587.864 0.844007 -6.05546 0
M  V30 5971 H 592.038 0.427927 -6.95084 0
M  V30 5972 H 589.665 0.140532 -7.6007 0
M  V30 5973 N 591.24 1.41047 0.703093 0
M  V30 5974 C 592.48 1.41461 1.4754 0
M  V30 5975 C 592.844 0.0199013 1.9199 0
M  V30 5976 O 594.045 -0.101138 2.6861 0
M  V30 5977 C 592.316 2.38703 2.66 0
M  V30 5978 S 593.875 2.57582 3.55242 0
M  V30 5979 H 590.693 0.501226 0.504275 0
M  V30 5980 H 593.295 1.77422 0.821074 0
M  V30 5981 H 591.999 3.3885 2.31536 0
M  V30 5982 H 591.53 2.04069 3.36333 0
M  V30 5983 H 593.545 1.83758 4.6092 0
M  V30 5984 N 592.718 -0.936591 1.26751 0
M  V30 5985 C 593.946 -1.71758 1.15355 0
M  V30 5986 C 594.361 -1.86549 -0.290683 0
M  V30 5987 O 593.718 -1.37616 -1.19868 0
M  V30 5988 C 593.769 -3.12193 1.82258 0
M  V30 5989 O 593.49 -2.98105 3.21038 0
M  V30 5990 C 594.991 -4.06485 1.76875 0
M  V30 5991 H 592.211 -0.537636 0.401483 0
M  V30 5992 H 594.755 -1.17382 1.67457 0
M  V30 5993 H 592.91 -3.63456 1.34083 0
M  V30 5994 H 593.324 -3.86824 3.54214 0
M  V30 5995 H 594.798 -5.02569 2.28316 0
M  V30 5996 H 595.275 -4.32986 0.736216 0
M  V30 5997 H 595.881 -3.61144 2.24623 0
M  V30 5998 N 594.196 -1.08629 -1.14182 0
M  V30 5999 C 595.473 -0.73002 -1.81466 0
M  V30 6000 C 595.853 0.785996 -1.95922 0
M  V30 6001 O 595.201 1.70535 -1.52086 0
M  V30 6002 C 595.411 -1.45957 -3.17014 0
M  V30 6003 C 596.759 -1.62008 -3.92477 0
M  V30 6004 O 597.783 -1.42141 -3.26611 0
M  V30 6005 O 596.642 -1.94806 -5.106 0
M  V30 6006 H 593.736 -0.261307 -0.784632 0
M  V30 6007 H 596.282 -1.188 -1.2118 0
M  V30 6008 H 595.054 -2.49221 -3.01669 0
M  V30 6009 H 594.677 -0.993222 -3.84995 0
M  V30 6010 N 595.674 1.31259 -0.872281 0
M  V30 6011 C 596.624 2.26 -0.301295 0
M  V30 6012 C 597.608 1.50729 0.562991 0
M  V30 6013 O 598.8 1.72198 0.40949 0
M  V30 6014 C 595.929 3.39724 0.494227 0
M  V30 6015 C 595.015 4.22363 -0.383432 0
M  V30 6016 N 595.406 4.83724 -1.47799 0
M  V30 6017 C 593.704 4.45652 -0.176278 0
M  V30 6018 C 594.405 5.45523 -2.01939 0
M  V30 6019 N 593.381 5.27428 -1.31608 0
M  V30 6020 H 597.183 2.70981 -1.13782 0
M  V30 6021 H 594.697 1.45552 -0.720294 0
M  V30 6022 H 596.694 4.06626 0.919828 0
M  V30 6023 H 595.354 2.96286 1.32834 0
M  V30 6024 H 596.365 4.83313 -1.8609 0
M  V30 6025 H 593.042 4.12845 0.621698 0
M  V30 6026 H 594.432 6.04268 -2.93786 0
M  V30 6027 N 597.152 0.631951 1.44375 0
M  V30 6028 C 598.38 0.143867 2.06399 0
M  V30 6029 C 598.795 -1.18188 1.47231 0
M  V30 6030 O 598.152 -1.72511 0.595498 0
M  V30 6031 C 598.203 0.0238253 3.61492 0
M  V30 6032 O 597.924 1.29715 4.18456 0
M  V30 6033 C 599.425 -0.492856 4.40552 0
M  V30 6034 H 596.645 0.0800542 0.666207 0
M  V30 6035 H 599.189 0.866586 1.85231 0
M  V30 6036 H 597.344 -0.649338 3.81919 0
M  V30 6037 H 597.758 1.14252 5.11905 0
M  V30 6038 H 599.232 -0.525861 5.49489 0
M  V30 6039 H 599.709 -1.52006 4.12057 0
M  V30 6040 H 600.315 0.147085 4.25046 0
M  V30 6041 N 598.631 -1.53133 0.372548 0
M  V30 6042 C 599.877 -2.01654 -0.215277 0
M  V30 6043 C 600.21 -1.25914 -1.47849 0
M  V30 6044 O 599.485 -0.3548 -1.91237 0
M  V30 6045 C 599.768 -3.56609 -0.500187 0
M  V30 6046 C 599.621 -4.43036 0.777145 0
M  V30 6047 C 600.94 -4.20528 -1.29786 0
M  V30 6048 H 598.059 -0.732991 -0.0767686 0
M  V30 6049 H 600.701 -1.83335 0.498814 0
M  V30 6050 H 598.851 -3.7235 -1.10852 0
M  V30 6051 H 600.523 -4.39079 1.41447 0
M  V30 6052 H 598.766 -4.10723 1.39604 0
M  V30 6053 H 599.437 -5.49424 0.532662 0
M  V30 6054 H 601.913 -4.08663 -0.783198 0
M  V30 6055 H 600.789 -5.28962 -1.46596 0
M  V30 6056 H 601.05 -3.77051 -2.30836 0
M  V30 6057 N 600.109 -0.101901 -1.5727 0
M  V30 6058 C 601.039 0.851544 -2.17419 0
M  V30 6059 C 602.02 1.28942 -1.10941 0
M  V30 6060 O 603.205 1.35509 -1.39107 0
M  V30 6061 C 600.335 2.10816 -2.75996 0
M  V30 6062 C 599.289 1.80867 -3.87906 0
M  V30 6063 C 598.615 3.13413 -4.33216 0
M  V30 6064 C 599.915 1.0903 -5.10793 0
M  V30 6065 H 601.609 0.350381 -2.97343 0
M  V30 6066 H 599.155 0.16709 -1.43027 0
M  V30 6067 H 601.108 2.77959 -3.16729 0
M  V30 6068 H 599.832 2.63227 -1.93337 0
M  V30 6069 H 598.491 1.16119 -3.47724 0
M  V30 6070 H 598.139 3.63725 -3.47438 0
M  V30 6071 H 597.839 2.94155 -5.08671 0
M  V30 6072 H 599.363 3.81704 -4.76586 0
M  V30 6073 H 600.777 1.66295 -5.48652 0
M  V30 6074 H 599.174 0.99927 -5.91722 0
M  V30 6075 H 600.244 0.0741704 -4.84843 0
M  V30 6076 N 601.587 1.56661 0.17182 0
M  V30 6077 C 602.833 1.82235 0.889845 0
M  V30 6078 C 603.166 0.679673 1.81918 0
M  V30 6079 O 602.441 -0.318404 1.91876 0
M  V30 6080 C 602.724 3.18195 1.68595 0
M  V30 6081 C 602.577 4.42989 0.779773 0
M  V30 6082 C 603.896 3.5109 2.65375 0
M  V30 6083 H 601.015 0.66291 0.322056 0
M  V30 6084 H 603.657 1.89358 0.15608 0
M  V30 6085 H 601.807 3.12253 2.3115 0
M  V30 6086 H 603.479 4.60997 0.16714 0
M  V30 6087 H 601.722 4.33711 0.0877964 0
M  V30 6088 H 602.393 5.3467 1.3723 0
M  V30 6089 H 604.869 3.57482 2.12946 0
M  V30 6090 H 603.745 4.47298 3.18144 0
M  V30 6091 H 604.006 2.75768 3.45549 0
M  V30 6092 N 603.065 -0.440357 1.51323 0
M  V30 6093 C 603.997 -1.55254 1.68609 0
M  V30 6094 C 605.01 -1.52614 0.566812 0
M  V30 6095 O 606.199 -1.57445 0.841032 0
M  V30 6096 C 603.299 -2.94169 1.68279 0
M  V30 6097 C 602.472 -3.21346 2.96742 0
M  V30 6098 C 601.531 -4.3997 2.8864 0
M  V30 6099 O 600.557 -4.38771 3.62586 0
M  V30 6100 N 601.759 -5.43367 2.04285 0
M  V30 6101 H 604.524 -1.40831 2.6455 0
M  V30 6102 H 602.085 -0.629251 1.49171 0
M  V30 6103 H 604.077 -3.71543 1.60431 0
M  V30 6104 H 602.647 -3.02205 0.799441 0
M  V30 6105 H 601.867 -2.32299 3.18482 0
M  V30 6106 H 603.155 -3.3633 3.81785 0
M  V30 6107 H 602.553 -5.47176 1.43578 0
M  V30 6108 H 601.11 -6.19605 2.02318 0
M  V30 6109 N 604.543 -1.41418 -0.695603 0
M  V30 6110 C 605.771 -1.4413 -1.48439 0
M  V30 6111 C 606.186 -0.0465698 -1.88743 0
M  V30 6112 O 605.543 0.934117 -1.56782 0
M  V30 6113 C 605.594 -2.34998 -2.74696 0
M  V30 6114 O 605.315 -3.69043 -2.36091 0
M  V30 6115 C 606.816 -2.46513 -3.68438 0
M  V30 6116 H 604.036 -0.490905 -0.457442 0
M  V30 6117 H 606.58 -1.85702 -0.856454 0
M  V30 6118 H 604.735 -1.96735 -3.33728 0
M  V30 6119 H 605.149 -4.17505 -3.17474 0
M  V30 6120 H 606.623 -3.1426 -4.53811 0
M  V30 6121 H 607.1 -1.49638 -4.12922 0
M  V30 6122 H 607.706 -2.85412 -3.1531 0
M  V30 6123 N 606.021 0.929856 -1.27246 0
M  V30 6124 C 607.437 1.20542 -1.04603 0
M  V30 6125 C 607.637 2.00276 0.221754 0
M  V30 6126 O 606.693 2.34835 0.927833 0
M  V30 6127 C 608.006 1.95566 -2.28417 0
M  V30 6128 C 609.554 2.08513 -2.33433 0
M  V30 6129 C 610.029 2.86943 -3.5697 0
M  V30 6130 N 611.52 2.94512 -3.57515 0
M  V30 6131 C 612.255 3.55656 -4.49774 0
M  V30 6132 N 611.751 4.18209 -5.52334 0
M  V30 6133 N 613.544 3.53038 -4.37402 0
M  V30 6134 H 605.695 0.397113 -2.08655 0
M  V30 6135 H 607.958 0.238277 -0.917566 0
M  V30 6136 H 607.664 1.44395 -3.20691 0
M  V30 6137 H 607.538 2.9619 -2.33563 0
M  V30 6138 H 609.925 2.58872 -1.41666 0
M  V30 6139 H 610.006 1.07117 -2.32292 0
M  V30 6140 H 609.65 2.37268 -4.49072 0
M  V30 6141 H 609.58 3.8862 -3.55362 0
M  V30 6142 H 612.071 2.50053 -2.83341 0
M  V30 6143 H 612.384 4.62796 -6.18902 0
M  V30 6144 H 610.729 4.16761 -5.56179 0
M  V30 6145 H 613.92 3.0337 -3.56489 0
M  V30 6146 H 614.093 4.004 -5.09493 0
M  V30 6147 N 607.499 1.09233 1.13605 0
M  V30 6148 C 608.747 0.825525 1.84471 0
M  V30 6149 C 609.068 -0.650702 1.83823 0
M  V30 6150 O 608.338 -1.47204 1.29259 0
M  V30 6151 H 606.918 0.3024 0.683054 0
M  V30 6152 H 609.58 1.38006 1.37624 0
M  V30 6153 H 608.676 1.17727 2.89045 0
M  V30 6154 N 608.977 -1.30795 0.87923 0
M  V30 6155 C 610.225 -1.95974 0.493809 0
M  V30 6156 C 610.546 -1.69787 -0.959021 0
M  V30 6157 O 609.816 -1.01832 -1.67353 0
M  V30 6158 H 608.396 -0.725083 0.179622 0
M  V30 6159 H 611.058 -1.59432 1.12105 0
M  V30 6160 H 610.154 -3.05058 0.659263 0
M  V30 6161 N 610.455 -0.639598 -1.44038 0
M  V30 6162 C 611.403 0.0723409 -2.32487 0
M  V30 6163 C 612.397 0.827129 -1.47834 0
M  V30 6164 O 613.603 0.73907 -1.64127 0
M  V30 6165 H 609.978 0.0421696 -0.750817 0
M  V30 6166 H 611.949 -0.691593 -2.90275 0
M  V30 6167 C 610.698 1.03452 -3.31953 0
M  V30 6168 H 610.021 0.46315 -3.97108 0
M  V30 6169 H 611.461 1.502 -3.96505 0
M  V30 6170 C 609.92 2.12392 -2.61518 0
M  V30 6171 O 610.45 3.2059 -2.42044 0
M  V30 6172 N 608.656 1.88563 -2.21116 0
M  V30 6173 H 608.203 1.00577 -2.37154 0
M  V30 6174 H 608.161 2.61651 -1.74316 0
M  V30 6175 N 611.933 1.52934 -0.380664 0
M  V30 6176 C 613.158 2.06363 0.207157 0
M  V30 6177 C 613.583 1.25122 1.4045 0
M  V30 6178 O 612.941 0.274062 1.79217 0
M  V30 6179 C 612.989 3.56162 0.563996 0
M  V30 6180 O 612.093 3.77552 1.65917 0
M  V30 6181 H 611.434 0.663468 0.0265859 0
M  V30 6182 H 613.964 1.9719 -0.545635 0
M  V30 6183 H 613.974 3.99453 0.830752 0
M  V30 6184 H 612.649 4.14732 -0.311427 0
M  V30 6185 H 611.226 3.46154 1.3868 0
M  V30 6186 N 613.412 0.11024 1.57214 0
M  V30 6187 C 614.36 -0.860586 2.16094 0
M  V30 6188 C 615.354 -1.28156 1.1078 0
M  V30 6189 O 616.56 -1.25433 1.29099 0
M  V30 6190 H 612.935 -0.295606 0.691463 0
M  V30 6191 H 614.906 -0.33942 2.96463 0
M  V30 6192 C 613.655 -2.10421 2.768 0
M  V30 6193 H 612.978 -1.7892 3.5753 0
M  V30 6194 H 614.418 -2.76375 3.21547 0
M  V30 6195 C 612.877 -2.88823 1.73444 0
M  V30 6196 O 613.407 -3.839 1.18251 0
M  V30 6197 N 611.613 -2.52649 1.43586 0
M  V30 6198 H 611.16 -1.754 1.8866 0
M  V30 6199 H 611.118 -3.05403 0.746735 0
M  V30 6200 N 614.89 -1.56749 -0.16351 0
M  V30 6201 C 616.138 -1.82074 -0.87713 0
M  V30 6202 C 616.459 -0.688503 -1.82441 0
M  V30 6203 O 615.729 0.291085 -1.93725 0
M  V30 6204 H 614.309 -0.671677 -0.326893 0
M  V30 6205 H 616.971 -1.9423 -0.161459 0
M  V30 6206 H 616.067 -2.76407 -1.44934 0
M  V30 6207 N 616.368 0.432326 -1.51554 0
M  V30 6208 C 617.331 1.50765 -1.72634 0
M  V30 6209 C 618.331 1.49334 -0.596314 0
M  V30 6210 O 619.521 1.51268 -0.863925 0
M  V30 6211 C 616.653 2.90284 -1.7874 0
M  V30 6212 H 617.846 1.33377 -2.68609 0
M  V30 6213 H 615.399 0.661329 -1.4162 0
M  V30 6214 H 616.134 3.13071 -0.845977 0
M  V30 6215 H 615.919 2.92727 -2.6087 0
M  V30 6216 H 617.409 3.68282 -1.96871 0
M  V30 6217 N 617.846 1.41785 0.688094 0
M  V30 6218 C 618.776 1.47 1.8142 0
M  V30 6219 C 619.757 0.327881 1.6691 0
M  V30 6220 O 620.942 0.540362 1.86531 0
M  V30 6221 C 618.072 1.35876 3.19617 0
M  V30 6222 C 617.026 2.47976 3.48844 0
M  V30 6223 C 616.352 2.21915 4.86475 0
M  V30 6224 C 617.652 3.90309 3.47068 0
M  V30 6225 H 619.346 2.41247 1.77314 0
M  V30 6226 H 616.892 1.16116 0.851651 0
M  V30 6227 H 618.845 1.38134 3.98117 0
M  V30 6228 H 617.569 0.38116 3.24368 0
M  V30 6229 H 616.228 2.45013 2.72698 0
M  V30 6230 H 615.876 1.2248 4.8786 0
M  V30 6231 H 615.576 2.97037 5.06994 0
M  V30 6232 H 617.1 2.25901 5.67275 0
M  V30 6233 H 618.514 3.94947 4.1556 0
M  V30 6234 H 616.911 4.65175 3.7912 0
M  V30 6235 H 617.981 4.17927 2.45896 0
M  V30 6236 N 619.324 -0.923095 1.27737 0
M  V30 6237 C 620.564 -1.6858 1.15586 0
M  V30 6238 C 620.928 -1.89758 -0.292562 0
M  V30 6239 O 622.129 -2.6339 -0.536583 0
M  V30 6240 C 620.4 -3.01275 1.92271 0
M  V30 6241 S 621.959 -3.924 1.96387 0
M  V30 6242 H 618.777 -0.579069 0.412554 0
M  V30 6243 H 621.379 -1.09866 1.61709 0
M  V30 6244 H 620.083 -2.83556 2.96689 0
M  V30 6245 H 619.614 -3.6504 1.46661 0
M  V30 6246 H 621.629 -4.84667 1.06361 0
M  V30 6247 N 620.802 -1.09834 -1.13024 0
M  V30 6248 C 621.752 -0.710899 -2.16634 0
M  V30 6249 C 622.736 0.276836 -1.58501 0
M  V30 6250 O 623.928 0.0865457 -1.76788 0
M  V30 6251 C 621.057 -0.137574 -3.43024 0
M  V30 6252 C 620.143 -1.15198 -4.08155 0
M  V30 6253 N 620.534 -2.34054 -4.48388 0
M  V30 6254 C 618.832 -0.991074 -4.34849 0
M  V30 6255 C 619.533 -2.98616 -4.99203 0
M  V30 6256 N 618.509 -2.26159 -4.94321 0
M  V30 6257 H 622.311 -1.61576 -2.455 0
M  V30 6258 H 619.825 -0.975158 -1.29863 0
M  V30 6259 H 621.822 0.158031 -4.166 0
M  V30 6260 H 620.482 0.762088 -3.1563 0
M  V30 6261 H 621.493 -2.7162 -4.40957 0
M  V30 6262 H 618.17 -0.146448 -4.17243 0
M  V30 6263 H 619.56 -3.99683 -5.40096 0
M  V30 6264 N 622.28 1.30327 -0.886154 0
M  V30 6265 C 623.527 1.96097 -0.505192 0
M  V30 6266 C 623.855 1.69952 0.945868 0
M  V30 6267 O 623.11 0.997653 1.68361 0
M  V30 6268 C 623.409 3.49906 -0.728042 0
M  V30 6269 C 623.075 3.96103 -2.15437 0
M  V30 6270 C 621.737 4.08428 -2.5444 0
M  V30 6271 C 624.089 4.20177 -3.08384 0
M  V30 6272 C 621.417 4.42189 -3.85598 0
M  V30 6273 C 623.769 4.55407 -4.39075 0
M  V30 6274 C 622.433 4.65941 -4.7797 0
M  V30 6275 H 621.703 0.71757 -0.184863 0
M  V30 6276 H 624.35 1.55171 -1.12223 0
M  V30 6277 H 622.655 3.9179 -0.027978 0
M  V30 6278 H 624.352 3.98869 -0.412862 0
M  V30 6279 H 620.942 3.87017 -1.84162 0
M  V30 6280 H 625.126 4.10134 -2.7947 0
M  V30 6281 H 620.382 4.48544 -4.15473 0
M  V30 6282 H 624.556 4.72986 -5.11133 0
M  V30 6283 H 622.183 4.91856 -5.79639 0
M  V30 6284 N 623.758 0.647228 1.43697 0
M  V30 6285 C 625.169 0.238689 1.85168 0
M  V30 6286 C 625.52 -1.21345 1.54175 0
M  V30 6287 O 624.645 -1.92542 0.987743 0
M  V30 6288 C 625.24 0.426422 3.36106 0
M  V30 6289 C 623.799 0.0722541 3.76331 0
M  V30 6290 C 622.946 0.732153 2.6746 0
M  V30 6291 H 625.897 0.851309 1.33934 0
M  V30 6292 H 625.918 -0.32987 3.79067 0
M  V30 6293 H 625.43 1.48339 3.58632 0
M  V30 6294 H 623.531 -0.982355 3.59417 0
M  V30 6295 H 623.644 0.493541 4.76551 0
M  V30 6296 H 622.008 0.16594 2.54159 0
M  V30 6297 H 622.791 1.79204 2.92816 0
M  V30 6298 N 625.236 -1.5273 0.388769 0
M  V30 6299 C 626.483 -2.01573 -0.19359 0
M  V30 6300 C 626.811 -1.27525 -1.46859 0
M  V30 6301 O 626.066 -0.363926 -1.92286 0
M  V30 6302 C 626.365 -3.53765 -0.508445 0
M  V30 6303 C 626.031 -4.4582 0.674947 0
M  V30 6304 C 624.693 -4.70703 0.999596 0
M  V30 6305 C 627.045 -5.00138 1.46666 0
M  V30 6306 C 624.373 -5.47155 2.11751 0
M  V30 6307 C 626.725 -5.77812 2.57518 0
M  V30 6308 C 625.389 -6.00975 2.90492 0
M  V30 6309 H 624.659 -0.737606 -0.0708397 0
M  V30 6310 H 627.306 -1.84134 0.526006 0
M  V30 6311 H 625.611 -3.69274 -1.30936 0
M  V30 6312 H 627.308 -3.8905 -0.971664 0
M  V30 6313 H 623.898 -4.26616 0.411906 0
M  V30 6314 H 628.082 -4.8084 1.22909 0
M  V30 6315 H 623.338 -5.63314 2.3767 0
M  V30 6316 H 627.512 -6.18904 3.19267 0
M  V30 6317 H 625.139 -6.59998 3.77236 0
M  V30 6318 N 626.714 -0.118576 -1.57153 0
M  V30 6319 C 627.644 0.828436 -2.1831 0
M  V30 6320 C 628.625 1.27758 -1.12303 0
M  V30 6321 O 629.81 1.34026 -1.40537 0
M  V30 6322 C 626.94 2.07876 -2.78217 0
M  V30 6323 C 625.894 1.76742 -3.89803 0
M  V30 6324 C 625.22 3.08801 -4.36516 0
M  V30 6325 C 626.52 1.03606 -5.11921 0
M  V30 6326 H 628.214 0.318824 -2.97698 0
M  V30 6327 H 625.76 0.151911 -1.43196 0
M  V30 6328 H 627.713 2.74584 -3.19659 0
M  V30 6329 H 626.437 2.61161 -1.96118 0
M  V30 6330 H 625.096 1.12424 -3.48936 0
M  V30 6331 H 624.744 3.6002 -3.51276 0
M  V30 6332 H 624.444 2.88743 -5.11763 0
M  V30 6333 H 625.968 3.76627 -4.80608 0
M  V30 6334 H 627.382 1.60467 -5.50385 0
M  V30 6335 H 625.779 0.936454 -5.92748 0
M  V30 6336 H 626.849 0.0227421 -4.84895 0
M  V30 6337 N 628.193 1.56834 0.155195 0
M  V30 6338 C 629.423 1.86778 0.883044 0
M  V30 6339 C 629.831 0.703824 1.75622 0
M  V30 6340 O 629.174 -0.33581 1.80605 0
M  V30 6341 C 629.236 3.1133 1.79761 0
M  V30 6342 C 628.9 4.43504 1.10242 0
M  V30 6343 C 629.897 5.17859 0.460204 0
M  V30 6344 C 627.582 4.90233 1.09437 0
M  V30 6345 C 629.576 6.37144 -0.180782 0
M  V30 6346 C 627.263 6.09444 0.449569 0
M  V30 6347 C 628.261 6.82744 -0.186888 0
M  V30 6348 O 627.949 7.99692 -0.821486 0
M  V30 6349 H 627.681 0.62352 0.261149 0
M  V30 6350 H 630.235 2.04813 0.155204 0
M  V30 6351 H 628.465 2.89282 2.56618 0
M  V30 6352 H 630.154 3.27587 2.39669 0
M  V30 6353 H 630.92 4.8283 0.458289 0
M  V30 6354 H 626.799 4.33109 1.57917 0
M  V30 6355 H 630.343 6.94296 -0.678154 0
M  V30 6356 H 626.24 6.43936 0.449123 0
M  V30 6357 H 627.008 8.15306 -0.722337 0
M  V30 6358 N 629.671 -0.424282 1.51781 0
M  V30 6359 C 630.619 -1.53649 1.74628 0
M  V30 6360 C 631.613 -1.57923 0.612922 0
M  V30 6361 O 632.819 -1.61511 0.794618 0
M  V30 6362 H 629.194 -0.510706 0.551981 0
M  V30 6363 H 631.165 -1.31558 2.67834 0
M  V30 6364 C 629.914 -2.91177 1.9003 0
M  V30 6365 H 629.237 -2.88625 2.76651 0
M  V30 6366 H 630.677 -3.6833 2.10021 0
M  V30 6367 C 629.136 -3.30303 0.663435 0
M  V30 6368 O 629.666 -4.01315 -0.175812 0
M  V30 6369 N 627.872 -2.86201 0.503723 0
M  V30 6370 H 627.419 -2.28583 1.18776 0
M  V30 6371 H 627.377 -3.12741 -0.322575 0
M  V30 6372 N 631.149 -1.42148 -0.680565 0
M  V30 6373 C 632.097 -1.45401 -1.81552 0
M  V30 6374 C 633.091 -0.33036 -1.66147 0
M  V30 6375 O 634.297 -0.503103 -1.72826 0
M  V30 6376 H 630.672 -0.455265 -0.59853 0
M  V30 6377 H 632.643 -2.41024 -1.75926 0
M  V30 6378 C 631.392 -1.36769 -3.19671 0
M  V30 6379 H 630.715 -2.22525 -3.32149 0
M  V30 6380 H 632.155 -1.43106 -3.9912 0
M  V30 6381 C 630.614 -0.0817752 -3.36801 0
M  V30 6382 O 631.144 0.867707 -3.92216 0
M  V30 6383 N 629.35 -0.000799811 -2.906 0
M  V30 6384 H 628.897 -0.774231 -2.4569 0
M  V30 6385 H 628.855 0.858961 -3.02439 0
M  V30 6386 N 632.627 0.916307 -1.28225 0
M  V30 6387 C 633.577 2.00488 -1.08574 0
M  V30 6388 C 634.561 1.60897 -0.0101874 0
M  V30 6389 O 635.753 1.75499 -0.230034 0
M  V30 6390 C 632.882 3.35076 -0.746943 0
M  V30 6391 C 631.968 3.81077 -1.86121 0
M  V30 6392 N 632.359 3.99475 -3.10247 0
M  V30 6393 C 630.657 4.10212 -1.75048 0
M  V30 6394 C 631.358 4.37965 -3.82834 0
M  V30 6395 N 630.334 4.4608 -3.10667 0
M  V30 6396 H 634.136 2.1276 -2.02757 0
M  V30 6397 H 631.65 1.10397 -1.19107 0
M  V30 6398 H 633.647 4.12743 -0.587252 0
M  V30 6399 H 632.307 3.2416 0.187146 0
M  V30 6400 H 633.318 3.85466 -3.45885 0
M  V30 6401 H 629.995 4.07947 -0.887999 0
M  V30 6402 H 631.385 4.60183 -4.89572 0
M  V30 6403 N 634.105 1.10431 1.1244 0
M  V30 6404 C 635.053 0.747974 2.20246 0
M  V30 6405 C 636.047 -0.255848 1.67457 0
M  V30 6406 O 637.253 -0.116221 1.79624 0
M  V30 6407 H 633.628 0.223946 0.71788 0
M  V30 6408 H 635.599 1.6661 2.47556 0
M  V30 6409 C 634.348 0.195957 3.47147 0
M  V30 6410 H 633.671 0.959606 3.88113 0
M  V30 6411 H 635.111 -0.0153154 4.23997 0
M  V30 6412 C 633.57 -1.07132 3.19413 0
M  V30 6413 O 634.1 -2.15284 3.3914 0
M  V30 6414 N 632.306 -0.98994 2.73219 0
M  V30 6415 H 631.853 -0.109736 2.57366 0
M  V30 6416 H 631.811 -1.83856 2.55038 0
M  V30 6417 N 635.583 -1.29855 0.893053 0
M  V30 6418 C 636.813 -1.99686 0.530019 0
M  V30 6419 C 637.221 -1.67066 -0.888012 0
M  V30 6420 O 636.564 -0.908366 -1.5967 0
M  V30 6421 C 636.626 -3.53855 0.63457 0
M  V30 6422 C 636.29 -4.10013 2.01837 0
M  V30 6423 C 637.287 -4.25406 2.98874 0
M  V30 6424 C 634.972 -4.45202 2.32595 0
M  V30 6425 C 636.966 -4.7521 4.24799 0
M  V30 6426 C 634.653 -4.94704 3.58763 0
M  V30 6427 C 635.651 -5.09662 4.5468 0
M  V30 6428 O 635.339 -5.58093 5.78608 0
M  V30 6429 H 635.071 -0.644913 0.20264 0
M  V30 6430 H 637.625 -1.66518 1.20253 0
M  V30 6431 H 635.855 -3.86583 -0.0949477 0
M  V30 6432 H 637.544 -4.04922 0.281648 0
M  V30 6433 H 638.31 -3.98515 2.76425 0
M  V30 6434 H 634.189 -4.32822 1.58701 0
M  V30 6435 H 637.733 -4.86801 4.99671 0
M  V30 6436 H 633.63 -5.21032 3.81046 0
M  V30 6437 H 634.398 -5.7642 5.81104 0
M  V30 6438 N 637.061 -0.65484 -1.43351 0
M  V30 6439 C 638.289 -0.176685 -2.06144 0
M  V30 6440 C 638.704 1.15831 -1.49093 0
M  V30 6441 O 638.061 1.71542 -0.622868 0
M  V30 6442 C 638.112 -0.0813326 -3.61408 0
M  V30 6443 O 637.833 -1.36355 -4.1634 0
M  V30 6444 C 639.334 0.422706 -4.4128 0
M  V30 6445 H 636.554 -0.0906429 -0.66485 0
M  V30 6446 H 639.098 -0.895945 -1.83829 0
M  V30 6447 H 637.253 0.588496 -3.82904 0
M  V30 6448 H 637.667 -1.22381 -5.10023 0
M  V30 6449 H 639.141 0.438375 -5.50257 0
M  V30 6450 H 639.618 1.45432 -4.14423 0
M  V30 6451 H 640.224 -0.214687 -4.24758 0
M  V30 6452 N 638.539 1.52521 -0.396863 0
M  V30 6453 C 639.816 1.94112 0.240842 0
M  V30 6454 C 640.196 1.33288 1.637 0
M  V30 6455 O 639.544 0.503901 2.22875 0
M  V30 6456 C 639.754 3.48033 0.259567 0
M  V30 6457 C 641.102 4.21822 0.484866 0
M  V30 6458 O 642.126 3.54579 0.339453 0
M  V30 6459 O 640.985 5.41042 0.770412 0
M  V30 6460 H 638.079 0.812973 0.151671 0
M  V30 6461 H 640.625 1.63572 -0.451918 0
M  V30 6462 H 639.397 3.84655 -0.718078 0
M  V30 6463 H 639.02 3.84899 0.996937 0
M  V30 6464 N 640.017 0.126909 1.57088 0
M  V30 6465 C 641.257 -0.53216 1.97351 0
M  V30 6466 C 641.621 -1.63342 1.00913 0
M  V30 6467 O 642.822 -2.35194 1.30144 0
M  V30 6468 C 641.093 -1.04385 3.41817 0
M  V30 6469 S 642.652 -1.71033 4.04095 0
M  V30 6470 H 639.47 -0.172724 0.689701 0
M  V30 6471 H 642.072 0.213865 1.94327 0
M  V30 6472 H 640.776 -0.231289 4.09748 0
M  V30 6473 H 640.307 -1.82496 3.48509 0
M  V30 6474 H 642.322 -2.99656 3.95501 0
M  V30 6475 N 641.495 -1.56914 -0.146875 0
M  V30 6476 C 642.723 -1.87515 -0.874394 0
M  V30 6477 C 643.138 -0.715116 -1.74733 0
M  V30 6478 O 642.495 0.315113 -1.79759 0
M  V30 6479 C 642.546 -3.17362 -1.731 0
M  V30 6480 O 642.267 -4.28897 -0.893245 0
M  V30 6481 C 643.768 -3.61479 -2.56609 0
M  V30 6482 H 640.988 -0.621546 -0.252827 0
M  V30 6483 H 643.532 -2.04023 -0.139627 0
M  V30 6484 H 641.687 -3.02608 -2.41883 0
M  V30 6485 H 642.101 -5.03146 -1.48137 0
M  V30 6486 H 643.575 -4.5517 -3.12289 0
M  V30 6487 H 644.052 -2.86773 -3.32653 0
M  V30 6488 H 644.658 -3.78927 -1.93117 0
M  V30 6489 N 642.974 0.416227 -1.52004 0
M  V30 6490 C 644.199 1.19029 -1.69843 0
M  V30 6491 C 644.624 1.83708 -0.404103 0
M  V30 6492 O 643.982 1.69711 0.637787 0
M  V30 6493 C 644.03 2.23439 -2.83032 0
M  V30 6494 O 643.134 3.29419 -2.48106 0
M  V30 6495 H 642.475 0.347785 -0.565634 0
M  V30 6496 H 645.005 0.488871 -1.98674 0
M  V30 6497 H 645.015 2.67884 -3.07737 0
M  V30 6498 H 643.69 1.75745 -3.76944 0
M  V30 6499 H 642.267 2.90303 -2.34048 0
M  V30 6500 N 644.452 1.42507 0.673017 0
M  V30 6501 C 645.362 1.4853 1.81593 0
M  V30 6502 C 646.378 0.373907 1.69935 0
M  V30 6503 O 647.554 0.625078 1.91454 0
M  V30 6504 C 644.619 1.387 3.17747 0
M  V30 6505 C 643.68 2.60346 3.41348 0
M  V30 6506 C 642.913 2.50975 4.71007 0
M  V30 6507 O 643.136 1.54659 5.49033 0
M  V30 6508 O 642.07 3.41138 4.95892 0
M  V30 6509 H 645.896 2.45001 1.79467 0
M  V30 6510 H 643.481 1.2429 0.82899 0
M  V30 6511 H 645.363 1.35586 3.98992 0
M  V30 6512 H 644.038 0.453555 3.20507 0
M  V30 6513 H 642.945 2.69034 2.59945 0
M  V30 6514 H 644.278 3.52595 3.43421 0
M  V30 6515 N 645.93 -0.909495 1.28709 0
M  V30 6516 C 647.178 -1.65577 1.15882 0
M  V30 6517 C 647.499 -1.928 -0.292108 0
M  V30 6518 O 646.769 -1.54716 -1.20166 0
M  V30 6519 H 645.349 -0.613714 0.425869 0
M  V30 6520 H 648.011 -1.09108 1.61498 0
M  V30 6521 H 647.107 -2.61634 1.70159 0
M  V30 6522 N 647.408 -1.11026 -1.11852 0
M  V30 6523 C 648.824 -0.843294 -1.35502 0
M  V30 6524 C 649.024 0.534179 -1.9429 0
M  V30 6525 O 648.08 1.28585 -2.17307 0
M  V30 6526 C 649.393 -1.94793 -2.29077 0
M  V30 6527 C 650.941 -1.97709 -2.42652 0
M  V30 6528 C 651.416 -3.07364 -3.39546 0
M  V30 6529 N 652.907 -3.0671 -3.47107 0
M  V30 6530 C 653.642 -3.88197 -4.22008 0
M  V30 6531 N 653.138 -4.79635 -4.99922 0
M  V30 6532 N 654.931 -3.76391 -4.17476 0
M  V30 6533 H 647.082 -1.99805 -0.720538 0
M  V30 6534 H 649.345 -0.868633 -0.379711 0
M  V30 6535 H 649.051 -2.93971 -1.93065 0
M  V30 6536 H 648.925 -1.84039 -3.29256 0
M  V30 6537 H 651.312 -0.991604 -2.77941 0
M  V30 6538 H 651.393 -2.1254 -1.4234 0
M  V30 6539 H 651.037 -4.06136 -3.04985 0
M  V30 6540 H 650.967 -2.89774 -4.39703 0
M  V30 6541 H 653.458 -2.40457 -2.91528 0
M  V30 6542 H 653.771 -5.38357 -5.54429 0
M  V30 6543 H 652.116 -4.8366 -4.99097 0
M  V30 6544 H 655.307 -3.04303 -3.55693 0
M  V30 6545 H 655.48 -4.40131 -4.75593 0
M  V30 6546 N 648.886 1.2938 -0.899927 0
M  V30 6547 C 650.302 1.48052 -0.596059 0
M  V30 6548 C 650.502 1.82114 0.862372 0
M  V30 6549 O 649.558 1.91774 1.64253 0
M  V30 6550 C 650.871 2.59332 -1.52208 0
M  V30 6551 C 652.419 2.73208 -1.5273 0
M  V30 6552 C 652.894 3.87617 -2.43961 0
M  V30 6553 N 654.385 3.9495 -2.42009 0
M  V30 6554 C 655.12 4.82824 -3.09303 0
M  V30 6555 N 654.616 5.75387 -3.85877 0
M  V30 6556 N 656.409 4.76317 -2.98459 0
M  V30 6557 H 648.56 1.05546 -1.8432 0
M  V30 6558 H 650.823 0.524314 -0.78981 0
M  V30 6559 H 650.529 2.41029 -2.56121 0
M  V30 6560 H 650.403 3.56139 -1.24278 0
M  V30 6561 H 652.79 2.90908 -0.495614 0
M  V30 6562 H 652.871 1.76975 -1.84698 0
M  V30 6563 H 652.515 3.70672 -3.47224 0
M  V30 6564 H 652.445 4.83218 -2.09303 0
M  V30 6565 H 654.936 3.28744 -1.86375 0
M  V30 6566 H 655.249 6.39235 -4.34279 0
M  V30 6567 H 653.594 5.75272 -3.89984 0
M  V30 6568 H 656.785 4.0299 -2.38152 0
M  V30 6569 H 656.958 5.44589 -3.51179 0
M  V30 6570 N 650.364 0.662433 1.43002 0
M  V30 6571 C 651.641 0.109096 1.95296 0
M  V30 6572 C 652.021 -1.37313 1.60338 0
M  V30 6573 O 651.369 -2.1032 0.893187 0
M  V30 6574 C 651.579 0.365096 3.47085 0
M  V30 6575 C 652.927 0.274964 4.23709 0
M  V30 6576 O 653.951 0.29816 3.5495 0
M  V30 6577 O 652.81 0.206549 5.4611 0
M  V30 6578 H 649.904 -0.00429724 0.826989 0
M  V30 6579 H 652.45 0.736308 1.52894 0
M  V30 6580 H 651.222 1.39237 3.65689 0
M  V30 6581 H 650.845 -0.294733 3.96506 0
M  V30 6582 N 651.842 -1.52309 0.404946 0
M  V30 6583 C 652.79 -2.28452 -0.437321 0
M  V30 6584 C 653.784 -1.32975 -1.04948 0
M  V30 6585 O 654.99 -1.50451 -0.988159 0
M  V30 6586 H 651.365 -0.734824 -0.159805 0
M  V30 6587 H 653.336 -2.97542 0.22615 0
M  V30 6588 C 652.085 -3.11536 -1.54404 0
M  V30 6589 H 651.408 -3.84871 -1.08233 0
M  V30 6590 H 652.848 -3.67926 -2.10729 0
M  V30 6591 C 651.307 -2.24833 -2.50902 0
M  V30 6592 O 651.837 -1.88574 -3.54687 0
M  V30 6593 N 650.043 -1.88685 -2.21012 0
M  V30 6594 H 649.59 -2.18371 -1.36646 0
M  V30 6595 H 649.548 -1.30966 -2.85824 0
M  V30 6596 N 653.32 -0.135238 -1.57019 0
M  V30 6597 C 654.253 0.846618 -2.11914 0
M  V30 6598 C 655.231 1.25019 -1.03966 0
M  V30 6599 O 656.415 1.34838 -1.31723 0
M  V30 6600 C 653.542 2.1352 -2.6292 0
M  V30 6601 C 652.588 1.87846 -3.82905 0
M  V30 6602 S 653.421 1.08005 -5.24495 0
M  V30 6603 C 654.577 2.38008 -5.78881 0
M  V30 6604 H 654.81 0.379752 -2.94865 0
M  V30 6605 H 652.343 0.0788387 -1.54199 0
M  V30 6606 H 654.301 2.87551 -2.92958 0
M  V30 6607 H 652.962 2.57323 -1.80121 0
M  V30 6608 H 652.155 2.83365 -4.16797 0
M  V30 6609 H 651.757 1.21929 -3.53567 0
M  V30 6610 H 654.049 3.33742 -5.89595 0
M  V30 6611 H 654.992 2.08638 -6.76665 0
M  V30 6612 H 655.4 2.48119 -5.07048 0
M  V30 6613 N 654.798 1.5699 0.138552 0
M  V30 6614 C 655.745 1.98899 1.17081 0
M  V30 6615 C 656.715 0.857922 1.42228 0
M  V30 6616 O 657.9 1.12065 1.54422 0
M  V30 6617 C 655.04 2.38189 2.4972 0
M  V30 6618 C 654.153 3.64624 2.31674 0
M  V30 6619 C 653.288 3.9298 3.57407 0
M  V30 6620 C 652.327 5.1266 3.34435 0
M  V30 6621 N 651.464 5.36983 4.5232 0
M  V30 6622 H 656.304 2.86881 0.80642 0
M  V30 6623 H 653.841 1.41925 0.386727 0
M  V30 6624 H 655.799 2.59 3.2707 0
M  V30 6625 H 654.429 1.53275 2.84089 0
M  V30 6626 H 653.481 3.51542 1.45337 0
M  V30 6627 H 654.793 4.52131 2.10664 0
M  V30 6628 H 653.947 4.14335 4.43183 0
M  V30 6629 H 652.686 3.03912 3.8143 0
M  V30 6630 H 651.691 4.9117 2.47048 0
M  V30 6631 H 652.916 6.03288 3.11802 0
M  V30 6632 H 650.862 4.50871 4.76499 0
M  V30 6633 H 650.779 6.18775 4.34343 0
M  V30 6634 H 652.047 5.62842 5.39285 0
M  V30 6635 N 656.276 -0.40816 1.52223 0
M  V30 6636 C 657.522 -1.15347 1.67531 0
M  V30 6637 C 657.877 -1.8818 0.400748 0
M  V30 6638 O 657.17 -1.81803 -0.604845 0
M  V30 6639 C 657.364 -2.17422 2.83659 0
M  V30 6640 C 657.193 -1.54611 4.22286 0
M  V30 6641 C 655.963 -1.31841 4.87797 0
M  V30 6642 C 658.161 -1.00648 5.04355 0
M  V30 6643 N 656.143 -0.649338 6.10456 0
M  V30 6644 C 657.514 -0.464384 6.18258 0
M  V30 6645 C 659.569 -0.901041 4.89679 0
M  V30 6646 C 658.272 0.172825 7.19092 0
M  V30 6647 C 660.298 -0.277684 5.90748 0
M  V30 6648 C 659.66 0.253734 7.03943 0
M  V30 6649 H 655.759 -0.408722 0.666686 0
M  V30 6650 H 658.343 -0.445713 1.8953 0
M  V30 6651 H 656.514 -2.85554 2.63274 0
M  V30 6652 H 658.246 -2.84321 2.87999 0
M  V30 6653 H 655.001 -1.58819 4.46176 0
M  V30 6654 H 655.425 -0.3314 6.76188 0
M  V30 6655 H 660.067 -1.29772 4.02392 0
M  V30 6656 H 657.785 0.581564 8.06005 0
M  V30 6657 H 661.371 -0.197605 5.81464 0
M  V30 6658 H 660.251 0.728482 7.80809 0
M  V30 6659 N 657.755 -1.42862 -0.66545 0
M  V30 6660 C 658.995 -1.45323 -1.43738 0
M  V30 6661 C 659.359 -0.0707969 -1.91869 0
M  V30 6662 O 660.56 0.0298852 -2.68783 0
M  V30 6663 C 658.831 -2.45671 -2.59577 0
M  V30 6664 S 660.39 -2.6691 -3.48288 0
M  V30 6665 H 657.208 -0.51442 -0.490809 0
M  V30 6666 H 659.81 -1.79537 -0.773745 0
M  V30 6667 H 658.514 -3.44869 -2.22471 0
M  V30 6668 H 658.045 -2.12914 -3.30804 0
M  V30 6669 H 660.06 -1.95914 -4.55886 0
M  V30 6670 N 659.233 0.902656 -1.29189 0
M  V30 6671 C 660.481 1.6496 -1.16758 0
M  V30 6672 C 660.802 1.92952 0.28188 0
M  V30 6673 O 660.072 1.55351 1.19344 0
M  V30 6674 H 658.652 0.611447 -0.429118 0
M  V30 6675 H 661.314 1.0825 -1.62074 0
M  V30 6676 H 660.41 2.60728 -1.71544 0
M  V30 6677 N 660.711 1.11618 1.11262 0
M  V30 6678 C 661.939 0.888739 1.8684 0
M  V30 6679 C 662.354 -0.561558 1.80255 0
M  V30 6680 O 661.711 -1.38782 1.18515 0
M  V30 6681 C 661.762 1.34422 3.35579 0
M  V30 6682 O 661.483 2.73766 3.42029 0
M  V30 6683 C 662.984 1.15246 4.28058 0
M  V30 6684 H 660.204 0.318152 0.590779 0
M  V30 6685 H 662.748 1.48398 1.40707 0
M  V30 6686 H 660.903 0.79239 3.7921 0
M  V30 6687 H 661.317 2.9355 4.34659 0
M  V30 6688 H 662.791 1.52015 5.30656 0
M  V30 6689 H 663.268 0.0922007 4.39103 0
M  V30 6690 H 663.874 1.69136 3.90222 0
M  V30 6691 N 662.189 -1.289 0.906776 0
M  V30 6692 C 663.417 -1.99401 0.551969 0
M  V30 6693 C 663.832 -1.67816 -0.865048 0
M  V30 6694 O 663.189 -0.927078 -1.57199 0
M  V30 6695 C 663.24 -3.53779 0.743152 0
M  V30 6696 O 662.961 -3.84248 2.1044 0
M  V30 6697 C 664.462 -4.41543 0.39424 0
M  V30 6698 H 661.682 -0.636926 0.211106 0
M  V30 6699 H 664.226 -1.64266 1.21807 0
M  V30 6700 H 662.381 -3.87201 0.124143 0
M  V30 6701 H 662.795 -4.78904 2.13895 0
M  V30 6702 H 664.269 -5.48957 0.578814 0
M  V30 6703 H 664.746 -4.34073 -0.669137 0
M  V30 6704 H 665.352 -4.13605 0.990491 0
M  V30 6705 N 663.667 -0.670007 -1.42649 0
M  V30 6706 C 664.599 0.0501746 -2.29145 0
M  V30 6707 C 665.612 0.770331 -1.43422 0
M  V30 6708 O 666.801 0.625288 -1.6719 0
M  V30 6709 C 663.901 1.09463 -3.20735 0
M  V30 6710 C 663.074 0.44926 -4.35087 0
M  V30 6711 C 662.133 1.39285 -5.07431 0
M  V30 6712 O 661.159 0.894997 -5.6212 0
M  V30 6713 N 662.361 2.72631 -5.12496 0
M  V30 6714 H 665.126 -0.692312 -2.91594 0
M  V30 6715 H 662.687 -0.514056 -1.53522 0
M  V30 6716 H 664.679 1.72705 -3.65999 0
M  V30 6717 H 663.249 1.73891 -2.59771 0
M  V30 6718 H 662.469 -0.362573 -3.92529 0
M  V30 6719 H 663.757 -0.000544776 -5.088 0
M  V30 6720 H 663.155 3.15623 -4.69467 0
M  V30 6721 H 661.712 3.31132 -5.61422 0
M  V30 6722 N 665.145 1.52092 -0.413018 0
M  V30 6723 C 666.093 2.28681 0.425199 0
M  V30 6724 C 667.087 1.3353 1.04241 0
M  V30 6725 O 668.293 1.50973 0.980166 0
M  V30 6726 H 664.668 0.735661 0.155906 0
M  V30 6727 H 666.639 2.97418 -0.241926 0
M  V30 6728 C 665.388 3.1235 1.5275 0
M  V30 6729 H 664.711 3.85439 1.06191 0
M  V30 6730 H 666.151 3.69038 2.08774 0
M  V30 6731 C 664.61 2.26161 2.49706 0
M  V30 6732 O 665.14 1.90452 3.53682 0
M  V30 6733 N 663.346 1.89854 2.20008 0
M  V30 6734 H 662.893 2.19092 1.35486 0
M  V30 6735 H 662.851 1.3248 2.85125 0
M  V30 6736 N 666.623 0.143563 1.56945 0
M  V30 6737 C 667.853 -0.514699 2.00086 0
M  V30 6738 C 668.261 -1.59184 1.0226 0
M  V30 6739 O 667.604 -1.83697 0.0110514 0
M  V30 6740 C 667.666 -1.17778 3.39659 0
M  V30 6741 C 667.33 -0.245657 4.56339 0
M  V30 6742 C 668.327 0.525343 5.17239 0
M  V30 6743 C 666.012 -0.149564 5.02077 0
M  V30 6744 C 668.006 1.37992 6.22284 0
M  V30 6745 C 665.693 0.708621 6.06978 0
M  V30 6746 C 666.691 1.47197 6.6695 0
M  V30 6747 O 666.379 2.31586 7.6982 0
M  V30 6748 H 666.111 -0.138789 0.661599 0
M  V30 6749 H 668.665 0.234098 2.04062 0
M  V30 6750 H 666.895 -1.97415 3.32512 0
M  V30 6751 H 668.584 -1.73542 3.6693 0
M  V30 6752 H 669.35 0.461118 4.82803 0
M  V30 6753 H 665.229 -0.733457 4.55128 0
M  V30 6754 H 668.773 1.97621 6.69023 0
M  V30 6755 H 664.67 0.77415 6.40841 0
M  V30 6756 H 665.438 2.24796 7.87025 0
M  V30 6757 N 668.101 -1.57061 -0.130224 0
M  V30 6758 C 669.378 -1.75205 -0.869631 0
M  V30 6759 C 669.758 -0.716063 -1.98584 0
M  V30 6760 O 669.106 0.262032 -2.26993 0
M  V30 6761 C 669.316 -3.19835 -1.39666 0
M  V30 6762 C 670.664 -3.82011 -1.85345 0
M  V30 6763 O 671.688 -3.23368 -1.49371 0
M  V30 6764 O 670.547 -4.85064 -2.51744 0
M  V30 6765 H 667.641 -0.716977 -0.412157 0
M  V30 6766 H 670.187 -1.69311 -0.11484 0
M  V30 6767 H 668.959 -3.86745 -0.595288 0
M  V30 6768 H 668.582 -3.30222 -2.21448 0
M  V30 6769 N 669.579 0.400081 -1.52437 0
M  V30 6770 C 670.542 1.4707 -1.75793 0
M  V30 6771 C 671.542 1.48036 -0.627856 0
M  V30 6772 O 672.732 1.49401 -0.895817 0
M  V30 6773 C 669.864 2.86427 -1.84858 0
M  V30 6774 H 671.057 1.27649 -2.71377 0
M  V30 6775 H 668.61 0.631141 -1.42991 0
M  V30 6776 H 669.345 3.11207 -0.912194 0
M  V30 6777 H 669.13 2.87128 -2.6702 0
M  V30 6778 H 670.62 3.64023 -2.04638 0
M  V30 6779 N 671.057 1.43213 0.657864 0
M  V30 6780 C 672.334 1.35063 1.41483 0
M  V30 6781 C 672.714 -0.0038314 2.111 0
M  V30 6782 O 672.062 -1.02018 2.04462 0
M  V30 6783 C 672.272 2.53061 2.40335 0
M  V30 6784 C 673.62 2.9594 3.04474 0
M  V30 6785 O 674.644 2.53074 2.50663 0
M  V30 6786 O 673.503 3.70184 4.02027 0
M  V30 6787 H 670.597 0.533517 0.631893 0
M  V30 6788 H 673.143 1.55253 0.685162 0
M  V30 6789 H 671.915 3.43283 1.87809 0
M  V30 6790 H 671.538 2.34945 3.20759 0
M  V30 6791 N 672.536 -0.895792 1.29666 0
M  V30 6792 C 673.468 -2.00563 1.10937 0
M  V30 6793 C 674.481 -1.62705 0.055734 0
M  V30 6794 O 675.67 -1.7595 0.300656 0
M  V30 6795 C 672.77 -3.32262 0.667448 0
M  V30 6796 C 671.943 -3.98625 1.80047 0
M  V30 6797 C 671.002 -5.08617 1.3489 0
M  V30 6798 O 670.028 -5.30837 2.05429 0
M  V30 6799 N 671.23 -5.80076 0.221937 0
M  V30 6800 H 673.995 -2.17184 2.06522 0
M  V30 6801 H 671.556 -1.06822 1.21658 0
M  V30 6802 H 673.548 -4.03196 0.348586 0
M  V30 6803 H 672.118 -3.11985 -0.196055 0
M  V30 6804 H 671.338 -3.21005 2.28801 0
M  V30 6805 H 672.626 -4.39704 2.56003 0
M  V30 6806 H 672.024 -5.64514 -0.366084 0
M  V30 6807 H 670.581 -6.51789 -0.0375346 0
M  V30 6808 N 674.014 -1.12206 -1.10668 0
M  V30 6809 C 674.961 -0.787716 -2.16942 0
M  V30 6810 C 675.931 0.244442 -1.64291 0
M  V30 6811 O 677.116 0.119558 -1.90425 0
M  V30 6812 C 674.256 -0.24584 -3.44223 0
M  V30 6813 C 673.369 -1.33552 -4.10838 0
M  V30 6814 C 672.504 -0.753337 -5.25831 0
M  V30 6815 C 671.543 -1.82231 -5.84344 0
M  V30 6816 N 670.68 -1.25902 -6.90719 0
M  V30 6817 H 675.52 -1.69809 -2.44885 0
M  V30 6818 H 673.057 -0.847862 -1.20207 0
M  V30 6819 H 675.015 0.0863639 -4.17111 0
M  V30 6820 H 673.645 0.627702 -3.16638 0
M  V30 6821 H 672.697 -1.78454 -3.35944 0
M  V30 6822 H 674.009 -2.14396 -4.50373 0
M  V30 6823 H 673.163 -0.37166 -6.05561 0
M  V30 6824 H 671.902 0.0863297 -4.87624 0
M  V30 6825 H 670.907 -2.2132 -5.03287 0
M  V30 6826 H 672.132 -2.66515 -6.24617 0
M  V30 6827 H 670.078 -0.44114 -6.54515 0
M  V30 6828 H 669.995 -2.00408 -7.28953 0
M  V30 6829 H 671.263 -0.904498 -7.74235 0
M  V30 6830 N 675.492 1.28418 -0.913599 0
M  V30 6831 C 676.739 1.94981 -0.546674 0
M  V30 6832 C 677.067 1.7192 0.909606 0
M  V30 6833 O 676.322 1.03314 1.66207 0
M  V30 6834 C 676.621 3.48283 -0.802099 0
M  V30 6835 C 676.287 3.91444 -2.2379 0
M  V30 6836 C 674.949 4.02939 -2.63046 0
M  V30 6837 C 677.301 4.13542 -3.17227 0
M  V30 6838 C 674.629 4.3391 -3.94891 0
M  V30 6839 C 676.981 4.45992 -4.48636 0
M  V30 6840 C 675.645 4.55698 -4.87746 0
M  V30 6841 H 674.915 0.713487 -0.200042 0
M  V30 6842 H 677.562 1.52756 -1.15489 0
M  V30 6843 H 675.867 3.91643 -0.111076 0
M  V30 6844 H 677.564 3.97903 -0.497375 0
M  V30 6845 H 674.154 3.83024 -1.9233 0
M  V30 6846 H 678.338 4.04114 -2.88107 0
M  V30 6847 H 673.594 4.39631 -4.24894 0
M  V30 6848 H 677.768 4.62038 -5.21051 0
M  V30 6849 H 675.395 4.79451 -5.89942 0
M  V30 6850 N 676.97 0.677563 1.42291 0
M  V30 6851 C 678.218 0.200578 2.01102 0
M  V30 6852 C 678.539 -1.19803 1.53858 0
M  V30 6853 O 677.809 -1.80496 0.761439 0
M  V30 6854 H 676.389 0.0711634 0.743603 0
M  V30 6855 H 679.051 0.874691 1.7417 0
M  V30 6856 H 678.147 0.204 3.11433 0
M  V30 6857 N 678.448 -1.51871 0.421078 0
M  V30 6858 C 679.695 -2.01938 -0.15079 0
M  V30 6859 C 680.023 -1.30611 -1.44121 0
M  V30 6860 O 679.278 -0.404631 -1.91471 0
M  V30 6861 C 679.577 -3.54764 -0.433292 0
M  V30 6862 C 679.243 -4.44288 0.76936 0
M  V30 6863 C 677.905 -4.68477 1.09921 0
M  V30 6864 C 680.257 -4.96915 1.57242 0
M  V30 6865 C 677.585 -5.4254 2.2331 0
M  V30 6866 C 679.937 -5.7222 2.69716 0
M  V30 6867 C 678.601 -5.94678 3.03174 0
M  V30 6868 H 677.871 -0.738943 -0.0551781 0
M  V30 6869 H 680.518 -1.82977 0.564945 0
M  V30 6870 H 678.823 -3.71968 -1.23074 0
M  V30 6871 H 680.52 -3.91023 -0.888922 0
M  V30 6872 H 677.11 -4.25646 0.502305 0
M  V30 6873 H 681.294 -4.78125 1.3308 0
M  V30 6874 H 676.55 -5.58146 2.49565 0
M  V30 6875 H 680.724 -6.11992 3.32323 0
M  V30 6876 H 678.351 -6.51848 3.9115 0
M  V30 6877 N 679.926 -0.151884 -1.56866 0
M  V30 6878 C 681.166 0.500695 -1.98173 0
M  V30 6879 C 681.53 1.61715 -1.03499 0
M  V30 6880 O 682.731 2.33093 -1.33869 0
M  V30 6881 C 681.002 0.989333 -3.43434 0
M  V30 6882 S 682.561 1.64583 -4.06765 0
M  V30 6883 H 679.379 0.16173 -0.692361 0
M  V30 6884 H 681.981 -0.244754 -1.93962 0
M  V30 6885 H 680.685 0.166072 -4.10064 0
M  V30 6886 H 680.216 1.76929 -3.51368 0
M  V30 6887 H 682.231 2.93326 -4.00218 0
M  V30 6888 N 681.404 1.57128 0.121893 0
M  V30 6889 C 682.815 1.73902 0.679348 0
M  V30 6890 C 683.166 0.770135 1.80453 0
M  V30 6891 O 682.291 -0.0576083 2.16323 0
M  V30 6892 C 682.886 3.15328 1.2391 0
M  V30 6893 C 681.445 3.33618 1.74288 0
M  V30 6894 C 680.592 2.6978 0.641414 0
M  V30 6895 H 683.543 1.58359 -0.104 0
M  V30 6896 H 683.564 3.16718 2.10879 0
M  V30 6897 H 683.076 3.85821 0.419957 0
M  V30 6898 H 681.177 2.68162 2.58689 0
M  V30 6899 H 681.29 4.4176 1.85432 0
M  V30 6900 H 679.654 2.30935 1.0743 0
M  V30 6901 H 680.437 3.42895 -0.166707 0
M  V30 6902 N 682.882 -0.391992 1.52647 0
M  V30 6903 C 683.815 -1.50019 1.71958 0
M  V30 6904 C 684.793 -1.5238 0.567365 0
M  V30 6905 O 685.977 -1.70831 0.796806 0
M  V30 6906 C 683.104 -2.88496 1.77447 0
M  V30 6907 C 682.15 -3.03974 2.99169 0
M  V30 6908 S 682.983 -2.75487 4.59203 0
M  V30 6909 C 684.139 -4.16163 4.67503 0
M  V30 6910 H 684.372 -1.33413 2.65685 0
M  V30 6911 H 681.905 -0.584674 1.42902 0
M  V30 6912 H 683.863 -3.68296 1.81296 0
M  V30 6913 H 682.524 -3.02431 0.848188 0
M  V30 6914 H 681.717 -4.05328 2.99542 0
M  V30 6915 H 681.319 -2.32062 2.93297 0
M  V30 6916 H 683.611 -5.10048 4.45934 0
M  V30 6917 H 684.554 -4.20806 5.69498 0
M  V30 6918 H 684.962 -4.01933 3.96371 0
M  V30 6919 N 684.36 -1.4356 -0.65026 0
M  V30 6920 C 685.323 -1.48615 -1.74489 0
M  V30 6921 C 686.323 -0.370483 -1.56474 0
M  V30 6922 O 687.513 -0.632351 -1.62317 0
M  V30 6923 C 684.645 -1.34161 -3.13391 0
M  V30 6924 H 685.838 -2.46103 -1.71387 0
M  V30 6925 H 683.391 -1.30369 -0.862186 0
M  V30 6926 H 684.126 -0.376918 -3.22102 0
M  V30 6927 H 683.911 -2.1504 -3.27872 0
M  V30 6928 H 685.401 -1.40637 -3.93206 0
M  V30 6929 N 685.838 0.888903 -1.30139 0
M  V30 6930 C 686.801 1.97576 -1.16174 0
M  V30 6931 C 687.801 1.60525 -0.094086 0
M  V30 6932 O 688.991 1.70812 -0.341889 0
M  V30 6933 C 686.123 3.3188 -0.778983 0
M  V30 6934 H 687.316 2.11393 -2.12728 0
M  V30 6935 H 684.869 1.0748 -1.1348 0
M  V30 6936 H 685.604 3.23765 0.186225 0
M  V30 6937 H 685.389 3.60141 -1.55051 0
M  V30 6938 H 686.879 4.11612 -0.704631 0
M  V30 6939 N 687.317 1.12792 1.10072 0
M  V30 6940 C 688.267 0.768086 2.14673 0
M  V30 6941 C 689.251 -0.234716 1.59179 0
M  V30 6942 O 690.443 -0.039643 1.76956 0
M  V30 6943 C 687.572 0.228472 3.42539 0
M  V30 6944 C 686.658 1.25979 4.04957 0
M  V30 6945 N 687.049 2.4586 4.42025 0
M  V30 6946 C 685.347 1.10602 4.32069 0
M  V30 6947 C 686.048 3.11747 4.9111 0
M  V30 6948 N 685.024 2.39185 4.88151 0
M  V30 6949 H 688.826 1.68029 2.4113 0
M  V30 6950 H 686.34 1.00925 1.27232 0
M  V30 6951 H 688.337 -0.0475216 4.16873 0
M  V30 6952 H 686.997 -0.678136 3.1754 0
M  V30 6953 H 688.008 2.83215 4.33601 0
M  V30 6954 H 684.685 0.257021 4.16708 0
M  V30 6955 H 686.075 4.13862 5.29309 0
M  V30 6956 N 688.795 -1.27931 0.920396 0
M  V30 6957 C 689.705 -2.30824 0.419212 0
M  V30 6958 C 690.721 -1.66767 -0.496461 0
M  V30 6959 O 691.897 -1.97763 -0.38104 0
M  V30 6960 C 688.962 -3.45158 -0.326601 0
M  V30 6961 C 688.023 -4.24754 0.623098 0
M  V30 6962 C 687.256 -5.33629 -0.0872172 0
M  V30 6963 O 687.479 -5.55204 -1.30784 0
M  V30 6964 O 686.413 -5.99091 0.580875 0
M  V30 6965 H 690.239 -2.75716 1.27337 0
M  V30 6966 H 687.824 -1.32747 0.685465 0
M  V30 6967 H 689.706 -4.14716 -0.747559 0
M  V30 6968 H 688.381 -3.02336 -1.15648 0
M  V30 6969 H 687.288 -3.57759 1.09359 0
M  V30 6970 H 688.621 -4.71272 1.41998 0
M  V30 6971 N 690.273 -0.685099 -1.4193 0
M  V30 6972 C 691.183 -0.013404 -2.34596 0
M  V30 6973 C 692.199 0.777589 -1.55658 0
M  V30 6974 O 693.375 0.717553 -1.88184 0
M  V30 6975 C 690.44 0.919031 -3.34297 0
M  V30 6976 C 689.501 0.121417 -4.29128 0
M  V30 6977 C 688.734 1.00944 -5.24067 0
M  V30 6978 O 688.957 2.24898 -5.24192 0
M  V30 6979 O 687.891 0.464724 -6.00103 0
M  V30 6980 H 691.717 -0.776978 -2.93593 0
M  V30 6981 H 689.302 -0.445379 -1.42607 0
M  V30 6982 H 691.184 1.45402 -3.9552 0
M  V30 6983 H 689.859 1.66228 -2.77759 0
M  V30 6984 H 688.766 -0.45792 -3.71287 0
M  V30 6985 H 690.099 -0.582937 -4.88736 0
M  V30 6986 N 691.751 1.51645 -0.429126 0
M  V30 6987 C 693 2.01203 0.141538 0
M  V30 6988 C 693.313 1.31828 1.44502 0
M  V30 6989 O 694.519 1.7231 2.09813 0
M  V30 6990 C 692.975 3.58624 0.302786 0
M  V30 6991 C 692.583 4.3693 -0.989775 0
M  V30 6992 C 694.327 4.16353 0.827661 0
M  V30 6993 C 692.234 5.86037 -0.794619 0
M  V30 6994 H 691.164 0.751867 0.05667 0
M  V30 6995 H 693.815 1.74822 -0.557633 0
M  V30 6996 H 692.197 3.81417 1.06476 0
M  V30 6997 H 693.371 4.25887 -1.75945 0
M  V30 6998 H 691.686 3.90614 -1.44256 0
M  V30 6999 H 694.283 5.25455 0.990026 0
M  V30 7000 H 694.626 3.74995 1.80787 0
M  V30 7001 H 695.159 3.97606 0.124213 0
M  V30 7002 H 691.898 6.31792 -1.74697 0
M  V30 7003 H 691.418 5.99765 -0.0645968 0
M  V30 7004 H 693.097 6.45471 -0.444591 0
M  V30 7005 N 693.229 0.160201 1.56784 0
M  V30 7006 C 694.469 -0.490179 1.98435 0
M  V30 7007 C 694.833 -1.61164 1.04355 0
M  V30 7008 O 696.034 -2.3238 1.35103 0
M  V30 7009 C 694.305 -0.971106 3.43954 0
M  V30 7010 S 695.864 -1.62423 4.07632 0
M  V30 7011 H 692.682 -0.158056 0.693209 0
M  V30 7012 H 695.284 0.255036 1.93829 0
M  V30 7013 H 693.988 -0.144323 4.10146 0
M  V30 7014 H 693.519 -1.75063 3.52302 0
M  V30 7015 H 695.534 -2.91199 4.01768 0
M  V30 7016 N 694.707 -1.5719 -0.113559 0
M  V30 7017 C 695.935 -1.89328 -0.834422 0
M  V30 7018 C 696.35 -0.752018 -1.73177 0
M  V30 7019 O 695.707 0.276912 -1.80387 0
M  V30 7020 C 695.758 -3.20962 -1.66329 0
M  V30 7021 O 695.479 -4.30695 -0.802069 0
M  V30 7022 C 696.98 -3.6684 -2.48884 0
M  V30 7023 H 694.2 -0.626769 -0.239587 0
M  V30 7024 H 696.744 -2.04273 -0.0963195 0
M  V30 7025 H 694.899 -3.0767 -2.35409 0
M  V30 7026 H 695.313 -5.06175 -1.37431 0
M  V30 7027 H 696.787 -4.61692 -3.02563 0
M  V30 7028 H 697.264 -2.93765 -3.26495 0
M  V30 7029 H 697.87 -3.82938 -1.85036 0
M  V30 7030 N 696.185 0.383891 -1.52853 0
M  V30 7031 C 697.413 1.1495 -1.7203 0
M  V30 7032 C 697.828 1.83578 -0.440957 0
M  V30 7033 O 697.185 1.72872 0.584925 0
M  V30 7034 C 697.236 2.19368 -2.87333 0
M  V30 7035 O 696.957 1.53536 -4.10315 0
M  V30 7036 C 698.458 3.08616 -3.18231 0
M  V30 7037 H 695.678 0.344445 -0.575846 0
M  V30 7038 H 698.222 0.448397 -1.99524 0
M  V30 7039 H 696.377 2.85105 -2.62286 0
M  V30 7040 H 696.791 2.2296 -4.74752 0
M  V30 7041 H 698.265 3.77902 -4.02361 0
M  V30 7042 H 698.742 3.72409 -2.32826 0
M  V30 7043 H 699.348 2.48518 -3.45136 0
M  V30 7044 N 697.663 1.43903 0.642637 0
M  V30 7045 C 698.611 1.50164 1.77634 0
M  V30 7046 C 699.605 0.374294 1.65213 0
M  V30 7047 O 700.811 0.548748 1.71431 0
M  V30 7048 H 697.186 0.470974 0.586249 0
M  V30 7049 H 699.157 2.45603 1.69474 0
M  V30 7050 C 697.906 1.45196 3.15933 0
M  V30 7051 H 697.229 2.31253 3.26132 0
M  V30 7052 H 698.669 1.53638 3.95185 0
M  V30 7053 C 697.128 0.171043 3.36466 0
M  V30 7054 O 697.658 -0.763413 3.94379 0
M  V30 7055 N 695.864 0.077847 2.90496 0
M  V30 7056 H 695.411 0.8391 2.43551 0
M  V30 7057 H 695.369 -0.778473 3.0461 0
M  V30 7058 N 699.141 -0.881989 1.30609 0
M  V30 7059 C 700.051 -2.02076 1.19174 0
M  V30 7060 C 701.067 -1.73645 0.11102 0
M  V30 7061 O 702.243 -1.98735 0.326528 0
M  V30 7062 C 699.308 -3.3515 0.887438 0
M  V30 7063 C 698.369 -3.76983 2.05383 0
M  V30 7064 C 697.602 -5.03707 1.76395 0
M  V30 7065 O 697.825 -5.66171 0.693302 0
M  V30 7066 O 696.759 -5.42019 2.61723 0
M  V30 7067 H 700.585 -2.14652 2.14845 0
M  V30 7068 H 698.17 -1.00843 1.10232 0
M  V30 7069 H 700.052 -4.14975 0.73306 0
M  V30 7070 H 698.727 -3.23676 -0.0393354 0
M  V30 7071 H 697.634 -2.97849 2.26355 0
M  V30 7072 H 698.967 -3.93066 2.96243 0
M  V30 7073 N 700.619 -1.13374 -1.09472 0
M  V30 7074 C 701.867 -0.893422 -1.8128 0
M  V30 7075 C 702.188 0.582029 -1.86111 0
M  V30 7076 O 701.458 1.42305 -1.34633 0
M  V30 7077 H 700.038 -0.327543 -0.67136 0
M  V30 7078 H 702.7 -1.43018 -1.32408 0
M  V30 7079 H 701.796 -1.28374 -2.84476 0
M  V30 7080 N 702.098 1.27442 -0.927168 0
M  V30 7081 C 703.344 1.94679 -0.568164 0
M  V30 7082 C 703.677 1.72697 0.888219 0
M  V30 7083 O 702.952 1.05573 1.63354 0
M  V30 7084 C 703.235 3.4882 -0.894253 0
M  V30 7085 C 703.088 3.80146 -2.40435 0
M  V30 7086 C 704.407 4.38281 -0.399766 0
M  V30 7087 H 701.526 0.707071 -0.207892 0
M  V30 7088 H 704.168 1.50568 -1.15885 0
M  V30 7089 H 702.318 3.86522 -0.391566 0
M  V30 7090 H 703.99 3.52238 -2.97869 0
M  V30 7091 H 702.233 3.26716 -2.85375 0
M  V30 7092 H 702.904 4.87835 -2.58304 0
M  V30 7093 H 705.38 4.07726 -0.83058 0
M  V30 7094 H 704.256 5.44955 -0.656885 0
M  V30 7095 H 704.517 4.36521 0.700153 0
M  V30 7096 N 703.576 0.692616 1.41565 0
M  V30 7097 C 704.509 -0.025063 2.28186 0
M  V30 7098 C 705.487 -0.790912 1.42068 0
M  V30 7099 O 706.671 -0.782344 1.71498 0
M  V30 7100 C 703.798 -1.04285 3.22246 0
M  V30 7101 C 702.844 -0.370515 4.24888 0
M  V30 7102 S 703.677 0.884942 5.28137 0
M  V30 7103 C 704.833 -0.131324 6.25762 0
M  V30 7104 H 705.066 0.709626 2.88707 0
M  V30 7105 H 702.599 0.482783 1.46658 0
M  V30 7106 H 704.557 -1.62493 3.7697 0
M  V30 7107 H 703.218 -1.7501 2.60827 0
M  V30 7108 H 702.411 -1.13911 4.90959 0
M  V30 7109 H 702.013 0.138411 3.73744 0
M  V30 7110 H 704.305 -0.985527 6.70294 0
M  V30 7111 H 705.248 0.495384 7.06365 0
M  V30 7112 H 705.656 -0.484777 5.62415 0
M  V30 7113 N 705.054 -1.51416 0.437162 0
M  V30 7114 C 706.284 -2.06204 -0.127859 0
M  V30 7115 C 706.692 -1.30463 -1.37026 0
M  V30 7116 O 706.035 -0.357516 -1.80187 0
M  V30 7117 C 706.097 -3.55783 -0.515632 0
M  V30 7118 C 705.761 -4.52776 0.619937 0
M  V30 7119 C 706.758 -4.98031 1.49201 0
M  V30 7120 C 704.443 -4.95878 0.800618 0
M  V30 7121 C 706.437 -5.85061 2.52947 0
M  V30 7122 C 704.124 -5.82699 1.84135 0
M  V30 7123 C 705.122 -6.27188 2.70416 0
M  V30 7124 O 704.81 -7.12284 3.72702 0
M  V30 7125 H 704.542 -0.675903 -0.011442 0
M  V30 7126 H 707.096 -1.95977 0.614986 0
M  V30 7127 H 705.326 -3.63793 -1.31118 0
M  V30 7128 H 707.015 -3.93087 -1.01179 0
M  V30 7129 H 707.781 -4.65426 1.36395 0
M  V30 7130 H 703.66 -4.60792 0.138617 0
M  V30 7131 H 707.204 -6.19708 3.20325 0
M  V30 7132 H 703.101 -6.14717 1.9696 0
M  V30 7133 H 703.869 -7.30462 3.69281 0
M  V30 7134 N 706.532 -0.168513 -1.56696 0
M  V30 7135 C 707.948 0.187686 -1.58493 0
M  V30 7136 C 708.148 1.63063 -1.18375 0
M  V30 7137 O 707.204 2.36142 -0.894042 0
M  V30 7138 C 708.517 -0.0905858 -3.00564 0
M  V30 7139 C 710.065 -0.028575 -3.12987 0
M  V30 7140 C 710.54 -0.279799 -4.57145 0
M  V30 7141 N 712.031 -0.227476 -4.62641 0
M  V30 7142 C 712.766 -0.396073 -5.7203 0
M  V30 7143 N 712.262 -0.623572 -6.89988 0
M  V30 7144 N 714.055 -0.332173 -5.61118 0
M  V30 7145 H 706.206 -1.11042 -1.81062 0
M  V30 7146 H 708.469 -0.441235 -0.839056 0
M  V30 7147 H 708.175 -1.09006 -3.34381 0
M  V30 7148 H 708.049 0.619078 -3.72085 0
M  V30 7149 H 710.436 0.961471 -2.78998 0
M  V30 7150 H 710.517 -0.770905 -2.43907 0
M  V30 7151 H 710.161 -1.26704 -4.91842 0
M  V30 7152 H 710.091 0.48311 -5.24379 0
M  V30 7153 H 712.582 -0.0571723 -3.77857 0
M  V30 7154 H 712.895 -0.741745 -7.69232 0
M  V30 7155 H 711.24 -0.660153 -6.91858 0
M  V30 7156 H 714.431 -0.155051 -4.67843 0
M  V30 7157 H 714.604 -0.466994 -6.46315 0
M  V30 7158 N 708.01 1.57248 0.105221 0
M  V30 7159 C 709.259 1.84756 0.809198 0
M  V30 7160 C 709.572 0.756262 1.80389 0
M  V30 7161 O 710.778 0.918158 2.55504 0
M  V30 7162 C 709.234 3.27613 1.48989 0
M  V30 7163 C 708.842 4.44788 0.535484 0
M  V30 7164 C 710.586 3.64356 2.17819 0
M  V30 7165 C 708.493 5.78676 1.22019 0
M  V30 7166 H 707.423 0.689139 0.305946 0
M  V30 7167 H 710.074 1.83395 0.0620371 0
M  V30 7168 H 708.456 3.23485 2.28415 0
M  V30 7169 H 709.63 4.60243 -0.226557 0
M  V30 7170 H 707.945 4.16374 -0.0465769 0
M  V30 7171 H 710.542 4.61663 2.69761 0
M  V30 7172 H 710.885 2.92474 2.96251 0
M  V30 7173 H 711.418 3.70328 1.45264 0
M  V30 7174 H 708.157 6.53763 0.476875 0
M  V30 7175 H 707.677 5.67083 1.9539 0
M  V30 7176 H 709.356 6.22897 1.74952 0
M  V30 7177 N 709.488 -0.375779 1.53054 0
M  V30 7178 C 710.736 -1.11727 1.68409 0
M  V30 7179 C 711.057 -1.90127 0.43323 0
M  V30 7180 O 710.327 -1.87945 -0.552595 0
M  V30 7181 H 708.907 -0.415451 0.620813 0
M  V30 7182 H 711.569 -0.424869 1.90213 0
M  V30 7183 H 710.665 -1.8128 2.54055 0
M  V30 7184 N 710.966 -1.44241 -0.634997 0
M  V30 7185 C 712.243 -1.37296 -1.39317 0
M  V30 7186 C 712.623 -0.0297532 -2.11079 0
M  V30 7187 O 711.971 0.987524 -2.06059 0
M  V30 7188 C 712.181 -2.56853 -2.36279 0
M  V30 7189 C 713.529 -3.00747 -2.99728 0
M  V30 7190 O 714.553 -2.5703 -2.46605 0
M  V30 7191 O 713.412 -3.76533 -3.96087 0
M  V30 7192 H 710.506 -0.543503 -0.623325 0
M  V30 7193 H 713.052 -1.56324 -0.660376 0
M  V30 7194 H 711.824 -3.46228 -1.82324 0
M  V30 7195 H 711.447 -2.40019 -3.16981 0
M  V30 7196 N 712.444 0.87505 -1.31075 0
M  V30 7197 C 713.376 1.98773 -1.14114 0
M  V30 7198 C 714.389 1.62595 -0.0816119 0
M  V30 7199 O 715.578 1.75449 -0.32861 0
M  V30 7200 C 712.678 3.31159 -0.720224 0
M  V30 7201 C 711.851 3.9571 -1.86366 0
M  V30 7202 C 710.91 5.06407 -1.42965 0
M  V30 7203 O 709.936 5.27501 -2.13848 0
M  V30 7204 N 711.138 5.79649 -0.314194 0
M  V30 7205 H 713.903 2.1387 -2.09951 0
M  V30 7206 H 711.464 1.04873 -1.23342 0
M  V30 7207 H 713.456 4.0259 -0.412687 0
M  V30 7208 H 712.026 3.12257 0.146396 0
M  V30 7209 H 711.246 3.17324 -2.33879 0
M  V30 7210 H 712.534 4.35576 -2.62966 0
M  V30 7211 H 711.932 5.65025 0.276228 0
M  V30 7212 H 710.489 6.51766 -0.0661641 0
M  V30 7213 N 713.922 1.13953 1.08869 0
M  V30 7214 C 715.168 0.916103 1.81602 0
M  V30 7215 C 715.523 -0.551633 1.84322 0
M  V30 7216 O 714.816 -1.40322 1.30462 0
M  V30 7217 C 715.01 1.44495 3.26888 0
M  V30 7218 C 714.839 2.96257 3.38322 0
M  V30 7219 C 713.609 3.64658 3.49789 0
M  V30 7220 C 715.807 3.94156 3.30372 0
M  V30 7221 N 713.789 5.04379 3.49965 0
M  V30 7222 C 715.16 5.20101 3.37484 0
M  V30 7223 C 717.215 3.86342 3.14077 0
M  V30 7224 C 715.918 6.39145 3.29979 0
M  V30 7225 C 717.944 5.04927 3.07901 0
M  V30 7226 C 717.306 6.29738 3.1561 0
M  V30 7227 H 713.405 0.388701 0.678554 0
M  V30 7228 H 715.989 1.44879 1.3007 0
M  V30 7229 H 714.16 0.939102 3.76876 0
M  V30 7230 H 715.892 1.16193 3.87661 0
M  V30 7231 H 712.647 3.15196 3.5348 0
M  V30 7232 H 713.071 5.77305 3.53622 0
M  V30 7233 H 717.713 2.90726 3.06982 0
M  V30 7234 H 715.431 7.3501 3.35836 0
M  V30 7235 H 719.017 5.00626 2.9642 0
M  V30 7236 H 717.897 7.19958 3.10854 0
M  V30 7237 N 715.4 -1.26948 0.933913 0
M  V30 7238 C 716.677 -1.89212 0.495784 0
M  V30 7239 C 717.057 -1.84469 -1.02637 0
M  V30 7240 O 716.405 -1.29409 -1.88323 0
M  V30 7241 C 716.615 -3.32865 1.0489 0
M  V30 7242 C 717.963 -4.09749 1.11315 0
M  V30 7243 O 718.987 -3.41905 0.998966 0
M  V30 7244 O 717.846 -5.31061 1.28983 0
M  V30 7245 H 714.94 -0.811284 0.160459 0
M  V30 7246 H 717.486 -1.35171 1.02601 0
M  V30 7247 H 716.258 -3.30642 2.09265 0
M  V30 7248 H 715.881 -3.94435 0.500692 0
M  V30 7249 N 716.879 -0.700114 -1.41195 0
M  V30 7250 C 717.826 -0.0376652 -2.30769 0
M  V30 7251 C 718.796 0.766544 -1.47354 0
M  V30 7252 O 719.981 0.73365 -1.76131 0
M  V30 7253 C 717.121 0.889452 -3.33441 0
M  V30 7254 C 716.234 0.076373 -4.31932 0
M  V30 7255 C 715.369 1.00155 -5.21673 0
M  V30 7256 C 714.408 0.181644 -6.1183 0
M  V30 7257 N 713.545 1.06087 -6.94039 0
M  V30 7258 H 718.385 -0.80726 -2.86858 0
M  V30 7259 H 715.922 -0.409798 -1.41277 0
M  V30 7260 H 717.88 1.44107 -3.91522 0
M  V30 7261 H 716.51 1.6254 -2.78892 0
M  V30 7262 H 715.562 -0.592223 -3.75762 0
M  V30 7263 H 716.874 -0.559076 -4.95657 0
M  V30 7264 H 716.028 1.62223 -5.8461 0
M  V30 7265 H 714.767 1.67085 -4.58186 0
M  V30 7266 H 713.772 -0.452085 -5.47938 0
M  V30 7267 H 714.997 -0.483925 -6.77374 0
M  V30 7268 H 712.943 1.7161 -6.33156 0
M  V30 7269 H 712.86 0.481094 -7.54468 0
M  V30 7270 H 714.128 1.66822 -7.6144 0
M  V30 7271 N 718.357 1.51182 -0.445186 0
M  V30 7272 C 719.289 2.25714 0.398206 0
M  V30 7273 C 720.302 1.30032 0.979562 0
M  V30 7274 O 721.491 1.55731 0.872368 0
M  V30 7275 C 718.591 3.00348 1.56985 0
M  V30 7276 C 717.764 4.23187 1.10596 0
M  V30 7277 C 716.823 4.80334 2.14863 0
M  V30 7278 O 715.849 5.4196 1.73977 0
M  V30 7279 N 717.051 4.65053 3.47427 0
M  V30 7280 H 719.816 2.98732 -0.240629 0
M  V30 7281 H 717.377 1.59556 -0.274507 0
M  V30 7282 H 719.369 3.35464 2.26376 0
M  V30 7283 H 717.939 2.30291 2.11387 0
M  V30 7284 H 717.159 3.93476 0.238832 0
M  V30 7285 H 718.447 5.02886 0.773537 0
M  V30 7286 H 717.845 4.15984 3.83372 0
M  V30 7287 H 716.402 5.04509 4.12691 0
M  V30 7288 N 719.835 0.176821 1.56605 0
M  V30 7289 C 720.785 -0.763718 2.14829 0
M  V30 7290 C 721.769 -1.18903 1.08401 0
M  V30 7291 O 722.961 -1.15048 1.3451 0
M  V30 7292 C 720.09 -1.99069 2.7969 0
M  V30 7293 C 719.176 -1.58711 3.93283 0
M  V30 7294 N 719.567 -0.893423 4.97847 0
M  V30 7295 C 717.865 -1.87774 4.04545 0
M  V30 7296 C 718.566 -0.693866 5.77547 0
M  V30 7297 N 717.542 -1.23699 5.29339 0
M  V30 7298 H 721.344 -0.224811 2.93039 0
M  V30 7299 H 718.858 -0.0236563 1.62383 0
M  V30 7300 H 720.855 -2.67478 3.19783 0
M  V30 7301 H 719.515 -2.53449 2.02962 0
M  V30 7302 H 720.526 -0.550868 5.14962 0
M  V30 7303 H 717.203 -2.43793 3.38927 0
M  V30 7304 H 718.593 -0.144899 6.71744 0
M  V30 7305 N 721.313 -1.57302 -0.09688 0
M  V30 7306 C 722.59 -1.7701 -0.832272 0
M  V30 7307 C 722.97 -0.758025 -1.97021 0
M  V30 7308 O 722.318 0.213824 -2.27497 0
M  V30 7309 C 722.528 -3.22725 -1.32851 0
M  V30 7310 C 723.876 -3.85856 -1.772 0
M  V30 7311 O 724.9 -3.26464 -1.42478 0
M  V30 7312 O 723.759 -4.90295 -2.41398 0
M  V30 7313 H 720.853 -0.725558 -0.396856 0
M  V30 7314 H 723.399 -1.69516 -0.0789005 0
M  V30 7315 H 722.171 -3.87921 -0.51312 0
M  V30 7316 H 721.794 -3.34845 -2.14394 0
M  V30 7317 N 722.791 0.367657 -1.53252 0
M  V30 7318 C 723.724 1.47264 -1.74323 0
M  V30 7319 C 724.702 1.51458 -0.591535 0
M  V30 7320 O 725.886 1.69542 -0.823883 0
M  V30 7321 C 723.013 2.85637 -1.82015 0
M  V30 7322 C 722.059 2.99176 -3.03967 0
M  V30 7323 S 722.892 2.68147 -4.63527 0
M  V30 7324 C 724.048 4.08673 -4.74065 0
M  V30 7325 H 724.281 1.29169 -2.67773 0
M  V30 7326 H 721.814 0.561866 -1.43814 0
M  V30 7327 H 723.772 3.65365 -1.87132 0
M  V30 7328 H 722.433 3.01043 -0.896195 0
M  V30 7329 H 721.626 4.00511 -3.05953 0
M  V30 7330 H 721.228 2.27367 -2.96952 0
M  V30 7331 H 723.52 5.02889 -4.53992 0
M  V30 7332 H 724.463 4.11693 -5.7612 0
M  V30 7333 H 724.871 3.95576 -4.02716 0
M  V30 7334 N 724.269 1.44576 0.627338 0
M  V30 7335 C 725.517 1.47267 1.38408 0
M  V30 7336 C 725.838 0.107971 1.94701 0
M  V30 7337 O 725.108 -0.860206 1.76004 0
M  V30 7338 H 723.688 0.542276 0.513756 0
M  V30 7339 H 726.35 1.80383 0.738099 0
M  V30 7340 H 725.446 2.20025 2.21349 0
M  V30 7341 N 725.747 -0.868086 1.31537 0
M  V30 7342 C 726.697 -1.96321 1.1594 0
M  V30 7343 C 727.681 -1.60748 0.0698962 0
M  V30 7344 O 728.873 -1.74524 0.295011 0
M  V30 7345 C 726.002 -3.32073 0.870789 0
M  V30 7346 C 725.088 -3.73907 2.00136 0
M  V30 7347 N 725.479 -3.87685 3.24859 0
M  V30 7348 C 723.777 -4.03433 1.90152 0
M  V30 7349 C 724.478 -4.23454 3.98825 0
M  V30 7350 N 723.454 -4.34242 3.27009 0
M  V30 7351 H 727.256 -2.05088 2.10514 0
M  V30 7352 H 724.77 -1.059 1.23122 0
M  V30 7353 H 726.767 -4.10279 0.740034 0
M  V30 7354 H 725.427 -3.24631 -0.0667068 0
M  V30 7355 H 726.438 -3.72363 3.59953 0
M  V30 7356 H 723.115 -4.0437 1.03879 0
M  V30 7357 H 724.505 -4.41696 5.06314 0
M  V30 7358 N 727.225 -1.14528 -1.08264 0
M  V30 7359 C 728.158 -0.777154 -2.14559 0
M  V30 7360 C 729.136 0.242165 -1.60787 0
M  V30 7361 O 730.32 0.130882 -1.88045 0
M  V30 7362 C 727.447 -0.154092 -3.38349 0
M  V30 7363 C 726.493 -1.14382 -4.10876 0
M  V30 7364 S 727.326 -2.68173 -4.63512 0
M  V30 7365 C 728.482 -2.0726 -5.90588 0
M  V30 7366 H 728.715 -1.67748 -2.45454 0
M  V30 7367 H 726.248 -0.966661 -1.20395 0
M  V30 7368 H 728.206 0.19897 -4.10018 0
M  V30 7369 H 726.867 0.723688 -3.05649 0
M  V30 7370 H 726.06 -0.655908 -4.99714 0
M  V30 7371 H 725.662 -1.44095 -3.45127 0
M  V30 7372 H 727.954 -1.42895 -6.62259 0
M  V30 7373 H 728.897 -2.94227 -6.44078 0
M  V30 7374 H 729.305 -1.51935 -5.43669 0
M  V30 7375 N 728.703 1.26451 -0.940633 0
M  V30 7376 C 729.636 2.24771 -0.394094 0
M  V30 7377 C 730.614 1.54169 0.516781 0
M  V30 7378 O 731.798 1.82942 0.454352 0
M  V30 7379 C 728.925 3.3591 0.433807 0
M  V30 7380 C 727.971 4.24472 -0.415464 0
M  V30 7381 S 728.804 5.0293 -1.83907 0
M  V30 7382 C 729.96 6.17546 -1.01921 0
M  V30 7383 H 730.193 2.70782 -1.22737 0
M  V30 7384 H 727.726 1.35308 -0.743709 0
M  V30 7385 H 729.684 4.00387 0.905576 0
M  V30 7386 H 728.345 2.88512 1.24175 0
M  V30 7387 H 727.538 5.03525 0.218833 0
M  V30 7388 H 727.14 3.64857 -0.821897 0
M  V30 7389 H 729.432 6.76996 -0.261227 0
M  V30 7390 H 730.375 6.8528 -1.78318 0
M  V30 7391 H 730.783 5.6176 -0.555511 0
M  V30 7392 N 730.181 0.707592 1.40822 0
M  V30 7393 C 731.597 0.38034 1.55002 0
M  V30 7394 C 731.797 -1.11163 1.68062 0
M  V30 7395 O 730.853 -1.89761 1.66574 0
M  V30 7396 C 732.166 1.1394 2.78277 0
M  V30 7397 C 733.714 1.12492 2.92087 0
M  V30 7398 C 734.189 1.86597 4.18265 0
M  V30 7399 N 735.68 1.83626 4.25248 0
M  V30 7400 C 736.415 2.37794 5.21768 0
M  V30 7401 N 735.911 3.00485 6.24244 0
M  V30 7402 N 737.704 2.27982 5.13791 0
M  V30 7403 H 729.855 1.67511 1.3059 0
M  V30 7404 H 732.118 0.707579 0.630901 0
M  V30 7405 H 731.824 2.19398 2.74877 0
M  V30 7406 H 731.698 0.725793 3.70151 0
M  V30 7407 H 734.085 0.0785564 2.94995 0
M  V30 7408 H 734.166 1.57768 2.01353 0
M  V30 7409 H 733.81 2.91219 4.16118 0
M  V30 7410 H 733.74 1.38746 5.07993 0
M  V30 7411 H 736.231 1.3793 3.51829 0
M  V30 7412 H 736.544 3.39355 6.94304 0
M  V30 7413 H 734.889 3.04567 6.24711 0
M  V30 7414 H 738.08 1.78669 4.3266 0
M  V30 7415 H 738.253 2.70499 5.88841 0
M  V30 7416 N 731.66 -1.50943 0.453197 0
M  V30 7417 C 732.9 -2.0412 -0.106894 0
M  V30 7418 C 733.264 -1.32895 -1.38575 0
M  V30 7419 O 734.465 -1.76529 -2.02709 0
M  V30 7420 C 732.736 -3.561 -0.304565 0
M  V30 7421 S 734.295 -4.3096 -0.825784 0
M  V30 7422 H 731.113 -0.710581 -0.0243969 0
M  V30 7423 H 733.715 -1.85534 0.616239 0
M  V30 7424 H 732.419 -4.055 0.632277 0
M  V30 7425 H 731.95 -3.79009 -1.05433 0
M  V30 7426 H 733.965 -4.49503 -2.10147 0
M  V30 7427 N 733.138 -0.185124 -1.56509 0
M  V30 7428 C 734.366 0.462139 -2.01673 0
M  V30 7429 C 734.781 1.55873 -1.06532 0
M  V30 7430 O 734.138 1.82371 -0.0684805 0
M  V30 7431 C 734.189 1.0277 -3.46584 0
M  V30 7432 O 733.91 -0.0251296 -4.38093 0
M  V30 7433 C 735.411 1.75183 -4.07217 0
M  V30 7434 H 732.631 0.117001 -0.660721 0
M  V30 7435 H 735.175 -0.290905 -2.0242 0
M  V30 7436 H 733.33 1.73118 -3.46568 0
M  V30 7437 H 733.744 0.394387 -5.23015 0
M  V30 7438 H 735.218 2.09999 -5.10494 0
M  V30 7439 H 735.695 2.6519 -3.50101 0
M  V30 7440 H 736.301 1.09445 -4.10977 0
M  V30 7441 N 734.616 1.57351 0.0885366 0
M  V30 7442 C 735.856 1.88248 0.796362 0
M  V30 7443 C 736.22 0.776915 1.75579 0
M  V30 7444 O 737.421 0.968485 2.50747 0
M  V30 7445 C 735.692 3.24385 1.50031 0
M  V30 7446 S 737.251 3.76991 2.24551 0
M  V30 7447 H 734.069 0.659697 0.265181 0
M  V30 7448 H 736.671 1.95428 0.0531843 0
M  V30 7449 H 735.375 4.02764 0.788 0
M  V30 7450 H 734.906 3.20361 2.28325 0
M  V30 7451 H 736.921 3.50933 3.508 0
M  V30 7452 N 736.094 -0.359525 1.53444 0
M  V30 7453 C 737.34 -1.10315 1.70172 0
M  V30 7454 C 737.673 -1.88788 0.455287 0
M  V30 7455 O 736.948 -1.86635 -0.547514 0
M  V30 7456 C 737.231 -2.05744 2.95536 0
M  V30 7457 C 737.084 -1.3084 4.3035 0
M  V30 7458 C 738.403 -3.05784 3.16518 0
M  V30 7459 H 735.522 -0.399662 0.619225 0
M  V30 7460 H 738.164 -0.383338 1.86093 0
M  V30 7461 H 736.314 -2.67125 2.82093 0
M  V30 7462 H 737.986 -0.721959 4.55615 0
M  V30 7463 H 736.229 -0.610283 4.29486 0
M  V30 7464 H 736.9 -2.00718 5.14214 0
M  V30 7465 H 739.376 -2.5451 3.29187 0
M  V30 7466 H 738.252 -3.69772 4.05659 0
M  V30 7467 H 738.513 -3.76289 2.32076 0
M  V30 7468 N 737.572 -1.44907 -0.619662 0
M  V30 7469 C 738.82 -1.47999 -1.37625 0
M  V30 7470 C 739.141 -0.118295 -1.94641 0
M  V30 7471 O 738.411 0.85086 -1.76457 0
M  V30 7472 H 736.991 -0.544993 -0.510873 0
M  V30 7473 H 739.653 -1.80772 -0.728522 0
M  V30 7474 H 738.749 -2.21196 -2.20179 0
M  V30 7475 N 739.05 0.861098 -1.31996 0
M  V30 7476 C 739.998 1.99052 -1.20337 0
M  V30 7477 C 740.992 1.69045 -0.109623 0
M  V30 7478 O 742.198 1.77931 -0.272117 0
M  V30 7479 H 738.573 0.653064 -0.372843 0
M  V30 7480 H 740.544 2.06015 -2.15872 0
M  V30 7481 C 739.293 3.34846 -0.936663 0
M  V30 7482 H 738.616 3.58462 -1.77045 0
M  V30 7483 H 740.056 4.1444 -0.895302 0
M  V30 7484 C 738.515 3.34965 0.360607 0
M  V30 7485 O 739.045 3.7745 1.37456 0
M  V30 7486 N 737.251 2.88101 0.380296 0
M  V30 7487 H 736.798 2.53721 -0.445351 0
M  V30 7488 H 736.756 2.88563 1.24816 0
M  V30 7489 N 740.528 1.15101 1.07655 0
M  V30 7490 C 741.776 0.922149 1.79836 0
M  V30 7491 C 742.097 -0.552346 1.87014 0
M  V30 7492 O 741.367 -1.40145 1.3688 0
M  V30 7493 H 739.947 0.338182 0.666064 0
M  V30 7494 H 742.609 1.45107 1.30115 0
M  V30 7495 H 741.705 1.32883 2.82398 0
M  V30 7496 N 742.006 -1.2595 0.947325 0
M  V30 7497 C 743.422 -1.45737 0.650597 0
M  V30 7498 C 743.622 -1.85189 -0.794188 0
M  V30 7499 O 742.678 -1.97738 -1.57022 0
M  V30 7500 C 743.991 -2.53505 1.61728 0
M  V30 7501 C 745.539 -2.67351 1.62765 0
M  V30 7502 C 746.014 -3.78296 2.58179 0
M  V30 7503 N 747.505 -3.85696 2.56501 0
M  V30 7504 C 748.24 -4.71012 3.2701 0
M  V30 7505 N 747.736 -5.60669 4.06966 0
M  V30 7506 N 749.529 -4.64912 3.15932 0
M  V30 7507 H 741.68 -0.986327 1.8811 0
M  V30 7508 H 743.943 -0.494639 0.808725 0
M  V30 7509 H 743.649 -2.31357 2.6489 0
M  V30 7510 H 743.523 -3.51281 1.3741 0
M  V30 7511 H 745.91 -2.88869 0.603241 0
M  V30 7512 H 745.991 -1.69998 1.91139 0
M  V30 7513 H 745.635 -3.5753 3.60742 0
M  V30 7514 H 745.565 -4.75117 2.27093 0
M  V30 7515 H 748.056 -3.21601 1.98447 0
M  V30 7516 H 748.369 -6.22677 4.57704 0
M  V30 7517 H 746.714 -5.60402 4.11066 0
M  V30 7518 H 749.905 -3.93874 2.52945 0
M  V30 7519 H 750.078 -5.3118 3.71149 0
M  V30 7520 N 743.484 -0.715051 -1.40445 0
M  V30 7521 C 744.732 -0.253826 -2.005 0
M  V30 7522 C 745.053 1.15681 -1.5698 0
M  V30 7523 O 744.323 1.78414 -0.809027 0
M  V30 7524 H 742.903 -0.0908537 -0.741454 0
M  V30 7525 H 745.565 -0.920561 -1.7179 0
M  V30 7526 H 744.661 -0.286499 -3.10782 0
M  V30 7527 N 744.962 1.50701 -0.461195 0
M  V30 7528 C 745.872 2.32069 0.343661 0
M  V30 7529 C 746.888 1.42016 1.00535 0
M  V30 7530 O 748.064 1.75077 0.995498 0
M  V30 7531 C 745.129 3.16424 1.41692 0
M  V30 7532 C 744.19 4.22286 0.772869 0
M  V30 7533 C 743.423 5.02609 1.79499 0
M  V30 7534 O 743.646 4.83874 3.0203 0
M  V30 7535 O 742.58 5.86047 1.3723 0
M  V30 7536 H 746.406 3.01996 -0.321268 0
M  V30 7537 H 743.991 1.47723 -0.223235 0
M  V30 7538 H 745.873 3.68795 2.03883 0
M  V30 7539 H 744.548 2.49236 2.0655 0
M  V30 7540 H 743.455 3.73931 0.112277 0
M  V30 7541 H 744.788 4.91915 0.167399 0
M  V30 7542 N 746.441 0.193421 1.56409 0
M  V30 7543 C 747.687 -0.43983 1.98588 0
M  V30 7544 C 748.042 -1.59353 1.07816 0
M  V30 7545 O 747.335 -1.9121 0.122226 0
M  V30 7546 C 747.529 -0.949718 3.44551 0
M  V30 7547 C 747.358 0.153045 4.49439 0
M  V30 7548 C 746.128 0.610119 5.01603 0
M  V30 7549 C 748.326 0.961397 5.05234 0
M  V30 7550 N 746.308 1.69088 5.90155 0
M  V30 7551 C 747.679 1.8916 5.90439 0
M  V30 7552 C 749.734 1.004 4.87672 0
M  V30 7553 C 748.437 2.86086 6.5996 0
M  V30 7554 C 750.463 1.96131 5.57931 0
M  V30 7555 C 749.825 2.87895 6.42881 0
M  V30 7556 H 745.924 -0.128415 0.771384 0
M  V30 7557 H 748.508 0.29873 1.92395 0
M  V30 7558 H 746.679 -1.65772 3.51246 0
M  V30 7559 H 748.411 -1.55344 3.73698 0
M  V30 7560 H 745.166 0.203771 4.73161 0
M  V30 7561 H 745.59 2.23241 6.39134 0
M  V30 7562 H 750.232 0.308536 4.21673 0
M  V30 7563 H 747.95 3.56609 7.25159 0
M  V30 7564 H 751.536 2.00066 5.46319 0
M  V30 7565 H 750.416 3.60763 6.9629 0
M  V30 7566 N 747.919 -1.57396 -0.0801906 0
M  V30 7567 C 749.147 -1.91055 -0.794075 0
M  V30 7568 C 749.562 -0.788583 -1.71542 0
M  V30 7569 O 748.919 0.238587 -1.80934 0
M  V30 7570 C 748.97 -3.24418 -1.59484 0
M  V30 7571 O 748.691 -4.323 -0.710532 0
M  V30 7572 C 750.192 -3.72037 -2.41046 0
M  V30 7573 H 747.412 -0.63171 -0.226238 0
M  V30 7574 H 749.956 -2.04431 -0.0529685 0
M  V30 7575 H 748.111 -3.12595 -2.2883 0
M  V30 7576 H 748.525 -5.08976 -1.26663 0
M  V30 7577 H 749.999 -4.68006 -2.92702 0
M  V30 7578 H 750.476 -3.00624 -3.2019 0
M  V30 7579 H 751.082 -3.86777 -1.76871 0
M  V30 7580 N 749.397 0.351382 -1.53633 0
M  V30 7581 C 750.637 1.10102 -1.72212 0
M  V30 7582 C 751.001 1.86128 -0.471198 0
M  V30 7583 O 752.202 2.63445 -0.533887 0
M  V30 7584 C 750.473 2.02348 -2.94602 0
M  V30 7585 S 752.032 2.84641 -3.33954 0
M  V30 7586 H 748.85 0.372145 -0.60583 0
M  V30 7587 H 751.452 0.38044 -1.91763 0
M  V30 7588 H 750.156 1.45283 -3.83824 0
M  V30 7589 H 749.687 2.78856 -2.77493 0
M  V30 7590 H 751.702 4.04724 -2.87076 0
M  V30 7591 N 750.875 1.45233 0.611969 0
M  V30 7592 C 752.124 1.48296 1.36716 0
M  V30 7593 C 752.437 0.12706 1.95187 0
M  V30 7594 O 753.643 0.0353066 2.71477 0
M  V30 7595 C 752.099 2.61168 2.47627 0
M  V30 7596 C 751.707 4.03051 1.95587 0
M  V30 7597 C 753.451 2.73472 3.24674 0
M  V30 7598 C 751.358 5.07312 3.03954 0
M  V30 7599 H 750.288 0.5518 0.513841 0
M  V30 7600 H 752.939 1.7136 0.656359 0
M  V30 7601 H 751.321 2.31379 3.21372 0
M  V30 7602 H 752.495 4.42497 1.2858 0
M  V30 7603 H 750.81 3.95158 1.31298 0
M  V30 7604 H 753.407 3.48537 4.05494 0
M  V30 7605 H 753.75 1.79953 3.75397 0
M  V30 7606 H 754.283 3.02765 2.58028 0
M  V30 7607 H 751.022 6.02525 2.58154 0
M  V30 7608 H 750.542 4.7244 3.69541 0
M  V30 7609 H 752.221 5.31867 3.6841 0
M  V30 7610 N 752.353 -0.854086 1.3245 0
M  V30 7611 C 753.316 -1.94427 1.21371 0
M  V30 7612 C 754.316 -1.60219 0.136613 0
M  V30 7613 O 755.506 -1.69846 0.387057 0
M  V30 7614 C 752.638 -3.29698 0.866701 0
M  V30 7615 H 753.831 -2.05679 2.18257 0
M  V30 7616 H 751.384 -1.04434 1.1629 0
M  V30 7617 H 752.119 -3.24145 -0.100319 0
M  V30 7618 H 751.904 -3.55903 1.64545 0
M  V30 7619 H 753.394 -4.09599 0.813515 0
M  V30 7620 N 753.831 -1.1567 -1.07043 0
M  V30 7621 C 755.061 -0.956083 -1.83146 0
M  V30 7622 C 755.469 0.498969 -1.82502 0
M  V30 7623 O 754.812 1.35791 -1.23719 0
M  V30 7624 C 754.874 -1.39704 -3.31245 0
M  V30 7625 C 754.538 -2.87045 -3.55604 0
M  V30 7626 C 755.535 -3.85092 -3.49285 0
M  V30 7627 C 753.22 -3.24787 -3.8317 0
M  V30 7628 C 755.214 -5.18885 -3.70185 0
M  V30 7629 C 752.901 -4.58751 -4.03721 0
M  V30 7630 C 753.899 -5.55609 -3.97224 0
M  V30 7631 O 753.587 -6.87154 -4.17223 0
M  V30 7632 H 753.319 -0.339473 -0.58458 0
M  V30 7633 H 755.873 -1.53922 -1.36005 0
M  V30 7634 H 754.103 -0.757326 -3.79212 0
M  V30 7635 H 755.792 -1.16503 -3.88821 0
M  V30 7636 H 756.558 -3.5728 -3.27988 0
M  V30 7637 H 752.437 -2.49979 -3.87339 0
M  V30 7638 H 755.981 -5.94473 -3.6503 0
M  V30 7639 H 751.878 -4.86277 -4.24505 0
M  V30 7640 H 752.646 -6.93618 -4.34553 0
M  V30 7641 N 755.309 1.25446 -0.953992 0
M  V30 7642 C 756.534 1.97755 -0.625129 0
M  V30 7643 C 756.959 1.70437 0.795787 0
M  V30 7644 O 756.317 0.95992 1.53803 0
M  V30 7645 C 756.365 3.49463 -0.889251 0
M  V30 7646 O 755.469 4.12387 0.0322757 0
M  V30 7647 H 754.81 0.61998 -0.237742 0
M  V30 7648 H 757.34 1.59582 -1.28041 0
M  V30 7649 H 757.35 3.99772 -0.815263 0
M  V30 7650 H 756.025 3.68676 -1.92487 0
M  V30 7651 H 754.602 3.72782 -0.0938625 0
M  V30 7652 N 756.787 0.722489 1.40064 0
M  V30 7653 C 757.719 0.0349057 2.29173 0
M  V30 7654 C 758.732 -0.716571 1.46182 0
M  V30 7655 O 759.921 -0.562806 1.69395 0
M  V30 7656 C 757.021 -0.974839 3.24577 0
M  V30 7657 C 756.194 -0.287471 4.36454 0
M  V30 7658 C 755.253 -1.20356 5.12251 0
M  V30 7659 O 754.279 -0.685753 5.65054 0
M  V30 7660 N 755.481 -2.53422 5.22262 0
M  V30 7661 H 758.246 0.800058 2.88824 0
M  V30 7662 H 755.807 0.57068 1.51509 0
M  V30 7663 H 757.799 -1.59002 3.72157 0
M  V30 7664 H 756.369 -1.6413 2.66046 0
M  V30 7665 H 755.589 0.508008 3.90913 0
M  V30 7666 H 756.877 0.189382 5.08447 0
M  V30 7667 H 756.275 -2.97981 4.80857 0
M  V30 7668 H 754.832 -3.10067 5.73325 0
M  V30 7669 N 758.265 -1.50454 0.469181 0
M  V30 7670 C 759.195 -2.31353 -0.31592 0
M  V30 7671 C 760.176 -1.38172 -0.992094 0
M  V30 7672 O 761.361 -1.67093 -0.989633 0
M  V30 7673 C 758.491 -3.1786 -1.39937 0
M  V30 7674 C 757.445 -4.19578 -0.844909 0
M  V30 7675 C 756.771 -4.9481 -2.0265 0
M  V30 7676 C 758.071 -5.22106 0.142499 0
M  V30 7677 H 759.765 -2.97237 0.359269 0
M  V30 7678 H 757.311 -1.42942 0.174224 0
M  V30 7679 H 759.264 -3.7325 -1.95607 0
M  V30 7680 H 757.988 -2.49858 -2.1033 0
M  V30 7681 H 756.647 -3.65285 -0.310189 0
M  V30 7682 H 756.295 -4.23282 -2.71737 0
M  V30 7683 H 755.995 -5.63613 -1.66174 0
M  V30 7684 H 757.519 -5.53035 -2.58815 0
M  V30 7685 H 758.933 -5.72378 -0.324966 0
M  V30 7686 H 757.33 -5.98618 0.421441 0
M  V30 7687 H 758.4 -4.7297 1.06901 0
M  V30 7688 N 759.743 -0.201713 -1.56304 0
M  V30 7689 C 761.159 0.154025 -1.58855 0
M  V30 7690 C 761.359 1.60516 -1.21807 0
M  V30 7691 O 760.415 2.34193 -0.94393 0
M  V30 7692 C 761.728 -0.154319 -3.00304 0
M  V30 7693 C 763.276 -0.0949578 -3.12856 0
M  V30 7694 C 763.751 -0.376703 -4.56448 0
M  V30 7695 N 765.242 -0.325558 -4.62054 0
M  V30 7696 C 765.977 -0.51732 -5.71062 0
M  V30 7697 N 765.473 -0.769789 -6.8851 0
M  V30 7698 N 767.266 -0.45112 -5.60287 0
M  V30 7699 H 759.417 -1.14858 -1.78666 0
M  V30 7700 H 761.68 -0.458934 -0.829508 0
M  V30 7701 H 761.386 -1.16074 -3.31994 0
M  V30 7702 H 761.26 0.540014 -3.73314 0
M  V30 7703 H 763.647 0.902075 -2.80974 0
M  V30 7704 H 763.728 -0.822468 -2.42217 0
M  V30 7705 H 763.372 -1.37108 -4.89044 0
M  V30 7706 H 763.302 0.371772 -5.25286 0
M  V30 7707 H 765.793 -0.137308 -3.7765 0
M  V30 7708 H 766.106 -0.904744 -7.67486 0
M  V30 7709 H 764.451 -0.806758 -6.90302 0
M  V30 7710 H 767.642 -0.254253 -4.67409 0
M  V30 7711 H 767.815 -0.603982 -6.45179 0
M  V30 7712 N 761.222 1.57436 0.0718424 0
M  V30 7713 C 762.499 1.78312 0.804006 0
M  V30 7714 C 762.879 0.789273 1.9579 0
M  V30 7715 O 762.227 -0.177605 2.27809 0
M  V30 7716 C 762.437 3.24798 1.277 0
M  V30 7717 C 763.785 3.88627 1.71039 0
M  V30 7718 O 764.809 3.28689 1.37266 0
M  V30 7719 O 763.668 4.94073 2.33567 0
M  V30 7720 H 760.762 0.73178 0.385262 0
M  V30 7721 H 763.308 1.69621 0.0519219 0
M  V30 7722 H 762.08 3.88688 0.45134 0
M  V30 7723 H 761.703 3.38213 2.0904 0
M  V30 7724 N 762.7 -0.34323 1.53817 0
M  V30 7725 C 763.632 -1.44216 1.78141 0
M  V30 7726 C 764.645 -1.48701 0.662721 0
M  V30 7727 O 765.834 -1.51778 0.939458 0
M  V30 7728 C 762.934 -2.82872 1.86646 0
M  V30 7729 C 762.107 -3.01824 3.16577 0
M  V30 7730 C 761.166 -4.20723 3.16036 0
M  V30 7731 O 760.192 -4.14824 3.89756 0
M  V30 7732 N 761.394 -5.29276 2.38427 0
M  V30 7733 H 764.159 -1.23721 2.72971 0
M  V30 7734 H 761.72 -0.53311 1.52871 0
M  V30 7735 H 763.712 -3.60588 1.83735 0
M  V30 7736 H 762.282 -2.96509 0.990014 0
M  V30 7737 H 761.502 -2.11575 3.3261 0
M  V30 7738 H 762.79 -3.11369 4.02402 0
M  V30 7739 H 762.188 -5.36938 1.78085 0
M  V30 7740 H 760.745 -6.05484 2.41313 0
M  V30 7741 N 764.178 -1.45556 -0.604258 0
M  V30 7742 C 765.418 -1.51289 -1.37445 0
M  V30 7743 C 765.782 -0.152112 -1.91397 0
M  V30 7744 O 766.983 -0.0841419 -2.68668 0
M  V30 7745 C 765.254 -2.5646 -2.48924 0
M  V30 7746 S 766.813 -2.81442 -3.36654 0
M  V30 7747 H 763.631 -0.534774 -0.468549 0
M  V30 7748 H 766.233 -1.82657 -0.696902 0
M  V30 7749 H 764.937 -3.53995 -2.07644 0
M  V30 7750 H 764.468 -2.26753 -3.21476 0
M  V30 7751 H 766.483 -2.15074 -4.47166 0
M  V30 7752 N 765.656 0.84705 -1.32902 0
M  V30 7753 C 766.905 1.59667 -1.23245 0
M  V30 7754 C 767.218 1.94551 0.202349 0
M  V30 7755 O 768.424 2.68218 0.420847 0
M  V30 7756 C 766.88 2.8795 -2.15901 0
M  V30 7757 C 766.488 2.60461 -3.64505 0
M  V30 7758 C 768.232 3.65968 -2.15098 0
M  V30 7759 C 766.139 3.84791 -4.49099 0
M  V30 7760 H 765.069 0.599167 -0.457728 0
M  V30 7761 H 767.72 0.934662 -1.57912 0
M  V30 7762 H 766.102 3.55648 -1.74157 0
M  V30 7763 H 767.276 2.01026 -4.14639 0
M  V30 7764 H 765.591 1.9576 -3.67515 0
M  V30 7765 H 768.188 4.58241 -2.75534 0
M  V30 7766 H 768.531 4.00275 -1.14392 0
M  V30 7767 H 769.064 3.05184 -2.55162 0
M  V30 7768 H 765.803 3.55621 -5.50649 0
M  V30 7769 H 765.323 4.43594 -4.03713 0
M  V30 7770 H 767.002 4.52454 -4.62487 0
M  V30 7771 N 767.134 1.16236 1.06428 0
M  V30 7772 C 768.38 0.944431 1.79467 0
M  V30 7773 C 768.713 -0.526558 1.86925 0
M  V30 7774 O 767.988 -1.39061 1.35986 0
M  V30 7775 C 768.271 1.57092 3.24028 0
M  V30 7776 C 768.124 3.11315 3.24658 0
M  V30 7777 C 769.443 1.26447 4.21544 0
M  V30 7778 H 766.562 0.344521 0.651517 0
M  V30 7779 H 769.204 1.43545 1.24478 0
M  V30 7780 H 767.354 1.15337 3.70985 0
M  V30 7781 H 769.026 3.62042 2.85873 0
M  V30 7782 H 767.269 3.44716 2.6335 0
M  V30 7783 H 767.94 3.50269 4.26633 0
M  V30 7784 H 770.416 1.62581 3.83023 0
M  V30 7785 H 769.292 1.72885 5.20963 0
M  V30 7786 H 769.553 0.183068 4.41721 0
M  V30 7787 N 768.612 -1.24939 0.960631 0
M  V30 7788 C 769.889 -1.88118 0.535807 0
M  V30 7789 C 770.269 -1.86605 -0.987009 0
M  V30 7790 O 769.617 -1.33375 -1.85536 0
M  V30 7791 C 769.827 -3.30565 1.11927 0
M  V30 7792 C 771.175 -4.07296 1.19981 0
M  V30 7793 O 772.199 -3.39709 1.07126 0
M  V30 7794 O 771.058 -5.28206 1.40218 0
M  V30 7795 H 768.152 -0.807698 0.177631 0
M  V30 7796 H 770.698 -1.32964 1.05445 0
M  V30 7797 H 769.47 -3.26128 2.16231 0
M  V30 7798 H 769.093 -3.93284 0.584245 0
M  V30 7799 N 770.09 -0.729906 -1.39679 0
M  V30 7800 C 771.367 -0.202149 -1.94553 0
M  V30 7801 C 771.747 1.29507 -1.66707 0
M  V30 7802 O 771.095 2.05819 -0.992517 0
M  V30 7803 C 771.305 -0.530279 -3.44948 0
M  V30 7804 C 772.653 -0.476808 -4.21914 0
M  V30 7805 O 773.677 -0.467171 -3.53123 0
M  V30 7806 O 772.536 -0.466869 -5.44502 0
M  V30 7807 H 769.63 -0.0351644 -0.826252 0
M  V30 7808 H 772.176 -0.808417 -1.49207 0
M  V30 7809 H 770.948 -1.56526 -3.5863 0
M  V30 7810 H 770.571 0.10522 -3.97461 0
M  V30 7811 N 771.568 1.50203 -0.477153 0
M  V30 7812 C 772.817 2.01551 0.0774548 0
M  V30 7813 C 773.13 1.36359 1.40234 0
M  V30 7814 O 774.336 1.78898 2.04225 0
M  V30 7815 C 772.792 3.59406 0.188539 0
M  V30 7816 C 772.4 4.3356 -1.12828 0
M  V30 7817 C 774.144 4.18776 0.694782 0
M  V30 7818 C 772.051 5.83213 -0.98066 0
M  V30 7819 H 770.981 0.75329 0.0327212 0
M  V30 7820 H 773.632 1.72959 -0.612969 0
M  V30 7821 H 772.014 3.84611 0.942881 0
M  V30 7822 H 773.188 4.20074 -1.89405 0
M  V30 7823 H 771.503 3.85827 -1.5661 0
M  V30 7824 H 774.1 5.28338 0.822356 0
M  V30 7825 H 774.443 3.80557 1.68766 0
M  V30 7826 H 774.976 3.978 -0.00234519 0
M  V30 7827 H 771.715 6.25914 -1.94709 0
M  V30 7828 H 771.235 5.99256 -0.255375 0
M  V30 7829 H 772.914 6.4373 -0.649717 0
M  V30 7830 N 773.046 0.209999 1.56195 0
M  V30 7831 C 774.274 -0.429996 2.02382 0
M  V30 7832 C 774.689 -1.54159 1.08998 0
M  V30 7833 O 774.046 -1.82239 0.0974856 0
M  V30 7834 C 774.097 -0.972433 3.48175 0
M  V30 7835 O 773.818 0.0948231 4.37997 0
M  V30 7836 C 775.319 -1.68683 4.09952 0
M  V30 7837 H 772.539 -0.106475 0.662498 0
M  V30 7838 H 775.083 0.323072 2.01932 0
M  V30 7839 H 773.238 -1.67582 3.49278 0
M  V30 7840 H 773.652 -0.31113 5.23576 0
M  V30 7841 H 775.126 -2.01851 5.13771 0
M  V30 7842 H 775.603 -2.59587 3.54276 0
M  V30 7843 H 776.209 -1.02893 4.12666 0
M  V30 7844 N 774.524 -1.57472 -0.0634922 0
M  V30 7845 C 775.754 -1.91608 -0.772645 0
M  V30 7846 C 776.162 -0.805019 -1.71219 0
M  V30 7847 O 775.505 0.229941 -1.82255 0
M  V30 7848 C 775.567 -3.21281 -1.61304 0
M  V30 7849 C 775.231 -4.49177 -0.841973 0
M  V30 7850 C 776.228 -5.19661 -0.157494 0
M  V30 7851 C 773.913 -4.9578 -0.80669 0
M  V30 7852 C 775.907 -6.35006 0.551948 0
M  V30 7853 C 773.594 -6.11028 -0.0934812 0
M  V30 7854 C 774.592 -6.80493 0.58463 0
M  V30 7855 O 774.28 -7.93542 1.28633 0
M  V30 7856 H 774.012 -0.637685 -0.224352 0
M  V30 7857 H 776.566 -2.05369 -0.0355279 0
M  V30 7858 H 774.796 -3.03752 -2.39315 0
M  V30 7859 H 776.485 -3.41003 -2.20162 0
M  V30 7860 H 777.251 -4.84681 -0.176006 0
M  V30 7861 H 773.13 -4.41579 -1.32397 0
M  V30 7862 H 776.674 -6.89161 1.0818 0
M  V30 7863 H 772.571 -6.45459 -0.0729258 0
M  V30 7864 H 773.339 -8.09708 1.19646 0
M  V30 7865 N 776.003 0.335068 -1.53997 0
M  V30 7866 C 776.951 1.43206 -1.83289 0
M  V30 7867 C 777.945 1.54081 -0.703953 0
M  V30 7868 O 779.151 1.56603 -0.887432 0
M  V30 7869 H 775.526 0.477655 -0.580818 0
M  V30 7870 H 777.497 1.15719 -2.75049 0
M  V30 7871 C 776.246 2.79602 -2.06683 0
M  V30 7872 H 775.569 2.72004 -2.93008 0
M  V30 7873 H 777.009 3.55459 -2.31139 0
M  V30 7874 C 775.468 3.25873 -0.854883 0
M  V30 7875 O 775.998 4.01657 -0.0584648 0
M  V30 7876 N 774.204 2.82777 -0.669729 0
M  V30 7877 H 773.751 2.21269 -1.31901 0
M  V30 7878 H 773.709 3.1409 0.13969 0
M  V30 7879 N 777.481 1.45874 0.596531 0
M  V30 7880 C 778.727 1.5069 1.35722 0
M  V30 7881 C 779.06 0.152506 1.936 0
M  V30 7882 O 778.335 -0.834411 1.75692 0
M  V30 7883 C 778.618 2.59474 2.4969 0
M  V30 7884 C 778.471 4.04396 1.96937 0
M  V30 7885 C 779.79 2.64451 3.51787 0
M  V30 7886 H 776.909 0.548611 0.492133 0
M  V30 7887 H 779.551 1.77741 0.671428 0
M  V30 7888 H 777.701 2.36539 3.08191 0
M  V30 7889 H 779.373 4.38576 1.43 0
M  V30 7890 H 777.616 4.14529 1.27859 0
M  V30 7891 H 778.287 4.76218 2.79143 0
M  V30 7892 H 780.763 2.85031 3.03145 0
M  V30 7893 H 779.639 3.42411 4.29006 0
M  V30 7894 H 779.9 1.69965 4.08123 0
M  V30 7895 N 778.959 -0.83999 1.33349 0
M  V30 7896 C 779.907 -1.97113 1.23488 0
M  V30 7897 C 780.901 -1.68849 0.136503 0
M  V30 7898 O 782.107 -1.77476 0.300389 0
M  V30 7899 H 778.482 -0.647049 0.383185 0
M  V30 7900 H 780.453 -2.02554 2.19122 0
M  V30 7901 C 779.202 -3.33314 0.989815 0
M  V30 7902 H 778.525 -3.556 1.82726 0
M  V30 7903 H 779.965 -4.12963 0.961123 0
M  V30 7904 C 778.424 -3.35496 -0.307272 0
M  V30 7905 O 778.954 -3.79589 -1.31434 0
M  V30 7906 N 777.16 -2.88669 -0.334414 0
M  V30 7907 H 776.707 -2.5298 0.485659 0
M  V30 7908 H 776.665 -2.90512 -1.20209 0
M  V30 7909 N 780.437 -1.16799 -1.0581 0
M  V30 7910 C 781.714 -0.862616 -1.75551 0
M  V30 7911 C 782.094 0.6385 -2.01212 0
M  V30 7912 O 781.442 1.58784 -1.64317 0
M  V30 7913 C 781.652 -1.6907 -3.05314 0
M  V30 7914 C 783 -1.90675 -3.79379 0
M  V30 7915 O 784.024 -1.65976 -3.15167 0
M  V30 7916 O 782.883 -2.32145 -4.94743 0
M  V30 7917 H 779.977 -0.318789 -0.763088 0
M  V30 7918 H 782.523 -1.27461 -1.12034 0
M  V30 7919 H 781.295 -2.70912 -2.82352 0
M  V30 7920 H 780.918 -1.27606 -3.76567 0
M  V30 7921 N 781.915 1.24427 -0.967243 0
M  V30 7922 C 783.143 1.96541 -0.646477 0
M  V30 7923 C 783.558 1.71753 0.783996 0
M  V30 7924 O 782.915 1.00102 1.52597 0
M  V30 7925 C 782.966 3.4983 -0.911098 0
M  V30 7926 O 782.687 3.7377 -2.28534 0
M  V30 7927 C 784.188 4.3916 -0.604458 0
M  V30 7928 H 781.408 0.626129 -0.241255 0
M  V30 7929 H 783.952 1.58268 -1.29505 0
M  V30 7930 H 782.107 3.86168 -0.308741 0
M  V30 7931 H 782.521 4.68154 -2.365 0
M  V30 7932 H 783.995 5.4557 -0.840069 0
M  V30 7933 H 784.472 4.36771 0.461273 0
M  V30 7934 H 785.078 4.08409 -1.1867 0
M  V30 7935 N 783.393 0.737304 1.3929 0
M  V30 7936 C 784.64 0.286257 2.00467 0
M  V30 7937 C 784.968 -1.1272 1.58507 0
M  V30 7938 O 784.223 -1.7832 0.806257 0
M  V30 7939 C 784.522 0.338438 3.55794 0
M  V30 7940 C 784.188 1.70524 4.17411 0
M  V30 7941 C 782.85 2.07934 4.33955 0
M  V30 7942 C 785.202 2.60256 4.51571 0
M  V30 7943 C 782.53 3.34578 4.81948 0
M  V30 7944 C 784.882 3.86275 5.00974 0
M  V30 7945 C 783.546 4.23774 5.15725 0
M  V30 7946 H 782.816 0.104749 0.733559 0
M  V30 7947 H 785.463 0.944598 1.66582 0
M  V30 7948 H 783.768 -0.403478 3.89717 0
M  V30 7949 H 785.465 -0.0287255 4.0099 0
M  V30 7950 H 782.055 1.40439 4.04938 0
M  V30 7951 H 786.239 2.32624 4.38406 0
M  V30 7952 H 781.495 3.63572 4.91554 0
M  V30 7953 H 785.669 4.5596 5.26378 0
M  V30 7954 H 783.296 5.21972 5.52674 0
M  V30 7955 N 784.871 -1.49948 0.485112 0
M  V30 7956 C 785.821 -2.25734 -0.320658 0
M  V30 7957 C 786.805 -1.29907 -0.949373 0
M  V30 7958 O 787.997 -1.54725 -0.859601 0
M  V30 7959 C 785.126 -3.13728 -1.39391 0
M  V30 7960 C 784.212 -4.1701 -0.772225 0
M  V30 7961 N 784.603 -5.05667 0.115782 0
M  V30 7962 C 782.901 -4.33834 -1.03461 0
M  V30 7963 C 783.602 -5.79798 0.47004 0
M  V30 7964 N 782.578 -5.4337 -0.158204 0
M  V30 7965 H 786.38 -2.91647 0.36319 0
M  V30 7966 H 783.894 -1.59602 0.300154 0
M  V30 7967 H 785.891 -3.66639 -1.98447 0
M  V30 7968 H 784.551 -2.49365 -2.0796 0
M  V30 7969 H 785.562 -5.15619 0.485557 0
M  V30 7970 H 782.239 -3.80684 -1.71424 0
M  V30 7971 H 783.629 -6.61177 1.19558 0
M  V30 7972 N 786.349 -0.21828 -1.56081 0
M  V30 7973 C 787.296 0.693189 -2.20144 0
M  V30 7974 C 788.266 1.19274 -1.15598 0
M  V30 7975 O 789.451 1.25243 -1.4394 0
M  V30 7976 C 786.591 1.89715 -2.88275 0
M  V30 7977 C 785.704 1.4368 -4.07407 0
M  V30 7978 C 784.839 2.59807 -4.63329 0
M  V30 7979 C 783.878 2.10492 -5.74769 0
M  V30 7980 N 783.015 3.1988 -6.24997 0
M  V30 7981 H 787.855 0.14016 -2.9767 0
M  V30 7982 H 785.392 0.0574292 -1.46988 0
M  V30 7983 H 787.35 2.60398 -3.25958 0
M  V30 7984 H 785.98 2.42311 -2.13273 0
M  V30 7985 H 785.032 0.625007 -3.7523 0
M  V30 7986 H 786.344 1.03517 -4.8794 0
M  V30 7987 H 785.498 3.38577 -5.03438 0
M  V30 7988 H 784.237 3.03256 -3.81951 0
M  V30 7989 H 783.242 1.30182 -5.34165 0
M  V30 7990 H 784.467 1.68045 -6.5798 0
M  V30 7991 H 782.413 3.62817 -5.46534 0
M  V30 7992 H 782.33 2.83958 -7.00645 0
M  V30 7993 H 783.598 3.98796 -6.69763 0
M  V30 7994 N 787.827 1.57504 0.0551401 0
M  V30 7995 C 789.243 1.54236 0.410292 0
M  V30 7996 C 789.443 0.940839 1.78187 0
M  V30 7997 O 788.499 0.550541 2.46425 0
M  V30 7998 C 789.812 2.98816 0.336064 0
M  V30 7999 C 791.36 3.10236 0.415047 0
M  V30 8000 C 791.835 4.56499 0.37055 0
M  V30 8001 N 793.326 4.61199 0.43013 0
M  V30 8002 C 794.061 5.71873 0.418179 0
M  V30 8003 N 793.557 6.91864 0.360056 0
M  V30 8004 N 795.35 5.60165 0.465977 0
M  V30 8005 H 787.501 1.94965 -0.842759 0
M  V30 8006 H 789.764 0.893096 -0.317937 0
M  V30 8007 H 789.47 3.4645 -0.605429 0
M  V30 8008 H 789.344 3.59564 1.13988 0
M  V30 8009 H 791.731 2.62566 1.34697 0
M  V30 8010 H 791.812 2.52367 -0.417648 0
M  V30 8011 H 791.456 5.0483 -0.557592 0
M  V30 8012 H 791.386 5.12249 1.221 0
M  V30 8013 H 793.877 3.74857 0.478623 0
M  V30 8014 H 794.19 7.71983 0.35532 0
M  V30 8015 H 792.535 6.94233 0.326492 0
M  V30 8016 H 795.726 4.65322 0.509194 0
M  V30 8017 H 795.899 6.46413 0.453194 0
M  V30 8018 N 789.305 -0.326896 1.54172 0
M  V30 8019 C 790.255 -1.40319 1.79707 0
M  V30 8020 C 791.239 -1.47056 0.652938 0
M  V30 8021 O 792.431 -1.51645 0.91284 0
M  V30 8022 C 789.56 -2.77222 2.02491 0
M  V30 8023 C 788.646 -2.74811 3.23016 0
M  V30 8024 N 789.037 -2.42022 4.44138 0
M  V30 8025 C 787.335 -3.05943 3.24522 0
M  V30 8026 C 788.036 -2.48263 5.26061 0
M  V30 8027 N 787.012 -2.84567 4.63166 0
M  V30 8028 H 790.814 -1.13892 2.70935 0
M  V30 8029 H 788.328 -0.53536 1.53322 0
M  V30 8030 H 790.325 -3.54793 2.18923 0
M  V30 8031 H 788.985 -3.04582 1.12515 0
M  V30 8032 H 789.996 -2.14926 4.71197 0
M  V30 8033 H 786.673 -3.38367 2.44569 0
M  V30 8034 H 788.063 -2.2593 6.32776 0
M  V30 8035 N 790.784 -1.46188 -0.588786 0
M  V30 8036 C 791.694 -1.58865 -1.72624 0
M  V30 8037 C 792.71 -0.472348 -1.67466 0
M  V30 8038 O 793.886 -0.735638 -1.87484 0
M  V30 8039 C 790.951 -1.56989 -3.0912 0
M  V30 8040 C 790.012 -2.79804 -3.25589 0
M  V30 8041 C 789.245 -2.78009 -4.55573 0
M  V30 8042 O 789.468 -1.86406 -5.39082 0
M  V30 8043 O 788.402 -3.6947 -4.75159 0
M  V30 8044 H 792.228 -2.55047 -1.64878 0
M  V30 8045 H 789.813 -1.28912 -0.755115 0
M  V30 8046 H 791.695 -1.58618 -3.90408 0
M  V30 8047 H 790.37 -0.639648 -3.17317 0
M  V30 8048 H 789.277 -2.83732 -2.43818 0
M  V30 8049 H 790.61 -3.72017 -3.22279 0
M  V30 8050 N 792.262 0.832906 -1.33792 0
M  V30 8051 C 793.172 1.97514 -1.26592 0
M  V30 8052 C 794.188 1.73114 -0.175391 0
M  V30 8053 O 795.364 1.97387 -0.400062 0
M  V30 8054 C 792.429 3.31625 -1.01121 0
M  V30 8055 C 791.49 3.69101 -2.19233 0
M  V30 8056 C 790.723 4.96813 -1.94968 0
M  V30 8057 O 790.946 5.63208 -0.902955 0
M  V30 8058 O 789.88 5.31932 -2.8166 0
M  V30 8059 H 793.706 2.0653 -2.22664 0
M  V30 8060 H 791.291 0.966826 -1.13898 0
M  V30 8061 H 793.173 4.11968 -0.886571 0
M  V30 8062 H 791.848 3.23599 -0.080822 0
M  V30 8063 H 790.755 2.89243 -2.37253 0
M  V30 8064 H 792.088 3.818 -3.10628 0
M  V30 8065 N 793.74 1.17359 1.05189 0
M  V30 8066 C 794.988 0.960087 1.77839 0
M  V30 8067 C 795.309 -0.512554 1.88143 0
M  V30 8068 O 794.579 -1.3721 1.39822 0
M  V30 8069 H 793.159 0.352234 0.658741 0
M  V30 8070 H 795.821 1.47834 1.27008 0
M  V30 8071 H 794.917 1.38843 2.79516 0
M  V30 8072 N 795.218 -1.23913 0.973828 0
M  V30 8073 C 796.168 -2.22892 0.479933 0
M  V30 8074 C 797.152 -1.54726 -0.441434 0
M  V30 8075 O 798.344 -1.74908 -0.271358 0
M  V30 8076 C 795.473 -3.42577 -0.222702 0
M  V30 8077 C 794.559 -4.17981 0.717851 0
M  V30 8078 N 794.95 -4.7045 1.8577 0
M  V30 8079 C 793.248 -4.42841 0.529858 0
M  V30 8080 C 793.949 -5.27751 2.44651 0
M  V30 8081 N 792.925 -5.15302 1.73104 0
M  V30 8082 H 796.727 -2.61083 1.34956 0
M  V30 8083 H 794.241 -1.39368 0.83368 0
M  V30 8084 H 796.238 -4.1265 -0.593793 0
M  V30 8085 H 794.898 -3.05904 -1.0887 0
M  V30 8086 H 795.909 -4.66997 2.23908 0
M  V30 8087 H 792.586 -4.1648 -0.291664 0
M  V30 8088 H 793.976 -5.79011 3.40875 0
M  V30 8089 N 796.696 -0.74468 -1.38897 0
M  V30 8090 C 797.629 -0.0596441 -2.28122 0
M  V30 8091 C 798.607 0.73764 -1.44906 0
M  V30 8092 O 799.791 0.718155 -1.74284 0
M  V30 8093 C 796.918 0.922533 -3.25894 0
M  V30 8094 C 795.964 0.212566 -4.2597 0
M  V30 8095 S 796.797 -1.08035 -5.24489 0
M  V30 8096 C 797.953 -0.101014 -6.25818 0
M  V30 8097 H 798.186 -0.816289 -2.85874 0
M  V30 8098 H 795.719 -0.536882 -1.44765 0
M  V30 8099 H 797.677 1.4839 -3.82741 0
M  V30 8100 H 796.338 1.65209 -2.67142 0
M  V30 8101 H 795.531 0.956106 -4.94848 0
M  V30 8102 H 795.133 -0.277029 -3.72973 0
M  V30 8103 H 797.425 0.736072 -6.7349 0
M  V30 8104 H 798.368 -0.757206 -7.0404 0
M  V30 8105 H 798.776 0.275706 -5.63826 0
M  V30 8106 N 798.174 1.49689 -0.493057 0
M  V30 8107 C 799.104 2.31826 0.279073 0
M  V30 8108 C 800.085 1.39733 0.969987 0
M  V30 8109 O 801.27 1.68646 0.962925 0
M  V30 8110 C 798.4 3.20046 1.34862 0
M  V30 8111 C 797.354 4.20869 0.77805 0
M  V30 8112 C 796.68 4.97971 1.94753 0
M  V30 8113 C 797.98 5.21813 -0.225543 0
M  V30 8114 H 799.674 2.96627 -0.406512 0
M  V30 8115 H 797.22 1.42647 -0.196943 0
M  V30 8116 H 799.173 3.76315 1.89645 0
M  V30 8117 H 797.897 2.53172 2.06328 0
M  V30 8118 H 796.556 3.65733 0.252036 0
M  V30 8119 H 796.204 4.27552 2.64969 0
M  V30 8120 H 795.904 5.66186 1.57187 0
M  V30 8121 H 797.428 5.57082 2.49984 0
M  V30 8122 H 798.842 5.72823 0.233864 0
M  V30 8123 H 797.239 5.97872 -0.516622 0
M  V30 8124 H 798.309 4.71209 -1.14412 0
M  V30 8125 N 799.652 0.226554 1.55963 0
M  V30 8126 C 800.6 -0.697922 2.21882 0
M  V30 8127 C 801.594 -1.19586 1.19981 0
M  V30 8128 O 802.8 -1.15511 1.38048 0
M  V30 8129 H 799.175 -0.243501 0.711485 0
M  V30 8130 H 801.146 -0.118576 2.98164 0
M  V30 8131 C 799.895 -1.89309 2.91646 0
M  V30 8132 H 799.218 -1.51906 3.69817 0
M  V30 8133 H 800.658 -2.51762 3.41162 0
M  V30 8134 C 799.117 -2.75162 1.94391 0
M  V30 8135 O 799.647 -3.74071 1.46402 0
M  V30 8136 N 797.853 -2.41302 1.61932 0
M  V30 8137 H 797.4 -1.60923 2.01151 0
M  V30 8138 H 797.358 -2.99023 0.971219 0
M  V30 8139 N 801.13 -1.57531 -0.0467866 0
M  V30 8140 C 802.37 -1.90294 -0.746171 0
M  V30 8141 C 802.734 -0.823194 -1.73458 0
M  V30 8142 O 803.935 -1.03463 -2.48091 0
M  V30 8143 C 802.206 -3.28249 -1.41378 0
M  V30 8144 S 803.765 -3.82812 -2.14477 0
M  V30 8145 H 800.583 -0.666496 -0.247598 0
M  V30 8146 H 803.185 -1.955 -0.00135143 0
M  V30 8147 H 801.889 -4.04712 -0.680937 0
M  V30 8148 H 801.42 -3.26302 -2.19751 0
M  V30 8149 H 803.435 -3.60111 -3.41372 0
M  V30 8150 N 802.608 0.318715 -1.54344 0
M  V30 8151 C 803.836 1.0755 -1.7675 0
M  V30 8152 C 804.251 1.81543 -0.518422 0
M  V30 8153 O 803.608 1.75198 0.511078 0
M  V30 8154 C 803.659 2.06983 -2.96378 0
M  V30 8155 O 803.38 1.35995 -4.16458 0
M  V30 8156 C 804.881 2.94841 -3.31034 0
M  V30 8157 H 802.101 0.319711 -0.589937 0
M  V30 8158 H 804.645 0.363369 -2.01246 0
M  V30 8159 H 802.8 2.73724 -2.74142 0
M  V30 8160 H 803.214 2.02623 -4.83781 0
M  V30 8161 H 804.688 3.60496 -4.18027 0
M  V30 8162 H 805.165 3.62199 -2.48412 0
M  V30 8163 H 805.771 2.33656 -3.55366 0
M  V30 8164 N 804.086 1.46499 0.581025 0
M  V30 8165 C 805.326 1.53456 1.35021 0
M  V30 8166 C 805.69 0.182542 1.9113 0
M  V30 8167 O 806.891 0.126874 2.685 0
M  V30 8168 C 805.162 2.60387 2.44812 0
M  V30 8169 S 806.721 2.86762 3.32134 0
M  V30 8170 H 803.539 0.54216 0.459982 0
M  V30 8171 H 806.141 1.83742 0.667754 0
M  V30 8172 H 804.845 3.57253 2.01986 0
M  V30 8173 H 804.376 2.31839 3.17828 0
M  V30 8174 H 806.391 2.2216 4.43688 0
M  V30 8175 N 805.565 -0.825799 1.34232 0
M  V30 8176 C 806.812 -1.58185 1.26427 0
M  V30 8177 C 807.14 -1.93786 -0.166533 0
M  V30 8178 O 806.395 -1.59986 -1.12707 0
M  V30 8179 C 806.694 -2.89362 2.09772 0
M  V30 8180 C 806.36 -2.73066 3.58812 0
M  V30 8181 C 805.022 -2.68329 3.99441 0
M  V30 8182 C 807.374 -2.56946 4.53462 0
M  V30 8183 C 804.702 -2.4539 5.32917 0
M  V30 8184 C 807.054 -2.35538 5.87115 0
M  V30 8185 C 805.718 -2.29212 6.26912 0
M  V30 8186 H 804.988 -0.57884 0.462629 0
M  V30 8187 H 807.635 -0.955714 1.65947 0
M  V30 8188 H 805.94 -3.56251 1.63071 0
M  V30 8189 H 807.637 -3.4694 2.01081 0
M  V30 8190 H 804.227 -2.77591 3.26559 0
M  V30 8191 H 808.411 -2.59631 4.22972 0
M  V30 8192 H 803.667 -2.38947 5.62774 0
M  V30 8193 H 807.841 -2.22051 6.6005 0
M  V30 8194 H 805.468 -2.11197 7.30274 0
M  V30 8195 N 807.043 -1.17915 -1.04565 0
M  V30 8196 C 808.291 -0.969505 -1.77327 0
M  V30 8197 C 808.612 0.502569 -1.88412 0
M  V30 8198 O 807.882 1.36467 -1.40547 0
M  V30 8199 H 806.462 -0.355723 -0.656864 0
M  V30 8200 H 809.124 -1.48506 -1.26223 0
M  V30 8201 H 808.22 -1.40324 -2.78775 0
M  V30 8202 N 808.521 1.23394 -0.980386 0
M  V30 8203 C 809.453 2.24146 -0.478657 0
M  V30 8204 C 810.466 1.57303 0.419492 0
M  V30 8205 O 811.655 1.77094 0.223631 0
M  V30 8206 C 808.755 3.3732 0.326913 0
M  V30 8207 C 807.928 4.33744 -0.56436 0
M  V30 8208 C 806.987 5.25866 0.187358 0
M  V30 8209 O 806.013 5.67626 -0.423019 0
M  V30 8210 N 807.215 5.61492 1.47335 0
M  V30 8211 H 809.98 2.67826 -1.34496 0
M  V30 8212 H 807.541 1.37566 -0.853653 0
M  V30 8213 H 809.533 3.95926 0.838148 0
M  V30 8214 H 808.103 2.92823 1.09422 0
M  V30 8215 H 807.323 3.73641 -1.25642 0
M  V30 8216 H 808.611 4.95123 -1.17177 0
M  V30 8217 H 808.009 5.29514 1.99077 0
M  V30 8218 H 806.566 6.2257 1.93002 0
M  V30 8219 N 809.999 0.752036 1.385 0
M  V30 8220 C 811.247 0.306895 1.99756 0
M  V30 8221 C 811.568 -1.11478 1.59992 0
M  V30 8222 O 810.838 -1.76206 0.856045 0
M  V30 8223 H 809.418 0.11048 0.738785 0
M  V30 8224 H 812.08 0.965785 1.69289 0
M  V30 8225 H 811.176 0.368797 3.09913 0
M  V30 8226 N 811.477 -1.49425 0.500989 0
M  V30 8227 C 812.893 -1.58826 0.156951 0
M  V30 8228 C 813.093 -1.50622 -1.33848 0
M  V30 8229 O 812.149 -1.38016 -2.11442 0
M  V30 8230 C 813.462 -2.91611 0.73374 0
M  V30 8231 C 815.01 -3.05076 0.699846 0
M  V30 8232 C 815.485 -4.40479 1.2547 0
M  V30 8233 N 816.976 -4.4697 1.2154 0
M  V30 8234 C 817.711 -5.50189 1.6149 0
M  V30 8235 N 817.207 -6.60512 2.09034 0
M  V30 8236 N 819 -5.40903 1.52907 0
M  V30 8237 H 811.151 -1.53001 1.47324 0
M  V30 8238 H 813.414 -0.724765 0.61108 0
M  V30 8239 H 813.12 -3.03182 1.78251 0
M  V30 8240 H 812.994 -3.767 0.19417 0
M  V30 8241 H 815.381 -2.93134 -0.340085 0
M  V30 8242 H 815.462 -2.2167 1.27656 0
M  V30 8243 H 815.106 -4.53172 2.29341 0
M  V30 8244 H 815.036 -5.22524 0.653921 0
M  V30 8245 H 817.527 -3.67819 0.867043 0
M  V30 8246 H 817.84 -7.35372 2.37588 0
M  V30 8247 H 816.185 -6.61553 2.13008 0
M  V30 8248 H 819.376 -4.53606 1.15583 0
M  V30 8249 H 819.549 -6.21219 1.84365 0
M  V30 8250 N 812.955 -0.234822 -1.55841 0
M  V30 8251 C 814.203 0.392483 -1.98252 0
M  V30 8252 C 814.524 1.59344 -1.12404 0
M  V30 8253 O 813.794 1.94834 -0.204055 0
M  V30 8254 H 812.374 0.147999 -0.732192 0
M  V30 8255 H 815.036 -0.330804 -1.92072 0
M  V30 8256 H 814.132 0.709829 -3.03921 0
M  V30 8257 N 814.433 1.57553 0.0384317 0
M  V30 8258 C 815.849 1.54663 0.39391 0
M  V30 8259 C 816.049 0.959685 1.77179 0
M  V30 8260 O 815.105 0.576647 2.45827 0
M  V30 8261 C 816.418 2.99156 0.304352 0
M  V30 8262 C 817.966 3.10659 0.382119 0
M  V30 8263 C 818.441 4.56866 0.322111 0
M  V30 8264 N 819.932 4.61629 0.38119 0
M  V30 8265 C 820.667 5.72284 0.357501 0
M  V30 8266 N 820.163 6.92207 0.286654 0
M  V30 8267 N 821.956 5.60628 0.406538 0
M  V30 8268 H 814.107 1.9406 -0.86339 0
M  V30 8269 H 816.37 0.889673 -0.327392 0
M  V30 8270 H 816.076 3.45788 -0.642141 0
M  V30 8271 H 815.95 3.60753 1.10168 0
M  V30 8272 H 818.337 2.6398 1.31904 0
M  V30 8273 H 818.418 2.5191 -0.444391 0
M  V30 8274 H 818.062 5.0421 -0.611104 0
M  V30 8275 H 817.992 5.13515 1.1666 0
M  V30 8276 H 820.483 3.75343 0.438838 0
M  V30 8277 H 820.796 7.72316 0.273421 0
M  V30 8278 H 819.141 6.9454 0.252841 0
M  V30 8279 H 822.332 4.65836 0.459812 0
M  V30 8280 H 822.505 6.46858 0.384608 0
M  V30 8281 N 815.911 -0.310526 1.54511 0
M  V30 8282 C 817.157 -1.04459 1.74528 0
M  V30 8283 C 817.512 -1.85251 0.519613 0
M  V30 8284 O 816.805 -1.85281 -0.488001 0
M  V30 8285 C 816.999 -1.98942 2.96912 0
M  V30 8286 C 816.828 -1.27442 4.31264 0
M  V30 8287 C 815.598 -1.00552 4.95194 0
M  V30 8288 C 817.796 -0.683695 5.09735 0
M  V30 8289 N 815.778 -0.259797 6.1335 0
M  V30 8290 C 817.149 -0.0702549 6.1996 0
M  V30 8291 C 819.204 -0.587799 4.94418 0
M  V30 8292 C 817.907 0.629791 7.16538 0
M  V30 8293 C 819.933 0.0985719 5.91318 0
M  V30 8294 C 819.295 0.700902 7.00904 0
M  V30 8295 H 815.394 -0.365496 0.69133 0
M  V30 8296 H 817.978 -0.324277 1.91981 0
M  V30 8297 H 816.149 -2.68233 2.80902 0
M  V30 8298 H 817.881 -2.6543 3.05498 0
M  V30 8299 H 814.636 -1.30123 4.55374 0
M  V30 8300 H 815.06 0.099301 6.76927 0
M  V30 8301 H 819.702 -1.03919 4.0983 0
M  V30 8302 H 817.42 1.09298 8.00674 0
M  V30 8303 H 821.006 0.172585 5.81544 0
M  V30 8304 H 819.886 1.22357 7.74596 0
M  V30 8305 N 817.389 -1.46805 -0.573248 0
M  V30 8306 C 818.336 -1.58084 -1.68161 0
M  V30 8307 C 819.306 -0.424636 -1.6058 0
M  V30 8308 O 820.491 -0.642623 -1.79652 0
M  V30 8309 C 817.631 -1.58601 -3.06496 0
M  V30 8310 C 816.744 -2.85023 -3.24632 0
M  V30 8311 C 815.879 -2.76981 -4.53271 0
M  V30 8312 C 814.918 -3.983 -4.64783 0
M  V30 8313 N 814.055 -3.88589 -5.84759 0
M  V30 8314 H 818.895 -2.52755 -1.57858 0
M  V30 8315 H 816.432 -1.25385 -0.769218 0
M  V30 8316 H 818.39 -1.56885 -3.86579 0
M  V30 8317 H 817.02 -0.674553 -3.15673 0
M  V30 8318 H 816.072 -2.96678 -2.38089 0
M  V30 8319 H 817.384 -3.7491 -3.29004 0
M  V30 8320 H 816.538 -2.73424 -5.41594 0
M  V30 8321 H 815.277 -1.84751 -4.51352 0
M  V30 8322 H 814.282 -4.02179 -3.74876 0
M  V30 8323 H 815.507 -4.91639 -4.68474 0
M  V30 8324 H 813.453 -2.99151 -5.83819 0
M  V30 8325 H 813.37 -4.7214 -5.90441 0
M  V30 8326 H 814.638 -3.89022 -6.75486 0
M  V30 8327 N 818.867 0.818669 -1.34668 0
M  V30 8328 C 820.107 1.58862 -1.28617 0
M  V30 8329 C 820.471 1.91483 0.140845 0
M  V30 8330 O 821.672 2.66821 0.325583 0
M  V30 8331 C 819.943 2.85044 -2.15604 0
M  V30 8332 S 821.502 3.75553 -2.26948 0
M  V30 8333 H 818.32 0.544454 -0.457265 0
M  V30 8334 H 820.922 0.966679 -1.69928 0
M  V30 8335 H 819.626 2.59083 -3.18284 0
M  V30 8336 H 819.157 3.52231 -1.75205 0
M  V30 8337 H 821.172 4.74682 -1.44539 0
M  V30 8338 N 820.346 1.18468 1.03938 0
M  V30 8339 C 821.623 0.890435 1.74157 0
M  V30 8340 C 822.003 -0.606409 2.02203 0
M  V30 8341 O 821.351 -1.5615 1.66822 0
M  V30 8342 C 821.561 1.73906 3.02585 0
M  V30 8343 C 822.909 1.96686 3.76297 0
M  V30 8344 O 823.933 1.70969 3.12487 0
M  V30 8345 O 822.792 2.39986 4.90988 0
M  V30 8346 H 819.886 0.330889 0.757919 0
M  V30 8347 H 822.432 1.29228 1.09992 0
M  V30 8348 H 821.204 2.75369 2.78006 0
M  V30 8349 H 820.827 1.33581 3.74489 0
M  V30 8350 N 821.824 -1.22873 0.986916 0
M  V30 8351 C 823.235 -1.73264 0.695438 0
M  V30 8352 C 823.586 -1.79679 -0.788023 0
M  V30 8353 O 822.711 -1.43905 -1.61618 0
M  V30 8354 C 823.306 -3.14671 1.2557 0
M  V30 8355 C 821.865 -3.62492 1.01373 0
M  V30 8356 C 821.012 -2.40551 1.37951 0
M  V30 8357 H 823.963 -1.08304 1.15999 0
M  V30 8358 H 823.984 -3.75226 0.631322 0
M  V30 8359 H 823.496 -3.0997 2.33539 0
M  V30 8360 H 821.597 -3.72567 -0.0495917 0
M  V30 8361 H 821.71 -4.48944 1.67289 0
M  V30 8362 H 820.074 -2.41875 0.798033 0
M  V30 8363 H 820.857 -2.38516 2.46911 0
M  V30 8364 N 823.302 -0.75937 -1.38099 0
M  V30 8365 C 824.548 -0.318584 -2.00282 0
M  V30 8366 C 824.881 1.09854 -1.60143 0
M  V30 8367 O 824.156 1.75344 -0.841702 0
M  V30 8368 C 824.439 -0.448047 -3.57302 0
M  V30 8369 C 824.292 -1.9067 -4.07388 0
M  V30 8370 C 825.611 0.155119 -4.39827 0
M  V30 8371 H 822.73 -0.117233 -0.727616 0
M  V30 8372 H 825.372 -0.960097 -1.63958 0
M  V30 8373 H 823.522 0.0981003 -3.88376 0
M  V30 8374 H 825.194 -2.5116 -3.86932 0
M  V30 8375 H 823.437 -2.41979 -3.6004 0
M  V30 8376 H 824.108 -1.94841 -5.1647 0
M  V30 8377 H 826.584 -0.31073 -4.14938 0
M  V30 8378 H 825.46 0.0343264 -5.48889 0
M  V30 8379 H 825.721 1.24407 -4.24235 0
M  V30 8380 N 824.78 1.49157 -0.508906 0
M  V30 8381 C 826.057 1.95363 0.0961913 0
M  V30 8382 C 826.437 1.45064 1.53362 0
M  V30 8383 O 825.785 0.667835 2.18523 0
M  V30 8384 C 825.995 3.49 0.000688881 0
M  V30 8385 C 827.343 4.24257 0.170632 0
M  V30 8386 O 828.367 3.5612 0.0754994 0
M  V30 8387 O 827.226 5.45267 0.366957 0
M  V30 8388 H 824.32 0.821984 0.0909489 0
M  V30 8389 H 826.866 1.59769 -0.572007 0
M  V30 8390 H 825.638 3.78269 -1.00143 0
M  V30 8391 H 825.261 3.91233 0.708682 0
M  V30 8392 N 826.258 0.243083 1.55714 0
M  V30 8393 C 827.19 -0.690766 2.18543 0
M  V30 8394 C 828.203 -1.14163 1.16064 0
M  V30 8395 O 829.392 -1.06906 1.42946 0
M  V30 8396 C 826.492 -1.95016 2.77168 0
M  V30 8397 C 825.665 -1.65137 4.05029 0
M  V30 8398 C 824.724 -2.75998 4.48009 0
M  V30 8399 O 823.75 -2.43547 5.14464 0
M  V30 8400 N 824.952 -4.05414 4.15476 0
M  V30 8401 H 827.717 -0.153203 2.99308 0
M  V30 8402 H 825.278 0.0628968 1.61778 0
M  V30 8403 H 827.27 -2.68414 3.0288 0
M  V30 8404 H 825.84 -2.39762 2.00582 0
M  V30 8405 H 825.06 -0.752768 3.86946 0
M  V30 8406 H 826.348 -1.42633 4.88399 0
M  V30 8407 H 825.746 -4.34613 3.62116 0
M  V30 8408 H 824.303 -4.75288 4.46032 0
M  V30 8409 N 827.736 -1.57571 -0.0300757 0
M  V30 8410 C 828.976 -1.91074 -0.725946 0
M  V30 8411 C 829.34 -0.841545 -1.72575 0
M  V30 8412 O 830.541 -1.06088 -2.46979 0
M  V30 8413 C 828.812 -3.2973 -1.37888 0
M  V30 8414 S 830.371 -3.85065 -2.10405 0
M  V30 8415 H 827.189 -0.669084 -0.240515 0
M  V30 8416 H 829.791 -1.9549 0.019384 0
M  V30 8417 H 828.495 -4.05411 -0.637974 0
M  V30 8418 H 828.026 -3.28614 -2.16278 0
M  V30 8419 H 830.041 -3.63711 -3.37533 0
M  V30 8420 N 829.214 0.302327 -1.54673 0
M  V30 8421 C 830.146 1.39443 -1.81902 0
M  V30 8422 C 831.159 1.46891 -0.701914 0
M  V30 8423 O 832.348 1.49233 -0.979369 0
M  V30 8424 C 829.448 2.77824 -1.9408 0
M  V30 8425 C 828.621 2.93324 -3.24468 0
M  V30 8426 C 827.68 4.12196 -3.27079 0
M  V30 8427 O 826.706 4.04344 -4.00617 0
M  V30 8428 N 827.908 5.22768 -2.52376 0
M  V30 8429 H 830.673 1.1644 -2.76155 0
M  V30 8430 H 828.234 0.492392 -1.54231 0
M  V30 8431 H 830.226 3.5559 -1.9323 0
M  V30 8432 H 828.796 2.9378 -1.06828 0
M  V30 8433 H 828.016 2.02682 -3.38103 0
M  V30 8434 H 829.304 3.0059 -4.10516 0
M  V30 8435 H 828.702 5.32027 -1.92259 0
M  V30 8436 H 827.259 5.98874 -2.57281 0
M  V30 8437 N 830.692 1.47107 0.565454 0
M  V30 8438 C 831.969 1.43787 1.32607 0
M  V30 8439 C 832.349 0.130428 2.10697 0
M  V30 8440 O 831.697 -0.888086 2.10536 0
M  V30 8441 C 831.907 2.67833 2.23755 0
M  V30 8442 C 833.255 3.14704 2.85037 0
M  V30 8443 O 834.279 2.68503 2.34061 0
M  V30 8444 O 833.138 3.95002 3.77671 0
M  V30 8445 H 830.232 0.572623 0.596684 0
M  V30 8446 H 832.778 1.59296 0.58504 0
M  V30 8447 H 831.55 3.54532 1.65597 0
M  V30 8448 H 831.173 2.54869 3.05168 0
M  V30 8449 N 832.17 -0.811516 1.35101 0
M  V30 8450 C 833.395 -1.60499 1.31358 0
M  V30 8451 C 833.82 -1.87793 -0.107383 0
M  V30 8452 O 833.178 -1.46161 -1.07268 0
M  V30 8453 C 833.226 -2.91612 2.12119 0
M  V30 8454 O 832.33 -3.84211 1.49853 0
M  V30 8455 H 831.671 -0.487702 0.450603 0
M  V30 8456 H 834.201 -1.00758 1.7807 0
M  V30 8457 H 834.211 -3.4108 2.23894 0
M  V30 8458 H 832.886 -2.71071 3.15426 0
M  V30 8459 H 831.463 -3.42751 1.46889 0
M  V30 8460 N 833.648 -1.19017 -1.03309 0
M  V30 8461 C 834.558 -0.939303 -2.14975 0
M  V30 8462 C 835.574 0.0992359 -1.73717 0
M  V30 8463 O 836.75 -0.0844362 -2.01223 0
M  V30 8464 C 833.815 -0.476712 -3.43407 0
M  V30 8465 C 832.876 -1.58413 -3.99003 0
M  V30 8466 C 832.109 -1.14352 -5.21305 0
M  V30 8467 O 832.332 -0.00534408 -5.704 0
M  V30 8468 O 831.266 -1.94436 -5.6963 0
M  V30 8469 H 835.092 -1.87386 -2.38998 0
M  V30 8470 H 832.677 -0.972635 -1.13403 0
M  V30 8471 H 834.559 -0.22718 -4.20787 0
M  V30 8472 H 833.234 0.429455 -3.20839 0
M  V30 8473 H 832.141 -1.88777 -3.22977 0
M  V30 8474 H 833.474 -2.4667 -4.25928 0
M  V30 8475 N 835.127 1.22348 -0.993418 0
M  V30 8476 C 836.355 1.95125 -0.688021 0
M  V30 8477 C 836.77 1.73377 0.747388 0
M  V30 8478 O 836.127 1.03317 1.50439 0
M  V30 8479 C 836.178 3.47819 -0.985097 0
M  V30 8480 O 835.899 3.68838 -2.3641 0
M  V30 8481 C 837.4 4.37779 -0.697474 0
M  V30 8482 H 834.62 0.62087 -0.254481 0
M  V30 8483 H 837.164 1.55485 -1.32833 0
M  V30 8484 H 835.319 3.85426 -0.390583 0
M  V30 8485 H 835.733 4.63032 -2.46377 0
M  V30 8486 H 837.207 5.43666 -0.955604 0
M  V30 8487 H 837.684 4.37651 0.368524 0
M  V30 8488 H 838.29 4.05799 -1.27306 0
M  V30 8489 N 836.605 0.766683 1.37694 0
M  V30 8490 C 837.853 0.328065 1.9942 0
M  V30 8491 C 838.174 -1.09775 1.61166 0
M  V30 8492 O 837.444 -1.75288 0.874686 0
M  V30 8493 H 836.024 0.11831 0.737572 0
M  V30 8494 H 838.686 0.983686 1.68255 0
M  V30 8495 H 837.782 0.401647 3.09505 0
M  V30 8496 N 838.083 -1.48885 0.516809 0
M  V30 8497 C 839.311 -2.06892 -0.0184017 0
M  V30 8498 C 839.726 -1.37511 -1.29368 0
M  V30 8499 O 839.083 -0.458409 -1.76649 0
M  V30 8500 C 839.134 -3.60566 -0.259673 0
M  V30 8501 O 838.855 -4.27338 0.965065 0
M  V30 8502 C 840.356 -4.35331 -0.836751 0
M  V30 8503 H 837.576 -0.670433 0.0275743 0
M  V30 8504 H 840.12 -1.91455 0.718689 0
M  V30 8505 H 838.275 -3.75653 -0.94678 0
M  V30 8506 H 838.689 -5.19287 0.737647 0
M  V30 8507 H 840.163 -5.43675 -0.955065 0
M  V30 8508 H 840.64 -3.9887 -1.83845 0
M  V30 8509 H 841.246 -4.2489 -0.186622 0
M  V30 8510 N 839.561 -0.251338 -1.55583 0
M  V30 8511 C 840.808 0.372169 -1.99051 0
M  V30 8512 C 841.136 1.57623 -1.13953 0
M  V30 8513 O 840.391 1.94762 -0.191398 0
M  V30 8514 C 840.69 0.821186 -3.47838 0
M  V30 8515 C 840.356 -0.275608 -4.50057 0
M  V30 8516 C 839.018 -0.57683 -4.7773 0
M  V30 8517 C 841.37 -1.01585 -5.11204 0
M  V30 8518 C 838.698 -1.62229 -5.63825 0
M  V30 8519 C 841.05 -2.05087 -5.98433 0
M  V30 8520 C 839.714 -2.35869 -6.24437 0
M  V30 8521 H 838.984 0.136186 -0.728378 0
M  V30 8522 H 841.631 -0.360089 -1.88084 0
M  V30 8523 H 839.936 1.63272 -3.56159 0
M  V30 8524 H 841.633 1.31396 -3.78861 0
M  V30 8525 H 838.223 -0.030697 -4.28589 0
M  V30 8526 H 842.407 -0.79639 -4.89869 0
M  V30 8527 H 837.663 -1.86607 -5.82226 0
M  V30 8528 H 841.837 -2.62934 -6.44855 0
M  V30 8529 H 839.464 -3.17017 -6.90944 0
M  V30 8530 N 841.039 1.57585 0.0217189 0
M  V30 8531 C 842.269 1.9359 0.721572 0
M  V30 8532 C 842.677 0.850132 1.69025 0
M  V30 8533 O 842.02 -0.181539 1.82801 0
M  V30 8534 C 842.082 3.25445 1.52729 0
M  V30 8535 C 841.746 4.51251 0.722586 0
M  V30 8536 C 842.743 5.19896 0.0196598 0
M  V30 8537 C 840.428 4.97745 0.674959 0
M  V30 8538 C 842.422 6.33319 -0.720114 0
M  V30 8539 C 840.109 6.11062 -0.068555 0
M  V30 8540 C 841.107 6.78704 -0.764845 0
M  V30 8541 O 840.795 7.89852 -1.49627 0
M  V30 8542 H 840.527 0.643409 0.207366 0
M  V30 8543 H 843.081 2.05391 -0.0189346 0
M  V30 8544 H 841.311 3.0999 2.31178 0
M  V30 8545 H 843 3.46721 2.11044 0
M  V30 8546 H 843.766 4.84977 0.0474394 0
M  V30 8547 H 839.645 4.44934 1.20643 0
M  V30 8548 H 843.189 6.86051 -1.26413 0
M  V30 8549 H 839.086 6.45425 -0.0982318 0
M  V30 8550 H 839.854 8.06251 -1.41071 0
M  V30 8551 N 842.517 -0.29412 1.54831 0
M  V30 8552 C 843.449 -1.38476 1.82639 0
M  V30 8553 C 844.462 -1.46517 0.709694 0
M  V30 8554 O 845.651 -1.48712 0.987269 0
M  V30 8555 C 842.751 -2.76791 1.95551 0
M  V30 8556 C 841.924 -2.91599 3.26019 0
M  V30 8557 C 840.983 -4.10456 3.29261 0
M  V30 8558 O 840.009 -4.02214 4.02756 0
M  V30 8559 N 841.211 -5.21422 2.55145 0
M  V30 8560 H 843.976 -1.14974 2.76769 0
M  V30 8561 H 841.537 -0.484206 1.5449 0
M  V30 8562 H 843.529 -3.5456 1.95113 0
M  V30 8563 H 842.099 -2.93209 1.08384 0
M  V30 8564 H 841.319 -2.00886 3.39173 0
M  V30 8565 H 842.607 -2.98409 4.12104 0
M  V30 8566 H 842.005 -5.31 1.95078 0
M  V30 8567 H 840.562 -5.97501 2.60454 0
M  V30 8568 N 843.995 -1.47404 -0.557645 0
M  V30 8569 C 845.244 -1.53268 -1.31118 0
M  V30 8570 C 845.557 -0.199414 -1.94581 0
M  V30 8571 O 846.763 -0.136039 -2.71159 0
M  V30 8572 C 845.219 -2.70178 -2.37764 0
M  V30 8573 C 844.827 -4.10032 -1.80493 0
M  V30 8574 C 846.571 -2.85334 -3.14301 0
M  V30 8575 C 844.478 -5.18244 -2.84916 0
M  V30 8576 H 843.408 -0.570491 -0.493007 0
M  V30 8577 H 846.059 -1.73678 -0.592308 0
M  V30 8578 H 844.441 -2.43147 -3.12563 0
M  V30 8579 H 845.615 -4.46964 -1.12069 0
M  V30 8580 H 843.93 -3.99759 -1.16542 0
M  V30 8581 H 846.527 -3.63347 -3.92279 0
M  V30 8582 H 846.87 -1.93761 -3.68459 0
M  V30 8583 H 847.403 -3.12133 -2.46613 0
M  V30 8584 H 844.142 -6.11691 -2.35614 0
M  V30 8585 H 843.662 -4.85829 -3.51753 0
M  V30 8586 H 845.341 -5.45174 -3.48417 0
M  V30 8587 N 845.473 0.80434 -1.35529 0
M  V30 8588 C 846.721 1.55845 -1.28673 0
M  V30 8589 C 847.042 1.94511 0.137976 0
M  V30 8590 O 846.312 1.63775 1.07492 0
M  V30 8591 H 844.892 0.577931 -0.473291 0
M  V30 8592 H 847.554 0.959293 -1.69657 0
M  V30 8593 H 846.65 2.47285 -1.90411 0
M  V30 8594 N 846.951 1.19563 1.02676 0
M  V30 8595 C 848.228 0.908857 1.73203 0
M  V30 8596 C 848.608 -0.584928 2.02834 0
M  V30 8597 O 847.956 -1.54372 1.68469 0
M  V30 8598 C 848.166 1.77105 3.00724 0
M  V30 8599 C 849.514 2.00667 3.7419 0
M  V30 8600 O 850.538 1.74274 3.10656 0
M  V30 8601 O 849.397 2.4518 4.88415 0
M  V30 8602 H 846.491 0.338909 0.754367 0
M  V30 8603 H 849.037 1.30387 1.08616 0
M  V30 8604 H 847.809 2.78303 2.7507 0
M  V30 8605 H 847.432 1.37546 3.73051 0
M  V30 8606 N 848.429 -1.21819 0.999893 0
M  V30 8607 C 849.654 -1.95298 0.698094 0
M  V30 8608 C 850.079 -1.73273 -0.731982 0
M  V30 8609 O 849.437 -1.01634 -1.50134 0
M  V30 8610 C 849.485 -3.45922 1.01834 0
M  V30 8611 O 848.589 -4.12223 0.120801 0
M  V30 8612 H 847.93 -0.610729 0.260588 0
M  V30 8613 H 850.46 -1.5472 1.33876 0
M  V30 8614 H 850.47 -3.96471 0.963074 0
M  V30 8615 H 849.145 -3.61278 2.06037 0
M  V30 8616 H 847.722 -3.72177 0.232153 0
M  V30 8617 N 849.908 -0.773975 -1.37286 0
M  V30 8618 C 851.154 -0.348833 -2.00386 0
M  V30 8619 C 851.509 1.06347 -1.60337 0
M  V30 8620 O 850.802 1.72178 -0.840545 0
M  V30 8621 C 850.996 -0.432651 -3.54772 0
M  V30 8622 C 850.825 -1.85155 -4.09814 0
M  V30 8623 C 849.595 -2.47272 -4.40664 0
M  V30 8624 C 851.793 -2.8114 -4.30656 0
M  V30 8625 N 849.775 -3.80912 -4.81435 0
M  V30 8626 C 851.146 -3.99582 -4.74061 0
M  V30 8627 C 853.201 -2.78398 -4.12794 0
M  V30 8628 C 851.904 -5.1567 -5.01475 0
M  V30 8629 C 853.93 -3.9366 -4.41345 0
M  V30 8630 C 853.292 -5.10844 -4.84992 0
M  V30 8631 H 849.391 -0.174738 -0.762227 0
M  V30 8632 H 851.975 -1.00828 -1.66559 0
M  V30 8633 H 850.146 0.19663 -3.87902 0
M  V30 8634 H 851.878 0.0147601 -4.04697 0
M  V30 8635 H 848.633 -1.98872 -4.29822 0
M  V30 8636 H 849.057 -4.49628 -5.06126 0
M  V30 8637 H 853.699 -1.8897 -3.7822 0
M  V30 8638 H 851.417 -6.05696 -5.34938 0
M  V30 8639 H 855.003 -3.92882 -4.2911 0
M  V30 8640 H 853.883 -5.98553 -5.0666 0
M  V30 8641 N 851.386 1.48609 -0.524698 0
M  V30 8642 C 852.296 2.33318 0.244923 0
M  V30 8643 C 853.312 1.46153 0.944214 0
M  V30 8644 O 854.488 1.79141 0.920347 0
M  V30 8645 C 851.553 3.22149 1.28144 0
M  V30 8646 C 850.614 4.25184 0.593068 0
M  V30 8647 C 849.847 5.0977 1.5802 0
M  V30 8648 O 850.07 4.96249 2.81235 0
M  V30 8649 O 849.004 5.9134 1.1225 0
M  V30 8650 H 852.83 3.00362 -0.449066 0
M  V30 8651 H 850.415 1.46643 -0.285689 0
M  V30 8652 H 852.297 3.77111 1.88057 0
M  V30 8653 H 850.972 2.57772 1.95793 0
M  V30 8654 H 849.879 3.74071 -0.0464214 0
M  V30 8655 H 851.212 4.92183 -0.0413893 0
M  V30 8656 N 852.864 0.259585 1.55447 0
M  V30 8657 C 853.811 -0.634578 2.21905 0
M  V30 8658 C 854.781 -1.16168 1.18719 0
M  V30 8659 O 855.966 -1.21383 1.4721 0
M  V30 8660 C 853.106 -1.82005 2.93203 0
M  V30 8661 C 852.219 -1.32828 4.11073 0
M  V30 8662 C 851.354 -2.47431 4.70055 0
M  V30 8663 C 850.393 -1.95179 5.80148 0
M  V30 8664 N 849.53 -3.03197 6.33258 0
M  V30 8665 H 854.37 -0.0611886 2.97937 0
M  V30 8666 H 851.907 -0.0184378 1.47088 0
M  V30 8667 H 853.865 -2.51664 3.32748 0
M  V30 8668 H 852.495 -2.36571 2.19622 0
M  V30 8669 H 851.547 -0.525301 3.76756 0
M  V30 8670 H 852.859 -0.905435 4.90513 0
M  V30 8671 H 852.013 -3.25111 5.12238 0
M  V30 8672 H 850.752 -2.93023 3.89857 0
M  V30 8673 H 849.757 -1.15974 5.37429 0
M  V30 8674 H 850.982 -1.50541 6.62204 0
M  V30 8675 H 848.928 -3.48199 5.55961 0
M  V30 8676 H 848.845 -2.65282 7.07928 0
M  V30 8677 H 850.113 -3.80898 6.80101 0
M  V30 8678 N 854.342 -1.57594 -0.0133615 0
M  V30 8679 C 855.572 -1.93969 -0.711295 0
M  V30 8680 C 855.98 -0.859084 -1.68572 0
M  V30 8681 O 855.323 0.171842 -1.82894 0
M  V30 8682 C 855.385 -3.2625 -1.51001 0
M  V30 8683 C 855.049 -4.51628 -0.698645 0
M  V30 8684 C 856.046 -5.19899 0.00791185 0
M  V30 8685 C 853.731 -4.98095 -0.648553 0
M  V30 8686 C 855.725 -6.32928 0.753691 0
M  V30 8687 C 853.412 -6.11017 0.10096 0
M  V30 8688 C 854.41 -6.78289 0.800828 0
M  V30 8689 O 854.098 -7.89048 1.53814 0
M  V30 8690 H 853.83 -0.6445 -0.203951 0
M  V30 8691 H 856.384 -2.05378 0.0298267 0
M  V30 8692 H 854.614 -3.11211 -2.29531 0
M  V30 8693 H 856.303 -3.47835 -2.09202 0
M  V30 8694 H 857.069 -4.84995 -0.0217192 0
M  V30 8695 H 852.948 -4.45568 -1.18282 0
M  V30 8696 H 856.492 -6.85371 1.3005 0
M  V30 8697 H 852.389 -6.45364 0.132459 0
M  V30 8698 H 853.157 -8.05492 1.45345 0
M  V30 8699 N 855.82 0.285905 -1.54985 0
M  V30 8700 C 857.066 1.02071 -1.75241 0
M  V30 8701 C 857.399 1.864 -0.544842 0
M  V30 8702 O 856.674 1.89034 0.457844 0
M  V30 8703 C 856.957 1.91409 -3.05016 0
M  V30 8704 C 856.81 1.10158 -4.36102 0
M  V30 8705 C 858.129 2.90335 -3.30747 0
M  V30 8706 H 855.248 0.369663 -0.637588 0
M  V30 8707 H 857.89 0.294114 -1.8771 0
M  V30 8708 H 856.04 2.53362 -2.94517 0
M  V30 8709 H 857.712 0.503756 -4.58541 0
M  V30 8710 H 855.955 0.404675 -4.31908 0
M  V30 8711 H 856.626 1.75956 -5.23205 0
M  V30 8712 H 859.102 2.38514 -3.40955 0
M  V30 8713 H 857.978 3.49997 -4.2284 0
M  V30 8714 H 858.239 3.64787 -2.49765 0
M  V30 8715 N 857.298 1.47698 0.54982 0
M  V30 8716 C 858.248 1.57145 1.65195 0
M  V30 8717 C 859.232 0.429839 1.55052 0
M  V30 8718 O 860.424 0.68018 1.63409 0
M  V30 8719 C 857.553 1.59573 3.0396 0
M  V30 8720 C 856.639 2.79144 3.19279 0
M  V30 8721 N 857.03 4.03769 3.04638 0
M  V30 8722 C 855.328 2.76061 3.50295 0
M  V30 8723 C 856.029 4.83887 3.22845 0
M  V30 8724 N 855.005 4.1634 3.49517 0
M  V30 8725 H 858.807 2.51266 1.52455 0
M  V30 8726 H 856.321 1.43795 0.754773 0
M  V30 8727 H 858.318 1.64431 3.83103 0
M  V30 8728 H 856.978 0.66553 3.17806 0
M  V30 8729 H 857.989 4.34515 2.81811 0
M  V30 8730 H 854.666 1.92211 3.70622 0
M  V30 8731 H 856.056 5.92724 3.1643 0
M  V30 8732 N 858.776 -0.797141 1.35954 0
M  V30 8733 C 860.024 -1.55161 1.29497 0
M  V30 8734 C 860.345 -1.94582 -0.127659 0
M  V30 8735 O 859.615 -1.64343 -1.06622 0
M  V30 8736 H 858.195 -0.575413 0.47635 0
M  V30 8737 H 860.857 -0.950282 1.70164 0
M  V30 8738 H 859.953 -2.46272 1.9172 0
M  V30 8739 N 860.254 -1.20106 -1.0204 0
M  V30 8740 C 861.5 -1.01039 -1.75838 0
M  V30 8741 C 861.833 0.456819 -1.88751 0
M  V30 8742 O 861.108 1.33919 -1.41053 0
M  V30 8743 C 861.391 -1.69009 -3.17975 0
M  V30 8744 C 861.244 -3.2315 -3.1288 0
M  V30 8745 C 862.563 -1.42005 -4.16561 0
M  V30 8746 H 859.682 -0.368465 -0.638281 0
M  V30 8747 H 862.324 -1.48066 -1.19064 0
M  V30 8748 H 860.474 -1.29026 -3.66449 0
M  V30 8749 H 862.146 -3.72402 -2.72239 0
M  V30 8750 H 860.389 -3.54253 -2.50374 0
M  V30 8751 H 861.06 -3.65862 -4.13339 0
M  V30 8752 H 863.536 -1.76685 -3.76725 0
M  V30 8753 H 862.412 -1.92101 -5.14187 0
M  V30 8754 H 862.673 -0.346884 -4.40737 0
M  V30 8755 N 861.732 1.21287 -1.00634 0
M  V30 8756 C 863.148 1.42467 -0.719389 0
M  V30 8757 C 863.348 1.88767 0.704927 0
M  V30 8758 O 862.404 2.05004 1.47409 0
M  V30 8759 C 863.717 2.455 -1.73639 0
M  V30 8760 C 865.265 2.59281 -1.75335 0
M  V30 8761 C 865.74 3.65547 -2.75934 0
M  V30 8762 N 867.231 3.73019 -2.74611 0
M  V30 8763 C 867.966 4.54873 -3.4911 0
M  V30 8764 N 867.462 5.40614 -4.33253 0
M  V30 8765 N 869.255 4.49309 -3.37754 0
M  V30 8766 H 861.406 0.895454 -1.92602 0
M  V30 8767 H 863.669 0.455491 -0.831404 0
M  V30 8768 H 863.375 2.18455 -2.75627 0
M  V30 8769 H 863.249 3.44325 -1.54014 0
M  V30 8770 H 865.636 2.85661 -0.740377 0
M  V30 8771 H 865.717 1.60685 -1.99032 0
M  V30 8772 H 865.361 3.39911 -3.77389 0
M  V30 8773 H 865.291 4.63741 -2.49503 0
M  V30 8774 H 867.782 3.11766 -2.13565 0
M  V30 8775 H 868.095 6.0013 -4.86892 0
M  V30 8776 H 866.44 5.40151 -4.37335 0
M  V30 8777 H 869.631 3.81357 -2.71449 0
M  V30 8778 H 869.804 5.12867 -3.9607 0
M  V30 8779 N 863.21 0.781244 1.36873 0
M  V30 8780 C 864.44 0.361042 2.03421 0
M  V30 8781 C 864.848 -1.02471 1.59048 0
M  V30 8782 O 864.191 -1.66712 0.771552 0
M  V30 8783 C 864.253 0.336202 3.57924 0
M  V30 8784 C 863.917 1.66815 4.25467 0
M  V30 8785 C 864.914 2.62224 4.48926 0
M  V30 8786 C 862.599 1.9452 4.63106 0
M  V30 8787 C 864.593 3.83538 5.09095 0
M  V30 8788 C 862.28 3.16103 5.22994 0
M  V30 8789 C 863.278 4.10431 5.45926 0
M  V30 8790 O 862.966 5.29871 6.04559 0
M  V30 8791 H 862.698 0.147956 0.65961 0
M  V30 8792 H 865.252 1.05895 1.75998 0
M  V30 8793 H 863.482 -0.418147 3.84433 0
M  V30 8794 H 865.171 -0.0582199 4.05858 0
M  V30 8795 H 865.937 2.42104 4.20251 0
M  V30 8796 H 861.816 1.21921 4.44585 0
M  V30 8797 H 865.36 4.57178 5.2691 0
M  V30 8798 H 861.257 3.36104 5.51094 0
M  V30 8799 H 862.025 5.30825 6.23031 0
M  V30 8800 N 864.689 -1.48329 0.532571 0
M  V30 8801 C 865.621 -2.27652 -0.265931 0
M  V30 8802 C 866.634 -1.35522 -0.902083 0
M  V30 8803 O 867.823 -1.60552 -0.780088 0
M  V30 8804 C 864.923 -3.0899 -1.39207 0
M  V30 8805 C 864.096 -4.28915 -0.857349 0
M  V30 8806 C 863.155 -4.92044 -1.86493 0
M  V30 8807 O 862.181 -5.51181 -1.42084 0
M  V30 8808 N 863.383 -4.84518 -3.19723 0
M  V30 8809 H 866.148 -2.96821 0.414389 0
M  V30 8810 H 863.709 -1.57684 0.367066 0
M  V30 8811 H 865.701 -3.48091 -2.06433 0
M  V30 8812 H 864.271 -2.42224 -1.97601 0
M  V30 8813 H 863.491 -3.94199 -0.00901765 0
M  V30 8814 H 864.779 -5.0654 -0.479025 0
M  V30 8815 H 864.177 -4.37628 -3.58467 0
M  V30 8816 H 862.734 -5.27712 -3.82575 0
M  V30 8817 N 866.167 -0.267825 -1.55308 0
M  V30 8818 C 867.407 0.352316 -2.01341 0
M  V30 8819 C 867.771 1.53593 -1.1521 0
M  V30 8820 O 868.972 2.22521 -1.50791 0
M  V30 8821 C 867.243 0.731857 -3.49827 0
M  V30 8822 S 868.802 1.33956 -4.17853 0
M  V30 8823 H 865.62 0.109927 -0.702451 0
M  V30 8824 H 868.222 -0.387955 -1.91612 0
M  V30 8825 H 866.926 -0.138561 -4.10166 0
M  V30 8826 H 866.457 1.50378 -3.63525 0
M  V30 8827 H 868.472 2.62831 -4.20874 0
M  V30 8828 N 867.645 1.57599 0.00500368 0
M  V30 8829 C 868.875 1.94344 0.700998 0
M  V30 8830 C 869.283 0.868011 1.68114 0
M  V30 8831 O 868.626 -0.16214 1.82983 0
M  V30 8832 C 868.688 3.27046 1.49268 0
M  V30 8833 C 868.352 4.51992 0.674684 0
M  V30 8834 C 869.349 5.19888 -0.0354833 0
M  V30 8835 C 867.034 4.98432 0.622129 0
M  V30 8836 C 869.028 6.3252 -0.787246 0
M  V30 8837 C 866.715 6.10954 -0.133362 0
M  V30 8838 C 867.713 6.77855 -0.836788 0
M  V30 8839 O 867.401 7.88221 -1.57996 0
M  V30 8840 H 867.133 0.645572 0.20053 0
M  V30 8841 H 869.687 2.0536 -0.040718 0
M  V30 8842 H 867.917 3.12424 2.27877 0
M  V30 8843 H 869.606 3.4894 2.07355 0
M  V30 8844 H 870.372 4.85 -0.00400159 0
M  V30 8845 H 866.251 4.46189 1.15917 0
M  V30 8846 H 869.795 6.84671 -1.33683 0
M  V30 8847 H 865.692 6.45285 -0.166682 0
M  V30 8848 H 866.46 8.0471 -1.49615 0
M  V30 8849 N 869.123 -0.277682 1.55134 0
M  V30 8850 C 870.363 -1.01761 1.77269 0
M  V30 8851 C 870.727 -1.83668 0.559465 0
M  V30 8852 O 871.928 -2.60597 0.658972 0
M  V30 8853 C 870.199 -1.88062 3.0392 0
M  V30 8854 S 871.758 -2.68383 3.47154 0
M  V30 8855 H 868.576 -0.342816 0.622895 0
M  V30 8856 H 871.178 -0.288514 1.93359 0
M  V30 8857 H 869.882 -1.26805 3.90319 0
M  V30 8858 H 869.413 -2.65299 2.90482 0
M  V30 8859 H 871.428 -3.90567 3.06059 0
M  V30 8860 N 870.601 -1.47988 -0.541979 0
M  V30 8861 C 871.831 -1.58804 -1.32155 0
M  V30 8862 C 872.239 -0.242893 -1.87634 0
M  V30 8863 O 871.582 0.776239 -1.66494 0
M  V30 8864 C 871.644 -2.56567 -2.51821 0
M  V30 8865 C 871.308 -4.01915 -2.17517 0
M  V30 8866 C 872.305 -4.89954 -1.73901 0
M  V30 8867 C 869.99 -4.47365 -2.28408 0
M  V30 8868 C 871.984 -6.21467 -1.41625 0
M  V30 8869 C 869.671 -5.78902 -1.95745 0
M  V30 8870 C 870.669 -6.65775 -1.52423 0
M  V30 8871 O 870.357 -7.94866 -1.20183 0
M  V30 8872 H 870.089 -0.538536 -0.408601 0
M  V30 8873 H 872.643 -1.94446 -0.661818 0
M  V30 8874 H 870.873 -2.16023 -3.20735 0
M  V30 8875 H 872.562 -2.57347 -3.13891 0
M  V30 8876 H 873.328 -4.56082 -1.64966 0
M  V30 8877 H 869.207 -3.79942 -2.61084 0
M  V30 8878 H 872.751 -6.8923 -1.07738 0
M  V30 8879 H 868.648 -6.12311 -2.04316 0
M  V30 8880 H 869.416 -8.07509 -1.33683 0
M  V30 8881 N 872.079 0.78992 -1.36375 0
M  V30 8882 C 873.327 1.54472 -1.30319 0
M  V30 8883 C 873.648 1.94647 0.117338 0
M  V30 8884 O 872.918 1.64906 1.05748 0
M  V30 8885 H 871.498 0.572879 -0.479394 0
M  V30 8886 H 874.16 0.941245 -1.70665 0
M  V30 8887 H 873.256 2.45252 -1.93024 0
M  V30 8888 N 873.557 1.20646 1.01402 0
M  V30 8889 C 874.973 0.961866 1.27359 0
M  V30 8890 C 875.173 -0.357083 1.98311 0
M  V30 8891 O 874.229 -1.08498 2.28001 0
M  V30 8892 C 875.542 2.14627 2.10609 0
M  V30 8893 C 877.09 2.18753 2.23866 0
M  V30 8894 C 877.565 3.36686 3.10494 0
M  V30 8895 N 879.056 3.36716 3.18083 0
M  V30 8896 C 879.791 4.24615 3.85343 0
M  V30 8897 N 879.287 5.22697 4.54708 0
M  V30 8898 N 881.08 4.12449 3.81893 0
M  V30 8899 H 873.231 2.05481 0.537721 0
M  V30 8900 H 875.494 0.899292 0.299963 0
M  V30 8901 H 875.2 3.10159 1.65814 0
M  V30 8902 H 875.074 2.12935 3.11349 0
M  V30 8903 H 877.461 1.23782 2.67885 0
M  V30 8904 H 877.542 2.24492 1.22626 0
M  V30 8905 H 877.186 4.31945 2.67181 0
M  V30 8906 H 877.116 3.28185 4.11828 0
M  V30 8907 H 879.607 2.65728 2.68695 0
M  V30 8908 H 879.92 5.86087 5.03708 0
M  V30 8909 H 878.265 5.26631 4.53525 0
M  V30 8910 H 881.456 3.35091 3.26851 0
M  V30 8911 H 881.629 4.81162 4.34035 0
M  V30 8912 N 875.035 -1.20752 1.01276 0
M  V30 8913 C 876.283 -1.89645 0.698505 0
M  V30 8914 C 876.604 -1.78986 -0.773883 0
M  V30 8915 O 875.874 -1.18977 -1.55632 0
M  V30 8916 H 874.454 -0.701992 0.255375 0
M  V30 8917 H 877.116 -1.46668 1.28353 0
M  V30 8918 H 876.212 -2.96364 0.978512 0
M  V30 8919 N 876.513 -0.788492 -1.36457 0
M  V30 8920 C 877.762 -0.357052 -1.98515 0
M  V30 8921 C 878.075 1.0769 -1.63285 0
M  V30 8922 O 879.281 1.61057 -2.1857 0
M  V30 8923 C 877.737 -0.587449 -3.55073 0
M  V30 8924 C 877.345 -2.03276 -3.99228 0
M  V30 8925 C 879.089 -0.220468 -4.23927 0
M  V30 8926 C 876.996 -2.20987 -5.48561 0
M  V30 8927 H 875.926 -0.129762 -0.74275 0
M  V30 8928 H 878.577 -0.969995 -1.55767 0
M  V30 8929 H 876.959 0.0951918 -3.95886 0
M  V30 8930 H 878.133 -2.75173 -3.69617 0
M  V30 8931 H 876.448 -2.3579 -3.43208 0
M  V30 8932 H 879.045 -0.331085 -5.33674 0
M  V30 8933 H 879.388 0.831306 -4.07915 0
M  V30 8934 H 879.921 -0.856309 -3.88474 0
M  V30 8935 H 876.66 -3.24543 -5.69519 0
M  V30 8936 H 876.18 -1.53594 -5.79801 0
M  V30 8937 H 877.859 -2.01656 -6.14771 0
M  V30 8938 N 877.991 1.48044 -0.54043 0
M  V30 8939 C 879.239 2.02097 -0.0101367 0
M  V30 8940 C 879.56 1.41881 1.33771 0
M  V30 8941 O 878.83 0.587923 1.8687 0
M  V30 8942 H 877.41 0.747 -0.000758716 0
M  V30 8943 H 880.072 1.81639 -0.706634 0
M  V30 8944 H 879.168 3.11969 0.0904474 0
M  V30 8945 N 879.47 0.276058 1.55163 0
M  V30 8946 C 880.38 -0.621066 2.2623 0
M  V30 8947 C 881.396 -1.16931 1.28853 0
M  V30 8948 O 882.572 -1.1994 1.61791 0
M  V30 8949 C 879.637 -1.78824 2.97023 0
M  V30 8950 C 878.698 -1.27657 4.09881 0
M  V30 8951 C 877.931 -2.38812 4.77289 0
M  V30 8952 O 878.154 -3.58188 4.43912 0
M  V30 8953 O 877.088 -2.06915 5.65217 0
M  V30 8954 H 880.914 -0.0453346 3.03666 0
M  V30 8955 H 878.499 0.0434275 1.49337 0
M  V30 8956 H 880.381 -2.46877 3.41511 0
M  V30 8957 H 879.056 -2.35104 2.22503 0
M  V30 8958 H 877.963 -0.56248 3.69847 0
M  V30 8959 H 879.296 -0.759509 4.86305 0
M  V30 8960 N 880.948 -1.576 0.00335426 0
M  V30 8961 C 882.194 -1.91833 -0.676149 0
M  V30 8962 C 882.549 -0.878079 -1.71194 0
M  V30 8963 O 881.842 0.109297 -1.91288 0
M  V30 8964 C 882.036 -3.3058 -1.35837 0
M  V30 8965 C 881.865 -4.48004 -0.390171 0
M  V30 8966 C 880.635 -5.053 0.000648493 0
M  V30 8967 C 882.833 -5.13142 0.344982 0
M  V30 8968 N 880.815 -6.06241 0.966709 0
M  V30 8969 C 882.186 -6.08944 1.16562 0
M  V30 8970 C 884.241 -4.96222 0.408457 0
M  V30 8971 C 882.944 -6.89649 2.04395 0
M  V30 8972 C 884.97 -5.77514 1.27403 0
M  V30 8973 C 884.332 -6.72912 2.08251 0
M  V30 8974 H 880.431 -0.750263 -0.220519 0
M  V30 8975 H 883.015 -1.94593 0.0644891 0
M  V30 8976 H 881.186 -3.28687 -2.06928 0
M  V30 8977 H 882.918 -3.52233 -1.99284 0
M  V30 8978 H 879.673 -4.72165 -0.368428 0
M  V30 8979 H 880.097 -6.61394 1.44521 0
M  V30 8980 H 884.739 -4.22316 -0.202324 0
M  V30 8981 H 882.457 -7.62878 2.66539 0
M  V30 8982 H 886.043 -5.66462 1.3271 0
M  V30 8983 H 884.923 -7.34721 2.74145 0
M  V30 8984 N 882.426 0.269451 -1.5528 0
M  V30 8985 C 883.376 1.33553 -1.84791 0
M  V30 8986 C 884.36 1.44532 -0.707067 0
M  V30 8987 O 885.552 1.48153 -0.968493 0
M  V30 8988 C 882.681 2.69516 -2.12641 0
M  V30 8989 C 881.767 2.62633 -3.32993 0
M  V30 8990 N 882.158 2.25371 -4.52815 0
M  V30 8991 C 880.456 2.93688 -3.35654 0
M  V30 8992 C 881.157 2.28567 -5.34913 0
M  V30 8993 N 880.133 2.67181 -4.73408 0
M  V30 8994 H 883.935 1.03758 -2.74976 0
M  V30 8995 H 881.449 0.478087 -1.55203 0
M  V30 8996 H 883.446 3.46424 -2.3194 0
M  V30 8997 H 882.106 3.00197 -1.23742 0
M  V30 8998 H 883.117 1.9729 -4.7885 0
M  V30 8999 H 879.794 3.29057 -2.56958 0
M  V30 9000 H 881.184 2.02289 -6.40725 0
M  V30 9001 N 883.904 1.48273 0.534124 0
M  V30 9002 C 885.144 1.57674 1.3007 0
M  V30 9003 C 885.508 0.243256 1.90453 0
M  V30 9004 O 886.709 0.212231 2.67961 0
M  V30 9005 C 884.98 2.68044 2.36405 0
M  V30 9006 S 886.539 2.97183 3.22843 0
M  V30 9007 H 883.357 0.55652 0.442501 0
M  V30 9008 H 885.959 1.85774 0.60896 0
M  V30 9009 H 884.663 3.63498 1.90518 0
M  V30 9010 H 884.194 2.41833 3.10291 0
M  V30 9011 H 886.209 2.36164 4.36396 0
M  V30 9012 N 885.382 -0.782676 1.36792 0
M  V30 9013 C 886.314 -1.9044 1.27536 0
M  V30 9014 C 887.327 -1.61647 0.193426 0
M  V30 9015 O 888.516 -1.72769 0.448692 0
M  V30 9016 C 885.616 -3.2541 0.946641 0
M  V30 9017 C 884.789 -3.81932 2.13183 0
M  V30 9018 C 883.848 -4.95355 1.7751 0
M  V30 9019 O 882.874 -5.11517 2.49678 0
M  V30 9020 N 884.076 -5.76108 0.712755 0
M  V30 9021 H 886.841 -1.98899 2.24186 0
M  V30 9022 H 884.402 -0.96127 1.30274 0
M  V30 9023 H 886.394 -3.98791 0.689043 0
M  V30 9024 H 884.964 -3.12524 0.0690591 0
M  V30 9025 H 884.184 -3.00459 2.55183 0
M  V30 9026 H 885.472 -4.16426 2.92347 0
M  V30 9027 H 884.87 -5.65586 0.113662 0
M  V30 9028 H 883.427 -6.49762 0.514995 0
M  V30 9029 N 886.86 -1.21182 -1.00761 0
M  V30 9030 C 888.271 -1.02652 -1.55947 0
M  V30 9031 C 888.622 0.414466 -1.91772 0
M  V30 9032 O 887.747 1.29727 -1.73204 0
M  V30 9033 C 888.342 -1.85713 -2.83366 0
M  V30 9034 C 886.901 -1.71523 -3.35048 0
M  V30 9035 C 886.048 -1.83087 -2.08265 0
M  V30 9036 H 888.999 -1.35242 -0.830379 0
M  V30 9037 H 889.02 -1.36583 -3.55141 0
M  V30 9038 H 888.532 -2.90584 -2.5726 0
M  V30 9039 H 886.633 -0.693257 -3.66094 0
M  V30 9040 H 886.746 -2.53333 -4.06644 0
M  V30 9041 H 885.11 -1.26367 -2.21141 0
M  V30 9042 H 885.893 -2.8946 -1.84575 0
M  V30 9043 N 888.338 1.20213 -1.01915 0
M  V30 9044 C 889.268 2.25336 -0.612023 0
M  V30 9045 C 890.249 1.65933 0.374186 0
M  V30 9046 O 891.434 1.92464 0.259053 0
M  V30 9047 C 888.564 3.47267 0.047904 0
M  V30 9048 C 887.518 4.1928 -0.859557 0
M  V30 9049 C 886.844 5.3466 -0.0652655 0
M  V30 9050 C 888.144 4.75143 -2.1688 0
M  V30 9051 H 889.838 2.59645 -1.49079 0
M  V30 9052 H 887.384 1.24808 -0.718263 0
M  V30 9053 H 889.337 4.19991 0.344294 0
M  V30 9054 H 888.061 3.12129 0.961404 0
M  V30 9055 H 886.72 3.48425 -1.13999 0
M  V30 9056 H 886.368 4.95767 0.849964 0
M  V30 9057 H 886.068 5.83772 -0.669618 0
M  V30 9058 H 887.592 6.10187 0.224612 0
M  V30 9059 H 889.006 5.39672 -1.9346 0
M  V30 9060 H 887.403 5.34702 -2.72422 0
M  V30 9061 H 888.473 3.93744 -2.83008 0
M  V30 9062 N 889.816 0.795718 1.36037 0
M  V30 9063 C 890.748 0.156336 2.28666 0
M  V30 9064 C 891.761 -0.638075 1.49775 0
M  V30 9065 O 892.95 -0.472222 1.7214 0
M  V30 9066 C 890.05 -0.801417 3.29288 0
M  V30 9067 C 889.223 -0.0557118 4.37365 0
M  V30 9068 C 888.282 -0.930338 5.1791 0
M  V30 9069 O 887.308 -0.385266 5.67895 0
M  V30 9070 N 888.51 -2.25382 5.34961 0
M  V30 9071 H 891.275 0.952033 2.84177 0
M  V30 9072 H 888.836 0.650189 1.48271 0
M  V30 9073 H 890.828 -1.39051 3.80062 0
M  V30 9074 H 889.398 -1.49796 2.74372 0
M  V30 9075 H 888.618 0.714508 3.87671 0
M  V30 9076 H 889.906 0.458633 5.06729 0
M  V30 9077 H 889.304 -2.72073 4.95977 0
M  V30 9078 H 887.861 -2.79241 5.88955 0
M  V30 9079 N 891.294 -1.47756 0.548274 0
M  V30 9080 C 892.522 -2.06884 0.0254873 0
M  V30 9081 C 892.937 -1.40225 -1.26422 0
M  V30 9082 O 892.294 -0.495776 -1.75637 0
M  V30 9083 C 892.345 -3.61036 -0.183134 0
M  V30 9084 O 892.066 -4.25195 1.05549 0
M  V30 9085 C 893.567 -4.37008 -0.744222 0
M  V30 9086 H 890.787 -0.669697 0.041789 0
M  V30 9087 H 893.331 -1.89888 0.759138 0
M  V30 9088 H 891.486 -3.77576 -0.866886 0
M  V30 9089 H 891.9 -5.17606 0.847629 0
M  V30 9090 H 893.374 -5.45579 -0.839529 0
M  V30 9091 H 893.851 -4.0268 -1.75344 0
M  V30 9092 H 894.457 -4.25191 -0.0964542 0
M  V30 9093 N 892.772 -0.284283 -1.55015 0
M  V30 9094 C 894.002 0.332465 -2.03907 0
M  V30 9095 C 894.41 1.49331 -1.16177 0
M  V30 9096 O 893.753 1.82851 -0.176395 0
M  V30 9097 C 893.815 0.867193 -3.48884 0
M  V30 9098 C 893.479 -0.166198 -4.56698 0
M  V30 9099 C 894.476 -0.988898 -5.10408 0
M  V30 9100 C 892.161 -0.303081 -5.01385 0
M  V30 9101 C 894.155 -1.93458 -6.07333 0
M  V30 9102 C 891.842 -1.25223 -5.98133 0
M  V30 9103 C 892.84 -2.06647 -6.50988 0
M  V30 9104 O 892.528 -2.99955 -7.45843 0
M  V30 9105 H 892.26 0.0786597 -0.671408 0
M  V30 9106 H 894.814 -0.416871 -2.01125 0
M  V30 9107 H 893.044 1.66676 -3.48935 0
M  V30 9108 H 894.733 1.39802 -3.81065 0
M  V30 9109 H 895.499 -0.89393 -4.76691 0
M  V30 9110 H 891.378 0.320711 -4.59883 0
M  V30 9111 H 894.922 -2.57053 -6.48513 0
M  V30 9112 H 890.819 -1.34798 -6.31268 0
M  V30 9113 H 891.587 -2.94742 -7.6359 0
M  V30 9114 N 894.251 1.57596 -0.0117121 0
M  V30 9115 C 895.662 1.79033 0.529521 0
M  V30 9116 C 896.013 0.920299 1.73277 0
M  V30 9117 O 895.138 0.125934 2.16033 0
M  V30 9118 C 895.733 3.24695 0.967405 0
M  V30 9119 C 894.292 3.47188 1.45387 0
M  V30 9120 C 893.439 2.74245 0.410466 0
M  V30 9121 H 896.39 1.56908 -0.237836 0
M  V30 9122 H 896.411 3.33451 1.83278 0
M  V30 9123 H 895.923 3.87992 0.0914605 0
M  V30 9124 H 894.024 2.89121 2.35032 0
M  V30 9125 H 894.137 4.55886 1.47325 0
M  V30 9126 H 892.501 2.39209 0.874721 0
M  V30 9127 H 893.284 3.40248 -0.456713 0
M  V30 9128 N 895.729 -0.261212 1.5542 0
M  V30 9129 C 896.954 -1.01341 1.80955 0
M  V30 9130 C 897.379 -1.78711 0.586849 0
M  V30 9131 O 896.737 -1.75266 -0.463837 0
M  V30 9132 C 896.785 -1.93835 3.04073 0
M  V30 9133 O 895.889 -3.02791 2.79985 0
M  V30 9134 H 895.23 -0.289123 0.597749 0
M  V30 9135 H 897.76 -0.286543 2.02584 0
M  V30 9136 H 897.77 -2.3557 3.33123 0
M  V30 9137 H 896.445 -1.36936 3.9271 0
M  V30 9138 H 895.022 -2.65287 2.62063 0
M  V30 9139 N 897.207 -1.48554 -0.526253 0
M  V30 9140 C 898.432 -1.60686 -1.31129 0
M  V30 9141 C 898.857 -0.268701 -1.86171 0
M  V30 9142 O 898.215 0.760167 -1.64594 0
M  V30 9143 C 898.263 -2.65938 -2.43536 0
M  V30 9144 O 897.367 -2.23356 -3.46678 0
M  V30 9145 H 896.708 -0.538691 -0.388211 0
M  V30 9146 H 899.238 -1.94567 -0.632826 0
M  V30 9147 H 899.248 -2.87327 -2.89668 0
M  V30 9148 H 897.923 -3.63085 -2.02835 0
M  V30 9149 H 896.5 -2.12196 -3.06639 0
M  V30 9150 N 898.685 0.775411 -1.37205 0
M  V30 9151 C 899.91 1.5696 -1.35567 0
M  V30 9152 C 900.335 1.88012 0.0575554 0
M  V30 9153 O 899.693 1.48954 1.03355 0
M  V30 9154 C 899.741 2.85886 -2.19776 0
M  V30 9155 O 898.845 3.80103 -1.59987 0
M  V30 9156 H 898.186 0.475583 -0.463375 0
M  V30 9157 H 900.716 0.96001 -1.80679 0
M  V30 9158 H 900.726 3.35024 -2.32859 0
M  V30 9159 H 899.401 2.62613 -3.22502 0
M  V30 9160 H 897.978 3.38736 -1.55924 0
M  V30 9161 N 900.163 1.21714 1.00117 0
M  V30 9162 C 901.411 1.03465 1.73607 0
M  V30 9163 C 901.732 -0.432295 1.90148 0
M  V30 9164 O 901.002 -1.31157 1.45515 0
M  V30 9165 H 899.582 0.379857 0.643209 0
M  V30 9166 H 902.244 1.53088 1.20624 0
M  V30 9167 H 901.34 1.50574 2.73375 0
M  V30 9168 N 901.641 -1.19671 1.02551 0
M  V30 9169 C 903.052 -1.70964 0.750208 0
M  V30 9170 C 903.403 -1.82095 -0.730461 0
M  V30 9171 O 902.528 -1.48974 -1.56958 0
M  V30 9172 C 903.123 -3.10516 1.35518 0
M  V30 9173 C 901.682 -3.59083 1.12854 0
M  V30 9174 C 900.829 -2.36041 1.45534 0
M  V30 9175 H 903.78 -1.04559 1.19386 0
M  V30 9176 H 903.801 -3.73028 0.750378 0
M  V30 9177 H 903.313 -3.02383 2.43282 0
M  V30 9178 H 901.414 -3.72536 0.0689627 0
M  V30 9179 H 901.527 -4.43395 1.81488 0
M  V30 9180 H 899.891 -2.39214 0.87458 0
M  V30 9181 H 900.674 -2.3054 2.54374 0
M  V30 9182 N 903.119 -0.802921 -1.35613 0
M  V30 9183 C 904.365 -0.382141 -1.99167 0
M  V30 9184 C 904.698 1.04704 -1.63556 0
M  V30 9185 O 903.973 1.72578 -0.89706 0
M  V30 9186 C 904.256 -0.561493 -3.55695 0
M  V30 9187 C 904.109 -2.03534 -4.01116 0
M  V30 9188 C 905.428 0.0151135 -4.40097 0
M  V30 9189 H 902.547 -0.140322 -0.723518 0
M  V30 9190 H 905.189 -1.01177 -1.6082 0
M  V30 9191 H 903.339 -0.0255083 -3.88492 0
M  V30 9192 H 905.011 -2.63343 -3.78746 0
M  V30 9193 H 903.254 -2.5331 -3.52159 0
M  V30 9194 H 903.925 -2.11173 -5.1001 0
M  V30 9195 H 906.401 -0.442582 -4.1374 0
M  V30 9196 H 905.277 -0.140316 -5.48721 0
M  V30 9197 H 905.538 1.10848 -4.27978 0
M  V30 9198 N 904.597 1.47463 -0.556102 0
M  V30 9199 C 905.507 2.33785 0.195378 0
M  V30 9200 C 906.523 1.48123 0.913 0
M  V30 9201 O 907.699 1.81053 0.882141 0
M  V30 9202 C 904.764 3.24795 1.21282 0
M  V30 9203 C 903.825 4.26346 0.502747 0
M  V30 9204 C 903.058 5.13007 1.47172 0
M  V30 9205 O 903.281 5.02103 2.70646 0
M  V30 9206 O 902.215 5.93588 0.996814 0
M  V30 9207 H 906.041 2.99341 -0.512676 0
M  V30 9208 H 903.626 1.46004 -0.31673 0
M  V30 9209 H 905.508 3.81015 1.80016 0
M  V30 9210 H 904.183 2.61868 1.90282 0
M  V30 9211 H 903.09 3.73889 -0.125757 0
M  V30 9212 H 904.423 4.91984 -0.145779 0
M  V30 9213 N 906.075 0.2925 1.54862 0
M  V30 9214 C 907.321 -0.319736 2.00264 0
M  V30 9215 C 907.654 -1.5419 1.18064 0
M  V30 9216 O 906.929 -1.92821 0.254983 0
M  V30 9217 C 907.212 -0.684753 3.5353 0
M  V30 9218 C 907.065 0.545961 4.46474 0
M  V30 9219 C 908.384 -1.51456 4.13218 0
M  V30 9220 H 905.503 -0.11474 0.728014 0
M  V30 9221 H 908.145 0.402907 1.85679 0
M  V30 9222 H 906.295 -1.30044 3.66089 0
M  V30 9223 H 907.967 1.18448 4.45834 0
M  V30 9224 H 906.21 1.1808 4.1742 0
M  V30 9225 H 906.881 0.246544 5.51449 0
M  V30 9226 H 909.357 -0.994421 4.04043 0
M  V30 9227 H 908.233 -1.73875 5.20633 0
M  V30 9228 H 908.494 -2.5011 3.64551 0
M  V30 9229 N 907.553 -1.57587 0.0200696 0
M  V30 9230 C 908.8 -1.91424 -0.660525 0
M  V30 9231 C 909.128 -0.895626 -1.72652 0
M  V30 9232 O 908.383 0.096771 -1.95461 0
M  V30 9233 C 908.682 -3.32002 -1.32323 0
M  V30 9234 C 908.348 -4.49223 -0.388487 0
M  V30 9235 C 907.01 -4.81021 -0.131184 0
M  V30 9236 C 909.362 -5.20581 0.253906 0
M  V30 9237 C 906.69 -5.81539 0.776471 0
M  V30 9238 C 909.042 -6.22067 1.14956 0
M  V30 9239 C 907.706 -6.52311 1.41584 0
M  V30 9240 H 906.976 -0.700472 -0.241703 0
M  V30 9241 H 909.623 -1.91333 0.0798991 0
M  V30 9242 H 907.928 -3.28312 -2.13819 0
M  V30 9243 H 909.625 -3.5545 -1.85623 0
M  V30 9244 H 906.215 -4.24391 -0.599207 0
M  V30 9245 H 910.399 -4.96253 0.068164 0
M  V30 9246 H 905.655 -6.03322 0.990575 0
M  V30 9247 H 909.829 -6.76484 1.65357 0
M  V30 9248 H 907.456 -7.30017 2.12083 0
M  V30 9249 N 909.032 0.252966 -1.55557 0
M  V30 9250 C 910.281 0.979736 -1.76307 0
M  V30 9251 C 910.594 1.86714 -0.582871 0
M  V30 9252 O 911.8 2.6302 -0.673247 0
M  V30 9253 C 910.256 1.79205 -3.12112 0
M  V30 9254 C 909.864 0.952333 -4.37761 0
M  V30 9255 C 911.608 2.51191 -3.42203 0
M  V30 9256 C 909.515 1.76018 -5.64599 0
M  V30 9257 H 908.445 0.369538 -0.657235 0
M  V30 9258 H 911.096 0.234619 -1.81994 0
M  V30 9259 H 909.478 2.57888 -3.00515 0
M  V30 9260 H 910.652 0.208251 -4.60329 0
M  V30 9261 H 908.967 0.346082 -4.14959 0
M  V30 9262 H 911.564 3.12074 -4.34182 0
M  V30 9263 H 911.907 3.22499 -2.63249 0
M  V30 9264 H 912.44 1.79523 -3.54988 0
M  V30 9265 H 909.179 1.09095 -6.46358 0
M  V30 9266 H 908.699 2.4797 -5.46142 0
M  V30 9267 H 910.378 2.32884 -6.03634 0
M  V30 9268 N 910.51 1.48831 0.518367 0
M  V30 9269 C 911.738 1.6112 1.298 0
M  V30 9270 C 912.153 0.275872 1.86774 0
M  V30 9271 O 911.51 -0.736416 1.66983 0
M  V30 9272 C 911.561 2.66675 2.44063 0
M  V30 9273 O 911.282 3.95027 1.89434 0
M  V30 9274 C 912.783 2.8951 3.35706 0
M  V30 9275 H 910.003 0.542916 0.394314 0
M  V30 9276 H 912.547 1.94743 0.624142 0
M  V30 9277 H 910.702 2.35879 3.07311 0
M  V30 9278 H 911.116 4.53031 2.64316 0
M  V30 9279 H 912.59 3.67142 4.12202 0
M  V30 9280 H 913.067 1.98768 3.91648 0
M  V30 9281 H 913.673 3.21656 2.7824 0
M  V30 9282 N 911.988 -0.768124 1.37614 0
M  V30 9283 C 912.898 -1.91249 1.35871 0
M  V30 9284 C 913.914 -1.7208 0.257786 0
M  V30 9285 O 915.09 -1.95253 0.493782 0
M  V30 9286 C 912.155 -3.26423 1.16829 0
M  V30 9287 C 911.216 -3.5822 2.36594 0
M  V30 9288 C 910.449 -4.86945 2.1845 0
M  V30 9289 O 910.672 -5.58258 1.17064 0
M  V30 9290 O 909.606 -5.17888 3.06718 0
M  V30 9291 H 913.432 -1.95671 2.32264 0
M  V30 9292 H 911.017 -0.911382 1.18382 0
M  V30 9293 H 912.899 -4.07269 1.08212 0
M  V30 9294 H 911.574 -3.22845 0.235123 0
M  V30 9295 H 910.481 -2.77594 2.50783 0
M  V30 9296 H 911.814 -3.66545 3.2849 0
M  V30 9297 N 913.466 -1.22244 -0.994698 0
M  V30 9298 C 914.694 -1.07218 -1.76952 0
M  V30 9299 C 915.109 0.377388 -1.8499 0
M  V30 9300 O 914.466 1.26157 -1.31874 0
M  V30 9301 C 914.517 -1.67496 -3.20355 0
M  V30 9302 O 914.238 -3.06782 -3.12756 0
M  V30 9303 C 915.739 -1.57721 -4.14294 0
M  V30 9304 H 912.959 -0.375966 -0.555779 0
M  V30 9305 H 915.503 -1.61799 -1.25065 0
M  V30 9306 H 913.658 -1.16982 -3.69315 0
M  V30 9307 H 914.072 -3.35784 -4.02926 0
M  V30 9308 H 915.546 -2.04623 -5.12673 0
M  V30 9309 H 916.023 -0.533434 -4.35949 0
M  V30 9310 H 916.629 -2.07531 -3.71229 0
M  V30 9311 N 914.944 1.19125 -1.03184 0
M  V30 9312 C 916.355 1.70564 -0.759264 0
M  V30 9313 C 916.706 1.8248 0.720794 0
M  V30 9314 O 915.831 1.49804 1.56166 0
M  V30 9315 C 916.426 3.09793 -1.37163 0
M  V30 9316 C 914.985 3.5848 -1.14757 0
M  V30 9317 C 914.132 2.35265 -1.46784 0
M  V30 9318 H 917.083 1.03925 -1.19939 0
M  V30 9319 H 917.104 3.72624 -0.77015 0
M  V30 9320 H 916.616 3.01088 -2.44882 0
M  V30 9321 H 914.717 3.72494 -0.0887182 0
M  V30 9322 H 914.83 4.42426 -1.83836 0
M  V30 9323 H 913.194 2.38747 -0.887254 0
M  V30 9324 H 913.977 2.29188 -2.55593 0
M  V30 9325 N 916.422 0.810101 1.35185 0
M  V30 9326 C 917.647 0.40364 2.03434 0
M  V30 9327 C 918.072 -0.97857 1.60641 0
M  V30 9328 O 917.43 -1.63435 0.784779 0
M  V30 9329 C 917.478 0.499154 3.57129 0
M  V30 9330 O 916.582 -0.486039 4.09526 0
M  V30 9331 H 915.923 0.168049 0.642383 0
M  V30 9332 H 918.453 1.09696 1.72708 0
M  V30 9333 H 918.463 0.370236 4.06317 0
M  V30 9334 H 917.138 1.50733 3.87624 0
M  V30 9335 H 915.715 -0.31707 3.7155 0
M  V30 9336 N 917.9 -1.47166 0.563914 0
M  V30 9337 C 918.832 -2.28165 -0.217583 0
M  V30 9338 C 919.845 -1.37405 -0.873134 0
M  V30 9339 O 921.034 -1.6217 -0.745857 0
M  V30 9340 C 918.134 -3.11873 -1.32621 0
M  V30 9341 C 917.307 -4.30637 -0.766177 0
M  V30 9342 C 916.366 -4.95889 -1.76014 0
M  V30 9343 O 915.392 -5.54071 -1.3036 0
M  V30 9344 N 916.594 -4.91191 -3.09373 0
M  V30 9345 H 919.359 -2.95876 0.477256 0
M  V30 9346 H 916.92 -1.5687 0.40043 0
M  V30 9347 H 918.912 -3.52392 -1.99003 0
M  V30 9348 H 917.482 -2.46361 -1.92419 0
M  V30 9349 H 916.702 -3.94129 0.0745998 0
M  V30 9350 H 917.99 -5.07442 -0.371472 0
M  V30 9351 H 917.388 -4.45133 -3.49104 0
M  V30 9352 H 915.945 -5.35708 -3.71295 0
M  V30 9353 N 919.378 -0.300708 -1.54705 0
M  V30 9354 C 920.789 0.191995 -1.8571 0
M  V30 9355 C 921.14 1.53447 -1.22264 0
M  V30 9356 O 920.265 2.10054 -0.520226 0
M  V30 9357 C 920.86 0.355148 -3.36933 0
M  V30 9358 C 919.419 0.792071 -3.67972 0
M  V30 9359 C 918.566 -0.099756 -2.77121 0
M  V30 9360 H 921.517 -0.521729 -1.49879 0
M  V30 9361 H 921.538 1.18977 -3.61421 0
M  V30 9362 H 921.05 -0.622075 -3.83082 0
M  V30 9363 H 919.151 1.77986 -3.27341 0
M  V30 9364 H 919.264 0.611661 -4.75179 0
M  V30 9365 H 917.628 0.420909 -2.51198 0
M  V30 9366 H 918.411 -1.07333 -3.2609 0
M  V30 9367 N 920.856 1.57574 -0.0284266 0
M  V30 9368 C 921.804 2.11332 0.971675 0
M  V30 9369 C 922.798 1.03974 1.33738 0
M  V30 9370 O 924.004 1.22409 1.31969 0
M  V30 9371 H 920.379 0.675174 0.331125 0
M  V30 9372 H 922.35 2.943 0.49296 0
M  V30 9373 C 921.099 2.65496 2.24516 0
M  V30 9374 H 920.422 3.47753 1.9725 0
M  V30 9375 H 921.862 3.06757 2.92705 0
M  V30 9376 C 920.321 1.58207 2.97443 0
M  V30 9377 O 920.851 0.981496 3.89525 0
M  V30 9378 N 919.057 1.30269 2.59766 0
M  V30 9379 H 918.604 1.79294 1.84963 0
M  V30 9380 H 918.562 0.587085 3.0887 0
M  V30 9381 N 922.334 -0.244713 1.55689 0
M  V30 9382 C 923.559 -0.994157 1.8202 0
M  V30 9383 C 923.984 -1.78079 0.60577 0
M  V30 9384 O 923.342 -1.75748 -0.445221 0
M  V30 9385 C 923.39 -1.90599 3.06111 0
M  V30 9386 O 922.494 -2.99804 2.8318 0
M  V30 9387 H 921.835 -0.282767 0.600782 0
M  V30 9388 H 924.365 -0.26504 2.02876 0
M  V30 9389 H 924.375 -2.32023 3.35603 0
M  V30 9390 H 923.05 -1.32763 3.9414 0
M  V30 9391 H 921.627 -2.62493 2.64862 0
M  V30 9392 N 923.813 -1.49104 -0.510467 0
M  V30 9393 C 924.763 -1.6147 -1.6097 0
M  V30 9394 C 925.747 -0.470797 -1.53858 0
M  V30 9395 O 926.939 -0.723266 -1.61548 0
M  V30 9396 C 924.068 -1.67575 -2.99622 0
M  V30 9397 C 923.154 -2.87511 -3.11766 0
M  V30 9398 N 923.545 -4.11704 -2.93826 0
M  V30 9399 C 921.843 -2.85251 -3.42852 0
M  V30 9400 C 922.544 -4.92276 -3.09902 0
M  V30 9401 N 921.52 -4.2546 -3.38355 0
M  V30 9402 H 925.322 -2.5522 -1.45739 0
M  V30 9403 H 922.836 -1.45745 -0.716383 0
M  V30 9404 H 924.833 -1.74531 -3.78609 0
M  V30 9405 H 923.493 -0.749557 -3.1593 0
M  V30 9406 H 924.504 -4.41834 -2.70191 0
M  V30 9407 H 921.181 -2.0197 -3.65396 0
M  V30 9408 H 922.571 -6.00905 -3.00604 0
M  V30 9409 N 925.291 0.760815 -1.38019 0
M  V30 9410 C 926.702 1.33773 -1.30237 0
M  V30 9411 C 927.053 1.96148 0.0451153 0
M  V30 9412 O 926.178 1.94574 0.9471 0
M  V30 9413 C 926.773 2.43227 -2.35851 0
M  V30 9414 C 925.332 2.96659 -2.31669 0
M  V30 9415 C 924.479 1.69972 -2.191 0
M  V30 9416 H 927.43 0.560237 -1.48482 0
M  V30 9417 H 927.451 3.22985 -2.01149 0
M  V30 9418 H 926.963 1.978 -3.33911 0
M  V30 9419 H 925.064 3.46433 -1.37167 0
M  V30 9420 H 925.177 3.51529 -3.25521 0
M  V30 9421 H 923.541 1.9332 -1.65829 0
M  V30 9422 H 924.324 1.26633 -3.19091 0
M  V30 9423 N 926.769 1.22769 0.988202 0
M  V30 9424 C 928.018 1.0492 1.72263 0
M  V30 9425 C 928.331 -0.415282 1.91141 0
M  V30 9426 O 929.537 -0.713547 2.61956 0
M  V30 9427 C 927.993 1.82891 3.09966 0
M  V30 9428 C 927.601 3.33618 2.99003 0
M  V30 9429 C 929.345 1.73505 3.87423 0
M  V30 9430 C 927.252 4.04012 4.3189 0
M  V30 9431 H 926.182 0.38899 0.645912 0
M  V30 9432 H 928.833 1.46664 1.10281 0
M  V30 9433 H 927.215 1.33948 3.72658 0
M  V30 9434 H 928.389 3.8999 2.45448 0
M  V30 9435 H 926.704 3.43732 2.35027 0
M  V30 9436 H 929.301 2.23416 4.85787 0
M  V30 9437 H 929.644 0.696344 4.10435 0
M  V30 9438 H 930.177 2.20016 3.31418 0
M  V30 9439 H 926.916 5.08155 4.14075 0
M  V30 9440 H 926.436 3.52428 4.8534 0
M  V30 9441 H 928.115 4.0987 5.00615 0
M  V30 9442 N 928.247 -1.18576 1.03814 0
M  V30 9443 C 929.179 -2.21607 0.585055 0
M  V30 9444 C 930.192 -1.59125 -0.343963 0
M  V30 9445 O 931.381 -1.77959 -0.138882 0
M  V30 9446 C 928.481 -3.38495 -0.165602 0
M  V30 9447 C 927.654 -4.30557 0.770662 0
M  V30 9448 C 926.713 -5.26161 0.0637534 0
M  V30 9449 O 925.739 -5.64961 0.693359 0
M  V30 9450 N 926.941 -5.67882 -1.20377 0
M  V30 9451 H 929.706 -2.61104 1.47121 0
M  V30 9452 H 927.267 -1.33336 0.918316 0
M  V30 9453 H 929.259 -3.99474 -0.648292 0
M  V30 9454 H 927.829 -2.97711 -0.953268 0
M  V30 9455 H 927.049 -3.67221 1.43326 0
M  V30 9456 H 928.337 -4.88969 1.40667 0
M  V30 9457 H 927.735 -5.38409 -1.73586 0
M  V30 9458 H 926.292 -6.31069 -1.63079 0
M  V30 9459 N 929.725 -0.817259 -1.34754 0
M  V30 9460 C 930.971 -0.412407 -1.99175 0
M  V30 9461 C 931.326 1.01192 -1.6364 0
M  V30 9462 O 930.619 1.69417 -0.894897 0
M  V30 9463 C 930.813 -0.5453 -3.53216 0
M  V30 9464 C 930.642 -1.981 -4.03716 0
M  V30 9465 C 929.412 -2.61167 -4.32574 0
M  V30 9466 C 931.61 -2.94698 -4.21494 0
M  V30 9467 N 929.592 -3.96035 -4.69073 0
M  V30 9468 C 930.963 -4.14462 -4.61109 0
M  V30 9469 C 933.018 -2.9139 -4.03728 0
M  V30 9470 C 931.721 -5.31363 -4.84815 0
M  V30 9471 C 933.747 -4.07502 -4.28598 0
M  V30 9472 C 933.109 -5.26016 -4.68494 0
M  V30 9473 H 929.208 -0.198899 -0.756282 0
M  V30 9474 H 931.792 -1.06076 -1.63266 0
M  V30 9475 H 929.963 0.073122 -3.88331 0
M  V30 9476 H 931.695 -0.113999 -4.04539 0
M  V30 9477 H 928.45 -2.12446 -4.23277 0
M  V30 9478 H 928.874 -4.65502 -4.91566 0
M  V30 9479 H 933.516 -2.00908 -3.72016 0
M  V30 9480 H 931.234 -6.22408 -5.15397 0
M  V30 9481 H 934.82 -4.06335 -4.16393 0
M  V30 9482 H 933.7 -6.14369 -4.87361 0
M  V30 9483 N 931.203 1.46865 -0.571711 0
M  V30 9484 C 932.151 2.31897 0.180714 0
M  V30 9485 C 933.145 1.43815 0.895191 0
M  V30 9486 O 934.351 1.60501 0.814828 0
M  V30 9487 H 930.726 0.748032 0.077148 0
M  V30 9488 H 932.697 2.93185 -0.555432 0
M  V30 9489 C 931.446 3.26766 1.18824 0
M  V30 9490 H 930.769 3.94515 0.64789 0
M  V30 9491 H 932.209 3.89067 1.68532 0
M  V30 9492 C 930.668 2.51325 2.2436 0
M  V30 9493 O 931.198 2.26825 3.31532 0
M  V30 9494 N 929.404 2.12079 1.98673 0
M  V30 9495 H 928.951 2.32204 1.1153 0
M  V30 9496 H 928.909 1.61921 2.69498 0
M  V30 9497 N 932.681 0.308908 1.54543 0
M  V30 9498 C 933.644 -0.550857 2.22482 0
M  V30 9499 C 934.644 -1.0551 1.21344 0
M  V30 9500 O 935.834 -0.949866 1.46025 0
M  V30 9501 C 932.966 -1.76354 2.9174 0
M  V30 9502 H 934.159 0.0428395 2.99869 0
M  V30 9503 H 931.712 0.059825 1.56185 0
M  V30 9504 H 932.447 -2.39686 2.18451 0
M  V30 9505 H 932.232 -1.40954 3.65889 0
M  V30 9506 H 933.722 -2.37417 3.43545 0
M  V30 9507 N 934.159 -1.57557 0.0367827 0
M  V30 9508 C 935.57 -1.79853 -0.500971 0
M  V30 9509 C 935.921 -0.947749 -1.71791 0
M  V30 9510 O 935.046 -0.160287 -2.15806 0
M  V30 9511 C 935.641 -3.26193 -0.915626 0
M  V30 9512 C 934.2 -3.49457 -1.39845 0
M  V30 9513 C 933.347 -2.74864 -0.366784 0
M  V30 9514 H 936.298 -1.56509 0.262768 0
M  V30 9515 H 936.319 -3.36324 -1.7795 0
M  V30 9516 H 935.831 -3.88089 -0.0297227 0
M  V30 9517 H 933.932 -2.92823 -2.30402 0
M  V30 9518 H 934.045 -4.58172 -1.40054 0
M  V30 9519 H 932.409 -2.4057 -0.836554 0
M  V30 9520 H 933.192 -3.39479 0.510785 0
M  V30 9521 N 935.637 0.236453 -1.55816 0
M  V30 9522 C 936.569 1.31602 -1.87653 0
M  V30 9523 C 937.582 1.43782 -0.763584 0
M  V30 9524 O 938.771 1.44945 -1.04178 0
M  V30 9525 C 935.871 2.69342 -2.05689 0
M  V30 9526 C 935.044 2.79298 -3.36617 0
M  V30 9527 C 934.103 3.97952 -3.44268 0
M  V30 9528 O 933.129 3.86989 -4.17406 0
M  V30 9529 N 934.331 5.11594 -2.74321 0
M  V30 9530 H 937.096 1.04623 -2.80845 0
M  V30 9531 H 934.657 0.426534 -1.5618 0
M  V30 9532 H 936.649 3.47074 -2.08138 0
M  V30 9533 H 935.219 2.88984 -1.19192 0
M  V30 9534 H 934.439 1.8816 -3.46395 0
M  V30 9535 H 935.727 2.82908 -4.22895 0
M  V30 9536 H 935.125 5.23394 -2.14651 0
M  V30 9537 H 933.682 5.87422 -2.8245 0
M  V30 9538 N 937.115 1.49373 0.502552 0
M  V30 9539 C 938.526 1.52 1.0841 0
M  V30 9540 C 938.877 0.305317 1.9381 0
M  V30 9541 O 938.002 -0.585023 2.08342 0
M  V30 9542 C 938.597 2.75437 1.97281 0
M  V30 9543 C 937.156 2.80848 2.50602 0
M  V30 9544 C 936.303 2.45894 1.28186 0
M  V30 9545 H 939.254 1.56092 0.286533 0
M  V30 9546 H 939.275 2.55511 2.81947 0
M  V30 9547 H 938.787 3.63827 1.35098 0
M  V30 9548 H 936.888 1.96735 3.16427 0
M  V30 9549 H 937.001 3.82979 2.8786 0
M  V30 9550 H 935.365 1.97639 1.60657 0
M  V30 9551 H 936.148 3.36556 0.677139 0
M  V30 9552 N 938.594 -0.753485 1.38421 0
M  V30 9553 C 939.819 -1.54783 1.38047 0
M  V30 9554 C 940.244 -1.8808 -0.0276371 0
M  V30 9555 O 939.602 -1.5058 -1.00973 0
M  V30 9556 C 939.65 -2.82353 2.24297 0
M  V30 9557 O 938.754 -3.77509 1.66014 0
M  V30 9558 H 938.095 -0.468151 0.470883 0
M  V30 9559 H 940.625 -0.931144 1.82184 0
M  V30 9560 H 940.635 -3.31277 2.38159 0
M  V30 9561 H 939.31 -2.57449 3.26639 0
M  V30 9562 H 937.887 -3.36212 1.61294 0
M  V30 9563 N 940.072 -1.23292 -0.981677 0
M  V30 9564 C 941.022 -0.980133 -2.05858 0
M  V30 9565 C 942.006 0.0734044 -1.60732 0
M  V30 9566 O 943.198 -0.138561 -1.76457 0
M  V30 9567 C 940.327 -0.571879 -3.38503 0
M  V30 9568 C 939.413 -1.66075 -3.90231 0
M  V30 9569 N 939.804 -2.89077 -4.15052 0
M  V30 9570 C 938.102 -1.53503 -4.18751 0
M  V30 9571 C 938.803 -3.59567 -4.5726 0
M  V30 9572 N 937.779 -2.87076 -4.61615 0
M  V30 9573 H 941.581 -1.91432 -2.23005 0
M  V30 9574 H 939.095 -1.13211 -1.16434 0
M  V30 9575 H 941.092 -0.372059 -4.15236 0
M  V30 9576 H 939.752 0.355278 -3.2275 0
M  V30 9577 H 940.763 -3.25395 -4.02912 0
M  V30 9578 H 937.44 -0.674891 -4.12009 0
M  V30 9579 H 938.83 -4.65007 -4.84993 0
M  V30 9580 N 941.55 1.18024 -1.04442 0
M  V30 9581 C 942.799 1.8743 -0.745185 0
M  V30 9582 C 943.112 1.81459 0.730206 0
M  V30 9583 O 944.318 2.46263 1.1431 0
M  V30 9584 C 942.774 3.36266 -1.28271 0
M  V30 9585 C 942.382 3.50757 -2.787 0
M  V30 9586 C 944.126 4.11048 -1.06018 0
M  V30 9587 C 942.033 4.93573 -3.25791 0
M  V30 9588 H 940.963 0.702038 -0.27506 0
M  V30 9589 H 943.614 1.33333 -1.26073 0
M  V30 9590 H 941.996 3.89853 -0.695002 0
M  V30 9591 H 943.17 3.07423 -3.43261 0
M  V30 9592 H 941.485 2.89385 -2.99408 0
M  V30 9593 H 944.082 5.16395 -1.38711 0
M  V30 9594 H 944.425 4.163 0.00241716 0
M  V30 9595 H 944.958 3.63644 -1.61269 0
M  V30 9596 H 941.697 4.93491 -4.31447 0
M  V30 9597 H 941.217 5.37607 -2.65968 0
M  V30 9598 H 942.896 5.62307 -3.20031 0
M  V30 9599 N 943.028 0.824394 1.34319 0
M  V30 9600 C 944.253 0.425194 2.02995 0
M  V30 9601 C 944.678 -0.961476 1.6167 0
M  V30 9602 O 944.036 -1.62593 0.80207 0
M  V30 9603 C 944.084 0.537004 3.56579 0
M  V30 9604 O 943.188 -0.442576 4.10018 0
M  V30 9605 H 942.529 0.174853 0.640564 0
M  V30 9606 H 945.059 1.11522 1.71534 0
M  V30 9607 H 945.069 0.413311 4.05901 0
M  V30 9608 H 943.744 1.54836 3.86004 0
M  V30 9609 H 942.321 -0.277644 3.71865 0
M  V30 9610 N 944.506 -1.46559 0.579492 0
M  V30 9611 C 945.453 -2.30275 -0.155598 0
M  V30 9612 C 946.423 -1.40422 -0.887175 0
M  V30 9613 O 947.608 -1.69373 -0.878481 0
M  V30 9614 C 944.748 -3.24827 -1.16539 0
M  V30 9615 C 943.861 -4.29778 -0.43759 0
M  V30 9616 C 942.996 -5.11461 -1.43462 0
M  V30 9617 C 942.035 -6.08164 -0.693048 0
M  V30 9618 N 941.172 -6.82726 -1.63799 0
M  V30 9619 H 946.012 -2.92607 0.564356 0
M  V30 9620 H 943.549 -1.44211 0.290126 0
M  V30 9621 H 945.507 -3.78088 -1.76368 0
M  V30 9622 H 944.137 -2.64311 -1.8531 0
M  V30 9623 H 943.189 -3.794 0.27567 0
M  V30 9624 H 944.501 -4.98597 0.142298 0
M  V30 9625 H 943.655 -5.68982 -2.1058 0
M  V30 9626 H 942.394 -4.42595 -2.04844 0
M  V30 9627 H 941.399 -5.49799 -0.00807093 0
M  V30 9628 H 942.624 -6.79047 -0.0846678 0
M  V30 9629 H 940.57 -6.16572 -2.23997 0
M  V30 9630 H 940.487 -7.47795 -1.11082 0
M  V30 9631 H 941.755 -7.44807 -2.29962 0
M  V30 9632 N 945.984 -0.3171 -1.54377 0
M  V30 9633 C 947.214 0.289138 -2.04567 0
M  V30 9634 C 947.622 1.46833 -1.19318 0
M  V30 9635 O 946.965 1.82436 -0.215141 0
M  V30 9636 C 947.027 0.792994 -3.50645 0
M  V30 9637 C 946.691 -0.263033 -4.56242 0
M  V30 9638 C 947.688 -1.09694 -5.08196 0
M  V30 9639 C 945.373 -0.409364 -5.00629 0
M  V30 9640 C 947.367 -2.06297 -6.03092 0
M  V30 9641 C 945.054 -1.37882 -5.95342 0
M  V30 9642 C 946.052 -2.20409 -6.46459 0
M  V30 9643 O 945.74 -3.15708 -7.39313 0
M  V30 9644 H 945.472 0.0644005 -0.672925 0
M  V30 9645 H 948.026 -0.459438 -2.00196 0
M  V30 9646 H 946.256 1.59237 -3.52392 0
M  V30 9647 H 947.945 1.31687 -3.83944 0
M  V30 9648 H 948.711 -0.994842 -4.74687 0
M  V30 9649 H 944.59 0.223091 -4.6046 0
M  V30 9650 H 948.134 -2.70751 -6.42915 0
M  V30 9651 H 944.031 -1.48158 -6.28267 0
M  V30 9652 H 944.799 -3.10873 -7.57166 0
M  V30 9653 N 947.462 1.57535 -0.0451378 0
M  V30 9654 C 948.711 1.91628 0.629415 0
M  V30 9655 C 949.024 0.924754 1.72359 0
M  V30 9656 O 950.23 1.15751 2.45589 0
M  V30 9657 C 948.686 3.40322 1.17084 0
M  V30 9658 C 948.294 4.47867 0.109101 0
M  V30 9659 C 950.038 3.83458 1.82099 0
M  V30 9660 C 947.945 5.87671 0.663072 0
M  V30 9661 H 946.875 0.715163 0.238868 0
M  V30 9662 H 949.526 1.83151 -0.113046 0
M  V30 9663 H 947.908 3.43783 1.96543 0
M  V30 9664 H 949.082 4.55988 -0.664201 0
M  V30 9665 H 947.397 4.14034 -0.443227 0
M  V30 9666 H 949.994 4.85273 2.2453 0
M  V30 9667 H 950.337 3.19379 2.67026 0
M  V30 9668 H 950.87 3.82488 1.09305 0
M  V30 9669 H 947.609 6.55332 -0.148423 0
M  V30 9670 H 947.129 5.83124 1.4045 0
M  V30 9671 H 948.808 6.36737 1.14785 0
M  V30 9672 N 948.94 -0.228186 1.55939 0
M  V30 9673 C 949.87 -1.28607 1.94891 0
M  V30 9674 C 950.851 -1.49236 0.816245 0
M  V30 9675 O 952.036 -1.61531 1.07803 0
M  V30 9676 C 949.166 -2.63719 2.25986 0
M  V30 9677 C 948.12 -2.57757 3.4168 0
M  V30 9678 C 947.446 -3.96837 3.58364 0
M  V30 9679 C 948.746 -2.13116 4.76843 0
M  V30 9680 H 950.44 -0.962531 2.83506 0
M  V30 9681 H 947.986 -0.461577 1.36402 0
M  V30 9682 H 949.939 -3.37878 2.51826 0
M  V30 9683 H 948.663 -2.97747 1.34217 0
M  V30 9684 H 947.322 -1.86055 3.15878 0
M  V30 9685 H 946.97 -4.28162 2.63982 0
M  V30 9686 H 946.67 -3.93731 4.36176 0
M  V30 9687 H 948.194 -4.72668 3.86545 0
M  V30 9688 H 949.608 -2.77015 5.01932 0
M  V30 9689 H 948.005 -2.21083 5.57891 0
M  V30 9690 H 949.075 -1.08326 4.72645 0
M  V30 9691 N 950.418 -1.49637 -0.494624 0
M  V30 9692 C 951.834 -1.36541 -0.826361 0
M  V30 9693 C 952.034 -0.403386 -1.97421 0
M  V30 9694 O 951.09 0.162614 -2.51976 0
M  V30 9695 C 952.403 -2.77401 -1.16057 0
M  V30 9696 C 953.951 -2.86148 -1.26841 0
M  V30 9697 C 954.426 -4.27789 -1.63587 0
M  V30 9698 N 955.917 -4.3063 -1.70624 0
M  V30 9699 C 956.652 -5.37198 -2.00514 0
M  V30 9700 N 956.148 -6.54004 -2.28584 0
M  V30 9701 N 957.941 -5.2462 -2.01818 0
M  V30 9702 H 950.092 -2.10776 0.26219 0
M  V30 9703 H 952.355 -0.946419 0.0547235 0
M  V30 9704 H 952.061 -3.49526 -0.390434 0
M  V30 9705 H 951.935 -3.1317 -2.10249 0
M  V30 9706 H 954.322 -2.14256 -2.02925 0
M  V30 9707 H 954.403 -2.53953 -0.30684 0
M  V30 9708 H 954.047 -5.00209 -0.880507 0
M  V30 9709 H 953.977 -4.57453 -2.60854 0
M  V30 9710 H 956.468 -3.46393 -1.51065 0
M  V30 9711 H 956.781 -7.31041 -2.50598 0
M  V30 9712 H 955.126 -6.57219 -2.26027 0
M  V30 9713 H 958.317 -4.32371 -1.79369 0
M  V30 9714 H 958.49 -6.07765 -2.24778 0
M  V30 9715 N 951.896 0.746133 -1.38819 0
M  V30 9716 C 953.142 1.50669 -1.3664 0
M  V30 9717 C 953.497 1.92356 0.0411513 0
M  V30 9718 O 952.79 1.63104 1.00537 0
M  V30 9719 C 952.984 2.76639 -2.26286 0
M  V30 9720 C 952.813 2.47268 -3.75618 0
M  V30 9721 C 951.583 2.40116 -4.44603 0
M  V30 9722 C 953.781 2.13548 -4.67869 0
M  V30 9723 N 951.763 2.03098 -5.79331 0
M  V30 9724 C 953.134 1.86883 -5.91164 0
M  V30 9725 C 955.189 1.99922 -4.56 0
M  V30 9726 C 953.892 1.47965 -7.03917 0
M  V30 9727 C 955.918 1.62406 -5.68664 0
M  V30 9728 C 955.28 1.36618 -6.91025 0
M  V30 9729 H 951.379 0.550624 -0.555282 0
M  V30 9730 H 953.963 0.868179 -1.74272 0
M  V30 9731 H 952.134 3.38287 -1.9083 0
M  V30 9732 H 953.866 3.42753 -2.1518 0
M  V30 9733 H 950.621 2.56839 -3.97908 0
M  V30 9734 H 951.045 1.87214 -6.506 0
M  V30 9735 H 955.687 2.18531 -3.61945 0
M  V30 9736 H 953.405 1.28096 -7.97883 0
M  V30 9737 H 956.991 1.52483 -5.61462 0
M  V30 9738 H 955.871 1.08021 -7.76725 0
M  V30 9739 N 953.375 1.23811 0.975125 0
M  V30 9740 C 954.791 1.0019 1.24234 0
M  V30 9741 C 954.991 -0.293811 1.99346 0
M  V30 9742 O 954.047 -1.01189 2.31337 0
M  V30 9743 C 955.36 2.21218 2.03674 0
M  V30 9744 C 956.908 2.25764 2.16793 0
M  V30 9745 C 957.383 3.46394 2.99626 0
M  V30 9746 N 958.874 3.46665 3.07209 0
M  V30 9747 C 959.609 4.3666 3.71639 0
M  V30 9748 N 959.105 5.36899 4.37849 0
M  V30 9749 N 960.898 4.2439 3.68578 0
M  V30 9750 H 953.049 2.07087 0.472076 0
M  V30 9751 H 955.312 0.90838 0.271201 0
M  V30 9752 H 955.018 3.15277 1.55862 0
M  V30 9753 H 954.892 2.22733 3.04417 0
M  V30 9754 H 957.279 1.32242 2.63811 0
M  V30 9755 H 957.36 2.28279 1.15422 0
M  V30 9756 H 957.004 4.40227 2.53304 0
M  V30 9757 H 956.934 3.41121 4.01178 0
M  V30 9758 H 959.425 2.74142 2.60105 0
M  V30 9759 H 959.738 6.01816 4.84807 0
M  V30 9760 H 958.083 5.40793 4.36541 0
M  V30 9761 H 961.274 3.4532 3.16025 0
M  V30 9762 H 961.447 4.94727 4.18508 0
M  V30 9763 N 954.853 -1.17469 1.05066 0
M  V30 9764 C 956.264 -1.69334 0.786304 0
M  V30 9765 C 956.615 -1.83604 -0.691671 0
M  V30 9766 O 955.74 -1.52269 -1.53763 0
M  V30 9767 C 956.335 -3.07572 1.42074 0
M  V30 9768 C 954.894 -3.56609 1.20446 0
M  V30 9769 C 954.041 -2.329 1.50508 0
M  V30 9770 H 956.992 -1.02003 1.21577 0
M  V30 9771 H 957.013 -3.71352 0.829334 0
M  V30 9772 H 956.525 -2.97154 2.49642 0
M  V30 9773 H 954.626 -3.72306 0.147968 0
M  V30 9774 H 954.739 -4.39446 1.90852 0
M  V30 9775 H 953.103 -2.37305 0.925124 0
M  V30 9776 H 953.886 -2.25093 2.59207 0
M  V30 9777 N 956.331 -0.831506 -1.3388 0
M  V30 9778 C 957.278 -0.257449 -2.2936 0
M  V30 9779 C 958.248 0.622604 -1.5399 0
M  V30 9780 O 959.433 0.562432 -1.82322 0
M  V30 9781 C 956.573 0.567587 -3.404 0
M  V30 9782 C 955.686 -0.335666 -4.30694 0
M  V30 9783 C 954.821 0.499762 -5.28844 0
M  V30 9784 C 953.86 -0.402343 -6.10776 0
M  V30 9785 N 952.997 0.39452 -7.00991 0
M  V30 9786 H 957.837 -1.077 -2.77857 0
M  V30 9787 H 955.374 -0.542589 -1.36727 0
M  V30 9788 H 957.332 1.06133 -4.03474 0
M  V30 9789 H 955.962 1.35217 -2.93115 0
M  V30 9790 H 955.014 -0.94768 -3.68406 0
M  V30 9791 H 956.326 -1.02896 -4.88072 0
M  V30 9792 H 955.48 1.05763 -5.9741 0
M  V30 9793 H 954.219 1.22652 -4.72025 0
M  V30 9794 H 953.224 -0.972288 -5.41135 0
M  V30 9795 H 954.449 -1.12735 -6.69677 0
M  V30 9796 H 952.395 1.1048 -6.4663 0
M  V30 9797 H 952.312 -0.240209 -7.55618 0
M  V30 9798 H 953.58 0.934867 -7.73874 0
M  V30 9799 N 957.809 1.4625 -0.587256 0
M  V30 9800 C 958.757 2.32076 0.156108 0
M  V30 9801 C 959.751 1.44756 0.879887 0
M  V30 9802 O 960.957 1.61356 0.797759 0
M  V30 9803 H 957.332 0.748808 0.0692098 0
M  V30 9804 H 959.303 2.9258 -0.586497 0
M  V30 9805 C 958.052 3.28008 1.15352 0
M  V30 9806 H 957.375 3.9518 0.60601 0
M  V30 9807 H 958.815 3.90832 1.64396 0
M  V30 9808 C 957.274 2.53691 2.21681 0
M  V30 9809 O 957.804 2.30329 3.29107 0
M  V30 9810 N 956.01 2.14174 1.96412 0
M  V30 9811 H 955.557 2.33374 1.09061 0
M  V30 9812 H 955.515 1.6477 2.67765 0
M  V30 9813 N 959.287 0.325282 1.54207 0
M  V30 9814 C 960.512 -0.281418 2.05482 0
M  V30 9815 C 960.937 -1.44869 1.19977 0
M  V30 9816 O 960.295 -1.80088 0.209275 0
M  V30 9817 C 960.343 -0.692029 3.53897 0
M  V30 9818 O 959.447 -1.7942 3.71325 0
M  V30 9819 H 958.788 -0.0504872 0.662078 0
M  V30 9820 H 961.318 0.474191 1.99029 0
M  V30 9821 H 961.328 -0.974219 3.96198 0
M  V30 9822 H 960.003 0.161709 4.15586 0
M  V30 9823 H 958.58 -1.51069 3.40929 0
M  V30 9824 N 960.765 -1.57509 0.0534917 0
M  V30 9825 C 962.011 -1.93068 -0.62069 0
M  V30 9826 C 962.344 -0.932313 -1.70357 0
M  V30 9827 O 961.619 0.0413393 -1.94456 0
M  V30 9828 C 961.902 -3.38997 -1.21463 0
M  V30 9829 C 961.755 -4.49583 -0.13965 0
M  V30 9830 C 963.074 -3.85366 -2.12558 0
M  V30 9831 H 960.193 -0.702083 -0.224163 0
M  V30 9832 H 962.835 -1.89647 0.115729 0
M  V30 9833 H 960.985 -3.42043 -1.84226 0
M  V30 9834 H 962.657 -4.58664 0.492411 0
M  V30 9835 H 960.9 -4.30525 0.532006 0
M  V30 9836 H 961.571 -5.48781 -0.595287 0
M  V30 9837 H 964.047 -3.8421 -1.59755 0
M  V30 9838 H 962.923 -4.8812 -2.51058 0
M  V30 9839 H 963.184 -3.22256 -3.02661 0
M  V30 9840 N 962.243 0.219913 -1.56058 0
M  V30 9841 C 963.491 0.942199 -1.78793 0
M  V30 9842 C 963.812 1.84804 -0.622284 0
M  V30 9843 O 963.082 1.9255 0.360735 0
M  V30 9844 H 961.662 0.350895 -0.659455 0
M  V30 9845 H 964.324 0.231376 -1.93522 0
M  V30 9846 H 963.42 1.54804 -2.71002 0
M  V30 9847 N 963.721 1.49897 0.486681 0
M  V30 9848 C 965.137 1.36977 0.819109 0
M  V30 9849 C 965.337 0.41385 1.97204 0
M  V30 9850 O 964.393 -0.149249 2.52059 0
M  V30 9851 C 965.706 2.78013 1.14584 0
M  V30 9852 C 967.254 2.86816 1.25321 0
M  V30 9853 C 967.729 4.28651 1.61316 0
M  V30 9854 N 969.22 4.31528 1.68337 0
M  V30 9855 C 969.955 5.38254 1.97662 0
M  V30 9856 N 969.451 6.55207 2.25113 0
M  V30 9857 N 971.244 5.25683 1.99033 0
M  V30 9858 H 963.395 2.10634 -0.273364 0
M  V30 9859 H 965.658 0.946116 -0.0597418 0
M  V30 9860 H 965.364 3.49728 0.371892 0
M  V30 9861 H 965.238 3.1428 2.08585 0
M  V30 9862 H 967.625 2.15329 2.01785 0
M  V30 9863 H 967.706 2.54112 0.293368 0
M  V30 9864 H 967.35 5.00669 0.853968 0
M  V30 9865 H 967.28 4.5883 2.58424 0
M  V30 9866 H 969.771 3.47189 1.49226 0
M  V30 9867 H 970.084 7.32359 2.46717 0
M  V30 9868 H 968.429 6.58408 2.22538 0
M  V30 9869 H 971.62 4.33316 1.77074 0
M  V30 9870 H 971.793 6.08949 2.21552 0
M  V30 9871 N 965.199 -0.738761 1.39212 0
M  V30 9872 C 966.445 -1.49942 1.37437 0
M  V30 9873 C 966.8 -1.92375 -0.0309496 0
M  V30 9874 O 966.093 -1.63635 -0.996706 0
M  V30 9875 C 966.287 -2.75435 2.2775 0
M  V30 9876 C 966.116 -2.45273 3.76924 0
M  V30 9877 C 964.886 -2.37755 4.45871 0
M  V30 9878 C 967.084 -2.11064 4.68995 0
M  V30 9879 N 965.066 -2.00023 5.804 0
M  V30 9880 C 966.437 -1.83746 5.92147 0
M  V30 9881 C 968.492 -1.975 4.57054 0
M  V30 9882 C 967.195 -1.4423 7.04692 0
M  V30 9883 C 969.221 -1.59388 5.69517 0
M  V30 9884 C 968.583 -1.32951 6.91739 0
M  V30 9885 H 964.682 -0.547671 0.558194 0
M  V30 9886 H 967.266 -0.858925 1.7473 0
M  V30 9887 H 965.437 -3.3727 1.92622 0
M  V30 9888 H 967.169 -3.41607 2.16995 0
M  V30 9889 H 963.924 -2.54725 3.99264 0
M  V30 9890 H 964.348 -1.83761 6.51583 0
M  V30 9891 H 968.99 -2.16609 3.63099 0
M  V30 9892 H 966.708 -1.23863 7.98551 0
M  V30 9893 H 970.294 -1.49504 5.62263 0
M  V30 9894 H 969.174 -1.039 7.77287 0
M  V30 9895 N 966.677 -1.24326 -0.968545 0
M  V30 9896 C 967.624 -1.0349 -2.06297 0
M  V30 9897 C 968.594 0.0515333 -1.6602 0
M  V30 9898 O 969.779 -0.102924 -1.90522 0
M  V30 9899 C 966.919 -0.64487 -3.39021 0
M  V30 9900 C 966.032 -1.80469 -3.92498 0
M  V30 9901 C 965.167 -1.36032 -5.13487 0
M  V30 9902 C 964.206 -2.49014 -5.59159 0
M  V30 9903 N 963.343 -2.05451 -6.71367 0
M  V30 9904 H 968.183 -1.97161 -2.23454 0
M  V30 9905 H 965.72 -0.982028 -1.0952 0
M  V30 9906 H 967.678 -0.399771 -4.1528 0
M  V30 9907 H 966.308 0.254845 -3.21792 0
M  V30 9908 H 965.36 -2.16348 -3.12886 0
M  V30 9909 H 966.672 -2.65365 -4.22354 0
M  V30 9910 H 965.826 -1.07405 -5.97117 0
M  V30 9911 H 964.565 -0.481887 -4.85313 0
M  V30 9912 H 963.57 -2.78402 -4.74102 0
M  V30 9913 H 964.795 -3.37413 -5.89346 0
M  V30 9914 H 962.741 -1.20004 -6.4493 0
M  V30 9915 H 962.658 -2.83901 -7.00668 0
M  V30 9916 H 963.926 -1.79962 -7.58442 0
M  V30 9917 N 968.156 1.1691 -1.05688 0
M  V30 9918 C 969.066 2.24735 -0.67315 0
M  V30 9919 C 970.082 1.71252 0.308043 0
M  V30 9920 O 971.258 2.00772 0.158889 0
M  V30 9921 C 968.323 3.4665 -0.059026 0
M  V30 9922 C 967.384 4.15198 -1.0913 0
M  V30 9923 C 966.617 5.31292 -0.50639 0
M  V30 9924 O 966.84 5.663 0.682692 0
M  V30 9925 O 965.774 5.88923 -1.2431 0
M  V30 9926 H 969.6 2.59855 -1.57191 0
M  V30 9927 H 967.185 1.24306 -0.828751 0
M  V30 9928 H 969.067 4.20455 0.282018 0
M  V30 9929 H 967.742 3.13316 0.813304 0
M  V30 9930 H 966.649 3.43389 -1.48442 0
M  V30 9931 H 967.982 4.52571 -1.93495 0
M  V30 9932 N 969.634 0.838594 1.33437 0
M  V30 9933 C 970.597 0.276843 2.27522 0
M  V30 9934 C 971.597 -0.554275 1.50945 0
M  V30 9935 O 972.787 -0.368107 1.70266 0
M  V30 9936 C 969.919 -0.610036 3.35397 0
M  V30 9937 H 971.112 1.10705 2.78719 0
M  V30 9938 H 968.665 0.611657 1.43835 0
M  V30 9939 H 969.4 -1.46269 2.89441 0
M  V30 9940 H 969.185 -0.0153615 3.92097 0
M  V30 9941 H 970.675 -0.996368 4.05539 0
M  V30 9942 N 971.112 -1.45937 0.595003 0
M  V30 9943 C 972.34 -2.06698 0.091293 0
M  V30 9944 C 972.755 -1.44176 -1.21897 0
M  V30 9945 O 972.112 -0.551402 -1.73971 0
M  V30 9946 C 972.163 -3.61436 -0.0681801 0
M  V30 9947 O 971.884 -4.21622 1.19023 0
M  V30 9948 C 973.385 -4.39155 -0.604814 0
M  V30 9949 H 970.605 -0.668029 0.0630737 0
M  V30 9950 H 973.149 -1.87376 0.819165 0
M  V30 9951 H 971.304 -3.80143 -0.746324 0
M  V30 9952 H 971.718 -5.14647 1.01187 0
M  V30 9953 H 973.192 -5.47973 -0.665532 0
M  V30 9954 H 973.669 -4.08055 -1.62444 0
M  V30 9955 H 974.275 -4.25282 0.0388658 0
M  V30 9956 N 972.59 -0.333456 -1.54032 0
M  V30 9957 C 973.839 0.267081 -1.99924 0
M  V30 9958 C 974.152 1.52463 -1.22534 0
M  V30 9959 O 975.358 2.20178 -1.58852 0
M  V30 9960 C 973.814 0.526456 -3.56029 0
M  V30 9961 C 973.422 -0.714607 -4.42264 0
M  V30 9962 C 975.166 1.0864 -4.10363 0
M  V30 9963 C 973.073 -0.42659 -5.89859 0
M  V30 9964 H 972.003 0.103577 -0.746852 0
M  V30 9965 H 974.654 -0.447218 -1.77967 0
M  V30 9966 H 973.036 1.3012 -3.74012 0
M  V30 9967 H 974.21 -1.48968 -4.36056 0
M  V30 9968 H 972.525 -1.19547 -3.9887 0
M  V30 9969 H 975.122 1.31668 -5.18235 0
M  V30 9970 H 975.465 2.03884 -3.62956 0
M  V30 9971 H 975.998 0.37261 -3.96051 0
M  V30 9972 H 972.737 -1.34847 -6.4148 0
M  V30 9973 H 972.257 0.310588 -5.98995 0
M  V30 9974 H 973.936 -0.0400807 -6.46988 0
M  V30 9975 N 974.068 1.57479 -0.061844 0
M  V30 9976 C 975.479 1.80627 0.472295 0
M  V30 9977 C 975.83 0.97496 1.70261 0
M  V30 9978 O 974.955 0.1946 2.15523 0
M  V30 9979 C 975.55 3.27608 0.863616 0
M  V30 9980 C 974.109 3.51638 1.34267 0
M  V30 9981 C 973.256 2.75412 0.323009 0
M  V30 9982 H 976.207 1.56072 -0.287634 0
M  V30 9983 H 976.228 3.39113 1.72577 0
M  V30 9984 H 975.74 3.88087 -0.0320226 0
M  V30 9985 H 973.841 2.96452 2.25714 0
M  V30 9986 H 973.954 4.60342 1.32747 0
M  V30 9987 H 972.318 2.4187 0.798175 0
M  V30 9988 H 973.101 3.38623 -0.564729 0
M  V30 9989 N 975.546 -0.211634 1.56173 0
M  V30 9990 C 976.794 -0.932704 1.7929 0
M  V30 9991 C 977.115 -1.84472 0.632076 0
M  V30 9992 O 976.385 -1.92739 -0.350519 0
M  V30 9993 H 974.965 -0.347393 0.661307 0
M  V30 9994 H 977.627 -0.22111 1.93642 0
M  V30 9995 H 976.723 -1.53365 2.71819 0
M  V30 9996 N 977.024 -1.50153 -0.478725 0
M  V30 9997 C 977.974 -1.64848 -1.57509 0
M  V30 9998 C 978.958 -0.503327 -1.52825 0
M  V30 9999 O 980.15 -0.75737 -1.59978 0
M  V30 10000 C 977.279 -1.73893 -2.96 0
M  V30 10001 C 976.365 -2.9406 -3.05597 0
M  V30 10002 N 976.756 -4.17844 -2.85027 0
M  V30 10003 C 975.054 -2.92459 -3.36725 0
M  V30 10004 C 975.755 -4.98739 -2.9939 0
M  V30 10005 N 974.731 -4.32542 -3.29255 0
M  V30 10006 H 978.533 -2.58254 -1.40293 0
M  V30 10007 H 976.047 -1.47232 -0.685307 0
M  V30 10008 H 978.044 -1.82523 -3.74821 0
M  V30 10009 H 976.704 -0.816402 -3.14269 0
M  V30 10010 H 977.715 -4.47465 -2.60759 0
M  V30 10011 H 974.392 -2.09675 -3.6103 0
M  V30 10012 H 975.782 -6.07146 -2.8779 0
M  V30 10013 N 978.502 0.731368 -1.39602 0
M  V30 10014 C 979.432 1.85855 -1.41351 0
M  V30 10015 C 980.413 1.67839 -0.2764 0
M  V30 10016 O 981.598 1.88104 -0.482747 0
M  V30 10017 C 978.728 3.23644 -1.25983 0
M  V30 10018 C 977.682 3.56304 -2.37132 0
M  V30 10019 C 977.008 4.93069 -2.0685 0
M  V30 10020 C 978.308 3.58906 -3.79452 0
M  V30 10021 H 980.002 1.84648 -2.3568 0
M  V30 10022 H 977.548 0.886955 -1.13442 0
M  V30 10023 H 979.501 4.02176 -1.25826 0
M  V30 10024 H 978.225 3.25387 -0.281234 0
M  V30 10025 H 976.884 2.80104 -2.36511 0
M  V30 10026 H 976.532 4.91396 -1.0742 0
M  V30 10027 H 976.232 5.15888 -2.81306 0
M  V30 10028 H 977.756 5.73953 -2.0835 0
M  V30 10029 H 979.17 4.27508 -3.81982 0
M  V30 10030 H 977.567 3.93246 -4.53297 0
M  V30 10031 H 978.637 2.58631 -4.10168 0
M  V30 10032 N 979.98 1.24838 0.961938 0
M  V30 10033 C 980.928 1.0436 2.07874 0
M  V30 10034 C 981.922 -0.0232531 1.69384 0
M  V30 10035 O 983.128 0.131773 1.79517 0
M  V30 10036 H 979.503 0.320492 0.680286 0
M  V30 10037 H 981.474 1.99055 2.22306 0
M  V30 10038 C 980.223 0.671246 3.41159 0
M  V30 10039 H 979.546 1.48395 3.7124 0
M  V30 10040 H 980.986 0.567608 4.20184 0
M  V30 10041 C 979.445 -0.622124 3.31106 0
M  V30 10042 O 979.975 -1.66627 3.65511 0
M  V30 10043 N 978.181 -0.605009 2.84232 0
M  V30 10044 H 977.728 0.245052 2.56432 0
M  V30 10045 H 977.686 -1.47056 2.77888 0
M  V30 10046 N 981.458 -1.16348 1.06306 0
M  V30 10047 C 982.683 -1.91323 0.800636 0
M  V30 10048 C 983.108 -1.7691 -0.639105 0
M  V30 10049 O 982.466 -1.0945 -1.44535 0
M  V30 10050 C 982.514 -3.40038 1.20027 0
M  V30 10051 O 981.618 -4.11003 0.339142 0
M  V30 10052 H 980.959 -0.596057 0.292595 0
M  V30 10053 H 983.489 -1.47406 1.41889 0
M  V30 10054 H 983.499 -3.90808 1.17188 0
M  V30 10055 H 982.174 -3.49848 2.24898 0
M  V30 10056 H 980.751 -3.70423 0.42911 0
M  V30 10057 N 982.937 -0.845659 -1.3299 0
M  V30 10058 C 984.167 -0.457686 -2.01467 0
M  V30 10059 C 984.575 0.947664 -1.63756 0
M  V30 10060 O 983.918 1.62841 -0.850213 0
M  V30 10061 C 983.98 -0.506589 -3.55913 0
M  V30 10062 C 983.644 -1.86924 -4.17023 0
M  V30 10063 C 984.641 -2.83344 -4.35904 0
M  V30 10064 C 982.326 -2.16394 -4.53298 0
M  V30 10065 C 984.32 -4.07391 -4.90216 0
M  V30 10066 C 982.007 -3.40695 -5.07316 0
M  V30 10067 C 983.005 -4.3601 -5.25722 0
M  V30 10068 O 982.693 -5.58112 -5.7859 0
M  V30 10069 H 982.425 -0.179258 -0.651799 0
M  V30 10070 H 984.979 -1.14172 -1.70745 0
M  V30 10071 H 983.209 0.234253 -3.8599 0
M  V30 10072 H 984.898 -0.135487 -4.05674 0
M  V30 10073 H 985.664 -2.61879 -4.08221 0
M  V30 10074 H 981.543 -1.42994 -4.38262 0
M  V30 10075 H 985.087 -4.81796 -5.04498 0
M  V30 10076 H 980.984 -3.62014 -5.3443 0
M  V30 10077 H 981.752 -5.59946 -5.96995 0
M  V30 10078 N 984.415 1.45619 -0.602734 0
M  V30 10079 C 985.643 2.06647 -0.102253 0
M  V30 10080 C 986.058 1.4482 1.21131 0
M  V30 10081 O 985.415 0.560621 1.73676 0
M  V30 10082 C 985.466 3.61467 0.0490113 0
M  V30 10083 O 985.187 4.20985 -1.21257 0
M  V30 10084 C 986.688 4.39469 0.581517 0
M  V30 10085 H 983.908 0.667685 -0.0666155 0
M  V30 10086 H 986.452 1.86939 -0.829091 0
M  V30 10087 H 984.607 3.80534 0.726153 0
M  V30 10088 H 985.021 5.14103 -1.03915 0
M  V30 10089 H 986.495 5.48318 0.636462 0
M  V30 10090 H 986.972 4.0891 1.60277 0
M  V30 10091 H 987.578 4.25256 -0.061419 0
M  V30 10092 N 985.893 0.34162 1.53853 0
M  V30 10093 C 987.142 -0.256475 2.00063 0
M  V30 10094 C 987.455 -1.51811 1.23341 0
M  V30 10095 O 988.661 -2.19332 1.60017 0
M  V30 10096 C 987.117 -0.507567 3.56303 0
M  V30 10097 C 986.725 0.738052 4.41879 0
M  V30 10098 C 988.469 -1.06463 4.10933 0
M  V30 10099 C 986.376 0.457865 5.89625 0
M  V30 10100 H 985.306 -0.0996143 0.747391 0
M  V30 10101 H 987.957 0.456649 1.77727 0
M  V30 10102 H 986.339 -1.28134 3.74697 0
M  V30 10103 H 987.513 1.51278 4.3526 0
M  V30 10104 H 985.828 1.21661 3.98231 0
M  V30 10105 H 988.425 -1.28918 5.18926 0
M  V30 10106 H 988.768 -2.01956 3.64032 0
M  V30 10107 H 989.301 -0.351601 3.96243 0
M  V30 10108 H 986.04 1.38247 6.40756 0
M  V30 10109 H 985.56 -0.278818 5.99152 0
M  V30 10110 H 987.239 0.0743914 6.46957 0
M  V30 10111 N 987.371 -1.57444 0.0701946 0
M  V30 10112 C 988.318 -2.12631 -0.897599 0
M  V30 10113 C 989.288 -1.03841 -1.29639 0
M  V30 10114 O 990.473 -1.31495 -1.38253 0
M  V30 10115 C 987.613 -2.6911 -2.16041 0
M  V30 10116 C 986.726 -3.9205 -1.8144 0
M  V30 10117 C 985.861 -4.36778 -3.02321 0
M  V30 10118 C 984.9 -5.52371 -2.63729 0
M  V30 10119 N 984.037 -5.92065 -3.77364 0
M  V30 10120 H 988.877 -2.95024 -0.420104 0
M  V30 10121 H 986.414 -1.45792 -0.195716 0
M  V30 10122 H 988.372 -2.99963 -2.89962 0
M  V30 10123 H 987.002 -1.89484 -2.61334 0
M  V30 10124 H 986.054 -3.67669 -0.975896 0
M  V30 10125 H 987.366 -4.76011 -1.49046 0
M  V30 10126 H 986.52 -4.69285 -3.84521 0
M  V30 10127 H 985.259 -3.51668 -3.37907 0
M  V30 10128 H 984.264 -5.19517 -1.7995 0
M  V30 10129 H 985.489 -6.39212 -2.29315 0
M  V30 10130 H 983.435 -5.09904 -4.12715 0
M  V30 10131 H 983.352 -6.70762 -3.48733 0
M  V30 10132 H 984.62 -6.29193 -4.60148 0
M  V30 10133 N 988.849 0.203349 -1.56283 0
M  V30 10134 C 990.097 0.923183 -1.79782 0
M  V30 10135 C 990.418 1.84134 -0.64185 0
M  V30 10136 O 989.688 1.92922 0.340292 0
M  V30 10137 H 988.268 0.343881 -0.66314 0
M  V30 10138 H 990.93 0.210837 -1.93756 0
M  V30 10139 H 990.026 1.51921 -2.72629 0
M  V30 10140 N 990.327 1.50405 0.470755 0
M  V30 10141 C 991.257 1.72222 1.57676 0
M  V30 10142 C 992.238 0.57121 1.60222 0
M  V30 10143 O 993.423 0.810381 1.76484 0
M  V30 10144 C 990.553 1.81666 2.95998 0
M  V30 10145 C 989.507 2.96857 3.08318 0
M  V30 10146 C 988.833 2.91445 4.4829 0
M  V30 10147 C 990.133 4.37361 2.85504 0
M  V30 10148 H 991.827 2.64825 1.39671 0
M  V30 10149 H 989.373 1.27438 0.67049 0
M  V30 10150 H 991.326 1.95514 3.73299 0
M  V30 10151 H 990.05 0.856856 3.1516 0
M  V30 10152 H 988.709 2.82661 2.33449 0
M  V30 10153 H 988.357 1.93309 4.64371 0
M  V30 10154 H 988.057 3.68776 4.57469 0
M  V30 10155 H 989.581 3.07341 5.27611 0
M  V30 10156 H 990.995 4.52081 3.52555 0
M  V30 10157 H 989.392 5.16145 3.06127 0
M  V30 10158 H 990.462 4.49708 1.81359 0
M  V30 10159 N 991.805 -0.723954 1.39988 0
M  V30 10160 C 992.752 -1.83803 1.39589 0
M  V30 10161 C 993.722 -1.64146 0.253996 0
M  V30 10162 O 994.907 -1.85398 0.450793 0
M  V30 10163 C 992.047 -3.21431 1.25604 0
M  V30 10164 C 991.16 -3.52717 2.49429 0
M  V30 10165 C 990.295 -4.79805 2.27949 0
M  V30 10166 C 989.334 -5.03968 3.47394 0
M  V30 10167 N 988.471 -6.22266 3.25161 0
M  V30 10168 H 993.311 -1.83479 2.34818 0
M  V30 10169 H 990.848 -0.896396 1.16633 0
M  V30 10170 H 992.806 -4.00892 1.15504 0
M  V30 10171 H 991.436 -3.21005 0.339986 0
M  V30 10172 H 990.488 -2.67872 2.7009 0
M  V30 10173 H 991.8 -3.66486 3.38363 0
M  V30 10174 H 990.954 -5.67268 2.15155 0
M  V30 10175 H 989.693 -4.68229 1.36428 0
M  V30 10176 H 988.698 -4.14963 3.60674 0
M  V30 10177 H 989.923 -5.17422 4.39831 0
M  V30 10178 H 987.869 -6.11957 2.36314 0
M  V30 10179 H 987.786 -6.36673 4.07656 0
M  V30 10180 H 989.054 -7.12539 3.16083 0
M  V30 10181 N 993.283 -1.25346 -0.955304 0
M  V30 10182 C 994.694 -1.09173 -1.51453 0
M  V30 10183 C 995.045 0.332755 -1.93358 0
M  V30 10184 O 994.17 1.22264 -1.78551 0
M  V30 10185 C 994.765 -1.97564 -2.75234 0
M  V30 10186 C 993.324 -1.85579 -3.27471 0
M  V30 10187 C 992.471 -1.91755 -2.00313 0
M  V30 10188 H 995.422 -1.38642 -0.772271 0
M  V30 10189 H 995.443 -1.51523 -3.49029 0
M  V30 10190 H 994.955 -3.01233 -2.44704 0
M  V30 10191 H 993.056 -0.847906 -3.62824 0
M  V30 10192 H 993.169 -2.70353 -3.95533 0
M  V30 10193 H 991.533 -1.35633 -2.15582 0
M  V30 10194 H 992.316 -2.97028 -1.72132 0
M  V30 10195 N 994.761 1.15782 -1.06922 0
M  V30 10196 C 996.009 1.86097 -0.788192 0
M  V30 10197 C 996.33 1.82475 0.687606 0
M  V30 10198 O 995.6 1.26266 1.49778 0
M  V30 10199 H 994.18 0.689008 -0.288577 0
M  V30 10200 H 996.842 1.40377 -1.35205 0
M  V30 10201 H 995.938 2.91358 -1.1188 0
M  V30 10202 N 996.239 0.8527 1.3254 0
M  V30 10203 C 997.485 0.455798 1.97612 0
M  V30 10204 C 997.818 -0.985616 1.6733 0
M  V30 10205 O 997.093 -1.69129 0.960493 0
M  V30 10206 C 997.376 0.69312 3.53366 0
M  V30 10207 C 997.229 2.18281 3.93285 0
M  V30 10208 C 998.548 0.148236 4.3985 0
M  V30 10209 H 995.667 0.167078 0.717812 0
M  V30 10210 H 998.309 1.07076 1.56954 0
M  V30 10211 H 996.459 0.169677 3.88129 0
M  V30 10212 H 998.131 2.77218 3.68711 0
M  V30 10213 H 996.374 2.66206 3.42515 0
M  V30 10214 H 997.045 2.29957 5.01821 0
M  V30 10215 H 999.521 0.595834 4.11812 0
M  V30 10216 H 998.397 0.343873 5.47822 0
M  V30 10217 H 998.658 -0.948872 4.31797 0
M  V30 10218 N 997.718 -1.45297 0.610449 0
M  V30 10219 C 998.964 -2.02518 0.106917 0
M  V30 10220 C 999.297 -1.47747 -1.26034 0
M  V30 10221 O 998.572 -0.65329 -1.832 0
M  V30 10222 C 998.855 -3.6003 0.0710975 0
M  V30 10223 C 998.708 -4.25128 1.46922 0
M  V30 10224 C 1000.03 -4.35778 -0.61524 0
M  V30 10225 H 997.146 -0.735896 0.040327 0
M  V30 10226 H 999.788 -1.73117 0.782968 0
M  V30 10227 H 997.938 -3.85209 -0.504611 0
M  V30 10228 H 999.61 -4.11125 2.09223 0
M  V30 10229 H 997.853 -3.83418 2.02911 0
M  V30 10230 H 998.524 -5.34046 1.39637 0
M  V30 10231 H 1001 -4.1591 -0.125871 0
M  V30 10232 H 999.876 -5.45506 -0.609419 0
M  V30 10233 H 1000.14 -4.08859 -1.68186 0
M  V30 10234 N 999.196 -0.349774 -1.5367 0
M  V30 10235 C 1000.43 0.245682 -2.05134 0
M  V30 10236 C 1000.83 1.44269 -1.22406 0
M  V30 10237 O 1000.18 1.81938 -0.25379 0
M  V30 10238 C 1000.24 0.718439 -3.52248 0
M  V30 10239 C 999.903 -0.35975 -4.55582 0
M  V30 10240 C 1000.9 -1.20449 -5.05755 0
M  V30 10241 C 998.585 -0.515463 -4.99648 0
M  V30 10242 C 1000.58 -2.19043 -5.98581 0
M  V30 10243 C 998.266 -1.50479 -5.92283 0
M  V30 10244 C 999.264 -2.34072 -6.41638 0
M  V30 10245 O 998.952 -3.31319 -7.3245 0
M  V30 10246 H 998.684 0.0501122 -0.67414 0
M  V30 10247 H 1001.24 -0.5018 -1.99176 0
M  V30 10248 H 999.468 1.51727 -3.55691 0
M  V30 10249 H 1001.16 1.23513 -3.86651 0
M  V30 10250 H 1001.92 -1.09531 -4.7247 0
M  V30 10251 H 997.802 0.12537 -4.60829 0
M  V30 10252 H 1001.35 -2.84327 -6.37027 0
M  V30 10253 H 997.243 -1.61451 -6.24983 0
M  V30 10254 H 998.011 -3.26863 -7.50402 0
M  V30 10255 N 1000.67 1.57404 -0.0785433 0
M  V30 10256 C 1001.58 2.16612 0.900902 0
M  V30 10257 C 1002.6 1.13109 1.32221 0
M  V30 10258 O 1003.78 1.45406 1.39352 0
M  V30 10259 C 1000.84 2.7215 2.14791 0
M  V30 10260 C 999.902 3.90551 1.78237 0
M  V30 10261 C 999.135 4.43431 2.96993 0
M  V30 10262 O 999.358 3.95292 4.11218 0
M  V30 10263 O 998.292 5.34674 2.76418 0
M  V30 10264 H 1002.12 3.0068 0.427227 0
M  V30 10265 H 999.703 1.48696 0.144902 0
M  V30 10266 H 1001.58 3.07718 2.87902 0
M  V30 10267 H 1000.26 1.91139 2.61243 0
M  V30 10268 H 999.167 3.59825 1.02357 0
M  V30 10269 H 1000.5 4.72876 1.36562 0
M  V30 10270 N 1002.15 -0.195058 1.56388 0
M  V30 10271 C 1003.4 -0.913636 1.8027 0
M  V30 10272 C 1003.72 -1.83791 0.651606 0
M  V30 10273 O 1002.99 -1.931 -0.330057 0
M  V30 10274 H 1001.57 -0.34036 0.664954 0
M  V30 10275 H 1004.23 -0.200559 1.93865 0
M  V30 10276 H 1003.33 -1.50473 2.7343 0
M  V30 10277 N 1003.63 -1.50653 -0.462772 0
M  V30 10278 C 1004.56 -1.66286 -1.5774 0
M  V30 10279 C 1005.57 -0.544094 -1.53439 0
M  V30 10280 O 1006.76 -0.817566 -1.58676 0
M  V30 10281 C 1003.86 -1.63893 -2.96635 0
M  V30 10282 C 1003.04 -2.91939 -3.25716 0
M  V30 10283 C 1002.1 -2.82076 -4.44206 0
M  V30 10284 O 1001.12 -3.56032 -4.44106 0
M  V30 10285 N 1002.32 -1.96196 -5.4634 0
M  V30 10286 H 1005.09 -2.6243 -1.44742 0
M  V30 10287 H 1002.65 -1.48221 -0.651326 0
M  V30 10288 H 1004.64 -1.54897 -3.73884 0
M  V30 10289 H 1003.21 -0.75449 -3.03358 0
M  V30 10290 H 1002.43 -3.14998 -2.37002 0
M  V30 10291 H 1003.72 -3.7675 -3.4196 0
M  V30 10292 H 1003.12 -1.35439 -5.49247 0
M  V30 10293 H 1001.67 -1.93097 -6.2254 0
M  V30 10294 N 1005.11 0.71652 -1.4037 0
M  V30 10295 C 1006.04 1.84345 -1.43315 0
M  V30 10296 C 1007.02 1.67537 -0.294186 0
M  V30 10297 O 1008.2 1.87582 -0.502671 0
M  V30 10298 C 1005.33 3.2229 -1.29408 0
M  V30 10299 C 1004.29 3.53769 -2.40897 0
M  V30 10300 C 1003.61 4.90847 -2.12068 0
M  V30 10301 C 1004.91 3.54862 -3.83237 0
M  V30 10302 H 1006.61 1.82138 -2.37626 0
M  V30 10303 H 1004.15 0.874873 -1.14376 0
M  V30 10304 H 1006.11 4.00819 -1.30085 0
M  V30 10305 H 1004.83 3.2507 -0.31573 0
M  V30 10306 H 1003.49 2.77579 -2.39469 0
M  V30 10307 H 1003.14 4.90229 -1.12626 0
M  V30 10308 H 1002.84 5.12875 -2.86762 0
M  V30 10309 H 1004.36 5.71711 -2.14426 0
M  V30 10310 H 1005.78 4.23432 -3.86494 0
M  V30 10311 H 1004.17 3.88416 -4.57442 0
M  V30 10312 H 1005.24 2.54266 -4.12888 0
M  V30 10313 N 1006.59 1.25851 0.948643 0
M  V30 10314 C 1007.84 1.10347 1.68838 0
M  V30 10315 C 1008.15 -0.354262 1.92365 0
M  V30 10316 O 1009.35 -0.629847 2.64093 0
M  V30 10317 C 1007.81 1.92659 3.03991 0
M  V30 10318 C 1007.42 3.42962 2.88238 0
M  V30 10319 C 1009.16 1.85743 3.81707 0
M  V30 10320 C 1007.07 4.17547 4.18818 0
M  V30 10321 H 1006 0.409342 0.63321 0
M  V30 10322 H 1008.65 1.50098 1.05559 0
M  V30 10323 H 1007.03 1.45736 3.68208 0
M  V30 10324 H 1008.21 3.97601 2.32917 0
M  V30 10325 H 1006.52 3.51035 2.23972 0
M  V30 10326 H 1009.12 2.38758 4.78434 0
M  V30 10327 H 1009.46 0.826568 4.08012 0
M  V30 10328 H 1009.99 2.30449 3.2425 0
M  V30 10329 H 1006.73 5.21072 3.97699 0
M  V30 10330 H 1006.25 3.6769 4.73882 0
M  V30 10331 H 1007.93 4.25589 4.87322 0
M  V30 10332 N 1008.06 -1.15214 1.07534 0
M  V30 10333 C 1009.29 -1.90463 0.820883 0
M  V30 10334 C 1009.71 -1.77578 -0.620305 0
M  V30 10335 O 1009.07 -1.10976 -1.43366 0
M  V30 10336 C 1009.12 -3.38746 1.23627 0
M  V30 10337 O 1008.22 -4.1062 0.382715 0
M  V30 10338 H 1007.57 -0.59292 0.298901 0
M  V30 10339 H 1010.1 -1.45893 1.43445 0
M  V30 10340 H 1010.11 -3.89543 1.21327 0
M  V30 10341 H 1008.78 -3.47443 2.28596 0
M  V30 10342 H 1007.36 -3.69947 0.468374 0
M  V30 10343 N 1009.54 -0.859717 -1.32086 0
M  V30 10344 C 1010.79 -0.461779 -1.96343 0
M  V30 10345 C 1011.1 0.988837 -1.68764 0
M  V30 10346 O 1012.31 1.49244 -2.268 0
M  V30 10347 C 1010.77 -0.77484 -3.5146 0
M  V30 10348 C 1010.37 -2.24153 -3.87891 0
M  V30 10349 C 1012.12 -0.444873 -4.22162 0
M  V30 10350 C 1010.03 -2.49754 -5.36075 0
M  V30 10351 H 1008.96 -0.168951 -0.734828 0
M  V30 10352 H 1011.61 -1.0512 -1.50406 0
M  V30 10353 H 1009.99 -0.114792 -3.95834 0
M  V30 10354 H 1011.16 -2.94378 -3.54511 0
M  V30 10355 H 1009.48 -2.53651 -3.30227 0
M  V30 10356 H 1012.07 -0.613508 -5.31169 0
M  V30 10357 H 1012.42 0.61391 -4.11749 0
M  V30 10358 H 1012.95 -1.06103 -3.83389 0
M  V30 10359 H 1009.69 -3.54276 -5.51515 0
M  V30 10360 H 1009.21 -1.84112 -5.70844 0
M  V30 10361 H 1010.89 -2.3396 -6.03218 0
M  V30 10362 N 1011.02 1.44971 -0.618145 0
M  V30 10363 C 1011.95 2.28815 0.132751 0
M  V30 10364 C 1012.97 1.40551 0.821535 0
M  V30 10365 O 1014.15 1.64827 0.685155 0
M  V30 10366 C 1011.25 3.1658 1.20955 0
M  V30 10367 C 1010.43 4.33184 0.605821 0
M  V30 10368 C 1009.49 5.0208 1.57488 0
M  V30 10369 O 1008.51 5.58528 1.09706 0
M  V30 10370 N 1009.71 5.02335 2.9093 0
M  V30 10371 H 1012.48 2.939 -0.58674 0
M  V30 10372 H 1010.04 1.55276 -0.458375 0
M  V30 10373 H 1012.03 3.59535 1.85787 0
M  V30 10374 H 1010.6 2.53333 1.83143 0
M  V30 10375 H 1009.82 3.93581 -0.220827 0
M  V30 10376 H 1011.11 5.08471 0.182883 0
M  V30 10377 H 1010.51 4.57783 3.32342 0
M  V30 10378 H 1009.07 5.49119 3.51157 0
M  V30 10379 N 1012.5 0.357919 1.53482 0
M  V30 10380 C 1013.43 -0.526753 2.23065 0
M  V30 10381 C 1014.44 -1.05239 1.24212 0
M  V30 10382 O 1015.63 -0.960078 1.50482 0
M  V30 10383 C 1012.73 -1.73919 2.9087 0
M  V30 10384 C 1011.91 -1.34638 4.16163 0
M  V30 10385 C 1010.96 -2.42005 4.67247 0
M  V30 10386 O 1009.99 -2.04714 5.31113 0
M  V30 10387 N 1011.19 -3.73478 4.44404 0
M  V30 10388 H 1013.96 0.0692386 2.9962 0
M  V30 10389 H 1011.52 0.182726 1.60866 0
M  V30 10390 H 1013.51 -2.45207 3.21956 0
M  V30 10391 H 1012.08 -2.24223 2.17814 0
M  V30 10392 H 1011.3 -0.463667 3.91464 0
M  V30 10393 H 1012.59 -1.06012 4.97633 0
M  V30 10394 H 1011.99 -4.06555 3.93357 0
M  V30 10395 H 1010.54 -4.40893 4.80059 0
M  V30 10396 N 1013.98 -1.5736 0.0868897 0
M  V30 10397 C 1015.21 -1.981 -0.586498 0
M  V30 10398 C 1015.61 -0.96455 -1.62767 0
M  V30 10399 O 1014.96 0.0551801 -1.83617 0
M  V30 10400 C 1015.02 -3.35193 -1.29947 0
M  V30 10401 C 1014.68 -4.55157 -0.410012 0
M  V30 10402 C 1015.68 -5.18797 0.338532 0
M  V30 10403 C 1013.37 -5.01212 -0.33047 0
M  V30 10404 C 1015.36 -6.26854 1.15468 0
M  V30 10405 C 1013.05 -6.09138 0.48934 0
M  V30 10406 C 1014.04 -6.71823 1.23057 0
M  V30 10407 O 1013.73 -7.77669 2.03683 0
M  V30 10408 H 1013.46 -0.656166 -0.16255 0
M  V30 10409 H 1016.02 -2.04773 0.160379 0
M  V30 10410 H 1014.25 -3.25179 -2.09274 0
M  V30 10411 H 1015.94 -3.60435 -1.86658 0
M  V30 10412 H 1016.7 -4.84151 0.286764 0
M  V30 10413 H 1012.58 -4.52188 -0.897058 0
M  V30 10414 H 1016.13 -6.75712 1.73374 0
M  V30 10415 H 1012.02 -6.43215 0.542618 0
M  V30 10416 H 1012.79 -7.94618 1.96277 0
M  V30 10417 N 1015.45 0.186762 -1.56489 0
M  V30 10418 C 1016.7 0.904063 -1.80752 0
M  V30 10419 C 1017.02 1.83443 -0.661343 0
M  V30 10420 O 1016.29 1.93272 0.319811 0
M  V30 10421 H 1014.87 0.336828 -0.66675 0
M  V30 10422 H 1017.54 0.190275 -1.93969 0
M  V30 10423 H 1016.63 1.49021 -2.74225 0
M  V30 10424 N 1016.93 1.50896 0.454776 0
M  V30 10425 C 1017.88 1.67333 1.54867 0
M  V30 10426 C 1018.87 0.527576 1.52005 0
M  V30 10427 O 1020.06 0.782726 1.58753 0
M  V30 10428 C 1017.19 1.7858 2.93196 0
M  V30 10429 C 1016.27 2.98884 3.0088 0
M  V30 10430 N 1016.66 4.22326 2.78343 0
M  V30 10431 C 1014.96 2.97779 3.32029 0
M  V30 10432 C 1015.66 5.03439 2.91418 0
M  V30 10433 N 1014.64 4.37725 3.22332 0
M  V30 10434 H 1018.44 2.60453 1.36167 0
M  V30 10435 H 1015.96 1.48304 0.661797 0
M  V30 10436 H 1017.95 1.88463 3.7187 0
M  V30 10437 H 1016.61 0.866296 3.1293 0
M  V30 10438 H 1017.62 4.51557 2.53607 0
M  V30 10439 H 1014.3 2.15393 3.57648 0
M  V30 10440 H 1015.69 6.11648 2.78095 0
M  V30 10441 N 1018.41 -0.709066 1.40748 0
M  V30 10442 C 1019.34 -1.83412 1.37451 0
M  V30 10443 C 1020.36 -1.60394 0.27884 0
M  V30 10444 O 1021.54 -1.70147 0.539642 0
M  V30 10445 C 1018.64 -3.19935 1.1178 0
M  V30 10446 C 1017.82 -3.70095 2.33128 0
M  V30 10447 C 1016.88 -4.85249 2.03518 0
M  V30 10448 O 1015.9 -4.97563 2.76442 0
M  V30 10449 N 1017.1 -5.7152 1.01714 0
M  V30 10450 H 1019.87 -1.86736 2.34414 0
M  V30 10451 H 1017.43 -0.890863 1.35186 0
M  V30 10452 H 1019.42 -3.94578 0.899464 0
M  V30 10453 H 1017.99 -3.11718 0.234624 0
M  V30 10454 H 1017.21 -2.8651 2.70751 0
M  V30 10455 H 1018.5 -4.00344 3.1401 0
M  V30 10456 H 1017.9 -5.64188 0.413307 0
M  V30 10457 H 1016.46 -6.46119 0.858696 0
M  V30 10458 N 1019.89 -1.26353 -0.941956 0
M  V30 10459 C 1020.8 -1.09618 -2.07415 0
M  V30 10460 C 1021.82 -0.0298963 -1.73974 0
M  V30 10461 O 1022.99 -0.233466 -2.00042 0
M  V30 10462 C 1020.06 -0.73013 -3.38925 0
M  V30 10463 C 1019.12 -1.87574 -3.86153 0
M  V30 10464 C 1018.35 -1.52706 -5.11387 0
M  V30 10465 O 1018.57 -0.428438 -5.68789 0
M  V30 10466 O 1017.51 -2.36154 -5.53638 0
M  V30 10467 H 1021.33 -2.04598 -2.2444 0
M  V30 10468 H 1018.92 -1.05407 -1.05876 0
M  V30 10469 H 1020.8 -0.538684 -4.17943 0
M  V30 10470 H 1019.48 0.190282 -3.2314 0
M  V30 10471 H 1018.38 -2.12214 -3.08084 0
M  V30 10472 H 1019.72 -2.77585 -4.06457 0
M  V30 10473 N 1021.37 1.14642 -1.08144 0
M  V30 10474 C 1022.61 1.85892 -0.810683 0
M  V30 10475 C 1022.95 1.82575 0.661821 0
M  V30 10476 O 1022.22 1.25454 1.48632 0
M  V30 10477 C 1022.5 3.34647 -1.32979 0
M  V30 10478 C 1022.36 3.46551 -2.86744 0
M  V30 10479 C 1023.68 4.29661 -0.952864 0
M  V30 10480 H 1020.8 0.674963 -0.295963 0
M  V30 10481 H 1023.44 1.3464 -1.3406 0
M  V30 10482 H 1021.59 3.78425 -0.87903 0
M  V30 10483 H 1023.26 3.11579 -3.40171 0
M  V30 10484 H 1021.5 2.87849 -3.24539 0
M  V30 10485 H 1022.17 4.51101 -3.18138 0
M  V30 10486 H 1024.65 3.93885 -1.34141 0
M  V30 10487 H 1023.53 5.32209 -1.34331 0
M  V30 10488 H 1023.79 4.41877 0.140392 0
M  V30 10489 N 1022.85 0.866709 1.31628 0
M  V30 10490 C 1024.07 0.49039 2.01004 0
M  V30 10491 C 1024.49 -0.916244 1.65077 0
M  V30 10492 O 1023.85 -1.59975 0.8783 0
M  V30 10493 C 1023.9 0.634011 3.55897 0
M  V30 10494 O 1023.62 1.98525 3.90537 0
M  V30 10495 C 1025.12 0.258277 4.42547 0
M  V30 10496 H 1022.34 0.191421 0.643117 0
M  V30 10497 H 1024.88 1.16698 1.67934 0
M  V30 10498 H 1023.04 0.00501801 3.874 0
M  V30 10499 H 1023.45 1.99067 4.85255 0
M  V30 10500 H 1024.93 0.409733 5.50477 0
M  V30 10501 H 1025.4 -0.802301 4.3181 0
M  V30 10502 H 1026.01 0.862837 4.16456 0
M  V30 10503 N 1024.32 -1.44642 0.625825 0
M  V30 10504 C 1025.74 -1.56925 0.290992 0
M  V30 10505 C 1025.94 -1.61424 -1.20601 0
M  V30 10506 O 1025 -1.55439 -1.98985 0
M  V30 10507 C 1026.31 -2.84343 0.978242 0
M  V30 10508 C 1027.86 -2.98047 0.955882 0
M  V30 10509 C 1028.33 -4.2826 1.62349 0
M  V30 10510 N 1029.82 -4.35062 1.58983 0
M  V30 10511 C 1030.56 -5.34524 2.07538 0
M  V30 10512 N 1030.05 -6.4042 2.6426 0
M  V30 10513 N 1031.85 -5.25998 1.98198 0
M  V30 10514 H 1024 -1.39965 1.59761 0
M  V30 10515 H 1026.26 -0.670368 0.670306 0
M  V30 10516 H 1025.97 -2.86985 2.03304 0
M  V30 10517 H 1025.84 -3.73699 0.512726 0
M  V30 10518 H 1028.23 -2.94961 -0.0904292 0
M  V30 10519 H 1028.31 -2.10053 1.45984 0
M  V30 10520 H 1027.95 -4.32105 2.66923 0
M  V30 10521 H 1027.88 -5.15102 1.09441 0
M  V30 10522 H 1030.37 -3.59147 1.17565 0
M  V30 10523 H 1030.69 -7.1259 2.99056 0
M  V30 10524 H 1029.03 -6.41121 2.68308 0
M  V30 10525 H 1032.22 -4.42178 1.5361 0
M  V30 10526 H 1032.4 -6.03359 2.3635 0
M  V30 10527 N 1025.8 -0.366053 -1.5329 0
M  V30 10528 C 1027.05 0.223493 -2.01263 0
M  V30 10529 C 1027.38 1.48736 -1.25331 0
M  V30 10530 O 1026.63 1.92805 -0.335341 0
M  V30 10531 C 1026.93 0.560906 -3.52971 0
M  V30 10532 C 1026.6 -0.60869 -4.46773 0
M  V30 10533 C 1025.26 -0.929609 -4.72135 0
M  V30 10534 C 1027.61 -1.39225 -5.02261 0
M  V30 10535 C 1024.94 -2.03606 -5.50238 0
M  V30 10536 C 1027.29 -2.48912 -5.81572 0
M  V30 10537 C 1025.95 -2.81538 -6.05221 0
M  V30 10538 H 1025.22 0.0817818 -0.736473 0
M  V30 10539 H 1027.87 -0.498613 -1.84895 0
M  V30 10540 H 1026.18 1.36403 -3.67289 0
M  V30 10541 H 1027.87 1.02931 -3.87564 0
M  V30 10542 H 1024.46 -0.348529 -4.27181 0
M  V30 10543 H 1028.65 -1.15757 -4.82612 0
M  V30 10544 H 1023.9 -2.29281 -5.6678 0
M  V30 10545 H 1028.08 -3.10044 -6.23575 0
M  V30 10546 H 1025.7 -3.67396 -6.65525 0
M  V30 10547 N 1027.28 1.57312 -0.0952337 0
M  V30 10548 C 1028.56 1.85822 0.610715 0
M  V30 10549 C 1028.94 0.992114 1.86334 0
M  V30 10550 O 1028.28 0.0645669 2.28409 0
M  V30 10551 C 1028.49 3.36492 0.925967 0
M  V30 10552 C 1029.84 4.0455 1.28936 0
M  V30 10553 O 1030.87 3.41374 1.01698 0
M  V30 10554 O 1029.73 5.16024 1.79949 0
M  V30 10555 H 1026.82 0.768454 0.305626 0
M  V30 10556 H 1029.37 1.69217 -0.127941 0
M  V30 10557 H 1028.14 3.91282 0.0373127 0
M  V30 10558 H 1027.76 3.58443 1.7206 0
M  V30 10559 N 1028.76 -0.17846 1.56586 0
M  V30 10560 C 1030 -0.896235 1.81587 0
M  V30 10561 C 1030.33 -1.82553 0.671168 0
M  V30 10562 O 1029.59 -1.92688 -0.342046 0
M  V30 10563 C 1029.89 -1.73063 3.12704 0
M  V30 10564 C 1029.55 -0.950877 4.4076 0
M  V30 10565 C 1028.21 -0.735647 4.75544 0
M  V30 10566 C 1030.57 -0.403419 5.19636 0
M  V30 10567 C 1027.89 0.0382562 5.86688 0
M  V30 10568 C 1030.25 0.357359 6.3159 0
M  V30 10569 C 1028.91 0.583455 6.64945 0
M  V30 10570 H 1028.18 -0.327956 0.664474 0
M  V30 10571 H 1030.83 -0.161586 1.90817 0
M  V30 10572 H 1029.13 -2.53446 2.98785 0
M  V30 10573 H 1030.83 -2.28891 3.29257 0
M  V30 10574 H 1027.42 -1.12866 4.13472 0
M  V30 10575 H 1031.6 -0.557059 4.93164 0
M  V30 10576 H 1026.86 0.223237 6.10992 0
M  V30 10577 H 1031.03 0.788861 6.91918 0
M  V30 10578 H 1028.66 1.18502 7.50907 0
M  V30 10579 N 1030.24 -1.51135 -0.446768 0
M  V30 10580 C 1031.46 -1.67129 -1.21965 0
M  V30 10581 C 1031.88 -0.36467 -1.85245 0
M  V30 10582 O 1031.24 0.655908 -1.70306 0
M  V30 10583 C 1031.29 -2.78016 -2.31061 0
M  V30 10584 O 1031.01 -4.03615 -1.70371 0
M  V30 10585 C 1032.51 -3.05197 -3.21511 0
M  V30 10586 H 1029.73 -0.561111 -0.367961 0
M  V30 10587 H 1032.27 -1.97499 -0.530517 0
M  V30 10588 H 1030.43 -2.50272 -2.95707 0
M  V30 10589 H 1030.84 -4.65126 -2.424 0
M  V30 10590 H 1032.32 -3.8639 -3.94216 0
M  V30 10591 H 1032.79 -2.17228 -3.81718 0
M  V30 10592 H 1033.4 -3.34565 -2.62577 0
M  V30 10593 N 1031.71 0.701592 -1.41122 0
M  V30 10594 C 1032.94 1.49049 -1.43499 0
M  V30 10595 C 1033.36 1.88761 -0.0385684 0
M  V30 10596 O 1032.71 1.56384 0.940755 0
M  V30 10597 C 1032.76 2.7569 -2.33832 0
M  V30 10598 O 1032.49 2.37653 -3.68039 0
M  V30 10599 C 1033.99 3.69479 -2.44949 0
M  V30 10600 H 1031.21 0.459519 -0.488961 0
M  V30 10601 H 1033.75 0.864318 -1.85337 0
M  V30 10602 H 1031.91 3.34559 -1.95318 0
M  V30 10603 H 1032.32 3.19241 -4.16156 0
M  V30 10604 H 1033.79 4.55139 -3.12334 0
M  V30 10605 H 1034.27 4.13553 -1.47887 0
M  V30 10606 H 1034.88 3.16517 -2.84072 0
M  V30 10607 N 1033.19 1.2685 0.935242 0
M  V30 10608 C 1034.42 1.15538 1.71635 0
M  V30 10609 C 1034.83 -0.288698 1.8658 0
M  V30 10610 O 1034.19 -1.19721 1.37743 0
M  V30 10611 C 1034.24 1.8259 3.11999 0
M  V30 10612 O 1033.96 3.21355 2.97763 0
M  V30 10613 C 1035.46 1.77307 4.06297 0
M  V30 10614 H 1032.68 0.402055 0.537208 0
M  V30 10615 H 1035.23 1.67582 1.17203 0
M  V30 10616 H 1033.38 1.3447 3.63313 0
M  V30 10617 H 1033.8 3.54626 3.86446 0
M  V30 10618 H 1035.27 2.28851 5.02326 0
M  V30 10619 H 1035.75 0.740823 4.32907 0
M  V30 10620 H 1036.35 2.25007 3.60904 0
M  V30 10621 N 1034.67 -1.14067 1.0875 0
M  V30 10622 C 1035.9 -1.89582 0.841038 0
M  V30 10623 C 1036.32 -1.78226 -0.601436 0
M  V30 10624 O 1035.68 -1.12491 -1.42181 0
M  V30 10625 C 1035.73 -3.37415 1.27213 0
M  V30 10626 O 1034.83 -4.10191 0.426246 0
M  V30 10627 H 1034.17 -0.589716 0.305173 0
M  V30 10628 H 1036.7 -1.44364 1.44984 0
M  V30 10629 H 1036.71 -3.88234 1.25451 0
M  V30 10630 H 1035.39 -3.44999 2.32268 0
M  V30 10631 H 1033.96 -3.69429 0.507585 0
M  V30 10632 N 1036.15 -0.873678 -1.31166 0
M  V30 10633 C 1037.38 -0.501043 -2.00742 0
M  V30 10634 C 1037.79 0.907477 -1.65561 0
M  V30 10635 O 1037.15 1.59507 -0.886771 0
M  V30 10636 C 1037.2 -0.652877 -3.55556 0
M  V30 10637 O 1036.92 -2.00593 -3.89479 0
M  V30 10638 C 1038.42 -0.281742 -4.42404 0
M  V30 10639 H 1035.64 -0.194829 -0.642092 0
M  V30 10640 H 1038.19 -1.17587 -1.67313 0
M  V30 10641 H 1036.34 -0.0255627 -3.87392 0
M  V30 10642 H 1036.75 -2.01638 -4.84193 0
M  V30 10643 H 1038.23 -0.43892 -5.50252 0
M  V30 10644 H 1038.71 0.779389 -4.32229 0
M  V30 10645 H 1039.31 -0.88491 -4.15992 0
M  V30 10646 N 1037.63 1.44308 -0.633487 0
M  V30 10647 C 1038.85 2.06897 -0.144347 0
M  V30 10648 C 1039.28 1.47045 1.173 0
M  V30 10649 O 1038.63 0.572806 1.72013 0
M  V30 10650 C 1038.68 3.60571 -0.0456324 0
M  V30 10651 O 1037.79 4.0015 0.997682 0
M  V30 10652 H 1037.13 0.658427 -0.0858499 0
M  V30 10653 H 1039.66 1.85142 -0.870833 0
M  V30 10654 H 1039.67 4.07745 0.144178 0
M  V30 10655 H 1038.34 4.03515 -1.0074 0
M  V30 10656 H 1036.92 3.64603 0.782252 0
M  V30 10657 N 1039.1 0.374177 1.53094 0
M  V30 10658 C 1040.33 -0.213325 2.05797 0
M  V30 10659 C 1040.75 -1.41753 1.24706 0
M  V30 10660 O 1040.1 -1.80183 0.289868 0
M  V30 10661 C 1040.16 -0.598367 3.56513 0
M  V30 10662 O 1039.88 0.557983 4.34532 0
M  V30 10663 C 1041.38 -1.24334 4.25507 0
M  V30 10664 H 1038.6 -0.0357398 0.670048 0
M  V30 10665 H 1041.14 0.535035 1.97377 0
M  V30 10666 H 1039.3 -1.29663 3.65056 0
M  V30 10667 H 1039.71 0.244911 5.23928 0
M  V30 10668 H 1041.18 -1.46325 5.32253 0
M  V30 10669 H 1041.66 -2.20622 3.79766 0
M  V30 10670 H 1042.27 -0.586269 4.2124 0
M  V30 10671 N 1040.58 -1.57259 0.103575 0
M  V30 10672 C 1041.99 -1.81816 -0.424239 0
M  V30 10673 C 1042.34 -1.01976 -1.67617 0
M  V30 10674 O 1041.47 -0.251673 -2.14932 0
M  V30 10675 C 1042.06 -3.29783 -0.776453 0
M  V30 10676 C 1040.62 -3.55074 -1.24897 0
M  V30 10677 C 1039.77 -2.76172 -0.249875 0
M  V30 10678 H 1042.72 -1.55254 0.328913 0
M  V30 10679 H 1042.74 -3.43569 -1.63526 0
M  V30 10680 H 1042.25 -3.87865 0.134906 0
M  V30 10681 H 1040.36 -3.02332 -2.17775 0
M  V30 10682 H 1040.47 -4.637 -1.20495 0
M  V30 10683 H 1038.83 -2.43902 -0.733767 0
M  V30 10684 H 1039.62 -3.37007 0.65431 0
M  V30 10685 N 1042.06 0.170153 -1.56679 0
M  V30 10686 C 1043.31 0.887906 -1.8233 0
M  V30 10687 C 1043.64 1.81845 -0.681608 0
M  V30 10688 O 1042.91 1.9191 0.316362 0
M  V30 10689 C 1043.2 1.68256 -3.18374 0
M  V30 10690 C 1043.05 0.775059 -4.43072 0
M  V30 10691 C 1044.37 2.65001 -3.51372 0
M  V30 10692 H 1041.49 0.32135 -0.663252 0
M  V30 10693 H 1044.13 0.154065 -1.89374 0
M  V30 10694 H 1042.28 2.30817 -3.12499 0
M  V30 10695 H 1043.95 0.162234 -4.61015 0
M  V30 10696 H 1042.2 0.0831809 -4.3372 0
M  V30 10697 H 1042.87 1.36661 -5.34816 0
M  V30 10698 H 1045.34 2.12566 -3.57708 0
M  V30 10699 H 1044.22 3.17667 -4.47637 0
M  V30 10700 H 1044.48 3.45255 -2.76136 0
M  V30 10701 N 1043.54 1.5137 0.438746 0
M  V30 10702 C 1044.77 1.67774 1.21077 0
M  V30 10703 C 1045.18 0.374489 1.85049 0
M  V30 10704 O 1044.54 -0.646867 1.70651 0
M  V30 10705 C 1044.59 2.79238 2.29584 0
M  V30 10706 O 1044.31 4.04513 1.68228 0
M  V30 10707 C 1045.81 3.06898 3.19888 0
M  V30 10708 H 1043.03 0.563054 0.364981 0
M  V30 10709 H 1045.58 1.97777 0.520035 0
M  V30 10710 H 1043.73 2.51837 2.94375 0
M  V30 10711 H 1044.14 4.66405 2.3993 0
M  V30 10712 H 1045.62 3.88476 3.92162 0
M  V30 10713 H 1046.1 2.19249 3.80561 0
M  V30 10714 H 1046.7 3.35952 2.60799 0
M  V30 10715 N 1045.02 -0.694098 1.41492 0
M  V30 10716 C 1046.24 -1.48789 1.44488 0
M  V30 10717 C 1046.67 -1.88028 0.0521588 0
M  V30 10718 O 1046.02 -1.54727 -0.944952 0
M  V30 10719 C 1046.07 -2.72586 2.3607 0
M  V30 10720 O 1045.18 -3.70128 1.81876 0
M  V30 10721 H 1044.52 -0.447758 0.490315 0
M  V30 10722 H 1047.05 -0.853036 1.85969 0
M  V30 10723 H 1047.06 -3.20877 2.51995 0
M  V30 10724 H 1045.73 -2.43363 3.37264 0
M  V30 10725 H 1044.31 -3.29069 1.75408 0
M  V30 10726 N 1046.49 -1.27344 -0.928501 0
M  V30 10727 C 1047.44 -1.09835 -2.05034 0
M  V30 10728 C 1048.44 -0.0216643 -1.69386 0
M  V30 10729 O 1049.64 -0.179323 -1.79105 0
M  V30 10730 H 1046.02 -0.338416 -0.671549 0
M  V30 10731 H 1047.99 -2.04879 -2.1695 0
M  V30 10732 C 1046.74 -0.761462 -3.3926 0
M  V30 10733 H 1046.06 -1.58186 -3.67175 0
M  V30 10734 H 1047.5 -0.678812 -4.18531 0
M  V30 10735 C 1045.96 0.534118 -3.32639 0
M  V30 10736 O 1046.49 1.56877 -3.69801 0
M  V30 10737 N 1044.7 0.529437 -2.85736 0
M  V30 10738 H 1044.24 -0.312954 -2.55692 0
M  V30 10739 H 1044.2 1.39637 -2.81689 0
M  V30 10740 N 1047.97 1.13488 -1.09353 0
M  V30 10741 C 1049.2 1.88592 -0.850915 0
M  V30 10742 C 1049.62 1.79087 0.597761 0
M  V30 10743 O 1048.97 1.15695 1.41142 0
M  V30 10744 C 1049.02 3.38219 -1.27633 0
M  V30 10745 O 1048.74 3.47476 -2.66819 0
M  V30 10746 C 1050.25 4.30293 -1.06598 0
M  V30 10747 H 1047.47 0.597069 -0.306185 0
M  V30 10748 H 1050.01 1.43668 -1.45533 0
M  V30 10749 H 1048.16 3.80729 -0.715828 0
M  V30 10750 H 1048.58 4.40485 -2.84733 0
M  V30 10751 H 1050.05 5.33611 -1.41293 0
M  V30 10752 H 1050.53 4.392 -0.0037135 0
M  V30 10753 H 1051.14 3.9355 -1.6124 0
M  V30 10754 N 1049.45 0.880621 1.30701 0
M  V30 10755 C 1050.7 0.497611 1.966 0
M  V30 10756 C 1051.03 -0.949901 1.69383 0
M  V30 10757 O 1050.31 -1.67054 0.996152 0
M  V30 10758 C 1050.59 0.767919 3.51817 0
M  V30 10759 C 1050.44 2.26574 3.88567 0
M  V30 10760 C 1051.76 0.241502 4.39437 0
M  V30 10761 H 1048.88 0.182267 0.714106 0
M  V30 10762 H 1051.52 1.10382 1.54648 0
M  V30 10763 H 1049.67 0.251967 3.87682 0
M  V30 10764 H 1051.34 2.84977 3.62748 0
M  V30 10765 H 1049.59 2.73411 3.36792 0
M  V30 10766 H 1050.26 2.40549 4.9683 0
M  V30 10767 H 1052.73 0.683051 4.10455 0
M  V30 10768 H 1051.61 0.459997 5.46969 0
M  V30 10769 H 1051.87 -0.857068 4.33713 0
M  V30 10770 N 1050.93 -1.4397 0.641131 0
M  V30 10771 C 1052.16 -2.06303 0.157006 0
M  V30 10772 C 1052.57 -1.47981 -1.17248 0
M  V30 10773 O 1051.93 -0.606471 -1.72128 0
M  V30 10774 C 1051.98 -3.6147 0.0468425 0
M  V30 10775 O 1051.7 -4.17622 1.32376 0
M  V30 10776 C 1053.2 -4.40857 -0.464795 0
M  V30 10777 H 1050.42 -0.665684 0.0842946 0
M  V30 10778 H 1052.97 -1.84675 0.878363 0
M  V30 10779 H 1051.12 -3.82325 -0.625006 0
M  V30 10780 H 1051.54 -5.11167 1.17509 0
M  V30 10781 H 1053.01 -5.49813 -0.490862 0
M  V30 10782 H 1053.49 -4.13016 -1.4938 0
M  V30 10783 H 1054.09 -4.24943 0.174146 0
M  V30 10784 N 1052.41 -0.382291 -1.52893 0
M  V30 10785 C 1053.66 0.201734 -2.01091 0
M  V30 10786 C 1053.98 1.47905 -1.2708 0
M  V30 10787 O 1053.25 1.92002 -0.38883 0
M  V30 10788 H 1051.83 0.0775373 -0.742965 0
M  V30 10789 H 1054.49 -0.512369 -1.88045 0
M  V30 10790 H 1053.58 0.416919 -3.09303 0
M  V30 10791 N 1053.89 1.57202 -0.111913 0
M  V30 10792 C 1054.8 2.18475 0.854753 0
M  V30 10793 C 1055.81 1.15888 1.29792 0
M  V30 10794 O 1056.99 1.48329 1.36237 0
M  V30 10795 C 1054.05 2.76645 2.0897 0
M  V30 10796 C 1053.11 3.94244 1.69913 0
M  V30 10797 C 1052.35 4.49631 2.8752 0
M  V30 10798 O 1052.57 4.03926 4.02741 0
M  V30 10799 O 1051.5 5.40417 2.65015 0
M  V30 10800 H 1055.33 3.01519 0.363352 0
M  V30 10801 H 1052.91 1.4897 0.113329 0
M  V30 10802 H 1054.8 3.13755 2.81311 0
M  V30 10803 H 1053.47 1.96637 2.5713 0
M  V30 10804 H 1052.38 3.61915 0.947013 0
M  V30 10805 H 1053.71 4.75666 1.26501 0
M  V30 10806 N 1055.36 -0.161842 1.56767 0
M  V30 10807 C 1056.59 -0.892247 1.86672 0
M  V30 10808 C 1057.01 -1.75407 0.69841 0
M  V30 10809 O 1056.36 -1.7945 -0.332251 0
M  V30 10810 C 1056.41 -1.7612 3.15696 0
M  V30 10811 O 1056.14 -0.934131 4.28025 0
M  V30 10812 C 1057.64 -2.60046 3.59014 0
M  V30 10813 H 1054.86 -0.258747 0.619105 0
M  V30 10814 H 1057.4 -0.159089 2.0388 0
M  V30 10815 H 1055.56 -2.44759 3.00286 0
M  V30 10816 H 1055.97 -1.52931 5.01709 0
M  V30 10817 H 1057.44 -3.16618 4.5217 0
M  V30 10818 H 1057.92 -3.35374 2.83586 0
M  V30 10819 H 1058.53 -1.96724 3.77067 0
M  V30 10820 N 1056.84 -1.516 -0.430713 0
M  V30 10821 C 1058.07 -1.68414 -1.20185 0
M  V30 10822 C 1058.48 -0.384297 -1.84847 0
M  V30 10823 O 1057.84 0.637808 -1.70992 0
M  V30 10824 C 1057.89 -2.80451 -2.28099 0
M  V30 10825 O 1057.61 -4.05399 -1.66081 0
M  V30 10826 C 1059.11 -3.0859 -3.18256 0
M  V30 10827 H 1056.33 -0.564982 -0.361989 0
M  V30 10828 H 1058.88 -1.9805 -0.50954 0
M  V30 10829 H 1057.03 -2.53395 -2.93036 0
M  V30 10830 H 1057.45 -4.67671 -2.37453 0
M  V30 10831 H 1058.92 -3.9055 -3.90096 0
M  V30 10832 H 1059.4 -2.21264 -3.79393 0
M  V30 10833 H 1060 -3.37331 -2.59014 0
M  V30 10834 N 1058.32 0.686584 -1.41858 0
M  V30 10835 C 1059.73 1.26682 -1.37145 0
M  V30 10836 C 1060.08 1.96112 -0.058922 0
M  V30 10837 O 1059.21 1.99321 0.842629 0
M  V30 10838 C 1059.8 2.30383 -2.48413 0
M  V30 10839 C 1058.36 2.83961 -2.47069 0
M  V30 10840 C 1057.51 1.58119 -2.27802 0
M  V30 10841 H 1060.46 0.480742 -1.51243 0
M  V30 10842 H 1060.48 3.11868 -2.17987 0
M  V30 10843 H 1059.99 1.79822 -3.43927 0
M  V30 10844 H 1058.09 3.38675 -1.55338 0
M  V30 10845 H 1058.21 3.3378 -3.43697 0
M  V30 10846 H 1056.57 1.84258 -1.75844 0
M  V30 10847 H 1057.35 1.09541 -3.25355 0
M  V30 10848 N 1059.8 1.27835 0.921735 0
M  V30 10849 C 1061.04 1.14523 1.67005 0
M  V30 10850 C 1061.37 -0.307776 1.92049 0
M  V30 10851 O 1060.63 -1.24103 1.51317 0
M  V30 10852 C 1060.93 1.88054 3.03925 0
M  V30 10853 C 1060.59 3.37886 2.9857 0
M  V30 10854 C 1059.25 3.78752 2.96817 0
M  V30 10855 C 1061.61 4.33462 2.89414 0
M  V30 10856 C 1058.93 5.13549 2.83698 0
M  V30 10857 C 1061.29 5.68322 2.77836 0
M  V30 10858 C 1059.95 6.08475 2.74436 0
M  V30 10859 H 1059.22 0.419068 0.611116 0
M  V30 10860 H 1061.87 1.58515 1.07449 0
M  V30 10861 H 1060.17 1.36587 3.67221 0
M  V30 10862 H 1061.87 1.75176 3.60714 0
M  V30 10863 H 1058.46 3.05389 3.00725 0
M  V30 10864 H 1062.64 4.02857 2.89862 0
M  V30 10865 H 1057.9 5.43796 2.79456 0
M  V30 10866 H 1062.07 6.42048 2.69717 0
M  V30 10867 H 1059.7 7.12877 2.64027 0
M  V30 10868 N 1061.28 -1.12907 1.09954 0
M  V30 10869 C 1062.5 -1.88679 0.861099 0
M  V30 10870 C 1062.93 -1.78853 -0.582499 0
M  V30 10871 O 1062.28 -1.13992 -1.4098 0
M  V30 10872 C 1062.33 -3.36047 1.30785 0
M  V30 10873 O 1061.44 -4.09716 0.469728 0
M  V30 10874 H 1060.78 -0.586447 0.31141 0
M  V30 10875 H 1063.31 -1.42818 1.46507 0
M  V30 10876 H 1063.32 -3.86882 1.29562 0
M  V30 10877 H 1061.99 -3.42516 2.35914 0
M  V30 10878 H 1060.57 -3.6887 0.54674 0
M  V30 10879 N 1062.75 -0.88754 -1.30232 0
M  V30 10880 C 1064.16 -0.55745 -1.78184 0
M  V30 10881 C 1064.52 0.926474 -1.72948 0
M  V30 10882 O 1063.64 1.72403 -1.3079 0
M  V30 10883 C 1064.24 -1.00512 -3.23547 0
M  V30 10884 C 1062.79 -0.726402 -3.69324 0
M  V30 10885 C 1061.94 -1.18666 -2.50627 0
M  V30 10886 H 1064.89 -1.07151 -1.17066 0
M  V30 10887 H 1064.91 -0.335185 -3.79021 0
M  V30 10888 H 1064.43 -2.08517 -3.27326 0
M  V30 10889 H 1062.53 0.341548 -3.71031 0
M  V30 10890 H 1062.64 -1.31575 -4.60679 0
M  V30 10891 H 1061 -0.605936 -2.47387 0
M  V30 10892 H 1061.79 -2.2745 -2.57141 0
M  V30 10893 N 1064.23 1.43628 -0.648757 0
M  V30 10894 C 1065.16 2.33478 0.0320785 0
M  V30 10895 C 1066.14 1.49217 0.816605 0
M  V30 10896 O 1067.33 1.77892 0.778974 0
M  V30 10897 C 1064.46 3.32525 1.00222 0
M  V30 10898 C 1063.41 4.2674 0.328119 0
M  V30 10899 C 1062.74 5.15791 1.4094 0
M  V30 10900 C 1064.04 5.16493 -0.776701 0
M  V30 10901 H 1065.73 2.90657 -0.718257 0
M  V30 10902 H 1063.28 1.3976 -0.346852 0
M  V30 10903 H 1065.23 3.94277 1.4874 0
M  V30 10904 H 1063.96 2.73593 1.78366 0
M  V30 10905 H 1062.61 3.66346 -0.136569 0
M  V30 10906 H 1062.26 4.53201 2.18216 0
M  V30 10907 H 1061.96 5.79645 0.963631 0
M  V30 10908 H 1063.49 5.80416 1.89603 0
M  V30 10909 H 1064.9 5.7208 -0.373878 0
M  V30 10910 H 1063.3 5.89043 -1.14667 0
M  V30 10911 H 1064.37 4.56448 -1.63654 0
M  V30 10912 N 1065.71 0.390394 1.52688 0
M  V30 10913 C 1066.96 -0.191729 2.01892 0
M  V30 10914 C 1067.29 -1.4637 1.27631 0
M  V30 10915 O 1066.56 -1.90809 0.377094 0
M  V30 10916 C 1066.85 -0.458535 3.57169 0
M  V30 10917 C 1066.7 0.828796 4.42098 0
M  V30 10918 C 1068.02 -1.2487 4.22014 0
M  V30 10919 H 1065.14 -0.0682091 0.733837 0
M  V30 10920 H 1067.78 0.520176 1.82741 0
M  V30 10921 H 1065.93 -1.06498 3.73618 0
M  V30 10922 H 1067.6 1.46562 4.37398 0
M  V30 10923 H 1065.85 1.44388 4.09066 0
M  V30 10924 H 1066.52 0.596746 5.48765 0
M  V30 10925 H 1068.99 -0.735452 4.09549 0
M  V30 10926 H 1067.87 -1.40412 5.30637 0
M  V30 10927 H 1068.13 -2.2642 3.79719 0
M  V30 10928 N 1067.19 -1.57141 0.120249 0
M  V30 10929 C 1068.15 -2.14213 -0.815185 0
M  V30 10930 C 1069.15 -1.07731 -1.19376 0
M  V30 10931 O 1070.34 -1.33502 -1.11906 0
M  V30 10932 C 1067.47 -2.68339 -2.10255 0
M  V30 10933 H 1068.67 -2.98197 -0.319166 0
M  V30 10934 H 1066.22 -1.55767 -0.128997 0
M  V30 10935 H 1066.95 -1.87946 -2.64285 0
M  V30 10936 H 1066.74 -3.46216 -1.84057 0
M  V30 10937 H 1068.23 -3.124 -2.77121 0
M  V30 10938 N 1068.67 0.153526 -1.5685 0
M  V30 10939 C 1069.89 0.882335 -1.87143 0
M  V30 10940 C 1070.31 1.75034 -0.707702 0
M  V30 10941 O 1069.67 1.79624 0.32273 0
M  V30 10942 C 1069.72 1.74444 -3.16625 0
M  V30 10943 O 1069.44 0.911419 -4.28515 0
M  V30 10944 C 1070.94 2.58139 -3.60388 0
M  V30 10945 H 1068.16 0.25546 -0.620469 0
M  V30 10946 H 1070.7 0.148275 -2.03962 0
M  V30 10947 H 1068.86 2.43163 -3.0158 0
M  V30 10948 H 1069.27 1.50268 -5.02513 0
M  V30 10949 H 1070.75 3.14215 -4.53842 0
M  V30 10950 H 1071.22 3.33865 -2.85361 0
M  V30 10951 H 1071.83 1.94721 -3.78105 0
M  V30 10952 N 1070.14 1.51827 0.422667 0
M  V30 10953 C 1071.37 1.69337 1.19748 0
M  V30 10954 C 1071.79 0.396312 1.83878 0
M  V30 10955 O 1071.15 -0.644976 1.6944 0
M  V30 10956 C 1071.2 2.82082 2.24637 0
M  V30 10957 O 1070.3 2.46708 3.30468 0
M  V30 10958 H 1069.65 0.564154 0.35018 0
M  V30 10959 H 1072.18 1.98465 0.497289 0
M  V30 10960 H 1072.19 3.06599 2.69186 0
M  V30 10961 H 1070.86 3.76195 1.77341 0
M  V30 10962 H 1069.44 2.32815 2.91293 0
M  V30 10963 N 1071.62 -0.679052 1.4222 0
M  V30 10964 C 1072.53 -1.82221 1.47759 0
M  V30 10965 C 1073.55 -1.70092 0.3667 0
M  V30 10966 O 1074.72 -1.91718 0.616957 0
M  V30 10967 C 1071.79 -3.18332 1.37351 0
M  V30 10968 C 1070.85 -3.42449 2.58896 0
M  V30 10969 C 1070.08 -4.72067 2.48976 0
M  V30 10970 O 1070.31 -5.49683 1.5233 0
M  V30 10971 O 1069.24 -4.97333 3.39033 0
M  V30 10972 H 1073.07 -1.80504 2.44238 0
M  V30 10973 H 1070.65 -0.834251 1.23938 0
M  V30 10974 H 1072.53 -3.99563 1.33893 0
M  V30 10975 H 1071.21 -3.20696 0.439965 0
M  V30 10976 H 1070.12 -2.61083 2.6793 0
M  V30 10977 H 1071.45 -3.44912 3.51136 0
M  V30 10978 N 1073.1 -1.28322 -0.914942 0
M  V30 10979 C 1074.33 -1.1837 -1.70304 0
M  V30 10980 C 1074.75 0.254291 -1.86373 0
M  V30 10981 O 1074.11 1.18398 -1.37301 0
M  V30 10982 C 1074.16 -1.88603 -3.07346 0
M  V30 10983 O 1073.26 -1.19268 -3.94777 0
M  V30 10984 H 1072.6 -0.410978 -0.52153 0
M  V30 10985 H 1075.13 -1.69622 -1.14409 0
M  V30 10986 H 1075.14 -1.96463 -3.57584 0
M  V30 10987 H 1073.82 -2.93201 -2.94967 0
M  V30 10988 H 1072.39 -1.19563 -3.53212 0
M  V30 10989 N 1074.58 1.12322 -1.10551 0
M  V30 10990 C 1075.82 1.8413 -0.849932 0
M  V30 10991 C 1076.16 1.83938 0.622946 0
M  V30 10992 O 1075.43 1.28579 1.45937 0
M  V30 10993 C 1075.72 3.31751 -1.40048 0
M  V30 10994 C 1075.57 3.40391 -2.9403 0
M  V30 10995 C 1076.89 4.27543 -1.04379 0
M  V30 10996 H 1074.01 0.668533 -0.310213 0
M  V30 10997 H 1076.65 1.31766 -1.36886 0
M  V30 10998 H 1074.8 3.76475 -0.959102 0
M  V30 10999 H 1076.47 3.04294 -3.46703 0
M  V30 11000 H 1074.71 2.809 -3.30571 0
M  V30 11001 H 1075.38 4.44252 -3.27635 0
M  V30 11002 H 1077.86 3.90951 -1.42466 0
M  V30 11003 H 1076.74 5.2924 -1.4559 0
M  V30 11004 H 1077 4.42075 0.0466316 0
M  V30 11005 N 1076.06 0.894434 1.2976 0
M  V30 11006 C 1077.28 0.532916 1.99919 0
M  V30 11007 C 1077.7 -0.881022 1.66983 0
M  V30 11008 O 1077.06 -1.58076 0.912035 0
M  V30 11009 C 1077.11 0.70936 3.54472 0
M  V30 11010 O 1076.83 2.06764 3.86239 0
M  V30 11011 C 1078.33 0.352089 4.419 0
M  V30 11012 H 1075.55 0.205019 0.638912 0
M  V30 11013 H 1078.09 1.20233 1.65421 0
M  V30 11014 H 1076.25 0.0871901 3.87302 0
M  V30 11015 H 1076.66 2.09315 4.80924 0
M  V30 11016 H 1078.14 0.526405 5.49484 0
M  V30 11017 H 1078.61 -0.710527 4.33415 0
M  V30 11018 H 1079.22 0.950979 4.14532 0
M  V30 11019 N 1077.53 -1.43282 0.656365 0
M  V30 11020 C 1078.44 -2.34576 -0.033864 0
M  V30 11021 C 1079.46 -1.5406 -0.808793 0
M  V30 11022 O 1080.64 -1.867 -0.755322 0
M  V30 11023 C 1077.7 -3.32378 -0.986197 0
M  V30 11024 C 1076.76 -4.28797 -0.207851 0
M  V30 11025 C 1076 -5.21927 -1.11482 0
M  V30 11026 O 1076.22 -5.19554 -2.35414 0
M  V30 11027 O 1075.15 -5.99045 -0.585536 0
M  V30 11028 H 1078.98 -2.95099 0.717668 0
M  V30 11029 H 1076.56 -1.43475 0.416556 0
M  V30 11030 H 1078.45 -3.9251 -1.53341 0
M  V30 11031 H 1077.12 -2.74354 -1.7179 0
M  V30 11032 H 1076.03 -3.72134 0.383022 0
M  V30 11033 H 1077.36 -4.89811 0.48435 0
M  V30 11034 N 1079.01 -0.398486 -1.52479 0
M  V30 11035 C 1080.26 0.182046 -2.00877 0
M  V30 11036 C 1080.58 1.47128 -1.2889 0
M  V30 11037 O 1081.78 2.13242 -1.68048 0
M  V30 11038 C 1080.24 0.374978 -3.57941 0
M  V30 11039 C 1079.85 -0.901544 -4.38835 0
M  V30 11040 C 1081.59 0.911378 -4.14601 0
M  V30 11041 C 1079.5 -0.676385 -5.87519 0
M  V30 11042 H 1078.43 0.0718068 -0.750573 0
M  V30 11043 H 1081.08 -0.522297 -1.7591 0
M  V30 11044 H 1079.46 1.14139 -3.79194 0
M  V30 11045 H 1080.63 -1.67329 -4.29346 0
M  V30 11046 H 1078.95 -1.36357 -3.93441 0
M  V30 11047 H 1081.55 1.09569 -5.23353 0
M  V30 11048 H 1081.89 1.88306 -3.71277 0
M  V30 11049 H 1082.42 0.204296 -3.97275 0
M  V30 11050 H 1079.16 -1.61933 -6.35184 0
M  V30 11051 H 1078.68 0.0562542 -5.99774 0
M  V30 11052 H 1080.36 -0.314454 -6.46235 0
M  V30 11053 N 1080.49 1.57075 -0.12858 0
M  V30 11054 C 1081.72 1.99876 0.534544 0
M  V30 11055 C 1082.13 1.00843 1.59612 0
M  V30 11056 O 1081.49 0.00268947 1.825 0
M  V30 11057 C 1081.54 3.42654 1.15198 0
M  V30 11058 O 1081.26 4.37899 0.132823 0
M  V30 11059 C 1082.76 4.00637 1.8975 0
M  V30 11060 H 1079.98 0.656073 0.140744 0
M  V30 11061 H 1082.53 2.03337 -0.217742 0
M  V30 11062 H 1080.68 3.40101 1.85499 0
M  V30 11063 H 1081.1 5.21253 0.582682 0
M  V30 11064 H 1082.57 5.02592 2.28266 0
M  V30 11065 H 1083.05 3.40313 2.7764 0
M  V30 11066 H 1083.65 4.06764 1.2419 0
M  V30 11067 N 1081.97 -0.145205 1.5693 0
M  V30 11068 C 1082.93 -1.16316 1.97492 0
M  V30 11069 C 1083.93 -1.35764 0.861668 0
M  V30 11070 O 1085.12 -1.32726 1.12825 0
M  V30 11071 C 1082.25 -2.52311 2.29242 0
M  V30 11072 H 1083.45 -0.815138 2.8861 0
M  V30 11073 H 1081 -0.38861 1.51392 0
M  V30 11074 H 1081.74 -2.92081 1.40922 0
M  V30 11075 H 1081.52 -2.39555 3.10412 0
M  V30 11076 H 1083.01 -3.25624 2.61456 0
M  V30 11077 N 1083.45 -1.52049 -0.414609 0
M  V30 11078 C 1084.67 -1.6997 -1.18848 0
M  V30 11079 C 1085.1 -0.406058 -1.83665 0
M  V30 11080 O 1084.46 0.635981 -1.69779 0
M  V30 11081 C 1084.5 -2.8327 -2.23138 0
M  V30 11082 O 1083.61 -2.48457 -3.29155 0
M  V30 11083 H 1082.95 -0.566003 -0.347183 0
M  V30 11084 H 1085.48 -1.98726 -0.486757 0
M  V30 11085 H 1085.49 -3.08022 -2.67557 0
M  V30 11086 H 1084.16 -3.7713 -1.75344 0
M  V30 11087 H 1082.74 -2.34357 -2.90054 0
M  V30 11088 N 1084.93 0.6715 -1.42579 0
M  V30 11089 C 1086.15 1.46471 -1.46836 0
M  V30 11090 C 1086.58 1.87921 -0.0820658 0
M  V30 11091 O 1085.93 1.5621 0.920217 0
M  V30 11092 C 1085.98 2.68796 -2.40377 0
M  V30 11093 O 1085.09 3.67188 -1.87741 0
M  V30 11094 H 1084.43 0.439901 -0.497376 0
M  V30 11095 H 1086.96 0.823342 -1.87303 0
M  V30 11096 H 1086.97 3.16828 -2.57068 0
M  V30 11097 H 1085.64 2.37967 -3.41093 0
M  V30 11098 H 1084.22 3.26237 -1.80621 0
M  V30 11099 N 1086.4 1.28806 0.908124 0
M  V30 11100 C 1087.65 1.16287 1.65781 0
M  V30 11101 C 1087.98 -0.287389 1.92365 0
M  V30 11102 O 1087.23 -1.22491 1.52625 0
M  V30 11103 C 1087.53 1.91267 3.01914 0
M  V30 11104 C 1087.2 3.41033 2.9497 0
M  V30 11105 C 1085.86 3.81879 2.92783 0
M  V30 11106 C 1088.21 4.36507 2.848 0
M  V30 11107 C 1085.54 5.16529 2.78235 0
M  V30 11108 C 1087.89 5.71237 2.71792 0
M  V30 11109 C 1086.56 6.11351 2.67967 0
M  V30 11110 H 1085.83 0.425526 0.606637 0
M  V30 11111 H 1088.47 1.59646 1.05762 0
M  V30 11112 H 1086.78 1.40474 3.65752 0
M  V30 11113 H 1088.48 1.78992 3.58835 0
M  V30 11114 H 1085.07 3.08561 2.97469 0
M  V30 11115 H 1089.25 4.05909 2.85573 0
M  V30 11116 H 1084.51 5.4673 2.73672 0
M  V30 11117 H 1088.68 6.44872 2.62892 0
M  V30 11118 H 1086.31 7.15637 2.56451 0
M  V30 11119 N 1087.88 -1.11734 1.11145 0
M  V30 11120 C 1089.13 -1.83677 0.859684 0
M  V30 11121 C 1089.46 -1.84265 -0.613182 0
M  V30 11122 O 1088.74 -1.29351 -1.45254 0
M  V30 11123 C 1089.02 -3.31003 1.41805 0
M  V30 11124 C 1088.87 -3.38827 2.95831 0
M  V30 11125 C 1090.19 -4.26984 1.06645 0
M  V30 11126 H 1087.31 -0.666879 0.313754 0
M  V30 11127 H 1089.95 -1.31038 1.37583 0
M  V30 11128 H 1088.1 -3.75961 0.979054 0
M  V30 11129 H 1089.77 -3.02451 3.48312 0
M  V30 11130 H 1088.02 -2.79143 3.32056 0
M  V30 11131 H 1088.69 -4.42508 3.29986 0
M  V30 11132 H 1091.16 -3.9019 1.44537 0
M  V30 11133 H 1090.04 -5.2846 1.48394 0
M  V30 11134 H 1090.3 -4.42094 -0.0231866 0
M  V30 11135 N 1089.36 -0.901303 -1.29284 0
M  V30 11136 C 1090.61 -0.528826 -1.95784 0
M  V30 11137 C 1090.94 0.922833 -1.70873 0
M  V30 11138 O 1090.21 1.65448 -1.0226 0
M  V30 11139 C 1090.5 -0.823793 -3.50551 0
M  V30 11140 C 1090.35 -2.32727 -3.84913 0
M  V30 11141 C 1091.67 -0.311382 -4.38997 0
M  V30 11142 H 1088.79 -0.193604 -0.711116 0
M  V30 11143 H 1091.43 -1.12828 -1.52872 0
M  V30 11144 H 1089.58 -0.313612 -3.87232 0
M  V30 11145 H 1091.25 -2.90712 -3.58168 0
M  V30 11146 H 1089.49 -2.78735 -3.32399 0
M  V30 11147 H 1090.17 -2.48423 -4.9294 0
M  V30 11148 H 1092.64 -0.748265 -4.09317 0
M  V30 11149 H 1091.52 -0.546957 -5.46168 0
M  V30 11150 H 1091.78 0.787959 -4.35021 0
M  V30 11151 N 1090.84 1.42931 -0.663954 0
M  V30 11152 C 1092.06 2.06544 -0.188201 0
M  V30 11153 C 1092.49 1.495 1.14155 0
M  V30 11154 O 1091.85 0.609164 1.7076 0
M  V30 11155 C 1091.89 3.60393 -0.122105 0
M  V30 11156 O 1091 4.02176 0.91258 0
M  V30 11157 H 1090.34 0.656458 -0.0997967 0
M  V30 11158 H 1092.87 1.83253 -0.909909 0
M  V30 11159 H 1092.88 4.07959 0.0576568 0
M  V30 11160 H 1091.55 4.01287 -1.09276 0
M  V30 11161 H 1090.13 3.6618 0.704738 0
M  V30 11162 N 1092.32 0.406567 1.52266 0
M  V30 11163 C 1093.56 -0.1627 2.02748 0
M  V30 11164 C 1093.92 -1.43022 1.28695 0
M  V30 11165 O 1093.21 -1.87715 0.383881 0
M  V30 11166 C 1093.4 -0.467124 3.54334 0
M  V30 11167 C 1093.23 0.76934 4.4307 0
M  V30 11168 C 1092 1.29377 4.88456 0
M  V30 11169 C 1094.2 1.64671 4.87225 0
M  V30 11170 N 1092.18 2.48599 5.61313 0
M  V30 11171 C 1093.55 2.68519 5.58836 0
M  V30 11172 C 1095.61 1.66477 4.69244 0
M  V30 11173 C 1094.31 3.74081 6.14374 0
M  V30 11174 C 1096.34 2.70956 5.25677 0
M  V30 11175 C 1095.7 3.73525 5.97209 0
M  V30 11176 H 1091.8 -0.0211706 0.781713 0
M  V30 11177 H 1094.38 0.560338 1.86463 0
M  V30 11178 H 1092.55 -1.15921 3.70698 0
M  V30 11179 H 1094.29 -1.02505 3.91503 0
M  V30 11180 H 1091.04 0.85219 4.6587 0
M  V30 11181 H 1091.46 3.0897 6.02384 0
M  V30 11182 H 1096.11 0.88519 4.1343 0
M  V30 11183 H 1093.82 4.52896 6.69261 0
M  V30 11184 H 1097.41 2.73258 5.13635 0
M  V30 11185 H 1096.29 4.53043 6.40095 0
M  V30 11186 N 1093.79 -1.57004 0.136909 0
M  V30 11187 C 1095.04 -1.96087 -0.517477 0
M  V30 11188 C 1095.37 -1.0213 -1.65176 0
M  V30 11189 O 1094.65 -0.0617958 -1.94402 0
M  V30 11190 C 1094.93 -3.44958 -1.03323 0
M  V30 11191 C 1094.78 -4.49691 0.0988609 0
M  V30 11192 C 1096.1 -3.96091 -1.91832 0
M  V30 11193 H 1093.22 -0.712978 -0.186632 0
M  V30 11194 H 1095.86 -1.88767 0.216095 0
M  V30 11195 H 1094.01 -3.51327 -1.65836 0
M  V30 11196 H 1095.69 -4.55409 0.734847 0
M  V30 11197 H 1093.93 -4.271 0.75947 0
M  V30 11198 H 1094.6 -5.51165 -0.303554 0
M  V30 11199 H 1097.08 -3.92139 -1.39164 0
M  V30 11200 H 1095.95 -5.00742 -2.24831 0
M  V30 11201 H 1096.21 -3.37846 -2.85153 0
M  V30 11202 N 1095.27 0.136881 -1.57004 0
M  V30 11203 C 1096.5 0.866405 -1.88436 0
M  V30 11204 C 1096.92 1.73483 -0.727006 0
M  V30 11205 O 1096.28 1.78398 0.323094 0
M  V30 11206 C 1096.33 1.69059 -3.18514 0
M  V30 11207 O 1095.43 2.79584 -3.03161 0
M  V30 11208 H 1094.77 0.240709 -0.618834 0
M  V30 11209 H 1097.3 0.124653 -2.0422 0
M  V30 11210 H 1097.31 2.08353 -3.50789 0
M  V30 11211 H 1095.99 1.05296 -4.0235 0
M  V30 11212 H 1094.57 2.43623 -2.82315 0
M  V30 11213 N 1096.75 1.52266 0.40654 0
M  V30 11214 C 1097.71 1.75168 1.47814 0
M  V30 11215 C 1098.71 0.621575 1.48301 0
M  V30 11216 O 1099.9 0.889476 1.4978 0
M  V30 11217 C 1097.04 1.83642 2.87208 0
M  V30 11218 H 1098.23 2.70834 1.28798 0
M  V30 11219 H 1095.78 1.42722 0.637196 0
M  V30 11220 H 1096.52 0.898994 3.1159 0
M  V30 11221 H 1096.3 2.65801 2.88257 0
M  V30 11222 H 1097.79 2.03093 3.64888 0
M  V30 11223 N 1098.23 -0.663929 1.42933 0
M  V30 11224 C 1099.45 -1.45691 1.47611 0
M  V30 11225 C 1099.88 -1.87875 0.0920305 0
M  V30 11226 O 1099.24 -1.56696 -0.91192 0
M  V30 11227 C 1099.28 -2.67517 2.41799 0
M  V30 11228 O 1098.39 -3.66187 1.89686 0
M  V30 11229 H 1097.73 -0.437257 0.499702 0
M  V30 11230 H 1100.26 -0.813397 1.87737 0
M  V30 11231 H 1100.27 -3.1546 2.58745 0
M  V30 11232 H 1098.94 -2.36155 3.4235 0
M  V30 11233 H 1097.52 -3.25274 1.82349 0
M  V30 11234 N 1099.71 -1.29285 -0.901281 0
M  V30 11235 C 1100.98 -1.07847 -1.63182 0
M  V30 11236 C 1101.36 0.377927 -2.07689 0
M  V30 11237 O 1100.71 1.36642 -1.83143 0
M  V30 11238 C 1100.92 -2.06457 -2.81383 0
M  V30 11239 C 1102.27 -2.37289 -3.52107 0
M  V30 11240 O 1103.29 -2.0464 -2.91549 0
M  V30 11241 O 1102.15 -2.93067 -4.61274 0
M  V30 11242 H 1099.25 -0.413073 -0.71645 0
M  V30 11243 H 1101.79 -1.40651 -0.949488 0
M  V30 11244 H 1100.56 -3.04561 -2.4568 0
M  V30 11245 H 1100.19 -1.74374 -3.57323 0
M  V30 11246 N 1101.18 1.11143 -1.11736 0
M  V30 11247 C 1102.41 1.86745 -0.890727 0
M  V30 11248 C 1102.83 1.80315 0.55964 0
M  V30 11249 O 1102.18 1.18663 1.38656 0
M  V30 11250 C 1102.24 3.35436 -1.34779 0
M  V30 11251 O 1101.96 3.41738 -2.74129 0
M  V30 11252 C 1103.46 4.27935 -1.15702 0
M  V30 11253 H 1100.68 0.59044 -0.318781 0
M  V30 11254 H 1103.22 1.40549 -1.48547 0
M  V30 11255 H 1101.38 3.79125 -0.796425 0
M  V30 11256 H 1101.79 4.34347 -2.94012 0
M  V30 11257 H 1103.26 5.30494 -1.52579 0
M  V30 11258 H 1103.74 4.39093 -0.0968735 0
M  V30 11259 H 1104.35 3.90042 -1.69551 0
M  V30 11260 N 1102.66 0.908147 1.28804 0
M  V30 11261 C 1103.91 0.539201 1.95501 0
M  V30 11262 C 1104.24 -0.913759 1.7136 0
M  V30 11263 O 1103.52 -1.64904 1.03136 0
M  V30 11264 C 1103.8 0.842372 3.50109 0
M  V30 11265 C 1103.65 2.34765 3.83673 0
M  V30 11266 C 1104.97 0.334658 4.38826 0
M  V30 11267 H 1102.09 0.197373 0.71008 0
M  V30 11268 H 1104.73 1.13637 1.52272 0
M  V30 11269 H 1102.88 0.334143 3.8706 0
M  V30 11270 H 1104.55 2.92607 3.56621 0
M  V30 11271 H 1102.8 2.80494 3.30916 0
M  V30 11272 H 1103.47 2.51034 4.91616 0
M  V30 11273 H 1105.94 0.769961 4.08914 0
M  V30 11274 H 1104.82 0.575914 5.4587 0
M  V30 11275 H 1105.08 -0.764878 4.35433 0
M  V30 11276 N 1104.14 -1.42577 0.671525 0
M  V30 11277 C 1105.37 -2.06442 0.199152 0
M  V30 11278 C 1105.79 -1.50104 -1.1336 0
M  V30 11279 O 1105.15 -0.618211 -1.70434 0
M  V30 11280 C 1105.2 -3.60323 0.141215 0
M  V30 11281 O 1104.3 -4.02655 -0.891238 0
M  V30 11282 H 1103.64 -0.655919 0.103277 0
M  V30 11283 H 1106.17 -1.82768 0.919614 0
M  V30 11284 H 1106.18 -4.07984 -0.0360209 0
M  V30 11285 H 1104.86 -4.00702 1.11403 0
M  V30 11286 H 1103.43 -3.66549 -0.685309 0
M  V30 11287 N 1105.62 -0.414636 -1.52048 0
M  V30 11288 C 1106.87 0.159034 -2.01473 0
M  V30 11289 C 1107.19 1.45176 -1.30188 0
M  V30 11290 O 1106.46 1.91134 -0.429469 0
M  V30 11291 H 1105.04 0.0617604 -0.744443 0
M  V30 11292 H 1107.7 -0.552141 -1.86916 0
M  V30 11293 H 1106.8 0.351217 -3.10118 0
M  V30 11294 N 1107.1 1.56929 -0.145233 0
M  V30 11295 C 1108.34 1.96068 0.50632 0
M  V30 11296 C 1108.67 1.02999 1.64989 0
M  V30 11297 O 1107.93 0.0588581 1.95611 0
M  V30 11298 C 1108.23 3.41467 1.05522 0
M  V30 11299 C 1107.89 4.5089 0.0302827 0
M  V30 11300 C 1106.55 4.80542 -0.251475 0
M  V30 11301 C 1108.91 5.16917 -0.666783 0
M  V30 11302 C 1106.23 5.7353 -1.23614 0
M  V30 11303 C 1108.59 6.10965 -1.64025 0
M  V30 11304 C 1107.25 6.38998 -1.92973 0
M  V30 11305 H 1106.52 0.717464 0.185276 0
M  V30 11306 H 1109.17 1.90093 -0.23169 0
M  V30 11307 H 1107.47 3.44265 1.87053 0
M  V30 11308 H 1109.17 3.69077 1.5679 0
M  V30 11309 H 1105.76 4.2781 0.260069 0
M  V30 11310 H 1109.94 4.94142 -0.462297 0
M  V30 11311 H 1105.2 5.93543 -1.46687 0
M  V30 11312 H 1109.37 6.61204 -2.18591 0
M  V30 11313 H 1107 7.10855 -2.69423 0
M  V30 11314 N 1108.58 -0.128553 1.57075 0
M  V30 11315 C 1109.99 -0.481794 1.52154 0
M  V30 11316 C 1110.19 -1.82381 0.856694 0
M  V30 11317 O 1109.25 -2.48725 0.434989 0
M  V30 11318 C 1110.56 -0.475091 2.96923 0
M  V30 11319 C 1112.11 -0.559315 3.07962 0
M  V30 11320 C 1112.58 -0.583095 4.54273 0
M  V30 11321 N 1114.07 -0.644803 4.5869 0
M  V30 11322 C 1114.81 -0.684493 5.693 0
M  V30 11323 N 1114.31 -0.682407 6.89431 0
M  V30 11324 N 1116.1 -0.726777 5.57382 0
M  V30 11325 H 1108.25 0.750894 1.98684 0
M  V30 11326 H 1110.51 0.27593 0.906955 0
M  V30 11327 H 1110.22 0.443157 3.48897 0
M  V30 11328 H 1110.09 -1.30637 3.53856 0
M  V30 11329 H 1112.48 -1.46798 2.55997 0
M  V30 11330 H 1112.56 0.299468 2.54041 0
M  V30 11331 H 1112.2 0.32149 5.06881 0
M  V30 11332 H 1112.13 -1.45863 5.05996 0
M  V30 11333 H 1114.63 -0.652967 3.72216 0
M  V30 11334 H 1114.94 -0.715051 7.69485 0
M  V30 11335 H 1113.28 -0.649984 6.91954 0
M  V30 11336 H 1116.47 -0.725704 4.6244 0
M  V30 11337 H 1116.65 -0.754242 6.43596 0
M  V30 11338 N 1110.05 -1.5248 -0.398459 0
M  V30 11339 C 1111.3 -1.67309 -1.1461 0
M  V30 11340 C 1111.63 -0.407095 -1.89885 0
M  V30 11341 O 1110.91 0.594834 -1.85181 0
M  V30 11342 C 1111.19 -2.90204 -2.13198 0
M  V30 11343 C 1111.04 -4.26881 -1.4175 0
M  V30 11344 C 1112.36 -3.08634 -3.13741 0
M  V30 11345 H 1109.48 -0.608853 -0.415292 0
M  V30 11346 H 1112.12 -1.85057 -0.430573 0
M  V30 11347 H 1110.27 -2.75204 -2.74218 0
M  V30 11348 H 1111.95 -4.53631 -0.837676 0
M  V30 11349 H 1110.19 -4.27793 -0.719387 0
M  V30 11350 H 1110.86 -5.08939 -2.1374 0
M  V30 11351 H 1113.34 -3.22603 -2.62805 0
M  V30 11352 H 1112.21 -3.96117 -3.79977 0
M  V30 11353 H 1112.47 -2.22425 -3.82073 0
M  V30 11354 N 1111.53 0.65634 -1.43283 0
M  V30 11355 C 1112.44 1.79847 -1.50639 0
M  V30 11356 C 1113.46 1.69487 -0.393714 0
M  V30 11357 O 1114.63 1.90712 -0.647379 0
M  V30 11358 C 1111.7 3.16107 -1.42398 0
M  V30 11359 C 1110.76 3.38287 -2.64312 0
M  V30 11360 C 1109.99 4.68046 -2.56454 0
M  V30 11361 O 1110.22 5.4719 -1.61056 0
M  V30 11362 O 1109.15 4.91877 -3.46902 0
M  V30 11363 H 1112.98 1.76596 -2.47078 0
M  V30 11364 H 1110.56 0.814428 -1.25249 0
M  V30 11365 H 1112.44 3.97382 -1.40233 0
M  V30 11366 H 1111.12 3.19956 -0.490929 0
M  V30 11367 H 1110.02 2.56788 -2.72049 0
M  V30 11368 H 1111.36 3.39282 -3.56579 0
M  V30 11369 N 1113.01 1.29761 0.894412 0
M  V30 11370 C 1114.24 1.20765 1.67629 0
M  V30 11371 C 1114.65 -0.233434 1.87754 0
M  V30 11372 O 1113.99 -1.16747 1.4183 0
M  V30 11373 C 1114.05 1.85542 3.07919 0
M  V30 11374 C 1113.72 3.34852 3.11004 0
M  V30 11375 C 1114.71 4.30994 2.90758 0
M  V30 11376 C 1112.4 3.76141 3.32901 0
M  V30 11377 C 1114.39 5.664 2.92352 0
M  V30 11378 C 1112.08 5.11667 3.34126 0
M  V30 11379 C 1113.08 6.06607 3.13874 0
M  V30 11380 O 1112.77 7.39659 3.14897 0
M  V30 11381 H 1112.5 0.419418 0.530155 0
M  V30 11382 H 1115.05 1.71754 1.12648 0
M  V30 11383 H 1113.28 1.29071 3.64524 0
M  V30 11384 H 1114.97 1.70795 3.68217 0
M  V30 11385 H 1115.74 4.00427 2.73648 0
M  V30 11386 H 1111.62 3.02694 3.47703 0
M  V30 11387 H 1115.16 6.40479 2.76464 0
M  V30 11388 H 1111.06 5.41877 3.50769 0
M  V30 11389 H 1111.82 7.4853 3.31127 0
M  V30 11390 N 1114.49 -1.10549 1.12324 0
M  V30 11391 C 1115.4 -2.20428 0.803032 0
M  V30 11392 C 1116.41 -1.72756 -0.207674 0
M  V30 11393 O 1117.59 -2.01357 -0.0415623 0
M  V30 11394 C 1114.65 -3.45716 0.261032 0
M  V30 11395 C 1113.72 -4.08129 1.33152 0
M  V30 11396 C 1112.95 -5.27436 0.815288 0
M  V30 11397 O 1113.17 -5.69317 -0.351361 0
M  V30 11398 O 1112.11 -5.80674 1.58434 0
M  V30 11399 H 1115.93 -2.50249 1.72073 0
M  V30 11400 H 1113.52 -1.19263 0.899815 0
M  V30 11401 H 1115.4 -4.21384 -0.0364007 0
M  V30 11402 H 1114.07 -3.17525 -0.629249 0
M  V30 11403 H 1112.98 -3.3415 1.6821 0
M  V30 11404 H 1114.31 -4.4052 2.19552 0
M  V30 11405 N 1115.97 -0.914965 -1.28321 0
M  V30 11406 C 1116.9 -0.421292 -2.29668 0
M  V30 11407 C 1117.88 0.511743 -1.6222 0
M  V30 11408 O 1119.06 0.419218 -1.89621 0
M  V30 11409 C 1116.19 0.338364 -3.45648 0
M  V30 11410 C 1115.15 -0.505646 -4.25003 0
M  V30 11411 C 1114.47 0.382421 -5.33331 0
M  V30 11412 C 1115.77 -1.76354 -4.91626 0
M  V30 11413 H 1117.47 -1.26826 -2.71211 0
M  V30 11414 H 1115.01 -0.611291 -1.30381 0
M  V30 11415 H 1116.96 0.694578 -4.15636 0
M  V30 11416 H 1115.69 1.21925 -3.02988 0
M  V30 11417 H 1114.35 -0.844395 -3.56743 0
M  V30 11418 H 1114 1.26189 -4.86914 0
M  V30 11419 H 1113.7 -0.17871 -5.87328 0
M  V30 11420 H 1115.22 0.73449 -6.06166 0
M  V30 11421 H 1116.63 -1.47616 -5.5397 0
M  V30 11422 H 1115.03 -2.26717 -5.55625 0
M  V30 11423 H 1116.1 -2.49063 -4.16048 0
M  V30 11424 N 1117.44 1.42219 -0.679077 0
M  V30 11425 C 1118.67 2.06333 -0.210097 0
M  V30 11426 C 1119.09 1.50703 1.12562 0
M  V30 11427 O 1118.45 0.627241 1.70104 0
M  V30 11428 C 1118.5 3.60243 -0.160322 0
M  V30 11429 O 1117.6 4.03122 0.869872 0
M  V30 11430 H 1116.94 0.655362 -0.106754 0
M  V30 11431 H 1119.47 1.82278 -0.929294 0
M  V30 11432 H 1119.48 4.07997 0.014384 0
M  V30 11433 H 1118.16 4.00106 -1.13526 0
M  V30 11434 H 1116.74 3.66907 0.66586 0
M  V30 11435 N 1118.92 0.422693 1.51826 0
M  V30 11436 C 1119.83 -0.40261 2.31119 0
M  V30 11437 C 1120.85 -1.04117 1.39412 0
M  V30 11438 O 1122.02 -1.03973 1.72486 0
M  V30 11439 C 1119.09 -1.49699 3.12716 0
M  V30 11440 C 1118.15 -0.880088 4.20182 0
M  V30 11441 C 1117.38 -1.92232 4.97878 0
M  V30 11442 O 1117.61 -3.14246 4.76031 0
M  V30 11443 O 1116.54 -1.521 5.82365 0
M  V30 11444 H 1120.37 0.244308 3.02716 0
M  V30 11445 H 1117.95 0.185569 1.48243 0
M  V30 11446 H 1119.83 -2.13202 3.63487 0
M  V30 11447 H 1118.51 -2.12826 2.43899 0
M  V30 11448 H 1117.41 -0.207404 3.73525 0
M  V30 11449 H 1118.75 -0.292535 4.9133 0
M  V30 11450 N 1120.4 -1.5685 0.153553 0
M  V30 11451 C 1121.31 -2.20664 -0.796528 0
M  V30 11452 C 1122.33 -1.19289 -1.26674 0
M  V30 11453 O 1123.5 -1.51889 -1.32256 0
M  V30 11454 C 1120.57 -2.82088 -2.01561 0
M  V30 11455 C 1119.63 -3.9861 -1.59401 0
M  V30 11456 C 1118.86 -4.57096 -2.75498 0
M  V30 11457 O 1119.08 -4.14462 -3.9189 0
M  V30 11458 O 1118.02 -5.47254 -2.50593 0
M  V30 11459 H 1121.84 -3.02376 -0.283282 0
M  V30 11460 H 1119.43 -1.49218 -0.0737927 0
M  V30 11461 H 1121.31 -3.21103 -2.72893 0
M  V30 11462 H 1119.99 -2.03385 -2.51826 0
M  V30 11463 H 1118.89 -3.64299 -0.850725 0
M  V30 11464 H 1120.23 -4.78853 -1.13845 0
M  V30 11465 N 1121.88 0.120221 -1.57141 0
M  V30 11466 C 1123.13 0.826586 -1.84423 0
M  V30 11467 C 1123.45 1.80473 -0.738553 0
M  V30 11468 O 1122.72 1.94454 0.23755 0
M  V30 11469 H 1121.3 0.308246 -0.680436 0
M  V30 11470 H 1123.96 0.107835 -1.94601 0
M  V30 11471 H 1123.05 1.37256 -2.80298 0
M  V30 11472 N 1123.36 1.52689 0.390367 0
M  V30 11473 C 1124.63 1.58246 1.14968 0
M  V30 11474 C 1125.01 0.374808 2.07746 0
M  V30 11475 O 1124.36 -0.636969 2.19442 0
M  V30 11476 C 1124.57 2.92059 1.91056 0
M  V30 11477 C 1125.92 3.45745 2.46466 0
M  V30 11478 O 1126.94 2.93924 2.01214 0
M  V30 11479 O 1125.8 4.3628 3.29122 0
M  V30 11480 H 1122.9 0.638189 0.52597 0
M  V30 11481 H 1125.44 1.65024 0.39563 0
M  V30 11482 H 1124.21 3.71399 1.23201 0
M  V30 11483 H 1123.84 2.8866 2.73425 0
M  V30 11484 N 1124.83 -0.648732 1.43629 0
M  V30 11485 C 1125.74 -1.79046 1.51591 0
M  V30 11486 C 1126.76 -1.69276 0.402697 0
M  V30 11487 O 1127.94 -1.90366 0.657484 0
M  V30 11488 C 1125 -3.15347 1.44073 0
M  V30 11489 C 1124.06 -3.3688 2.66102 0
M  V30 11490 C 1123.3 -4.66679 2.58933 0
M  V30 11491 O 1123.52 -5.46328 1.63956 0
M  V30 11492 O 1122.45 -4.9003 3.49506 0
M  V30 11493 H 1126.28 -1.75283 2.48011 0
M  V30 11494 H 1123.86 -0.807774 1.2568 0
M  V30 11495 H 1125.75 -3.96633 1.42339 0
M  V30 11496 H 1124.42 -3.19691 0.50789 0
M  V30 11497 H 1123.33 -2.55341 2.73407 0
M  V30 11498 H 1124.66 -3.37386 3.58373 0
M  V30 11499 N 1126.31 -1.30234 -0.887518 0
M  V30 11500 C 1127.72 -1.17048 -1.45453 0
M  V30 11501 C 1128.07 0.229793 -1.9485 0
M  V30 11502 O 1127.2 1.12628 -1.84781 0
M  V30 11503 C 1127.79 -2.11876 -2.64375 0
M  V30 11504 C 1126.35 -2.02676 -3.17174 0
M  V30 11505 C 1125.5 -2.02104 -1.89866 0
M  V30 11506 H 1128.45 -1.42541 -0.697694 0
M  V30 11507 H 1128.47 -1.69811 -3.40506 0
M  V30 11508 H 1127.98 -3.13781 -2.28392 0
M  V30 11509 H 1126.09 -1.03904 -3.57819 0
M  V30 11510 H 1126.2 -2.90939 -3.80646 0
M  V30 11511 H 1124.56 -1.4687 -2.0809 0
M  V30 11512 H 1125.35 -3.05735 -1.56145 0
M  V30 11513 N 1127.79 1.09952 -1.12909 0
M  V30 11514 C 1128.72 2.16257 -0.759305 0
M  V30 11515 C 1129.74 1.61355 0.216427 0
M  V30 11516 O 1130.92 1.785 -0.00297224 0
M  V30 11517 C 1128.02 3.38741 -0.103908 0
M  V30 11518 C 1127.2 4.23072 -1.11037 0
M  V30 11519 C 1126.26 5.23991 -0.481667 0
M  V30 11520 O 1125.28 5.57665 -1.14011 0
M  V30 11521 N 1126.48 5.75652 0.748698 0
M  V30 11522 H 1129.25 2.48588 -1.67405 0
M  V30 11523 H 1126.81 1.25617 -1.02137 0
M  V30 11524 H 1128.8 4.03362 0.328799 0
M  V30 11525 H 1127.37 3.04344 0.713677 0
M  V30 11526 H 1126.59 3.5467 -1.72054 0
M  V30 11527 H 1127.88 4.76244 -1.79078 0
M  V30 11528 H 1127.28 5.505 1.30253 0
M  V30 11529 H 1125.84 6.42033 1.12415 0
M  V30 11530 N 1129.27 0.921757 1.27833 0
M  V30 11531 C 1130.5 0.574368 1.98455 0
M  V30 11532 C 1130.91 -0.850577 1.69002 0
M  V30 11533 O 1130.25 -1.57607 0.943708 0
M  V30 11534 C 1130.31 0.713235 3.52354 0
M  V30 11535 C 1129.98 2.1092 4.05415 0
M  V30 11536 C 1130.97 3.08276 4.18643 0
M  V30 11537 C 1128.66 2.42454 4.3991 0
M  V30 11538 C 1130.65 4.35279 4.6563 0
M  V30 11539 C 1128.34 3.69694 4.8659 0
M  V30 11540 C 1129.34 4.6592 4.99407 0
M  V30 11541 O 1129.02 5.90896 5.45066 0
M  V30 11542 H 1128.76 0.216955 0.640239 0
M  V30 11543 H 1131.31 1.23932 1.63798 0
M  V30 11544 H 1129.54 -0.00881115 3.86699 0
M  V30 11545 H 1131.23 0.371776 4.04194 0
M  V30 11546 H 1132 2.85234 3.92258 0
M  V30 11547 H 1127.87 1.68303 4.2918 0
M  V30 11548 H 1131.42 5.10391 4.75549 0
M  V30 11549 H 1127.32 3.92557 5.12415 0
M  V30 11550 H 1128.08 5.938 5.63333 0
M  V30 11551 N 1130.75 -1.41857 0.686609 0
M  V30 11552 C 1131.68 -2.33481 0.0298353 0
M  V30 11553 C 1132.66 -1.51329 -0.776756 0
M  V30 11554 O 1133.84 -1.79895 -0.731535 0
M  V30 11555 C 1130.97 -3.35065 -0.913707 0
M  V30 11556 C 1129.93 -4.2746 -0.214861 0
M  V30 11557 C 1129.25 -5.19346 -1.27215 0
M  V30 11558 C 1130.55 -5.14252 0.913367 0
M  V30 11559 H 1132.25 -2.8865 0.795067 0
M  V30 11560 H 1129.79 -1.38792 0.383785 0
M  V30 11561 H 1131.75 -3.98082 -1.38234 0
M  V30 11562 H 1130.47 -2.78226 -1.7105 0
M  V30 11563 H 1129.13 -3.65855 0.233651 0
M  V30 11564 H 1128.78 -4.58827 -2.06124 0
M  V30 11565 H 1128.48 -5.81996 -0.80961 0
M  V30 11566 H 1130 -5.85239 -1.74147 0
M  V30 11567 H 1131.41 -5.70887 0.525424 0
M  V30 11568 H 1129.81 -5.85796 1.30244 0
M  V30 11569 H 1130.88 -4.51949 1.75699 0
M  V30 11570 N 1132.22 -0.430739 -1.51599 0
M  V30 11571 C 1133.5 0.197543 -1.946 0
M  V30 11572 C 1133.88 1.6069 -1.36901 0
M  V30 11573 O 1133.23 2.21697 -0.553422 0
M  V30 11574 C 1133.44 0.181976 -3.48525 0
M  V30 11575 C 1134.79 0.390783 -4.22798 0
M  V30 11576 O 1135.81 0.260384 -3.55247 0
M  V30 11577 O 1134.67 0.649701 -5.42624 0
M  V30 11578 H 1131.76 0.133524 -0.81615 0
M  V30 11579 H 1134.31 -0.488243 -1.62525 0
M  V30 11580 H 1133.08 -0.803584 -3.8296 0
M  V30 11581 H 1132.71 0.910952 -3.87024 0
M  V30 11582 N 1133.7 1.56767 -0.161869 0
M  V30 11583 C 1134.63 2.20511 0.767918 0
M  V30 11584 C 1135.61 1.15783 1.24612 0
M  V30 11585 O 1136.8 1.44179 1.301 0
M  V30 11586 C 1133.93 2.83844 2.00125 0
M  V30 11587 C 1132.88 3.94528 1.65926 0
M  V30 11588 C 1132.21 4.44866 2.96646 0
M  V30 11589 C 1133.51 5.14583 0.894497 0
M  V30 11590 H 1135.2 2.98464 0.236607 0
M  V30 11591 H 1132.75 1.43561 0.112363 0
M  V30 11592 H 1134.7 3.27109 2.65664 0
M  V30 11593 H 1133.43 2.03246 2.55654 0
M  V30 11594 H 1132.08 3.51904 1.02759 0
M  V30 11595 H 1131.73 3.61071 3.50196 0
M  V30 11596 H 1131.43 5.19531 2.74521 0
M  V30 11597 H 1132.96 4.90812 3.6323 0
M  V30 11598 H 1134.37 5.54601 1.45228 0
M  V30 11599 H 1132.77 5.95105 0.772636 0
M  V30 11600 H 1133.84 4.84773 -0.110986 0
M  V30 11601 N 1135.18 -0.111886 1.57202 0
M  V30 11602 C 1136.59 -0.668261 1.74331 0
M  V30 11603 C 1136.94 -1.79959 0.781609 0
M  V30 11604 O 1136.07 -2.16356 -0.043833 0
M  V30 11605 C 1136.66 -1.219 3.1611 0
M  V30 11606 C 1135.22 -1.7216 3.34721 0
M  V30 11607 C 1134.37 -0.624223 2.70183 0
M  V30 11608 H 1137.32 0.114081 1.58289 0
M  V30 11609 H 1137.34 -2.08858 3.18054 0
M  V30 11610 H 1136.85 -0.395381 3.86081 0
M  V30 11611 H 1134.95 -2.56976 2.69803 0
M  V30 11612 H 1135.07 -1.82615 4.42932 0
M  V30 11613 H 1133.43 -1.05958 2.31614 0
M  V30 11614 H 1134.21 0.188537 3.42782 0
M  V30 11615 N 1136.66 -1.52894 -0.382264 0
M  V30 11616 C 1137.88 -1.72453 -1.15216 0
M  V30 11617 C 1138.31 -0.444925 -1.82762 0
M  V30 11618 O 1137.67 0.599825 -1.7109 0
M  V30 11619 C 1137.71 -2.87939 -2.17079 0
M  V30 11620 O 1136.82 -2.55383 -3.23811 0
M  V30 11621 H 1136.16 -0.57324 -0.335099 0
M  V30 11622 H 1138.69 -1.99713 -0.444495 0
M  V30 11623 H 1138.7 -3.13628 -2.60963 0
M  V30 11624 H 1137.37 -3.80765 -1.67305 0
M  V30 11625 H 1135.95 -2.40457 -2.85018 0
M  V30 11626 N 1138.14 0.641106 -1.43971 0
M  V30 11627 C 1139.37 1.42829 -1.49692 0
M  V30 11628 C 1139.78 1.88427 -0.118594 0
M  V30 11629 O 1139.14 1.60234 0.873581 0
M  V30 11630 C 1139.19 2.65524 -2.45314 0
M  V30 11631 O 1138.91 2.2183 -3.77787 0
M  V30 11632 C 1140.41 3.58758 -2.60399 0
M  V30 11633 H 1137.63 0.438367 -0.508011 0
M  V30 11634 H 1140.17 0.784933 -1.88836 0
M  V30 11635 H 1138.33 3.25973 -2.09332 0
M  V30 11636 H 1138.74 3.01303 -4.29321 0
M  V30 11637 H 1140.22 4.41483 -3.31357 0
M  V30 11638 H 1140.69 4.06909 -1.65294 0
M  V30 11639 H 1141.3 3.04184 -2.97241 0
M  V30 11640 N 1139.62 1.30703 0.880598 0
M  V30 11641 C 1140.58 1.17429 1.96832 0
M  V30 11642 C 1141.58 0.104305 1.60461 0
M  V30 11643 O 1142.77 0.352758 1.70591 0
M  V30 11644 C 1139.9 0.800099 3.31378 0
M  V30 11645 H 1141.09 2.14069 2.10034 0
M  V30 11646 H 1138.65 1.14162 1.06755 0
M  V30 11647 H 1139.38 -0.165606 3.23877 0
M  V30 11648 H 1139.17 1.57341 3.59146 0
M  V30 11649 H 1140.66 0.730826 4.11155 0
M  V30 11650 N 1141.09 -1.09351 1.1349 0
M  V30 11651 C 1142.32 -1.85304 0.920324 0
M  V30 11652 C 1142.74 -1.81182 -0.530883 0
M  V30 11653 O 1142.09 -1.20853 -1.36751 0
M  V30 11654 C 1142.14 -3.33249 1.40098 0
M  V30 11655 O 1141.87 -3.37333 2.79531 0
M  V30 11656 C 1143.37 -4.2604 1.22495 0
M  V30 11657 H 1140.59 -0.585294 0.328134 0
M  V30 11658 H 1143.13 -1.38168 1.50765 0
M  V30 11659 H 1141.29 -3.7781 0.85664 0
M  V30 11660 H 1141.7 -4.29614 3.00885 0
M  V30 11661 H 1143.17 -5.27999 1.61 0
M  V30 11662 H 1143.65 -4.38883 0.166717 0
M  V30 11663 H 1144.26 -3.87295 1.75735 0
M  V30 11664 N 1142.57 -0.928524 -1.27343 0
M  V30 11665 C 1143.8 -0.58516 -1.98974 0
M  V30 11666 C 1144.22 0.829964 -1.68799 0
M  V30 11667 O 1143.58 1.55705 -0.928738 0
M  V30 11668 C 1143.63 -0.818662 -3.51184 0
M  V30 11669 O 1142.73 0.115355 -4.12239 0
M  V30 11670 H 1142.07 -0.225203 -0.624644 0
M  V30 11671 H 1144.6 -1.248 -1.6213 0
M  V30 11672 H 1144.61 -0.734554 -4.01333 0
M  V30 11673 H 1143.29 -1.8502 -3.72479 0
M  V30 11674 H 1141.86 -0.0187371 -3.72895 0
M  V30 11675 N 1144.05 1.41491 -0.694123 0
M  V30 11676 C 1145.3 2.0155 -0.224809 0
M  V30 11677 C 1145.63 1.54844 1.17205 0
M  V30 11678 O 1144.9 0.75899 1.7908 0
M  V30 11679 C 1145.19 3.59003 -0.280884 0
M  V30 11680 C 1145.04 4.15839 -1.71458 0
M  V30 11681 C 1146.36 4.38624 0.360122 0
M  V30 11682 H 1143.48 0.732293 -0.0831632 0
M  V30 11683 H 1146.12 1.68258 -0.882569 0
M  V30 11684 H 1144.27 3.87496 0.279164 0
M  V30 11685 H 1145.94 3.98227 -2.32837 0
M  V30 11686 H 1144.18 3.70936 -2.2492 0
M  V30 11687 H 1144.86 5.24997 -1.70536 0
M  V30 11688 H 1147.33 4.15936 -0.11683 0
M  V30 11689 H 1146.21 5.48132 0.290337 0
M  V30 11690 H 1146.47 4.1797 1.44062 0
M  V30 11691 N 1145.53 0.438773 1.51369 0
M  V30 11692 C 1146.48 -0.386324 2.29369 0
M  V30 11693 C 1147.47 -1.0196 1.3528 0
M  V30 11694 O 1148.68 -0.9544 1.52615 0
M  V30 11695 H 1145.05 -0.143397 0.738201 0
M  V30 11696 H 1147.02 0.292372 2.96964 0
M  V30 11697 C 1145.77 -1.47426 3.14898 0
M  V30 11698 H 1145.09 -0.996335 3.87186 0
M  V30 11699 H 1146.53 -2.02481 3.72529 0
M  V30 11700 C 1144.99 -2.45831 2.30366 0
M  V30 11701 O 1145.52 -3.50398 1.96428 0
M  V30 11702 N 1143.73 -2.16754 1.93561 0
M  V30 11703 H 1143.28 -1.31748 2.2136 0
M  V30 11704 H 1143.23 -2.82836 1.373 0
M  V30 11705 N 1147.01 -1.56678 0.170181 0
M  V30 11706 C 1148.25 -1.96024 -0.475147 0
M  V30 11707 C 1148.57 -1.0588 -1.64465 0
M  V30 11708 O 1149.77 -1.34901 -2.35614 0
M  V30 11709 C 1148.23 -3.4855 -0.896704 0
M  V30 11710 C 1147.84 -4.47318 0.247142 0
M  V30 11711 C 1149.58 -3.96716 -1.51052 0
M  V30 11712 C 1147.49 -5.91082 -0.193982 0
M  V30 11713 H 1146.42 -0.731883 -0.181282 0
M  V30 11714 H 1149.07 -1.81674 0.25823 0
M  V30 11715 H 1147.45 -3.58314 -1.68603 0
M  V30 11716 H 1148.63 -4.49268 1.02445 0
M  V30 11717 H 1146.94 -4.09203 0.770839 0
M  V30 11718 H 1149.54 -5.01581 -1.85258 0
M  V30 11719 H 1149.88 -3.39588 -2.40802 0
M  V30 11720 H 1150.41 -3.89965 -0.785652 0
M  V30 11721 H 1147.15 -6.5208 0.668714 0
M  V30 11722 H 1146.67 -5.92441 -0.936675 0
M  V30 11723 H 1148.35 -6.43844 -0.638237 0
M  V30 11724 N 1148.48 0.103547 -1.57259 0
M  V30 11725 C 1149.89 0.659006 -1.74683 0
M  V30 11726 C 1150.25 1.79542 -0.791142 0
M  V30 11727 O 1149.37 2.16376 0.0323585 0
M  V30 11728 C 1149.97 1.20222 -3.16752 0
M  V30 11729 C 1148.52 1.70382 -3.35629 0
M  V30 11730 C 1147.67 0.609886 -2.7051 0
M  V30 11731 H 1150.62 -0.122474 -1.58227 0
M  V30 11732 H 1150.64 2.07169 -3.19157 0
M  V30 11733 H 1150.16 0.374901 -3.86285 0
M  V30 11734 H 1148.26 2.55542 -2.71162 0
M  V30 11735 H 1148.37 1.80263 -4.43894 0
M  V30 11736 H 1146.73 1.04728 -2.32173 0
M  V30 11737 H 1147.52 -0.206713 -3.42677 0
M  V30 11738 N 1149.96 1.53094 0.37415 0
M  V30 11739 C 1151.24 1.59456 1.13283 0
M  V30 11740 C 1151.62 0.396821 2.07337 0
M  V30 11741 O 1150.97 -0.613659 2.20106 0
M  V30 11742 C 1151.18 2.94069 1.87948 0
M  V30 11743 C 1152.52 3.4834 2.42785 0
M  V30 11744 O 1153.55 2.96042 1.98085 0
M  V30 11745 O 1152.41 4.39747 3.24477 0
M  V30 11746 H 1149.5 0.643731 0.519171 0
M  V30 11747 H 1152.05 1.65434 0.378105 0
M  V30 11748 H 1150.82 3.72685 1.19255 0
M  V30 11749 H 1150.44 2.91544 2.70348 0
M  V30 11750 N 1151.44 -0.633461 1.44309 0
M  V30 11751 C 1152.37 -1.75676 1.53819 0
M  V30 11752 C 1153.35 -1.65537 0.391365 0
M  V30 11753 O 1154.54 -1.84332 0.611181 0
M  V30 11754 C 1151.67 -3.14197 1.47979 0
M  V30 11755 C 1150.62 -3.39122 2.61113 0
M  V30 11756 C 1149.95 -4.77648 2.40325 0
M  V30 11757 C 1151.25 -3.31914 4.03274 0
M  V30 11758 H 1152.94 -1.67974 2.47841 0
M  V30 11759 H 1150.49 -0.8067 1.19283 0
M  V30 11760 H 1152.44 -3.92553 1.53233 0
M  V30 11761 H 1151.16 -3.22677 0.504718 0
M  V30 11762 H 1149.82 -2.63145 2.55245 0
M  V30 11763 H 1149.47 -4.82829 1.41016 0
M  V30 11764 H 1149.17 -4.95284 3.16177 0
M  V30 11765 H 1150.69 -5.58237 2.47394 0
M  V30 11766 H 1152.11 -4.00178 4.10524 0
M  V30 11767 H 1150.5 -3.61085 4.7931 0
M  V30 11768 H 1151.57 -2.29761 4.2701 0
M  V30 11769 N 1152.92 -1.31168 -0.873655 0
M  V30 11770 C 1153.85 -1.21094 -1.99646 0
M  V30 11771 C 1154.83 -0.0989684 -1.69812 0
M  V30 11772 O 1156.01 -0.282939 -1.92128 0
M  V30 11773 C 1153.14 -0.913684 -3.35066 0
M  V30 11774 C 1152.1 -1.98482 -3.79195 0
M  V30 11775 C 1151.42 -1.54033 -5.12033 0
M  V30 11776 C 1152.72 -3.39745 -3.96699 0
M  V30 11777 H 1154.42 -2.1503 -2.08333 0
M  V30 11778 H 1151.96 -1.03521 -1.00097 0
M  V30 11779 H 1153.92 -0.829821 -4.13149 0
M  V30 11780 H 1152.64 0.0613471 -3.26542 0
M  V30 11781 H 1151.3 -2.05851 -3.03349 0
M  V30 11782 H 1150.95 -0.553261 -4.99948 0
M  V30 11783 H 1150.65 -2.25688 -5.4253 0
M  V30 11784 H 1152.17 -1.47047 -5.92629 0
M  V30 11785 H 1153.59 -3.35071 -4.65188 0
M  V30 11786 H 1151.98 -4.09585 -4.38589 0
M  V30 11787 H 1153.05 -3.80802 -3.00196 0
M  V30 11788 N 1154.4 1.08748 -1.14068 0
M  V30 11789 C 1155.81 1.62551 -0.918379 0
M  V30 11790 C 1156.16 1.8852 0.543583 0
M  V30 11791 O 1155.28 1.64007 1.41176 0
M  V30 11792 C 1155.88 2.95309 -1.66066 0
M  V30 11793 C 1154.44 3.4591 -1.48403 0
M  V30 11794 C 1153.58 2.20204 -1.6854 0
M  V30 11795 H 1156.54 0.920196 -1.29298 0
M  V30 11796 H 1156.56 3.63587 -1.12181 0
M  V30 11797 H 1156.07 2.76377 -2.72465 0
M  V30 11798 H 1154.17 3.69953 -0.443353 0
M  V30 11799 H 1154.28 4.2289 -2.25169 0
M  V30 11800 H 1152.65 2.29203 -1.11077 0
M  V30 11801 H 1153.43 2.03783 -2.76274 0
M  V30 11802 N 1155.87 0.935264 1.26849 0
M  V30 11803 C 1157.12 0.578545 1.93642 0
M  V30 11804 C 1157.44 -0.884296 1.73796 0
M  V30 11805 O 1156.71 -1.62768 1.09011 0
M  V30 11806 H 1155.29 0.210976 0.716588 0
M  V30 11807 H 1157.96 1.1893 1.54407 0
M  V30 11808 H 1157.05 0.791268 3.01903 0
M  V30 11809 N 1157.35 -1.41121 0.701616 0
M  V30 11810 C 1158.77 -1.55162 0.373766 0
M  V30 11811 C 1158.97 -1.6759 -1.11875 0
M  V30 11812 O 1158.02 -1.65768 -1.90465 0
M  V30 11813 C 1159.34 -2.78758 1.12759 0
M  V30 11814 C 1160.89 -2.92561 1.11253 0
M  V30 11815 C 1161.36 -4.19052 1.84822 0
M  V30 11816 N 1162.85 -4.26023 1.81821 0
M  V30 11817 C 1163.59 -5.22771 2.3558 0
M  V30 11818 N 1163.08 -6.25512 2.97836 0
M  V30 11819 N 1164.88 -5.14752 2.25802 0
M  V30 11820 H 1157.03 -1.31299 1.66956 0
M  V30 11821 H 1159.29 -0.633894 0.704898 0
M  V30 11822 H 1159 -2.75804 2.18231 0
M  V30 11823 H 1158.87 -3.70456 0.710095 0
M  V30 11824 H 1161.26 -2.95026 0.0660506 0
M  V30 11825 H 1161.34 -2.0202 1.56913 0
M  V30 11826 H 1160.98 -4.17349 2.89452 0
M  V30 11827 H 1160.91 -5.08577 1.36592 0
M  V30 11828 H 1163.4 -3.52411 1.36438 0
M  V30 11829 H 1163.72 -6.95736 3.36409 0
M  V30 11830 H 1162.06 -6.25997 3.01916 0
M  V30 11831 H 1165.25 -4.33414 1.76833 0
M  V30 11832 H 1165.42 -5.89983 2.68001 0
M  V30 11833 N 1158.83 -0.446794 -1.51134 0
M  V30 11834 C 1159.78 0.359865 -2.27977 0
M  V30 11835 C 1160.75 1.0086 -1.31972 0
M  V30 11836 O 1161.93 1.02569 -1.60886 0
M  V30 11837 C 1159.07 1.44978 -3.1317 0
M  V30 11838 C 1158.19 0.818243 -4.2418 0
M  V30 11839 C 1157.32 1.884 -4.96668 0
M  V30 11840 C 1156.36 1.2314 -5.99586 0
M  V30 11841 N 1155.5 2.23894 -6.65444 0
M  V30 11842 H 1160.34 -0.301775 -2.96468 0
M  V30 11843 H 1157.87 -0.160666 -1.4622 0
M  V30 11844 H 1159.83 2.09308 -3.60896 0
M  V30 11845 H 1158.46 2.08092 -2.46775 0
M  V30 11846 H 1157.51 0.0629889 -3.80348 0
M  V30 11847 H 1158.83 0.301885 -4.97886 0
M  V30 11848 H 1157.98 2.6037 -5.4799 0
M  V30 11849 H 1156.72 2.43411 -4.22614 0
M  V30 11850 H 1155.72 0.497215 -5.47547 0
M  V30 11851 H 1156.95 0.688505 -6.75601 0
M  V30 11852 H 1154.89 2.77967 -5.94197 0
M  V30 11853 H 1154.81 1.77176 -7.34945 0
M  V30 11854 H 1156.08 2.95318 -7.21393 0
M  V30 11855 N 1160.31 1.56586 -0.178487 0
M  V30 11856 C 1161.54 2.01183 0.470002 0
M  V30 11857 C 1161.95 1.05781 1.56866 0
M  V30 11858 O 1161.29 0.0519678 1.83626 0
M  V30 11859 C 1161.35 3.42199 1.10183 0
M  V30 11860 C 1161.02 4.56773 0.143945 0
M  V30 11861 C 1162.01 5.1594 -0.64043 0
M  V30 11862 C 1159.7 5.02286 0.0376874 0
M  V30 11863 C 1161.69 6.19055 -1.51819 0
M  V30 11864 C 1159.38 6.05248 -0.843652 0
M  V30 11865 C 1160.38 6.63505 -1.62017 0
M  V30 11866 O 1160.06 7.6447 -2.48677 0
M  V30 11867 H 1159.8 0.664527 0.124018 0
M  V30 11868 H 1162.35 2.0349 -0.279495 0
M  V30 11869 H 1160.58 3.36827 1.89959 0
M  V30 11870 H 1162.27 3.70705 1.65326 0
M  V30 11871 H 1163.04 4.81656 -0.56855 0
M  V30 11872 H 1158.91 4.56649 0.631893 0
M  V30 11873 H 1162.46 6.64455 -2.12475 0
M  V30 11874 H 1158.36 6.38958 -0.916708 0
M  V30 11875 H 1159.12 7.81823 -2.42272 0
M  V30 11876 N 1161.79 -0.095206 1.57312 0
M  V30 11877 C 1163.04 -0.797417 1.85268 0
M  V30 11878 C 1163.35 -1.79903 0.767733 0
M  V30 11879 O 1164.55 -2.54914 0.934409 0
M  V30 11880 C 1163.01 -1.469 3.28555 0
M  V30 11881 C 1162.62 -0.507152 4.4512 0
M  V30 11882 C 1164.36 -2.15494 3.65735 0
M  V30 11883 C 1162.27 -1.18331 5.79441 0
M  V30 11884 H 1161.2 -0.301552 0.691074 0
M  V30 11885 H 1163.85 -0.0503584 1.83431 0
M  V30 11886 H 1162.23 -2.26351 3.24933 0
M  V30 11887 H 1163.41 0.255858 4.60089 0
M  V30 11888 H 1161.72 0.0730882 4.16336 0
M  V30 11889 H 1164.32 -2.66816 4.63371 0
M  V30 11890 H 1164.66 -2.94383 2.94354 0
M  V30 11891 H 1165.19 -1.42903 3.71246 0
M  V30 11892 H 1161.93 -0.435238 6.54053 0
M  V30 11893 H 1161.45 -1.91775 5.68315 0
M  V30 11894 H 1163.13 -1.70983 6.23998 0
M  V30 11895 N 1163.26 -1.53291 -0.366026 0
M  V30 11896 C 1164.51 -1.69702 -1.11036 0
M  V30 11897 C 1164.84 -0.44728 -1.88979 0
M  V30 11898 O 1164.12 0.55542 -1.86401 0
M  V30 11899 C 1164.4 -2.94661 -2.06995 0
M  V30 11900 C 1164.25 -4.29791 -1.32663 0
M  V30 11901 C 1165.57 -3.15219 -3.07123 0
M  V30 11902 H 1162.69 -0.617525 -0.402284 0
M  V30 11903 H 1165.33 -1.85929 -0.391223 0
M  V30 11904 H 1163.48 -2.80958 -2.68318 0
M  V30 11905 H 1165.16 -4.55305 -0.741266 0
M  V30 11906 H 1163.4 -4.29223 -0.628484 0
M  V30 11907 H 1164.07 -5.13359 -2.02896 0
M  V30 11908 H 1166.55 -3.28105 -2.55903 0
M  V30 11909 H 1165.42 -4.04088 -3.71489 0
M  V30 11910 H 1165.68 -2.30479 -3.77269 0
M  V30 11911 N 1164.74 0.6258 -1.44643 0
M  V30 11912 C 1165.69 1.75869 -1.52226 0
M  V30 11913 C 1166.68 1.64765 -0.39355 0
M  V30 11914 O 1167.89 1.70779 -0.568718 0
M  V30 11915 H 1164.27 0.580712 -0.477784 0
M  V30 11916 H 1166.24 1.66596 -2.47565 0
M  V30 11917 C 1164.99 3.14217 -1.48873 0
M  V30 11918 H 1164.31 3.23411 -2.35043 0
M  V30 11919 H 1165.75 3.93365 -1.58239 0
M  V30 11920 C 1164.21 3.36243 -0.210299 0
M  V30 11921 O 1164.74 3.95243 0.717335 0
M  V30 11922 N 1162.94 2.90385 -0.111744 0
M  V30 11923 H 1162.49 2.42555 -0.867466 0
M  V30 11924 H 1162.45 3.05498 0.742871 0
M  V30 11925 N 1166.22 1.31629 0.866686 0
M  V30 11926 C 1167.47 1.21683 1.62238 0
M  V30 11927 C 1167.8 -0.223767 1.92907 0
M  V30 11928 O 1167.07 -1.15761 1.563 0
M  V30 11929 C 1167.36 2.06443 2.95048 0
M  V30 11930 C 1167.21 3.58818 2.71237 0
M  V30 11931 C 1168.53 1.91634 3.96187 0
M  V30 11932 H 1165.65 0.443389 0.588707 0
M  V30 11933 H 1168.29 1.61453 1.00164 0
M  V30 11934 H 1166.44 1.72654 3.48027 0
M  V30 11935 H 1168.11 4.0276 2.24905 0
M  V30 11936 H 1166.36 3.82085 2.05411 0
M  V30 11937 H 1167.03 4.13436 3.65752 0
M  V30 11938 H 1169.5 2.21209 3.52428 0
M  V30 11939 H 1168.38 2.53236 4.86993 0
M  V30 11940 H 1168.64 0.880564 4.33242 0
M  V30 11941 N 1167.7 -1.08142 1.14644 0
M  V30 11942 C 1168.93 -1.8405 0.938563 0
M  V30 11943 C 1169.34 -1.82017 -0.516361 0
M  V30 11944 O 1168.68 -1.22418 -1.36966 0
M  V30 11945 C 1168.74 -3.32563 1.36536 0
M  V30 11946 C 1168.41 -3.58327 2.83638 0
M  V30 11947 C 1169.4 -3.52944 3.81741 0
M  V30 11948 C 1167.09 -3.86251 3.21115 0
M  V30 11949 C 1169.08 -3.7512 5.15329 0
M  V30 11950 C 1166.77 -4.0808 4.54878 0
M  V30 11951 C 1167.77 -4.02508 5.51794 0
M  V30 11952 O 1167.46 -4.23761 6.83141 0
M  V30 11953 H 1167.19 -0.587793 0.33388 0
M  V30 11954 H 1169.74 -1.37467 1.52617 0
M  V30 11955 H 1167.97 -3.79917 0.721106 0
M  V30 11956 H 1169.66 -3.89915 1.12787 0
M  V30 11957 H 1170.43 -3.31382 3.54134 0
M  V30 11958 H 1166.31 -3.89707 2.46272 0
M  V30 11959 H 1169.85 -3.70686 5.90963 0
M  V30 11960 H 1165.75 -4.29126 4.82204 0
M  V30 11961 H 1166.51 -4.41152 6.8944 0
M  V30 11962 N 1169.18 -0.941978 -1.26351 0
M  V30 11963 C 1170.11 -0.409504 -2.25512 0
M  V30 11964 C 1171.12 0.467665 -1.55938 0
M  V30 11965 O 1172.31 0.277982 -1.76322 0
M  V30 11966 C 1169.41 0.430487 -3.36155 0
M  V30 11967 C 1168.58 -0.430714 -4.35274 0
M  V30 11968 C 1167.64 0.348976 -5.25042 0
M  V30 11969 O 1166.67 -0.24827 -5.68658 0
M  V30 11970 N 1167.87 1.64531 -5.56695 0
M  V30 11971 H 1170.64 -1.26196 -2.71836 0
M  V30 11972 H 1168.2 -0.810947 -1.40126 0
M  V30 11973 H 1170.19 0.959501 -3.93161 0
M  V30 11974 H 1168.76 1.18375 -2.8932 0
M  V30 11975 H 1167.98 -1.14093 -3.77328 0
M  V30 11976 H 1169.27 -1.01896 -4.98492 0
M  V30 11977 H 1168.67 2.15266 -5.23142 0
M  V30 11978 H 1167.22 2.12055 -6.16341 0
M  V30 11979 N 1170.66 1.40747 -0.709091 0
M  V30 11980 C 1171.9 2.00233 -0.242836 0
M  V30 11981 C 1172.22 1.56853 1.1686 0
M  V30 11982 O 1173.42 2.08993 1.73304 0
M  V30 11983 C 1171.88 3.57854 -0.383241 0
M  V30 11984 C 1171.49 4.10209 -1.80091 0
M  V30 11985 C 1173.23 4.24494 0.0225511 0
M  V30 11986 C 1171.14 5.60311 -1.89225 0
M  V30 11987 H 1170.07 0.74896 -0.087034 0
M  V30 11988 H 1172.72 1.61064 -0.879243 0
M  V30 11989 H 1171.1 3.94692 0.321642 0
M  V30 11990 H 1172.28 3.84762 -2.53564 0
M  V30 11991 H 1170.59 3.56142 -2.15758 0
M  V30 11992 H 1173.19 5.34694 -0.0250644 0
M  V30 11993 H 1173.53 4.02488 1.06344 0
M  V30 11994 H 1174.06 3.92739 -0.632541 0
M  V30 11995 H 1170.8 5.87162 -2.91412 0
M  V30 11996 H 1170.32 5.87642 -1.20154 0
M  V30 11997 H 1172 6.25306 -1.66136 0
M  V30 11998 N 1172.13 0.454803 1.50895 0
M  V30 11999 C 1173.36 -0.106259 2.07128 0
M  V30 12000 C 1173.78 -1.3418 1.31823 0
M  V30 12001 O 1173.14 -1.77667 0.361147 0
M  V30 12002 C 1173.19 -0.389609 3.58489 0
M  V30 12003 O 1172.29 -1.47305 3.85195 0
M  V30 12004 H 1171.63 0.00580588 0.663975 0
M  V30 12005 H 1174.16 0.641163 1.94294 0
M  V30 12006 H 1174.17 -0.634934 4.03029 0
M  V30 12007 H 1172.85 0.513338 4.1272 0
M  V30 12008 H 1171.43 -1.21631 3.52506 0
M  V30 12009 N 1173.61 -1.56489 0.186789 0
M  V30 12010 C 1174.52 -2.22304 -0.749543 0
M  V30 12011 C 1175.54 -1.21949 -1.24115 0
M  V30 12012 O 1176.71 -1.5466 -1.29005 0
M  V30 12013 C 1173.78 -2.863 -1.95533 0
M  V30 12014 C 1172.84 -4.01901 -1.5091 0
M  V30 12015 C 1172.07 -4.62837 -2.6574 0
M  V30 12016 O 1172.3 -4.22681 -3.8301 0
M  V30 12017 O 1171.23 -5.52446 -2.38929 0
M  V30 12018 H 1175.06 -3.02909 -0.21908 0
M  V30 12019 H 1172.64 -1.49341 -0.0421249 0
M  V30 12020 H 1174.52 -3.2682 -2.6602 0
M  V30 12021 H 1173.2 -2.08681 -2.47455 0
M  V30 12022 H 1172.1 -3.66021 -0.773261 0
M  V30 12023 H 1173.44 -4.8116 -1.03663 0
M  V30 12024 N 1175.09 0.086862 -1.5736 0
M  V30 12025 C 1176.37 0.820984 -1.77537 0
M  V30 12026 C 1176.75 1.96534 -0.770554 0
M  V30 12027 O 1176.09 2.27629 0.199334 0
M  V30 12028 C 1176.3 1.30793 -3.23565 0
M  V30 12029 C 1177.65 1.7474 -3.86977 0
M  V30 12030 O 1178.68 1.40396 -3.27364 0
M  V30 12031 O 1177.54 2.38271 -4.91822 0
M  V30 12032 H 1174.63 0.392228 -0.72807 0
M  V30 12033 H 1177.18 0.0681051 -1.69563 0
M  V30 12034 H 1175.95 0.488409 -3.8824 0
M  V30 12035 H 1175.57 2.12258 -3.36203 0
M  V30 12036 N 1176.57 1.53483 0.357892 0
M  V30 12037 C 1177.82 1.69701 1.09754 0
M  V30 12038 C 1178.14 0.455389 1.89608 0
M  V30 12039 O 1177.41 -0.530623 1.88577 0
M  V30 12040 H 1175.99 0.62562 0.408178 0
M  V30 12041 H 1178.65 1.90696 0.402641 0
M  V30 12042 H 1177.74 2.56154 1.78302 0
M  V30 12043 N 1178.05 -0.61812 1.44973 0
M  V30 12044 C 1178.96 -1.7579 1.55355 0
M  V30 12045 C 1179.97 -1.68384 0.438512 0
M  V30 12046 O 1181.15 -1.88928 0.697715 0
M  V30 12047 C 1178.21 -3.1222 1.50729 0
M  V30 12048 C 1177.27 -3.3116 2.73188 0
M  V30 12049 C 1176.51 -4.61082 2.68774 0
M  V30 12050 O 1176.73 -5.42728 1.75507 0
M  V30 12051 O 1175.66 -4.82506 3.59821 0
M  V30 12052 H 1179.49 -1.69983 2.51674 0
M  V30 12053 H 1177.07 -0.780934 1.27365 0
M  V30 12054 H 1178.96 -3.93524 1.5072 0
M  V30 12055 H 1177.63 -3.18541 0.575587 0
M  V30 12056 H 1176.54 -2.49485 2.78762 0
M  V30 12057 H 1177.87 -3.29709 3.65449 0
M  V30 12058 N 1179.52 -1.32087 -0.859693 0
M  V30 12059 C 1180.46 -1.16426 -1.97428 0
M  V30 12060 C 1181.47 -0.100582 -1.62489 0
M  V30 12061 O 1182.66 -0.349063 -1.75054 0
M  V30 12062 C 1179.76 -0.758822 -3.30295 0
M  V30 12063 C 1178.93 -1.90971 -3.93508 0
M  V30 12064 C 1177.99 -1.48865 -5.04704 0
M  V30 12065 O 1177.02 -2.1999 -5.2497 0
M  V30 12066 N 1178.22 -0.38182 -5.79243 0
M  V30 12067 H 1180.98 -2.12433 -2.11406 0
M  V30 12068 H 1178.54 -1.24558 -1.03426 0
M  V30 12069 H 1180.54 -0.459643 -4.02081 0
M  V30 12070 H 1179.11 0.109944 -3.12407 0
M  V30 12071 H 1178.33 -2.37566 -3.14573 0
M  V30 12072 H 1179.61 -2.68032 -4.32477 0
M  V30 12073 H 1179.01 0.210268 -5.65309 0
M  V30 12074 H 1177.57 -0.142224 -6.51645 0
M  V30 12075 N 1181 1.07532 -1.15215 0
M  V30 12076 C 1182.23 1.84356 -0.950139 0
M  V30 12077 C 1182.65 1.81429 0.496502 0
M  V30 12078 O 1182.01 1.20589 1.35381 0
M  V30 12079 C 1182.06 3.29425 -1.46669 0
M  V30 12080 O 1181.16 4.07008 -0.664674 0
M  V30 12081 H 1180.5 0.570921 -0.339036 0
M  V30 12082 H 1183.03 1.35665 -1.53154 0
M  V30 12083 H 1183.04 3.8026 -1.47873 0
M  V30 12084 H 1181.72 3.3087 -2.51988 0
M  V30 12085 H 1180.29 3.65841 -0.72211 0
M  V30 12086 N 1182.48 0.948665 1.2585 0
M  V30 12087 C 1183.41 0.482036 2.2847 0
M  V30 12088 C 1184.39 -0.468553 1.63519 0
M  V30 12089 O 1185.58 -0.368796 1.90666 0
M  V30 12090 C 1182.71 -0.246603 3.46423 0
M  V30 12091 C 1181.66 0.61815 4.23513 0
M  V30 12092 C 1180.99 -0.240884 5.34157 0
M  V30 12093 C 1182.29 1.89327 4.86778 0
M  V30 12094 H 1183.98 1.33973 2.67753 0
M  V30 12095 H 1181.53 0.645645 1.28715 0
M  V30 12096 H 1183.48 -0.584135 4.17332 0
M  V30 12097 H 1182.2 -1.13849 3.06114 0
M  V30 12098 H 1180.86 0.938682 3.54379 0
M  V30 12099 H 1180.51 -1.13235 4.90089 0
M  V30 12100 H 1180.21 0.334367 5.86648 0
M  V30 12101 H 1181.73 -0.573517 6.07901 0
M  V30 12102 H 1183.15 1.62252 5.49861 0
M  V30 12103 H 1181.55 2.41369 5.49419 0
M  V30 12104 H 1182.62 2.60006 4.09298 0
M  V30 12105 N 1183.96 -1.40369 0.716545 0
M  V30 12106 C 1185.21 -2.00101 0.253452 0
M  V30 12107 C 1185.52 -1.57471 -1.16027 0
M  V30 12108 O 1186.73 -2.09909 -1.72193 0
M  V30 12109 C 1185.18 -3.57645 0.402213 0
M  V30 12110 C 1184.79 -4.09248 1.82264 0
M  V30 12111 C 1186.53 -4.245 -3.88526e-05 0
M  V30 12112 C 1184.44 -5.59299 1.92193 0
M  V30 12113 H 1183.37 -0.748488 0.0910047 0
M  V30 12114 H 1186.02 -1.60595 0.887772 0
M  V30 12115 H 1184.4 -3.94857 -0.300706 0
M  V30 12116 H 1185.58 -3.83412 2.55601 0
M  V30 12117 H 1183.89 -3.54993 2.17644 0
M  V30 12118 H 1186.49 -5.34673 0.0534202 0
M  V30 12119 H 1186.83 -4.03046 -1.04208 0
M  V30 12120 H 1187.37 -3.92398 0.65336 0
M  V30 12121 H 1184.11 -5.85608 2.94522 0
M  V30 12122 H 1183.63 -5.86997 1.23268 0
M  V30 12123 H 1185.3 -6.24416 1.6945 0
M  V30 12124 N 1185.44 -0.462799 -1.50652 0
M  V30 12125 C 1186.37 0.325724 -2.31217 0
M  V30 12126 C 1187.35 0.997942 -1.3775 0
M  V30 12127 O 1188.53 0.996707 -1.66671 0
M  V30 12128 C 1185.66 1.41283 -3.17264 0
M  V30 12129 C 1184.62 0.862687 -4.19216 0
M  V30 12130 C 1183.94 2.04746 -4.93946 0
M  V30 12131 C 1185.24 -0.120365 -5.22161 0
M  V30 12132 H 1186.94 -0.346666 -2.97386 0
M  V30 12133 H 1184.48 -0.168163 -1.43015 0
M  V30 12134 H 1186.44 1.97188 -3.72418 0
M  V30 12135 H 1185.16 2.11387 -2.48964 0
M  V30 12136 H 1183.82 0.325671 -3.65151 0
M  V30 12137 H 1183.47 2.73529 -4.22127 0
M  V30 12138 H 1183.17 1.68562 -5.62904 0
M  V30 12139 H 1184.69 2.61157 -5.51932 0
M  V30 12140 H 1186.1 0.349226 -5.72235 0
M  V30 12141 H 1184.5 -0.396061 -5.98792 0
M  V30 12142 H 1185.57 -1.04895 -4.73418 0
M  V30 12143 N 1186.91 1.56388 -0.195085 0
M  V30 12144 C 1188.14 2.02406 0.452399 0
M  V30 12145 C 1188.56 1.07432 1.54402 0
M  V30 12146 O 1187.92 0.0578246 1.81208 0
M  V30 12147 C 1187.97 3.46864 0.985778 0
M  V30 12148 O 1187.07 3.55007 2.09867 0
M  V30 12149 H 1186.42 0.65553 0.105719 0
M  V30 12150 H 1188.95 2.02299 -0.30596 0
M  V30 12151 H 1188.96 3.86655 1.30238 0
M  V30 12152 H 1187.63 4.15481 0.186662 0
M  V30 12153 H 1186.21 3.2709 1.79071 0
M  V30 12154 N 1188.39 -0.0785156 1.57404 0
M  V30 12155 C 1189.62 -0.792042 1.9114 0
M  V30 12156 C 1190.04 -1.71458 0.790408 0
M  V30 12157 O 1189.39 -1.80959 -0.236662 0
M  V30 12158 C 1189.44 -1.59138 3.24588 0
M  V30 12159 O 1189.16 -0.705931 4.32375 0
M  V30 12160 C 1190.67 -2.4065 3.72293 0
M  V30 12161 H 1187.89 -0.225566 0.63195 0
M  V30 12162 H 1190.43 -0.0507929 2.04437 0
M  V30 12163 H 1188.58 -2.28498 3.12838 0
M  V30 12164 H 1189 -1.26121 5.09111 0
M  V30 12165 H 1190.47 -2.92204 4.68317 0
M  V30 12166 H 1190.95 -3.1987 3.00965 0
M  V30 12167 H 1191.56 -1.7646 3.86965 0
M  V30 12168 N 1189.87 -1.5367 -0.349747 0
M  V30 12169 C 1191.1 -1.74858 -1.11532 0
M  V30 12170 C 1191.52 -0.483591 -1.81777 0
M  V30 12171 O 1190.88 0.563399 -1.72324 0
M  V30 12172 C 1190.93 -2.92479 -2.10923 0
M  V30 12173 O 1190.03 -2.62194 -3.18321 0
M  V30 12174 H 1189.37 -0.580219 -0.322865 0
M  V30 12175 H 1191.9 -2.00611 -0.402033 0
M  V30 12176 H 1191.91 -3.19093 -2.54252 0
M  V30 12177 H 1190.59 -3.84228 -1.59191 0
M  V30 12178 H 1189.16 -2.46448 -2.79853 0
M  V30 12179 N 1191.35 0.610423 -1.45298 0
M  V30 12180 C 1192.28 1.73507 -1.4976 0
M  V30 12181 C 1193.29 1.58092 -0.38867 0
M  V30 12182 O 1194.48 1.66026 -0.655571 0
M  V30 12183 C 1191.58 3.11475 -1.33554 0
M  V30 12184 C 1190.76 3.53156 -2.5807 0
M  V30 12185 C 1189.81 4.70076 -2.36463 0
M  V30 12186 O 1188.84 4.77337 -3.10061 0
M  V30 12187 N 1190.04 5.63155 -1.40843 0
M  V30 12188 H 1192.81 1.70144 -2.46721 0
M  V30 12189 H 1190.37 0.79562 -1.41002 0
M  V30 12190 H 1192.36 3.87444 -1.16914 0
M  V30 12191 H 1190.93 3.09361 -0.448803 0
M  V30 12192 H 1190.15 2.67178 -2.89844 0
M  V30 12193 H 1191.44 3.77761 -3.40843 0
M  V30 12194 H 1190.84 5.60001 -0.800982 0
M  V30 12195 H 1189.39 6.38669 -1.30175 0
M  V30 12196 N 1192.83 1.32541 0.852676 0
M  V30 12197 C 1194.05 1.2622 1.6394 0
M  V30 12198 C 1194.47 -0.169455 1.88038 0
M  V30 12199 O 1193.83 -1.10719 1.45078 0
M  V30 12200 C 1193.88 2.02062 2.99755 0
M  V30 12201 O 1193.6 3.39641 2.76723 0
M  V30 12202 C 1195.1 2.02787 3.94198 0
M  V30 12203 H 1192.32 0.435405 0.510552 0
M  V30 12204 H 1194.86 1.74696 1.06309 0
M  V30 12205 H 1193.02 1.57303 3.54026 0
M  V30 12206 H 1193.43 3.78484 3.63111 0
M  V30 12207 H 1194.91 2.60333 4.86755 0
M  V30 12208 H 1195.38 1.01464 4.27319 0
M  V30 12209 H 1195.99 2.47504 3.45864 0
M  V30 12210 N 1194.3 -1.0692 1.15784 0
M  V30 12211 C 1195.53 -1.8331 0.959422 0
M  V30 12212 C 1195.95 -1.82268 -0.492332 0
M  V30 12213 O 1195.3 -1.23727 -1.34156 0
M  V30 12214 C 1195.36 -3.30202 1.47135 0
M  V30 12215 O 1195.08 -3.31328 2.86624 0
M  V30 12216 C 1196.58 -4.23346 1.31504 0
M  V30 12217 H 1193.8 -0.578202 0.340475 0
M  V30 12218 H 1196.34 -1.34939 1.53661 0
M  V30 12219 H 1194.5 -3.75908 0.936587 0
M  V30 12220 H 1194.91 -4.23135 3.0993 0
M  V30 12221 H 1196.38 -5.24465 1.72163 0
M  V30 12222 H 1196.86 -4.38431 0.259773 0
M  V30 12223 H 1197.47 -3.8348 1.83911 0
M  V30 12224 N 1195.78 -0.955326 -1.25345 0
M  V30 12225 C 1196.75 -0.480564 -2.24105 0
M  V30 12226 C 1197.75 0.416123 -1.55322 0
M  V30 12227 O 1198.94 0.213315 -1.72889 0
M  V30 12228 C 1196.07 0.305589 -3.39528 0
M  V30 12229 H 1197.26 -1.35349 -2.6762 0
M  V30 12230 H 1194.81 -0.738673 -1.37744 0
M  V30 12231 H 1195.55 1.19615 -3.01434 0
M  V30 12232 H 1195.33 -0.337719 -3.90643 0
M  V30 12233 H 1196.82 0.627201 -4.12863 0
M  V30 12234 N 1197.26 1.39987 -0.723979 0
M  V30 12235 C 1198.67 1.83606 -0.338461 0
M  V30 12236 C 1199.02 1.6051 1.12831 0
M  V30 12237 O 1198.15 1.09041 1.8692 0
M  V30 12238 C 1198.74 3.33308 -0.607533 0
M  V30 12239 C 1197.3 3.75389 -0.275632 0
M  V30 12240 C 1196.45 2.6311 -0.875699 0
M  V30 12241 H 1199.4 1.29135 -0.922483 0
M  V30 12242 H 1199.42 3.80297 0.124424 0
M  V30 12243 H 1198.93 3.50087 -1.67514 0
M  V30 12244 H 1197.03 3.64203 0.786579 0
M  V30 12245 H 1197.15 4.73185 -0.750492 0
M  V30 12246 H 1195.51 2.5289 -0.303122 0
M  V30 12247 H 1196.29 2.82698 -1.94774 0
M  V30 12248 N 1198.74 0.470782 1.50404 0
M  V30 12249 C 1200.02 -0.145879 1.95055 0
M  V30 12250 C 1200.4 -1.57004 1.41114 0
M  V30 12251 O 1199.74 -2.20152 0.612006 0
M  V30 12252 C 1199.95 -0.0895071 3.48885 0
M  V30 12253 C 1201.3 -0.278548 4.23685 0
M  V30 12254 O 1202.33 -0.166105 3.55812 0
M  V30 12255 O 1201.19 -0.505606 5.44156 0
M  V30 12256 H 1198.28 -0.111838 0.819403 0
M  V30 12257 H 1200.83 0.531162 1.61173 0
M  V30 12258 H 1199.6 0.904836 3.80695 0
M  V30 12259 H 1199.22 -0.808019 3.89303 0
M  V30 12260 N 1200.22 -1.56282 0.203376 0
M  V30 12261 C 1201.18 -2.18233 -0.700489 0
M  V30 12262 C 1202.18 -1.13908 -1.13497 0
M  V30 12263 O 1203.37 -1.39246 -1.04672 0
M  V30 12264 C 1200.5 -2.79107 -1.95735 0
M  V30 12265 H 1201.7 -2.99469 -0.160649 0
M  V30 12266 H 1199.25 -1.56232 -0.0462475 0
M  V30 12267 H 1199.98 -2.01691 -2.53951 0
M  V30 12268 H 1199.77 -3.55486 -1.65446 0
M  V30 12269 H 1201.26 -3.2665 -2.60172 0
M  V30 12270 N 1201.7 0.070167 -1.57444 0
M  V30 12271 C 1203.11 0.621805 -1.76041 0
M  V30 12272 C 1203.46 1.77824 -0.829047 0
M  V30 12273 O 1202.58 2.16396 -0.0135453 0
M  V30 12274 C 1203.18 1.13476 -3.19231 0
M  V30 12275 C 1201.74 1.63225 -3.39167 0
M  V30 12276 C 1200.88 0.552369 -2.71743 0
M  V30 12277 H 1203.83 -0.156009 -1.57931 0
M  V30 12278 H 1203.86 2.00352 -3.2348 0
M  V30 12279 H 1203.37 0.29288 -3.86993 0
M  V30 12280 H 1201.47 2.49733 -2.76522 0
M  V30 12281 H 1201.58 1.70807 -4.47618 0
M  V30 12282 H 1199.95 0.997797 -2.34342 0
M  V30 12283 H 1200.73 -0.279354 -3.42162 0
M  V30 12284 N 1203.17 1.53854 0.341593 0
M  V30 12285 C 1204.58 1.62623 0.917093 0
M  V30 12286 C 1204.94 0.508781 1.89488 0
M  V30 12287 O 1204.06 -0.361171 2.13365 0
M  V30 12288 C 1204.66 2.94775 1.67012 0
M  V30 12289 C 1203.21 3.058 2.19461 0
M  V30 12290 C 1202.36 2.58082 1.01433 0
M  V30 12291 H 1205.31 1.58248 0.119674 0
M  V30 12292 H 1205.33 2.83924 2.53313 0
M  V30 12293 H 1204.85 3.76085 0.958221 0
M  V30 12294 H 1202.95 2.29128 2.93821 0
M  V30 12295 H 1203.06 4.11302 2.45698 0
M  V30 12296 H 1201.42 2.13537 1.38831 0
M  V30 12297 H 1202.21 3.41833 0.317033 0
M  V30 12298 N 1204.65 -0.602709 1.4562 0
M  V30 12299 C 1205.93 -1.36224 1.40366 0
M  V30 12300 C 1206.31 -2.1096 0.0767645 0
M  V30 12301 O 1205.66 -2.08207 -0.941378 0
M  V30 12302 C 1205.87 -2.30499 2.62052 0
M  V30 12303 C 1207.21 -2.92954 3.07348 0
M  V30 12304 O 1208.24 -2.40818 2.62459 0
M  V30 12305 O 1207.1 -3.87601 3.85263 0
M  V30 12306 H 1204.19 -0.611064 0.557253 0
M  V30 12307 H 1206.74 -0.625391 1.57756 0
M  V30 12308 H 1205.51 -1.74566 3.50203 0
M  V30 12309 H 1205.13 -3.11556 2.4702 0
M  V30 12310 N 1206.13 -1.32992 -0.845635 0
M  V30 12311 C 1207.36 -1.27087 -1.63268 0
M  V30 12312 C 1207.77 0.159481 -1.88125 0
M  V30 12313 O 1207.13 1.09948 -1.45663 0
M  V30 12314 C 1207.18 -2.03649 -2.98679 0
M  V30 12315 O 1206.9 -3.41104 -2.74918 0
M  V30 12316 C 1208.4 -2.04875 -3.93117 0
M  V30 12317 H 1205.62 -0.438107 -0.508236 0
M  V30 12318 H 1208.17 -1.75257 -1.05381 0
M  V30 12319 H 1206.32 -1.59178 -3.53187 0
M  V30 12320 H 1206.74 -3.80405 -3.61099 0
M  V30 12321 H 1208.21 -2.62911 -4.85368 0
M  V30 12322 H 1208.69 -1.03728 -4.26775 0
M  V30 12323 H 1209.29 -2.49334 -3.44547 0
M  V30 12324 N 1207.61 1.06304 -1.1635 0
M  V30 12325 C 1208.84 1.82799 -0.96913 0
M  V30 12326 C 1209.25 1.82526 0.482659 0
M  V30 12327 O 1208.61 1.24437 1.33498 0
M  V30 12328 C 1208.66 3.29417 -1.48884 0
M  V30 12329 O 1208.38 3.29803 -2.88377 0
M  V30 12330 C 1209.88 4.22642 -1.33748 0
M  V30 12331 H 1207.1 0.576388 -0.343537 0
M  V30 12332 H 1209.64 1.34122 -1.54375 0
M  V30 12333 H 1207.8 3.75406 -0.956509 0
M  V30 12334 H 1208.21 4.21486 -3.1217 0
M  V30 12335 H 1209.69 5.23545 -1.74942 0
M  V30 12336 H 1210.16 4.38287 -0.283021 0
M  V30 12337 H 1210.77 3.82499 -1.85942 0
M  V30 12338 N 1209.09 0.96196 1.24836 0
M  V30 12339 C 1210.33 0.621634 1.93038 0
M  V30 12340 C 1210.66 -0.840257 1.75081 0
M  V30 12341 O 1209.94 -1.60381 1.10038 0
M  V30 12342 C 1210.22 0.990107 3.46221 0
M  V30 12343 C 1210.08 2.50827 3.73371 0
M  V30 12344 C 1211.39 0.520478 4.37011 0
M  V30 12345 H 1208.51 0.227312 0.701069 0
M  V30 12346 H 1211.16 1.19993 1.47315 0
M  V30 12347 H 1209.31 0.498008 3.85295 0
M  V30 12348 H 1210.98 3.07469 3.4389 0
M  V30 12349 H 1209.22 2.94277 3.18722 0
M  V30 12350 H 1209.89 2.71659 4.80526 0
M  V30 12351 H 1212.37 0.942703 4.05281 0
M  V30 12352 H 1211.24 0.806918 5.42937 0
M  V30 12353 H 1211.5 -0.579507 4.38285 0
M  V30 12354 N 1210.56 -1.39601 0.731392 0
M  V30 12355 C 1211.84 -1.94531 0.20422 0
M  V30 12356 C 1212.22 -1.66845 -1.29329 0
M  V30 12357 O 1211.57 -0.994706 -2.05713 0
M  V30 12358 C 1211.78 -3.44891 0.53395 0
M  V30 12359 C 1213.13 -4.21863 0.481298 0
M  V30 12360 O 1214.15 -3.53073 0.470929 0
M  V30 12361 O 1213.01 -5.44452 0.472663 0
M  V30 12362 H 1210.1 -0.826214 0.0360436 0
M  V30 12363 H 1212.65 -1.49121 0.810005 0
M  V30 12364 H 1211.42 -3.58463 1.56907 0
M  V30 12365 H 1211.04 -3.97472 -0.10099 0
M  V30 12366 N 1212.04 -0.478751 -1.50152 0
M  V30 12367 C 1212.97 0.347829 -2.26545 0
M  V30 12368 C 1213.99 0.950354 -1.32182 0
M  V30 12369 O 1215.18 0.837462 -1.57635 0
M  V30 12370 C 1212.28 1.50255 -3.0377 0
M  V30 12371 C 1211.45 1.01142 -4.25546 0
M  V30 12372 C 1210.51 2.0411 -4.85 0
M  V30 12373 O 1209.53 1.61862 -5.45701 0
M  V30 12374 N 1210.74 3.36982 -4.72677 0
M  V30 12375 H 1213.5 -0.307113 -2.98122 0
M  V30 12376 H 1211.06 -0.309981 -1.58905 0
M  V30 12377 H 1213.05 2.18848 -3.40423 0
M  V30 12378 H 1211.62 2.06205 -2.34943 0
M  V30 12379 H 1210.84 0.151124 -3.9391 0
M  V30 12380 H 1212.13 0.661326 -5.04484 0
M  V30 12381 H 1211.53 3.74011 -4.2442 0
M  V30 12382 H 1210.09 4.0135 -5.13577 0
M  V30 12383 N 1213.52 1.56172 -0.211661 0
M  V30 12384 C 1214.77 1.98332 0.423332 0
M  V30 12385 C 1215.1 1.09895 1.60115 0
M  V30 12386 O 1214.37 0.154477 1.93886 0
M  V30 12387 C 1214.66 3.49495 0.86747 0
M  V30 12388 C 1214.51 4.48708 -0.313302 0
M  V30 12389 C 1215.83 4.04793 1.72716 0
M  V30 12390 H 1212.95 0.72107 0.152402 0
M  V30 12391 H 1215.59 1.87521 -0.305912 0
M  V30 12392 H 1213.74 3.58839 1.48885 0
M  V30 12393 H 1215.41 4.51385 -0.951291 0
M  V30 12394 H 1213.66 4.2299 -0.96238 0
M  V30 12395 H 1214.33 5.51985 0.0402402 0
M  V30 12396 H 1216.8 3.98332 1.20296 0
M  V30 12397 H 1215.68 5.10898 2.00684 0
M  V30 12398 H 1215.94 3.51067 2.68709 0
M  V30 12399 N 1215 -0.0618163 1.57479 0
M  V30 12400 C 1216.28 -0.792636 1.7882 0
M  V30 12401 C 1216.66 -1.95283 0.801724 0
M  V30 12402 O 1216 -2.27917 -0.163095 0
M  V30 12403 C 1216.21 -1.25629 3.25605 0
M  V30 12404 C 1217.56 -1.68561 3.89708 0
M  V30 12405 O 1218.59 -1.35171 3.29556 0
M  V30 12406 O 1217.44 -2.30417 4.95551 0
M  V30 12407 H 1214.54 -0.380595 0.734218 0
M  V30 12408 H 1217.08 -0.0411205 1.6965 0
M  V30 12409 H 1215.86 -0.426582 3.88968 0
M  V30 12410 H 1215.48 -2.06882 3.39537 0
M  V30 12411 N 1216.48 -1.54033 -0.333429 0
M  V30 12412 C 1217.75 -1.62404 -1.09015 0
M  V30 12413 C 1218.13 -0.451653 -2.06212 0
M  V30 12414 O 1217.48 0.555086 -2.21655 0
M  V30 12415 C 1217.69 -2.98949 -1.80085 0
M  V30 12416 C 1219.04 -3.54655 -2.33464 0
M  V30 12417 O 1220.06 -3.0119 -1.90166 0
M  V30 12418 O 1218.92 -4.48195 -3.12703 0
M  V30 12419 H 1216.02 -0.65727 -0.501921 0
M  V30 12420 H 1218.56 -1.66378 -0.33411 0
M  V30 12421 H 1217.33 -3.75716 -1.09332 0
M  V30 12422 H 1216.96 -2.98609 -2.62523 0
M  V30 12423 N 1217.95 0.594978 -1.45938 0
M  V30 12424 C 1219.18 1.37994 -1.5416 0
M  V30 12425 C 1219.6 1.87954 -0.17848 0
M  V30 12426 O 1218.95 1.62932 0.822161 0
M  V30 12427 C 1219.01 2.57586 -2.53637 0
M  V30 12428 O 1218.73 2.09698 -3.84653 0
M  V30 12429 C 1220.23 3.50292 -2.71681 0
M  V30 12430 H 1217.45 0.421983 -0.5217 0
M  V30 12431 H 1219.99 0.724459 -1.91238 0
M  V30 12432 H 1218.15 3.19149 -2.19597 0
M  V30 12433 H 1218.56 2.87492 -4.3869 0
M  V30 12434 H 1220.03 4.30717 -3.45234 0
M  V30 12435 H 1220.51 4.01444 -1.78156 0
M  V30 12436 H 1221.12 2.94573 -3.06768 0
M  V30 12437 N 1219.43 1.33438 0.838571 0
M  V30 12438 C 1220.66 1.28097 1.63113 0
M  V30 12439 C 1221.08 -0.145197 1.87539 0
M  V30 12440 O 1220.44 -1.10191 1.43971 0
M  V30 12441 C 1220.49 2.06201 2.95827 0
M  V30 12442 O 1219.59 1.42082 3.87152 0
M  V30 12443 H 1218.93 0.440685 0.496681 0
M  V30 12444 H 1221.46 1.76004 1.04325 0
M  V30 12445 H 1221.47 2.16977 3.45521 0
M  V30 12446 H 1220.15 3.099 2.77371 0
M  V30 12447 H 1218.73 1.39953 3.45641 0
M  V30 12448 N 1220.91 -1.05686 1.16912 0
M  V30 12449 C 1222.16 -1.77987 0.948875 0
M  V30 12450 C 1222.47 -1.8845 -0.524011 0
M  V30 12451 O 1223.68 -2.57442 -0.862322 0
M  V30 12452 C 1222.13 -3.19927 1.64848 0
M  V30 12453 C 1221.74 -3.1761 3.15956 0
M  V30 12454 C 1223.49 -3.96719 1.51044 0
M  V30 12455 C 1221.39 -4.54307 3.78628 0
M  V30 12456 H 1220.32 -0.667119 0.35138 0
M  V30 12457 H 1222.97 -1.18496 1.40111 0
M  V30 12458 H 1221.36 -3.79714 1.12397 0
M  V30 12459 H 1222.53 -2.67369 3.75301 0
M  V30 12460 H 1220.85 -2.54317 3.29715 0
M  V30 12461 H 1223.44 -4.97779 1.95243 0
M  V30 12462 H 1223.79 -4.13748 0.460268 0
M  V30 12463 H 1224.32 -3.43468 2.00685 0
M  V30 12464 H 1221.06 -4.42484 4.8362 0
M  V30 12465 H 1220.58 -5.04717 3.24069 0
M  V30 12466 H 1222.26 -5.23255 3.80543 0
M  V30 12467 N 1222.39 -0.968567 -1.24324 0
M  V30 12468 C 1223.63 -0.631863 -1.92705 0
M  V30 12469 C 1223.97 0.83096 -1.75524 0
M  V30 12470 O 1223.24 1.59795 -1.10887 0
M  V30 12471 C 1223.53 -1.00845 -3.45691 0
M  V30 12472 C 1223.38 -2.52803 -3.72036 0
M  V30 12473 C 1224.7 -0.543647 -4.36729 0
M  V30 12474 H 1221.82 -0.231027 -0.699854 0
M  V30 12475 H 1224.46 -1.20773 -1.46676 0
M  V30 12476 H 1222.61 -0.518434 -3.85025 0
M  V30 12477 H 1224.28 -3.09289 -3.42255 0
M  V30 12478 H 1222.52 -2.95963 -3.17157 0
M  V30 12479 H 1223.19 -2.74203 -4.79079 0
M  V30 12480 H 1225.67 -0.964182 -4.04775 0
M  V30 12481 H 1224.55 -0.8357 -5.42501 0
M  V30 12482 H 1224.81 0.556256 -4.38587 0
M  V30 12483 N 1223.87 1.39211 -0.738786 0
M  V30 12484 C 1225.11 2.00733 -0.288817 0
M  V30 12485 C 1225.45 1.58494 1.1222 0
M  V30 12486 O 1224.72 0.815579 1.76575 0
M  V30 12487 C 1225 3.57928 -0.394956 0
M  V30 12488 C 1224.86 4.10174 -1.84601 0
M  V30 12489 C 1226.18 4.39548 0.220395 0
M  V30 12490 H 1223.29 0.729276 -0.106418 0
M  V30 12491 H 1225.94 1.65365 -0.935652 0
M  V30 12492 H 1224.09 3.88188 0.155744 0
M  V30 12493 H 1225.76 3.90618 -2.45388 0
M  V30 12494 H 1224 3.63593 -2.36607 0
M  V30 12495 H 1224.67 5.19305 -1.87152 0
M  V30 12496 H 1227.15 4.15354 -0.249098 0
M  V30 12497 H 1226.02 5.48778 0.115806 0
M  V30 12498 H 1226.29 4.22341 1.30691 0
M  V30 12499 N 1225.34 0.486708 1.49896 0
M  V30 12500 C 1226.76 0.141788 1.58969 0
M  V30 12501 C 1226.96 -1.35279 1.49338 0
M  V30 12502 O 1226.02 -2.1275 1.35992 0
M  V30 12503 C 1227.33 0.70588 2.92297 0
M  V30 12504 C 1228.88 0.670704 3.0573 0
M  V30 12505 C 1229.35 1.21261 4.41656 0
M  V30 12506 N 1230.84 1.17269 4.4811 0
M  V30 12507 C 1231.58 1.56233 5.51705 0
M  V30 12508 N 1231.07 2.02721 6.62477 0
M  V30 12509 N 1232.87 1.47738 5.42337 0
M  V30 12510 H 1225.02 1.45858 1.544 0
M  V30 12511 H 1227.28 0.604137 0.730563 0
M  V30 12512 H 1226.99 1.7535 3.04869 0
M  V30 12513 H 1226.86 0.158215 3.76868 0
M  V30 12514 H 1229.25 -0.368041 2.92796 0
M  V30 12515 H 1229.33 1.25535 2.22878 0
M  V30 12516 H 1228.97 2.25006 4.5534 0
M  V30 12517 H 1228.9 0.604031 5.23124 0
M  V30 12518 H 1231.39 0.831905 3.6863 0
M  V30 12519 H 1231.71 2.3056 7.37606 0
M  V30 12520 H 1230.05 2.06686 6.63556 0
M  V30 12521 H 1233.24 1.11249 4.54688 0
M  V30 12522 H 1233.42 1.78429 6.2295 0
M  V30 12523 N 1226.82 -1.56058 0.219941 0
M  V30 12524 C 1228.07 -1.99306 -0.40606 0
M  V30 12525 C 1228.42 -1.10505 -1.57501 0
M  V30 12526 O 1227.72 -0.154663 -1.90975 0
M  V30 12527 C 1227.91 -3.46113 -0.8911 0
M  V30 12528 C 1227.74 -4.49115 0.229307 0
M  V30 12529 C 1226.51 -5.00495 0.695169 0
M  V30 12530 C 1228.71 -5.0353 1.04701 0
M  V30 12531 N 1226.69 -5.872 1.7908 0
M  V30 12532 C 1228.06 -5.87144 1.99154 0
M  V30 12533 C 1230.12 -4.85898 1.08663 0
M  V30 12534 C 1228.82 -6.55009 2.97246 0
M  V30 12535 C 1230.85 -5.54521 2.05572 0
M  V30 12536 C 1230.21 -6.37902 2.98765 0
M  V30 12537 H 1226.31 -0.773453 -0.115304 0
M  V30 12538 H 1228.89 -1.9186 0.331342 0
M  V30 12539 H 1227.06 -3.5401 -1.59787 0
M  V30 12540 H 1228.79 -3.76281 -1.48978 0
M  V30 12541 H 1225.55 -4.72747 0.284052 0
M  V30 12542 H 1225.97 -6.35253 2.34057 0
M  V30 12543 H 1230.61 -4.21088 0.380063 0
M  V30 12544 H 1228.33 -7.19002 3.68866 0
M  V30 12545 H 1231.92 -5.42845 2.0931 0
M  V30 12546 H 1230.8 -6.90067 3.72529 0
M  V30 12547 N 1228.3 0.053464 -1.57509 0
M  V30 12548 C 1229.53 0.765301 -1.92764 0
M  V30 12549 C 1229.95 1.69385 -0.817943 0
M  V30 12550 O 1229.31 1.7986 0.228075 0
M  V30 12551 C 1229.36 1.51938 -3.27028 0
M  V30 12552 O 1228.46 2.63121 -3.17555 0
M  V30 12553 H 1227.8 0.207567 -0.630723 0
M  V30 12554 H 1230.33 0.0162254 -2.04594 0
M  V30 12555 H 1230.34 1.89466 -3.6134 0
M  V30 12556 H 1229.02 0.838207 -4.07366 0
M  V30 12557 H 1227.59 2.28316 -2.94832 0
M  V30 12558 N 1229.78 1.54207 0.325255 0
M  V30 12559 C 1231.2 1.44879 0.669492 0
M  V30 12560 C 1231.4 0.620298 1.91715 0
M  V30 12561 O 1230.45 0.118435 2.52222 0
M  V30 12562 C 1231.76 2.88581 0.845077 0
M  V30 12563 C 1233.31 2.98472 0.942527 0
M  V30 12564 C 1233.79 4.4332 1.15029 0
M  V30 12565 N 1235.28 4.46925 1.21707 0
M  V30 12566 C 1236.01 5.56155 1.39568 0
M  V30 12567 N 1235.51 6.75357 1.54483 0
M  V30 12568 N 1237.3 5.43799 1.42263 0
M  V30 12569 H 1229.45 2.06556 -0.494819 0
M  V30 12570 H 1231.72 0.934474 -0.159568 0
M  V30 12571 H 1231.42 3.517 -0.000442996 0
M  V30 12572 H 1231.3 3.34596 1.74141 0
M  V30 12573 H 1233.68 2.35481 1.77855 0
M  V30 12574 H 1233.76 2.5579 0.0226995 0
M  V30 12575 H 1233.41 5.06896 0.319127 0
M  V30 12576 H 1233.34 4.8361 2.08397 0
M  V30 12577 H 1235.83 3.61036 1.11632 0
M  V30 12578 H 1236.14 7.54363 1.67799 0
M  V30 12579 H 1234.49 6.78268 1.51584 0
M  V30 12580 H 1237.68 4.49627 1.30205 0
M  V30 12581 H 1237.85 6.28982 1.5584 0
M  V30 12582 N 1231.26 -0.58723 1.46251 0
M  V30 12583 C 1232.67 -1.16933 1.45546 0
M  V30 12584 C 1233.02 -1.9524 0.193879 0
M  V30 12585 O 1232.14 -2.04652 -0.70332 0
M  V30 12586 C 1232.74 -2.12723 2.63693 0
M  V30 12587 C 1231.3 -2.66267 2.66043 0
M  V30 12588 C 1230.45 -1.42051 2.38153 0
M  V30 12589 H 1233.4 -0.375411 1.54196 0
M  V30 12590 H 1233.42 -2.96111 2.38953 0
M  V30 12591 H 1232.93 -1.55703 3.55497 0
M  V30 12592 H 1231.03 -3.2717 1.783 0
M  V30 12593 H 1231.14 -3.0931 3.65874 0
M  V30 12594 H 1229.51 -1.71707 1.88119 0
M  V30 12595 H 1230.29 -0.868675 3.32128 0
M  V30 12596 N 1232.74 -1.33881 -0.831482 0
M  V30 12597 C 1233.67 -1.20587 -1.94914 0
M  V30 12598 C 1234.68 -0.135026 -1.62239 0
M  V30 12599 O 1235.87 -0.386116 -1.74274 0
M  V30 12600 C 1232.97 -0.828712 -3.28612 0
M  V30 12601 C 1232.14 -1.99275 -3.89369 0
M  V30 12602 C 1231.2 -1.59537 -5.01432 0
M  V30 12603 O 1230.23 -2.31076 -5.20185 0
M  V30 12604 N 1231.43 -0.5046 -5.78303 0
M  V30 12605 H 1234.19 -2.16869 -2.06852 0
M  V30 12606 H 1231.76 -1.26723 -1.00761 0
M  V30 12607 H 1233.75 -0.544827 -4.01016 0
M  V30 12608 H 1232.32 0.0436534 -3.1257 0
M  V30 12609 H 1231.54 -2.44185 -3.09463 0
M  V30 12610 H 1232.83 -2.77145 -4.26694 0
M  V30 12611 H 1232.22 0.0903105 -5.65628 0
M  V30 12612 H 1230.78 -0.280415 -6.51197 0
M  V30 12613 N 1234.21 1.05064 -1.1747 0
M  V30 12614 C 1235.18 2.1101 -0.89485 0
M  V30 12615 C 1236.18 1.60384 0.11553 0
M  V30 12616 O 1237.37 1.73808 -0.116785 0
M  V30 12617 C 1234.5 3.39194 -0.340642 0
M  V30 12618 H 1235.69 2.37269 -1.83421 0
M  V30 12619 H 1233.24 1.21329 -0.985343 0
M  V30 12620 H 1233.98 3.18591 0.605808 0
M  V30 12621 H 1233.76 3.77251 -1.06885 0
M  V30 12622 H 1235.25 4.17281 -0.163204 0
M  V30 12623 N 1235.69 0.975146 1.23809 0
M  V30 12624 C 1237.1 0.678873 1.7392 0
M  V30 12625 C 1237.45 -0.805133 1.78919 0
M  V30 12626 O 1236.58 -1.62984 1.42356 0
M  V30 12627 C 1237.17 1.22562 3.15854 0
M  V30 12628 C 1235.73 0.979096 3.63443 0
M  V30 12629 C 1234.88 1.35649 2.41857 0
M  V30 12630 H 1237.83 1.14961 1.09406 0
M  V30 12631 H 1237.85 0.595489 3.75811 0
M  V30 12632 H 1237.36 2.30571 3.12184 0
M  V30 12633 H 1235.46 -0.0851407 3.72503 0
M  V30 12634 H 1235.58 1.62998 4.5052 0
M  V30 12635 H 1233.94 0.774916 2.42626 0
M  V30 12636 H 1234.72 2.44624 2.40861 0
M  V30 12637 N 1237.17 -1.38817 0.746158 0
M  V30 12638 C 1238.42 -1.99519 0.295839 0
M  V30 12639 C 1238.73 -1.59897 -1.12661 0
M  V30 12640 O 1239.94 -2.13514 -1.67702 0
M  V30 12641 C 1238.39 -3.56712 0.477984 0
M  V30 12642 C 1238 -4.0529 1.90904 0
M  V30 12643 C 1239.75 -4.24405 0.0900039 0
M  V30 12644 C 1237.65 -5.55097 2.04014 0
M  V30 12645 H 1236.58 -0.746389 0.106861 0
M  V30 12646 H 1239.23 -1.58676 0.921637 0
M  V30 12647 H 1237.62 -3.95406 -0.216884 0
M  V30 12648 H 1238.79 -3.77904 2.63677 0
M  V30 12649 H 1237.1 -3.50297 2.25125 0
M  V30 12650 H 1239.7 -5.3444 0.16682 0
M  V30 12651 H 1240.04 -4.05166 -0.956349 0
M  V30 12652 H 1240.58 -3.90924 0.736446 0
M  V30 12653 H 1237.32 -5.7923 3.06877 0
M  V30 12654 H 1236.84 -5.8425 1.35692 0
M  V30 12655 H 1238.52 -6.20682 1.82656 0
M  V30 12656 N 1238.65 -0.49465 -1.49636 0
M  V30 12657 C 1239.88 0.0491129 -2.06842 0
M  V30 12658 C 1240.29 1.31395 -1.35576 0
M  V30 12659 O 1239.65 1.7731 -0.432135 0
M  V30 12660 C 1239.7 0.313171 -3.60141 0
M  V30 12661 O 1239.42 -0.90152 -4.28724 0
M  V30 12662 C 1240.92 0.901284 -4.34041 0
M  V30 12663 H 1238.14 -0.0176186 -0.670769 0
M  V30 12664 H 1240.68 -0.690188 -1.92501 0
M  V30 12665 H 1238.84 1.00244 -3.74206 0
M  V30 12666 H 1239.25 -0.660477 -5.20325 0
M  V30 12667 H 1240.73 1.03567 -5.42197 0
M  V30 12668 H 1241.2 1.89746 -3.96097 0
M  V30 12669 H 1241.81 0.249677 -4.24566 0
M  V30 12670 N 1240.13 1.55939 -0.228214 0
M  V30 12671 C 1241.37 1.98084 0.400884 0
M  V30 12672 C 1241.69 1.11727 1.59819 0
M  V30 12673 O 1240.96 0.195794 1.94919 0
M  V30 12674 H 1239.54 0.731558 0.151102 0
M  V30 12675 H 1242.21 1.92211 -0.322659 0
M  V30 12676 H 1241.3 3.03617 0.722706 0
M  V30 12677 N 1241.6 -0.0451101 1.57535 0
M  V30 12678 C 1242.83 -0.750231 1.92497 0
M  V30 12679 C 1243.24 -1.70268 0.824946 0
M  V30 12680 O 1242.59 -1.82511 -0.208656 0
M  V30 12681 C 1242.65 -1.57543 3.23141 0
M  V30 12682 C 1242.31 -0.789495 4.50129 0
M  V30 12683 C 1243.31 -0.0968367 5.1981 0
M  V30 12684 C 1240.99 -0.748776 4.96688 0
M  V30 12685 C 1242.99 0.626018 6.34318 0
M  V30 12686 C 1240.67 -0.0221652 6.11096 0
M  V30 12687 C 1241.67 0.664006 6.79765 0
M  V30 12688 O 1241.36 1.37885 7.91987 0
M  V30 12689 H 1241.09 -0.216895 0.64026 0
M  V30 12690 H 1243.65 -0.011558 2.05397 0
M  V30 12691 H 1241.88 -2.35754 3.06524 0
M  V30 12692 H 1243.57 -2.16168 3.4355 0
M  V30 12693 H 1244.33 -0.119429 4.84853 0
M  V30 12694 H 1240.21 -1.27235 4.43094 0
M  V30 12695 H 1243.75 1.16215 6.87852 0
M  V30 12696 H 1239.65 0.00240707 6.455 0
M  V30 12697 H 1240.42 1.29087 8.08257 0
M  V30 12698 N 1243.08 -1.54377 -0.317073 0
M  V30 12699 C 1244.5 -1.45232 -0.6618 0
M  V30 12700 C 1244.7 -0.630457 -1.91383 0
M  V30 12701 O 1243.75 -0.13181 -2.52156 0
M  V30 12702 C 1245.07 -2.89025 -0.829761 0
M  V30 12703 C 1246.62 -2.98967 -0.926685 0
M  V30 12704 C 1247.09 -4.43923 -1.12677 0
M  V30 12705 N 1248.58 -4.47564 -1.19335 0
M  V30 12706 C 1249.32 -5.56887 -1.36617 0
M  V30 12707 N 1248.81 -6.76167 -1.50899 0
M  V30 12708 N 1250.61 -5.44546 -1.39377 0
M  V30 12709 H 1242.76 -2.0629 0.505766 0
M  V30 12710 H 1245.02 -0.933615 0.164522 0
M  V30 12711 H 1244.73 -3.51695 0.0190945 0
M  V30 12712 H 1244.6 -3.35515 -1.72364 0
M  V30 12713 H 1246.99 -2.36421 -1.76604 0
M  V30 12714 H 1247.07 -2.55798 -0.00913402 0
M  V30 12715 H 1246.71 -5.07059 -0.29224 0
M  V30 12716 H 1246.64 -4.84708 -2.05829 0
M  V30 12717 H 1249.13 -3.61623 -1.09715 0
M  V30 12718 H 1249.45 -7.55242 -1.63796 0
M  V30 12719 H 1247.79 -6.79062 -1.47985 0
M  V30 12720 H 1250.98 -4.50311 -1.27819 0
M  V30 12721 H 1251.15 -6.29799 -1.52502 0
M  V30 12722 N 1244.56 0.579466 -1.4656 0
M  V30 12723 C 1245.81 1.33379 -1.51304 0
M  V30 12724 C 1246.12 1.94855 -0.170507 0
M  V30 12725 O 1247.33 2.71331 -0.0957704 0
M  V30 12726 C 1245.78 2.41748 -2.66619 0
M  V30 12727 C 1245.39 1.8656 -4.07307 0
M  V30 12728 C 1247.14 3.18502 -2.80636 0
M  V30 12729 C 1245.04 2.92578 -5.13957 0
M  V30 12730 H 1243.97 0.501422 -0.56311 0
M  V30 12731 H 1246.62 0.618025 -1.72779 0
M  V30 12732 H 1245.01 3.16138 -2.3848 0
M  V30 12733 H 1246.18 1.18692 -4.45252 0
M  V30 12734 H 1244.5 1.22464 -3.97984 0
M  V30 12735 H 1247.09 3.9763 -3.57483 0
M  V30 12736 H 1247.44 3.71295 -1.8827 0
M  V30 12737 H 1247.97 2.51219 -3.08437 0
M  V30 12738 H 1244.71 2.44668 -6.08126 0
M  V30 12739 H 1244.23 3.58926 -4.80554 0
M  V30 12740 H 1245.91 3.56471 -5.39942 0
M  V30 12741 N 1246.04 1.3432 0.824371 0
M  V30 12742 C 1247.28 1.26783 1.58284 0
M  V30 12743 C 1247.62 -0.162282 1.93521 0
M  V30 12744 O 1246.89 -1.1073 1.59903 0
M  V30 12745 C 1247.18 2.15725 2.88331 0
M  V30 12746 C 1247.03 3.67266 2.59684 0
M  V30 12747 C 1248.35 2.04141 3.8989 0
M  V30 12748 H 1245.47 0.461893 0.574303 0
M  V30 12749 H 1248.11 1.64558 0.949769 0
M  V30 12750 H 1246.26 1.83639 3.42358 0
M  V30 12751 H 1247.93 4.09711 2.11978 0
M  V30 12752 H 1246.17 3.88426 1.93151 0
M  V30 12753 H 1246.84 4.24863 3.52414 0
M  V30 12754 H 1249.32 2.3231 3.45212 0
M  V30 12755 H 1248.2 2.68601 4.7869 0
M  V30 12756 H 1248.46 1.01795 4.30221 0
M  V30 12757 N 1247.52 -1.0444 1.18026 0
M  V30 12758 C 1248.75 -1.80971 0.996642 0
M  V30 12759 C 1249.15 -1.83568 -0.458192 0
M  V30 12760 O 1248.5 -1.26713 -1.33002 0
M  V30 12761 C 1248.56 -3.28051 1.47048 0
M  V30 12762 C 1248.22 -3.49122 2.94895 0
M  V30 12763 C 1249.22 -3.40621 3.92777 0
M  V30 12764 C 1246.91 -3.7584 3.33241 0
M  V30 12765 C 1248.9 -3.58535 5.27002 0
M  V30 12766 C 1246.59 -3.93402 4.6763 0
M  V30 12767 C 1247.58 -3.84749 5.6432 0
M  V30 12768 O 1247.27 -4.01813 6.96277 0
M  V30 12769 H 1247 -0.576873 0.352411 0
M  V30 12770 H 1249.56 -1.32542 1.56913 0
M  V30 12771 H 1247.79 -3.77431 0.841609 0
M  V30 12772 H 1249.48 -3.8613 1.25135 0
M  V30 12773 H 1250.24 -3.19948 3.64497 0
M  V30 12774 H 1246.12 -3.81674 2.58545 0
M  V30 12775 H 1249.67 -3.51698 6.02457 0
M  V30 12776 H 1245.56 -4.13568 4.95613 0
M  V30 12777 H 1246.33 -4.18995 7.03126 0
M  V30 12778 N 1248.99 -0.981699 -1.2329 0
M  V30 12779 C 1250.22 -0.669025 -1.96313 0
M  V30 12780 C 1250.64 0.757624 -1.72168 0
M  V30 12781 O 1250 1.51626 -0.993942 0
M  V30 12782 C 1250.05 -0.966875 -3.47396 0
M  V30 12783 O 1249.15 -0.0595933 -4.12357 0
M  V30 12784 H 1248.5 -0.251493 -0.61453 0
M  V30 12785 H 1251.03 -1.31564 -1.56691 0
M  V30 12786 H 1251.04 -0.904112 -3.97857 0
M  V30 12787 H 1249.71 -2.00651 -3.64296 0
M  V30 12788 H 1248.29 -0.176878 -3.7248 0
M  V30 12789 N 1250.47 1.3842 -0.753509 0
M  V30 12790 C 1251.88 1.82847 -0.377331 0
M  V30 12791 C 1252.23 1.62867 1.09401 0
M  V30 12792 O 1251.36 1.12981 1.84565 0
M  V30 12793 C 1251.95 3.31945 -0.678095 0
M  V30 12794 C 1250.51 3.7472 -0.355196 0
M  V30 12795 C 1249.66 2.61193 -0.931311 0
M  V30 12796 H 1252.61 1.2715 -0.949667 0
M  V30 12797 H 1252.63 3.80475 0.0437292 0
M  V30 12798 H 1252.14 3.46455 -1.74902 0
M  V30 12799 H 1250.25 3.65789 0.70915 0
M  V30 12800 H 1250.36 4.71487 -0.850693 0
M  V30 12801 H 1248.72 2.5219 -0.356695 0
M  V30 12802 H 1249.51 2.78503 -2.00727 0
M  V30 12803 N 1251.95 0.502579 1.49372 0
M  V30 12804 C 1253.18 -0.0403087 2.07361 0
M  V30 12805 C 1253.6 -1.29918 1.36026 0
M  V30 12806 O 1252.96 -1.76428 0.417488 0
M  V30 12807 C 1253.01 -0.275362 3.59547 0
M  V30 12808 O 1252.11 -1.34975 3.89686 0
M  V30 12809 H 1251.45 0.0269268 0.663454 0
M  V30 12810 H 1253.98 0.702652 1.92156 0
M  V30 12811 H 1253.99 -0.506392 4.04845 0
M  V30 12812 H 1252.67 0.644382 4.10878 0
M  V30 12813 H 1251.24 -1.10355 3.56197 0
M  V30 12814 N 1253.43 -1.55816 0.23648 0
M  V30 12815 C 1254.67 -1.98981 -0.391725 0
M  V30 12816 C 1255.01 -1.12428 -1.58346 0
M  V30 12817 O 1254.28 -0.185303 -1.93615 0
M  V30 12818 C 1254.57 -3.50831 -0.811759 0
M  V30 12819 C 1254.42 -4.48152 0.384648 0
M  V30 12820 C 1255.74 -4.07489 -1.66254 0
M  V30 12821 H 1252.86 -0.723404 -0.140911 0
M  V30 12822 H 1255.5 -1.87011 0.335706 0
M  V30 12823 H 1253.65 -3.61162 -1.43157 0
M  V30 12824 H 1255.32 -4.49814 1.02298 0
M  V30 12825 H 1253.56 -4.21406 1.02955 0
M  V30 12826 H 1254.23 -5.51979 0.0475809 0
M  V30 12827 H 1256.71 -4.00195 -1.13944 0
M  V30 12828 H 1255.59 -5.14026 -1.92531 0
M  V30 12829 H 1255.85 -3.55297 -2.6309 0
M  V30 12830 N 1254.91 0.036755 -1.57557 0
M  V30 12831 C 1255.82 1.05687 -2.09446 0
M  V30 12832 C 1256.83 1.40137 -1.03139 0
M  V30 12833 O 1258.01 1.49611 -1.34828 0
M  V30 12834 C 1255.07 2.34114 -2.55717 0
M  V30 12835 C 1254.13 2.06316 -3.76473 0
M  V30 12836 C 1253.37 3.2862 -4.20529 0
M  V30 12837 O 1253.59 4.3902 -3.64167 0
M  V30 12838 O 1252.52 3.14772 -5.13033 0
M  V30 12839 H 1256.35 0.64593 -2.96751 0
M  V30 12840 H 1253.94 0.253235 -1.47238 0
M  V30 12841 H 1255.82 3.09631 -2.85844 0
M  V30 12842 H 1254.49 2.74519 -1.71526 0
M  V30 12843 H 1253.4 1.28392 -3.51378 0
M  V30 12844 H 1254.73 1.70772 -4.61625 0
M  V30 12845 N 1256.39 1.54543 0.308881 0
M  V30 12846 C 1257.63 1.73107 1.043 0
M  V30 12847 C 1257.95 0.515481 1.88063 0
M  V30 12848 O 1257.22 -0.47036 1.90169 0
M  V30 12849 H 1255.8 0.638289 0.388068 0
M  V30 12850 H 1258.47 1.9188 0.341769 0
M  V30 12851 H 1257.56 2.61697 1.70063 0
M  V30 12852 N 1257.86 -0.571685 1.46866 0
M  V30 12853 C 1259.09 -1.36008 1.56578 0
M  V30 12854 C 1259.51 -1.86909 0.211326 0
M  V30 12855 O 1258.87 -1.62179 -0.810421 0
M  V30 12856 C 1258.92 -2.51598 2.58323 0
M  V30 12857 O 1258.02 -3.53383 2.1259 0
M  V30 12858 H 1257.36 -0.404593 0.526498 0
M  V30 12859 H 1259.89 -0.692357 1.92529 0
M  V30 12860 H 1259.9 -2.98366 2.78283 0
M  V30 12861 H 1258.58 -2.13904 3.56676 0
M  V30 12862 H 1257.16 -3.13019 2.02666 0
M  V30 12863 N 1259.34 -1.34755 -0.817236 0
M  V30 12864 C 1260.57 -1.30676 -1.61054 0
M  V30 12865 C 1260.99 0.115343 -1.87746 0
M  V30 12866 O 1260.35 1.07887 -1.45705 0
M  V30 12867 C 1260.4 -2.10881 -2.92509 0
M  V30 12868 O 1259.5 -1.48223 -3.84842 0
M  V30 12869 H 1258.84 -0.448531 -0.489608 0
M  V30 12870 H 1261.37 -1.77642 -1.01512 0
M  V30 12871 H 1261.38 -2.22446 -3.42026 0
M  V30 12872 H 1260.06 -3.14274 -2.72406 0
M  V30 12873 H 1258.63 -1.45434 -3.4337 0
M  V30 12874 N 1260.82 1.03812 -1.18578 0
M  V30 12875 C 1262.05 1.80702 -1.00769 0
M  V30 12876 C 1262.46 1.83509 0.443833 0
M  V30 12877 O 1261.82 1.2724 1.30829 0
M  V30 12878 C 1261.87 3.26185 -1.55838 0
M  V30 12879 O 1261.59 3.23612 -2.95308 0
M  V30 12880 C 1263.09 4.1971 -1.42682 0
M  V30 12881 H 1260.31 0.568972 -0.355685 0
M  V30 12882 H 1262.86 1.30817 -1.57185 0
M  V30 12883 H 1261.01 3.73293 -1.03592 0
M  V30 12884 H 1261.43 4.14769 -3.2104 0
M  V30 12885 H 1262.9 5.19716 -1.86008 0
M  V30 12886 H 1263.38 4.37588 -0.375924 0
M  V30 12887 H 1263.98 3.78469 -1.94013 0
M  V30 12888 N 1262.3 0.988223 1.22768 0
M  V30 12889 C 1263.21 0.543407 2.2822 0
M  V30 12890 C 1264.22 -0.405563 1.69208 0
M  V30 12891 O 1265.4 -0.273551 1.99534 0
M  V30 12892 C 1262.46 -0.139495 3.46419 0
M  V30 12893 C 1261.53 0.851853 4.20764 0
M  V30 12894 C 1260.76 0.201446 5.3332 0
M  V30 12895 O 1260.98 -1.00573 5.61464 0
M  V30 12896 O 1259.92 0.903956 5.95073 0
M  V30 12897 H 1263.74 1.42059 2.68427 0
M  V30 12898 H 1261.33 0.756239 1.28846 0
M  V30 12899 H 1263.21 -0.522226 4.18152 0
M  V30 12900 H 1261.88 -0.991315 3.08147 0
M  V30 12901 H 1260.79 1.28543 3.51322 0
M  V30 12902 H 1262.12 1.67273 4.62905 0
M  V30 12903 N 1263.78 -1.38018 0.760839 0
M  V30 12904 C 1264.71 -2.32995 0.153557 0
M  V30 12905 C 1265.69 -1.55234 -0.695448 0
M  V30 12906 O 1266.87 -1.8352 -0.635148 0
M  V30 12907 C 1264 -3.39437 -0.734811 0
M  V30 12908 C 1262.96 -4.27998 0.0120287 0
M  V30 12909 C 1262.28 -5.25359 -0.995067 0
M  V30 12910 C 1263.58 -5.08687 1.18468 0
M  V30 12911 H 1265.28 -2.8403 0.946956 0
M  V30 12912 H 1262.82 -1.36562 0.456816 0
M  V30 12913 H 1264.77 -4.0485 -1.16938 0
M  V30 12914 H 1263.5 -2.86901 -1.56061 0
M  V30 12915 H 1262.16 -3.64102 0.427254 0
M  V30 12916 H 1261.81 -4.69108 -1.81512 0
M  V30 12917 H 1261.51 -5.85469 -0.499969 0
M  V30 12918 H 1263.03 -5.93648 -1.4288 0
M  V30 12919 H 1264.44 -5.67299 0.8273 0
M  V30 12920 H 1262.84 -5.78068 1.61112 0
M  V30 12921 H 1263.91 -4.42 1.99409 0
M  V30 12922 N 1265.25 -0.510493 -1.49103 0
M  V30 12923 C 1266.2 0.276449 -2.30951 0
M  V30 12924 C 1267.2 0.953893 -1.3999 0
M  V30 12925 O 1268.4 0.880499 -1.56994 0
M  V30 12926 H 1264.78 0.108013 -0.744202 0
M  V30 12927 H 1266.75 -0.433725 -2.95231 0
M  V30 12928 C 1265.5 1.32234 -3.21573 0
M  V30 12929 H 1264.82 0.810468 -3.91499 0
M  V30 12930 H 1266.26 1.84476 -3.81765 0
M  V30 12931 C 1264.72 2.3456 -2.41833 0
M  V30 12932 O 1265.25 3.40627 -2.12922 0
M  V30 12933 N 1263.45 2.07272 -2.03682 0
M  V30 12934 H 1263 1.21036 -2.27394 0
M  V30 12935 H 1262.96 2.75963 -1.50638 0
M  V30 12936 N 1266.73 1.55688 -0.24474 0
M  V30 12937 C 1267.66 2.24272 0.64995 0
M  V30 12938 C 1268.64 1.22226 1.183 0
M  V30 12939 O 1269.83 1.50873 1.22274 0
M  V30 12940 C 1266.96 2.94053 1.84798 0
M  V30 12941 C 1265.91 4.02769 1.44779 0
M  V30 12942 C 1265.24 4.59965 2.72647 0
M  V30 12943 C 1266.54 5.18601 0.62047 0
M  V30 12944 H 1268.23 2.99298 0.0780654 0
M  V30 12945 H 1265.78 1.43955 0.0361069 0
M  V30 12946 H 1267.73 3.40732 2.47951 0
M  V30 12947 H 1266.45 2.16511 2.44521 0
M  V30 12948 H 1265.11 3.56856 0.839609 0
M  V30 12949 H 1264.76 3.79126 3.30564 0
M  V30 12950 H 1264.46 5.33352 2.46596 0
M  V30 12951 H 1265.99 5.09376 3.36703 0
M  V30 12952 H 1267.4 5.61519 1.15625 0
M  V30 12953 H 1265.8 5.98364 0.456097 0
M  V30 12954 H 1266.87 4.83503 -0.367798 0
M  V30 12955 N 1268.21 -0.0283989 1.57574 0
M  V30 12956 C 1269.62 -0.574912 1.77628 0
M  V30 12957 C 1269.97 -1.75563 0.875903 0
M  V30 12958 O 1269.1 -2.16284 0.0709141 0
M  V30 12959 C 1269.69 -1.04972 3.22128 0
M  V30 12960 C 1268.25 -1.54175 3.43376 0
M  V30 12961 C 1267.4 -0.480127 2.73112 0
M  V30 12962 H 1270.35 0.197826 1.57462 0
M  V30 12963 H 1270.37 -1.91705 3.28678 0
M  V30 12964 H 1269.88 -0.190173 3.87634 0
M  V30 12965 H 1267.98 -2.42313 2.83046 0
M  V30 12966 H 1268.1 -1.58879 4.51989 0
M  V30 12967 H 1266.46 -0.935314 2.36905 0
M  V30 12968 H 1267.24 0.369973 3.41301 0
M  V30 12969 N 1269.69 -1.54705 -0.300681 0
M  V30 12970 C 1270.6 -1.88736 -1.39341 0
M  V30 12971 C 1271.61 -0.78155 -1.5546 0
M  V30 12972 O 1272.79 -1.07804 -1.70118 0
M  V30 12973 C 1269.85 -2.12795 -2.73713 0
M  V30 12974 C 1268.92 -3.36504 -2.66577 0
M  V30 12975 C 1268.15 -3.59407 -3.94541 0
M  V30 12976 O 1268.37 -2.85315 -4.93914 0
M  V30 12977 O 1267.31 -4.52923 -3.96415 0
M  V30 12978 H 1271.13 -2.817 -1.13484 0
M  V30 12979 H 1268.72 -1.40899 -0.496771 0
M  V30 12980 H 1270.6 -2.29819 -3.53215 0
M  V30 12981 H 1269.27 -1.23017 -2.99414 0
M  V30 12982 H 1268.18 -3.24844 -1.85546 0
M  V30 12983 H 1269.51 -4.26414 -2.45829 0
M  V30 12984 N 1271.17 0.563888 -1.47167 0
M  V30 12985 C 1272.39 1.34693 -1.57052 0
M  V30 12986 C 1272.81 1.87534 -0.218308 0
M  V30 12987 O 1272.17 1.64639 0.787416 0
M  V30 12988 C 1272.22 2.52148 -2.59044 0
M  V30 12989 O 1271.94 2.01492 -3.89015 0
M  V30 12990 C 1273.44 3.4445 -2.7905 0
M  V30 12991 H 1270.66 0.410822 -0.530534 0
M  V30 12992 H 1273.2 0.683731 -1.92731 0
M  V30 12993 H 1271.36 3.14419 -2.26317 0
M  V30 12994 H 1271.77 2.78122 -4.44689 0
M  V30 12995 H 1273.25 4.23297 -3.54293 0
M  V30 12996 H 1273.72 3.97575 -1.86631 0
M  V30 12997 H 1274.33 2.88 -3.12948 0
M  V30 12998 N 1272.64 1.35187 0.810078 0
M  V30 12999 C 1273.61 1.27698 1.90331 0
M  V30 13000 C 1274.61 0.189216 1.59683 0
M  V30 13001 O 1275.8 0.442689 1.68481 0
M  V30 13002 C 1272.93 0.974631 3.26671 0
M  V30 13003 H 1274.12 2.24902 1.98392 0
M  V30 13004 H 1271.68 1.1966 1.00554 0
M  V30 13005 H 1272.41 0.0063068 3.24299 0
M  V30 13006 H 1272.2 1.76158 3.50301 0
M  V30 13007 H 1273.69 0.947743 4.06703 0
M  V30 13008 N 1274.12 -1.03182 1.19127 0
M  V30 13009 C 1275.07 -2.13507 0.922899 0
M  V30 13010 C 1276.06 -1.68973 -0.120171 0
M  V30 13011 O 1277.27 -1.79977 0.0288007 0
M  V30 13012 H 1273.65 -0.697516 0.281027 0
M  V30 13013 H 1275.62 -2.33335 1.86003 0
M  V30 13014 C 1274.37 -3.44442 0.474864 0
M  V30 13015 H 1273.69 -3.79125 1.26902 0
M  V30 13016 H 1275.13 -4.22744 0.326162 0
M  V30 13017 C 1273.59 -3.27002 -0.81063 0
M  V30 13018 O 1274.12 -3.55374 -1.87276 0
M  V30 13019 N 1272.32 -2.80303 -0.766713 0
M  V30 13020 H 1271.87 -2.57414 0.0978672 0
M  V30 13021 H 1271.83 -2.69015 -1.62721 0
M  V30 13022 N 1275.6 -0.99472 -1.22242 0
M  V30 13023 C 1276.83 -0.689809 -1.95592 0
M  V30 13024 C 1277.25 0.739321 -1.72961 0
M  V30 13025 O 1276.61 1.50563 -1.00997 0
M  V30 13026 C 1276.66 -1.00367 -3.46351 0
M  V30 13027 O 1275.76 -0.103326 -4.12271 0
M  V30 13028 H 1275.1 -0.257997 -0.611828 0
M  V30 13029 H 1277.63 -1.33219 -1.55286 0
M  V30 13030 H 1277.64 -0.946259 -3.96875 0
M  V30 13031 H 1276.32 -2.04504 -3.62148 0
M  V30 13032 H 1274.89 -0.216374 -3.72272 0
M  V30 13033 N 1277.08 1.37613 -0.768148 0
M  V30 13034 C 1278.32 2.00075 -0.331331 0
M  V30 13035 C 1278.66 1.60839 1.08833 0
M  V30 13036 O 1277.93 0.852849 1.74805 0
M  V30 13037 C 1278.22 3.57009 -0.470789 0
M  V30 13038 C 1278.07 4.06166 -1.9326 0
M  V30 13039 C 1279.39 4.39916 0.127111 0
M  V30 13040 H 1276.51 0.726855 -0.121864 0
M  V30 13041 H 1279.15 1.63343 -0.970518 0
M  V30 13042 H 1277.3 3.88431 0.0733688 0
M  V30 13043 H 1278.97 3.85325 -2.53618 0
M  V30 13044 H 1277.21 3.58492 -2.44266 0
M  V30 13045 H 1277.88 5.15219 -1.98125 0
M  V30 13046 H 1280.36 4.14732 -0.337144 0
M  V30 13047 H 1279.24 5.489 -0.000624226 0
M  V30 13048 H 1279.5 4.25018 1.21704 0
M  V30 13049 N 1278.56 0.518393 1.4883 0
M  V30 13050 C 1279.78 -0.0162 2.06894 0
M  V30 13051 C 1280.2 -1.29222 1.37649 0
M  V30 13052 O 1279.56 -1.766 0.460288 0
M  V30 13053 C 1279.61 -0.255836 3.60594 0
M  V30 13054 O 1279.33 0.969612 4.27235 0
M  V30 13055 C 1280.83 -0.832117 4.3542 0
M  V30 13056 H 1278.05 0.0282877 0.670403 0
M  V30 13057 H 1280.59 0.720726 1.91379 0
M  V30 13058 H 1278.75 -0.942782 3.75753 0
M  V30 13059 H 1279.16 0.743172 5.19208 0
M  V30 13060 H 1280.64 -0.949279 5.43776 0
M  V30 13061 H 1281.11 -1.83421 3.99066 0
M  V30 13062 H 1281.72 -0.1821 4.2491 0
M  V30 13063 N 1280.03 -1.55556 0.252993 0
M  V30 13064 C 1280.96 -2.24613 -0.638047 0
M  V30 13065 C 1281.95 -1.22852 -1.1765 0
M  V30 13066 O 1283.13 -1.51519 -1.21472 0
M  V30 13067 C 1280.26 -2.95029 -1.83236 0
M  V30 13068 C 1279.21 -4.03531 -1.42641 0
M  V30 13069 C 1278.54 -4.61404 -2.70204 0
M  V30 13070 C 1279.84 -5.18923 -0.592958 0
M  V30 13071 H 1281.53 -2.99335 -0.0621918 0
M  V30 13072 H 1279.08 -1.43972 -0.0284722 0
M  V30 13073 H 1281.03 -3.42042 -2.46141 0
M  V30 13074 H 1279.76 -2.17805 -2.43369 0
M  V30 13075 H 1278.42 -3.57296 -0.820672 0
M  V30 13076 H 1278.06 -3.80874 -3.28548 0
M  V30 13077 H 1277.76 -5.34652 -2.43764 0
M  V30 13078 H 1279.29 -5.11154 -3.33997 0
M  V30 13079 H 1280.7 -5.62124 -1.12646 0
M  V30 13080 H 1279.1 -5.98598 -0.424358 0
M  V30 13081 H 1280.17 -4.83301 0.393434 0
M  V30 13082 N 1281.51 0.0200419 -1.57587 0
M  V30 13083 C 1282.74 0.724241 -1.94344 0
M  V30 13084 C 1283.16 1.67612 -0.853688 0
M  V30 13085 O 1282.52 1.80303 0.189873 0
M  V30 13086 C 1282.57 1.44967 -3.30177 0
M  V30 13087 O 1281.67 2.56326 -3.23064 0
M  V30 13088 H 1281.01 0.194142 -0.634984 0
M  V30 13089 H 1283.54 -0.0271756 -2.04582 0
M  V30 13090 H 1283.55 1.81758 -3.65278 0
M  V30 13091 H 1282.23 0.75161 -4.09052 0
M  V30 13092 H 1280.81 2.22011 -2.99609 0
M  V30 13093 N 1282.99 1.54862 0.292472 0
M  V30 13094 C 1284.27 1.65237 1.04671 0
M  V30 13095 C 1284.65 0.506168 2.04942 0
M  V30 13096 O 1284 -0.496123 2.23049 0
M  V30 13097 C 1284.21 3.03618 1.72095 0
M  V30 13098 C 1285.55 3.6072 2.23979 0
M  V30 13099 O 1286.58 3.06126 1.82114 0
M  V30 13100 O 1285.44 4.56328 3.0071 0
M  V30 13101 H 1282.53 0.670347 0.484319 0
M  V30 13102 H 1285.08 1.67206 0.28988 0
M  V30 13103 H 1283.85 3.78482 0.993324 0
M  V30 13104 H 1283.47 3.05464 2.54514 0
M  V30 13105 N 1284.47 -0.556076 1.47464 0
M  V30 13106 C 1285.4 -1.67275 1.62915 0
M  V30 13107 C 1286.38 -1.63229 0.478562 0
M  V30 13108 O 1287.56 -1.80833 0.708032 0
M  V30 13109 C 1284.69 -3.05911 1.64426 0
M  V30 13110 C 1283.65 -3.24804 2.78722 0
M  V30 13111 C 1282.97 -4.64238 2.65307 0
M  V30 13112 C 1284.27 -3.10071 4.20302 0
M  V30 13113 H 1285.97 -1.54601 2.56396 0
M  V30 13114 H 1283.51 -0.742337 1.23391 0
M  V30 13115 H 1285.47 -3.83878 1.73826 0
M  V30 13116 H 1284.19 -3.19547 0.675053 0
M  V30 13117 H 1282.85 -2.49246 2.68835 0
M  V30 13118 H 1282.5 -4.74675 1.66412 0
M  V30 13119 H 1282.2 -4.77828 3.41986 0
M  V30 13120 H 1283.72 -5.44339 2.76637 0
M  V30 13121 H 1285.14 -3.77855 4.3116 0
M  V30 13122 H 1283.53 -3.3517 4.97776 0
M  V30 13123 H 1284.6 -2.06803 4.38589 0
M  V30 13124 N 1285.95 -1.35615 -0.802897 0
M  V30 13125 C 1286.88 -1.24695 -1.92312 0
M  V30 13126 C 1287.89 -0.169409 -1.61916 0
M  V30 13127 O 1289.08 -0.422995 -1.73416 0
M  V30 13128 C 1286.18 -0.898229 -3.2678 0
M  V30 13129 C 1285.35 -2.07489 -3.85054 0
M  V30 13130 C 1284.41 -1.70137 -4.97936 0
M  V30 13131 O 1283.44 -2.42057 -5.15167 0
M  V30 13132 N 1284.64 -0.627153 -5.77102 0
M  V30 13133 H 1287.41 -2.21208 -2.02205 0
M  V30 13134 H 1284.97 -1.28832 -0.980503 0
M  V30 13135 H 1286.96 -0.629766 -3.9977 0
M  V30 13136 H 1285.53 -0.0226571 -3.12592 0
M  V30 13137 H 1284.75 -2.50694 -3.04214 0
M  V30 13138 H 1286.04 -2.86133 -4.2072 0
M  V30 13139 H 1285.44 -0.0296879 -5.65692 0
M  V30 13140 H 1283.99 -0.41848 -6.50455 0
M  V30 13141 N 1287.43 1.02549 -1.19673 0
M  V30 13142 C 1288.84 1.57454 -1.00325 0
M  V30 13143 C 1289.19 1.91136 0.442889 0
M  V30 13144 O 1288.31 1.7126 1.32284 0
M  V30 13145 C 1288.91 2.86091 -1.81486 0
M  V30 13146 C 1287.47 3.37557 -1.6653 0
M  V30 13147 C 1286.61 2.1096 -1.79975 0
M  V30 13148 H 1289.56 0.850364 -1.33994 0
M  V30 13149 H 1289.59 3.5713 -1.31296 0
M  V30 13150 H 1289.1 2.61546 -2.86733 0
M  V30 13151 H 1287.2 3.67083 -0.638834 0
M  V30 13152 H 1287.31 4.1036 -2.47269 0
M  V30 13153 H 1285.68 2.22993 -1.23071 0
M  V30 13154 H 1286.46 1.88852 -2.86688 0
M  V30 13155 N 1288.9 1.00119 1.21713 0
M  V30 13156 C 1290.15 0.680377 1.90303 0
M  V30 13157 C 1290.47 -0.790927 1.7824 0
M  V30 13158 O 1289.74 -1.5676 1.17486 0
M  V30 13159 H 1288.32 0.248665 0.704397 0
M  V30 13160 H 1290.98 1.26948 1.47886 0
M  V30 13161 H 1290.08 0.950188 2.97284 0
M  V30 13162 N 1290.38 -1.37203 0.775435 0
M  V30 13163 C 1291.63 -1.99897 0.341936 0
M  V30 13164 C 1291.96 -1.61414 -1.07978 0
M  V30 13165 O 1291.24 -0.862108 -1.7435 0
M  V30 13166 C 1291.52 -3.56755 0.489715 0
M  V30 13167 C 1291.37 -4.05135 1.95411 0
M  V30 13168 C 1292.69 -4.39978 -0.103779 0
M  V30 13169 H 1289.81 -0.726199 0.125717 0
M  V30 13170 H 1292.45 -1.62826 0.979167 0
M  V30 13171 H 1290.6 -3.88464 -0.0527684 0
M  V30 13172 H 1292.27 -3.83975 2.55658 0
M  V30 13173 H 1290.52 -3.57192 2.46164 0
M  V30 13174 H 1291.19 -5.14161 2.00855 0
M  V30 13175 H 1293.66 -4.14547 0.359134 0
M  V30 13176 H 1292.54 -5.48892 0.0297337 0
M  V30 13177 H 1292.8 -4.25658 -1.19448 0
M  V30 13178 N 1291.86 -0.526279 -1.48553 0
M  V30 13179 C 1292.79 0.275579 -2.27537 0
M  V30 13180 C 1293.8 0.90782 -1.35139 0
M  V30 13181 O 1294.99 0.786887 -1.6022 0
M  V30 13182 C 1292.09 1.40515 -3.08397 0
M  V30 13183 C 1291.27 0.875523 -4.28548 0
M  V30 13184 C 1290.33 1.88577 -4.91249 0
M  V30 13185 O 1289.35 1.44419 -5.50574 0
M  V30 13186 N 1290.55 3.21774 -4.83158 0
M  V30 13187 H 1293.32 -0.401803 -2.96994 0
M  V30 13188 H 1290.88 -0.360378 -1.57838 0
M  V30 13189 H 1292.87 2.07907 -3.47213 0
M  V30 13190 H 1291.44 1.98626 -2.41384 0
M  V30 13191 H 1290.66 0.025728 -3.94192 0
M  V30 13192 H 1291.95 0.500493 -5.06332 0
M  V30 13193 H 1291.35 3.60319 -4.36104 0
M  V30 13194 H 1289.9 3.84808 -5.26085 0
M  V30 13195 N 1293.34 1.5542 -0.261239 0
M  V30 13196 C 1294.57 2.03391 0.362698 0
M  V30 13197 C 1294.98 1.13947 1.51039 0
M  V30 13198 O 1294.32 0.149231 1.83093 0
M  V30 13199 C 1294.38 3.47558 0.918889 0
M  V30 13200 C 1294.04 4.56894 -0.0983829 0
M  V30 13201 C 1295.04 5.1182 -0.913018 0
M  V30 13202 C 1292.73 5.01779 -0.228616 0
M  V30 13203 C 1294.72 6.10138 -1.84421 0
M  V30 13204 C 1292.41 5.99926 -1.16329 0
M  V30 13205 C 1293.41 6.53984 -1.9696 0
M  V30 13206 O 1293.09 7.50214 -2.8885 0
M  V30 13207 H 1292.83 0.670166 0.0886182 0
M  V30 13208 H 1295.38 2.01722 -0.386967 0
M  V30 13209 H 1293.61 3.46423 1.71838 0
M  V30 13210 H 1295.3 3.78947 1.45443 0
M  V30 13211 H 1296.06 4.77965 -0.823066 0
M  V30 13212 H 1291.94 4.59356 0.388945 0
M  V30 13213 H 1295.49 6.52258 -2.47397 0
M  V30 13214 H 1291.38 6.332 -1.25412 0
M  V30 13215 H 1292.15 7.67881 -2.83374 0
M  V30 13216 N 1294.82 -0.0116844 1.57596 0
M  V30 13217 C 1295.76 -1.02514 2.08791 0
M  V30 13218 C 1296.76 -1.36341 1.00536 0
M  V30 13219 O 1297.96 -1.35042 1.19011 0
M  V30 13220 H 1294.34 -0.348201 0.666528 0
M  V30 13221 H 1296.31 -0.567698 2.9295 0
M  V30 13222 C 1295.06 -2.312 2.59696 0
M  V30 13223 H 1294.38 -2.06036 3.42621 0
M  V30 13224 H 1295.82 -3.00417 2.99208 0
M  V30 13225 C 1294.28 -3.01372 1.50586 0
M  V30 13226 O 1294.81 -3.91896 0.882046 0
M  V30 13227 N 1293.02 -2.62997 1.23616 0
M  V30 13228 H 1292.56 -1.89466 1.74529 0
M  V30 13229 H 1292.52 -3.10264 0.508289 0
M  V30 13230 N 1296.29 -1.55015 -0.284256 0
M  V30 13231 C 1297.54 -1.74297 -1.01506 0
M  V30 13232 C 1297.86 -0.545134 -1.8785 0
M  V30 13233 O 1299.06 -0.620118 -2.64323 0
M  V30 13234 C 1297.52 -3.08438 -1.85456 0
M  V30 13235 C 1297.13 -4.35753 -1.04034 0
M  V30 13236 C 1298.87 -3.37073 -2.58035 0
M  V30 13237 C 1296.78 -5.60938 -1.87358 0
M  V30 13238 H 1295.71 -0.649656 -0.382705 0
M  V30 13239 H 1298.36 -1.81484 -0.271239 0
M  V30 13240 H 1296.74 -2.95259 -2.63891 0
M  V30 13241 H 1297.91 -4.59816 -0.300954 0
M  V30 13242 H 1296.23 -4.14178 -0.429616 0
M  V30 13243 H 1298.83 -4.27806 -3.20759 0
M  V30 13244 H 1299.17 -2.56698 -3.27738 0
M  V30 13245 H 1299.7 -3.51299 -1.86638 0
M  V30 13246 H 1296.44 -6.44029 -1.22096 0
M  V30 13247 H 1295.96 -5.41035 -2.58923 0
M  V30 13248 H 1297.64 -5.98819 -2.44999 0
M  V30 13249 N 1297.77 0.548248 -1.47757 0
M  V30 13250 C 1299 1.3302 -1.58472 0
M  V30 13251 C 1299.41 1.87292 -0.238186 0
M  V30 13252 O 1298.77 1.65465 0.76991 0
M  V30 13253 C 1298.82 2.49386 -2.61704 0
M  V30 13254 O 1298.54 1.97355 -3.9113 0
M  V30 13255 C 1300.04 3.41471 -2.82688 0
M  V30 13256 H 1297.26 0.405172 -0.534861 0
M  V30 13257 H 1299.81 0.663251 -1.93446 0
M  V30 13258 H 1297.96 3.12001 -2.29639 0
M  V30 13259 H 1298.38 2.7339 -4.47614 0
M  V30 13260 H 1299.85 4.19516 -3.58762 0
M  V30 13261 H 1300.33 3.95573 -1.90837 0
M  V30 13262 H 1300.93 2.84664 -3.15985 0
M  V30 13263 N 1299.25 1.36039 0.795694 0
M  V30 13264 C 1300.5 1.29251 1.54845 0
M  V30 13265 C 1300.81 -0.127926 1.95181 0
M  V30 13266 O 1302.02 -0.318141 2.6963 0
M  V30 13267 C 1300.47 2.26736 2.79497 0
M  V30 13268 C 1300.08 3.74183 2.46355 0
M  V30 13269 C 1301.83 2.28913 3.5749 0
M  V30 13270 C 1299.73 4.63462 3.67365 0
M  V30 13271 H 1298.66 0.48027 0.581255 0
M  V30 13272 H 1301.31 1.61366 0.873693 0
M  V30 13273 H 1299.7 1.87608 3.4874 0
M  V30 13274 H 1300.87 4.22011 1.8505 0
M  V30 13275 H 1299.18 3.7472 1.81586 0
M  V30 13276 H 1301.78 2.92828 4.47388 0
M  V30 13277 H 1302.12 1.2959 3.95616 0
M  V30 13278 H 1302.66 2.66627 2.9522 0
M  V30 13279 H 1299.4 5.63824 3.34339 0
M  V30 13280 H 1298.92 4.20354 4.27858 0
M  V30 13281 H 1300.6 4.79424 4.34467 0
M  V30 13282 N 1300.73 -1.01913 1.20215 0
M  V30 13283 C 1301.96 -1.78817 1.0348 0
M  V30 13284 C 1302.37 -1.84499 -0.419152 0
M  V30 13285 O 1301.71 -1.29506 -1.30284 0
M  V30 13286 C 1301.77 -3.24858 1.53973 0
M  V30 13287 C 1301.44 -3.42788 3.02234 0
M  V30 13288 C 1302.43 -3.32213 3.99914 0
M  V30 13289 C 1300.12 -3.68687 3.41138 0
M  V30 13290 C 1302.11 -3.47276 5.34489 0
M  V30 13291 C 1299.8 -3.83394 4.7587 0
M  V30 13292 C 1300.8 -3.72693 5.72354 0
M  V30 13293 O 1300.48 -3.86953 7.04643 0
M  V30 13294 H 1300.22 -0.569268 0.364568 0
M  V30 13295 H 1302.77 -1.29184 1.59689 0
M  V30 13296 H 1301 -3.7556 0.921478 0
M  V30 13297 H 1302.69 -3.83388 1.33297 0
M  V30 13298 H 1303.46 -3.12145 3.71202 0
M  V30 13299 H 1299.33 -3.76104 2.66583 0
M  V30 13300 H 1302.88 -3.3884 6.09782 0
M  V30 13301 H 1298.78 -4.02962 5.04273 0
M  V30 13302 H 1299.54 -4.03986 7.11855 0
M  V30 13303 N 1302.21 -1.00763 -1.2118 0
M  V30 13304 C 1303.17 -0.575183 -2.21865 0
M  V30 13305 C 1304.17 0.349871 -1.56948 0
M  V30 13306 O 1305.36 0.139795 -1.73638 0
M  V30 13307 C 1302.49 0.161308 -3.40518 0
M  V30 13308 H 1303.68 -1.46578 -2.61639 0
M  V30 13309 H 1301.24 -0.79643 -1.34487 0
M  V30 13310 H 1301.97 1.06723 -3.06236 0
M  V30 13311 H 1301.76 -0.503101 -3.88859 0
M  V30 13312 H 1303.25 0.451527 -4.15152 0
M  V30 13313 N 1303.68 1.3679 -0.7827 0
M  V30 13314 C 1304.93 1.99712 -0.352533 0
M  V30 13315 C 1305.26 1.61984 1.0712 0
M  V30 13316 O 1304.54 0.871342 1.7389 0
M  V30 13317 C 1304.82 3.5649 -0.508628 0
M  V30 13318 C 1304.67 4.04093 -1.97557 0
M  V30 13319 C 1305.99 4.40026 0.0804447 0
M  V30 13320 H 1303.11 0.725522 -0.129566 0
M  V30 13321 H 1305.75 1.62305 -0.987788 0
M  V30 13322 H 1303.9 3.88487 0.0321664 0
M  V30 13323 H 1305.58 3.82613 -2.57691 0
M  V30 13324 H 1303.82 3.55881 -2.48055 0
M  V30 13325 H 1304.49 5.13088 -2.03579 0
M  V30 13326 H 1306.97 4.14351 -0.381113 0
M  V30 13327 H 1305.84 5.48868 -0.0588424 0
M  V30 13328 H 1306.1 4.26285 1.17189 0
M  V30 13329 N 1305.16 0.53415 1.48272 0
M  V30 13330 C 1306.07 -0.230062 2.33469 0
M  V30 13331 C 1307.09 -0.934889 1.46751 0
M  V30 13332 O 1308.26 -0.908921 1.79724 0
M  V30 13333 C 1305.33 -1.2609 3.22958 0
M  V30 13334 C 1304.39 -0.565983 4.25553 0
M  V30 13335 C 1303.62 -1.54771 5.10766 0
M  V30 13336 O 1303.85 -2.7807 4.9803 0
M  V30 13337 O 1302.78 -1.08482 5.92043 0
M  V30 13338 H 1306.61 0.468182 3.0007 0
M  V30 13339 H 1304.19 0.29502 1.46458 0
M  V30 13340 H 1306.07 -1.85652 3.783 0
M  V30 13341 H 1304.75 -1.94148 2.59014 0
M  V30 13342 H 1303.66 0.0702391 3.74034 0
M  V30 13343 H 1304.99 0.0727277 4.92146 0
M  V30 13344 N 1306.64 -1.55279 0.269478 0
M  V30 13345 C 1307.55 -2.25965 -0.63065 0
M  V30 13346 C 1308.57 -1.28357 -1.17476 0
M  V30 13347 O 1309.74 -1.61281 -1.20625 0
M  V30 13348 C 1306.81 -2.96263 -1.80081 0
M  V30 13349 C 1305.87 -4.09336 -1.29394 0
M  V30 13350 C 1305.1 -4.76272 -2.40833 0
M  V30 13351 O 1305.32 -4.42389 -3.60066 0
M  V30 13352 O 1304.26 -5.64334 -2.09309 0
M  V30 13353 H 1308.08 -3.03644 -0.0582069 0
M  V30 13354 H 1305.67 -1.49354 0.0370966 0
M  V30 13355 H 1307.55 -3.40461 -2.48322 0
M  V30 13356 H 1306.23 -2.21505 -2.36045 0
M  V30 13357 H 1305.13 -3.69605 -0.578154 0
M  V30 13358 H 1306.47 -4.85978 -0.780117 0
M  V30 13359 N 1308.12 0.00332656 -1.576 0
M  V30 13360 C 1309.07 1.01406 -2.09331 0
M  V30 13361 C 1310.06 1.35806 -1.01258 0
M  V30 13362 O 1311.27 1.34409 -1.19726 0
M  V30 13363 H 1307.64 0.344661 -0.668366 0
M  V30 13364 H 1309.61 0.552154 -2.93247 0
M  V30 13365 C 1308.36 2.29819 -2.60918 0
M  V30 13366 H 1307.68 2.04216 -3.43709 0
M  V30 13367 H 1309.12 2.98826 -3.00797 0
M  V30 13368 C 1307.58 3.0057 -1.52182 0
M  V30 13369 O 1308.11 3.91423 -0.902817 0
M  V30 13370 N 1306.32 2.62338 -1.25009 0
M  V30 13371 H 1305.87 1.88538 -1.75531 0
M  V30 13372 H 1305.82 3.0999 -0.524736 0
M  V30 13373 N 1309.6 1.55164 0.276031 0
M  V30 13374 C 1310.53 1.84243 1.36335 0
M  V30 13375 C 1311.54 0.726745 1.45679 0
M  V30 13376 O 1312.73 1.00456 1.4755 0
M  V30 13377 C 1309.83 1.98768 2.7449 0
M  V30 13378 C 1309 3.294 2.87775 0
M  V30 13379 C 1308.06 3.34029 4.06585 0
M  V30 13380 O 1307.09 4.07423 3.97486 0
M  V30 13381 N 1308.29 2.61213 5.18409 0
M  V30 13382 H 1311.06 2.78092 1.11736 0
M  V30 13383 H 1308.62 1.55044 0.466143 0
M  V30 13384 H 1310.61 1.99238 3.52259 0
M  V30 13385 H 1309.18 1.11799 2.91924 0
M  V30 13386 H 1308.4 3.41494 1.96914 0
M  V30 13387 H 1309.69 4.15558 2.93579 0
M  V30 13388 H 1309.08 2.01261 5.28687 0
M  V30 13389 H 1307.64 2.67409 5.9442 0
M  V30 13390 N 1311.07 -0.540404 1.48045 0
M  V30 13391 C 1311.98 -1.67308 1.64455 0
M  V30 13392 C 1313 -1.65823 0.527152 0
M  V30 13393 O 1314.18 -1.84964 0.796881 0
M  V30 13394 C 1311.24 -3.03792 1.67068 0
M  V30 13395 C 1310.3 -3.16213 2.90358 0
M  V30 13396 C 1309.54 -4.46187 2.92837 0
M  V30 13397 O 1309.76 -5.32662 2.04029 0
M  V30 13398 O 1308.69 -4.62754 3.84892 0
M  V30 13399 H 1312.52 -1.56403 2.6033 0
M  V30 13400 H 1310.1 -0.712323 1.31325 0
M  V30 13401 H 1311.99 -3.84982 1.71368 0
M  V30 13402 H 1310.66 -3.15043 0.74363 0
M  V30 13403 H 1309.57 -2.34357 2.91595 0
M  V30 13404 H 1310.9 -3.09874 3.82412 0
M  V30 13405 N 1312.55 -1.36459 -0.788468 0
M  V30 13406 C 1313.78 -1.34063 -1.58246 0
M  V30 13407 C 1314.2 0.0754933 -1.87948 0
M  V30 13408 O 1313.56 1.04772 -1.47961 0
M  V30 13409 C 1313.61 -2.17038 -2.8797 0
M  V30 13410 O 1312.71 -1.56353 -3.81612 0
M  V30 13411 H 1312.05 -0.458816 -0.479983 0
M  V30 13412 H 1314.58 -1.79755 -0.977207 0
M  V30 13413 H 1314.59 -2.29651 -3.3723 0
M  V30 13414 H 1313.27 -3.19981 -2.65678 0
M  V30 13415 H 1311.85 -1.52685 -3.40208 0
M  V30 13416 N 1314.03 1.01274 -1.20754 0
M  V30 13417 C 1315.26 1.78524 -1.04579 0
M  V30 13418 C 1315.67 1.84409 0.404809 0
M  V30 13419 O 1315.03 1.29987 1.281 0
M  V30 13420 C 1315.08 3.22806 -1.62722 0
M  V30 13421 O 1314.8 3.17276 -3.02106 0
M  V30 13422 C 1316.3 4.16589 -1.51553 0
M  V30 13423 H 1313.52 0.561299 -0.367674 0
M  V30 13424 H 1316.07 1.27454 -1.59924 0
M  V30 13425 H 1314.22 3.71011 -1.11487 0
M  V30 13426 H 1314.64 4.07866 -3.29766 0
M  V30 13427 H 1316.11 5.15654 -1.9699 0
M  V30 13428 H 1316.59 4.36692 -0.468659 0
M  V30 13429 H 1317.19 3.74269 -2.01998 0
M  V30 13430 N 1315.51 1.01404 1.20644 0
M  V30 13431 C 1316.92 0.73386 1.71672 0
M  V30 13432 C 1317.27 -0.747803 1.8139 0
M  V30 13433 O 1316.4 -1.58372 1.47469 0
M  V30 13434 C 1316.99 1.32549 3.11795 0
M  V30 13435 C 1315.55 1.09423 3.60144 0
M  V30 13436 C 1314.7 1.43275 2.37419 0
M  V30 13437 H 1317.65 1.18383 1.05694 0
M  V30 13438 H 1317.67 0.714749 3.73727 0
M  V30 13439 H 1317.18 2.40386 3.0469 0
M  V30 13440 H 1315.28 0.0334113 3.72585 0
M  V30 13441 H 1315.4 1.77248 4.45107 0
M  V30 13442 H 1313.76 0.851714 2.40037 0
M  V30 13443 H 1314.54 2.52163 2.32957 0
M  V30 13444 N 1316.99 -1.36373 0.789944 0
M  V30 13445 C 1318.23 -1.99523 0.363119 0
M  V30 13446 C 1318.57 -1.6255 -1.0626 0
M  V30 13447 O 1317.84 -0.880551 -1.73426 0
M  V30 13448 C 1318.12 -3.56215 0.527526 0
M  V30 13449 C 1317.98 -4.0304 1.99697 0
M  V30 13450 C 1319.3 -4.40063 -0.0571079 0
M  V30 13451 H 1316.42 -0.724824 0.133412 0
M  V30 13452 H 1319.06 -1.61778 0.996381 0
M  V30 13453 H 1317.21 -3.88498 -0.0115636 0
M  V30 13454 H 1318.88 -3.81241 2.59717 0
M  V30 13455 H 1317.12 -3.54561 2.49939 0
M  V30 13456 H 1317.79 -5.12001 2.06297 0
M  V30 13457 H 1320.27 -4.14143 0.403082 0
M  V30 13458 H 1319.15 -5.4883 0.0879494 0
M  V30 13459 H 1319.41 -4.26901 -1.14926 0
M  V30 13460 N 1318.47 -0.542005 -1.47987 0
M  V30 13461 C 1319.71 -0.0123299 -2.02796 0
M  V30 13462 C 1320.04 1.32789 -1.41707 0
M  V30 13463 O 1319.32 1.86048 -0.567119 0
M  V30 13464 C 1319.6 0.0969277 -3.5997 0
M  V30 13465 C 1319.46 -1.26931 -4.31519 0
M  V30 13466 C 1320.77 0.817854 -4.32434 0
M  V30 13467 H 1317.89 -0.00595479 -0.736976 0
M  V30 13468 H 1320.54 -0.70136 -1.76581 0
M  V30 13469 H 1318.69 0.683755 -3.82436 0
M  V30 13470 H 1320.36 -1.89817 -4.20437 0
M  V30 13471 H 1318.6 -1.84804 -3.92467 0
M  V30 13472 H 1319.27 -1.14573 -5.39979 0
M  V30 13473 H 1321.75 0.319749 -4.1487 0
M  V30 13474 H 1320.62 0.863225 -5.4207 0
M  V30 13475 H 1320.88 1.87075 -4.00569 0
M  V30 13476 N 1319.94 1.55134 -0.277709 0
M  V30 13477 C 1321.19 1.98831 0.338982 0
M  V30 13478 C 1321.51 1.16958 1.56781 0
M  V30 13479 O 1322.71 1.50811 2.25762 0
M  V30 13480 C 1321.17 3.53899 0.654465 0
M  V30 13481 C 1320.78 4.44553 -0.554703 0
M  V30 13482 C 1322.52 4.06179 1.23364 0
M  V30 13483 C 1320.43 5.91014 -0.213663 0
M  V30 13484 H 1319.36 0.742632 0.130434 0
M  V30 13485 H 1322.01 1.79463 -0.382768 0
M  V30 13486 H 1320.39 3.69078 1.43519 0
M  V30 13487 H 1321.56 4.41143 -1.33151 0
M  V30 13488 H 1319.88 4.02921 -1.0509 0
M  V30 13489 H 1322.48 5.13152 1.50265 0
M  V30 13490 H 1322.82 3.5537 2.16836 0
M  V30 13491 H 1323.35 3.9445 0.515147 0
M  V30 13492 H 1320.09 6.45924 -1.11633 0
M  V30 13493 H 1319.61 5.97486 0.526329 0
M  V30 13494 H 1321.29 6.46712 0.19319 0
M  V30 13495 N 1321.42 0.00503138 1.57599 0
M  V30 13496 C 1322.35 -1.01302 2.05598 0
M  V30 13497 C 1323.37 -1.30388 0.974829 0
M  V30 13498 O 1324.56 -1.27275 1.25153 0
M  V30 13499 C 1321.66 -2.34654 2.44522 0
M  V30 13500 C 1320.83 -2.24436 3.7543 0
M  V30 13501 C 1319.89 -3.40517 4.01166 0
M  V30 13502 O 1318.91 -3.18479 4.71762 0
M  V30 13503 N 1320.12 -4.63532 3.49454 0
M  V30 13504 H 1322.88 -0.603656 2.93558 0
M  V30 13505 H 1320.44 -0.182248 1.60871 0
M  V30 13506 H 1322.43 -3.11093 2.5885 0
M  V30 13507 H 1321 -2.67315 1.62055 0
M  V30 13508 H 1320.22 -1.32875 3.71131 0
M  V30 13509 H 1321.51 -2.14786 4.61242 0
M  V30 13510 H 1320.91 -4.84334 2.92296 0
M  V30 13511 H 1319.47 -5.37221 3.69103 0
M  V30 13512 N 1322.9 -1.55308 -0.267798 0
M  V30 13513 C 1323.83 -1.84963 -1.35356 0
M  V30 13514 C 1324.84 -0.73446 -1.45291 0
M  V30 13515 O 1326.03 -1.01237 -1.47015 0
M  V30 13516 C 1323.13 -2.00221 -2.73432 0
M  V30 13517 C 1322.31 -3.30922 -2.86024 0
M  V30 13518 C 1321.37 -3.3618 -4.04808 0
M  V30 13519 O 1320.39 -4.09525 -3.9532 0
M  V30 13520 N 1321.59 -2.63958 -5.17017 0
M  V30 13521 H 1324.36 -2.7868 -1.1026 0
M  V30 13522 H 1321.92 -1.55289 -0.457914 0
M  V30 13523 H 1323.91 -2.01103 -3.51197 0
M  V30 13524 H 1322.48 -1.13346 -2.91327 0
M  V30 13525 H 1321.7 -3.42534 -1.951 0
M  V30 13526 H 1322.99 -4.17109 -2.91371 0
M  V30 13527 H 1322.39 -2.04062 -5.27613 0
M  V30 13528 H 1320.94 -2.70558 -5.92994 0
M  V30 13529 N 1324.38 0.532545 -1.4833 0
M  V30 13530 C 1325.29 1.66433 -1.65339 0
M  V30 13531 C 1326.3 1.65541 -0.535939 0
M  V30 13532 O 1327.48 1.84539 -0.806679 0
M  V30 13533 C 1324.54 3.02901 -1.68676 0
M  V30 13534 C 1323.61 3.14669 -2.92031 0
M  V30 13535 C 1322.84 4.44627 -2.95199 0
M  V30 13536 O 1323.06 5.31572 -2.06851 0
M  V30 13537 O 1322 4.60707 -3.87341 0
M  V30 13538 H 1325.82 1.5502 -2.61156 0
M  V30 13539 H 1323.41 0.705348 -1.31701 0
M  V30 13540 H 1325.29 3.84068 -1.73407 0
M  V30 13541 H 1323.96 3.14644 -0.760327 0
M  V30 13542 H 1322.87 2.32807 -2.92834 0
M  V30 13543 H 1324.2 3.07841 -3.8405 0
M  V30 13544 N 1325.86 1.36875 0.78122 0
M  V30 13545 C 1327.08 1.34732 1.57019 0
M  V30 13546 C 1327.5 -0.0695423 1.88672 0
M  V30 13547 O 1326.86 -1.02873 1.50743 0
M  V30 13548 C 1326.91 2.17668 2.88623 0
M  V30 13549 O 1326.63 3.53832 2.5833 0
M  V30 13550 C 1328.13 2.23398 3.82895 0
M  V30 13551 H 1325.35 0.461857 0.486754 0
M  V30 13552 H 1327.89 1.80086 0.968989 0
M  V30 13553 H 1326.05 1.75848 3.4519 0
M  V30 13554 H 1326.46 3.972 3.42538 0
M  V30 13555 H 1327.94 2.85769 4.72271 0
M  V30 13556 H 1328.41 1.23972 4.2134 0
M  V30 13557 H 1329.02 2.65489 3.32258 0
M  V30 13558 N 1327.33 -1.00632 1.21289 0
M  V30 13559 C 1328.56 -1.77967 1.05524 0
M  V30 13560 C 1328.98 -1.84621 -0.395023 0
M  V30 13561 O 1328.33 -1.30664 -1.27409 0
M  V30 13562 C 1328.38 -3.21939 1.64432 0
M  V30 13563 O 1328.11 -3.15669 3.03784 0
M  V30 13564 C 1329.61 -4.1578 1.5376 0
M  V30 13565 H 1326.83 -0.559341 0.370646 0
M  V30 13566 H 1329.37 -1.26604 1.60598 0
M  V30 13567 H 1327.53 -3.70415 1.13453 0
M  V30 13568 H 1327.94 -4.06112 3.31924 0
M  V30 13569 H 1329.41 -5.14602 1.99722 0
M  V30 13570 H 1329.89 -4.36438 0.491811 0
M  V30 13571 H 1330.5 -3.73192 2.0398 0
M  V30 13572 N 1328.81 -1.02043 -1.20104 0
M  V30 13573 C 1330.06 -0.710566 -1.89197 0
M  V30 13574 C 1330.38 0.762471 -1.79475 0
M  V30 13575 O 1329.65 1.54871 -1.19965 0
M  V30 13576 H 1328.23 -0.259839 -0.700352 0
M  V30 13577 H 1330.89 -1.29285 -1.45848 0
M  V30 13578 H 1329.99 -0.997363 -2.95735 0
M  V30 13579 N 1330.29 1.35952 -0.797165 0
M  V30 13580 C 1331.52 2.0328 -0.385316 0
M  V30 13581 C 1331.93 1.60095 1.00076 0
M  V30 13582 O 1331.29 0.794014 1.64322 0
M  V30 13583 C 1331.34 3.5871 -0.448284 0
M  V30 13584 O 1331.06 4.00323 -1.7797 0
M  V30 13585 C 1332.56 4.43291 -0.0280465 0
M  V30 13586 H 1329.78 0.652192 -0.157756 0
M  V30 13587 H 1332.33 1.73769 -1.07817 0
M  V30 13588 H 1330.48 3.86903 0.196224 0
M  V30 13589 H 1330.9 4.94941 -1.73592 0
M  V30 13590 H 1332.37 5.51862 -0.123234 0
M  V30 13591 H 1332.85 4.27059 1.02552 0
M  V30 13592 H 1333.45 4.20375 -0.645343 0
M  V30 13593 N 1331.77 0.549846 1.47697 0
M  V30 13594 C 1333.18 0.11453 1.86348 0
M  V30 13595 C 1333.53 -1.31368 1.45729 0
M  V30 13596 O 1332.66 -1.98707 0.856989 0
M  V30 13597 C 1333.25 0.201072 3.38203 0
M  V30 13598 C 1331.81 -0.179162 3.75973 0
M  V30 13599 C 1330.96 0.551951 2.71751 0
M  V30 13600 H 1333.91 0.759989 1.39319 0
M  V30 13601 H 1333.93 -0.582216 3.76019 0
M  V30 13602 H 1333.44 1.24065 3.67736 0
M  V30 13603 H 1331.54 -1.22013 3.52056 0
M  V30 13604 H 1331.65 0.174273 4.78783 0
M  V30 13605 H 1330.02 -0.00411819 2.547 0
M  V30 13606 H 1330.8 1.59254 3.04127 0
M  V30 13607 N 1333.25 -1.54984 0.285932 0
M  V30 13608 C 1334.66 -1.59455 -0.0679061 0
M  V30 13609 C 1334.86 -1.30308 -1.53695 0
M  V30 13610 O 1333.92 -1.06918 -2.28746 0
M  V30 13611 C 1335.23 -2.9903 0.316469 0
M  V30 13612 C 1336.78 -3.11885 0.263982 0
M  V30 13613 C 1337.25 -4.53744 0.622956 0
M  V30 13614 N 1338.75 -4.59618 0.574917 0
M  V30 13615 C 1339.48 -5.67429 0.825339 0
M  V30 13616 N 1338.98 -6.83341 1.14094 0
M  V30 13617 N 1340.77 -5.57028 0.75341 0
M  V30 13618 H 1332.92 -1.72194 1.2435 0
M  V30 13619 H 1335.18 -0.80348 0.503114 0
M  V30 13620 H 1334.89 -3.25232 1.33855 0
M  V30 13621 H 1334.76 -3.75688 -0.337371 0
M  V30 13622 H 1337.15 -2.85441 -0.748832 0
M  V30 13623 H 1337.23 -2.37416 0.952233 0
M  V30 13624 H 1336.88 -4.80915 1.63351 0
M  V30 13625 H 1336.81 -5.26528 -0.0872039 0
M  V30 13626 H 1339.3 -3.76356 0.341305 0
M  V30 13627 H 1339.61 -7.61471 1.3184 0
M  V30 13628 H 1337.95 -6.8493 1.17883 0
M  V30 13629 H 1341.15 -4.6535 0.506611 0
M  V30 13630 H 1341.32 -6.4097 0.95195 0
M  V30 13631 N 1334.72 -0.0133892 -1.57594 0
M  V30 13632 C 1335.95 0.682855 -1.95836 0
M  V30 13633 C 1336.37 1.65763 -0.889049 0
M  V30 13634 O 1335.73 1.80665 0.151585 0
M  V30 13635 C 1335.78 1.37931 -3.33178 0
M  V30 13636 O 1334.88 2.49416 -3.28429 0
M  V30 13637 H 1334.23 0.180629 -0.638959 0
M  V30 13638 H 1336.76 -0.0705644 -2.04478 0
M  V30 13639 H 1336.77 1.73969 -3.69051 0
M  V30 13640 H 1335.44 0.664675 -4.10554 0
M  V30 13641 H 1334.02 2.15606 -3.04251 0
M  V30 13642 N 1336.2 1.55448 0.259558 0
M  V30 13643 C 1337.48 1.6742 1.01143 0
M  V30 13644 C 1337.86 0.549525 2.03822 0
M  V30 13645 O 1337.21 -0.448699 2.24051 0
M  V30 13646 C 1337.42 3.07201 1.65616 0
M  V30 13647 C 1338.77 3.6539 2.16277 0
M  V30 13648 O 1339.79 3.0992 1.7558 0
M  V30 13649 O 1338.65 4.62604 2.90963 0
M  V30 13650 H 1335.74 0.680469 0.469991 0
M  V30 13651 H 1338.29 1.67783 0.254348 0
M  V30 13652 H 1337.06 3.80504 0.912819 0
M  V30 13653 H 1336.68 3.10794 2.47977 0
M  V30 13654 N 1337.68 -0.524672 1.4861 0
M  V30 13655 C 1338.91 -1.30482 1.60568 0
M  V30 13656 C 1339.32 -1.86889 0.267952 0
M  V30 13657 O 1338.68 -1.66669 -0.743488 0
M  V30 13658 C 1338.73 -2.45191 2.65638 0
M  V30 13659 O 1338.45 -1.91107 3.9422 0
M  V30 13660 C 1339.95 -3.36931 2.88084 0
M  V30 13661 H 1337.17 -0.396612 0.541239 0
M  V30 13662 H 1339.72 -0.632392 1.94476 0
M  V30 13663 H 1337.87 -3.08308 2.34574 0
M  V30 13664 H 1338.29 -2.66234 4.51907 0
M  V30 13665 H 1339.76 -4.13755 3.65391 0
M  V30 13666 H 1340.24 -3.92487 1.97106 0
M  V30 13667 H 1340.84 -2.79601 3.20473 0
M  V30 13668 N 1339.16 -1.37287 -0.77395 0
M  V30 13669 C 1340.4 -1.3257 -1.5347 0
M  V30 13670 C 1340.74 0.090346 -1.9399 0
M  V30 13671 O 1340.01 1.04719 -1.63903 0
M  V30 13672 C 1340.3 -2.26277 -2.80126 0
M  V30 13673 C 1340.15 -3.76651 -2.45874 0
M  V30 13674 C 1341.47 -2.18471 -3.82045 0
M  V30 13675 H 1338.59 -0.48289 -0.556764 0
M  V30 13676 H 1341.23 -1.6797 -0.888039 0
M  V30 13677 H 1339.38 -1.96219 -3.35306 0
M  V30 13678 H 1341.05 -4.17296 -1.96626 0
M  V30 13679 H 1339.29 -3.95327 -1.78602 0
M  V30 13680 H 1339.96 -4.3765 -3.36403 0
M  V30 13681 H 1342.44 -2.44962 -3.36352 0
M  V30 13682 H 1341.32 -2.86183 -4.68392 0
M  V30 13683 H 1341.58 -1.17692 -4.26147 0
M  V30 13684 N 1340.64 0.999871 -1.21821 0
M  V30 13685 C 1342.05 1.5529 -1.03642 0
M  V30 13686 C 1342.4 1.92032 0.402246 0
M  V30 13687 O 1341.52 1.74027 1.28622 0
M  V30 13688 C 1342.12 2.82177 -1.87514 0
M  V30 13689 C 1340.68 3.33949 -1.73653 0
M  V30 13690 C 1339.82 2.07095 -1.84409 0
M  V30 13691 H 1342.78 0.821751 -1.35768 0
M  V30 13692 H 1342.8 3.54264 -1.38842 0
M  V30 13693 H 1342.31 2.55405 -2.92216 0
M  V30 13694 H 1340.41 3.65645 -0.716554 0
M  V30 13695 H 1340.52 4.05022 -2.55918 0
M  V30 13696 H 1338.89 2.20332 -1.27773 0
M  V30 13697 H 1339.67 1.82728 -2.90629 0
M  V30 13698 N 1342.11 1.02678 1.19562 0
M  V30 13699 C 1343.34 0.741424 1.93695 0
M  V30 13700 C 1343.76 -0.693203 1.74861 0
M  V30 13701 O 1343.12 -1.47833 1.04953 0
M  V30 13702 C 1343.17 1.09514 3.43568 0
M  V30 13703 O 1342.27 0.212596 4.11852 0
M  V30 13704 H 1341.62 0.274128 0.604773 0
M  V30 13705 H 1344.15 1.37289 1.517 0
M  V30 13706 H 1344.16 1.05115 3.94227 0
M  V30 13707 H 1342.83 2.14034 3.56598 0
M  V30 13708 H 1341.41 0.315 3.71567 0
M  V30 13709 N 1343.59 -1.35528 0.804364 0
M  V30 13710 C 1345 -1.81321 0.444933 0
M  V30 13711 C 1345.35 -1.66816 -1.03281 0
M  V30 13712 O 1344.48 -1.19753 -1.80245 0
M  V30 13713 C 1345.07 -3.29199 0.800827 0
M  V30 13714 C 1343.63 -3.73144 0.494026 0
M  V30 13715 C 1342.78 -2.57557 1.02761 0
M  V30 13716 H 1345.73 -1.23537 0.996203 0
M  V30 13717 H 1345.75 -3.80375 0.0975117 0
M  V30 13718 H 1345.26 -3.39725 1.8764 0
M  V30 13719 H 1343.37 -3.68169 -0.572901 0
M  V30 13720 H 1343.48 -4.68005 1.0251 0
M  V30 13721 H 1341.84 -2.50692 0.450048 0
M  V30 13722 H 1342.63 -2.70861 2.10925 0
M  V30 13723 N 1345.07 -0.557671 -1.47404 0
M  V30 13724 C 1346.49 -0.217473 -1.58111 0
M  V30 13725 C 1346.69 1.28 -1.55622 0
M  V30 13726 O 1345.74 2.06019 -1.45988 0
M  V30 13727 C 1347.06 -0.844535 -2.88597 0
M  V30 13728 C 1348.6 -0.815807 -3.02181 0
M  V30 13729 C 1349.08 -1.42195 -4.35367 0
M  V30 13730 N 1350.57 -1.38515 -4.42004 0
M  V30 13731 C 1351.31 -1.82378 -5.43623 0
M  V30 13732 N 1350.8 -2.34098 -6.52051 0
M  V30 13733 N 1352.59 -1.73446 -5.34671 0
M  V30 13734 H 1344.75 -1.53058 -1.47265 0
M  V30 13735 H 1347.01 -0.638305 -0.700907 0
M  V30 13736 H 1346.71 -1.89696 -2.96156 0
M  V30 13737 H 1346.59 -0.337844 -3.75684 0
M  V30 13738 H 1348.98 0.227925 -2.94218 0
M  V30 13739 H 1349.06 -1.36026 -2.16635 0
M  V30 13740 H 1348.7 -2.46475 -4.44086 0
M  V30 13741 H 1348.63 -0.852932 -5.19647 0
M  V30 13742 H 1351.12 -1.00684 -3.64241 0
M  V30 13743 H 1351.43 -2.6549 -7.25765 0
M  V30 13744 H 1349.78 -2.38109 -6.52939 0
M  V30 13745 H 1352.97 -1.32816 -4.48862 0
M  V30 13746 H 1353.14 -2.07947 -6.13728 0
M  V30 13747 N 1346.55 1.54831 -0.294147 0
M  V30 13748 C 1347.83 1.92071 0.369902 0
M  V30 13749 C 1348.21 1.22061 1.72233 0
M  V30 13750 O 1347.55 0.353975 2.25742 0
M  V30 13751 C 1347.76 3.45524 0.49135 0
M  V30 13752 C 1349.11 4.17644 0.765411 0
M  V30 13753 O 1350.14 3.51521 0.575428 0
M  V30 13754 O 1349 5.34692 1.12992 0
M  V30 13755 H 1346.09 0.801033 0.20561 0
M  V30 13756 H 1348.64 1.66224 -0.341702 0
M  V30 13757 H 1347.41 3.88591 -0.459663 0
M  V30 13758 H 1347.03 3.77384 1.25169 0
M  V30 13759 N 1348.03 0.0217466 1.57585 0
M  V30 13760 C 1348.96 -0.961069 2.12804 0
M  V30 13761 C 1349.94 -1.3442 1.04237 0
M  V30 13762 O 1351.12 -1.42412 1.32032 0
M  V30 13763 C 1348.25 -2.24586 2.64912 0
M  V30 13764 C 1347.21 -2.0037 3.78201 0
M  V30 13765 C 1346.53 -3.35051 4.16708 0
M  V30 13766 C 1347.83 -1.34879 5.04584 0
M  V30 13767 H 1349.53 -0.501222 2.95175 0
M  V30 13768 H 1347.07 -0.239649 1.41992 0
M  V30 13769 H 1349.03 -2.93715 3.02175 0
M  V30 13770 H 1347.75 -2.72723 1.79693 0
M  V30 13771 H 1346.41 -1.33662 3.41365 0
M  V30 13772 H 1346.06 -3.80932 3.28481 0
M  V30 13773 H 1345.76 -3.19656 4.93045 0
M  V30 13774 H 1347.28 -4.05459 4.56547 0
M  V30 13775 H 1348.7 -1.93997 5.3948 0
M  V30 13776 H 1347.09 -1.29906 5.85871 0
M  V30 13777 H 1348.16 -0.320774 4.83838 0
M  V30 13778 N 1349.51 -1.55583 -0.251311 0
M  V30 13779 C 1350.44 -1.86388 -1.33387 0
M  V30 13780 C 1351.45 -0.749829 -1.44504 0
M  V30 13781 O 1352.64 -1.0279 -1.45933 0
M  V30 13782 C 1349.74 -2.0311 -2.71293 0
M  V30 13783 C 1348.91 -3.33937 -2.82498 0
M  V30 13784 C 1347.97 -3.40455 -4.01219 0
M  V30 13785 O 1347 -4.13695 -3.90954 0
M  V30 13786 N 1348.2 -2.69427 -5.14188 0
M  V30 13787 H 1350.96 -2.79834 -1.07298 0
M  V30 13788 H 1348.53 -1.55766 -0.441418 0
M  V30 13789 H 1350.52 -2.04817 -3.49045 0
M  V30 13790 H 1349.09 -1.16429 -2.90109 0
M  V30 13791 H 1348.31 -3.44584 -1.91456 0
M  V30 13792 H 1349.6 -4.20176 -2.86931 0
M  V30 13793 H 1348.99 -2.09647 -5.25419 0
M  V30 13794 H 1347.55 -2.76832 -5.90091 0
M  V30 13795 N 1350.98 0.516783 -1.48886 0
M  V30 13796 C 1352.23 1.27187 -1.57574 0
M  V30 13797 C 1352.56 1.92815 -0.255432 0
M  V30 13798 O 1351.81 1.80533 0.755403 0
M  V30 13799 C 1352.11 2.37296 -2.67256 0
M  V30 13800 C 1351.78 1.89232 -4.0927 0
M  V30 13801 C 1350.44 1.75842 -4.47921 0
M  V30 13802 C 1352.79 1.53073 -4.98215 0
M  V30 13803 C 1350.12 1.24648 -5.73306 0
M  V30 13804 C 1352.47 1.03337 -6.24103 0
M  V30 13805 C 1351.14 0.885744 -6.61597 0
M  V30 13806 H 1350.41 0.46541 -0.576606 0
M  V30 13807 H 1353.05 0.575223 -1.82657 0
M  V30 13808 H 1351.36 3.12685 -2.36084 0
M  V30 13809 H 1353.06 2.95393 -2.7119 0
M  V30 13810 H 1349.65 2.00608 -3.78754 0
M  V30 13811 H 1353.83 1.62272 -4.69022 0
M  V30 13812 H 1349.09 1.11917 -6.0107 0
M  V30 13813 H 1353.26 0.744338 -6.92411 0
M  V30 13814 H 1350.89 0.486866 -7.58639 0
M  V30 13815 N 1352.46 1.37696 0.766659 0
M  V30 13816 C 1353.71 1.33382 1.52765 0
M  V30 13817 C 1354.04 -0.0800569 1.94035 0
M  V30 13818 O 1353.32 -1.03848 1.64456 0
M  V30 13819 C 1353.6 2.2776 2.78922 0
M  V30 13820 C 1353.45 3.77949 2.43874 0
M  V30 13821 C 1354.77 2.20494 3.80881 0
M  V30 13822 H 1351.89 0.485836 0.554195 0
M  V30 13823 H 1354.53 1.68438 0.879119 0
M  V30 13824 H 1352.68 1.97994 3.34261 0
M  V30 13825 H 1354.35 4.18333 1.9441 0
M  V30 13826 H 1352.6 3.96269 1.76503 0
M  V30 13827 H 1353.27 4.39428 3.34077 0
M  V30 13828 H 1355.74 2.46742 3.35048 0
M  V30 13829 H 1354.62 2.88663 4.66867 0
M  V30 13830 H 1354.88 1.19951 4.25516 0
M  V30 13831 N 1353.94 -0.993397 1.22349 0
M  V30 13832 C 1354.85 -2.11771 1.00947 0
M  V30 13833 C 1355.87 -1.73949 -0.0420679 0
M  V30 13834 O 1357.04 -2.00837 0.150548 0
M  V30 13835 C 1354.11 -3.41654 0.589359 0
M  V30 13836 C 1353.17 -3.93579 1.71446 0
M  V30 13837 C 1352.4 -5.17264 1.3143 0
M  V30 13838 O 1352.62 -5.70074 0.192876 0
M  V30 13839 O 1351.56 -5.62929 2.13059 0
M  V30 13840 H 1355.38 -2.32708 1.95142 0
M  V30 13841 H 1352.97 -1.10144 1.00939 0
M  V30 13842 H 1354.85 -4.19813 0.365403 0
M  V30 13843 H 1353.53 -3.22077 -0.323738 0
M  V30 13844 H 1352.43 -3.16596 1.99294 0
M  V30 13845 H 1353.77 -4.17588 2.6054 0
M  V30 13846 N 1355.42 -1.03311 -1.19015 0
M  V30 13847 C 1356.66 -0.733124 -1.89085 0
M  V30 13848 C 1357 0.73675 -1.79682 0
M  V30 13849 O 1356.27 1.53692 -1.19201 0
M  V30 13850 C 1356.55 -1.19028 -3.39859 0
M  V30 13851 C 1356.41 -2.72169 -3.58112 0
M  V30 13852 C 1357.73 -0.774383 -4.33234 0
M  V30 13853 H 1354.85 -0.2678 -0.686624 0
M  V30 13854 H 1357.49 -1.28378 -1.40068 0
M  V30 13855 H 1355.64 -0.721799 -3.81736 0
M  V30 13856 H 1357.31 -3.26996 -3.25379 0
M  V30 13857 H 1355.55 -3.12358 -3.01023 0
M  V30 13858 H 1356.22 -2.99213 -4.6387 0
M  V30 13859 H 1358.7 -1.17739 -3.99095 0
M  V30 13860 H 1357.58 -1.12209 -5.37308 0
M  V30 13861 H 1357.84 0.322989 -4.40919 0
M  V30 13862 N 1356.9 1.35099 -0.81154 0
M  V30 13863 C 1358.12 2.0286 -0.406855 0
M  V30 13864 C 1358.54 1.61147 0.98372 0
M  V30 13865 O 1357.9 0.811398 1.6347 0
M  V30 13866 C 1357.95 3.58214 -0.486305 0
M  V30 13867 O 1357.67 3.98412 -1.82206 0
M  V30 13868 C 1359.17 4.43236 -0.0750619 0
M  V30 13869 H 1356.39 0.650482 -0.164664 0
M  V30 13870 H 1358.93 1.72616 -1.09654 0
M  V30 13871 H 1357.09 3.87089 0.155177 0
M  V30 13872 H 1357.5 4.93072 -1.78831 0
M  V30 13873 H 1358.98 5.51701 -0.181759 0
M  V30 13874 H 1359.45 4.28123 0.980169 0
M  V30 13875 H 1360.06 4.19667 -0.689894 0
M  V30 13876 N 1358.37 0.56548 1.47106 0
M  V30 13877 C 1359.65 -0.0215358 1.95588 0
M  V30 13878 C 1360.03 -1.47712 1.50813 0
M  V30 13879 O 1359.38 -2.15814 0.750776 0
M  V30 13880 C 1359.59 0.132552 3.48748 0
M  V30 13881 C 1360.94 -0.00853591 4.24599 0
M  V30 13882 O 1361.96 0.0605142 3.56149 0
M  V30 13883 O 1360.82 -0.158519 5.4627 0
M  V30 13884 H 1357.91 -0.0595011 0.824857 0
M  V30 13885 H 1360.46 0.632586 1.57469 0
M  V30 13886 H 1359.23 1.14511 3.7417 0
M  V30 13887 H 1358.85 -0.558801 3.93654 0
M  V30 13888 N 1359.85 -1.54672 0.302354 0
M  V30 13889 C 1361.1 -2.00463 -0.306978 0
M  V30 13890 C 1361.43 -1.19043 -1.53435 0
M  V30 13891 O 1360.71 -0.267255 -1.92655 0
M  V30 13892 C 1360.99 -3.53958 -0.662229 0
M  V30 13893 C 1360.84 -4.46118 0.574378 0
M  V30 13894 C 1362.16 -4.14174 -1.48821 0
M  V30 13895 H 1359.28 -0.728729 -0.110102 0
M  V30 13896 H 1361.92 -1.85419 0.414722 0
M  V30 13897 H 1360.07 -3.66909 -1.2771 0
M  V30 13898 H 1361.74 -4.45071 1.21284 0
M  V30 13899 H 1359.99 -4.1666 1.20736 0
M  V30 13900 H 1360.66 -5.51281 0.281651 0
M  V30 13901 H 1363.13 -4.04668 -0.968674 0
M  V30 13902 H 1362.01 -5.2173 -1.70556 0
M  V30 13903 H 1362.27 -3.66136 -2.47784 0
M  V30 13904 N 1361.33 -0.0301034 -1.57571 0
M  V30 13905 C 1362.28 0.951421 -2.10277 0
M  V30 13906 C 1363.25 1.3224 -1.00508 0
M  V30 13907 O 1364.43 1.41554 -1.27934 0
M  V30 13908 C 1361.57 2.2282 -2.63525 0
M  V30 13909 C 1360.69 1.91359 -3.87306 0
M  V30 13910 C 1359.82 3.13339 -4.28943 0
M  V30 13911 C 1358.86 2.77701 -5.4548 0
M  V30 13912 N 1358 3.9231 -5.82269 0
M  V30 13913 H 1362.84 0.495049 -2.93859 0
M  V30 13914 H 1360.37 0.232756 -1.45247 0
M  V30 13915 H 1362.33 2.97502 -2.92487 0
M  V30 13916 H 1360.96 2.66072 -1.82772 0
M  V30 13917 H 1360.01 1.06915 -3.65066 0
M  V30 13918 H 1361.33 1.61112 -4.72064 0
M  V30 13919 H 1360.48 3.9634 -4.59347 0
M  V30 13920 H 1359.22 3.46747 -3.42954 0
M  V30 13921 H 1358.22 1.93113 -5.14769 0
M  V30 13922 H 1359.45 2.45508 -6.33169 0
M  V30 13923 H 1357.39 4.25559 -4.99235 0
M  V30 13924 H 1357.31 3.65691 -6.61669 0
M  V30 13925 H 1358.58 4.76012 -6.17279 0
M  V30 13926 N 1362.81 1.55714 0.243056 0
M  V30 13927 C 1364.05 1.77989 0.971993 0
M  V30 13928 C 1364.39 0.596038 1.84827 0
M  V30 13929 O 1363.66 -0.40554 1.90225 0
M  V30 13930 C 1363.95 3.10178 1.82925 0
M  V30 13931 C 1363.8 4.38974 0.9809 0
M  V30 13932 C 1365.12 3.38628 2.81103 0
M  V30 13933 H 1362.24 0.64754 0.35194 0
M  V30 13934 H 1364.88 1.88449 0.242237 0
M  V30 13935 H 1363.03 3.01392 2.45143 0
M  V30 13936 H 1364.7 4.59756 0.377113 0
M  V30 13937 H 1362.94 4.3286 0.285414 0
M  V30 13938 H 1363.61 5.27858 1.61461 0
M  V30 13939 H 1366.09 3.47403 2.29021 0
M  V30 13940 H 1364.97 4.32331 3.38203 0
M  V30 13941 H 1365.23 2.5973 3.57761 0
M  V30 13942 N 1364.29 -0.50888 1.49158 0
M  V30 13943 C 1365.51 -1.28771 1.61943 0
M  V30 13944 C 1365.93 -1.86594 0.287759 0
M  V30 13945 O 1365.29 -1.67448 -0.725769 0
M  V30 13946 C 1365.34 -2.4236 2.68224 0
M  V30 13947 O 1365.06 -1.86915 3.96225 0
M  V30 13948 C 1366.56 -3.33856 2.91642 0
M  V30 13949 H 1363.78 -0.390849 0.545416 0
M  V30 13950 H 1366.32 -0.611729 1.95136 0
M  V30 13951 H 1364.48 -3.05803 2.37831 0
M  V30 13952 H 1364.89 -2.61426 4.54705 0
M  V30 13953 H 1366.37 -4.09856 3.69759 0
M  V30 13954 H 1366.84 -3.90374 2.01258 0
M  V30 13955 H 1367.45 -2.76187 3.23421 0
M  V30 13956 N 1365.76 -1.381 -0.759346 0
M  V30 13957 C 1367.01 -1.33311 -1.51364 0
M  V30 13958 C 1367.33 0.0761325 -1.95452 0
M  V30 13959 O 1368.53 0.246541 -2.70378 0
M  V30 13960 C 1366.99 -2.34067 -2.73387 0
M  V30 13961 C 1366.6 -3.80583 -2.36348 0
M  V30 13962 C 1368.34 -2.38311 -3.51295 0
M  V30 13963 C 1366.25 -4.73039 -3.54948 0
M  V30 13964 H 1365.18 -0.495512 -0.568317 0
M  V30 13965 H 1367.83 -1.63625 -0.830602 0
M  V30 13966 H 1366.21 -1.96788 -3.43643 0
M  V30 13967 H 1367.38 -4.26769 -1.73796 0
M  V30 13968 H 1365.7 -3.79403 -1.71587 0
M  V30 13969 H 1368.3 -3.04586 -4.39467 0
M  V30 13970 H 1368.64 -1.40034 -3.92041 0
M  V30 13971 H 1369.17 -2.74361 -2.88047 0
M  V30 13972 H 1365.91 -5.7249 -3.19273 0
M  V30 13973 H 1365.43 -4.3155 -4.16563 0
M  V30 13974 H 1367.11 -4.90775 -4.21603 0
M  V30 13975 N 1367.24 0.986894 -1.22875 0
M  V30 13976 C 1368.18 2.07604 -0.947406 0
M  V30 13977 C 1369.15 1.62214 0.111904 0
M  V30 13978 O 1370.34 1.88488 -0.0209682 0
M  V30 13979 C 1367.46 3.3601 -0.42605 0
M  V30 13980 C 1366.51 4.00331 -1.47097 0
M  V30 13981 S 1367.34 4.40412 -3.04627 0
M  V30 13982 C 1368.5 5.7198 -2.54145 0
M  V30 13983 H 1368.73 2.31149 -1.86969 0
M  V30 13984 H 1366.27 1.1222 -1.06047 0
M  V30 13985 H 1368.22 4.10288 -0.131846 0
M  V30 13986 H 1366.88 3.10484 0.475211 0
M  V30 13987 H 1366.08 4.92809 -1.05618 0
M  V30 13988 H 1365.68 3.32403 -1.71418 0
M  V30 13989 H 1367.97 6.48602 -1.9576 0
M  V30 13990 H 1368.91 6.18293 -3.45137 0
M  V30 13991 H 1369.32 5.29669 -1.95221 0
M  V30 13992 N 1368.72 1.0394 1.18466 0
M  V30 13993 C 1369.97 0.752904 1.88952 0
M  V30 13994 C 1370.32 -0.711542 1.78759 0
M  V30 13995 O 1369.61 -1.51248 1.17621 0
M  V30 13996 C 1369.81 1.15198 3.38326 0
M  V30 13997 C 1369.64 2.65367 3.63057 0
M  V30 13998 C 1368.41 3.32495 3.80493 0
M  V30 13999 C 1370.61 3.63586 3.63744 0
M  V30 14000 N 1368.59 4.71659 3.92952 0
M  V30 14001 C 1369.96 4.88417 3.81901 0
M  V30 14002 C 1372.01 3.57234 3.46826 0
M  V30 14003 C 1370.72 6.0766 3.84891 0
M  V30 14004 C 1372.74 4.75903 3.51098 0
M  V30 14005 C 1372.1 5.99553 3.69751 0
M  V30 14006 H 1368.2 0.327542 0.710099 0
M  V30 14007 H 1370.79 1.32883 1.42303 0
M  V30 14008 H 1368.96 0.604141 3.83673 0
M  V30 14009 H 1370.69 0.816625 3.96375 0
M  V30 14010 H 1367.45 2.829 3.79822 0
M  V30 14011 H 1367.87 5.43981 4.03006 0
M  V30 14012 H 1372.51 2.62613 3.31352 0
M  V30 14013 H 1370.23 7.02639 3.99153 0
M  V30 14014 H 1373.82 4.72629 3.39284 0
M  V30 14015 H 1372.7 6.89842 3.72945 0
M  V30 14016 N 1370.2 -1.34667 0.818693 0
M  V30 14017 C 1371.43 -2.02642 0.417608 0
M  V30 14018 C 1371.84 -1.61667 -0.97516 0
M  V30 14019 O 1371.2 -0.820056 -1.63038 0
M  V30 14020 C 1371.25 -3.57951 0.505295 0
M  V30 14021 O 1370.97 -3.97441 1.84317 0
M  V30 14022 C 1372.47 -4.4319 0.0985667 0
M  V30 14023 H 1369.69 -0.6496 0.168111 0
M  V30 14024 H 1372.24 -1.72032 1.10568 0
M  V30 14025 H 1370.39 -3.87166 -0.134646 0
M  V30 14026 H 1370.8 -4.92116 1.81444 0
M  V30 14027 H 1372.28 -5.51597 0.211015 0
M  V30 14028 H 1372.76 -4.28637 -0.95745 0
M  V30 14029 H 1373.36 -4.19295 0.71214 0
M  V30 14030 N 1371.68 -0.573274 -1.46804 0
M  V30 14031 C 1373.09 -0.144162 -1.86143 0
M  V30 14032 C 1373.44 1.29033 -1.47801 0
M  V30 14033 O 1372.56 1.97319 -0.888494 0
M  V30 14034 C 1373.16 -0.254851 -3.3784 0
M  V30 14035 C 1371.72 0.119325 -3.76211 0
M  V30 14036 C 1370.86 -0.595115 -2.70839 0
M  V30 14037 H 1373.82 -0.782057 -1.38093 0
M  V30 14038 H 1373.84 0.522321 -3.76898 0
M  V30 14039 H 1373.35 -1.29899 -3.65715 0
M  V30 14040 H 1371.45 1.16396 -3.53953 0
M  V30 14041 H 1371.56 -0.250421 -4.78445 0
M  V30 14042 H 1369.93 -0.0364028 -2.54674 0
M  V30 14043 H 1370.71 -1.64072 -3.01555 0
M  V30 14044 N 1373.15 1.5451 -0.310553 0
M  V30 14045 C 1374.57 1.85829 0.180166 0
M  V30 14046 C 1374.92 1.23239 1.52665 0
M  V30 14047 O 1374.04 0.53359 2.09718 0
M  V30 14048 C 1374.64 3.37153 0.333687 0
M  V30 14049 C 1373.2 3.68469 0.768625 0
M  V30 14050 C 1372.34 2.77051 -0.117399 0
M  V30 14051 H 1375.29 1.49544 -0.531262 0
M  V30 14052 H 1375.31 3.62171 1.16673 0
M  V30 14053 H 1374.83 3.82678 -0.646455 0
M  V30 14054 H 1372.93 3.28467 1.75898 0
M  V30 14055 H 1373.04 4.75559 0.581392 0
M  V30 14056 H 1371.4 2.51461 0.404905 0
M  V30 14057 H 1372.19 3.254 -1.09407 0
M  V30 14058 N 1374.63 0.0384594 1.57553 0
M  V30 14059 C 1375.54 -0.955737 2.14249 0
M  V30 14060 C 1376.56 -1.35056 1.09708 0
M  V30 14061 O 1377.74 -1.43008 1.41812 0
M  V30 14062 C 1374.8 -2.21647 2.66596 0
M  V30 14063 C 1373.86 -1.88119 3.85888 0
M  V30 14064 C 1373.09 -3.08182 4.35729 0
M  V30 14065 O 1373.32 -4.21145 3.84699 0
M  V30 14066 O 1372.25 -2.89936 5.27467 0
M  V30 14067 H 1376.08 -0.50361 2.99495 0
M  V30 14068 H 1373.66 -0.182698 1.48279 0
M  V30 14069 H 1375.54 -2.9564 3.00291 0
M  V30 14070 H 1374.22 -2.66022 1.84428 0
M  V30 14071 H 1373.13 -1.11481 3.57103 0
M  V30 14072 H 1374.46 -1.48553 4.69247 0
M  V30 14073 N 1376.11 -1.55841 -0.234795 0
M  V30 14074 C 1377.34 -1.82649 -0.982547 0
M  V30 14075 C 1377.76 -0.617097 -1.77689 0
M  V30 14076 O 1377.12 0.434022 -1.76028 0
M  V30 14077 C 1377.17 -3.07319 -1.88646 0
M  V30 14078 O 1376.27 -2.85084 -2.97995 0
M  V30 14079 H 1375.61 -0.60257 -0.278936 0
M  V30 14080 H 1378.14 -2.03041 -0.252117 0
M  V30 14081 H 1378.15 -3.37073 -2.29882 0
M  V30 14082 H 1376.83 -3.94978 -1.30251 0
M  V30 14083 H 1375.4 -2.66528 -2.60801 0
M  V30 14084 N 1377.59 0.500963 -1.49426 0
M  V30 14085 C 1378.55 1.58478 -1.65582 0
M  V30 14086 C 1379.55 1.51897 -0.52762 0
M  V30 14087 O 1380.74 1.55049 -0.794071 0
M  V30 14088 C 1377.87 2.9813 -1.65322 0
M  V30 14089 H 1379.07 1.45483 -2.6225 0
M  V30 14090 H 1376.62 0.725199 -1.38458 0
M  V30 14091 H 1377.36 3.16602 -0.702384 0
M  V30 14092 H 1377.14 3.04315 -2.47255 0
M  V30 14093 H 1378.63 3.76874 -1.79878 0
M  V30 14094 N 1379.07 1.38501 0.752011 0
M  V30 14095 C 1380.31 1.34995 1.51341 0
M  V30 14096 C 1380.65 -0.0594724 1.94109 0
M  V30 14097 O 1379.92 -1.02098 1.65548 0
M  V30 14098 C 1380.2 2.30705 2.76491 0
M  V30 14099 C 1380.06 3.80515 2.39851 0
M  V30 14100 C 1381.38 2.24521 3.78521 0
M  V30 14101 H 1378.5 0.491687 0.549011 0
M  V30 14102 H 1381.14 1.69361 0.861205 0
M  V30 14103 H 1379.29 2.01529 3.32142 0
M  V30 14104 H 1380.96 4.20371 1.89962 0
M  V30 14105 H 1379.2 3.98119 1.7229 0
M  V30 14106 H 1379.87 4.42946 3.29397 0
M  V30 14107 H 1382.35 2.50282 3.32413 0
M  V30 14108 H 1381.23 2.93598 4.63779 0
M  V30 14109 H 1381.49 1.24457 4.2422 0
M  V30 14110 N 1380.55 -0.980364 1.23396 0
M  V30 14111 C 1381.77 -1.75689 1.09275 0
M  V30 14112 C 1382.19 -1.85418 -0.355773 0
M  V30 14113 O 1381.55 -1.33337 -1.24609 0
M  V30 14114 C 1381.6 -3.18378 1.71223 0
M  V30 14115 O 1381.32 -3.09154 3.10411 0
M  V30 14116 C 1382.82 -4.12425 1.62545 0
M  V30 14117 H 1380.04 -0.551354 0.382427 0
M  V30 14118 H 1382.58 -1.23169 1.63247 0
M  V30 14119 H 1380.74 -3.67925 1.21285 0
M  V30 14120 H 1381.15 -3.9898 3.40464 0
M  V30 14121 H 1382.63 -5.1025 2.10592 0
M  V30 14122 H 1383.1 -4.35296 0.584275 0
M  V30 14123 H 1383.71 -3.68782 2.1185 0
M  V30 14124 N 1382.02 -1.04567 -1.17913 0
M  V30 14125 C 1383.27 -0.750538 -1.87647 0
M  V30 14126 C 1383.59 0.72423 -1.81052 0
M  V30 14127 O 1382.86 1.52292 -1.23223 0
M  V30 14128 H 1381.44 -0.274636 -0.694683 0
M  V30 14129 H 1384.1 -1.32349 -1.43072 0
M  V30 14130 H 1383.2 -1.05987 -2.93553 0
M  V30 14131 N 1383.5 1.34231 -0.825823 0
M  V30 14132 C 1384.73 2.02124 -0.427727 0
M  V30 14133 C 1385.14 1.62331 0.971869 0
M  V30 14134 O 1384.48 0.825946 1.64085 0
M  V30 14135 C 1384.54 3.56626 -0.453698 0
M  V30 14136 C 1384.21 4.19752 -1.80713 0
M  V30 14137 C 1385.21 4.40062 -2.76842 0
M  V30 14138 C 1382.89 4.5646 -2.09641 0
M  V30 14139 C 1384.88 4.9621 -4.00069 0
M  V30 14140 C 1382.57 5.12318 -3.33127 0
M  V30 14141 C 1383.57 5.32137 -4.28158 0
M  V30 14142 O 1383.26 5.86811 -5.49462 0
M  V30 14143 H 1382.99 0.654389 -0.169563 0
M  V30 14144 H 1385.54 1.72421 -1.11624 0
M  V30 14145 H 1383.77 3.856 0.291527 0
M  V30 14146 H 1385.46 4.0583 -0.075249 0
M  V30 14147 H 1386.23 4.12064 -2.5579 0
M  V30 14148 H 1382.11 4.40337 -1.36473 0
M  V30 14149 H 1385.65 5.11594 -4.74254 0
M  V30 14150 H 1381.55 5.39746 -3.54041 0
M  V30 14151 H 1382.32 6.05242 -5.51022 0
M  V30 14152 N 1384.98 0.581051 1.46498 0
M  V30 14153 C 1386.4 0.242599 1.57745 0
M  V30 14154 C 1386.6 -1.25508 1.57639 0
M  V30 14155 O 1385.65 -2.0367 1.49247 0
M  V30 14156 C 1386.96 0.890342 2.87217 0
M  V30 14157 C 1388.51 0.863778 3.00845 0
M  V30 14158 C 1388.99 1.49103 4.3305 0
M  V30 14159 N 1390.48 1.4553 4.39745 0
M  V30 14160 C 1391.21 1.91003 5.40653 0
M  V30 14161 N 1390.71 2.44442 6.48244 0
M  V30 14162 N 1392.5 1.8193 5.31844 0
M  V30 14163 H 1384.65 1.55382 1.44811 0
M  V30 14164 H 1386.92 0.649375 0.690664 0
M  V30 14165 H 1386.62 1.94383 2.93101 0
M  V30 14166 H 1386.5 0.397569 3.75099 0
M  V30 14167 H 1388.88 -0.181089 2.94544 0
M  V30 14168 H 1388.96 1.39455 2.14443 0
M  V30 14169 H 1388.61 2.53509 4.40109 0
M  V30 14170 H 1388.54 0.935496 5.18224 0
M  V30 14171 H 1391.03 1.06466 3.62593 0
M  V30 14172 H 1391.34 2.77002 7.2145 0
M  V30 14173 H 1389.69 2.48467 6.49068 0
M  V30 14174 H 1392.88 1.3994 4.46693 0
M  V30 14175 H 1393.05 2.17685 6.10342 0
M  V30 14176 N 1386.46 -1.54343 0.318742 0
M  V30 14177 C 1387.7 -2.00777 -0.285699 0
M  V30 14178 C 1388.04 -1.20664 -1.52164 0
M  V30 14179 O 1387.31 -0.287674 -1.92361 0
M  V30 14180 C 1387.59 -3.54641 -0.624649 0
M  V30 14181 C 1387.45 -4.45483 0.621663 0
M  V30 14182 C 1388.77 -4.15729 -1.4442 0
M  V30 14183 H 1385.89 -0.729856 -0.102367 0
M  V30 14184 H 1388.53 -1.84968 0.434364 0
M  V30 14185 H 1386.68 -3.68243 -1.23811 0
M  V30 14186 H 1388.35 -4.43759 1.25998 0
M  V30 14187 H 1386.59 -4.15356 1.25148 0
M  V30 14188 H 1387.26 -5.50951 0.340106 0
M  V30 14189 H 1389.74 -4.05672 -0.925699 0
M  V30 14190 H 1388.62 -5.23509 -1.65013 0
M  V30 14191 H 1388.88 -3.68743 -2.43887 0
M  V30 14192 N 1387.94 -0.0468143 -1.5753 0
M  V30 14193 C 1389.21 0.667567 -1.83856 0
M  V30 14194 C 1389.59 1.89297 -0.934346 0
M  V30 14195 O 1388.94 2.28499 0.00570067 0
M  V30 14196 C 1389.15 1.029 -3.33485 0
M  V30 14197 C 1390.5 1.41315 -4.00394 0
M  V30 14198 O 1391.52 1.12147 -3.38085 0
M  V30 14199 O 1390.38 1.95732 -5.10246 0
M  V30 14200 H 1387.48 0.329112 -0.758692 0
M  V30 14201 H 1390.02 -0.0758456 -1.6953 0
M  V30 14202 H 1388.79 0.157617 -3.90982 0
M  V30 14203 H 1388.42 1.83 -3.52982 0
M  V30 14204 N 1389.41 1.55964 0.226527 0
M  V30 14205 C 1390.66 1.7901 0.95306 0
M  V30 14206 C 1390.99 0.615608 1.84184 0
M  V30 14207 O 1390.27 -0.385341 1.90645 0
M  V30 14208 C 1390.55 3.12101 1.79624 0
M  V30 14209 C 1390.4 4.3999 0.934286 0
M  V30 14210 C 1391.72 3.4159 2.77496 0
M  V30 14211 H 1388.84 0.651236 0.345052 0
M  V30 14212 H 1391.48 1.88696 0.222236 0
M  V30 14213 H 1389.63 3.03975 2.41933 0
M  V30 14214 H 1391.31 4.6013 0.328328 0
M  V30 14215 H 1389.55 4.33138 0.239487 0
M  V30 14216 H 1390.22 5.29541 1.55853 0
M  V30 14217 H 1392.7 3.49812 2.25323 0
M  V30 14218 H 1391.57 4.35894 3.33599 0
M  V30 14219 H 1391.83 2.6351 3.54986 0
M  V30 14220 N 1390.89 -0.493031 1.4969 0
M  V30 14221 C 1392.14 -1.2433 1.58823 0
M  V30 14222 C 1392.45 -1.9353 0.283823 0
M  V30 14223 O 1393.66 -2.70311 0.253801 0
M  V30 14224 C 1392.12 -2.25792 2.8026 0
M  V30 14225 C 1391.72 -1.62496 4.17491 0
M  V30 14226 C 1393.47 -3.01598 2.98729 0
M  V30 14227 C 1391.38 -2.62115 5.30141 0
M  V30 14228 H 1390.31 -0.467738 0.591386 0
M  V30 14229 H 1392.96 -0.516238 1.76089 0
M  V30 14230 H 1391.34 -3.01696 2.56506 0
M  V30 14231 H 1392.51 -0.925305 4.51414 0
M  V30 14232 H 1390.83 -0.990516 4.04447 0
M  V30 14233 H 1393.42 -3.76111 3.80058 0
M  V30 14234 H 1393.77 -3.59687 2.09597 0
M  V30 14235 H 1394.3 -2.32809 3.2256 0
M  V30 14236 H 1391.04 -2.08797 6.21357 0
M  V30 14237 H 1390.56 -3.30298 5.00663 0
M  V30 14238 H 1392.24 -3.24385 5.59807 0
M  V30 14239 N 1392.37 -1.38898 -0.744656 0
M  V30 14240 C 1393.78 -1.31789 -1.32244 0
M  V30 14241 C 1394.13 0.0222208 -1.96187 0
M  V30 14242 O 1393.26 0.924328 -1.95666 0
M  V30 14243 C 1393.85 -2.38674 -2.40458 0
M  V30 14244 C 1392.41 -2.35116 -2.93935 0
M  V30 14245 C 1391.56 -2.21069 -1.67403 0
M  V30 14246 H 1394.51 -1.49126 -0.54287 0
M  V30 14247 H 1394.53 -2.04905 -3.20615 0
M  V30 14248 H 1394.04 -3.36197 -1.9389 0
M  V30 14249 H 1392.14 -1.41201 -3.44809 0
M  V30 14250 H 1392.26 -3.29602 -3.47706 0
M  V30 14251 H 1390.62 -1.68074 -1.91372 0
M  V30 14252 H 1391.4 -3.20547 -1.229 0
M  V30 14253 N 1393.85 0.973806 -1.23914 0
M  V30 14254 C 1395.09 1.71852 -1.07678 0
M  V30 14255 C 1395.43 1.90357 0.384425 0
M  V30 14256 O 1394.7 1.46063 1.28436 0
M  V30 14257 C 1394.99 3.1129 -1.81026 0
M  V30 14258 C 1394.84 3.00315 -3.3486 0
M  V30 14259 C 1396.16 4.10835 -1.57805 0
M  V30 14260 H 1393.28 0.623749 -0.392564 0
M  V30 14261 H 1395.92 1.13325 -1.52504 0
M  V30 14262 H 1394.07 3.61255 -1.42922 0
M  V30 14263 H 1395.74 2.57823 -3.82524 0
M  V30 14264 H 1393.98 2.36667 -3.63553 0
M  V30 14265 H 1394.65 3.9907 -3.81376 0
M  V30 14266 H 1397.13 3.69705 -1.90939 0
M  V30 14267 H 1396.01 5.06478 -2.11591 0
M  V30 14268 H 1396.27 4.39091 -0.514894 0
M  V30 14269 N 1395.33 1.05191 1.17357 0
M  V30 14270 C 1396.27 0.646796 2.23426 0
M  V30 14271 C 1397.27 -0.331918 1.66116 0
M  V30 14272 O 1398.47 -0.197982 1.78908 0
M  V30 14273 H 1394.85 0.190988 0.727343 0
M  V30 14274 H 1396.82 1.55152 2.54893 0
M  V30 14275 C 1395.57 0.037505 3.4768 0
M  V30 14276 H 1394.89 0.781686 3.92084 0
M  V30 14277 H 1396.33 -0.20858 4.23487 0
M  V30 14278 C 1394.79 -1.21581 3.14197 0
M  V30 14279 O 1395.32 -2.3052 3.28973 0
M  V30 14280 N 1393.53 -1.11346 2.68422 0
M  V30 14281 H 1393.07 -0.226943 2.56598 0
M  V30 14282 H 1393.03 -1.95291 2.46392 0
M  V30 14283 N 1396.8 -1.33791 0.83293 0
M  V30 14284 C 1397.73 -2.31853 0.276846 0
M  V30 14285 C 1398.72 -1.58702 -0.612184 0
M  V30 14286 O 1399.9 -1.86629 -0.536975 0
M  V30 14287 C 1397.03 -3.42855 -0.55385 0
M  V30 14288 C 1395.98 -4.27333 0.238884 0
M  V30 14289 C 1395.31 -5.29895 -0.715187 0
M  V30 14290 C 1396.61 -5.01692 1.45265 0
M  V30 14291 H 1398.3 -2.78611 1.09618 0
M  V30 14292 H 1395.85 -1.33949 0.528562 0
M  V30 14293 H 1397.8 -4.10479 -0.953133 0
M  V30 14294 H 1396.53 -2.94771 -1.40634 0
M  V30 14295 H 1395.19 -3.61325 0.619656 0
M  V30 14296 H 1394.83 -4.7807 -1.56391 0
M  V30 14297 H 1394.53 -5.87296 -0.188921 0
M  V30 14298 H 1396.06 -6.00387 -1.11211 0
M  V30 14299 H 1397.47 -5.62117 1.12685 0
M  V30 14300 H 1395.87 -5.68715 1.91528 0
M  V30 14301 H 1396.94 -4.30809 2.22558 0
M  V30 14302 N 1398.28 -0.588812 -1.46187 0
M  V30 14303 C 1399.69 -0.163897 -1.85979 0
M  V30 14304 C 1400.04 1.27458 -1.49161 0
M  V30 14305 O 1399.17 1.96365 -0.909372 0
M  V30 14306 C 1399.76 -0.29067 -3.37551 0
M  V30 14307 C 1398.32 0.0794165 -3.76316 0
M  V30 14308 C 1397.47 -0.623807 -2.70192 0
M  V30 14309 H 1400.42 -0.79666 -1.37255 0
M  V30 14310 H 1400.44 0.482316 -3.77431 0
M  V30 14311 H 1399.95 -1.33771 -3.64317 0
M  V30 14312 H 1398.06 1.12636 -3.55168 0
M  V30 14313 H 1398.17 -0.301153 -4.78153 0
M  V30 14314 H 1396.53 -0.0634124 -2.54621 0
M  V30 14315 H 1397.32 -1.67261 -2.99797 0
M  V30 14316 N 1399.76 1.54172 -0.326923 0
M  V30 14317 C 1401.01 2.00233 0.274098 0
M  V30 14318 C 1401.33 1.21665 1.5239 0
M  V30 14319 O 1400.6 0.319359 1.93279 0
M  V30 14320 H 1399.18 0.739687 0.104271 0
M  V30 14321 H 1401.84 1.8977 -0.444244 0
M  V30 14322 H 1400.94 3.07599 0.528154 0
M  V30 14323 N 1401.24 0.0551678 1.57503 0
M  V30 14324 C 1402.15 -0.932959 2.15251 0
M  V30 14325 C 1403.16 -1.33885 1.11134 0
M  V30 14326 O 1404.34 -1.41495 1.43321 0
M  V30 14327 C 1401.41 -2.18807 2.68932 0
M  V30 14328 C 1400.47 -1.84016 3.87862 0
M  V30 14329 C 1399.7 -3.03543 4.38973 0
M  V30 14330 O 1399.92 -4.17041 3.89144 0
M  V30 14331 O 1398.86 -2.84325 5.30512 0
M  V30 14332 H 1402.68 -0.471816 3.00013 0
M  V30 14333 H 1400.27 -0.16696 1.48464 0
M  V30 14334 H 1402.15 -2.92439 3.0341 0
M  V30 14335 H 1400.82 -2.64051 1.87239 0
M  V30 14336 H 1399.73 -1.07687 3.58266 0
M  V30 14337 H 1401.06 -1.43567 4.70796 0
M  V30 14338 N 1402.72 -1.56081 -0.218252 0
M  V30 14339 C 1403.67 -1.89082 -1.27405 0
M  V30 14340 C 1404.65 -0.754204 -1.42129 0
M  V30 14341 O 1405.84 -1.01668 -1.44888 0
M  V30 14342 C 1402.97 -2.21387 -2.62379 0
M  V30 14343 C 1402.06 -3.41448 -2.51543 0
M  V30 14344 N 1402.45 -4.5998 -2.10362 0
M  V30 14345 C 1400.75 -3.45128 -2.82494 0
M  V30 14346 C 1401.45 -5.42139 -2.10857 0
M  V30 14347 N 1400.42 -4.81936 -2.51472 0
M  V30 14348 H 1404.23 -2.78238 -0.946609 0
M  V30 14349 H 1401.74 -1.56691 -0.426801 0
M  V30 14350 H 1403.74 -2.43205 -3.38611 0
M  V30 14351 H 1402.4 -1.33545 -2.95966 0
M  V30 14352 H 1403.41 -4.85077 -1.8144 0
M  V30 14353 H 1400.08 -2.67638 -3.20431 0
M  V30 14354 H 1401.47 -6.47029 -1.81114 0
M  V30 14355 N 1404.2 0.485086 -1.49949 0
M  V30 14356 C 1405.44 1.23571 -1.5992 0
M  V30 14357 C 1405.76 1.92754 -0.295108 0
M  V30 14358 O 1405.03 1.83474 0.686582 0
M  V30 14359 H 1403.61 0.459104 -0.589264 0
M  V30 14360 H 1406.28 0.560822 -1.86657 0
M  V30 14361 H 1405.37 1.99114 -2.40333 0
M  V30 14362 N 1405.67 1.39291 0.737279 0
M  V30 14363 C 1406.61 1.33728 1.86144 0
M  V30 14364 C 1407.62 0.246468 1.60924 0
M  V30 14365 O 1408.81 0.505252 1.712 0
M  V30 14366 C 1405.91 1.05312 3.22122 0
M  V30 14367 C 1405.08 2.25624 3.74716 0
M  V30 14368 C 1404.14 1.937 4.89251 0
M  V30 14369 O 1403.17 2.66361 5.03031 0
M  V30 14370 N 1404.37 0.901782 5.73453 0
M  V30 14371 H 1407.13 2.30604 1.91421 0
M  V30 14372 H 1404.69 1.33364 0.917919 0
M  V30 14373 H 1406.69 0.819784 3.9631 0
M  V30 14374 H 1405.26 0.171773 3.12128 0
M  V30 14375 H 1404.48 2.64923 2.91906 0
M  V30 14376 H 1405.76 3.05881 4.06589 0
M  V30 14377 H 1405.16 0.299553 5.64906 0
M  V30 14378 H 1403.72 0.728344 6.47718 0
M  V30 14379 N 1407.15 -0.967221 1.24429 0
M  V30 14380 C 1408.57 -1.23594 1.00979 0
M  V30 14381 C 1408.77 -1.99529 -0.281112 0
M  V30 14382 O 1407.82 -2.31977 -0.997139 0
M  V30 14383 C 1409.14 -2.02261 2.22511 0
M  V30 14384 C 1410.68 -2.15352 2.2714 0
M  V30 14385 C 1411.16 -2.97414 3.48294 0
M  V30 14386 N 1412.65 -3.04996 3.48614 0
M  V30 14387 C 1413.39 -3.68851 4.39017 0
M  V30 14388 N 1412.88 -4.34421 5.39676 0
M  V30 14389 N 1414.67 -3.65868 4.26728 0
M  V30 14390 H 1406.83 -0.458881 2.07384 0
M  V30 14391 H 1409.09 -0.265411 0.910088 0
M  V30 14392 H 1408.79 -1.53852 3.16263 0
M  V30 14393 H 1408.67 -3.02993 2.24667 0
M  V30 14394 H 1411.06 -2.62964 1.33919 0
M  V30 14395 H 1411.14 -1.13966 2.2901 0
M  V30 14396 H 1410.78 -2.50495 4.41831 0
M  V30 14397 H 1410.71 -3.98998 3.43668 0
M  V30 14398 H 1413.2 -2.58354 2.75793 0
M  V30 14399 H 1413.51 -4.80965 6.04891 0
M  V30 14400 H 1411.86 -4.33089 5.43562 0
M  V30 14401 H 1415.05 -3.13819 3.47325 0
M  V30 14402 H 1415.22 -4.15349 4.97382 0
M  V30 14403 N 1408.63 -1.05812 -1.16797 0
M  V30 14404 C 1409.56 -0.685778 -2.23202 0
M  V30 14405 C 1410.54 0.319428 -1.67074 0
M  V30 14406 O 1411.73 0.195635 -1.93212 0
M  V30 14407 C 1408.86 -0.0662958 -3.47237 0
M  V30 14408 C 1407.81 -0.996943 -4.16227 0
M  V30 14409 C 1407.14 -0.241015 -5.34157 0
M  V30 14410 C 1408.44 -2.32384 -4.67755 0
M  V30 14411 H 1410.13 -1.57535 -2.54604 0
M  V30 14412 H 1407.68 -0.758909 -1.22379 0
M  V30 14413 H 1409.63 0.206024 -4.20896 0
M  V30 14414 H 1408.35 0.858263 -3.15121 0
M  V30 14415 H 1407.01 -1.25393 -3.44488 0
M  V30 14416 H 1406.66 0.686508 -4.98293 0
M  V30 14417 H 1406.36 -0.861188 -5.81255 0
M  V30 14418 H 1407.88 0.0238739 -6.10595 0
M  V30 14419 H 1409.3 -2.11099 -5.3302 0
M  V30 14420 H 1407.69 -2.89855 -5.25456 0
M  V30 14421 H 1408.76 -2.958 -3.84227 0
M  V30 14422 N 1410.11 1.33347 -0.840014 0
M  V30 14423 C 1411.52 1.80077 -0.492851 0
M  V30 14424 C 1411.87 1.69495 0.988221 0
M  V30 14425 O 1410.99 1.2449 1.77006 0
M  V30 14426 C 1411.59 3.2696 -0.887827 0
M  V30 14427 C 1410.15 3.71703 -0.592785 0
M  V30 14428 C 1409.3 2.54742 -1.09554 0
M  V30 14429 H 1412.25 1.20853 -1.02861 0
M  V30 14430 H 1412.27 3.79983 -0.198327 0
M  V30 14431 H 1411.78 3.3463 -1.96581 0
M  V30 14432 H 1409.88 3.69559 0.475086 0
M  V30 14433 H 1409.99 4.65123 -1.14882 0
M  V30 14434 H 1408.36 2.49411 -0.516357 0
M  V30 14435 H 1409.14 2.65173 -2.18032 0
M  V30 14436 N 1411.59 0.596556 1.45873 0
M  V30 14437 C 1412.83 0.0850976 2.0152 0
M  V30 14438 C 1413.15 -1.28799 1.47208 0
M  V30 14439 O 1414.35 -1.89156 1.94762 0
M  V30 14440 C 1412.81 0.101488 3.59757 0
M  V30 14441 C 1412.42 1.47374 4.23066 0
M  V30 14442 C 1414.16 -0.355303 4.2301 0
M  V30 14443 C 1412.07 1.44711 5.73422 0
M  V30 14444 H 1411 0.0280444 0.753478 0
M  V30 14445 H 1413.65 0.750255 1.67462 0
M  V30 14446 H 1412.03 -0.630108 3.90955 0
M  V30 14447 H 1413.21 2.22617 4.03458 0
M  V30 14448 H 1411.52 1.87171 3.71962 0
M  V30 14449 H 1414.12 -0.394236 5.33245 0
M  V30 14450 H 1414.46 -1.37573 3.92911 0
M  V30 14451 H 1414.99 0.32267 3.96489 0
M  V30 14452 H 1411.73 2.44479 6.08203 0
M  V30 14453 H 1411.25 0.737102 5.95254 0
M  V30 14454 H 1412.93 1.16598 6.36407 0
M  V30 14455 N 1413.06 -1.53996 0.335095 0
M  V30 14456 C 1414.29 -2.05657 -0.268328 0
M  V30 14457 C 1414.71 -1.20897 -1.44102 0
M  V30 14458 O 1414.07 -0.220737 -1.79951 0
M  V30 14459 C 1414.12 -3.54331 -0.669481 0
M  V30 14460 O 1413.22 -3.7246 -1.77052 0
M  V30 14461 H 1412.56 -0.662386 -0.0462705 0
M  V30 14462 H 1415.09 -1.98723 0.486854 0
M  V30 14463 H 1415.1 -3.9681 -0.948971 0
M  V30 14464 H 1413.78 -4.15474 0.188168 0
M  V30 14465 H 1412.36 -3.41884 -1.48895 0
M  V30 14466 N 1414.54 -0.0635198 -1.57472 0
M  V30 14467 C 1415.96 0.293084 -1.56886 0
M  V30 14468 C 1416.16 1.70603 -1.07224 0
M  V30 14469 O 1415.21 2.41584 -0.734388 0
M  V30 14470 C 1416.53 0.110286 -3.00498 0
M  V30 14471 C 1418.07 0.180453 -3.12479 0
M  V30 14472 C 1418.55 0.0260354 -4.57993 0
M  V30 14473 N 1420.04 0.0819109 -4.63128 0
M  V30 14474 C 1420.78 -0.0132764 -5.73398 0
M  V30 14475 N 1420.27 -0.161514 -6.92612 0
M  V30 14476 N 1422.06 0.0431948 -5.62083 0
M  V30 14477 H 1414.22 -0.98706 -1.88072 0
M  V30 14478 H 1416.48 -0.384232 -0.866643 0
M  V30 14479 H 1416.18 -0.864378 -3.40913 0
M  V30 14480 H 1416.06 0.866117 -3.67122 0
M  V30 14481 H 1418.45 1.1456 -2.71956 0
M  V30 14482 H 1418.53 -0.606342 -2.4851 0
M  V30 14483 H 1418.17 -0.935839 -4.99204 0
M  V30 14484 H 1418.1 0.832131 -5.19984 0
M  V30 14485 H 1420.59 0.195229 -3.77395 0
M  V30 14486 H 1420.9 -0.226517 -7.72468 0
M  V30 14487 H 1419.25 -0.196766 -6.94721 0
M  V30 14488 H 1422.44 0.157648 -4.67834 0
M  V30 14489 H 1422.61 -0.0344435 -6.47991 0
M  V30 14490 N 1416.02 1.56195 0.209972 0
M  V30 14491 C 1416.97 1.94226 1.27981 0
M  V30 14492 C 1417.96 0.825742 1.47912 0
M  V30 14493 O 1419.17 1.01066 1.48949 0
M  V30 14494 H 1415.54 0.617395 0.429333 0
M  V30 14495 H 1417.51 2.83474 0.931946 0
M  V30 14496 C 1416.26 2.28527 2.62051 0
M  V30 14497 H 1415.59 3.1396 2.47526 0
M  V30 14498 H 1417.03 2.59012 3.35692 0
M  V30 14499 C 1415.48 1.11452 3.17931 0
M  V30 14500 O 1416.01 0.381713 3.99882 0
M  V30 14501 N 1414.22 0.895263 2.76466 0
M  V30 14502 H 1413.77 1.4929 2.09929 0
M  V30 14503 H 1413.73 0.113688 3.14194 0
M  V30 14504 N 1417.5 -0.477127 1.50204 0
M  V30 14505 C 1418.73 -1.25307 1.64638 0
M  V30 14506 C 1419.14 -1.85942 0.327274 0
M  V30 14507 O 1418.5 -1.6895 -0.690088 0
M  V30 14508 C 1418.55 -2.36616 2.73304 0
M  V30 14509 O 1418.27 -1.78469 4.00101 0
M  V30 14510 C 1419.77 -3.27595 2.98658 0
M  V30 14511 H 1416.99 -0.379192 0.553583 0
M  V30 14512 H 1419.53 -0.5702 1.9639 0
M  V30 14513 H 1417.69 -3.00689 2.44264 0
M  V30 14514 H 1418.1 -2.51722 4.60148 0
M  V30 14515 H 1419.58 -4.01921 3.7837 0
M  V30 14516 H 1420.05 -3.86017 2.09493 0
M  V30 14517 H 1420.66 -2.69264 3.29206 0
M  V30 14518 N 1418.98 -1.3968 -0.729882 0
M  V30 14519 C 1420.22 -1.37182 -1.48954 0
M  V30 14520 C 1420.55 0.0305728 -1.94476 0
M  V30 14521 O 1419.81 1.0124 -1.67478 0
M  V30 14522 C 1420.11 -2.29499 -2.7398 0
M  V30 14523 C 1419.77 -3.77034 -2.47298 0
M  V30 14524 C 1418.43 -4.17232 -2.39731 0
M  V30 14525 C 1420.79 -4.70325 -2.24597 0
M  V30 14526 C 1418.11 -5.48777 -2.07511 0
M  V30 14527 C 1420.47 -6.02153 -1.93893 0
M  V30 14528 C 1419.13 -6.41409 -1.84798 0
M  V30 14529 H 1418.4 -0.501985 -0.545061 0
M  V30 14530 H 1421.05 -1.72226 -0.837294 0
M  V30 14531 H 1419.35 -1.87592 -3.43972 0
M  V30 14532 H 1421.05 -2.24857 -3.32024 0
M  V30 14533 H 1417.64 -3.45177 -2.54069 0
M  V30 14534 H 1421.82 -4.40097 -2.29408 0
M  V30 14535 H 1417.08 -5.78109 -1.98996 0
M  V30 14536 H 1421.25 -6.73966 -1.75337 0
M  V30 14537 H 1418.88 -7.43258 -1.59598 0
M  V30 14538 N 1420.45 0.960609 -1.2494 0
M  V30 14539 C 1421.42 2.03791 -1.04891 0
M  V30 14540 C 1422.42 1.608 -0.00375792 0
M  V30 14541 O 1423.61 1.72463 -0.24539 0
M  V30 14542 C 1420.74 3.35733 -0.591309 0
M  V30 14543 H 1421.93 2.2301 -2.00516 0
M  V30 14544 H 1419.49 1.13686 -1.07263 0
M  V30 14545 H 1420.22 3.22207 0.367816 0
M  V30 14546 H 1420.01 3.68283 -1.34574 0
M  V30 14547 H 1421.5 4.14921 -0.472283 0
M  V30 14548 N 1421.93 1.0643 1.16234 0
M  V30 14549 C 1422.84 0.687446 2.24302 0
M  V30 14550 C 1423.86 -0.297132 1.71444 0
M  V30 14551 O 1425.03 -0.146101 2.00869 0
M  V30 14552 C 1422.1 0.0810973 3.46605 0
M  V30 14553 C 1421.16 1.11772 4.14494 0
M  V30 14554 C 1420.39 0.54021 5.30959 0
M  V30 14555 O 1420.62 -0.646619 5.66723 0
M  V30 14556 O 1419.55 1.28057 5.8812 0
M  V30 14557 H 1423.38 1.58842 2.58849 0
M  V30 14558 H 1420.96 0.836649 1.23776 0
M  V30 14559 H 1422.84 -0.25524 4.20626 0
M  V30 14560 H 1421.52 -0.793338 3.13828 0
M  V30 14561 H 1420.43 1.50626 3.42436 0
M  V30 14562 H 1421.76 1.96373 4.5133 0
M  V30 14563 N 1423.41 -1.329 0.847073 0
M  V30 14564 C 1424.66 -1.97803 0.447417 0
M  V30 14565 C 1424.99 -1.6691 -0.9927 0
M  V30 14566 O 1424.26 -0.953315 -1.69535 0
M  V30 14567 C 1424.55 -3.53657 0.678135 0
M  V30 14568 C 1424.4 -3.94207 2.16612 0
M  V30 14569 C 1425.72 -4.39909 0.129589 0
M  V30 14570 H 1422.84 -0.718514 0.164034 0
M  V30 14571 H 1425.48 -1.57407 1.0641 0
M  V30 14572 H 1423.63 -3.88198 0.153222 0
M  V30 14573 H 1425.3 -3.69883 2.75653 0
M  V30 14574 H 1423.55 -3.43641 2.64752 0
M  V30 14575 H 1424.22 -5.02791 2.27827 0
M  V30 14576 H 1426.69 -4.12061 0.578371 0
M  V30 14577 H 1425.57 -5.47963 0.320648 0
M  V30 14578 H 1425.83 -4.31391 -0.967167 0
M  V30 14579 N 1424.89 -0.604284 -1.45555 0
M  V30 14580 C 1426.12 -0.104452 -2.06636 0
M  V30 14581 C 1426.53 1.20976 -1.44949 0
M  V30 14582 O 1425.89 1.73616 -0.562468 0
M  V30 14583 C 1425.94 0.0451646 -3.61472 0
M  V30 14584 O 1425.66 -1.21705 -4.20856 0
M  V30 14585 C 1427.16 0.57684 -4.39531 0
M  V30 14586 H 1424.38 -0.067326 -0.667614 0
M  V30 14587 H 1426.93 -0.831079 -1.86851 0
M  V30 14588 H 1425.08 0.722104 -3.80611 0
M  V30 14589 H 1425.49 -1.04462 -5.13992 0
M  V30 14590 H 1426.97 0.630627 -5.48386 0
M  V30 14591 H 1427.45 1.59842 -4.09081 0
M  V30 14592 H 1428.05 -0.0659444 -4.25249 0
M  V30 14593 N 1426.37 1.53816 -0.343257 0
M  V30 14594 C 1427.61 2.00512 0.252845 0
M  V30 14595 C 1427.94 1.23274 1.51091 0
M  V30 14596 O 1427.21 0.339841 1.9293 0
M  V30 14597 H 1425.79 0.740751 0.0964202 0
M  V30 14598 H 1428.45 1.89288 -0.464347 0
M  V30 14599 H 1427.54 3.08142 0.495499 0
M  V30 14600 N 1427.84 0.0718701 1.57436 0
M  V30 14601 C 1428.77 -0.89288 2.15754 0
M  V30 14602 C 1429.76 -1.31036 1.0846 0
M  V30 14603 O 1430.94 -1.38139 1.36496 0
M  V30 14604 C 1428.07 -2.16044 2.71923 0
M  V30 14605 C 1427.02 -1.88236 3.84384 0
M  V30 14606 C 1426.35 -3.21624 4.27156 0
M  V30 14607 C 1427.65 -1.18758 5.0862 0
M  V30 14608 H 1429.34 -0.407061 2.9662 0
M  V30 14609 H 1426.89 -0.194354 1.42682 0
M  V30 14610 H 1428.84 -2.83952 3.11366 0
M  V30 14611 H 1427.57 -2.66868 1.88279 0
M  V30 14612 H 1426.23 -1.22734 3.45445 0
M  V30 14613 H 1425.87 -3.70289 3.40433 0
M  V30 14614 H 1425.57 -3.03809 5.02965 0
M  V30 14615 H 1427.1 -3.90729 4.69215 0
M  V30 14616 H 1428.51 -1.76735 5.45378 0
M  V30 14617 H 1426.91 -1.11201 5.89707 0
M  V30 14618 H 1427.98 -0.166682 4.84613 0
M  V30 14619 N 1429.32 -1.56304 -0.201686 0
M  V30 14620 C 1430.55 -1.84692 -0.943583 0
M  V30 14621 C 1430.97 -0.654649 -1.7634 0
M  V30 14622 O 1430.33 0.396586 -1.76909 0
M  V30 14623 C 1430.38 -3.11251 -1.82085 0
M  V30 14624 O 1429.48 -2.9134 -2.91881 0
M  V30 14625 H 1428.82 -0.608351 -0.266092 0
M  V30 14626 H 1431.35 -2.0353 -0.208992 0
M  V30 14627 H 1431.36 -3.41874 -2.2268 0
M  V30 14628 H 1430.04 -3.97652 -1.21844 0
M  V30 14629 H 1428.62 -2.72 -2.55089 0
M  V30 14630 N 1430.8 0.469154 -1.50455 0
M  V30 14631 C 1432.21 1.04997 -1.54378 0
M  V30 14632 C 1432.56 1.93082 -0.348414 0
M  V30 14633 O 1431.69 2.09594 0.538469 0
M  V30 14634 C 1432.28 1.91096 -2.79764 0
M  V30 14635 C 1430.84 2.44283 -2.86361 0
M  V30 14636 C 1429.99 1.22676 -2.48688 0
M  V30 14637 H 1432.94 0.251692 -1.56691 0
M  V30 14638 H 1432.96 2.76186 -2.61728 0
M  V30 14639 H 1432.47 1.26961 -3.66746 0
M  V30 14640 H 1430.57 3.11966 -2.03735 0
M  V30 14641 H 1430.69 2.79258 -3.89297 0
M  V30 14642 H 1429.05 1.56215 -2.01169 0
M  V30 14643 H 1429.83 0.602002 -3.37981 0
M  V30 14644 N 1432.28 1.40065 0.722464 0
M  V30 14645 C 1433.53 1.37698 1.47932 0
M  V30 14646 C 1433.85 -0.0222608 1.94987 0
M  V30 14647 O 1433.12 -0.975795 1.69868 0
M  V30 14648 H 1431.7 0.506766 0.548815 0
M  V30 14649 H 1434.36 1.75053 0.856884 0
M  V30 14650 H 1433.46 2.04756 2.35545 0
M  V30 14651 N 1433.76 -0.95397 1.25448 0
M  V30 14652 C 1435 -1.70118 1.10399 0
M  V30 14653 C 1435.34 -1.90945 -0.354093 0
M  V30 14654 O 1434.61 -1.48088 -1.26096 0
M  V30 14655 C 1434.89 -3.08371 1.85955 0
M  V30 14656 C 1434.75 -2.9495 3.39595 0
M  V30 14657 C 1436.07 -4.08273 1.64321 0
M  V30 14658 H 1433.19 -0.617424 0.402438 0
M  V30 14659 H 1435.83 -1.10884 1.54288 0
M  V30 14660 H 1433.98 -3.58936 1.48651 0
M  V30 14661 H 1435.65 -2.51705 3.86578 0
M  V30 14662 H 1433.89 -2.30853 3.67273 0
M  V30 14663 H 1434.56 -3.92952 3.87676 0
M  V30 14664 H 1437.04 -3.6662 1.96796 0
M  V30 14665 H 1435.92 -5.03048 2.19622 0
M  V30 14666 H 1436.18 -4.38217 0.584685 0
M  V30 14667 N 1435.24 -1.07045 -1.15668 0
M  V30 14668 C 1436.46 -0.812746 -1.90268 0
M  V30 14669 C 1436.88 0.633722 -1.77847 0
M  V30 14670 O 1436.24 1.43444 -1.12828 0
M  V30 14671 C 1436.29 -1.20793 -3.40722 0
M  V30 14672 O 1436.01 -2.59764 -3.52781 0
M  V30 14673 C 1437.51 -0.979074 -4.32353 0
M  V30 14674 H 1434.73 -0.294093 -0.603117 0
M  V30 14675 H 1437.27 -1.42609 -1.46571 0
M  V30 14676 H 1435.43 -0.638975 -3.82094 0
M  V30 14677 H 1435.84 -2.75801 -4.46133 0
M  V30 14678 H 1437.32 -1.30513 -5.36349 0
M  V30 14679 H 1437.79 0.0847752 -4.39118 0
M  V30 14680 H 1438.4 -1.53278 -3.96719 0
M  V30 14681 N 1436.71 1.32449 -0.85411 0
M  V30 14682 C 1437.94 2.01171 -0.470505 0
M  V30 14683 C 1438.35 1.64356 0.937218 0
M  V30 14684 O 1437.69 0.860565 1.62296 0
M  V30 14685 C 1437.76 3.55583 -0.529241 0
M  V30 14686 C 1437.42 4.15824 -1.89576 0
M  V30 14687 C 1438.42 4.34091 -2.86114 0
M  V30 14688 C 1436.1 4.51911 -2.19276 0
M  V30 14689 C 1438.1 4.87612 -4.10504 0
M  V30 14690 C 1435.78 5.05137 -3.43919 0
M  V30 14691 C 1436.78 5.22936 -4.39349 0
M  V30 14692 O 1436.47 5.75024 -5.61785 0
M  V30 14693 H 1436.2 0.650645 -0.183405 0
M  V30 14694 H 1438.76 1.70015 -1.15257 0
M  V30 14695 H 1436.99 3.86131 0.209671 0
M  V30 14696 H 1438.67 4.05579 -0.161315 0
M  V30 14697 H 1439.44 4.06545 -2.64473 0
M  V30 14698 H 1435.32 4.37343 -1.45782 0
M  V30 14699 H 1438.86 5.0142 -4.84999 0
M  V30 14700 H 1434.76 5.32114 -3.6541 0
M  V30 14701 H 1435.53 5.93418 -5.63736 0
M  V30 14702 N 1438.19 0.611994 1.45232 0
M  V30 14703 C 1439.42 0.115242 2.06278 0
M  V30 14704 C 1439.83 -1.20752 1.45656 0
M  V30 14705 O 1439.17 -1.7474 0.566697 0
M  V30 14706 C 1439.23 -0.0941449 3.59377 0
M  V30 14707 C 1438.9 1.1475 4.42359 0
M  V30 14708 C 1439.9 2.06669 4.77058 0
M  V30 14709 C 1437.58 1.37756 4.83041 0
M  V30 14710 C 1439.57 3.19919 5.51299 0
M  V30 14711 C 1437.26 2.51306 5.57035 0
M  V30 14712 C 1438.26 3.42216 5.91082 0
M  V30 14713 O 1437.95 4.5379 6.63574 0
M  V30 14714 H 1437.68 0.0680317 0.672568 0
M  V30 14715 H 1440.23 0.840932 1.87397 0
M  V30 14716 H 1438.46 -0.874775 3.76676 0
M  V30 14717 H 1440.15 -0.543047 4.02251 0
M  V30 14718 H 1440.92 1.90122 4.46182 0
M  V30 14719 H 1436.8 0.678922 4.55973 0
M  V30 14720 H 1440.34 3.90901 5.77791 0
M  V30 14721 H 1436.24 2.67804 5.87325 0
M  V30 14722 H 1437.01 4.52527 6.82027 0
M  V30 14723 N 1439.67 -1.53632 0.351409 0
M  V30 14724 C 1440.92 -2.0104 -0.242687 0
M  V30 14725 C 1441.24 -1.23906 -1.49925 0
M  V30 14726 O 1440.5 -0.316927 -1.93117 0
M  V30 14727 C 1440.8 -3.5242 -0.594561 0
M  V30 14728 C 1440.46 -4.47333 0.566031 0
M  V30 14729 C 1439.13 -4.73001 0.884515 0
M  V30 14730 C 1441.48 -5.03566 1.34426 0
M  V30 14731 C 1438.81 -5.52156 1.98346 0
M  V30 14732 C 1441.16 -5.8392 2.43351 0
M  V30 14733 C 1439.82 -6.0788 2.7575 0
M  V30 14734 H 1439.09 -0.735659 -0.0888056 0
M  V30 14735 H 1441.74 -1.85362 0.480948 0
M  V30 14736 H 1440.04 -3.65971 -1.39902 0
M  V30 14737 H 1441.74 -3.86565 -1.06625 0
M  V30 14738 H 1438.33 -4.27494 0.307751 0
M  V30 14739 H 1442.52 -4.83694 1.11146 0
M  V30 14740 H 1437.77 -5.68942 2.23863 0
M  V30 14741 H 1441.95 -6.26505 3.04079 0
M  V30 14742 H 1439.57 -6.69001 3.61029 0
M  V30 14743 N 1441.15 -0.0802183 -1.57396 0
M  V30 14744 C 1442.09 0.884041 -2.13198 0
M  V30 14745 C 1443.06 1.28975 -1.04664 0
M  V30 14746 O 1444.25 1.37413 -1.32372 0
M  V30 14747 C 1441.39 2.14323 -2.7048 0
M  V30 14748 C 1440.5 1.7894 -3.93198 0
M  V30 14749 C 1439.64 2.99534 -4.38695 0
M  V30 14750 C 1438.68 2.60207 -5.54039 0
M  V30 14751 N 1437.81 3.73587 -5.94455 0
M  V30 14752 H 1442.65 0.40131 -2.95285 0
M  V30 14753 H 1440.19 0.186429 -1.45914 0
M  V30 14754 H 1442.15 2.88046 -3.01804 0
M  V30 14755 H 1440.78 2.60122 -1.91144 0
M  V30 14756 H 1439.83 0.952465 -3.68283 0
M  V30 14757 H 1441.14 1.46012 -4.76951 0
M  V30 14758 H 1440.3 3.81526 -4.71724 0
M  V30 14759 H 1439.04 3.35661 -3.53812 0
M  V30 14760 H 1438.04 1.76638 -5.20652 0
M  V30 14761 H 1439.27 2.2524 -6.40659 0
M  V30 14762 H 1437.21 4.0946 -5.12521 0
M  V30 14763 H 1437.13 3.44455 -6.72969 0
M  V30 14764 H 1438.4 4.56133 -6.3211 0
M  V30 14765 N 1442.63 1.56409 0.193394 0
M  V30 14766 C 1443.87 1.80991 0.914875 0
M  V30 14767 C 1444.2 0.654538 1.82837 0
M  V30 14768 O 1443.48 -0.344816 1.91419 0
M  V30 14769 C 1443.76 3.15841 1.72964 0
M  V30 14770 C 1443.62 4.41873 0.840748 0
M  V30 14771 C 1444.93 3.474 2.70188 0
M  V30 14772 H 1442.05 0.658408 0.331161 0
M  V30 14773 H 1444.7 1.89125 0.182161 0
M  V30 14774 H 1442.85 3.09038 2.35431 0
M  V30 14775 H 1444.52 4.60723 0.230654 0
M  V30 14776 H 1442.76 4.33549 0.147558 0
M  V30 14777 H 1443.43 5.32728 1.44586 0
M  V30 14778 H 1445.91 3.54513 2.17852 0
M  V30 14779 H 1444.78 4.42872 3.24278 0
M  V30 14780 H 1445.04 2.7098 3.49317 0
M  V30 14781 N 1444.1 -0.461169 1.50702 0
M  V30 14782 C 1445.35 -1.21251 1.62186 0
M  V30 14783 C 1445.68 -1.91735 0.326818 0
M  V30 14784 O 1444.93 -1.83212 -0.687879 0
M  V30 14785 C 1445.23 -2.27213 2.75879 0
M  V30 14786 C 1444.9 -1.73912 4.16011 0
M  V30 14787 C 1443.56 -1.59097 4.54138 0
M  V30 14788 C 1445.91 -1.34477 5.03553 0
M  V30 14789 C 1443.24 -1.03285 5.77537 0
M  V30 14790 C 1445.59 -0.801027 6.27508 0
M  V30 14791 C 1444.26 -0.639586 6.64429 0
M  V30 14792 H 1443.53 -0.443689 0.593482 0
M  V30 14793 H 1446.17 -0.507035 1.84666 0
M  V30 14794 H 1444.48 -3.03707 2.47526 0
M  V30 14795 H 1446.18 -2.85124 2.81967 0
M  V30 14796 H 1442.77 -1.86413 3.85938 0
M  V30 14797 H 1446.95 -1.44753 4.74721 0
M  V30 14798 H 1442.21 -0.895316 6.04809 0
M  V30 14799 H 1446.38 -0.486842 6.94696 0
M  V30 14800 H 1444.01 -0.204966 7.59924 0
M  V30 14801 N 1445.58 -1.40446 -0.715026 0
M  V30 14802 C 1446.54 -1.40506 -1.81082 0
M  V30 14803 C 1447.54 -0.298768 -1.58 0
M  V30 14804 O 1448.73 -0.5577 -1.65031 0
M  V30 14805 C 1445.87 -1.19735 -3.19181 0
M  V30 14806 H 1447.06 -2.38034 -1.82427 0
M  V30 14807 H 1444.61 -1.26303 -0.920718 0
M  V30 14808 H 1445.35 -0.229695 -3.23486 0
M  V30 14809 H 1445.13 -1.99871 -3.37334 0
M  V30 14810 H 1446.62 -1.22566 -3.99208 0
M  V30 14811 N 1447.06 0.947303 -1.25952 0
M  V30 14812 C 1448.31 1.6953 -1.11299 0
M  V30 14813 C 1448.64 1.9113 0.343961 0
M  V30 14814 O 1447.91 1.48755 1.25309 0
M  V30 14815 C 1448.2 3.0738 -1.87588 0
M  V30 14816 C 1448.05 2.93145 -3.41154 0
M  V30 14817 C 1449.37 4.07396 -1.66483 0
M  V30 14818 H 1446.49 0.615281 -0.405707 0
M  V30 14819 H 1449.13 1.10064 -1.54874 0
M  V30 14820 H 1447.28 3.58143 -1.50553 0
M  V30 14821 H 1448.95 2.49651 -3.87907 0
M  V30 14822 H 1447.19 2.28902 -3.68492 0
M  V30 14823 H 1447.87 3.9089 -3.89755 0
M  V30 14824 H 1450.34 3.65572 -1.98738 0
M  V30 14825 H 1449.22 5.01876 -2.22287 0
M  V30 14826 H 1449.48 4.379 -0.607916 0
M  V30 14827 N 1448.54 1.07657 1.15099 0
M  V30 14828 C 1449.76 0.82291 1.90376 0
M  V30 14829 C 1450.19 -0.618415 1.77644 0
M  V30 14830 O 1449.55 -1.43248 1.11129 0
M  V30 14831 C 1449.59 1.23988 3.38614 0
M  V30 14832 O 1448.7 0.387085 4.10579 0
M  V30 14833 H 1448.04 0.299532 0.592602 0
M  V30 14834 H 1450.57 1.436 1.4574 0
M  V30 14835 H 1450.58 1.21741 3.89414 0
M  V30 14836 H 1449.25 2.28966 3.472 0
M  V30 14837 H 1447.83 0.472311 3.69897 0
M  V30 14838 N 1450.02 -1.31994 0.861122 0
M  V30 14839 C 1450.97 -2.26248 0.282123 0
M  V30 14840 C 1451.95 -1.50246 -0.57575 0
M  V30 14841 O 1453.14 -1.71845 -0.424075 0
M  V30 14842 C 1450.27 -3.39293 -0.523011 0
M  V30 14843 C 1449.36 -4.22673 0.34761 0
M  V30 14844 N 1449.75 -4.8496 1.43692 0
M  V30 14845 C 1448.05 -4.45785 0.138488 0
M  V30 14846 C 1448.75 -5.47215 1.97307 0
M  V30 14847 N 1447.72 -5.28525 1.27132 0
M  V30 14848 H 1451.53 -2.71936 1.11481 0
M  V30 14849 H 1449.04 -1.46158 0.707928 0
M  V30 14850 H 1451.04 -4.05832 -0.954269 0
M  V30 14851 H 1449.7 -2.95149 -1.35341 0
M  V30 14852 H 1450.71 -4.84873 1.81985 0
M  V30 14853 H 1447.38 -4.12303 -0.656677 0
M  V30 14854 H 1448.77 -6.06737 2.88652 0
M  V30 14855 N 1451.49 -0.619688 -1.44906 0
M  V30 14856 C 1452.74 -0.119397 -2.01747 0
M  V30 14857 C 1453.06 1.25904 -1.48907 0
M  V30 14858 O 1452.33 1.83417 -0.688104 0
M  V30 14859 H 1450.91 -0.0411482 -0.745866 0
M  V30 14860 H 1453.58 -0.803813 -1.77552 0
M  V30 14861 H 1452.67 -0.078368 -3.12002 0
M  V30 14862 N 1452.97 1.53444 -0.359552 0
M  V30 14863 C 1454.39 1.59598 -0.00824946 0
M  V30 14864 C 1454.59 1.37492 1.47303 0
M  V30 14865 O 1453.64 1.1771 2.23385 0
M  V30 14866 C 1454.96 2.9718 -0.45878 0
M  V30 14867 C 1456.51 3.1027 -0.412485 0
M  V30 14868 C 1456.98 4.50255 -0.838733 0
M  V30 14869 N 1458.47 4.56352 -0.793552 0
M  V30 14870 C 1459.21 5.62845 -1.09513 0
M  V30 14871 N 1458.7 6.77119 -1.46567 0
M  V30 14872 N 1460.5 5.52799 -1.01832 0
M  V30 14873 H 1452.65 1.66065 -1.32424 0
M  V30 14874 H 1454.91 0.778561 -0.540876 0
M  V30 14875 H 1454.62 3.18475 -1.4922 0
M  V30 14876 H 1454.49 3.7687 0.157741 0
M  V30 14877 H 1456.88 2.88689 0.611791 0
M  V30 14878 H 1456.96 2.32602 -1.06442 0
M  V30 14879 H 1456.6 4.72573 -1.8611 0
M  V30 14880 H 1456.53 5.26344 -0.164109 0
M  V30 14881 H 1459.02 3.74299 -0.52048 0
M  V30 14882 H 1459.34 7.54313 -1.68021 0
M  V30 14883 H 1457.68 6.78525 -1.50427 0
M  V30 14884 H 1460.87 4.62403 -0.728059 0
M  V30 14885 H 1461.04 6.35698 -1.25668 0
M  V30 14886 N 1454.45 0.0885642 1.57351 0
M  V30 14887 C 1455.36 -0.887092 2.17182 0
M  V30 14888 C 1456.38 -1.31498 1.13949 0
M  V30 14889 O 1457.55 -1.38424 1.4629 0
M  V30 14890 C 1454.62 -2.13053 2.73513 0
M  V30 14891 C 1453.68 -1.75747 3.91678 0
M  V30 14892 C 1452.91 -2.94163 4.45313 0
M  V30 14893 O 1453.13 -4.08693 3.97903 0
M  V30 14894 O 1452.07 -2.73008 5.36424 0
M  V30 14895 H 1455.89 -0.408073 3.00946 0
M  V30 14896 H 1453.48 -0.135431 1.48785 0
M  V30 14897 H 1455.36 -2.85937 3.09545 0
M  V30 14898 H 1454.04 -2.6002 1.92798 0
M  V30 14899 H 1452.94 -1.00064 3.60469 0
M  V30 14900 H 1454.28 -1.33549 4.73736 0
M  V30 14901 N 1455.93 -1.56509 -0.185096 0
M  V30 14902 C 1457.15 -1.85683 -0.923941 0
M  V30 14903 C 1457.58 -0.673315 -1.75636 0
M  V30 14904 O 1456.94 0.3778 -1.7732 0
M  V30 14905 C 1456.98 -3.13165 -1.78774 0
M  V30 14906 O 1456.09 -2.9442 -2.88775 0
M  V30 14907 H 1455.43 -0.611139 -0.259624 0
M  V30 14908 H 1457.96 -2.0374 -0.187393 0
M  V30 14909 H 1457.97 -3.44216 -2.19042 0
M  V30 14910 H 1456.64 -3.98922 -1.17619 0
M  V30 14911 H 1455.22 -2.7469 -2.5219 0
M  V30 14912 N 1457.41 0.45317 -1.50944 0
M  V30 14913 C 1458.35 1.54885 -1.71112 0
M  V30 14914 C 1459.32 1.56639 -0.552566 0
M  V30 14915 O 1460.51 1.73894 -0.785203 0
M  V30 14916 C 1457.65 2.92729 -1.82766 0
M  V30 14917 C 1456.76 3.00626 -3.10239 0
M  V30 14918 C 1455.9 4.29495 -3.12582 0
M  V30 14919 C 1454.94 4.312 -4.34434 0
M  V30 14920 N 1454.07 5.51568 -4.34415 0
M  V30 14921 H 1458.91 1.36992 -2.64645 0
M  V30 14922 H 1456.45 0.665753 -1.31172 0
M  V30 14923 H 1458.41 3.7269 -1.87505 0
M  V30 14924 H 1457.04 3.09216 -0.926561 0
M  V30 14925 H 1456.09 2.13426 -3.14886 0
M  V30 14926 H 1457.4 2.97746 -4.00186 0
M  V30 14927 H 1456.56 5.17817 -3.16149 0
M  V30 14928 H 1455.29 4.35009 -2.20496 0
M  V30 14929 H 1454.3 3.41272 -4.3106 0
M  V30 14930 H 1455.52 4.27363 -5.27767 0
M  V30 14931 H 1453.47 5.57834 -3.45192 0
M  V30 14932 H 1453.39 5.50504 -5.18152 0
M  V30 14933 H 1454.66 6.41966 -4.42153 0
M  V30 14934 N 1458.88 1.40823 0.707568 0
M  V30 14935 C 1460.3 1.35249 1.28704 0
M  V30 14936 C 1460.65 0.0298026 1.96177 0
M  V30 14937 O 1459.77 -0.872126 1.98048 0
M  V30 14938 C 1460.37 2.44965 2.34046 0
M  V30 14939 C 1458.93 2.42826 2.87598 0
M  V30 14940 C 1458.07 2.25429 1.61483 0
M  V30 14941 H 1461.02 1.50513 0.503141 0
M  V30 14942 H 1461.04 2.13334 3.1507 0
M  V30 14943 H 1460.56 3.41219 1.84908 0
M  V30 14944 H 1458.66 1.50294 3.40944 0
M  V30 14945 H 1458.77 3.38704 3.38845 0
M  V30 14946 H 1457.13 1.73089 1.86848 0
M  V30 14947 H 1457.92 3.23693 1.14359 0
M  V30 14948 N 1460.36 -0.94061 1.26453 0
M  V30 14949 C 1461.29 -2.05667 1.10559 0
M  V30 14950 C 1462.27 -1.70097 0.0106258 0
M  V30 14951 O 1463.46 -1.93338 0.182756 0
M  V30 14952 C 1460.59 -3.3936 0.7384 0
M  V30 14953 C 1459.54 -3.88993 1.78517 0
M  V30 14954 C 1458.87 -5.19343 1.27228 0
M  V30 14955 C 1460.17 -4.13812 3.1868 0
M  V30 14956 H 1461.86 -2.19221 2.03918 0
M  V30 14957 H 1459.41 -1.05339 0.98182 0
M  V30 14958 H 1461.36 -4.16902 0.61409 0
M  V30 14959 H 1460.09 -3.25783 -0.230887 0
M  V30 14960 H 1458.74 -3.13633 1.89816 0
M  V30 14961 H 1458.39 -5.02147 0.292816 0
M  V30 14962 H 1458.09 -5.53521 1.97201 0
M  V30 14963 H 1459.62 -5.99468 1.16065 0
M  V30 14964 H 1461.03 -4.81966 3.10455 0
M  V30 14965 H 1459.43 -4.59273 3.86249 0
M  V30 14966 H 1460.5 -3.19571 3.64695 0
M  V30 14967 N 1461.84 -1.08266 -1.14527 0
M  V30 14968 C 1463.07 -0.83288 -1.89396 0
M  V30 14969 C 1463.48 0.614823 -1.78509 0
M  V30 14970 O 1462.84 1.42239 -1.14343 0
M  V30 14971 C 1462.89 -1.244 -3.39421 0
M  V30 14972 O 1462.61 -2.63491 -3.50006 0
M  V30 14973 C 1464.11 -1.02488 -4.3129 0
M  V30 14974 H 1461.33 -0.300474 -0.599964 0
M  V30 14975 H 1463.88 -1.44155 -1.4505 0
M  V30 14976 H 1462.03 -0.679466 -3.81395 0
M  V30 14977 H 1462.45 -2.80517 -4.43182 0
M  V30 14978 H 1463.92 -1.36194 -5.34935 0
M  V30 14979 H 1464.4 0.0381961 -4.39183 0
M  V30 14980 H 1465 -1.57477 -3.95071 0
M  V30 14981 N 1463.32 1.31536 -0.86811 0
M  V30 14982 C 1464.28 2.26849 -0.327456 0
M  V30 14983 C 1465.28 1.52142 0.520514 0
M  V30 14984 O 1466.47 1.71044 0.330088 0
M  V30 14985 C 1463.6 3.36673 0.535174 0
M  V30 14986 H 1464.8 2.76184 -1.16886 0
M  V30 14987 H 1462.35 1.42437 -0.643545 0
M  V30 14988 H 1463.09 2.92627 1.39785 0
M  V30 14989 H 1462.87 3.92034 -0.0719835 0
M  V30 14990 H 1464.36 4.07658 0.905786 0
M  V30 14991 N 1464.8 0.627364 1.44575 0
M  V30 14992 C 1465.73 -0.118179 2.28895 0
M  V30 14993 C 1466.74 -0.812569 1.41071 0
M  V30 14994 O 1467.93 -0.674646 1.6526 0
M  V30 14995 C 1465.03 -1.18937 3.17344 0
M  V30 14996 C 1464.2 -0.578226 4.33561 0
M  V30 14997 C 1463.26 -1.54288 5.03072 0
M  V30 14998 O 1462.29 -1.06148 5.59215 0
M  V30 14999 N 1463.49 -2.87725 5.04177 0
M  V30 15000 H 1466.26 0.605442 2.93521 0
M  V30 15001 H 1463.82 0.468253 1.54981 0
M  V30 15002 H 1465.81 -1.83494 3.60711 0
M  V30 15003 H 1464.38 -1.81526 2.54494 0
M  V30 15004 H 1463.6 0.245883 3.93432 0
M  V30 15005 H 1464.89 -0.150502 5.08577 0
M  V30 15006 H 1464.29 -3.29421 4.5989 0
M  V30 15007 H 1462.84 -3.47653 5.51344 0
M  V30 15008 N 1466.28 -1.53251 0.367684 0
M  V30 15009 C 1467.21 -2.23396 -0.512539 0
M  V30 15010 C 1468.22 -1.2488 -1.04446 0
M  V30 15011 O 1469.41 -1.5109 -0.950477 0
M  V30 15012 C 1466.51 -2.91971 -1.72064 0
M  V30 15013 C 1465.68 -4.17011 -1.31986 0
M  V30 15014 C 1464.74 -4.68779 -2.39025 0
M  V30 15015 O 1463.77 -5.32405 -2.01328 0
M  V30 15016 N 1464.97 -4.46773 -3.7064 0
M  V30 15017 H 1467.73 -2.9957 0.0883152 0
M  V30 15018 H 1465.3 -1.60746 0.192966 0
M  V30 15019 H 1467.29 -3.23511 -2.43152 0
M  V30 15020 H 1465.86 -2.19237 -2.22831 0
M  V30 15021 H 1465.08 -3.91751 -0.438732 0
M  V30 15022 H 1466.37 -4.98298 -1.02842 0
M  V30 15023 H 1465.76 -3.95938 -4.04042 0
M  V30 15024 H 1464.32 -4.82857 -4.37827 0
M  V30 15025 N 1467.75 -0.0969077 -1.57302 0
M  V30 15026 C 1468.98 0.574705 -1.98758 0
M  V30 15027 C 1469.4 1.61612 -0.976067 0
M  V30 15028 O 1468.75 1.82468 0.0340803 0
M  V30 15029 C 1468.8 1.22078 -3.40263 0
M  V30 15030 O 1468.53 0.221022 -4.37542 0
M  V30 15031 C 1470.03 1.97783 -3.96732 0
M  V30 15032 H 1467.25 0.153934 -0.653104 0
M  V30 15033 H 1469.79 -0.17673 -2.03735 0
M  V30 15034 H 1467.95 1.92314 -3.36295 0
M  V30 15035 H 1468.36 0.687583 -5.19974 0
M  V30 15036 H 1469.83 2.38346 -4.97891 0
M  V30 15037 H 1470.31 2.8444 -3.3465 0
M  V30 15038 H 1470.92 1.3236 -4.04179 0
M  V30 15039 N 1469.23 1.56605 0.176793 0
M  V30 15040 C 1470.46 1.85812 0.910019 0
M  V30 15041 C 1470.87 0.68164 1.76066 0
M  V30 15042 O 1470.23 -0.34936 1.79125 0
M  V30 15043 C 1470.28 3.14001 1.79125 0
M  V30 15044 O 1470 4.27114 0.974931 0
M  V30 15045 C 1471.5 3.56516 2.6346 0
M  V30 15046 H 1468.72 0.616608 0.264643 0
M  V30 15047 H 1471.27 2.03719 0.178537 0
M  V30 15048 H 1469.42 2.97937 2.47613 0
M  V30 15049 H 1469.84 5.00227 1.57711 0
M  V30 15050 H 1471.31 4.49128 3.20918 0
M  V30 15051 H 1471.79 2.80373 3.38065 0
M  V30 15052 H 1472.39 3.75173 2.00313 0
M  V30 15053 N 1470.71 -0.445159 1.51182 0
M  V30 15054 C 1471.66 -1.53975 1.71931 0
M  V30 15055 C 1472.63 -1.56344 0.560865 0
M  V30 15056 O 1473.81 -1.73475 0.794414 0
M  V30 15057 C 1470.95 -2.91756 1.84316 0
M  V30 15058 C 1470.06 -2.98976 3.11829 0
M  V30 15059 C 1469.2 -4.27831 3.14855 0
M  V30 15060 C 1468.24 -4.2889 4.36715 0
M  V30 15061 N 1467.38 -5.49257 4.37334 0
M  V30 15062 H 1472.22 -1.35586 2.65368 0
M  V30 15063 H 1469.75 -0.658787 1.31523 0
M  V30 15064 H 1471.71 -3.7169 1.89479 0
M  V30 15065 H 1470.34 -3.08721 0.942947 0
M  V30 15066 H 1469.39 -2.11753 3.16014 0
M  V30 15067 H 1470.7 -2.95619 4.01759 0
M  V30 15068 H 1469.86 -5.16134 3.1889 0
M  V30 15069 H 1468.6 -4.33833 2.228 0
M  V30 15070 H 1467.6 -3.38982 4.32864 0
M  V30 15071 H 1468.83 -4.24558 5.30026 0
M  V30 15072 H 1466.77 -5.55995 3.48145 0
M  V30 15073 H 1466.69 -5.47748 5.21064 0
M  V30 15074 H 1467.96 -6.39613 4.45551 0
M  V30 15075 N 1472.19 -1.41197 -0.700089 0
M  V30 15076 C 1473.12 -1.45456 -1.8266 0
M  V30 15077 C 1474.1 -0.313719 -1.67182 0
M  V30 15078 O 1475.28 -0.524528 -1.86982 0
M  V30 15079 C 1472.41 -1.33161 -3.20758 0
M  V30 15080 C 1471.37 -2.4501 -3.50933 0
M  V30 15081 C 1470.69 -2.17782 -4.88339 0
M  V30 15082 C 1471.99 -3.87352 -3.50365 0
M  V30 15083 H 1473.69 -2.39735 -1.79353 0
M  V30 15084 H 1471.23 -1.1539 -0.861465 0
M  V30 15085 H 1473.19 -1.34754 -3.99274 0
M  V30 15086 H 1471.91 -0.353646 -3.2468 0
M  V30 15087 H 1470.57 -2.42692 -2.74766 0
M  V30 15088 H 1470.22 -1.1834 -4.88881 0
M  V30 15089 H 1469.92 -2.92728 -5.09494 0
M  V30 15090 H 1471.44 -2.21083 -5.6917 0
M  V30 15091 H 1472.86 -3.9141 -4.18893 0
M  V30 15092 H 1471.25 -4.61944 -3.83051 0
M  V30 15093 H 1472.32 -4.15827 -2.4943 0
M  V30 15094 N 1473.67 0.933891 -1.2695 0
M  V30 15095 C 1474.94 1.65874 -1.0366 0
M  V30 15096 C 1475.32 2.0666 0.43066 0
M  V30 15097 O 1474.67 1.79606 1.41259 0
M  V30 15098 C 1474.88 2.86546 -1.99229 0
M  V30 15099 C 1476.23 3.58031 -2.28251 0
M  V30 15100 O 1477.25 2.96663 -1.97154 0
M  V30 15101 O 1476.11 4.68583 -2.81233 0
M  V30 15102 H 1473.21 0.72673 -0.394706 0
M  V30 15103 H 1475.75 0.984975 -1.38189 0
M  V30 15104 H 1474.52 2.53351 -2.9821 0
M  V30 15105 H 1474.15 3.61645 -1.65224 0
M  V30 15106 N 1475.14 1.08871 1.13951 0
M  V30 15107 C 1476.11 0.726655 2.17376 0
M  V30 15108 C 1477.11 -0.240922 1.58985 0
M  V30 15109 O 1478.3 -0.0198472 1.74189 0
M  V30 15110 C 1475.43 0.0736505 3.4082 0
M  V30 15111 H 1476.62 1.64254 2.5092 0
M  V30 15112 H 1474.17 0.887183 1.28681 0
M  V30 15113 H 1474.91 -0.853733 3.12861 0
M  V30 15114 H 1474.69 0.769782 3.84469 0
M  V30 15115 H 1476.18 -0.164465 4.17276 0
M  V30 15116 N 1476.62 -1.31073 0.875073 0
M  V30 15117 C 1478.03 -1.78707 0.540422 0
M  V30 15118 C 1478.38 -1.72056 -0.942935 0
M  V30 15119 O 1477.51 -1.29139 -1.73643 0
M  V30 15120 C 1478.1 -3.24491 0.974203 0
M  V30 15121 C 1476.66 -3.70001 0.691127 0
M  V30 15122 C 1475.81 -2.51748 1.16269 0
M  V30 15123 H 1478.76 -1.18083 1.06029 0
M  V30 15124 H 1478.78 -3.79323 0.299003 0
M  V30 15125 H 1478.29 -3.29301 2.05384 0
M  V30 15126 H 1476.39 -3.70688 -0.376937 0
M  V30 15127 H 1476.51 -4.61913 1.27173 0
M  V30 15128 H 1474.87 -2.47954 0.582302 0
M  V30 15129 H 1475.65 -2.59299 2.24986 0
M  V30 15130 N 1478.1 -0.635022 -1.4424 0
M  V30 15131 C 1479.33 -0.14826 -2.06368 0
M  V30 15132 C 1479.74 1.17875 -1.47482 0
M  V30 15133 O 1479.1 1.72384 -0.599168 0
M  V30 15134 C 1479.15 -0.031519 -3.61486 0
M  V30 15135 O 1478.87 -1.30605 -4.18179 0
M  V30 15136 C 1480.37 0.483479 -4.40656 0
M  V30 15137 H 1477.59 -0.081472 -0.666036 0
M  V30 15138 H 1480.14 -0.870526 -1.85046 0
M  V30 15139 H 1478.29 0.641208 -3.82057 0
M  V30 15140 H 1478.71 -1.15341 -5.11661 0
M  V30 15141 H 1480.18 0.514164 -5.496 0
M  V30 15142 H 1480.66 1.51129 -4.12379 0
M  V30 15143 H 1481.26 -0.156131 -4.25013 0
M  V30 15144 N 1479.58 1.53054 -0.375806 0
M  V30 15145 C 1480.53 2.27576 0.480838 0
M  V30 15146 C 1481.52 1.30948 1.07466 0
M  V30 15147 O 1482.73 1.48538 1.01669 0
M  V30 15148 H 1479.1 0.731641 0.173799 0
M  V30 15149 H 1481.07 2.97919 -0.169327 0
M  V30 15150 C 1479.82 3.08533 1.60321 0
M  V30 15151 H 1479.14 3.82735 1.15558 0
M  V30 15152 H 1480.58 3.63837 2.17712 0
M  V30 15153 C 1479.04 2.20004 2.55147 0
M  V30 15154 O 1479.57 1.81771 3.58221 0
M  V30 15155 N 1477.78 1.84433 2.24573 0
M  V30 15156 H 1477.33 2.15723 1.40788 0
M  V30 15157 H 1477.28 1.25488 2.88271 0
M  V30 15158 N 1481.06 0.105248 1.57248 0
M  V30 15159 C 1481.99 -0.846915 2.176 0
M  V30 15160 C 1482.97 -1.28706 1.11216 0
M  V30 15161 O 1484.15 -1.35213 1.39396 0
M  V30 15162 C 1481.28 -2.10228 2.76445 0
M  V30 15163 C 1480.24 -1.80041 3.8829 0
M  V30 15164 C 1479.56 -3.12491 4.33882 0
M  V30 15165 C 1480.86 -1.07943 5.11024 0
M  V30 15166 H 1482.56 -0.344052 2.97417 0
M  V30 15167 H 1480.1 -0.164045 1.43063 0
M  V30 15168 H 1482.06 -2.77284 3.17319 0
M  V30 15169 H 1480.78 -2.62815 1.93897 0
M  V30 15170 H 1479.44 -1.15379 3.4797 0
M  V30 15171 H 1479.09 -3.62985 3.48211 0
M  V30 15172 H 1478.79 -2.93072 5.09296 0
M  V30 15173 H 1480.31 -3.80688 4.77398 0
M  V30 15174 H 1481.72 -1.65127 5.49004 0
M  V30 15175 H 1480.12 -0.986674 5.91933 0
M  V30 15176 H 1481.19 -0.0638511 4.84858 0
M  V30 15177 N 1482.53 -1.56697 -0.168486 0
M  V30 15178 C 1483.47 -1.93197 -1.23319 0
M  V30 15179 C 1484.48 -0.825373 -1.40326 0
M  V30 15180 O 1485.67 -1.10381 -1.40279 0
M  V30 15181 C 1482.77 -2.17205 -2.60145 0
M  V30 15182 C 1481.94 -3.48442 -2.64399 0
M  V30 15183 C 1481 -3.61244 -3.82609 0
M  V30 15184 O 1480.03 -4.33837 -3.68476 0
M  V30 15185 N 1481.23 -2.96304 -4.99183 0
M  V30 15186 H 1483.99 -2.85128 -0.923138 0
M  V30 15187 H 1481.55 -1.57887 -0.358229 0
M  V30 15188 H 1483.55 -2.23031 -3.37697 0
M  V30 15189 H 1482.12 -1.31643 -2.83529 0
M  V30 15190 H 1481.34 -3.54248 -1.72922 0
M  V30 15191 H 1482.62 -4.34795 -2.64255 0
M  V30 15192 H 1482.02 -2.37203 -5.13567 0
M  V30 15193 H 1480.58 -3.07722 -5.74587 0
M  V30 15194 N 1484.01 0.437135 -1.51416 0
M  V30 15195 C 1485.26 1.18655 -1.64095 0
M  V30 15196 C 1485.59 1.9119 -0.35728 0
M  V30 15197 O 1484.84 1.84283 0.658644 0
M  V30 15198 C 1485.14 2.22795 -2.79458 0
M  V30 15199 C 1484.81 1.67271 -4.18726 0
M  V30 15200 C 1483.47 1.51852 -4.56612 0
M  V30 15201 C 1485.82 1.26448 -5.05629 0
M  V30 15202 C 1483.15 0.940834 -5.79107 0
M  V30 15203 C 1485.5 0.701095 -6.28703 0
M  V30 15204 C 1484.17 0.533801 -6.65362 0
M  V30 15205 H 1483.44 0.434191 -0.600466 0
M  V30 15206 H 1486.08 0.477592 -1.85449 0
M  V30 15207 H 1484.39 2.99731 -2.52327 0
M  V30 15208 H 1486.08 2.80602 -2.86467 0
M  V30 15209 H 1482.67 1.80249 -3.88855 0
M  V30 15210 H 1486.86 1.37182 -4.76964 0
M  V30 15211 H 1482.11 0.798982 -6.06157 0
M  V30 15212 H 1486.29 0.37626 -6.95383 0
M  V30 15213 H 1483.92 0.0840431 -7.60154 0
M  V30 15214 N 1485.49 1.41566 0.692592 0
M  V30 15215 C 1486.74 1.41292 1.4548 0
M  V30 15216 C 1487.07 0.0229093 1.94186 0
M  V30 15217 O 1486.34 -0.949849 1.6973 0
M  V30 15218 C 1486.63 2.42225 2.66457 0
M  V30 15219 C 1486.48 3.90345 2.23496 0
M  V30 15220 C 1487.8 2.40374 3.68658 0
M  V30 15221 H 1484.92 0.51453 0.527663 0
M  V30 15222 H 1487.56 1.72862 0.788598 0
M  V30 15223 H 1485.71 2.15435 3.23296 0
M  V30 15224 H 1487.38 4.2805 1.71962 0
M  V30 15225 H 1485.63 4.05068 1.55249 0
M  V30 15226 H 1486.3 4.56518 3.10314 0
M  V30 15227 H 1488.77 2.64156 3.21498 0
M  V30 15228 H 1487.65 3.13004 4.5091 0
M  V30 15229 H 1487.91 1.42338 4.1856 0
M  V30 15230 N 1486.97 -0.927146 1.27443 0
M  V30 15231 C 1487.92 -2.04917 1.10053 0
M  V30 15232 C 1488.91 -1.69384 0.0234668 0
M  V30 15233 O 1490.12 -1.79085 0.181228 0
M  V30 15234 H 1486.49 -0.671189 0.33913 0
M  V30 15235 H 1488.46 -2.16732 2.05109 0
M  V30 15236 C 1487.21 -3.39178 0.765072 0
M  V30 15237 H 1486.53 -3.67006 1.58577 0
M  V30 15238 H 1487.97 -4.18458 0.683266 0
M  V30 15239 C 1486.43 -3.32696 -0.530578 0
M  V30 15240 O 1486.96 -3.69967 -1.56484 0
M  V30 15241 N 1485.17 -2.85793 -0.526396 0
M  V30 15242 H 1484.72 -2.55658 0.315675 0
M  V30 15243 H 1484.67 -2.81838 -1.39337 0
M  V30 15244 N 1488.45 -1.09474 -1.13372 0
M  V30 15245 C 1489.36 -0.746674 -2.224 0
M  V30 15246 C 1490.37 0.251572 -1.72172 0
M  V30 15247 O 1491.55 0.092793 -2.01186 0
M  V30 15248 C 1488.61 -0.172965 -3.46268 0
M  V30 15249 C 1487.67 -1.22722 -4.11385 0
M  V30 15250 C 1486.91 -0.680794 -5.2934 0
M  V30 15251 O 1487.13 0.496135 -5.68238 0
M  V30 15252 O 1486.06 -1.43605 -5.84518 0
M  V30 15253 H 1489.89 -1.65649 -2.54547 0
M  V30 15254 H 1487.48 -0.869172 -1.21514 0
M  V30 15255 H 1489.36 0.143629 -4.21155 0
M  V30 15256 H 1488.03 0.709853 -3.15821 0
M  V30 15257 H 1486.94 -1.59652 -3.38323 0
M  V30 15258 H 1488.27 -2.0827 -4.45965 0
M  V30 15259 N 1489.92 1.30607 -0.882012 0
M  V30 15260 C 1491.15 2.00418 -0.513815 0
M  V30 15261 C 1491.57 1.66135 0.896916 0
M  V30 15262 O 1490.92 0.89691 1.5894 0
M  V30 15263 C 1490.98 3.55133 -0.675503 0
M  V30 15264 O 1490.7 3.88194 -2.03069 0
M  V30 15265 C 1492.2 4.42215 -0.309906 0
M  V30 15266 H 1489.42 0.640839 -0.198913 0
M  V30 15267 H 1491.96 1.66561 -1.1865 0
M  V30 15268 H 1490.12 3.87367 -0.0502289 0
M  V30 15269 H 1490.53 4.82899 -2.04717 0
M  V30 15270 H 1492 5.49962 -0.473948 0
M  V30 15271 H 1492.48 4.32717 0.751852 0
M  V30 15272 H 1493.09 4.1542 -0.91138 0
M  V30 15273 N 1491.4 0.642663 1.43901 0
M  V30 15274 C 1492.68 0.0821715 1.95427 0
M  V30 15275 C 1493.06 -1.3951 1.58431 0
M  V30 15276 O 1492.41 -2.11531 0.864118 0
M  V30 15277 C 1492.62 0.317229 3.47555 0
M  V30 15278 C 1493.97 0.216547 4.24047 0
M  V30 15279 O 1494.99 0.249216 3.55327 0
M  V30 15280 O 1493.85 0.131269 5.46342 0
M  V30 15281 H 1490.94 -0.0156936 0.826851 0
M  V30 15282 H 1493.49 0.715168 1.53894 0
M  V30 15283 H 1492.26 1.34184 3.67574 0
M  V30 15284 H 1491.88 -0.349348 3.96062 0
M  V30 15285 N 1492.88 -1.52852 0.383918 0
M  V30 15286 C 1494.11 -2.06406 -0.202764 0
M  V30 15287 C 1494.53 -1.25421 -1.40183 0
M  V30 15288 O 1493.89 -0.277876 -1.79158 0
M  V30 15289 C 1493.94 -3.56281 -0.556414 0
M  V30 15290 O 1493.04 -3.77904 -1.65113 0
M  V30 15291 H 1492.38 -0.663523 -0.0251737 0
M  V30 15292 H 1494.91 -1.97074 0.54983 0
M  V30 15293 H 1494.92 -3.99629 -0.822249 0
M  V30 15294 H 1493.6 -4.14665 0.320253 0
M  V30 15295 H 1492.17 -3.46448 -1.37943 0
M  V30 15296 N 1494.36 -0.113586 -1.5719 0
M  V30 15297 C 1495.59 0.553592 -1.99356 0
M  V30 15298 C 1496 1.60567 -0.993154 0
M  V30 15299 O 1495.36 1.82494 0.0147252 0
M  V30 15300 C 1495.41 1.18462 -3.41539 0
M  V30 15301 O 1495.13 0.174602 -4.37752 0
M  V30 15302 C 1496.63 1.93564 -3.98808 0
M  V30 15303 H 1493.85 0.146998 -0.6547 0
M  V30 15304 H 1496.4 -0.198329 -2.03536 0
M  V30 15305 H 1494.55 1.88736 -3.38316 0
M  V30 15306 H 1494.97 0.632395 -5.20674 0
M  V30 15307 H 1496.44 2.33051 -5.00391 0
M  V30 15308 H 1496.92 2.80874 -3.37648 0
M  V30 15309 H 1497.52 1.28066 -4.0556 0
M  V30 15310 N 1495.84 1.56784 0.160173 0
M  V30 15311 C 1497.08 1.82891 0.876278 0
M  V30 15312 C 1497.42 0.693173 1.81408 0
M  V30 15313 O 1496.69 -0.304136 1.92107 0
M  V30 15314 C 1496.97 3.19439 1.66226 0
M  V30 15315 C 1496.83 4.43557 0.746831 0
M  V30 15316 C 1498.15 3.53053 2.62758 0
M  V30 15317 H 1495.27 0.665285 0.31712 0
M  V30 15318 H 1497.91 1.89469 0.142004 0
M  V30 15319 H 1496.06 3.13962 2.28823 0
M  V30 15320 H 1497.73 4.61109 0.132876 0
M  V30 15321 H 1495.97 4.33764 0.0555625 0
M  V30 15322 H 1496.64 5.35675 1.33253 0
M  V30 15323 H 1499.12 3.59054 2.10284 0
M  V30 15324 H 1498 4.4965 3.14811 0
M  V30 15325 H 1498.26 2.78329 3.4349 0
M  V30 15326 N 1497.32 -0.429099 1.51646 0
M  V30 15327 C 1498.25 -1.52867 1.76505 0
M  V30 15328 C 1499.23 -1.58586 0.615178 0
M  V30 15329 O 1500.41 -1.74182 0.858742 0
M  V30 15330 C 1497.54 -2.90875 1.8976 0
M  V30 15331 C 1496.5 -3.00014 3.05247 0
M  V30 15332 C 1495.82 -4.40082 3.03696 0
M  V30 15333 C 1497.12 -2.73334 4.45068 0
M  V30 15334 H 1498.82 -1.32315 2.68576 0
M  V30 15335 H 1496.36 -0.635091 1.29238 0
M  V30 15336 H 1498.31 -3.67765 2.05734 0
M  V30 15337 H 1497.04 -3.12677 0.943442 0
M  V30 15338 H 1495.7 -2.25565 2.88991 0
M  V30 15339 H 1495.35 -4.58864 2.06042 0
M  V30 15340 H 1495.05 -4.47125 3.81252 0
M  V30 15341 H 1496.57 -5.18935 3.21774 0
M  V30 15342 H 1497.98 -3.39954 4.61632 0
M  V30 15343 H 1496.38 -2.91777 5.24391 0
M  V30 15344 H 1497.45 -1.68889 4.54538 0
M  V30 15345 N 1498.79 -1.41931 -0.685074 0
M  V30 15346 C 1500.04 -1.42062 -1.44728 0
M  V30 15347 C 1500.37 -0.0332072 -1.94172 0
M  V30 15348 O 1499.65 0.940835 -1.70231 0
M  V30 15349 C 1499.93 -2.43634 -2.65168 0
M  V30 15350 C 1499.78 -3.91525 -2.21423 0
M  V30 15351 C 1501.1 -2.42325 -3.67378 0
M  V30 15352 H 1498.22 -0.517321 -0.524927 0
M  V30 15353 H 1500.86 -1.73277 -0.779419 0
M  V30 15354 H 1499.01 -2.17146 -3.22149 0
M  V30 15355 H 1500.69 -4.28956 -1.69689 0
M  V30 15356 H 1498.93 -4.05886 -1.53099 0
M  V30 15357 H 1499.6 -4.58158 -3.07889 0
M  V30 15358 H 1502.08 -2.65857 -3.20093 0
M  V30 15359 H 1500.95 -3.15391 -4.49243 0
M  V30 15360 H 1501.21 -1.44555 -4.17799 0
M  V30 15361 N 1500.27 0.920374 -1.27933 0
M  V30 15362 C 1501.69 1.19761 -1.05496 0
M  V30 15363 C 1501.89 2.00435 0.206864 0
M  V30 15364 O 1500.94 2.35518 0.910356 0
M  V30 15365 C 1502.26 1.93863 -2.29864 0
M  V30 15366 C 1503.8 2.06773 -2.34976 0
M  V30 15367 C 1504.28 2.84282 -3.59093 0
M  V30 15368 N 1505.77 2.91847 -3.59694 0
M  V30 15369 C 1506.51 3.52303 -4.52404 0
M  V30 15370 N 1506 4.14092 -5.55427 0
M  V30 15371 N 1507.79 3.49778 -4.40013 0
M  V30 15372 H 1499.95 0.381596 -2.08944 0
M  V30 15373 H 1502.21 0.231451 -0.919312 0
M  V30 15374 H 1501.91 1.42008 -3.21756 0
M  V30 15375 H 1501.79 2.94446 -2.35757 0
M  V30 15376 H 1504.18 2.57812 -1.43586 0
M  V30 15377 H 1504.26 1.05388 -2.33082 0
M  V30 15378 H 1503.9 2.33925 -4.50823 0
M  V30 15379 H 1503.83 3.85968 -3.5824 0
M  V30 15380 H 1506.32 2.4794 -2.85191 0
M  V30 15381 H 1506.63 4.58183 -6.22325 0
M  V30 15382 H 1504.98 4.12616 -5.59261 0
M  V30 15383 H 1508.17 3.00712 -3.58733 0
M  V30 15384 H 1508.34 3.96603 -5.12455 0
M  V30 15385 N 1501.75 1.10074 1.1279 0
M  V30 15386 C 1503 0.852005 1.84696 0
M  V30 15387 C 1503.35 -0.615785 1.8228 0
M  V30 15388 O 1502.64 -1.448 1.25473 0
M  V30 15389 C 1502.84 1.32969 3.31744 0
M  V30 15390 C 1502.67 2.84239 3.4848 0
M  V30 15391 C 1501.44 3.52197 3.62333 0
M  V30 15392 C 1503.63 3.82356 3.4396 0
M  V30 15393 N 1501.62 4.91825 3.67397 0
M  V30 15394 C 1502.99 5.07974 3.55474 0
M  V30 15395 C 1505.04 3.75116 3.27402 0
M  V30 15396 C 1503.75 6.27208 3.52139 0
M  V30 15397 C 1505.77 4.93845 3.25378 0
M  V30 15398 C 1505.13 6.1831 3.3745 0
M  V30 15399 H 1501.23 0.364722 0.691738 0
M  V30 15400 H 1503.82 1.40239 1.35059 0
M  V30 15401 H 1501.99 0.806668 3.79931 0
M  V30 15402 H 1503.72 1.02559 3.91489 0
M  V30 15403 H 1500.47 3.02636 3.64292 0
M  V30 15404 H 1500.9 5.64579 3.73604 0
M  V30 15405 H 1505.54 2.79808 3.16966 0
M  V30 15406 H 1503.26 7.2281 3.61347 0
M  V30 15407 H 1506.84 4.89949 3.13754 0
M  V30 15408 H 1505.72 7.08641 3.35854 0
M  V30 15409 N 1503.23 -1.30138 0.888926 0
M  V30 15410 C 1504.46 -2.00143 0.524437 0
M  V30 15411 C 1504.87 -1.66608 -0.888093 0
M  V30 15412 O 1504.23 -0.905326 -1.58462 0
M  V30 15413 C 1504.28 -3.54769 0.694327 0
M  V30 15414 O 1504 -3.87112 2.05125 0
M  V30 15415 C 1505.5 -4.42045 0.333354 0
M  V30 15416 H 1502.72 -0.639775 0.202309 0
M  V30 15417 H 1505.26 -1.65929 1.19531 0
M  V30 15418 H 1503.42 -3.87335 0.0707712 0
M  V30 15419 H 1503.83 -4.81807 2.07275 0
M  V30 15420 H 1505.31 -5.49702 0.503107 0
M  V30 15421 H 1505.78 -4.33109 -0.728893 0
M  V30 15422 H 1506.39 -4.14931 0.933398 0
M  V30 15423 N 1504.71 -0.650285 -1.43559 0
M  V30 15424 C 1506.12 -0.24263 -1.85117 0
M  V30 15425 C 1506.47 1.21017 -1.54432 0
M  V30 15426 O 1505.59 1.92332 -0.991839 0
M  V30 15427 C 1506.19 -0.433575 -3.36014 0
M  V30 15428 C 1504.75 -0.0802635 -3.76314 0
M  V30 15429 C 1503.89 -0.737844 -2.67303 0
M  V30 15430 H 1506.84 -0.854158 -1.33753 0
M  V30 15431 H 1506.87 0.321801 -3.79137 0
M  V30 15432 H 1506.38 -1.49102 -3.58316 0
M  V30 15433 H 1504.48 0.974703 -3.59625 0
M  V30 15434 H 1504.59 -0.503683 -4.76445 0
M  V30 15435 H 1502.96 -0.171349 -2.54123 0
M  V30 15436 H 1503.74 -1.79826 -2.92434 0
M  V30 15437 N 1506.18 1.52647 -0.392018 0
M  V30 15438 C 1507.59 1.86522 0.0814091 0
M  V30 15439 C 1507.95 1.31158 1.45918 0
M  V30 15440 O 1507.07 0.644007 2.06595 0
M  V30 15441 C 1507.67 3.38448 0.1545 0
M  V30 15442 C 1506.22 3.72025 0.572227 0
M  V30 15443 C 1505.37 2.7604 -0.264093 0
M  V30 15444 H 1508.32 1.46517 -0.609785 0
M  V30 15445 H 1508.34 3.67846 0.973109 0
M  V30 15446 H 1507.86 3.78713 -0.848396 0
M  V30 15447 H 1505.96 3.37329 1.58239 0
M  V30 15448 H 1506.07 4.77973 0.328491 0
M  V30 15449 H 1504.43 2.53254 0.271042 0
M  V30 15450 H 1505.22 3.19143 -1.26502 0
M  V30 15451 N 1507.66 0.121921 1.57128 0
M  V30 15452 C 1509.08 -0.234655 1.57866 0
M  V30 15453 C 1509.28 -1.66506 1.13482 0
M  V30 15454 O 1508.33 -2.38692 0.823544 0
M  V30 15455 C 1509.65 0.00131784 3.007 0
M  V30 15456 C 1511.2 -0.0643537 3.12934 0
M  V30 15457 C 1511.67 0.143964 4.57774 0
M  V30 15458 N 1513.16 0.0900323 4.63112 0
M  V30 15459 C 1513.9 0.22608 5.72954 0
M  V30 15460 N 1513.39 0.418461 6.91535 0
M  V30 15461 N 1515.19 0.165449 5.61856 0
M  V30 15462 H 1507.34 1.05618 1.84279 0
M  V30 15463 H 1509.6 0.416132 0.851785 0
M  V30 15464 H 1509.31 0.99031 3.3747 0
M  V30 15465 H 1509.18 -0.729266 3.70083 0
M  V30 15466 H 1511.57 -1.04387 2.7602 0
M  V30 15467 H 1511.65 0.698157 2.46088 0
M  V30 15468 H 1511.29 1.12047 4.95387 0
M  V30 15469 H 1511.22 -0.638569 5.22714 0
M  V30 15470 H 1513.71 -0.0550269 3.7786 0
M  V30 15471 H 1514.03 0.513057 7.71095 0
M  V30 15472 H 1512.37 0.454471 6.93512 0
M  V30 15473 H 1515.56 0.0160945 4.68097 0
M  V30 15474 H 1515.73 0.274917 6.47417 0
M  V30 15475 N 1509.14 -1.56867 -0.151857 0
M  V30 15476 C 1510.1 -1.96997 -1.17152 0
M  V30 15477 C 1511.1 -0.855905 -1.36128 0
M  V30 15478 O 1512.29 -1.12261 -1.33203 0
M  V30 15479 C 1509.43 -2.28171 -2.5328 0
M  V30 15480 H 1510.62 -2.88261 -0.827365 0
M  V30 15481 H 1508.17 -1.51226 -0.395024 0
M  V30 15482 H 1508.91 -1.39683 -2.92676 0
M  V30 15483 H 1508.69 -3.09394 -2.40869 0
M  V30 15484 H 1510.18 -2.60073 -3.26729 0
M  V30 15485 N 1510.62 0.421051 -1.51871 0
M  V30 15486 C 1511.55 1.53094 -1.70572 0
M  V30 15487 C 1512.56 1.5188 -0.586201 0
M  V30 15488 O 1513.75 1.56361 -0.861013 0
M  V30 15489 C 1510.85 2.92002 -1.72011 0
M  V30 15490 C 1510.03 3.17541 -3.0081 0
M  V30 15491 C 1509.08 4.36259 -2.94219 0
M  V30 15492 O 1508.11 4.34118 -3.68144 0
M  V30 15493 N 1509.31 5.40722 -2.11188 0
M  V30 15494 H 1512.08 1.3745 -2.66322 0
M  V30 15495 H 1509.64 0.610204 -1.4996 0
M  V30 15496 H 1511.63 3.6947 -1.65149 0
M  V30 15497 H 1510.2 3.01162 -0.837861 0
M  V30 15498 H 1509.42 2.28225 -3.21414 0
M  V30 15499 H 1510.71 3.3144 -3.86037 0
M  V30 15500 H 1510.11 5.45304 -1.50534 0
M  V30 15501 H 1508.66 6.16979 -2.10192 0
M  V30 15502 N 1512.1 1.42293 0.677538 0
M  V30 15503 C 1513.35 1.41909 1.43334 0
M  V30 15504 C 1513.66 0.037951 1.95563 0
M  V30 15505 O 1514.86 -0.0884836 2.71356 0
M  V30 15506 C 1513.32 2.49608 2.59275 0
M  V30 15507 C 1512.93 3.93716 2.13757 0
M  V30 15508 C 1514.67 2.58387 3.36803 0
M  V30 15509 C 1512.58 4.92929 3.26764 0
M  V30 15510 H 1511.51 0.527803 0.538461 0
M  V30 15511 H 1514.16 1.6819 0.733791 0
M  V30 15512 H 1512.54 2.16488 3.31585 0
M  V30 15513 H 1513.72 4.36176 1.48618 0
M  V30 15514 H 1512.03 3.88762 1.49175 0
M  V30 15515 H 1514.63 3.29691 4.20961 0
M  V30 15516 H 1514.97 1.62653 3.8321 0
M  V30 15517 H 1515.5 2.90688 2.71561 0
M  V30 15518 H 1512.24 5.90131 2.85352 0
M  V30 15519 H 1511.76 4.55103 3.90694 0
M  V30 15520 H 1513.44 5.1452 3.92273 0
M  V30 15521 N 1513.57 -0.913576 1.28419 0
M  V30 15522 C 1514.8 -1.69649 1.18435 0
M  V30 15523 C 1515.22 -1.87043 -0.256987 0
M  V30 15524 O 1514.57 -1.39755 -1.17366 0
M  V30 15525 C 1514.63 -3.08855 1.87859 0
M  V30 15526 O 1514.35 -2.92265 3.26363 0
M  V30 15527 C 1515.85 -4.03229 1.84178 0
M  V30 15528 H 1513.07 -0.530307 0.411115 0
M  V30 15529 H 1515.61 -1.14342 1.69547 0
M  V30 15530 H 1513.77 -3.60979 1.40617 0
M  V30 15531 H 1514.18 -3.80372 3.61134 0
M  V30 15532 H 1515.65 -4.98369 2.37344 0
M  V30 15533 H 1516.13 -4.31587 0.814195 0
M  V30 15534 H 1516.74 -3.57033 2.311 0
M  V30 15535 N 1515.05 -1.1067 -1.12204 0
M  V30 15536 C 1516.3 -0.84895 -1.83405 0
M  V30 15537 C 1516.62 0.62724 -1.84637 0
M  V30 15538 O 1515.89 1.45546 -1.31123 0
M  V30 15539 H 1514.47 -0.311074 -0.679148 0
M  V30 15540 H 1517.13 -1.39747 -1.35856 0
M  V30 15541 H 1516.23 -1.21398 -2.87522 0
M  V30 15542 N 1516.53 1.29665 -0.895815 0
M  V30 15543 C 1517.76 1.99572 -0.534267 0
M  V30 15544 C 1518.17 1.67254 0.884455 0
M  V30 15545 O 1517.51 0.911762 1.59476 0
M  V30 15546 C 1517.57 3.53719 -0.642099 0
M  V30 15547 C 1517.24 4.09583 -2.02709 0
M  V30 15548 C 1518.23 4.24769 -2.99779 0
M  V30 15549 C 1515.92 4.44706 -2.33542 0
M  V30 15550 C 1517.91 4.74305 -4.25809 0
M  V30 15551 C 1515.6 4.93939 -3.59815 0
M  V30 15552 C 1516.6 5.08693 -4.55763 0
M  V30 15553 O 1516.29 5.5686 -5.79795 0
M  V30 15554 H 1516.02 0.644481 -0.204012 0
M  V30 15555 H 1518.57 1.66262 -1.20607 0
M  V30 15556 H 1516.8 3.86603 0.0867197 0
M  V30 15557 H 1518.49 4.04861 -0.290265 0
M  V30 15558 H 1519.26 3.97925 -2.77273 0
M  V30 15559 H 1515.14 4.32483 -1.59622 0
M  V30 15560 H 1518.68 4.85736 -5.00706 0
M  V30 15561 H 1514.58 5.2022 -3.82154 0
M  V30 15562 H 1515.35 5.75182 -5.82329 0
M  V30 15563 N 1518.01 0.657889 1.43212 0
M  V30 15564 C 1519.42 0.325876 1.56238 0
M  V30 15565 C 1519.62 -1.16975 1.6407 0
M  V30 15566 O 1518.68 -1.95473 1.59833 0
M  V30 15567 C 1519.99 1.04134 2.82093 0
M  V30 15568 C 1521.54 1.02204 2.95844 0
M  V30 15569 C 1522.02 1.71849 4.24537 0
M  V30 15570 N 1523.51 1.68635 4.31412 0
M  V30 15571 C 1524.24 2.19393 5.29768 0
M  V30 15572 N 1523.74 2.7846 6.34375 0
M  V30 15573 N 1525.53 2.09866 5.21452 0
M  V30 15574 H 1517.68 1.62839 1.36371 0
M  V30 15575 H 1519.95 0.685072 0.655271 0
M  V30 15576 H 1519.65 2.09647 2.82385 0
M  V30 15577 H 1519.53 0.595842 3.72464 0
M  V30 15578 H 1521.91 -0.0247029 2.9509 0
M  V30 15579 H 1521.99 1.50627 2.06749 0
M  V30 15580 H 1521.64 2.76482 4.26052 0
M  V30 15581 H 1521.57 1.20888 5.12536 0
M  V30 15582 H 1524.06 1.25536 3.56439 0
M  V30 15583 H 1524.37 3.14855 7.05752 0
M  V30 15584 H 1522.72 2.82523 6.34985 0
M  V30 15585 H 1525.91 1.63422 4.38647 0
M  V30 15586 H 1526.08 2.49732 5.97945 0
M  V30 15587 N 1519.49 -1.52437 0.400108 0
M  V30 15588 C 1520.42 -2.29672 -0.421054 0
M  V30 15589 C 1521.4 -1.33506 -1.05405 0
M  V30 15590 O 1522.58 -1.62408 -1.06477 0
M  V30 15591 C 1519.71 -3.1115 -1.54281 0
M  V30 15592 C 1518.67 -4.1529 -1.0353 0
M  V30 15593 C 1517.99 -4.85058 -2.24996 0
M  V30 15594 C 1519.29 -5.22212 -0.0956529 0
M  V30 15595 H 1520.99 -2.98565 0.2234 0
M  V30 15596 H 1518.53 -1.43588 0.108883 0
M  V30 15597 H 1520.49 -3.63945 -2.12419 0
M  V30 15598 H 1519.21 -2.4001 -2.21501 0
M  V30 15599 H 1517.87 -3.63492 -0.476383 0
M  V30 15600 H 1517.52 -4.10455 -2.9075 0
M  V30 15601 H 1517.22 -5.55452 -1.91694 0
M  V30 15602 H 1518.74 -5.40661 -2.83756 0
M  V30 15603 H 1520.15 -5.70302 -0.585548 0
M  V30 15604 H 1518.55 -5.99917 0.148121 0
M  V30 15605 H 1519.62 -4.77351 0.852296 0
M  V30 15606 N 1520.96 -0.130252 -1.57061 0
M  V30 15607 C 1522.19 0.532416 -1.99932 0
M  V30 15608 C 1522.61 1.59505 -1.01013 0
M  V30 15609 O 1521.96 1.82499 -0.00463158 0
M  V30 15610 C 1522.02 1.14833 -3.42776 0
M  V30 15611 O 1521.74 0.128163 -4.37912 0
M  V30 15612 C 1523.24 1.89324 -4.00838 0
M  V30 15613 H 1520.46 0.140046 -0.656223 0
M  V30 15614 H 1523 -0.219905 -2.03314 0
M  V30 15615 H 1521.16 1.85137 -3.40298 0
M  V30 15616 H 1521.57 0.577135 -5.21315 0
M  V30 15617 H 1523.04 2.27731 -5.02835 0
M  V30 15618 H 1523.52 2.77277 -3.40608 0
M  V30 15619 H 1524.13 1.23757 -4.06896 0
M  V30 15620 N 1522.44 1.56945 0.143535 0
M  V30 15621 C 1523.69 1.8381 0.856831 0
M  V30 15622 C 1524.02 0.712375 1.80662 0
M  V30 15623 O 1523.3 -0.283743 1.92419 0
M  V30 15624 C 1523.58 3.21184 1.62828 0
M  V30 15625 C 1523.43 4.44324 0.699744 0
M  V30 15626 C 1524.75 3.5582 2.58999 0
M  V30 15627 H 1521.87 0.668611 0.310046 0
M  V30 15628 H 1524.51 1.89609 0.1219 0
M  V30 15629 H 1522.66 3.16372 2.2548 0
M  V30 15630 H 1524.34 4.61224 0.0839619 0
M  V30 15631 H 1522.58 4.33799 0.0095529 0
M  V30 15632 H 1523.25 5.37058 1.27564 0
M  V30 15633 H 1525.73 3.61264 2.06464 0
M  V30 15634 H 1524.6 4.52964 3.10024 0
M  V30 15635 H 1524.86 2.81956 3.40519 0
M  V30 15636 N 1523.92 -0.412991 1.52093 0
M  V30 15637 C 1525.17 -1.15801 1.65634 0
M  V30 15638 C 1525.49 -1.91127 0.386737 0
M  V30 15639 O 1524.76 -1.86541 -0.598262 0
M  V30 15640 H 1523.34 -0.430467 0.610498 0
M  V30 15641 H 1526 -0.471127 1.8912 0
M  V30 15642 H 1525.1 -1.87421 2.49559 0
M  V30 15643 N 1525.4 -1.4265 -0.669982 0
M  V30 15644 C 1526.33 -1.49298 -1.79534 0
M  V30 15645 C 1527.31 -0.34911 -1.66479 0
M  V30 15646 O 1528.5 -0.564072 -1.85828 0
M  V30 15647 C 1525.63 -1.39935 -3.17861 0
M  V30 15648 C 1524.58 -2.52398 -3.45657 0
M  V30 15649 C 1523.91 -2.28092 -4.8361 0
M  V30 15650 C 1525.21 -3.94697 -3.4207 0
M  V30 15651 H 1526.9 -2.43486 -1.74227 0
M  V30 15652 H 1524.45 -1.17191 -0.836796 0
M  V30 15653 H 1526.4 -1.43193 -3.96325 0
M  V30 15654 H 1525.12 -0.422436 -3.23857 0
M  V30 15655 H 1523.78 -2.48465 -2.69556 0
M  V30 15656 H 1523.43 -1.28683 -4.86261 0
M  V30 15657 H 1523.13 -3.03469 -5.0317 0
M  V30 15658 H 1524.65 -2.33107 -5.64352 0
M  V30 15659 H 1526.07 -4.00207 -4.10496 0
M  V30 15660 H 1524.46 -4.69965 -3.73166 0
M  V30 15661 H 1525.53 -4.21025 -2.40554 0
M  V30 15662 N 1526.88 0.906753 -1.28902 0
M  V30 15663 C 1528.11 1.69019 -1.19333 0
M  V30 15664 C 1528.52 1.87176 0.247065 0
M  V30 15665 O 1527.88 1.40376 1.16623 0
M  V30 15666 C 1527.93 3.07854 -1.89495 0
M  V30 15667 O 1527.65 2.90531 -3.27908 0
M  V30 15668 C 1529.15 4.02246 -1.86314 0
M  V30 15669 H 1526.37 0.528119 -0.413922 0
M  V30 15670 H 1528.91 1.13441 -1.70151 0
M  V30 15671 H 1527.07 3.60228 -1.42529 0
M  V30 15672 H 1527.48 3.78451 -3.63146 0
M  V30 15673 H 1528.96 4.97104 -2.39983 0
M  V30 15674 H 1529.43 4.31149 -0.837071 0
M  V30 15675 H 1530.04 3.55803 -2.3299 0
M  V30 15676 N 1528.36 1.11264 1.11616 0
M  V30 15677 C 1529.77 0.846176 1.35322 0
M  V30 15678 C 1529.97 -0.530043 1.94404 0
M  V30 15679 O 1529.03 -1.28122 2.1758 0
M  V30 15680 C 1530.34 1.9528 2.28662 0
M  V30 15681 C 1531.89 1.98225 2.42231 0
M  V30 15682 C 1532.36 3.08086 3.38891 0
M  V30 15683 N 1533.85 3.07448 3.46453 0
M  V30 15684 C 1534.59 3.89094 4.21181 0
M  V30 15685 N 1534.09 4.80698 4.989 0
M  V30 15686 N 1535.88 3.77279 4.16674 0
M  V30 15687 H 1528.03 1.99958 0.716284 0
M  V30 15688 H 1530.29 0.869439 0.377862 0
M  V30 15689 H 1530 2.94381 1.92439 0
M  V30 15690 H 1529.87 1.84739 3.28864 0
M  V30 15691 H 1532.26 0.997517 2.77729 0
M  V30 15692 H 1532.34 2.12842 1.41887 0
M  V30 15693 H 1531.98 4.06784 3.0412 0
M  V30 15694 H 1531.91 2.90709 4.39085 0
M  V30 15695 H 1534.41 2.41077 2.91016 0
M  V30 15696 H 1534.72 5.39535 5.53282 0
M  V30 15697 H 1533.06 4.84721 4.98067 0
M  V30 15698 H 1536.25 3.05059 3.55044 0
M  V30 15699 H 1536.43 4.41142 4.74655 0
M  V30 15700 N 1529.83 -1.29188 0.902679 0
M  V30 15701 C 1531.25 -1.47924 0.599209 0
M  V30 15702 C 1531.45 -1.82297 -0.858494 0
M  V30 15703 O 1530.51 -1.92123 -1.63845 0
M  V30 15704 C 1531.82 -2.59008 1.52759 0
M  V30 15705 C 1533.37 -2.72882 1.53312 0
M  V30 15706 C 1533.84 -3.87097 2.44785 0
M  V30 15707 N 1535.33 -3.94435 2.42849 0
M  V30 15708 C 1536.07 -4.82165 3.1033 0
M  V30 15709 N 1535.56 -5.74565 3.87101 0
M  V30 15710 N 1537.36 -4.75681 2.99473 0
M  V30 15711 H 1529.51 -1.05154 1.84544 0
M  V30 15712 H 1531.77 -0.522632 0.790924 0
M  V30 15713 H 1531.48 -2.40483 2.56634 0
M  V30 15714 H 1531.35 -3.55873 1.25036 0
M  V30 15715 H 1533.74 -2.90802 0.501804 0
M  V30 15716 H 1533.82 -1.76582 1.85074 0
M  V30 15717 H 1533.46 -3.69932 3.48012 0
M  V30 15718 H 1533.39 -4.82772 2.10331 0
M  V30 15719 H 1535.88 -3.28347 1.87074 0
M  V30 15720 H 1536.2 -6.3831 4.35638 0
M  V30 15721 H 1534.54 -5.74441 3.91207 0
M  V30 15722 H 1537.73 -4.02483 2.39009 0
M  V30 15723 H 1537.91 -5.4384 3.52337 0
M  V30 15724 N 1531.31 -0.665475 -1.42861 0
M  V30 15725 C 1532.56 -0.183521 -2.01265 0
M  V30 15726 C 1532.88 1.21103 -1.52837 0
M  V30 15727 O 1532.15 1.81135 -0.746109 0
M  V30 15728 H 1530.73 -0.0648565 -0.744179 0
M  V30 15729 H 1533.39 -0.859893 -1.74905 0
M  V30 15730 H 1532.49 -0.177589 -3.11594 0
M  V30 15731 N 1532.79 1.52222 -0.408187 0
M  V30 15732 C 1533.72 2.24676 0.453129 0
M  V30 15733 C 1534.73 1.27605 1.01098 0
M  V30 15734 O 1535.92 1.53557 0.910084 0
M  V30 15735 C 1533.02 2.96431 1.64262 0
M  V30 15736 C 1532.2 4.20364 1.20883 0
M  V30 15737 C 1531.26 4.74951 2.26512 0
M  V30 15738 O 1530.28 5.37556 1.87142 0
M  V30 15739 N 1531.48 4.56443 3.58665 0
M  V30 15740 H 1534.25 2.9923 -0.16771 0
M  V30 15741 H 1531.81 1.60178 -0.235517 0
M  V30 15742 H 1533.8 3.29844 2.3449 0
M  V30 15743 H 1532.37 2.25068 2.1694 0
M  V30 15744 H 1531.59 3.92776 0.334712 0
M  V30 15745 H 1532.88 5.0085 0.895939 0
M  V30 15746 H 1532.28 4.06511 3.93402 0
M  V30 15747 H 1530.83 4.94295 4.24871 0
M  V30 15748 N 1534.27 0.138579 1.5699 0
M  V30 15749 C 1535.68 -0.383633 1.82716 0
M  V30 15750 C 1536.03 -1.65304 1.05684 0
M  V30 15751 O 1535.15 -2.14318 0.299488 0
M  V30 15752 C 1535.75 -0.7028 3.3143 0
M  V30 15753 C 1534.31 -1.16957 3.57768 0
M  V30 15754 C 1533.46 -0.188295 2.7666 0
M  V30 15755 H 1536.41 0.363415 1.54483 0
M  V30 15756 H 1536.43 -1.55832 3.47126 0
M  V30 15757 H 1535.94 0.221271 3.87469 0
M  V30 15758 H 1534.04 -2.10987 3.07108 0
M  V30 15759 H 1534.15 -1.10136 4.66269 0
M  V30 15760 H 1532.52 -0.679255 2.45475 0
M  V30 15761 H 1533.3 0.729218 3.35466 0
M  V30 15762 N 1535.75 -1.57019 -0.13521 0
M  V30 15763 C 1537.16 -1.51949 -0.48824 0
M  V30 15764 C 1537.36 -0.848955 -1.82743 0
M  V30 15765 O 1536.42 -0.424441 -2.48907 0
M  V30 15766 C 1537.73 -2.96719 -0.487673 0
M  V30 15767 C 1539.28 -3.07722 -0.572365 0
M  V30 15768 C 1539.75 -4.54022 -0.602347 0
M  V30 15769 N 1541.24 -4.58413 -0.664242 0
M  V30 15770 C 1541.98 -5.69005 -0.70862 0
M  V30 15771 N 1541.48 -6.89135 -0.711626 0
M  V30 15772 N 1543.27 -5.57069 -0.750399 0
M  V30 15773 H 1535.42 -1.99001 0.742465 0
M  V30 15774 H 1537.68 -0.908116 0.272083 0
M  V30 15775 H 1537.39 -3.49082 0.428363 0
M  V30 15776 H 1537.26 -3.53299 -1.32136 0
M  V30 15777 H 1539.65 -2.55372 -1.47882 0
M  V30 15778 H 1539.73 -2.54166 0.288696 0
M  V30 15779 H 1539.37 -5.07013 0.3 0
M  V30 15780 H 1539.3 -5.05373 -1.48006 0
M  V30 15781 H 1541.8 -3.71936 -0.668739 0
M  V30 15782 H 1542.11 -7.69175 -0.747663 0
M  V30 15783 H 1540.45 -6.91672 -0.679311 0
M  V30 15784 H 1543.64 -4.62129 -0.745301 0
M  V30 15785 H 1543.82 -6.4327 -0.781518 0
M  V30 15786 N 1537.22 0.404919 -1.52309 0
M  V30 15787 C 1538.16 1.51276 -1.72186 0
M  V30 15788 C 1539.17 1.5125 -0.602276 0
M  V30 15789 O 1540.36 1.55439 -0.877549 0
M  V30 15790 C 1537.46 2.90162 -1.75099 0
M  V30 15791 C 1536.63 3.14333 -3.04161 0
M  V30 15792 C 1535.69 4.33113 -2.9883 0
M  V30 15793 O 1534.72 4.30189 -3.72728 0
M  V30 15794 N 1535.92 5.38451 -2.16911 0
M  V30 15795 H 1538.68 1.34618 -2.67765 0
M  V30 15796 H 1536.24 0.594264 -1.50599 0
M  V30 15797 H 1538.24 3.67697 -1.69058 0
M  V30 15798 H 1536.81 3.00257 -0.869756 0
M  V30 15799 H 1536.03 2.24803 -3.23817 0
M  V30 15800 H 1537.31 3.27327 -3.89531 0
M  V30 15801 H 1536.71 5.43676 -1.56309 0
M  V30 15802 H 1535.27 6.14715 -2.16724 0
M  V30 15803 N 1538.7 1.43003 0.662408 0
M  V30 15804 C 1539.93 1.47341 1.44825 0
M  V30 15805 C 1540.34 0.0870204 1.89 0
M  V30 15806 O 1539.68 -0.911158 1.59511 0
M  V30 15807 C 1539.75 2.34882 2.7216 0
M  V30 15808 C 1539.41 3.82567 2.49983 0
M  V30 15809 C 1540.41 4.73909 2.13791 0
M  V30 15810 C 1538.09 4.26962 2.64592 0
M  V30 15811 C 1540.09 6.07639 1.92493 0
M  V30 15812 C 1537.77 5.60748 2.4291 0
M  V30 15813 C 1538.77 6.50903 2.06915 0
M  V30 15814 O 1538.46 7.82217 1.85451 0
M  V30 15815 H 1538.19 0.502932 0.451703 0
M  V30 15816 H 1540.74 1.88312 0.820224 0
M  V30 15817 H 1538.97 1.88782 3.37488 0
M  V30 15818 H 1540.66 2.3053 3.34082 0
M  V30 15819 H 1541.43 4.40892 2.02088 0
M  V30 15820 H 1537.31 3.5707 2.91586 0
M  V30 15821 H 1540.85 6.77971 1.64321 0
M  V30 15822 H 1536.75 5.93335 2.54212 0
M  V30 15823 H 1537.52 7.93702 1.9995 0
M  V30 15824 N 1540.18 -0.899904 1.29381 0
M  V30 15825 C 1541.13 -2.02537 1.14375 0
M  V30 15826 C 1542.12 -1.69296 0.0593904 0
M  V30 15827 O 1543.33 -1.78661 0.219174 0
M  V30 15828 H 1539.7 -0.663844 0.353291 0
M  V30 15829 H 1541.67 -2.12332 2.0966 0
M  V30 15830 C 1540.42 -3.37479 0.836845 0
M  V30 15831 H 1539.75 -3.6356 1.66326 0
M  V30 15832 H 1541.19 -4.16915 0.771873 0
M  V30 15833 C 1539.65 -3.33746 -0.459889 0
M  V30 15834 O 1540.18 -3.73203 -1.48601 0
M  V30 15835 N 1538.38 -2.86845 -0.465657 0
M  V30 15836 H 1537.93 -2.54931 0.369833 0
M  V30 15837 H 1537.89 -2.8473 -1.33327 0
M  V30 15838 N 1541.66 -1.11854 -1.11024 0
M  V30 15839 C 1542.9 -0.871362 -1.83126 0
M  V30 15840 C 1543.24 0.601437 -1.84652 0
M  V30 15841 O 1542.51 1.44427 -1.30273 0
M  V30 15842 C 1542.8 -1.4391 -3.30094 0
M  V30 15843 C 1542.65 -2.97983 -3.36937 0
M  V30 15844 C 1543.97 -1.09361 -4.26296 0
M  V30 15845 H 1541.09 -0.317994 -0.664867 0
M  V30 15846 H 1543.73 -1.38414 -1.3016 0
M  V30 15847 H 1541.88 -1.00297 -3.7533 0
M  V30 15848 H 1543.55 -3.50231 -3.00227 0
M  V30 15849 H 1541.79 -3.33827 -2.77023 0
M  V30 15850 H 1542.46 -3.32797 -4.40398 0
M  V30 15851 H 1544.94 -1.47018 -3.89262 0
M  V30 15852 H 1543.82 -1.51756 -5.27505 0
M  V30 15853 H 1544.08 -0.0049637 -4.421 0
M  V30 15854 N 1543.14 1.28707 -0.909517 0
M  V30 15855 C 1544.38 1.94768 -0.539413 0
M  V30 15856 C 1544.71 1.7198 0.919133 0
M  V30 15857 O 1543.98 1.0571 1.64931 0
M  V30 15858 H 1542.56 0.720693 -0.196496 0
M  V30 15859 H 1545.22 1.56772 -1.15795 0
M  V30 15860 H 1544.31 3.03436 -0.730281 0
M  V30 15861 N 1544.61 0.673042 1.42506 0
M  V30 15862 C 1546.03 0.272049 1.84707 0
M  V30 15863 C 1546.38 -1.18545 1.56338 0
M  V30 15864 O 1545.5 -1.9073 1.02231 0
M  V30 15865 C 1546.1 0.486977 3.35282 0
M  V30 15866 C 1544.66 0.140122 3.76139 0
M  V30 15867 C 1543.8 0.780276 2.66096 0
M  V30 15868 H 1546.75 0.875329 1.32377 0
M  V30 15869 H 1546.77 -0.261443 3.79601 0
M  V30 15870 H 1546.29 1.54784 3.55898 0
M  V30 15871 H 1544.39 -0.917366 3.6113 0
M  V30 15872 H 1544.5 0.579417 4.75583 0
M  V30 15873 H 1542.86 0.211756 2.53818 0
M  V30 15874 H 1543.65 1.84456 2.89536 0
M  V30 15875 N 1546.09 -1.52004 0.416254 0
M  V30 15876 C 1547.32 -2.0679 -0.158937 0
M  V30 15877 C 1547.74 -1.28366 -1.37491 0
M  V30 15878 O 1547.1 -0.315815 -1.78528 0
M  V30 15879 C 1547.15 -3.57381 -0.480717 0
M  V30 15880 O 1546.25 -3.81321 -1.5706 0
M  V30 15881 H 1545.59 -0.663907 -0.0110938 0
M  V30 15882 H 1548.12 -1.95863 0.591509 0
M  V30 15883 H 1548.13 -4.01283 -0.737297 0
M  V30 15884 H 1546.81 -4.13893 0.408137 0
M  V30 15885 H 1545.39 -3.49296 -1.30563 0
M  V30 15886 N 1547.57 -0.146903 -1.56914 0
M  V30 15887 C 1548.82 0.504981 -1.96412 0
M  V30 15888 C 1549.15 1.64522 -1.0318 0
M  V30 15889 O 1548.42 1.94359 -0.0741728 0
M  V30 15890 C 1548.71 1.01125 -3.45609 0
M  V30 15891 C 1548.56 -0.127493 -4.49619 0
M  V30 15892 C 1549.88 1.89306 -3.97305 0
M  V30 15893 H 1547 0.182088 -0.714152 0
M  V30 15894 H 1549.64 -0.22811 -1.88626 0
M  V30 15895 H 1547.79 1.63595 -3.52376 0
M  V30 15896 H 1549.46 -0.763829 -4.54932 0
M  V30 15897 H 1547.71 -0.786649 -4.26608 0
M  V30 15898 H 1548.38 0.268453 -5.51347 0
M  V30 15899 H 1550.85 1.36664 -3.93017 0
M  V30 15900 H 1549.73 2.21638 -5.02163 0
M  V30 15901 H 1549.99 2.82996 -3.39655 0
M  V30 15902 N 1549.05 1.57088 0.126881 0
M  V30 15903 C 1550.27 1.88984 0.854389 0
M  V30 15904 C 1550.7 0.738037 1.73016 0
M  V30 15905 O 1550.06 -0.311728 1.786 0
M  V30 15906 C 1550.1 3.19584 1.67028 0
M  V30 15907 O 1549.21 3.04935 2.77648 0
M  V30 15908 H 1548.55 0.620354 0.236763 0
M  V30 15909 H 1551.08 2.04295 0.111647 0
M  V30 15910 H 1551.09 3.52109 2.06115 0
M  V30 15911 H 1549.76 4.03012 1.02732 0
M  V30 15912 H 1548.34 2.83861 2.41821 0
M  V30 15913 N 1550.53 -0.396836 1.52522 0
M  V30 15914 C 1551.47 -1.48427 1.76743 0
M  V30 15915 C 1552.44 -1.54481 0.610321 0
M  V30 15916 O 1553.63 -1.7086 0.849201 0
M  V30 15917 C 1550.77 -2.85744 1.93505 0
M  V30 15918 C 1549.88 -2.88904 3.21183 0
M  V30 15919 C 1549.02 -4.17598 3.28307 0
M  V30 15920 C 1548.06 -4.14779 4.50138 0
M  V30 15921 N 1547.19 -5.35065 4.54587 0
M  V30 15922 H 1552.03 -1.27075 2.69548 0
M  V30 15923 H 1549.57 -0.61661 1.33553 0
M  V30 15924 H 1551.53 -3.65474 2.01208 0
M  V30 15925 H 1550.16 -3.05564 1.04069 0
M  V30 15926 H 1549.21 -2.01592 3.22591 0
M  V30 15927 H 1550.52 -2.82688 4.10961 0
M  V30 15928 H 1549.68 -5.05727 3.35149 0
M  V30 15929 H 1548.41 -4.26526 2.36489 0
M  V30 15930 H 1547.42 -3.25039 4.4343 0
M  V30 15931 H 1548.64 -4.07481 5.43264 0
M  V30 15932 H 1546.59 -5.44638 3.65658 0
M  V30 15933 H 1546.51 -5.30894 5.38227 0
M  V30 15934 H 1547.78 -6.25114 4.65675 0
M  V30 15935 N 1552.01 -1.43353 -0.654814 0
M  V30 15936 C 1553.24 -1.48107 -1.44041 0
M  V30 15937 C 1553.64 -0.0970423 -1.88951 0
M  V30 15938 O 1552.99 0.902686 -1.59991 0
M  V30 15939 C 1553.05 -2.36322 -2.7091 0
M  V30 15940 C 1552.71 -3.83887 -2.4795 0
M  V30 15941 C 1553.71 -4.75036 -2.11274 0
M  V30 15942 C 1551.39 -4.28359 -2.62324 0
M  V30 15943 C 1553.39 -6.08651 -1.89267 0
M  V30 15944 C 1551.08 -5.62028 -2.39933 0
M  V30 15945 C 1552.07 -6.51992 -2.0346 0
M  V30 15946 O 1551.76 -7.83189 -1.813 0
M  V30 15947 H 1551.49 -0.50532 -0.449029 0
M  V30 15948 H 1554.05 -1.88745 -0.810226 0
M  V30 15949 H 1552.28 -1.90569 -3.36482 0
M  V30 15950 H 1553.97 -2.32298 -3.32855 0
M  V30 15951 H 1554.73 -4.41957 -1.99747 0
M  V30 15952 H 1550.61 -3.58611 -2.89688 0
M  V30 15953 H 1554.16 -6.78833 -1.60723 0
M  V30 15954 H 1550.05 -5.94675 -2.51062 0
M  V30 15955 H 1550.82 -7.94751 -1.95738 0
M  V30 15956 N 1553.48 0.89303 -1.29857 0
M  V30 15957 C 1554.89 1.45948 -1.16431 0
M  V30 15958 C 1555.25 1.94751 0.238051 0
M  V30 15959 O 1554.37 1.84302 1.1341 0
M  V30 15960 C 1554.97 2.6527 -2.10754 0
M  V30 15961 C 1553.52 3.1803 -2.0133 0
M  V30 15962 C 1552.67 1.90721 -2.01297 0
M  V30 15963 H 1555.62 0.70373 -1.42244 0
M  V30 15964 H 1555.64 3.41223 -1.68366 0
M  V30 15965 H 1555.16 2.2972 -3.1281 0
M  V30 15966 H 1553.26 3.58257 -1.02386 0
M  V30 15967 H 1553.37 3.81876 -2.89323 0
M  V30 15968 H 1551.73 2.0871 -1.45987 0
M  V30 15969 H 1552.52 1.5744 -3.0507 0
M  V30 15970 N 1554.96 1.12442 1.10429 0
M  V30 15971 C 1555.89 0.814745 2.18824 0
M  V30 15972 C 1556.87 -0.221476 1.68652 0
M  V30 15973 O 1558.06 -0.0826537 1.94024 0
M  V30 15974 C 1555.19 0.268632 3.4626 0
M  V30 15975 C 1554.14 1.23792 4.09707 0
M  V30 15976 C 1553.47 0.552034 5.31843 0
M  V30 15977 C 1554.77 2.5926 4.53411 0
M  V30 15978 H 1556.46 1.72111 2.44986 0
M  V30 15979 H 1554.01 0.828968 1.17746 0
M  V30 15980 H 1555.96 0.0397207 4.21381 0
M  V30 15981 H 1554.68 -0.673079 3.19589 0
M  V30 15982 H 1553.34 1.45264 3.36592 0
M  V30 15983 H 1552.99 -0.394821 5.01448 0
M  V30 15984 H 1552.69 1.19861 5.75245 0
M  V30 15985 H 1554.22 0.332161 6.09696 0
M  V30 15986 H 1555.63 2.41816 5.19806 0
M  V30 15987 H 1554.03 3.19997 5.07663 0
M  V30 15988 H 1555.1 3.17699 3.66327 0
M  V30 15989 N 1556.44 -1.28223 0.91633 0
M  V30 15990 C 1557.86 -1.47281 0.614864 0
M  V30 15991 C 1558.06 -1.83197 -0.839111 0
M  V30 15992 O 1557.11 -1.9385 -1.61798 0
M  V30 15993 C 1558.42 -2.57373 1.55498 0
M  V30 15994 C 1559.97 -2.71241 1.56197 0
M  V30 15995 C 1560.45 -3.84479 2.48877 0
M  V30 15996 N 1561.94 -3.91837 2.47019 0
M  V30 15997 C 1562.67 -4.78846 3.15427 0
M  V30 15998 N 1562.17 -5.70427 3.93173 0
M  V30 15999 N 1563.96 -4.72478 3.04501 0
M  V30 16000 H 1556.11 -1.03191 1.85649 0
M  V30 16001 H 1558.38 -0.514213 0.796422 0
M  V30 16002 H 1558.08 -2.37747 2.5917 0
M  V30 16003 H 1557.96 -3.54527 1.28803 0
M  V30 16004 H 1560.34 -2.90254 0.532619 0
M  V30 16005 H 1560.42 -1.74609 1.86937 0
M  V30 16006 H 1560.07 -3.6622 3.51916 0
M  V30 16007 H 1560 -4.80514 2.15439 0
M  V30 16008 H 1562.49 -3.26344 1.90546 0
M  V30 16009 H 1562.8 -6.33653 4.42384 0
M  V30 16010 H 1561.15 -5.70259 3.97278 0
M  V30 16011 H 1564.34 -3.99925 2.43265 0
M  V30 16012 H 1564.51 -5.40073 3.58086 0
M  V30 16013 N 1557.92 -0.68059 -1.42147 0
M  V30 16014 C 1558.87 0.00572503 -2.32599 0
M  V30 16015 C 1559.86 0.784449 -1.50142 0
M  V30 16016 O 1561.07 0.69176 -1.66177 0
M  V30 16017 H 1557.44 0.0206483 -0.751716 0
M  V30 16018 H 1559.41 -0.774447 -2.88175 0
M  V30 16019 C 1558.16 0.939019 -3.3478 0
M  V30 16020 H 1557.48 0.349225 -3.98272 0
M  V30 16021 H 1558.92 1.38782 -4.00644 0
M  V30 16022 C 1557.38 2.04814 -2.67493 0
M  V30 16023 O 1557.91 3.13526 -2.51126 0
M  V30 16024 N 1556.12 1.82153 -2.26426 0
M  V30 16025 H 1555.67 0.93743 -2.39938 0
M  V30 16026 H 1555.62 2.56551 -1.81738 0
M  V30 16027 N 1559.4 1.51781 -0.424309 0
M  V30 16028 C 1560.33 2.30313 0.384462 0
M  V30 16029 C 1561.31 1.35166 1.03268 0
M  V30 16030 O 1562.49 1.64081 1.0388 0
M  V30 16031 C 1559.62 3.13566 1.49311 0
M  V30 16032 C 1558.58 4.16884 0.969096 0
M  V30 16033 C 1557.9 4.88576 2.17251 0
M  V30 16034 C 1559.2 5.22298 0.0125613 0
M  V30 16035 H 1560.9 2.98172 -0.270871 0
M  V30 16036 H 1558.44 1.43396 -0.131712 0
M  V30 16037 H 1560.39 3.67279 2.06602 0
M  V30 16038 H 1559.12 2.43504 2.17655 0
M  V30 16039 H 1557.78 3.64203 0.418494 0
M  V30 16040 H 1557.43 4.15029 2.84183 0
M  V30 16041 H 1557.13 5.58432 1.82833 0
M  V30 16042 H 1558.65 5.45107 2.75119 0
M  V30 16043 H 1560.06 5.71161 0.494744 0
M  V30 16044 H 1558.46 5.99606 -0.243544 0
M  V30 16045 H 1559.53 4.75935 -0.92813 0
M  V30 16046 N 1560.87 0.155222 1.56834 0
M  V30 16047 C 1561.81 -0.812448 2.14317 0
M  V30 16048 C 1562.82 -1.20502 1.09467 0
M  V30 16049 O 1564.01 -1.14767 1.36714 0
M  V30 16050 C 1561.11 -2.10279 2.65774 0
M  V30 16051 C 1560.28 -1.8763 3.95112 0
M  V30 16052 C 1559.34 -3.0073 4.31796 0
M  V30 16053 O 1558.37 -2.72064 4.9997 0
M  V30 16054 N 1559.57 -4.28114 3.92044 0
M  V30 16055 H 1562.33 -0.321106 2.97975 0
M  V30 16056 H 1559.89 -0.0280861 1.61876 0
M  V30 16057 H 1561.89 -2.85005 2.87323 0
M  V30 16058 H 1560.46 -2.50652 1.86796 0
M  V30 16059 H 1559.68 -0.968958 3.82106 0
M  V30 16060 H 1560.96 -1.69845 4.79614 0
M  V30 16061 H 1560.36 -4.54269 3.37129 0
M  V30 16062 H 1558.92 -4.99594 4.18627 0
M  V30 16063 N 1562.35 -1.57153 -0.118549 0
M  V30 16064 C 1563.76 -1.74046 -0.675645 0
M  V30 16065 C 1564.11 -0.773974 -1.80289 0
M  V30 16066 O 1563.24 0.0530041 -2.16335 0
M  V30 16067 C 1563.83 -3.15591 -1.23239 0
M  V30 16068 C 1562.39 -3.33988 -1.73577 0
M  V30 16069 C 1561.54 -2.69916 -0.63567 0
M  V30 16070 H 1564.49 -1.58336 0.10737 0
M  V30 16071 H 1564.51 -3.17166 -2.10205 0
M  V30 16072 H 1564.02 -3.8591 -0.411744 0
M  V30 16073 H 1562.12 -2.68712 -2.58118 0
M  V30 16074 H 1562.24 -4.42154 -1.84491 0
M  V30 16075 H 1560.6 -2.31163 -1.06939 0
M  V30 16076 H 1561.38 -3.42859 0.174005 0
M  V30 16077 N 1563.83 0.388742 -1.5273 0
M  V30 16078 C 1564.79 1.45759 -1.76881 0
M  V30 16079 C 1565.79 1.47565 -0.63884 0
M  V30 16080 O 1566.98 1.48731 -0.906895 0
M  V30 16081 C 1564.11 2.85045 -1.86981 0
M  V30 16082 H 1565.31 1.25629 -2.72319 0
M  V30 16083 H 1562.86 0.620497 -1.43456 0
M  V30 16084 H 1563.6 3.1052 -0.935296 0
M  V30 16085 H 1563.38 2.85136 -2.69147 0
M  V30 16086 H 1564.87 3.62492 -2.07338 0
M  V30 16087 N 1565.31 1.43698 0.647203 0
M  V30 16088 C 1566.53 1.49301 1.43958 0
M  V30 16089 C 1566.96 0.11395 1.87755 0
M  V30 16090 O 1566.32 -0.893571 1.5775 0
M  V30 16091 C 1566.36 2.44905 2.64677 0
M  V30 16092 O 1565.47 1.93947 3.63948 0
M  V30 16093 H 1564.81 0.504771 0.431396 0
M  V30 16094 H 1567.34 1.88673 0.791432 0
M  V30 16095 H 1567.35 2.62409 3.12419 0
M  V30 16096 H 1566.02 3.45083 2.32143 0
M  V30 16097 H 1564.6 1.86133 3.23124 0
M  V30 16098 N 1566.79 -0.886131 1.30328 0
M  V30 16099 C 1567.7 -2.02453 1.18532 0
M  V30 16100 C 1568.71 -1.7368 0.105506 0
M  V30 16101 O 1569.89 -1.98838 0.320217 0
M  V30 16102 C 1566.95 -3.3543 0.876792 0
M  V30 16103 C 1566.01 -3.77633 2.04185 0
M  V30 16104 C 1565.25 -5.04264 1.74795 0
M  V30 16105 O 1565.47 -5.66388 0.675323 0
M  V30 16106 O 1564.4 -5.42847 2.60001 0
M  V30 16107 H 1568.23 -2.15333 2.14162 0
M  V30 16108 H 1565.82 -1.01193 1.09911 0
M  V30 16109 H 1567.7 -4.15206 0.719882 0
M  V30 16110 H 1566.37 -3.23662 -0.0496117 0
M  V30 16111 H 1565.28 -2.98567 2.25408 0
M  V30 16112 H 1566.61 -3.94004 2.94994 0
M  V30 16113 N 1568.26 -1.13026 -1.09832 0
M  V30 16114 C 1569.49 -0.911137 -1.85423 0
M  V30 16115 C 1569.9 0.543325 -1.81231 0
M  V30 16116 O 1569.25 1.38768 -1.20371 0
M  V30 16117 C 1569.31 -1.31584 -3.34553 0
M  V30 16118 C 1568.97 -2.78288 -3.62498 0
M  V30 16119 C 1569.97 -3.7646 -3.58572 0
M  V30 16120 C 1567.65 -3.15346 -3.90976 0
M  V30 16121 C 1569.65 -5.09703 -3.82729 0
M  V30 16122 C 1567.33 -4.4877 -4.14788 0
M  V30 16123 C 1568.33 -5.45758 -4.10655 0
M  V30 16124 O 1568.02 -6.76775 -4.33856 0
M  V30 16125 H 1567.75 -0.325117 -0.592684 0
M  V30 16126 H 1570.31 -1.50559 -1.39718 0
M  V30 16127 H 1568.54 -0.664628 -3.80946 0
M  V30 16128 H 1570.23 -1.06986 -3.91547 0
M  V30 16129 H 1570.99 -3.49175 -3.36603 0
M  V30 16130 H 1566.87 -2.40459 -3.9332 0
M  V30 16131 H 1570.41 -5.85395 -3.79418 0
M  V30 16132 H 1566.31 -4.75781 -4.36237 0
M  V30 16133 H 1567.08 -6.82815 -4.51338 0
M  V30 16134 N 1569.74 1.27735 -0.923117 0
M  V30 16135 C 1570.97 1.98682 -0.577317 0
M  V30 16136 C 1571.39 1.68904 0.843608 0
M  V30 16137 O 1570.74 0.947021 1.56006 0
M  V30 16138 C 1570.79 3.52804 -0.788144 0
M  V30 16139 O 1570.51 3.81537 -2.15316 0
M  V30 16140 C 1572.02 4.41006 -0.450437 0
M  V30 16141 H 1569.24 0.634186 -0.2192 0
M  V30 16142 H 1571.78 1.62702 -1.23888 0
M  V30 16143 H 1569.93 3.87012 -0.173441 0
M  V30 16144 H 1570.35 4.76142 -2.19976 0
M  V30 16145 H 1571.82 5.48175 -0.648674 0
M  V30 16146 H 1572.3 4.3489 0.613806 0
M  V30 16147 H 1572.91 4.1231 -1.04308 0
M  V30 16148 N 1571.22 0.688118 1.41784 0
M  V30 16149 C 1572.47 0.216263 2.01644 0
M  V30 16150 C 1572.8 -1.17861 1.54345 0
M  V30 16151 O 1572.07 -1.794 0.751392 0
M  V30 16152 C 1572.36 0.265663 3.59119 0
M  V30 16153 C 1572.21 1.69694 4.16562 0
M  V30 16154 C 1573.53 -0.378713 4.38468 0
M  V30 16155 H 1570.65 0.0800582 0.732639 0
M  V30 16156 H 1573.29 0.875428 1.68631 0
M  V30 16157 H 1571.44 -0.295588 3.87374 0
M  V30 16158 H 1573.11 2.31146 3.9921 0
M  V30 16159 H 1571.36 2.23345 3.71886 0
M  V30 16160 H 1572.03 1.68309 5.25715 0
M  V30 16161 H 1574.5 0.0991969 4.15982 0
M  V30 16162 H 1573.38 -0.31357 5.48004 0
M  V30 16163 H 1573.64 -1.45832 4.17355 0
M  V30 16164 N 1572.7 -1.51554 0.432352 0
M  V30 16165 C 1573.92 -2.06947 -0.136995 0
M  V30 16166 C 1574.35 -1.29817 -1.36122 0
M  V30 16167 O 1573.71 -0.334733 -1.78183 0
M  V30 16168 C 1573.75 -3.57871 -0.442785 0
M  V30 16169 O 1572.86 -3.82966 -1.53007 0
M  V30 16170 H 1572.2 -0.663988 -0.00405152 0
M  V30 16171 H 1574.73 -1.95225 0.612249 0
M  V30 16172 H 1574.74 -4.02042 -0.694694 0
M  V30 16173 H 1573.41 -4.13436 0.452013 0
M  V30 16174 H 1571.99 -3.50661 -1.26851 0
M  V30 16175 N 1574.18 -0.163538 -1.56749 0
M  V30 16176 C 1575.11 0.765571 -2.20593 0
M  V30 16177 C 1576.09 1.24489 -1.15916 0
M  V30 16178 O 1577.27 1.29946 -1.44318 0
M  V30 16179 C 1574.4 1.99823 -2.84057 0
M  V30 16180 C 1573.36 1.65506 -3.94705 0
M  V30 16181 C 1572.68 2.96172 -4.45181 0
M  V30 16182 C 1573.98 0.88902 -5.14678 0
M  V30 16183 H 1575.68 0.233431 -2.98489 0
M  V30 16184 H 1573.22 0.110836 -1.43573 0
M  V30 16185 H 1575.18 2.65316 -3.27392 0
M  V30 16186 H 1573.9 2.55437 -2.03517 0
M  V30 16187 H 1572.56 1.02384 -3.52013 0
M  V30 16188 H 1572.21 3.49811 -3.61443 0
M  V30 16189 H 1571.91 2.73968 -5.19823 0
M  V30 16190 H 1573.43 3.62708 -4.91198 0
M  V30 16191 H 1574.84 1.44637 -5.54755 0
M  V30 16192 H 1573.24 0.766302 -5.95187 0
M  V30 16193 H 1574.31 -0.116145 -4.84761 0
M  V30 16194 N 1575.65 1.57214 0.110213 0
M  V30 16195 C 1576.9 1.85586 0.817649 0
M  V30 16196 C 1577.23 0.750536 1.79111 0
M  V30 16197 O 1576.51 -0.242864 1.92978 0
M  V30 16198 C 1576.79 3.24565 1.55979 0
M  V30 16199 C 1576.64 4.45708 0.605339 0
M  V30 16200 C 1577.96 3.61233 2.51393 0
M  V30 16201 H 1575.08 0.675037 0.295794 0
M  V30 16202 H 1577.72 1.89824 0.0816541 0
M  V30 16203 H 1575.87 3.21083 2.18718 0
M  V30 16204 H 1577.55 4.61298 -0.0138894 0
M  V30 16205 H 1575.79 4.33722 -0.0824644 0
M  V30 16206 H 1576.46 5.39643 1.16143 0
M  V30 16207 H 1578.94 3.65563 1.98754 0
M  V30 16208 H 1577.81 4.59438 3.00346 0
M  V30 16209 H 1578.07 2.89116 3.34461 0
M  V30 16210 N 1577.13 -0.380637 1.52934 0
M  V30 16211 C 1578.1 -1.44819 1.77652 0
M  V30 16212 C 1579.1 -1.47224 0.646657 0
M  V30 16213 O 1580.29 -1.48248 0.91477 0
M  V30 16214 C 1577.42 -2.8405 1.8849 0
M  V30 16215 H 1578.61 -1.24183 2.72981 0
M  V30 16216 H 1576.16 -0.61288 1.43783 0
M  V30 16217 H 1576.9 -3.1002 0.951751 0
M  V30 16218 H 1576.68 -2.83704 2.70655 0
M  V30 16219 H 1578.17 -3.61388 2.09257 0
M  V30 16220 N 1578.61 -1.44039 -0.639573 0
M  V30 16221 C 1579.86 -1.4566 -1.39521 0
M  V30 16222 C 1580.17 -0.0897878 -1.95394 0
M  V30 16223 O 1581.38 0.0165074 -2.71495 0
M  V30 16224 C 1579.83 -2.56395 -2.52566 0
M  V30 16225 C 1579.44 -3.99245 -2.03243 0
M  V30 16226 C 1581.19 -2.67226 -3.29834 0
M  V30 16227 C 1579.09 -5.01419 -3.1358 0
M  V30 16228 H 1578.02 -0.541894 -0.524277 0
M  V30 16229 H 1580.67 -1.70076 -0.688941 0
M  V30 16230 H 1579.06 -2.25204 -3.25729 0
M  V30 16231 H 1580.23 -4.39963 -1.37002 0
M  V30 16232 H 1578.55 -3.9258 -1.38816 0
M  V30 16233 H 1581.14 -3.40736 -4.12072 0
M  V30 16234 H 1581.49 -1.72756 -3.78763 0
M  V30 16235 H 1582.02 -2.97786 -2.63758 0
M  V30 16236 H 1578.76 -5.97489 -2.69605 0
M  V30 16237 H 1578.28 -4.65301 -3.7849 0
M  V30 16238 H 1579.96 -5.2474 -3.78493 0
M  V30 16239 N 1580.09 0.879207 -1.30796 0
M  V30 16240 C 1581.04 1.98553 -1.17667 0
M  V30 16241 C 1582.01 1.65974 -0.0647231 0
M  V30 16242 O 1583.19 1.89336 -0.235941 0
M  V30 16243 C 1580.33 3.3368 -0.880434 0
M  V30 16244 C 1579.44 3.78913 -2.07482 0
M  V30 16245 C 1578.58 5.02714 -1.71617 0
M  V30 16246 C 1577.62 5.40371 -2.87517 0
M  V30 16247 N 1576.75 6.55352 -2.5191 0
M  V30 16248 H 1581.59 2.09115 -2.12309 0
M  V30 16249 H 1579.13 1.02382 -1.05623 0
M  V30 16250 H 1581.09 4.11467 -0.689278 0
M  V30 16251 H 1579.72 3.22787 0.0291283 0
M  V30 16252 H 1578.77 2.96987 -2.37704 0
M  V30 16253 H 1580.08 4.02757 -2.94259 0
M  V30 16254 H 1579.24 5.88142 -1.4891 0
M  V30 16255 H 1577.98 4.80754 -0.820181 0
M  V30 16256 H 1576.98 4.53466 -3.10883 0
M  V30 16257 H 1578.21 5.64301 -3.77811 0
M  V30 16258 H 1576.15 6.34956 -1.64823 0
M  V30 16259 H 1576.07 6.79093 -3.32217 0
M  V30 16260 H 1577.34 7.43996 -2.32573 0
M  V30 16261 N 1581.57 1.13606 1.09231 0
M  V30 16262 C 1582.82 0.897278 1.81089 0
M  V30 16263 C 1583.14 -0.578066 1.86235 0
M  V30 16264 O 1582.41 -1.42018 1.34935 0
M  V30 16265 H 1580.99 0.328971 0.670662 0
M  V30 16266 H 1583.65 1.433 1.32103 0
M  V30 16267 H 1582.74 1.28979 2.84202 0
M  V30 16268 N 1583.05 -1.27244 0.929878 0
M  V30 16269 C 1583.99 -2.28755 0.421202 0
M  V30 16270 C 1584.99 -1.61988 -0.49561 0
M  V30 16271 O 1586.19 -1.76049 -0.375071 0
M  V30 16272 H 1582.57 -0.742741 0.117646 0
M  V30 16273 H 1584.54 -2.6907 1.29011 0
M  V30 16274 C 1583.29 -3.46327 -0.308737 0
M  V30 16275 H 1582.61 -3.97917 0.387552 0
M  V30 16276 H 1584.05 -4.19308 -0.629052 0
M  V30 16277 C 1582.51 -3.00535 -1.5225 0
M  V30 16278 O 1583.04 -3.04395 -2.62119 0
M  V30 16279 N 1581.25 -2.56007 -1.3751 0
M  V30 16280 H 1580.79 -2.53065 -0.481215 0
M  V30 16281 H 1580.75 -2.25731 -2.18845 0
M  V30 16282 N 1584.52 -0.695628 -1.41417 0
M  V30 16283 C 1585.46 0.00883515 -2.29198 0
M  V30 16284 C 1586.47 0.744337 -1.44788 0
M  V30 16285 O 1587.66 0.59503 -1.6829 0
M  V30 16286 C 1584.76 1.0366 -3.22657 0
M  V30 16287 C 1583.93 0.37071 -4.35826 0
M  V30 16288 C 1582.99 1.3011 -5.09861 0
M  V30 16289 O 1582.02 0.793461 -5.63642 0
M  V30 16290 N 1583.22 2.63343 -5.1733 0
M  V30 16291 H 1585.98 -0.744795 -2.90298 0
M  V30 16292 H 1583.54 -0.541663 -1.5257 0
M  V30 16293 H 1585.54 1.66075 -3.69054 0
M  V30 16294 H 1584.11 1.69177 -2.62865 0
M  V30 16295 H 1583.33 -0.433315 -3.91811 0
M  V30 16296 H 1584.61 -0.0923178 -5.08716 0
M  V30 16297 H 1584.01 3.07103 -4.75083 0
M  V30 16298 H 1582.57 3.20952 -5.67303 0
M  V30 16299 N 1586 1.51322 -0.440383 0
M  V30 16300 C 1586.91 2.31574 0.37561 0
M  V30 16301 C 1587.93 1.40617 1.02483 0
M  V30 16302 O 1589.1 1.73688 1.01953 0
M  V30 16303 C 1586.17 3.14441 1.4604 0
M  V30 16304 C 1585.23 4.21181 0.830991 0
M  V30 16305 C 1584.46 5.00087 1.86409 0
M  V30 16306 O 1584.69 4.79666 3.08669 0
M  V30 16307 O 1583.62 5.84101 1.45293 0
M  V30 16308 H 1587.45 3.0241 -0.27962 0
M  V30 16309 H 1585.03 1.48016 -0.202857 0
M  V30 16310 H 1586.91 3.6595 2.08946 0
M  V30 16311 H 1585.59 2.46366 2.09965 0
M  V30 16312 H 1584.49 3.73741 0.163798 0
M  V30 16313 H 1585.83 4.91638 0.235174 0
M  V30 16314 N 1587.48 0.171848 1.5666 0
M  V30 16315 C 1588.7 -0.482396 2.01712 0
M  V30 16316 C 1589.13 -1.5598 1.05128 0
M  V30 16317 O 1588.49 -1.81274 0.0309178 0
M  V30 16318 C 1588.54 -1.03716 3.45363 0
M  V30 16319 O 1587.64 -2.15114 3.51852 0
M  V30 16320 H 1586.98 -0.115439 0.653888 0
M  V30 16321 H 1589.51 0.275895 2.02731 0
M  V30 16322 H 1589.52 -1.35964 3.84679 0
M  V30 16323 H 1588.2 -0.24832 4.15158 0
M  V30 16324 H 1586.77 -1.83907 3.24396 0
M  V30 16325 N 1588.96 -1.5727 -0.101874 0
M  V30 16326 C 1590.37 -1.74753 -0.657147 0
M  V30 16327 C 1590.72 -0.793052 -1.79458 0
M  V30 16328 O 1589.84 0.0300559 -2.16379 0
M  V30 16329 C 1590.44 -3.1688 -1.19885 0
M  V30 16330 C 1589 -3.3581 -1.70025 0
M  V30 16331 C 1588.15 -2.70575 -0.607007 0
M  V30 16332 H 1591.1 -1.58214 0.124158 0
M  V30 16333 H 1591.12 -3.19378 -2.06829 0
M  V30 16334 H 1590.63 -3.86325 -0.37079 0
M  V30 16335 H 1588.73 -2.71434 -2.55253 0
M  V30 16336 H 1588.84 -4.44086 -1.79791 0
M  V30 16337 H 1587.21 -2.32284 -1.04481 0
M  V30 16338 H 1587.99 -3.42655 0.21036 0
M  V30 16339 N 1590.44 0.372521 -1.53134 0
M  V30 16340 C 1591.38 1.45597 -1.79082 0
M  V30 16341 C 1592.35 1.5349 -0.63482 0
M  V30 16342 O 1593.54 1.69488 -0.876276 0
M  V30 16343 C 1590.68 2.8263 -1.98026 0
M  V30 16344 C 1589.79 2.83758 -3.25738 0
M  V30 16345 C 1588.93 4.12322 -3.34909 0
M  V30 16346 C 1587.96 4.07565 -4.5668 0
M  V30 16347 N 1587.1 5.27766 -4.63042 0
M  V30 16348 H 1591.94 1.22771 -2.71535 0
M  V30 16349 H 1589.48 0.595285 -1.34517 0
M  V30 16350 H 1591.44 3.62227 -2.06997 0
M  V30 16351 H 1590.07 3.0387 -1.08917 0
M  V30 16352 H 1589.12 1.96435 -3.25757 0
M  V30 16353 H 1590.43 2.76114 -4.15406 0
M  V30 16354 H 1589.58 5.00331 -3.43153 0
M  V30 16355 H 1588.32 4.22709 -2.43245 0
M  V30 16356 H 1587.33 3.17943 -4.48545 0
M  V30 16357 H 1588.55 3.98786 -5.49678 0
M  V30 16358 H 1586.5 5.38752 -3.74276 0
M  V30 16359 H 1586.42 5.22264 -5.46605 0
M  V30 16360 H 1587.68 6.17626 -4.75561 0
M  V30 16361 N 1591.91 1.44376 0.631925 0
M  V30 16362 C 1592.88 1.50825 1.72582 0
M  V30 16363 C 1593.88 0.390379 1.55989 0
M  V30 16364 O 1595.07 0.65297 1.61499 0
M  V30 16365 C 1592.2 1.38141 3.11657 0
M  V30 16366 H 1593.39 2.48265 1.68239 0
M  V30 16367 H 1590.94 1.31456 0.845514 0
M  V30 16368 H 1591.68 0.417905 3.21596 0
M  V30 16369 H 1591.46 2.19198 3.25107 0
M  V30 16370 H 1592.95 1.45633 3.91383 0
M  V30 16371 N 1593.39 -0.872258 1.31261 0
M  V30 16372 C 1594.62 -1.65795 1.23772 0
M  V30 16373 C 1595.03 -1.87766 -0.197351 0
M  V30 16374 O 1594.39 -1.43418 -1.1286 0
M  V30 16375 C 1594.44 -3.02722 1.9759 0
M  V30 16376 O 1594.16 -2.81734 3.35496 0
M  V30 16377 C 1595.66 -3.97165 1.96913 0
M  V30 16378 H 1592.88 -0.516959 0.427778 0
M  V30 16379 H 1595.43 -1.0889 1.73099 0
M  V30 16380 H 1593.58 -3.56322 1.5203 0
M  V30 16381 H 1594 -3.6869 3.73052 0
M  V30 16382 H 1595.47 -4.90566 2.53079 0
M  V30 16383 H 1595.95 -4.28778 0.951089 0
M  V30 16384 H 1596.55 -3.495 2.42342 0
M  V30 16385 N 1594.87 -1.14184 -1.08627 0
M  V30 16386 C 1596.12 -0.906869 -1.80611 0
M  V30 16387 C 1596.44 0.568182 -1.86539 0
M  V30 16388 O 1595.71 1.41301 -1.35687 0
M  V30 16389 H 1594.29 -0.332523 -0.668908 0
M  V30 16390 H 1596.95 -1.43998 -1.31341 0
M  V30 16391 H 1596.05 -1.30484 -2.83514 0
M  V30 16392 N 1596.35 1.26749 -0.936613 0
M  V30 16393 C 1597.59 1.94251 -0.582616 0
M  V30 16394 C 1597.93 1.73352 0.875361 0
M  V30 16395 O 1597.2 1.06784 1.62565 0
M  V30 16396 C 1597.49 3.48145 -0.920151 0
M  V30 16397 C 1597.34 3.78349 -2.43253 0
M  V30 16398 C 1598.66 4.37971 -0.432326 0
M  V30 16399 H 1595.78 0.705507 -0.213141 0
M  V30 16400 H 1598.42 1.49703 -1.17001 0
M  V30 16401 H 1596.57 3.8622 -0.420279 0
M  V30 16402 H 1598.24 3.50015 -3.00478 0
M  V30 16403 H 1596.48 3.24586 -2.87795 0
M  V30 16404 H 1597.15 4.85902 -2.61922 0
M  V30 16405 H 1599.63 4.07098 -0.860857 0
M  V30 16406 H 1598.51 5.44452 -0.697366 0
M  V30 16407 H 1598.77 4.37029 0.667694 0
M  V30 16408 N 1597.83 0.703118 1.41046 0
M  V30 16409 C 1599.07 0.237287 2.01105 0
M  V30 16410 C 1599.4 -1.16552 1.55711 0
M  V30 16411 O 1598.66 -1.80233 0.762533 0
M  V30 16412 C 1598.96 0.251575 3.56513 0
M  V30 16413 C 1598.62 1.60295 4.21446 0
M  V30 16414 C 1597.28 1.9729 4.38897 0
M  V30 16415 C 1599.64 2.49167 4.57783 0
M  V30 16416 C 1596.96 3.22726 4.89964 0
M  V30 16417 C 1599.32 3.73943 5.10244 0
M  V30 16418 C 1597.98 4.11072 5.25905 0
M  V30 16419 H 1597.25 0.0868294 0.735895 0
M  V30 16420 H 1599.9 0.903695 1.68836 0
M  V30 16421 H 1598.2 -0.498393 3.88617 0
M  V30 16422 H 1599.9 -0.126501 4.008 0
M  V30 16423 H 1596.49 1.30523 4.08242 0
M  V30 16424 H 1600.67 2.21864 4.43948 0
M  V30 16425 H 1595.93 3.51477 5.00274 0
M  V30 16426 H 1600.1 4.42988 5.3734 0
M  V30 16427 H 1597.73 5.0834 5.65239 0
M  V30 16428 N 1599.3 -1.51086 0.448402 0
M  V30 16429 C 1600.53 -2.06593 -0.112695 0
M  V30 16430 C 1600.95 -1.31471 -1.35502 0
M  V30 16431 O 1600.3 -0.377406 -1.78555 0
M  V30 16432 C 1600.36 -3.59008 -0.423769 0
M  V30 16433 O 1600.08 -4.31293 0.769259 0
M  V30 16434 C 1601.58 -4.31064 -1.03433 0
M  V30 16435 H 1598.8 -0.670993 -0.00301626 0
M  V30 16436 H 1601.34 -1.94532 0.630667 0
M  V30 16437 H 1599.5 -3.70946 -1.11704 0
M  V30 16438 H 1599.91 -5.2211 0.500162 0
M  V30 16439 H 1601.38 -5.38756 -1.20191 0
M  V30 16440 H 1601.86 -3.90075 -2.01837 0
M  V30 16441 H 1602.47 -4.23598 -0.380115 0
M  V30 16442 N 1600.78 -0.180154 -1.56567 0
M  V30 16443 C 1602.01 0.46854 -2.01525 0
M  V30 16444 C 1602.43 1.56211 -1.06036 0
M  V30 16445 O 1601.78 1.82392 -0.06269 0
M  V30 16446 C 1601.83 1.0387 -3.46256 0
M  V30 16447 O 1601.55 -0.0112203 -4.38099 0
M  V30 16448 C 1603.06 1.76475 -4.06659 0
M  V30 16449 H 1600.28 0.119098 -0.660346 0
M  V30 16450 H 1602.82 -0.284477 -2.02512 0
M  V30 16451 H 1600.97 1.74217 -3.46016 0
M  V30 16452 H 1601.39 0.41099 -5.22887 0
M  V30 16453 H 1602.86 2.11618 -5.09825 0
M  V30 16454 H 1603.34 2.66301 -3.49257 0
M  V30 16455 H 1603.95 1.10749 -4.10627 0
M  V30 16456 N 1602.26 1.57322 0.0935319 0
M  V30 16457 C 1603.19 2.05208 1.11409 0
M  V30 16458 C 1604.17 0.941295 1.41681 0
M  V30 16459 O 1605.36 1.21266 1.51684 0
M  V30 16460 C 1602.49 2.47782 2.43354 0
M  V30 16461 C 1601.44 3.62538 2.27486 0
M  V30 16462 C 1600.77 3.91095 3.64622 0
M  V30 16463 C 1602.07 4.93371 1.71412 0
M  V30 16464 H 1603.76 2.9072 0.715702 0
M  V30 16465 H 1601.31 1.3986 0.342827 0
M  V30 16466 H 1603.26 2.79891 3.15022 0
M  V30 16467 H 1601.98 1.59272 2.85132 0
M  V30 16468 H 1600.64 3.30679 1.58263 0
M  V30 16469 H 1600.29 2.99749 4.0393 0
M  V30 16470 H 1599.99 4.68353 3.5485 0
M  V30 16471 H 1601.51 4.25679 4.37755 0
M  V30 16472 H 1602.93 5.23851 2.32922 0
M  V30 16473 H 1601.33 5.74804 1.72395 0
M  V30 16474 H 1602.4 4.80197 0.67368 0
M  V30 16475 N 1603.74 -0.364395 1.53329 0
M  V30 16476 C 1604.67 -1.46658 1.76137 0
M  V30 16477 C 1605.68 -1.496 0.642166 0
M  V30 16478 O 1606.87 -1.53058 0.918452 0
M  V30 16479 C 1603.97 -2.85417 1.8273 0
M  V30 16480 C 1603.15 -3.06158 3.12388 0
M  V30 16481 C 1602.2 -4.25038 3.10208 0
M  V30 16482 O 1601.23 -4.20156 3.84002 0
M  V30 16483 N 1602.43 -5.32511 2.31111 0
M  V30 16484 H 1605.2 -1.27471 2.7124 0
M  V30 16485 H 1602.76 -0.554127 1.52122 0
M  V30 16486 H 1604.75 -3.63086 1.78748 0
M  V30 16487 H 1603.32 -2.97845 0.949058 0
M  V30 16488 H 1602.54 -2.16139 3.29663 0
M  V30 16489 H 1603.83 -3.16885 3.98072 0
M  V30 16490 H 1603.23 -5.39341 1.70669 0
M  V30 16491 H 1601.78 -6.08752 2.32946 0
M  V30 16492 N 1605.22 -1.44709 -0.62426 0
M  V30 16493 C 1606.63 -1.42523 -1.20599 0
M  V30 16494 C 1606.98 -0.144129 -1.9567 0
M  V30 16495 O 1606.1 0.755175 -2.02796 0
M  V30 16496 C 1606.7 -2.58194 -2.19365 0
M  V30 16497 C 1605.26 -2.59181 -2.72951 0
M  V30 16498 C 1604.4 -2.34461 -1.48065 0
M  V30 16499 H 1607.36 -1.5319 -0.414532 0
M  V30 16500 H 1607.38 -2.3134 -3.02096 0
M  V30 16501 H 1606.89 -3.5142 -1.64699 0
M  V30 16502 H 1604.99 -1.69916 -3.31601 0
M  V30 16503 H 1605.1 -3.57884 -3.18521 0
M  V30 16504 H 1603.47 -1.83688 -1.76439 0
M  V30 16505 H 1604.25 -3.2981 -0.952918 0
M  V30 16506 N 1606.69 0.865285 -1.31722 0
M  V30 16507 C 1607.94 1.61549 -1.21435 0
M  V30 16508 C 1608.26 1.9368 0.226501 0
M  V30 16509 O 1607.53 1.58705 1.14846 0
M  V30 16510 H 1606.11 0.598905 -0.446454 0
M  V30 16511 H 1608.78 1.03563 -1.65108 0
M  V30 16512 H 1607.87 2.55708 -1.78941 0
M  V30 16513 N 1608.17 1.14759 1.0802 0
M  V30 16514 C 1609.4 0.942316 1.84757 0
M  V30 16515 C 1609.82 -0.504188 1.81217 0
M  V30 16516 O 1609.18 -1.35891 1.20014 0
M  V30 16517 C 1609.23 1.45271 3.30043 0
M  V30 16518 O 1608.33 0.647414 4.07287 0
M  V30 16519 H 1607.67 0.336613 0.572353 0
M  V30 16520 H 1610.2 1.52578 1.36313 0
M  V30 16521 H 1610.21 1.4626 3.80883 0
M  V30 16522 H 1608.89 2.50583 3.31935 0
M  V30 16523 H 1607.47 0.706595 3.66144 0
M  V30 16524 N 1609.65 -1.26251 0.943322 0
M  V30 16525 C 1610.88 -1.98278 0.608341 0
M  V30 16526 C 1611.3 -1.69756 -0.810208 0
M  V30 16527 O 1610.66 -0.946846 -1.54611 0
M  V30 16528 C 1610.71 -3.50205 0.859591 0
M  V30 16529 O 1609.81 -4.12345 -0.0672371 0
M  V30 16530 H 1609.15 -0.621973 0.232477 0
M  V30 16531 H 1611.68 -1.60662 1.26684 0
M  V30 16532 H 1611.69 -4.00449 0.781341 0
M  V30 16533 H 1610.37 -3.70294 1.89354 0
M  V30 16534 H 1608.94 -3.72848 0.0622543 0
M  V30 16535 N 1611.13 -0.710588 -1.40671 0
M  V30 16536 C 1612.38 -0.244967 -2.00207 0
M  V30 16537 C 1612.69 1.16693 -1.56978 0
M  V30 16538 O 1613.9 1.73081 -2.09177 0
M  V30 16539 C 1612.35 -0.387049 -3.57813 0
M  V30 16540 C 1611.96 -1.80527 -4.10017 0
M  V30 16541 C 1613.71 0.0180338 -4.24496 0
M  V30 16542 C 1611.61 -1.89821 -5.60109 0
M  V30 16543 H 1610.54 -0.087831 -0.748867 0
M  V30 16544 H 1613.19 -0.880956 -1.6097 0
M  V30 16545 H 1611.58 0.317442 -3.94726 0
M  V30 16546 H 1612.75 -2.53974 -3.84492 0
M  V30 16547 H 1611.06 -2.16137 -3.55913 0
M  V30 16548 H 1613.66 -0.0307544 -5.34691 0
M  V30 16549 H 1614 1.05915 -4.02601 0
M  V30 16550 H 1614.54 -0.63672 -3.92671 0
M  V30 16551 H 1611.28 -2.92036 -5.86852 0
M  V30 16552 H 1610.8 -1.20779 -5.87514 0
M  V30 16553 H 1612.48 -1.66801 -6.25129 0
M  V30 16554 N 1612.61 1.50847 -0.456408 0
M  V30 16555 C 1614.02 1.867 0.00222532 0
M  V30 16556 C 1614.37 1.37229 1.40224 0
M  V30 16557 O 1613.49 0.731052 2.03678 0
M  V30 16558 C 1614.09 3.38798 0.0108142 0
M  V30 16559 C 1612.65 3.74117 0.413924 0
M  V30 16560 C 1611.8 2.74671 -0.380933 0
M  V30 16561 H 1614.75 1.43799 -0.671379 0
M  V30 16562 H 1614.77 3.71642 0.816217 0
M  V30 16563 H 1614.28 3.74774 -1.00826 0
M  V30 16564 H 1612.38 3.43737 1.43789 0
M  V30 16565 H 1612.49 4.78936 0.125471 0
M  V30 16566 H 1610.86 2.54175 0.163385 0
M  V30 16567 H 1611.64 3.1349 -1.39924 0
M  V30 16568 N 1614.09 0.188454 1.56469 0
M  V30 16569 C 1615.5 -0.325309 1.83844 0
M  V30 16570 C 1615.85 -1.61858 1.1089 0
M  V30 16571 O 1614.97 -2.13256 0.36752 0
M  V30 16572 C 1615.57 -0.597002 3.33499 0
M  V30 16573 C 1614.13 -1.05515 3.61308 0
M  V30 16574 C 1613.27 -0.100182 2.77119 0
M  V30 16575 H 1616.22 0.412378 1.53249 0
M  V30 16576 H 1616.25 -1.44709 3.51908 0
M  V30 16577 H 1615.76 0.344429 3.86569 0
M  V30 16578 H 1613.86 -2.01109 3.13665 0
M  V30 16579 H 1613.97 -0.952461 4.69537 0
M  V30 16580 H 1612.34 -0.600815 2.47512 0
M  V30 16581 H 1613.12 0.835574 3.32976 0
M  V30 16582 N 1615.56 -1.5737 -0.0851874 0
M  V30 16583 C 1616.79 -1.90525 -0.798977 0
M  V30 16584 C 1617.2 -0.781347 -1.72313 0
M  V30 16585 O 1616.54 0.255036 -1.81921 0
M  V30 16586 C 1616.61 -3.19027 -1.65716 0
M  V30 16587 C 1616.27 -4.47974 -0.903795 0
M  V30 16588 C 1617.27 -5.19395 -0.229094 0
M  V30 16589 C 1614.95 -4.94621 -0.874937 0
M  V30 16590 C 1616.95 -6.35706 0.464385 0
M  V30 16591 C 1614.63 -6.10842 -0.177678 0
M  V30 16592 C 1615.63 -6.81234 0.490795 0
M  V30 16593 O 1615.32 -7.95239 1.17685 0
M  V30 16594 H 1615.05 -0.634533 -0.233119 0
M  V30 16595 H 1617.61 -2.05301 -0.0638265 0
M  V30 16596 H 1615.84 -3.00425 -2.43479 0
M  V30 16597 H 1617.52 -3.37937 -2.24841 0
M  V30 16598 H 1618.29 -4.84392 -0.242783 0
M  V30 16599 H 1614.17 -4.39712 -1.3847 0
M  V30 16600 H 1617.71 -6.90586 0.986719 0
M  V30 16601 H 1613.61 -6.45297 -0.16187 0
M  V30 16602 H 1614.38 -8.1128 1.08476 0
M  V30 16603 N 1617.04 0.356258 -1.53521 0
M  V30 16604 C 1617.99 1.45718 -1.81298 0
M  V30 16605 C 1618.98 1.55036 -0.682652 0
M  V30 16606 O 1620.19 1.57812 -0.865766 0
M  V30 16607 H 1616.56 0.485614 -0.57418 0
M  V30 16608 H 1618.54 1.19498 -2.73428 0
M  V30 16609 C 1617.28 2.82424 -2.0281 0
M  V30 16610 H 1616.61 2.76016 -2.89232 0
M  V30 16611 H 1618.05 3.5861 -2.26218 0
M  V30 16612 C 1616.51 3.2702 -0.809893 0
M  V30 16613 O 1617.04 4.017 -0.00310668 0
M  V30 16614 N 1615.24 2.83673 -0.630696 0
M  V30 16615 H 1614.79 2.23066 -1.28839 0
M  V30 16616 H 1614.75 3.13867 0.182961 0
M  V30 16617 N 1618.52 1.45038 0.616577 0
M  V30 16618 C 1619.75 1.52094 1.40267 0
M  V30 16619 C 1620.16 0.150558 1.88199 0
M  V30 16620 O 1619.52 -0.846258 1.61693 0
M  V30 16621 C 1619.57 2.49786 2.61322 0
M  V30 16622 O 1619.29 3.81498 2.15385 0
M  V30 16623 C 1620.79 2.66451 3.54286 0
M  V30 16624 H 1618.01 0.515378 0.429681 0
M  V30 16625 H 1620.56 1.90141 0.752768 0
M  V30 16626 H 1618.71 2.14835 3.22373 0
M  V30 16627 H 1619.13 4.34374 2.93972 0
M  V30 16628 H 1620.6 3.38802 4.35795 0
M  V30 16629 H 1621.08 1.72177 4.04044 0
M  V30 16630 H 1621.68 3.02362 2.99095 0
M  V30 16631 N 1620 -0.858287 1.32179 0
M  V30 16632 C 1620.91 -1.99894 1.228 0
M  V30 16633 C 1621.92 -1.73417 0.142323 0
M  V30 16634 O 1623.1 -1.98114 0.362321 0
M  V30 16635 C 1620.16 -3.33495 0.947745 0
M  V30 16636 C 1619.23 -3.73217 2.12149 0
M  V30 16637 C 1618.46 -5.00443 1.85452 0
M  V30 16638 O 1618.68 -5.64828 0.79531 0
M  V30 16639 O 1617.62 -5.3721 2.71457 0
M  V30 16640 H 1621.44 -2.10742 2.18682 0
M  V30 16641 H 1619.03 -0.988385 1.12033 0
M  V30 16642 H 1620.91 -4.13585 0.807791 0
M  V30 16643 H 1619.58 -3.23694 0.019053 0
M  V30 16644 H 1618.49 -2.93718 2.3169 0
M  V30 16645 H 1619.82 -3.87659 3.03285 0
M  V30 16646 N 1621.48 -1.1533 -1.07409 0
M  V30 16647 C 1622.72 -0.929181 -1.80261 0
M  V30 16648 C 1623.05 0.542387 -1.86472 0
M  V30 16649 O 1622.33 1.40209 -1.34802 0
M  V30 16650 C 1622.61 -1.54339 -3.25348 0
M  V30 16651 C 1622.47 -3.08551 -3.27286 0
M  V30 16652 C 1623.78 -1.22868 -4.22601 0
M  V30 16653 H 1620.9 -0.338985 -0.654414 0
M  V30 16654 H 1623.55 -1.42485 -1.2569 0
M  V30 16655 H 1621.7 -1.12187 -3.71949 0
M  V30 16656 H 1623.37 -3.59605 -2.88932 0
M  V30 16657 H 1621.61 -3.42471 -2.66263 0
M  V30 16658 H 1622.28 -3.4664 -4.29587 0
M  V30 16659 H 1624.76 -1.59328 -3.84388 0
M  V30 16660 H 1623.63 -1.68462 -5.2241 0
M  V30 16661 H 1623.89 -0.145612 -4.4186 0
M  V30 16662 N 1622.95 1.25748 -0.950004 0
M  V30 16663 C 1624.18 1.97413 -0.61933 0
M  V30 16664 C 1624.6 1.70656 0.807591 0
M  V30 16665 O 1623.95 0.979899 1.53962 0
M  V30 16666 C 1624 3.51053 -0.862801 0
M  V30 16667 O 1623.73 3.76884 -2.23361 0
M  V30 16668 C 1625.23 4.39951 -0.543879 0
M  V30 16669 H 1622.45 0.629394 -0.232603 0
M  V30 16670 H 1624.99 1.60037 -1.27312 0
M  V30 16671 H 1623.15 3.86557 -0.255493 0
M  V30 16672 H 1623.56 4.71368 -2.30026 0
M  V30 16673 H 1625.03 5.46676 -0.764804 0
M  V30 16674 H 1625.51 4.36094 0.521421 0
M  V30 16675 H 1626.12 4.10005 -1.1303 0
M  V30 16676 N 1624.43 0.718038 1.40292 0
M  V30 16677 C 1625.34 0.0681535 2.34501 0
M  V30 16678 C 1626.36 -0.741048 1.57431 0
M  V30 16679 O 1627.53 -0.673437 1.89807 0
M  V30 16680 C 1624.6 -0.840758 3.36351 0
M  V30 16681 C 1623.66 -0.0212287 4.29295 0
M  V30 16682 C 1622.89 -0.886852 5.2628 0
M  V30 16683 O 1623.12 -2.12603 5.29298 0
M  V30 16684 O 1622.05 -0.324537 6.01024 0
M  V30 16685 H 1625.88 0.845288 2.91699 0
M  V30 16686 H 1623.46 0.478541 1.41529 0
M  V30 16687 H 1625.34 -1.36131 3.98806 0
M  V30 16688 H 1624.02 -1.597 2.81563 0
M  V30 16689 H 1622.92 0.544451 3.70117 0
M  V30 16690 H 1624.26 0.696846 4.87242 0
M  V30 16691 N 1625.91 -1.50602 0.464402 0
M  V30 16692 C 1627.14 -2.06701 -0.0907765 0
M  V30 16693 C 1627.55 -1.32901 -1.341 0
M  V30 16694 O 1626.91 -0.396323 -1.78145 0
M  V30 16695 C 1626.96 -3.59437 -0.385667 0
M  V30 16696 O 1626.68 -4.30453 0.81496 0
M  V30 16697 C 1628.18 -4.32137 -0.988549 0
M  V30 16698 H 1625.4 -0.670987 0.00410069 0
M  V30 16699 H 1627.95 -1.93853 0.651264 0
M  V30 16700 H 1626.1 -3.7211 -1.07763 0
M  V30 16701 H 1626.52 -5.2155 0.55551 0
M  V30 16702 H 1627.99 -5.40001 -1.1447 0
M  V30 16703 H 1628.47 -3.92194 -1.97688 0
M  V30 16704 H 1629.07 -4.23977 -0.335166 0
M  V30 16705 N 1627.39 -0.19675 -1.56367 0
M  V30 16706 C 1628.62 0.447139 -2.02011 0
M  V30 16707 C 1629.03 1.55077 -1.07687 0
M  V30 16708 O 1628.39 1.82316 -0.0820316 0
M  V30 16709 C 1628.44 1.00192 -3.47338 0
M  V30 16710 O 1628.16 -0.0576859 -4.38062 0
M  V30 16711 C 1629.66 1.72152 -4.08508 0
M  V30 16712 H 1626.88 0.112088 -0.661572 0
M  V30 16713 H 1629.43 -0.30594 -2.02199 0
M  V30 16714 H 1627.58 1.70537 -3.47844 0
M  V30 16715 H 1627.99 0.355508 -5.23294 0
M  V30 16716 H 1629.47 2.06199 -5.12041 0
M  V30 16717 H 1629.95 2.62581 -3.52062 0
M  V30 16718 H 1630.55 1.06388 -4.11779 0
M  V30 16719 N 1628.87 1.57413 0.0768405 0
M  V30 16720 C 1630.12 1.86186 0.775741 0
M  V30 16721 C 1630.43 0.788676 1.78995 0
M  V30 16722 O 1631.63 0.964095 2.53806 0
M  V30 16723 C 1630.09 3.30247 1.43055 0
M  V30 16724 C 1629.7 4.45682 0.45517 0
M  V30 16725 C 1631.44 3.68225 2.11211 0
M  V30 16726 C 1629.35 5.80782 1.11561 0
M  V30 16727 H 1628.28 0.694546 0.293466 0
M  V30 16728 H 1630.93 1.83477 0.0289478 0
M  V30 16729 H 1629.31 3.27552 2.22544 0
M  V30 16730 H 1630.49 4.59759 -0.309535 0
M  V30 16731 H 1628.8 4.16222 -0.121671 0
M  V30 16732 H 1631.4 4.66454 2.6139 0
M  V30 16733 H 1631.74 2.9777 2.90928 0
M  V30 16734 H 1632.27 3.72888 1.38561 0
M  V30 16735 H 1629.01 6.54517 0.358877 0
M  V30 16736 H 1628.53 5.70515 1.8513 0
M  V30 16737 H 1630.21 6.25951 1.63689 0
M  V30 16738 N 1630.34 -0.348112 1.53707 0
M  V30 16739 C 1631.59 -1.09048 1.70987 0
M  V30 16740 C 1631.92 -1.88444 0.469305 0
M  V30 16741 O 1631.2 -1.87037 -0.533629 0
M  V30 16742 C 1631.48 -2.03542 2.97057 0
M  V30 16743 C 1631.33 -1.27638 4.3131 0
M  V30 16744 C 1632.65 -3.03424 3.18782 0
M  V30 16745 H 1629.77 -0.395049 0.622178 0
M  V30 16746 H 1632.41 -0.369498 1.86373 0
M  V30 16747 H 1630.56 -2.65021 2.8407 0
M  V30 16748 H 1632.24 -0.688079 4.56139 0
M  V30 16749 H 1630.48 -0.578349 4.29927 0
M  V30 16750 H 1631.15 -1.96891 5.15692 0
M  V30 16751 H 1633.63 -2.52056 3.31069 0
M  V30 16752 H 1632.5 -3.66748 4.08396 0
M  V30 16753 H 1632.76 -3.74553 2.34866 0
M  V30 16754 N 1631.82 -1.45363 -0.608876 0
M  V30 16755 C 1633.07 -1.48586 -1.364 0
M  V30 16756 C 1633.38 -0.131213 -1.95159 0
M  V30 16757 O 1634.59 -0.0410845 -2.71469 0
M  V30 16758 C 1633.05 -2.61694 -2.47071 0
M  V30 16759 C 1632.65 -4.03466 -1.94729 0
M  V30 16760 C 1634.4 -2.74162 -3.24091 0
M  V30 16761 C 1632.31 -5.07958 -3.02874 0
M  V30 16762 H 1631.24 -0.552893 -0.512665 0
M  V30 16763 H 1633.89 -1.71499 -0.65271 0
M  V30 16764 H 1632.27 -2.32062 -3.20879 0
M  V30 16765 H 1633.44 -4.4277 -1.27638 0
M  V30 16766 H 1631.76 -3.95436 -1.30457 0
M  V30 16767 H 1634.35 -3.494 -4.04752 0
M  V30 16768 H 1634.7 -1.80751 -3.75013 0
M  V30 16769 H 1635.23 -3.03313 -2.57383 0
M  V30 16770 H 1631.97 -6.03073 -2.56871 0
M  V30 16771 H 1631.49 -4.73225 -3.68535 0
M  V30 16772 H 1633.17 -5.3265 -3.67277 0
M  V30 16773 N 1633.3 0.851265 -1.32632 0
M  V30 16774 C 1634.53 1.63805 -1.26394 0
M  V30 16775 C 1634.94 1.88056 0.167454 0
M  V30 16776 O 1634.3 1.45196 1.10564 0
M  V30 16777 C 1634.35 2.9954 -2.02381 0
M  V30 16778 O 1634.07 2.76361 -3.39935 0
M  V30 16779 C 1635.57 3.93982 -2.03207 0
M  V30 16780 H 1632.79 0.510088 -0.435948 0
M  V30 16781 H 1635.34 1.06123 -1.74809 0
M  V30 16782 H 1633.49 3.53859 -1.5768 0
M  V30 16783 H 1633.91 3.62708 -3.78871 0
M  V30 16784 H 1635.38 4.86478 -2.60851 0
M  V30 16785 H 1635.86 4.27211 -1.01918 0
M  V30 16786 H 1636.46 3.45601 -2.47871 0
M  V30 16787 N 1634.78 1.15898 1.06796 0
M  V30 16788 C 1636.02 0.94871 1.7992 0
M  V30 16789 C 1636.38 -0.518297 1.85287 0
M  V30 16790 O 1635.67 -1.37946 1.32972 0
M  V30 16791 C 1635.87 1.50368 3.24229 0
M  V30 16792 C 1635.7 3.02311 3.32923 0
M  V30 16793 C 1634.47 3.70908 3.43155 0
M  V30 16794 C 1636.66 4.00051 3.23209 0
M  V30 16795 N 1634.65 5.10609 3.4081 0
M  V30 16796 C 1636.02 5.26103 3.28048 0
M  V30 16797 C 1638.07 3.91944 3.07058 0
M  V30 16798 C 1636.77 6.44993 3.18397 0
M  V30 16799 C 1638.8 5.10398 2.98743 0
M  V30 16800 C 1638.16 6.35328 3.042 0
M  V30 16801 H 1634.26 0.400877 0.671433 0
M  V30 16802 H 1636.85 1.47202 1.27436 0
M  V30 16803 H 1635.02 1.00693 3.75121 0
M  V30 16804 H 1636.75 1.23166 3.85502 0
M  V30 16805 H 1633.5 3.21521 3.47737 0
M  V30 16806 H 1633.93 5.83589 3.43151 0
M  V30 16807 H 1638.57 2.96216 3.01688 0
M  V30 16808 H 1636.29 7.40948 3.22524 0
M  V30 16809 H 1639.87 5.05891 2.87342 0
M  V30 16810 H 1638.75 7.25448 2.97818 0
M  V30 16811 N 1636.26 -1.25243 0.956659 0
M  V30 16812 C 1637.48 -1.97082 0.629791 0
M  V30 16813 C 1637.9 -1.71082 -0.798529 0
M  V30 16814 O 1637.26 -0.98805 -1.5344 0
M  V30 16815 C 1637.31 -3.5059 0.881406 0
M  V30 16816 O 1637.03 -3.75694 2.25356 0
M  V30 16817 C 1638.53 -4.39656 0.567203 0
M  V30 16818 H 1635.75 -0.628152 0.235938 0
M  V30 16819 H 1638.29 -1.5936 1.28159 0
M  V30 16820 H 1636.45 -3.86416 0.27599 0
M  V30 16821 H 1636.86 -4.70142 2.32523 0
M  V30 16822 H 1638.34 -5.46263 0.793785 0
M  V30 16823 H 1638.81 -4.36364 -0.498287 0
M  V30 16824 H 1639.42 -4.094 1.15203 0
M  V30 16825 N 1637.73 -0.725468 -1.3991 0
M  V30 16826 C 1639.15 -0.340415 -1.8357 0
M  V30 16827 C 1639.5 1.1266 -1.6063 0
M  V30 16828 O 1638.62 1.86804 -1.0924 0
M  V30 16829 C 1639.22 -0.611079 -3.33244 0
M  V30 16830 C 1637.78 -0.279627 -3.7536 0
M  V30 16831 C 1636.92 -0.878498 -2.63017 0
M  V30 16832 H 1639.87 -0.923856 -1.29037 0
M  V30 16833 H 1639.89 0.120377 -3.8031 0
M  V30 16834 H 1639.41 -1.67886 -3.49908 0
M  V30 16835 H 1637.51 0.782703 -3.64286 0
M  V30 16836 H 1637.62 -0.755528 -4.73105 0
M  V30 16837 H 1635.98 -0.305813 -2.52857 0
M  V30 16838 H 1636.77 -1.95075 -2.8249 0
M  V30 16839 N 1639.21 1.50354 -0.472382 0
M  V30 16840 C 1640.18 2.27096 0.30981 0
M  V30 16841 C 1641.18 1.3193 0.919306 0
M  V30 16842 O 1642.37 1.55344 0.788284 0
M  V30 16843 C 1639.5 3.08924 1.44149 0
M  V30 16844 H 1640.69 2.97692 -0.363228 0
M  V30 16845 H 1638.24 1.5465 -0.226483 0
M  V30 16846 H 1638.98 2.42828 2.14954 0
M  V30 16847 H 1638.76 3.78862 1.01023 0
M  V30 16848 H 1640.25 3.66961 1.99323 0
M  V30 16849 N 1640.69 0.205039 1.56261 0
M  V30 16850 C 1642.1 -0.305792 1.84179 0
M  V30 16851 C 1642.45 -1.60672 1.126 0
M  V30 16852 O 1641.58 -2.12855 0.390118 0
M  V30 16853 C 1642.17 -0.561596 3.34113 0
M  V30 16854 C 1640.73 -1.01677 3.62407 0
M  V30 16855 C 1639.88 -0.0707844 2.7721 0
M  V30 16856 H 1642.83 0.428609 1.52803 0
M  V30 16857 H 1642.85 -1.40969 3.53423 0
M  V30 16858 H 1642.36 0.38541 3.86182 0
M  V30 16859 H 1640.46 -1.97771 3.1578 0
M  V30 16860 H 1640.58 -0.902607 4.70521 0
M  V30 16861 H 1638.94 -0.574529 2.48136 0
M  V30 16862 H 1639.72 0.870844 3.32071 0
M  V30 16863 N 1642.17 -1.57451 -0.0684915 0
M  V30 16864 C 1643.59 -1.53883 -0.423354 0
M  V30 16865 C 1643.79 -0.925698 -1.78978 0
M  V30 16866 O 1642.84 -0.529629 -2.46883 0
M  V30 16867 C 1644.15 -2.98521 -0.361386 0
M  V30 16868 C 1645.7 -3.09873 -0.441334 0
M  V30 16869 C 1646.18 -4.56168 -0.409239 0
M  V30 16870 N 1647.67 -4.60817 -0.469216 0
M  V30 16871 C 1648.4 -5.71498 -0.466648 0
M  V30 16872 N 1647.9 -6.91534 -0.4187 0
M  V30 16873 N 1649.69 -5.5975 -0.513452 0
M  V30 16874 H 1641.84 -1.95672 0.8262 0
M  V30 16875 H 1644.11 -0.895759 0.310354 0
M  V30 16876 H 1643.81 -3.46951 0.576035 0
M  V30 16877 H 1643.69 -3.58585 -1.17032 0
M  V30 16878 H 1646.07 -2.61414 -1.36918 0
M  V30 16879 H 1646.15 -2.52712 0.396237 0
M  V30 16880 H 1645.8 -5.05285 0.514772 0
M  V30 16881 H 1645.73 -5.11195 -1.26439 0
M  V30 16882 H 1648.22 -3.74438 -0.510387 0
M  V30 16883 H 1648.53 -7.71654 -0.420757 0
M  V30 16884 H 1646.88 -6.93931 -0.385338 0
M  V30 16885 H 1650.07 -4.64874 -0.548626 0
M  V30 16886 H 1650.24 -6.46006 -0.507982 0
M  V30 16887 N 1643.65 0.339955 -1.5389 0
M  V30 16888 C 1644.9 1.07723 -1.70524 0
M  V30 16889 C 1645.21 1.89693 -0.477058 0
M  V30 16890 O 1646.42 2.66387 -0.524424 0
M  V30 16891 C 1644.87 1.96455 -3.01551 0
M  V30 16892 C 1644.48 1.19675 -4.3172 0
M  V30 16893 C 1646.22 2.70019 -3.27552 0
M  V30 16894 C 1644.13 2.07458 -5.53819 0
M  V30 16895 H 1643.06 0.405877 -0.635437 0
M  V30 16896 H 1645.71 0.336489 -1.80388 0
M  V30 16897 H 1644.09 2.74364 -2.85553 0
M  V30 16898 H 1645.27 0.466526 -4.58432 0
M  V30 16899 H 1643.58 0.578651 -4.1236 0
M  V30 16900 H 1646.18 3.35973 -4.15964 0
M  V30 16901 H 1646.52 3.36779 -2.44716 0
M  V30 16902 H 1647.06 1.99182 -3.44342 0
M  V30 16903 H 1643.79 1.45234 -6.39208 0
M  V30 16904 H 1643.31 2.7826 -5.31349 0
M  V30 16905 H 1644.99 2.66428 -5.89598 0
M  V30 16906 N 1645.13 1.45684 0.601159 0
M  V30 16907 C 1646.37 1.4974 1.35729 0
M  V30 16908 C 1646.69 0.143072 1.94474 0
M  V30 16909 O 1645.96 -0.82832 1.77527 0
M  V30 16910 H 1644.54 0.551455 0.503892 0
M  V30 16911 H 1647.21 1.81685 0.705443 0
M  V30 16912 H 1646.3 2.23982 2.17344 0
M  V30 16913 N 1646.6 -0.84422 1.33082 0
M  V30 16914 C 1647.85 -1.59912 1.24235 0
M  V30 16915 C 1648.18 -1.93538 -0.193223 0
M  V30 16916 O 1647.43 -1.58418 -1.14901 0
M  V30 16917 C 1647.73 -2.92225 2.05765 0
M  V30 16918 C 1647.4 -2.77985 3.55014 0
M  V30 16919 C 1646.06 -2.73809 3.95705 0
M  V30 16920 C 1648.41 -2.63171 4.49878 0
M  V30 16921 C 1645.74 -2.5271 5.29485 0
M  V30 16922 C 1648.09 -2.43607 5.83814 0
M  V30 16923 C 1646.76 -2.37829 6.23693 0
M  V30 16924 H 1646.03 -0.58516 0.454608 0
M  V30 16925 H 1648.67 -0.978493 1.64614 0
M  V30 16926 H 1646.98 -3.58465 1.58146 0
M  V30 16927 H 1648.68 -3.49678 1.96281 0
M  V30 16928 H 1645.27 -2.82065 3.22703 0
M  V30 16929 H 1649.45 -2.65435 4.19354 0
M  V30 16930 H 1644.71 -2.4668 5.59427 0
M  V30 16931 H 1648.88 -2.31126 6.56927 0
M  V30 16932 H 1646.51 -2.21241 7.27294 0
M  V30 16933 N 1648.08 -1.16463 -1.0618 0
M  V30 16934 C 1649.03 -0.87224 -2.13683 0
M  V30 16935 C 1650 0.179784 -1.65124 0
M  V30 16936 O 1651.18 0.0447406 -1.90748 0
M  V30 16937 C 1648.32 -0.380728 -3.42993 0
M  V30 16938 C 1647.44 -1.49571 -4.05281 0
M  V30 16939 C 1646.57 -0.959099 -5.2247 0
M  V30 16940 C 1645.61 -2.05021 -5.76743 0
M  V30 16941 N 1644.75 -1.5291 -6.85247 0
M  V30 16942 H 1649.59 -1.79288 -2.38033 0
M  V30 16943 H 1647.12 -0.894379 -1.16787 0
M  V30 16944 H 1649.08 -0.0773816 -4.17128 0
M  V30 16945 H 1647.71 0.502966 -3.18857 0
M  V30 16946 H 1646.76 -1.915 -3.28682 0
M  V30 16947 H 1648.08 -2.31904 -4.41613 0
M  V30 16948 H 1647.23 -0.609003 -6.03636 0
M  V30 16949 H 1645.97 -0.105086 -4.87587 0
M  V30 16950 H 1644.97 -2.40899 -4.94214 0
M  V30 16951 H 1646.2 -2.90821 -6.13678 0
M  V30 16952 H 1644.15 -0.697639 -6.5228 0
M  V30 16953 H 1644.06 -2.28859 -7.20527 0
M  V30 16954 H 1645.33 -1.20762 -7.70089 0
M  V30 16955 N 1649.56 1.24734 -0.963288 0
M  V30 16956 C 1650.49 2.27892 -0.508667 0
M  V30 16957 C 1651.47 1.64055 0.449438 0
M  V30 16958 O 1652.66 1.91083 0.346519 0
M  V30 16959 C 1649.79 3.46688 0.206157 0
M  V30 16960 C 1648.74 4.22762 -0.667534 0
M  V30 16961 C 1648.07 5.34402 0.178529 0
M  V30 16962 C 1649.37 4.84535 -1.94995 0
M  V30 16963 H 1651.06 2.66171 -1.37088 0
M  V30 16964 H 1648.61 1.27952 -0.660622 0
M  V30 16965 H 1650.56 4.17985 0.535391 0
M  V30 16966 H 1649.28 3.07422 1.10269 0
M  V30 16967 H 1647.94 3.53259 -0.979976 0
M  V30 16968 H 1647.59 4.91377 1.07508 0
M  V30 16969 H 1647.29 5.86218 -0.402808 0
M  V30 16970 H 1648.81 6.08529 0.502533 0
M  V30 16971 H 1650.23 5.4793 -1.68658 0
M  V30 16972 H 1648.62 5.46564 -2.47765 0
M  V30 16973 H 1649.69 4.06236 -2.64765 0
M  V30 16974 N 1651.04 0.732878 1.39523 0
M  V30 16975 C 1652.29 0.279338 2.0016 0
M  V30 16976 C 1652.61 -1.13673 1.58441 0
M  V30 16977 O 1651.88 -1.77369 0.831681 0
M  V30 16978 H 1650.46 0.100288 0.740237 0
M  V30 16979 H 1653.12 0.942363 1.70603 0
M  V30 16980 H 1652.21 0.326053 3.10392 0
M  V30 16981 N 1652.52 -1.50101 0.480349 0
M  V30 16982 C 1653.76 -2.02674 -0.0715373 0
M  V30 16983 C 1654.09 -1.36095 -1.38535 0
M  V30 16984 O 1653.37 -0.489703 -1.88234 0
M  V30 16985 C 1653.65 -3.59261 -0.245693 0
M  V30 16986 C 1653.51 -4.36399 1.08979 0
M  V30 16987 C 1654.82 -4.28682 -0.995966 0
M  V30 16988 H 1651.94 -0.736592 -0.0245244 0
M  V30 16989 H 1654.59 -1.7933 0.627743 0
M  V30 16990 H 1652.74 -3.79281 -0.841308 0
M  V30 16991 H 1654.41 -4.27926 1.72269 0
M  V30 16992 H 1652.65 -3.99773 1.68417 0
M  V30 16993 H 1653.32 -5.44254 0.921468 0
M  V30 16994 H 1655.8 -4.13193 -0.491025 0
M  V30 16995 H 1654.67 -5.38037 -1.08663 0
M  V30 16996 H 1654.93 -3.92491 -2.03479 0
M  V30 16997 N 1653.99 -0.213323 -1.5615 0
M  V30 16998 C 1655.41 0.142215 -1.58965 0
M  V30 16999 C 1655.61 1.59606 -1.22996 0
M  V30 17000 O 1654.67 2.33485 -0.961308 0
M  V30 17001 C 1655.98 -0.176632 -3.00181 0
M  V30 17002 C 1657.53 -0.118205 -3.12777 0
M  V30 17003 C 1658 -0.410614 -4.56156 0
M  V30 17004 N 1659.49 -0.359887 -4.618 0
M  V30 17005 C 1660.23 -0.559744 -5.70661 0
M  V30 17006 N 1659.72 -0.820934 -6.87919 0
M  V30 17007 N 1661.52 -0.492746 -5.59936 0
M  V30 17008 H 1653.67 -1.16182 -1.77807 0
M  V30 17009 H 1655.93 -0.465086 -0.826075 0
M  V30 17010 H 1655.64 -1.18538 -3.31122 0
M  V30 17011 H 1655.51 0.512256 -3.73705 0
M  V30 17012 H 1657.9 0.88117 -2.81637 0
M  V30 17013 H 1657.98 -0.840446 -2.41599 0
M  V30 17014 H 1657.62 -1.40739 -4.88011 0
M  V30 17015 H 1657.55 0.332725 -5.25548 0
M  V30 17016 H 1660.04 -0.16537 -3.77538 0
M  V30 17017 H 1660.36 -0.961755 -7.66792 0
M  V30 17018 H 1658.7 -0.858036 -6.89683 0
M  V30 17019 H 1661.89 -0.288981 -4.67207 0
M  V30 17020 H 1662.07 -0.651912 -6.44712 0
M  V30 17021 N 1655.47 1.57485 0.0601405 0
M  V30 17022 C 1656.88 1.76433 0.610583 0
M  V30 17023 C 1657.23 0.840353 1.77292 0
M  V30 17024 O 1656.36 0.0273238 2.16383 0
M  V30 17025 C 1656.95 3.19947 1.11441 0
M  V30 17026 C 1655.51 3.402 1.61062 0
M  V30 17027 C 1654.66 2.72089 0.535055 0
M  V30 17028 H 1657.61 1.57829 -0.166062 0
M  V30 17029 H 1657.63 3.24749 1.98288 0
M  V30 17030 H 1657.14 3.87172 0.268233 0
M  V30 17031 H 1655.25 2.78106 2.47967 0
M  V30 17032 H 1655.36 4.48696 1.67954 0
M  V30 17033 H 1653.72 2.34972 0.982855 0
M  V30 17034 H 1654.51 3.41977 -0.301135 0
M  V30 17035 N 1656.95 -0.331789 1.54068 0
M  V30 17036 C 1658.18 -1.09484 1.76148 0
M  V30 17037 C 1658.6 -1.81201 0.504772 0
M  V30 17038 O 1657.96 -1.7297 -0.54325 0
M  V30 17039 C 1658.01 -2.07495 2.94921 0
M  V30 17040 O 1657.11 -3.15239 2.65891 0
M  V30 17041 H 1656.45 -0.316071 0.583948 0
M  V30 17042 H 1658.98 -0.378593 2.01067 0
M  V30 17043 H 1658.99 -2.5051 3.22038 0
M  V30 17044 H 1657.67 -1.54696 3.8606 0
M  V30 17045 H 1656.24 -2.76958 2.49697 0
M  V30 17046 N 1658.43 -1.46001 -0.593424 0
M  V30 17047 C 1659.36 -1.51774 -1.71748 0
M  V30 17048 C 1660.37 -0.407093 -1.57628 0
M  V30 17049 O 1661.56 -0.674903 -1.65249 0
M  V30 17050 C 1658.66 -1.3718 -3.09895 0
M  V30 17051 C 1657.84 -2.62173 -3.5012 0
M  V30 17052 C 1656.89 -2.41933 -4.67285 0
M  V30 17053 O 1655.92 -3.15611 -4.73686 0
M  V30 17054 N 1657.12 -1.47405 -5.61473 0
M  V30 17055 H 1659.89 -2.48689 -1.67253 0
M  V30 17056 H 1657.45 -1.41921 -0.779111 0
M  V30 17057 H 1659.44 -1.21428 -3.86054 0
M  V30 17058 H 1658.01 -0.484876 -3.08817 0
M  V30 17059 H 1657.23 -2.92943 -2.63777 0
M  V30 17060 H 1658.52 -3.45229 -3.73758 0
M  V30 17061 H 1657.92 -0.866282 -5.59028 0
M  V30 17062 H 1656.47 -1.3762 -6.37106 0
M  V30 17063 N 1659.91 0.83715 -1.33527 0
M  V30 17064 C 1661.15 1.58937 -1.24834 0
M  V30 17065 C 1661.48 1.94117 0.185368 0
M  V30 17066 O 1660.75 1.61105 1.11453 0
M  V30 17067 H 1659.33 0.589301 -0.459057 0
M  V30 17068 H 1661.99 1.00038 -1.67267 0
M  V30 17069 H 1661.08 2.51855 -1.84325 0
M  V30 17070 N 1661.38 1.17024 1.05561 0
M  V30 17071 C 1662.63 0.954436 1.78143 0
M  V30 17072 C 1662.95 -0.518525 1.8798 0
M  V30 17073 O 1662.22 -1.37654 1.39385 0
M  V30 17074 H 1660.8 0.350141 0.659856 0
M  V30 17075 H 1663.47 1.4743 1.27477 0
M  V30 17076 H 1662.56 1.37955 2.79955 0
M  V30 17077 N 1662.86 -1.24221 0.969889 0
M  V30 17078 C 1663.77 -2.29001 0.509467 0
M  V30 17079 C 1664.79 -1.68587 -0.430637 0
M  V30 17080 O 1665.96 -1.99106 -0.303142 0
M  V30 17081 C 1663.03 -3.46174 -0.190906 0
M  V30 17082 C 1662.09 -4.21982 0.789296 0
M  V30 17083 C 1661.32 -5.3356 0.122252 0
M  V30 17084 O 1661.55 -5.59909 -1.08896 0
M  V30 17085 O 1660.48 -5.9635 0.815517 0
M  V30 17086 H 1664.31 -2.70506 1.38058 0
M  V30 17087 H 1661.89 -1.29955 0.737028 0
M  V30 17088 H 1663.77 -4.1733 -0.584244 0
M  V30 17089 H 1662.45 -3.06642 -1.03695 0
M  V30 17090 H 1661.36 -3.53192 1.23313 0
M  V30 17091 H 1662.69 -4.65337 1.60382 0
M  V30 17092 N 1664.34 -0.740267 -1.39132 0
M  V30 17093 C 1665.3 -0.112183 -2.28925 0
M  V30 17094 C 1666.3 0.661598 -1.46559 0
M  V30 17095 O 1667.49 0.489835 -1.67171 0
M  V30 17096 C 1664.63 0.850121 -3.3013 0
M  V30 17097 H 1665.82 -0.903339 -2.85972 0
M  V30 17098 H 1663.37 -0.506427 -1.47868 0
M  V30 17099 H 1664.11 1.66744 -2.78149 0
M  V30 17100 H 1663.89 0.297847 -3.90967 0
M  V30 17101 H 1665.38 1.28599 -3.97306 0
M  V30 17102 N 1665.82 1.49844 -0.488302 0
M  V30 17103 C 1667.23 1.86663 -0.037377 0
M  V30 17104 C 1667.58 1.40172 1.37281 0
M  V30 17105 O 1666.71 0.77409 2.02081 0
M  V30 17106 C 1667.3 3.38745 -0.0610523 0
M  V30 17107 C 1665.86 3.74911 0.334475 0
M  V30 17108 C 1665.01 2.73801 -0.439109 0
M  V30 17109 H 1667.96 1.42343 -0.70173 0
M  V30 17110 H 1667.98 3.7329 0.737203 0
M  V30 17111 H 1667.49 3.72551 -1.08753 0
M  V30 17112 H 1665.59 3.4671 1.36466 0
M  V30 17113 H 1665.7 4.79094 0.0238536 0
M  V30 17114 H 1664.07 2.54465 0.109433 0
M  V30 17115 H 1664.85 3.10452 -1.46542 0
M  V30 17116 N 1667.3 0.221601 1.56034 0
M  V30 17117 C 1668.71 -0.133783 1.59038 0
M  V30 17118 C 1668.91 -1.58952 1.23841 0
M  V30 17119 O 1667.97 -2.32972 0.973677 0
M  V30 17120 C 1669.28 0.192549 3.00083 0
M  V30 17121 C 1670.83 0.134791 3.1271 0
M  V30 17122 C 1671.3 0.434799 4.55931 0
M  V30 17123 N 1672.8 0.384372 4.61602 0
M  V30 17124 C 1673.53 0.59 5.70357 0
M  V30 17125 N 1673.03 0.857405 6.87474 0
M  V30 17126 N 1674.82 0.522433 5.59667 0
M  V30 17127 H 1666.97 1.17124 1.77189 0
M  V30 17128 H 1669.23 0.46946 0.823597 0
M  V30 17129 H 1668.94 1.20292 3.30488 0
M  V30 17130 H 1668.81 -0.49243 3.73972 0
M  V30 17131 H 1671.2 -0.866221 2.821 0
M  V30 17132 H 1671.28 0.853247 2.4115 0
M  V30 17133 H 1670.93 1.43325 4.87258 0
M  V30 17134 H 1670.86 -0.304849 5.25717 0
M  V30 17135 H 1673.35 0.185389 3.77445 0
M  V30 17136 H 1673.66 1.00241 7.66271 0
M  V30 17137 H 1672 0.894599 6.89218 0
M  V30 17138 H 1675.2 0.313754 4.67047 0
M  V30 17139 H 1675.37 0.686094 6.44358 0
M  V30 17140 N 1668.77 -1.57515 -0.0517878 0
M  V30 17141 C 1669.68 -2.08427 -1.07681 0
M  V30 17142 C 1670.7 -1.01797 -1.41115 0
M  V30 17143 O 1671.88 -1.33394 -1.50891 0
M  V30 17144 C 1668.94 -2.53472 -2.36544 0
M  V30 17145 C 1668 -3.74488 -2.09899 0
M  V30 17146 C 1667.24 -4.17374 -3.32618 0
M  V30 17147 O 1667.46 -3.59962 -4.42475 0
M  V30 17148 O 1666.39 -5.10006 -3.19653 0
M  V30 17149 H 1670.22 -2.96122 -0.674217 0
M  V30 17150 H 1667.8 -1.4699 -0.267274 0
M  V30 17151 H 1669.69 -2.82876 -3.12345 0
M  V30 17152 H 1668.36 -1.68899 -2.76143 0
M  V30 17153 H 1667.27 -3.50137 -1.31739 0
M  V30 17154 H 1668.6 -4.59975 -1.75169 0
M  V30 17155 N 1670.25 0.323614 -1.54242 0
M  V30 17156 C 1671.5 1.06314 -1.727 0
M  V30 17157 C 1671.83 1.87674 -0.499225 0
M  V30 17158 O 1671.11 1.87862 0.503805 0
M  V30 17159 C 1671.39 1.9879 -3.00258 0
M  V30 17160 C 1671.24 1.2076 -4.33286 0
M  V30 17161 C 1672.56 2.98314 -3.23569 0
M  V30 17162 H 1669.68 0.385101 -0.628384 0
M  V30 17163 H 1672.32 0.339801 -1.86937 0
M  V30 17164 H 1670.47 2.60468 -2.88251 0
M  V30 17165 H 1672.15 0.615425 -4.57176 0
M  V30 17166 H 1670.39 0.509878 -4.30793 0
M  V30 17167 H 1671.06 1.88662 -5.18759 0
M  V30 17168 H 1673.54 2.46757 -3.35037 0
M  V30 17169 H 1672.41 3.60204 -4.14179 0
M  V30 17170 H 1672.67 3.7077 -2.40795 0
M  V30 17171 N 1671.73 1.46313 0.585673 0
M  V30 17172 C 1672.96 1.55035 1.3701 0
M  V30 17173 C 1673.37 0.190444 1.87837 0
M  V30 17174 O 1672.73 -0.81177 1.63452 0
M  V30 17175 C 1672.78 2.55272 2.55965 0
M  V30 17176 O 1672.5 3.85981 2.07245 0
M  V30 17177 C 1674 2.73906 3.48555 0
M  V30 17178 H 1671.22 0.524377 0.418653 0
M  V30 17179 H 1673.77 1.91695 0.712267 0
M  V30 17180 H 1671.92 2.21625 3.17744 0
M  V30 17181 H 1672.34 4.40512 2.84692 0
M  V30 17182 H 1673.81 3.4797 4.2851 0
M  V30 17183 H 1674.29 1.80708 4.00301 0
M  V30 17184 H 1674.89 3.08638 2.92614 0
M  V30 17185 N 1673.21 -0.830057 1.33969 0
M  V30 17186 C 1674.43 -1.62294 1.29133 0
M  V30 17187 C 1674.86 -1.87627 -0.133253 0
M  V30 17188 O 1674.22 -1.44669 -1.09272 0
M  V30 17189 C 1674.27 -2.94508 2.0808 0
M  V30 17190 O 1673.37 -3.86239 1.44544 0
M  V30 17191 H 1672.71 -0.493865 0.443839 0
M  V30 17192 H 1675.24 -1.03202 1.76665 0
M  V30 17193 H 1675.25 -3.44133 2.19173 0
M  V30 17194 H 1673.93 -2.75392 3.1166 0
M  V30 17195 H 1672.5 -3.44743 1.42151 0
M  V30 17196 N 1674.69 -1.17582 -1.04939 0
M  V30 17197 C 1675.96 -0.875638 -1.74906 0
M  V30 17198 C 1676.34 0.62353 -2.01681 0
M  V30 17199 O 1675.69 1.57558 -1.65492 0
M  V30 17200 C 1675.9 -1.71334 -3.04049 0
M  V30 17201 C 1677.25 -1.93489 -3.77951 0
M  V30 17202 O 1678.27 -1.68314 -3.13925 0
M  V30 17203 O 1677.13 -2.35815 -4.93005 0
M  V30 17204 H 1674.23 -0.324451 -0.760697 0
M  V30 17205 H 1676.77 -1.2829 -1.11084 0
M  V30 17206 H 1675.55 -2.73003 -2.80331 0
M  V30 17207 H 1675.17 -1.30401 -3.75608 0
M  V30 17208 N 1676.17 1.23705 -0.976463 0
M  V30 17209 C 1677.39 1.96595 -0.660697 0
M  V30 17210 C 1677.82 1.71845 0.764916 0
M  V30 17211 O 1677.17 0.987506 1.52046 0
M  V30 17212 C 1677.22 3.47803 -0.95214 0
M  V30 17213 O 1676.33 4.12378 -0.0421126 0
M  V30 17214 H 1675.67 0.615591 -0.248886 0
M  V30 17215 H 1678.2 1.57247 -1.30899 0
M  V30 17216 H 1678.21 3.98236 -0.887238 0
M  V30 17217 H 1676.88 3.65144 -1.99105 0
M  V30 17218 H 1675.46 3.72552 -0.161087 0
M  V30 17219 N 1677.64 0.747635 1.38738 0
M  V30 17220 C 1678.89 0.300552 1.99853 0
M  V30 17221 C 1679.21 -1.11986 1.59638 0
M  V30 17222 O 1678.48 -1.76477 0.850447 0
M  V30 17223 H 1677.06 0.108134 0.739132 0
M  V30 17224 H 1679.72 0.960405 1.69594 0
M  V30 17225 H 1678.82 0.358956 3.10029 0
M  V30 17226 N 1679.12 -1.49583 0.496242 0
M  V30 17227 C 1680.35 -2.07342 -0.0490986 0
M  V30 17228 C 1680.77 -1.35474 -1.30493 0
M  V30 17229 O 1680.13 -0.410005 -1.76603 0
M  V30 17230 C 1680.18 -3.59427 -0.290601 0
M  V30 17231 O 1679.28 -3.89111 -1.36626 0
M  V30 17232 H 1678.62 -0.663562 0.0241141 0
M  V30 17233 H 1681.15 -1.92452 0.6945 0
M  V30 17234 H 1681.16 -4.04627 -0.523549 0
M  V30 17235 H 1679.84 -4.11147 0.626959 0
M  V30 17236 H 1678.41 -3.55726 -1.11864 0
M  V30 17237 N 1680.6 -0.229873 -1.55915 0
M  V30 17238 C 1681.85 0.399963 -1.97695 0
M  V30 17239 C 1682.16 1.60303 -1.12081 0
M  V30 17240 O 1683.37 2.30292 -1.43797 0
M  V30 17241 C 1681.82 0.762982 -3.51719 0
M  V30 17242 C 1681.43 -0.417738 -4.46048 0
M  V30 17243 C 1683.18 1.35796 -4.02194 0
M  V30 17244 C 1681.08 -0.0318216 -5.91391 0
M  V30 17245 H 1680.01 0.153209 -0.73827 0
M  V30 17246 H 1682.66 -0.327401 -1.80556 0
M  V30 17247 H 1681.05 1.548 -3.6449 0
M  V30 17248 H 1682.22 -1.19523 -4.45029 0
M  V30 17249 H 1680.53 -0.926501 -4.05962 0
M  V30 17250 H 1683.13 1.65974 -5.08288 0
M  V30 17251 H 1683.47 2.27661 -3.48534 0
M  V30 17252 H 1684.01 0.6362 -3.9268 0
M  V30 17253 H 1680.75 -0.917176 -6.49052 0
M  V30 17254 H 1680.27 0.709811 -5.95585 0
M  V30 17255 H 1681.95 0.391966 -6.45812 0
M  V30 17256 N 1682.08 1.5754 0.0434337 0
M  V30 17257 C 1683.32 1.88887 0.7382 0
M  V30 17258 C 1683.66 0.825827 1.75766 0
M  V30 17259 O 1682.93 -0.160797 1.93834 0
M  V30 17260 C 1683.21 3.30889 1.42072 0
M  V30 17261 C 1683.07 4.47874 0.415754 0
M  V30 17262 C 1684.39 3.71571 2.35846 0
M  V30 17263 H 1681.51 0.686975 0.266897 0
M  V30 17264 H 1684.15 1.9 0.00106957 0
M  V30 17265 H 1682.3 3.30071 2.04903 0
M  V30 17266 H 1683.97 4.60824 -0.209529 0
M  V30 17267 H 1682.21 4.32982 -0.266346 0
M  V30 17268 H 1682.88 5.44084 0.931509 0
M  V30 17269 H 1685.36 3.73663 1.83071 0
M  V30 17270 H 1684.24 4.71763 2.80589 0
M  V30 17271 H 1684.5 3.03041 3.21898 0
M  V30 17272 N 1683.56 -0.31543 1.54411 0
M  V30 17273 C 1684.8 -1.05396 1.73261 0
M  V30 17274 C 1685.13 -1.87406 0.509171 0
M  V30 17275 O 1684.41 -1.88126 -0.493836 0
M  V30 17276 C 1684.69 -1.97195 3.01308 0
M  V30 17277 C 1684.55 -1.18461 4.33921 0
M  V30 17278 C 1685.86 -2.96594 3.25146 0
M  V30 17279 H 1682.98 -0.381763 0.630417 0
M  V30 17280 H 1685.63 -0.329882 1.87114 0
M  V30 17281 H 1683.78 -2.58936 2.89628 0
M  V30 17282 H 1685.45 -0.591171 4.57496 0
M  V30 17283 H 1683.69 -0.487025 4.31057 0
M  V30 17284 H 1684.36 -1.85909 5.19752 0
M  V30 17285 H 1686.84 -2.44977 3.36341 0
M  V30 17286 H 1685.71 -3.58002 4.16084 0
M  V30 17287 H 1685.97 -3.69487 2.42758 0
M  V30 17288 N 1685.03 -1.46622 -0.577906 0
M  V30 17289 C 1686.26 -1.56 -1.36671 0
M  V30 17290 C 1686.68 -0.2034 -1.86997 0
M  V30 17291 O 1686.04 0.817288 -1.61834 0
M  V30 17292 C 1686.09 -2.57254 -2.52691 0
M  V30 17293 O 1685.19 -2.1109 -3.54281 0
M  V30 17294 H 1684.54 -0.524779 -0.406821 0
M  V30 17295 H 1687.07 -1.92234 -0.700512 0
M  V30 17296 H 1687.08 -2.77016 -2.99543 0
M  V30 17297 H 1685.75 -3.55766 -2.15415 0
M  V30 17298 H 1684.33 -2.01337 -3.13875 0
M  V30 17299 N 1686.51 0.822941 -1.34408 0
M  V30 17300 C 1687.76 1.57604 -1.26513 0
M  V30 17301 C 1688.08 1.94303 0.164769 0
M  V30 17302 O 1687.35 1.62278 1.09738 0
M  V30 17303 H 1685.93 0.584399 -0.465282 0
M  V30 17304 H 1688.59 0.982582 -1.68319 0
M  V30 17305 H 1687.69 2.49886 -1.86986 0
M  V30 17306 N 1687.99 1.18137 1.04314 0
M  V30 17307 C 1688.92 0.929593 2.14198 0
M  V30 17308 C 1689.9 -0.131766 1.69589 0
M  V30 17309 O 1691.09 0.0203104 1.94189 0
M  V30 17310 C 1688.22 0.451799 3.44349 0
M  V30 17311 C 1687.17 1.45336 4.02569 0
M  V30 17312 C 1686.5 0.833176 5.28169 0
M  V30 17313 C 1687.8 2.8293 4.39031 0
M  V30 17314 H 1689.49 1.84856 2.35518 0
M  V30 17315 H 1687.04 0.890217 1.13186 0
M  V30 17316 H 1688.99 0.26303 4.20578 0
M  V30 17317 H 1687.71 -0.502725 3.22708 0
M  V30 17318 H 1686.37 1.62902 3.28418 0
M  V30 17319 H 1686.02 -0.128459 5.02836 0
M  V30 17320 H 1685.72 1.50185 5.68083 0
M  V30 17321 H 1687.24 0.654881 6.07078 0
M  V30 17322 H 1688.66 2.6903 5.06257 0
M  V30 17323 H 1687.06 3.46458 4.89987 0
M  V30 17324 H 1688.13 3.3667 3.48972 0
M  V30 17325 N 1689.47 -1.23186 0.98301 0
M  V30 17326 C 1690.7 -1.95702 0.671453 0
M  V30 17327 C 1691.11 -1.72737 -0.76206 0
M  V30 17328 O 1690.47 -1.02037 -1.5131 0
M  V30 17329 C 1690.52 -3.48642 0.955573 0
M  V30 17330 O 1690.24 -3.70829 2.33275 0
M  V30 17331 C 1691.74 -4.38354 0.660333 0
M  V30 17332 H 1688.96 -0.623006 0.249209 0
M  V30 17333 H 1691.51 -1.56606 1.3151 0
M  V30 17334 H 1689.66 -3.85743 0.357892 0
M  V30 17335 H 1690.07 -4.65104 2.42443 0
M  V30 17336 H 1691.55 -5.44456 0.909477 0
M  V30 17337 H 1692.03 -4.37323 -0.405615 0
M  V30 17338 H 1692.63 -4.06864 1.23861 0
M  V30 17339 N 1690.95 -0.754982 -1.38339 0
M  V30 17340 C 1692.36 -0.379276 -1.82807 0
M  V30 17341 C 1692.71 1.09228 -1.62984 0
M  V30 17342 O 1691.83 1.84445 -1.13177 0
M  V30 17343 C 1692.43 -0.681628 -3.31872 0
M  V30 17344 C 1690.99 -0.359183 -3.74682 0
M  V30 17345 C 1690.13 -0.93409 -2.61094 0
M  V30 17346 H 1693.09 -0.951019 -1.27048 0
M  V30 17347 H 1693.11 0.0396803 -3.80479 0
M  V30 17348 H 1692.62 -1.75271 -3.46268 0
M  V30 17349 H 1690.72 0.705257 -3.65865 0
M  V30 17350 H 1690.83 -0.85571 -4.71396 0
M  V30 17351 H 1689.2 -0.359379 -2.52152 0
M  V30 17352 H 1689.98 -2.01023 -2.78289 0
M  V30 17353 N 1692.42 1.49318 -0.504168 0
M  V30 17354 C 1693.67 2.02062 0.039149 0
M  V30 17355 C 1693.99 1.38577 1.37191 0
M  V30 17356 O 1693.26 0.542179 1.88248 0
M  V30 17357 H 1691.84 0.746796 0.0174575 0
M  V30 17358 H 1694.51 1.83308 -0.66213 0
M  V30 17359 H 1693.6 3.11656 0.166496 0
M  V30 17360 N 1693.9 0.238138 1.5579 0
M  V30 17361 C 1695.15 -0.389608 1.99022 0
M  V30 17362 C 1695.48 -1.58226 1.12597 0
M  V30 17363 O 1694.76 -1.93595 0.187363 0
M  V30 17364 C 1695.04 -0.808025 3.50917 0
M  V30 17365 C 1694.89 0.389417 4.48111 0
M  V30 17366 C 1696.21 -1.6582 4.07666 0
M  V30 17367 H 1693.33 -0.140141 0.723553 0
M  V30 17368 H 1695.97 0.337696 1.86975 0
M  V30 17369 H 1694.12 -1.42772 3.61315 0
M  V30 17370 H 1695.79 1.02777 4.49705 0
M  V30 17371 H 1694.04 1.03404 4.21296 0
M  V30 17372 H 1694.71 0.0534549 5.51974 0
M  V30 17373 H 1697.18 -1.13518 4.00316 0
M  V30 17374 H 1696.06 -1.91984 5.14231 0
M  V30 17375 H 1696.32 -2.62712 3.55577 0
M  V30 17376 N 1695.38 -1.57561 -0.0350783 0
M  V30 17377 C 1696.29 -2.09558 -1.05464 0
M  V30 17378 C 1697.31 -1.03288 -1.40027 0
M  V30 17379 O 1698.48 -1.34987 -1.49467 0
M  V30 17380 C 1695.55 -2.55966 -2.33842 0
M  V30 17381 C 1694.61 -3.76693 -2.05915 0
M  V30 17382 C 1693.84 -4.20878 -3.28172 0
M  V30 17383 O 1694.06 -3.64634 -4.38632 0
M  V30 17384 O 1693 -5.13367 -3.14225 0
M  V30 17385 H 1696.82 -2.9682 -0.642771 0
M  V30 17386 H 1694.41 -1.47265 -0.251668 0
M  V30 17387 H 1696.29 -2.86173 -3.09327 0
M  V30 17388 H 1694.97 -1.71818 -2.74336 0
M  V30 17389 H 1693.87 -3.51514 -1.28018 0
M  V30 17390 H 1695.21 -4.61807 -1.70281 0
M  V30 17391 N 1696.86 0.307236 -1.54576 0
M  V30 17392 C 1698.09 1.06079 -1.77287 0
M  V30 17393 C 1698.5 1.81643 -0.529395 0
M  V30 17394 O 1697.84 1.76474 0.510149 0
M  V30 17395 C 1697.9 2.09234 -2.92338 0
M  V30 17396 C 1697.57 1.52922 -4.30655 0
M  V30 17397 C 1698.56 0.962487 -5.10913 0
M  V30 17398 C 1696.25 1.56673 -4.77241 0
M  V30 17399 C 1698.24 0.44075 -6.35874 0
M  V30 17400 C 1695.93 1.04112 -6.02166 0
M  V30 17401 C 1696.93 0.479095 -6.81318 0
M  V30 17402 O 1696.61 -0.0385602 -8.03891 0
M  V30 17403 H 1696.35 0.320647 -0.595114 0
M  V30 17404 H 1698.9 0.353984 -2.02327 0
M  V30 17405 H 1697.13 2.83578 -2.62908 0
M  V30 17406 H 1698.82 2.70441 -3.02682 0
M  V30 17407 H 1699.59 0.926457 -4.76069 0
M  V30 17408 H 1695.46 1.99357 -4.15665 0
M  V30 17409 H 1699.01 0.00141848 -6.976 0
M  V30 17410 H 1694.91 1.07428 -6.36498 0
M  V30 17411 H 1695.67 0.0753282 -8.18465 0
M  V30 17412 N 1698.34 1.46926 0.570122 0
M  V30 17413 C 1699.58 1.53113 1.32982 0
M  V30 17414 C 1699.92 0.187401 1.93294 0
M  V30 17415 O 1699.19 -0.802585 1.77169 0
M  V30 17416 C 1699.47 2.63936 2.44969 0
M  V30 17417 C 1699.33 4.07882 1.8961 0
M  V30 17418 C 1700.65 2.70753 3.46959 0
M  V30 17419 H 1697.76 0.557398 0.482158 0
M  V30 17420 H 1700.41 1.78923 0.639259 0
M  V30 17421 H 1698.56 2.42059 3.03874 0
M  V30 17422 H 1700.23 4.41084 1.35066 0
M  V30 17423 H 1698.47 4.16768 1.20361 0
M  V30 17424 H 1699.14 4.81175 2.70508 0
M  V30 17425 H 1701.62 2.90452 2.97954 0
M  V30 17426 H 1700.49 3.50093 4.2276 0
M  V30 17427 H 1700.76 1.77299 4.04991 0
M  V30 17428 N 1699.82 -0.815801 1.34842 0
M  V30 17429 C 1701.05 -1.60164 1.30503 0
M  V30 17430 C 1701.45 -1.88809 -0.121561 0
M  V30 17431 O 1700.8 -1.48511 -1.08121 0
M  V30 17432 C 1700.86 -2.96361 2.03495 0
M  V30 17433 C 1700.52 -2.90577 3.52724 0
M  V30 17434 C 1701.52 -2.6466 4.47495 0
M  V30 17435 C 1699.2 -3.09985 3.9524 0
M  V30 17436 C 1701.2 -2.58212 5.82757 0
M  V30 17437 C 1698.89 -3.03161 5.306 0
M  V30 17438 C 1699.88 -2.77309 6.2417 0
M  V30 17439 O 1699.57 -2.70431 7.57048 0
M  V30 17440 H 1699.3 -0.504321 0.450151 0
M  V30 17441 H 1701.86 -1.02254 1.78139 0
M  V30 17442 H 1700.09 -3.56219 1.50483 0
M  V30 17443 H 1701.78 -3.57429 1.92353 0
M  V30 17444 H 1702.54 -2.49394 4.15966 0
M  V30 17445 H 1698.42 -3.2912 3.22801 0
M  V30 17446 H 1701.97 -2.37954 6.55762 0
M  V30 17447 H 1697.86 -3.17982 5.61745 0
M  V30 17448 H 1698.63 -2.86107 7.66867 0
M  V30 17449 N 1701.29 -1.18689 -1.03686 0
M  V30 17450 C 1702.52 -1.00961 -1.80595 0
M  V30 17451 C 1702.94 0.44188 -1.83556 0
M  V30 17452 O 1702.29 1.30693 -1.27379 0
M  V30 17453 C 1702.34 -1.56185 -3.26019 0
M  V30 17454 O 1702.07 -2.95652 -3.23298 0
M  V30 17455 C 1703.57 -1.43129 -4.19558 0
M  V30 17456 H 1700.79 -0.356291 -0.568593 0
M  V30 17457 H 1703.33 -1.57324 -1.3065 0
M  V30 17458 H 1701.49 -1.03989 -3.73182 0
M  V30 17459 H 1701.9 -3.21481 -4.14427 0
M  V30 17460 H 1703.37 -1.86561 -5.19518 0
M  V30 17461 H 1703.85 -0.380581 -4.37548 0
M  V30 17462 H 1704.46 -1.94416 -3.78262 0
M  V30 17463 N 1702.77 1.22662 -0.989529 0
M  V30 17464 C 1704.02 1.90632 -0.65897 0
M  V30 17465 C 1704.33 1.77942 0.812165 0
M  V30 17466 O 1705.54 2.40796 1.25417 0
M  V30 17467 C 1704 3.41763 -1.12809 0
M  V30 17468 C 1703.6 3.63097 -2.62421 0
M  V30 17469 C 1705.35 4.15454 -0.871698 0
M  V30 17470 C 1703.25 5.07911 -3.02953 0
M  V30 17471 H 1702.18 0.713847 -0.242772 0
M  V30 17472 H 1704.84 1.38942 -1.19864 0
M  V30 17473 H 1703.22 3.92616 -0.516564 0
M  V30 17474 H 1704.39 3.22751 -3.2889 0
M  V30 17475 H 1702.71 3.02733 -2.85905 0
M  V30 17476 H 1705.3 5.22181 -1.15027 0
M  V30 17477 H 1705.65 4.15856 0.192186 0
M  V30 17478 H 1706.18 3.70618 -1.44525 0
M  V30 17479 H 1702.92 5.12646 -4.08503 0
M  V30 17480 H 1702.44 5.49172 -2.41185 0
M  V30 17481 H 1704.12 5.76311 -2.94066 0
M  V30 17482 N 1704.25 0.762308 1.37937 0
M  V30 17483 C 1705.18 0.100528 2.28979 0
M  V30 17484 C 1706.19 -0.674409 1.48174 0
M  V30 17485 O 1707.38 -0.514059 1.70938 0
M  V30 17486 C 1704.48 -0.881478 3.27236 0
M  V30 17487 C 1703.66 -0.162349 4.37099 0
M  V30 17488 C 1702.72 -1.05636 5.15488 0
M  V30 17489 O 1701.74 -0.523636 5.66786 0
M  V30 17490 N 1702.94 -2.3836 5.29306 0
M  V30 17491 H 1705.71 0.882451 2.86414 0
M  V30 17492 H 1703.27 0.613839 1.49812 0
M  V30 17493 H 1705.26 -1.48278 3.76558 0
M  V30 17494 H 1703.83 -1.56443 2.70637 0
M  V30 17495 H 1703.05 0.61976 3.89298 0
M  V30 17496 H 1704.34 0.334928 5.07696 0
M  V30 17497 H 1703.74 -2.84087 4.89194 0
M  V30 17498 H 1702.29 -2.9352 5.8197 0
M  V30 17499 N 1705.73 -1.49049 0.51208 0
M  V30 17500 C 1706.97 -2.0278 -0.0285311 0
M  V30 17501 C 1707.31 -1.39003 -1.35617 0
M  V30 17502 O 1706.58 -0.52952 -1.87153 0
M  V30 17503 C 1706.86 -3.59701 -0.169433 0
M  V30 17504 C 1706.72 -4.33989 1.18211 0
M  V30 17505 C 1708.04 -4.30698 -0.904812 0
M  V30 17506 H 1705.16 -0.736946 -0.00889467 0
M  V30 17507 H 1707.8 -1.77959 0.66564 0
M  V30 17508 H 1705.95 -3.8098 -0.760667 0
M  V30 17509 H 1707.62 -4.24176 1.81307 0
M  V30 17510 H 1705.86 -3.9611 1.76859 0
M  V30 17511 H 1706.53 -5.42177 1.03671 0
M  V30 17512 H 1709.01 -4.14141 -0.40327 0
M  V30 17513 H 1707.89 -5.40221 -0.972264 0
M  V30 17514 H 1708.15 -3.96718 -1.95108 0
M  V30 17515 N 1707.21 -0.246397 -1.55662 0
M  V30 17516 C 1708.14 0.647563 -2.24341 0
M  V30 17517 C 1709.12 1.1817 -1.22352 0
M  V30 17518 O 1710.3 1.22114 -1.51003 0
M  V30 17519 C 1707.43 1.84485 -2.94249 0
M  V30 17520 C 1706.39 1.4435 -4.02923 0
M  V30 17521 C 1705.71 2.72158 -4.60255 0
M  V30 17522 C 1707.01 0.614951 -5.18667 0
M  V30 17523 H 1708.71 0.0748803 -2.99306 0
M  V30 17524 H 1706.25 0.034575 -1.43958 0
M  V30 17525 H 1708.2 2.47588 -3.40995 0
M  V30 17526 H 1706.93 2.4429 -2.16772 0
M  V30 17527 H 1705.59 0.835811 -3.56945 0
M  V30 17528 H 1705.24 3.3016 -3.79478 0
M  V30 17529 H 1704.94 2.46028 -5.33614 0
M  V30 17530 H 1706.46 3.36161 -5.09734 0
M  V30 17531 H 1707.87 1.15028 -5.61642 0
M  V30 17532 H 1706.27 0.449729 -5.98412 0
M  V30 17533 H 1707.34 -0.372943 -4.83464 0
M  V30 17534 N 1708.68 1.57577 0.026722 0
M  V30 17535 C 1710.1 1.54951 0.382406 0
M  V30 17536 C 1710.3 0.972826 1.76461 0
M  V30 17537 O 1709.36 0.5949 2.45392 0
M  V30 17538 C 1710.67 2.99374 0.282111 0
M  V30 17539 C 1712.22 3.10934 0.359022 0
M  V30 17540 C 1712.69 4.57093 0.28815 0
M  V30 17541 N 1714.18 4.61899 0.346873 0
M  V30 17542 C 1714.92 5.72534 0.314961 0
M  V30 17543 N 1714.41 6.92401 0.235205 0
M  V30 17544 N 1716.21 5.60915 0.364863 0
M  V30 17545 H 1708.36 1.93413 -0.877788 0
M  V30 17546 H 1710.62 0.887216 -0.333995 0
M  V30 17547 H 1710.33 3.45301 -0.667821 0
M  V30 17548 H 1710.2 3.61562 1.07484 0
M  V30 17549 H 1712.59 2.64953 1.29939 0
M  V30 17550 H 1712.67 2.51573 -0.4631 0
M  V30 17551 H 1712.31 5.03742 -0.648558 0
M  V30 17552 H 1712.24 5.14368 1.12841 0
M  V30 17553 H 1714.73 3.75659 0.410932 0
M  V30 17554 H 1715.05 7.72498 0.216019 0
M  V30 17555 H 1713.39 6.94709 0.201219 0
M  V30 17556 H 1716.58 4.66165 0.42518 0
M  V30 17557 H 1716.76 6.47126 0.336526 0
M  V30 17558 N 1710.16 -0.299034 1.54737 0
M  V30 17559 C 1711.44 -1.05371 1.64792 0
M  V30 17560 C 1711.82 -2.05155 0.497475 0
M  V30 17561 O 1711.17 -2.22837 -0.505573 0
M  V30 17562 C 1711.38 -1.73381 3.02886 0
M  V30 17563 C 1712.72 -2.25506 3.59767 0
M  V30 17564 O 1713.75 -1.8341 3.05351 0
M  V30 17565 O 1712.61 -3.02642 4.55049 0
M  V30 17566 H 1709.7 -0.487156 0.668287 0
M  V30 17567 H 1712.25 -0.296965 1.67081 0
M  V30 17568 H 1711.02 -1.00936 3.78058 0
M  V30 17569 H 1710.64 -2.55806 3.04383 0
M  V30 17570 N 1711.64 -1.47227 -0.562322 0
M  V30 17571 C 1712.89 -1.53286 -1.31712 0
M  V30 17572 C 1713.21 -0.194583 -1.94027 0
M  V30 17573 O 1712.48 0.780961 -1.7966 0
M  V30 17574 H 1711.06 -0.564621 -0.489094 0
M  V30 17575 H 1713.72 -1.83492 -0.657024 0
M  V30 17576 H 1712.82 -2.29665 -2.1133 0
M  V30 17577 N 1713.12 0.808639 -1.35273 0
M  V30 17578 C 1714.05 1.92839 -1.23878 0
M  V30 17579 C 1715.06 1.61987 -0.162543 0
M  V30 17580 O 1716.25 1.73593 -0.41564 0
M  V30 17581 C 1713.35 3.27158 -0.884369 0
M  V30 17582 C 1712.52 3.85931 -2.05855 0
M  V30 17583 C 1711.58 4.98652 -1.68025 0
M  V30 17584 O 1710.61 5.16188 -2.39871 0
M  V30 17585 N 1711.81 5.77363 -0.602684 0
M  V30 17586 H 1714.58 2.03141 -2.20349 0
M  V30 17587 H 1712.14 0.985956 -1.28415 0
M  V30 17588 H 1714.13 4.00033 -0.612814 0
M  V30 17589 H 1712.7 3.12599 -0.00940584 0
M  V30 17590 H 1711.92 3.05274 -2.49402 0
M  V30 17591 H 1713.21 4.21929 -2.84347 0
M  V30 17592 H 1712.61 5.657 -0.00570741 0
M  V30 17593 H 1711.16 6.50627 -0.390903 0
M  V30 17594 N 1714.6 1.19237 1.03055 0
M  V30 17595 C 1715.51 0.943876 2.14775 0
M  V30 17596 C 1716.52 -0.0955384 1.73738 0
M  V30 17597 O 1717.7 0.0887187 2.01204 0
M  V30 17598 C 1714.76 0.48402 3.43305 0
M  V30 17599 C 1713.82 1.59262 3.98665 0
M  V30 17600 C 1713.06 1.15461 5.21061 0
M  V30 17601 O 1713.28 0.0174841 5.70397 0
M  V30 17602 O 1712.21 1.95648 5.69215 0
M  V30 17603 H 1716.04 1.87894 2.38599 0
M  V30 17604 H 1713.63 0.975046 1.13195 0
M  V30 17605 H 1715.51 0.236135 4.20738 0
M  V30 17606 H 1714.18 -0.422626 3.20929 0
M  V30 17607 H 1713.09 1.89464 3.22574 0
M  V30 17608 H 1714.42 2.47576 4.25402 0
M  V30 17609 N 1716.07 -1.22136 0.99602 0
M  V30 17610 C 1717.49 -1.43072 0.707285 0
M  V30 17611 C 1717.69 -1.88163 -0.720906 0
M  V30 17612 O 1716.75 -2.03747 -1.49142 0
M  V30 17613 C 1718.06 -2.46963 1.71551 0
M  V30 17614 C 1719.61 -2.60758 1.73131 0
M  V30 17615 C 1720.08 -3.67873 2.72825 0
M  V30 17616 N 1721.57 -3.75334 2.71438 0
M  V30 17617 C 1722.31 -4.57817 3.45241 0
M  V30 17618 N 1721.8 -5.44268 4.28654 0
M  V30 17619 N 1723.6 -4.52157 3.33932 0
M  V30 17620 H 1715.75 -0.911751 1.91836 0
M  V30 17621 H 1718.01 -0.462523 0.827512 0
M  V30 17622 H 1717.72 -2.20784 2.73765 0
M  V30 17623 H 1717.59 -3.45618 1.51089 0
M  V30 17624 H 1719.98 -2.86279 0.716132 0
M  V30 17625 H 1720.06 -1.62367 1.97663 0
M  V30 17626 H 1719.7 -3.43098 3.74494 0
M  V30 17627 H 1719.63 -4.6584 2.45562 0
M  V30 17628 H 1722.12 -3.13566 2.10915 0
M  V30 17629 H 1722.44 -6.04236 4.81786 0
M  V30 17630 H 1720.78 -5.43839 4.3274 0
M  V30 17631 H 1723.97 -3.83645 2.68206 0
M  V30 17632 H 1724.15 -5.16207 3.91707 0
M  V30 17633 N 1717.55 -0.769612 -1.37531 0
M  V30 17634 C 1718.83 -0.257788 -1.93894 0
M  V30 17635 C 1719.21 1.24679 -1.70348 0
M  V30 17636 O 1718.56 2.02892 -1.05106 0
M  V30 17637 C 1718.77 -0.628857 -3.43288 0
M  V30 17638 C 1720.12 -0.597452 -4.20376 0
M  V30 17639 O 1721.14 -0.568117 -3.5164 0
M  V30 17640 O 1720 -0.622627 -5.42942 0
M  V30 17641 H 1717.09 -0.0588144 -0.824906 0
M  V30 17642 H 1719.64 -0.85082 -1.4683 0
M  V30 17643 H 1718.41 -1.66733 -3.54 0
M  V30 17644 H 1718.03 -0.00865929 -3.97599 0
M  V30 17645 N 1719.03 1.48775 -0.519977 0
M  V30 17646 C 1719.99 2.27967 0.237405 0
M  V30 17647 C 1720.99 1.34787 0.876868 0
M  V30 17648 O 1722.18 1.57773 0.738463 0
M  V30 17649 C 1719.32 3.13353 1.34248 0
M  V30 17650 H 1720.51 2.96386 -0.457753 0
M  V30 17651 H 1718.06 1.53852 -0.275569 0
M  V30 17652 H 1718.8 2.49543 2.0712 0
M  V30 17653 H 1718.58 3.81885 0.889187 0
M  V30 17654 H 1720.07 3.73116 1.87547 0
M  V30 17655 N 1720.51 0.254649 1.55529 0
M  V30 17656 C 1721.92 -0.247042 1.85058 0
M  V30 17657 C 1722.27 -1.57009 1.17655 0
M  V30 17658 O 1721.4 -2.11506 0.457638 0
M  V30 17659 C 1721.99 -0.455017 3.35731 0
M  V30 17660 C 1720.55 -0.900961 3.65458 0
M  V30 17661 C 1719.7 0.0174436 2.77295 0
M  V30 17662 H 1722.65 0.477005 1.51362 0
M  V30 17663 H 1722.67 -1.29654 3.57729 0
M  V30 17664 H 1722.18 0.508076 3.8476 0
M  V30 17665 H 1720.28 -1.87625 3.21913 0
M  V30 17666 H 1720.39 -0.752458 4.73154 0
M  V30 17667 H 1718.76 -0.495296 2.49838 0
M  V30 17668 H 1719.54 0.976049 3.29132 0
M  V30 17669 N 1721.99 -1.57589 -0.0183649 0
M  V30 17670 C 1723.24 -1.88937 -0.706105 0
M  V30 17671 C 1723.55 -0.854565 -1.75945 0
M  V30 17672 O 1724.75 -1.05763 -2.50053 0
M  V30 17673 C 1723.21 -3.35329 -1.307 0
M  V30 17674 C 1722.82 -4.47064 -0.289444 0
M  V30 17675 C 1724.56 -3.75811 -1.97399 0
M  V30 17676 C 1722.47 -5.84523 -0.899288 0
M  V30 17677 H 1721.4 -0.704959 -0.267486 0
M  V30 17678 H 1724.05 -1.83458 0.0391685 0
M  V30 17679 H 1722.43 -3.35586 -2.10233 0
M  V30 17680 H 1723.61 -4.58294 0.479958 0
M  V30 17681 H 1721.92 -4.15484 0.276066 0
M  V30 17682 H 1724.52 -4.75834 -2.43898 0
M  V30 17683 H 1724.86 -3.08362 -2.79676 0
M  V30 17684 H 1725.39 -3.77774 -1.24626 0
M  V30 17685 H 1722.13 -6.55398 -0.11571 0
M  V30 17686 H 1721.65 -5.76993 -1.63828 0
M  V30 17687 H 1723.33 -6.31595 -1.40344 0
M  V30 17688 N 1723.46 0.290824 -1.54893 0
M  V30 17689 C 1724.71 1.02627 -1.74916 0
M  V30 17690 C 1725.04 1.86572 -0.538921 0
M  V30 17691 O 1724.32 1.88888 0.463844 0
M  V30 17692 C 1724.6 1.92376 -3.04407 0
M  V30 17693 C 1724.45 1.11542 -4.3575 0
M  V30 17694 C 1725.77 2.91383 -3.29824 0
M  V30 17695 H 1722.89 0.371685 -0.636411 0
M  V30 17696 H 1725.53 0.300072 -1.87615 0
M  V30 17697 H 1723.68 2.54295 -2.93711 0
M  V30 17698 H 1725.36 0.518312 -4.58379 0
M  V30 17699 H 1723.6 0.418386 -4.31778 0
M  V30 17700 H 1724.27 1.77616 -5.22644 0
M  V30 17701 H 1726.75 2.39595 -3.40196 0
M  V30 17702 H 1725.62 3.51338 -4.21726 0
M  V30 17703 H 1725.88 3.65579 -2.48606 0
M  V30 17704 N 1724.94 1.47523 0.554506 0
M  V30 17705 C 1725.89 1.60623 1.68235 0
M  V30 17706 C 1726.88 0.473445 1.6265 0
M  V30 17707 O 1728.09 0.651337 1.67802 0
M  V30 17708 H 1724.47 0.505539 0.556718 0
M  V30 17709 H 1726.44 2.55395 1.54323 0
M  V30 17710 C 1725.19 1.64022 3.06581 0
M  V30 17711 H 1724.51 2.50537 3.11562 0
M  V30 17712 H 1725.95 1.77237 3.85179 0
M  V30 17713 C 1724.41 0.374048 3.34817 0
M  V30 17714 O 1724.94 -0.523704 3.98272 0
M  V30 17715 N 1723.14 0.253244 2.89494 0
M  V30 17716 H 1722.69 0.984738 2.38035 0
M  V30 17717 H 1722.65 -0.592982 3.08757 0
M  V30 17718 N 1726.42 -0.801453 1.357 0
M  V30 17719 C 1727.37 -1.91355 1.29043 0
M  V30 17720 C 1728.34 -1.65314 0.161381 0
M  V30 17721 O 1729.52 -1.87638 0.345928 0
M  V30 17722 C 1726.66 -3.27979 1.07348 0
M  V30 17723 C 1725.78 -3.66172 2.29221 0
M  V30 17724 C 1724.91 -4.91853 2.00635 0
M  V30 17725 C 1723.95 -5.22688 3.18533 0
M  V30 17726 N 1723.09 -6.3955 2.8969 0
M  V30 17727 H 1727.93 -1.96381 2.24139 0
M  V30 17728 H 1725.46 -0.960502 1.11413 0
M  V30 17729 H 1727.42 -4.06748 0.928002 0
M  V30 17730 H 1726.05 -3.22408 0.159115 0
M  V30 17731 H 1725.1 -2.82623 2.54615 0
M  V30 17732 H 1726.42 -3.84916 3.1724 0
M  V30 17733 H 1725.57 -5.78459 1.82947 0
M  V30 17734 H 1724.31 -4.75154 1.09908 0
M  V30 17735 H 1723.31 -4.34569 3.36793 0
M  V30 17736 H 1724.54 -5.41313 4.10069 0
M  V30 17737 H 1722.48 -6.24266 2.01562 0
M  V30 17738 H 1722.4 -6.58569 3.71245 0
M  V30 17739 H 1723.67 -7.29171 2.75555 0
M  V30 17740 N 1727.9 -1.19782 -1.02421 0
M  V30 17741 C 1729.14 -1.0048 -1.76158 0
M  V30 17742 C 1729.48 0.46281 -1.88605 0
M  V30 17743 O 1728.75 1.34366 -1.40628 0
M  V30 17744 C 1729.04 -1.67999 -3.1851 0
M  V30 17745 C 1728.89 -3.22155 -3.13905 0
M  V30 17746 C 1730.21 -1.40681 -4.17009 0
M  V30 17747 H 1727.33 -0.366436 -0.639448 0
M  V30 17748 H 1729.97 -1.47688 -1.19534 0
M  V30 17749 H 1728.12 -1.27862 -3.66856 0
M  V30 17750 H 1729.79 -3.71536 -2.7342 0
M  V30 17751 H 1728.03 -3.53456 -2.51498 0
M  V30 17752 H 1728.7 -3.64548 -4.14498 0
M  V30 17753 H 1731.18 -1.75488 -3.77284 0
M  V30 17754 H 1730.06 -1.90467 -5.14795 0
M  V30 17755 H 1730.32 -0.332889 -4.40845 0
M  V30 17756 N 1729.38 1.21606 -1.00248 0
M  V30 17757 C 1730.62 1.9089 -0.684765 0
M  V30 17758 C 1730.96 1.77749 0.78224 0
M  V30 17759 O 1730.23 1.15251 1.56676 0
M  V30 17760 C 1730.51 3.42778 -1.1034 0
M  V30 17761 C 1730.37 3.64923 -2.62967 0
M  V30 17762 C 1731.69 4.35064 -0.663877 0
M  V30 17763 H 1728.81 0.693217 -0.250239 0
M  V30 17764 H 1731.45 1.4329 -1.24772 0
M  V30 17765 H 1729.6 3.83449 -0.624415 0
M  V30 17766 H 1731.27 3.33595 -3.18609 0
M  V30 17767 H 1729.51 3.08874 -3.04596 0
M  V30 17768 H 1730.18 4.71335 -2.87311 0
M  V30 17769 H 1732.66 4.01962 -1.07544 0
M  V30 17770 H 1731.54 5.3999 -0.984987 0
M  V30 17771 H 1731.8 4.39954 0.435095 0
M  V30 17772 N 1730.86 0.776895 1.37121 0
M  V30 17773 C 1732.08 0.355097 2.0383 0
M  V30 17774 C 1732.5 -1.02441 1.58591 0
M  V30 17775 O 1731.86 -1.65482 0.769533 0
M  V30 17776 C 1731.91 0.394984 3.59336 0
M  V30 17777 O 1731.63 1.72008 4.0292 0
M  V30 17778 C 1733.13 -0.0377636 4.43284 0
M  V30 17779 H 1730.35 0.148056 0.654462 0
M  V30 17780 H 1732.89 1.05225 1.75351 0
M  V30 17781 H 1731.05 -0.253638 3.86569 0
M  V30 17782 H 1731.46 1.66225 4.97463 0
M  V30 17783 H 1732.94 0.0412956 5.51985 0
M  V30 17784 H 1733.41 -1.08881 4.2549 0
M  V30 17785 H 1734.02 0.582867 4.21287 0
M  V30 17786 N 1732.33 -1.48497 0.527859 0
M  V30 17787 C 1733.74 -1.86498 0.0868541 0
M  V30 17788 C 1734.1 -1.43763 -1.33517 0
M  V30 17789 O 1733.22 -0.827397 -1.99958 0
M  V30 17790 C 1733.82 -3.38464 0.150843 0
M  V30 17791 C 1732.37 -3.75666 -0.234956 0
M  V30 17792 C 1731.52 -2.72541 0.511549 0
M  V30 17793 H 1734.47 -1.40432 0.739223 0
M  V30 17794 H 1734.49 -3.75114 -0.637972 0
M  V30 17795 H 1734.01 -3.69537 1.18592 0
M  V30 17796 H 1732.11 -3.50206 -1.27225 0
M  V30 17797 H 1732.22 -4.78989 0.103178 0
M  V30 17798 H 1730.58 -2.54665 -0.0419281 0
M  V30 17799 H 1731.37 -3.06457 1.54722 0
M  V30 17800 N 1733.81 -0.262893 -1.55392 0
M  V30 17801 C 1734.74 0.623732 -2.25015 0
M  V30 17802 C 1735.72 1.16865 -1.23598 0
M  V30 17803 O 1736.91 1.20505 -1.5229 0
M  V30 17804 C 1734.04 1.81353 -2.9619 0
M  V30 17805 C 1732.99 1.40069 -4.04431 0
M  V30 17806 C 1732.32 2.67261 -4.63115 0
M  V30 17807 C 1733.62 0.559905 -5.1929 0
M  V30 17808 H 1735.31 0.0431306 -2.99369 0
M  V30 17809 H 1732.86 0.0193043 -1.43987 0
M  V30 17810 H 1734.81 2.43958 -3.43602 0
M  V30 17811 H 1733.53 2.41977 -2.1935 0
M  V30 17812 H 1732.19 0.797905 -3.57811 0
M  V30 17813 H 1731.84 3.26117 -3.82958 0
M  V30 17814 H 1731.54 2.40354 -5.36194 0
M  V30 17815 H 1733.07 3.30735 -5.1327 0
M  V30 17816 H 1734.48 1.09064 -5.6283 0
M  V30 17817 H 1732.88 0.386234 -5.98856 0
M  V30 17818 H 1733.95 -0.424199 -4.83041 0
M  V30 17819 N 1735.29 1.57597 0.0100073 0
M  V30 17820 C 1736.51 1.94801 0.711852 0
M  V30 17821 C 1736.94 0.864343 1.67065 0
M  V30 17822 O 1736.3 -0.178388 1.8042 0
M  V30 17823 C 1736.35 3.31094 1.42862 0
M  V30 17824 O 1735.45 3.2469 2.54264 0
M  V30 17825 H 1734.79 0.636207 0.190095 0
M  V30 17826 H 1737.32 2.04561 -0.0402016 0
M  V30 17827 H 1737.33 3.66428 1.79429 0
M  V30 17828 H 1736.01 4.09522 0.725549 0
M  V30 17829 H 1734.58 3.01017 2.20099 0
M  V30 17830 N 1736.77 -0.282606 1.55045 0
M  V30 17831 C 1738.18 -0.854338 1.66006 0
M  V30 17832 C 1738.53 -1.87408 0.580753 0
M  V30 17833 O 1737.65 -2.14588 -0.279449 0
M  V30 17834 C 1738.25 -1.55637 3.00936 0
M  V30 17835 C 1736.81 -2.07626 3.13956 0
M  V30 17836 C 1735.96 -0.915064 2.61767 0
M  V30 17837 H 1738.91 -0.0591711 1.5859 0
M  V30 17838 H 1738.93 -2.42289 2.93388 0
M  V30 17839 H 1738.44 -0.813942 3.79469 0
M  V30 17840 H 1736.54 -2.84859 2.40179 0
M  V30 17841 H 1736.65 -2.29816 4.20382 0
M  V30 17842 H 1735.02 -1.30577 2.18682 0
M  V30 17843 H 1735.8 -0.186298 3.42794 0
M  V30 17844 N 1738.25 -1.47815 -0.546675 0
M  V30 17845 C 1739.66 -1.48715 -1.12875 0
M  V30 17846 C 1740.01 -0.247647 -1.94631 0
M  V30 17847 O 1739.13 0.646615 -2.06514 0
M  V30 17848 C 1739.73 -2.69459 -2.05371 0
M  V30 17849 C 1738.29 -2.73285 -2.58829 0
M  V30 17850 C 1737.43 -2.4198 -1.35429 0
M  V30 17851 H 1740.38 -1.55172 -0.332746 0
M  V30 17852 H 1740.41 -2.47028 -2.89408 0
M  V30 17853 H 1739.92 -3.59656 -1.4584 0
M  V30 17854 H 1738.02 -1.87254 -3.22128 0
M  V30 17855 H 1738.13 -3.74265 -2.99103 0
M  V30 17856 H 1736.5 -1.92783 -1.66454 0
M  V30 17857 H 1737.28 -3.34397 -0.776753 0
M  V30 17858 N 1739.72 0.794246 -1.36123 0
M  V30 17859 C 1740.95 1.58297 -1.33228 0
M  V30 17860 C 1741.37 1.88597 0.0875426 0
M  V30 17861 O 1740.72 1.49754 1.04307 0
M  V30 17862 C 1740.77 2.90687 -2.14904 0
M  V30 17863 O 1740.5 2.61695 -3.51351 0
M  V30 17864 C 1742 3.85009 -2.19734 0
M  V30 17865 H 1739.22 0.491139 -0.457191 0
M  V30 17866 H 1741.76 0.986129 -1.79153 0
M  V30 17867 H 1739.92 3.46852 -1.72546 0
M  V30 17868 H 1740.33 3.46313 -3.93913 0
M  V30 17869 H 1741.8 4.74976 -2.8125 0
M  V30 17870 H 1742.28 4.22504 -1.19946 0
M  V30 17871 H 1742.89 3.34777 -2.62307 0
M  V30 17872 N 1741.2 1.20323 1.01785 0
M  V30 17873 C 1742.15 0.947754 2.12416 0
M  V30 17874 C 1743.14 -0.100443 1.69102 0
M  V30 17875 O 1744.35 0.0498028 1.79931 0
M  V30 17876 H 1740.72 0.289148 0.694188 0
M  V30 17877 H 1742.7 1.88714 2.31149 0
M  V30 17878 C 1741.44 0.51503 3.43864 0
M  V30 17879 H 1740.77 1.31318 3.77618 0
M  V30 17880 H 1742.21 0.375476 4.22334 0
M  V30 17881 C 1740.67 -0.772413 3.27926 0
M  V30 17882 O 1741.2 -1.83115 3.57536 0
M  V30 17883 N 1739.4 -0.733948 2.81179 0
M  V30 17884 H 1738.95 0.127902 2.57282 0
M  V30 17885 H 1738.91 -1.59571 2.70896 0
M  V30 17886 N 1742.68 -1.21073 1.00892 0
M  V30 17887 C 1743.61 -2.25847 0.592897 0
M  V30 17888 C 1744.59 -1.6561 -0.38824 0
M  V30 17889 O 1745.78 -1.92238 -0.275361 0
M  V30 17890 C 1742.91 -3.47214 -0.0773439 0
M  V30 17891 C 1741.86 -4.19994 0.82398 0
M  V30 17892 C 1741.19 -5.34696 0.0199341 0
M  V30 17893 C 1742.49 -4.76964 2.12844 0
M  V30 17894 H 1744.18 -2.609 1.46873 0
M  V30 17895 H 1741.73 -1.25412 0.707656 0
M  V30 17896 H 1743.68 -4.19684 -0.379889 0
M  V30 17897 H 1742.4 -3.11303 -0.987833 0
M  V30 17898 H 1741.06 -3.49379 1.11041 0
M  V30 17899 H 1740.71 -4.95028 -0.891966 0
M  V30 17900 H 1740.41 -5.84319 0.620102 0
M  V30 17901 H 1741.93 -6.09974 -0.276336 0
M  V30 17902 H 1743.35 -5.41293 1.88878 0
M  V30 17903 H 1741.74 -5.36992 2.67879 0
M  V30 17904 H 1742.81 -3.96129 2.79659 0
M  V30 17905 N 1744.16 -0.784156 -1.36707 0
M  V30 17906 C 1745.11 -0.152155 -2.27492 0
M  V30 17907 C 1746.09 0.660807 -1.46704 0
M  V30 17908 O 1747.28 0.521744 -1.69136 0
M  V30 17909 C 1744.41 0.716367 -3.35743 0
M  V30 17910 C 1743.5 -0.1051 -4.2397 0
M  V30 17911 N 1743.89 -1.15697 -4.9239 0
M  V30 17912 C 1742.19 0.116908 -4.45847 0
M  V30 17913 C 1742.89 -1.65661 -5.57612 0
M  V30 17914 N 1741.87 -0.966703 -5.34935 0
M  V30 17915 H 1745.67 -0.957322 -2.77871 0
M  V30 17916 H 1743.18 -0.623106 -1.4997 0
M  V30 17917 H 1745.18 1.185 -3.99704 0
M  V30 17918 H 1743.84 1.52014 -2.86918 0
M  V30 17919 H 1744.85 -1.53933 -4.94495 0
M  V30 17920 H 1741.53 0.891605 -4.07868 0
M  V30 17921 H 1742.92 -2.53449 -6.22265 0
M  V30 17922 N 1745.64 1.48215 -0.535727 0
M  V30 17923 C 1746.57 2.3253 0.212562 0
M  V30 17924 C 1747.55 1.42454 0.929568 0
M  V30 17925 O 1748.73 1.71334 0.914228 0
M  V30 17926 C 1745.86 3.23777 1.25641 0
M  V30 17927 C 1744.82 4.22924 0.657191 0
M  V30 17928 C 1744.14 5.03345 1.80411 0
M  V30 17929 C 1745.44 5.20953 -0.374902 0
M  V30 17930 H 1747.14 2.95341 -0.491301 0
M  V30 17931 H 1744.68 1.42024 -0.237718 0
M  V30 17932 H 1746.64 3.81592 1.78789 0
M  V30 17933 H 1745.36 2.58978 1.98993 0
M  V30 17934 H 1744.02 3.66304 0.147184 0
M  V30 17935 H 1743.67 4.34965 2.52615 0
M  V30 17936 H 1743.37 5.70455 1.40906 0
M  V30 17937 H 1744.89 5.64013 2.33926 0
M  V30 17938 H 1746.3 5.73258 0.0697072 0
M  V30 17939 H 1744.7 5.96147 -0.687646 0
M  V30 17940 H 1745.77 4.67739 -1.27861 0
M  V30 17941 N 1747.11 0.27113 1.5525 0
M  V30 17942 C 1748.02 -0.628245 2.26031 0
M  V30 17943 C 1749.04 -1.17339 1.28481 0
M  V30 17944 O 1750.22 -1.20453 1.61409 0
M  V30 17945 C 1747.28 -1.79766 2.96454 0
M  V30 17946 C 1746.34 -1.28958 4.09473 0
M  V30 17947 C 1745.58 -2.40326 4.76528 0
M  V30 17948 O 1745.8 -3.59595 4.42772 0
M  V30 17949 O 1744.73 -2.08708 5.64557 0
M  V30 17950 H 1748.56 -0.0549756 3.0365 0
M  V30 17951 H 1746.14 0.0386859 1.4935 0
M  V30 17952 H 1748.03 -2.4796 3.40725 0
M  V30 17953 H 1746.7 -2.35809 2.21756 0
M  V30 17954 H 1745.61 -0.57422 3.69667 0
M  V30 17955 H 1746.94 -0.774945 4.86061 0
M  V30 17956 N 1748.59 -1.576 -0.00164943 0
M  V30 17957 C 1749.56 -2.07267 -0.978423 0
M  V30 17958 C 1750.56 -0.981758 -1.27351 0
M  V30 17959 O 1751.75 -1.24446 -1.21896 0
M  V30 17960 C 1748.88 -2.51273 -2.30379 0
M  V30 17961 H 1750.07 -2.94835 -0.548845 0
M  V30 17962 H 1747.62 -1.54302 -0.249086 0
M  V30 17963 H 1748.36 -1.66943 -2.7803 0
M  V30 17964 H 1748.14 -3.30943 -2.10283 0
M  V30 17965 H 1749.63 -2.90031 -3.00453 0
M  V30 17966 N 1750.07 0.274379 -1.55193 0
M  V30 17967 C 1751.02 1.35903 -1.88767 0
M  V30 17968 C 1752.01 1.512 -0.763874 0
M  V30 17969 O 1753.22 1.53 -0.948201 0
M  V30 17970 H 1749.59 0.454495 -0.599114 0
M  V30 17971 H 1751.56 1.04837 -2.79378 0
M  V30 17972 C 1750.31 2.71277 -2.17496 0
M  V30 17973 H 1749.64 2.60297 -3.03456 0
M  V30 17974 H 1751.08 3.46115 -2.44909 0
M  V30 17975 C 1749.54 3.22268 -0.982101 0
M  V30 17976 O 1750.07 4.01119 -0.216035 0
M  V30 17977 N 1748.27 2.79931 -0.780179 0
M  V30 17978 H 1747.82 2.15923 -1.40482 0
M  V30 17979 H 1747.78 3.14396 0.0163297 0
M  V30 17980 N 1751.55 1.48103 0.538828 0
M  V30 17981 C 1752.96 1.49312 1.12085 0
M  V30 17982 C 1753.31 0.257965 1.94497 0
M  V30 17983 O 1752.44 -0.635654 2.06854 0
M  V30 17984 C 1753.03 2.70545 2.03939 0
M  V30 17985 C 1751.59 2.74654 2.57376 0
M  V30 17986 C 1750.74 2.42695 1.34144 0
M  V30 17987 H 1753.69 1.55347 0.324512 0
M  V30 17988 H 1753.71 2.4856 2.88094 0
M  V30 17989 H 1753.22 3.60424 1.4393 0
M  V30 17990 H 1751.32 1.8896 3.21131 0
M  V30 17991 H 1751.43 3.75846 2.97114 0
M  V30 17992 H 1749.8 1.93663 1.65429 0
M  V30 17993 H 1750.58 3.34804 0.759009 0
M  V30 17994 N 1753.03 -0.787016 1.36542 0
M  V30 17995 C 1754.3 -1.53325 1.21452 0
M  V30 17996 C 1754.68 -2.10166 -0.198313 0
M  V30 17997 O 1754.03 -1.94192 -1.20422 0
M  V30 17998 C 1754.24 -2.62629 2.29841 0
M  V30 17999 C 1755.59 -3.30446 2.66628 0
M  V30 18000 O 1756.61 -2.72914 2.28903 0
M  V30 18001 O 1755.47 -4.34424 3.31569 0
M  V30 18002 H 1752.57 -0.678361 0.473028 0
M  V30 18003 H 1755.11 -0.825292 1.4828 0
M  V30 18004 H 1753.88 -2.18639 3.24519 0
M  V30 18005 H 1753.51 -3.41042 2.04393 0
M  V30 18006 N 1754.5 -1.20861 -1.01145 0
M  V30 18007 C 1755.73 -1.04769 -1.78413 0
M  V30 18008 C 1756.15 0.402846 -1.84452 0
M  V30 18009 O 1755.5 1.27962 -1.30123 0
M  V30 18010 C 1755.56 -1.63065 -3.22633 0
M  V30 18011 O 1755.28 -3.02443 -3.16954 0
M  V30 18012 C 1756.78 -1.51996 -4.16428 0
M  V30 18013 H 1754 -0.368271 -0.560908 0
M  V30 18014 H 1756.54 -1.6006 -1.27283 0
M  V30 18015 H 1754.7 -1.11882 -3.70892 0
M  V30 18016 H 1755.11 -3.30199 -4.07515 0
M  V30 18017 H 1756.58 -1.97539 -5.15444 0
M  V30 18018 H 1757.06 -0.473305 -4.36642 0
M  V30 18019 H 1757.67 -2.02396 -3.74054 0
M  V30 18020 N 1755.98 1.20536 -1.01532 0
M  V30 18021 C 1757.23 1.89496 -0.70254 0
M  V30 18022 C 1757.55 1.7915 0.770072 0
M  V30 18023 O 1756.82 1.19308 1.55379 0
M  V30 18024 H 1755.4 0.701447 -0.256868 0
M  V30 18025 H 1758.06 1.46394 -1.28665 0
M  V30 18026 H 1757.16 2.96155 -0.984817 0
M  V30 18027 N 1757.46 0.791395 1.36289 0
M  V30 18028 C 1758.71 0.365242 1.99484 0
M  V30 18029 C 1759.04 -1.06087 1.62663 0
M  V30 18030 O 1758.31 -1.73332 0.882396 0
M  V30 18031 C 1758.6 0.531317 3.56159 0
M  V30 18032 C 1758.45 2.00126 4.02827 0
M  V30 18033 C 1759.77 -0.0524248 4.40069 0
M  V30 18034 H 1756.89 0.134183 0.724682 0
M  V30 18035 H 1759.53 0.998102 1.61672 0
M  V30 18036 H 1757.68 -0.0074293 3.88499 0
M  V30 18037 H 1759.35 2.60122 3.80965 0
M  V30 18038 H 1757.6 2.50316 3.54294 0
M  V30 18039 H 1758.27 2.06842 5.11782 0
M  V30 18040 H 1760.74 0.407489 4.141 0
M  V30 18041 H 1759.62 0.0937898 5.4882 0
M  V30 18042 H 1759.88 -1.14472 4.27023 0
M  V30 18043 N 1758.94 -1.47929 0.54358 0
M  V30 18044 C 1759.87 -2.3264 -0.200228 0
M  V30 18045 C 1760.85 -1.42945 -0.922 0
M  V30 18046 O 1762.04 -1.71817 -0.905129 0
M  V30 18047 C 1759.17 -3.24439 -1.23922 0
M  V30 18048 C 1758.12 -4.23267 -0.634753 0
M  V30 18049 C 1757.45 -5.04295 -1.77739 0
M  V30 18050 C 1758.75 -5.20747 0.402524 0
M  V30 18051 H 1760.44 -2.95077 0.506957 0
M  V30 18052 H 1757.99 -1.41896 0.245246 0
M  V30 18053 H 1759.94 -3.82535 -1.76763 0
M  V30 18054 H 1758.66 -2.60029 -1.97616 0
M  V30 18055 H 1757.32 -3.66377 -0.127756 0
M  V30 18056 H 1756.97 -4.36299 -2.50304 0
M  V30 18057 H 1756.67 -5.71195 -1.37879 0
M  V30 18058 H 1758.19 -5.65246 -2.30932 0
M  V30 18059 H 1759.61 -5.73287 -0.039305 0
M  V30 18060 H 1758 -5.95774 0.719251 0
M  V30 18061 H 1759.07 -4.67054 1.3034 0
M  V30 18062 N 1760.42 -0.27936 -1.55104 0
M  V30 18063 C 1761.65 0.339429 -2.04097 0
M  V30 18064 C 1762.06 1.49151 -1.15756 0
M  V30 18065 O 1761.42 1.81624 -0.178558 0
M  V30 18066 C 1761.47 0.816392 -3.52161 0
M  V30 18067 O 1761.19 -0.289812 -4.3714 0
M  V30 18068 C 1762.69 1.50256 -4.17059 0
M  V30 18069 H 1759.91 0.0768615 -0.666583 0
M  V30 18070 H 1762.45 -0.412691 -2.00293 0
M  V30 18071 H 1760.61 1.51859 -3.56395 0
M  V30 18072 H 1761.02 0.0776213 -5.24443 0
M  V30 18073 H 1762.5 1.78767 -5.22251 0
M  V30 18074 H 1762.97 2.4355 -3.65486 0
M  V30 18075 H 1763.58 0.844106 -4.16839 0
M  V30 18076 N 1761.9 1.57599 -0.0067085 0
M  V30 18077 C 1763.14 1.9114 0.677733 0
M  V30 18078 C 1763.47 0.881328 1.7305 0
M  V30 18079 O 1762.75 -0.099049 1.94248 0
M  V30 18080 C 1763.03 3.35241 1.31474 0
M  V30 18081 C 1762.89 4.4897 0.273055 0
M  V30 18082 C 1764.2 3.78886 2.23905 0
M  V30 18083 H 1761.32 0.695119 0.244907 0
M  V30 18084 H 1763.97 1.89907 -0.059378 0
M  V30 18085 H 1762.12 3.36423 1.94299 0
M  V30 18086 H 1763.79 4.59924 -0.356031 0
M  V30 18087 H 1762.03 4.31915 -0.403961 0
M  V30 18088 H 1762.7 5.46772 0.757941 0
M  V30 18089 H 1765.18 3.79299 1.7109 0
M  V30 18090 H 1764.05 4.80451 2.65439 0
M  V30 18091 H 1764.31 3.13129 3.12094 0
M  V30 18092 N 1763.37 -0.266145 1.55336 0
M  V30 18093 C 1764.6 -1.01915 1.80633 0
M  V30 18094 C 1765.02 -1.78897 0.581172 0
M  V30 18095 O 1764.38 -1.75118 -0.469399 0
M  V30 18096 C 1764.43 -1.948 3.03456 0
M  V30 18097 O 1763.53 -3.03678 2.79022 0
M  V30 18098 H 1762.87 -0.29102 0.596828 0
M  V30 18099 H 1765.4 -0.292973 2.02492 0
M  V30 18100 H 1765.41 -2.36626 3.32373 0
M  V30 18101 H 1764.09 -1.38182 3.92273 0
M  V30 18102 H 1762.67 -2.66118 2.61219 0
M  V30 18103 N 1764.85 -1.48386 -0.530967 0
M  V30 18104 C 1766.1 -1.57564 -1.28628 0
M  V30 18105 C 1766.45 -0.245916 -1.90822 0
M  V30 18106 O 1765.75 0.751124 -1.76263 0
M  V30 18107 C 1765.94 -2.64979 -2.39835 0
M  V30 18108 C 1765.77 -4.08267 -1.88541 0
M  V30 18109 C 1764.54 -4.75418 -1.71191 0
M  V30 18110 C 1766.74 -4.94465 -1.41453 0
M  V30 18111 N 1764.72 -6.03125 -1.14512 0
M  V30 18112 C 1766.09 -6.1241 -0.967144 0
M  V30 18113 C 1768.14 -4.80698 -1.29747 0
M  V30 18114 C 1766.85 -7.18106 -0.414308 0
M  V30 18115 C 1768.87 -5.86514 -0.758626 0
M  V30 18116 C 1768.24 -7.03667 -0.321311 0
M  V30 18117 H 1764.33 -0.631125 -0.461741 0
M  V30 18118 H 1766.92 -1.85262 -0.598825 0
M  V30 18119 H 1765.09 -2.39105 -3.06078 0
M  V30 18120 H 1766.82 -2.63848 -3.06865 0
M  V30 18121 H 1763.58 -4.31735 -1.94684 0
M  V30 18122 H 1764 -6.71232 -0.881857 0
M  V30 18123 H 1768.64 -3.90465 -1.62162 0
M  V30 18124 H 1766.36 -8.08063 -0.0778242 0
M  V30 18125 H 1769.95 -5.77915 -0.671241 0
M  V30 18126 H 1768.83 -7.84149 0.0891564 0
M  V30 18127 N 1766.33 0.779763 -1.36958 0
M  V30 18128 C 1767.24 1.92394 -1.34245 0
M  V30 18129 C 1768.26 1.72292 -0.243187 0
M  V30 18130 O 1769.43 1.95665 -0.477211 0
M  V30 18131 C 1766.5 3.27402 -1.14057 0
M  V30 18132 C 1765.56 3.60213 -2.33548 0
M  V30 18133 C 1764.79 4.88779 -2.14314 0
M  V30 18134 O 1765.01 5.59231 -1.12327 0
M  V30 18135 O 1763.95 5.20469 -3.02316 0
M  V30 18136 H 1767.77 1.97633 -2.30596 0
M  V30 18137 H 1765.36 0.921386 -1.17605 0
M  V30 18138 H 1767.24 4.08172 -1.04755 0
M  V30 18139 H 1765.92 3.23033 -0.207744 0
M  V30 18140 H 1764.82 2.7971 -2.48421 0
M  V30 18141 H 1766.16 3.69317 -3.25371 0
M  V30 18142 N 1767.81 1.21396 1.00503 0
M  V30 18143 C 1769.22 0.971304 1.26641 0
M  V30 18144 C 1769.42 -0.342336 1.98571 0
M  V30 18145 O 1768.48 -1.068 2.28801 0
M  V30 18146 C 1769.79 2.16186 2.09008 0
M  V30 18147 C 1771.34 2.20411 2.22234 0
M  V30 18148 C 1771.82 3.38984 3.07983 0
M  V30 18149 N 1773.31 3.3907 3.15572 0
M  V30 18150 C 1774.04 4.27467 3.82177 0
M  V30 18151 N 1773.54 5.26062 4.50811 0
M  V30 18152 N 1775.33 4.15276 3.78817 0
M  V30 18153 H 1767.48 2.05875 0.522436 0
M  V30 18154 H 1769.74 0.901496 0.293272 0
M  V30 18155 H 1769.45 3.11383 1.63504 0
M  V30 18156 H 1769.32 2.15243 3.09758 0
M  V30 18157 H 1771.71 1.25769 2.66957 0
M  V30 18158 H 1771.79 2.25397 1.20954 0
M  V30 18159 H 1771.44 4.33919 2.63964 0
M  V30 18160 H 1771.37 3.31236 4.09378 0
M  V30 18161 H 1773.86 2.67718 2.66713 0
M  V30 18162 H 1774.17 5.89815 4.99338 0
M  V30 18163 H 1772.52 5.29987 4.49599 0
M  V30 18164 H 1775.71 3.37511 3.24351 0
M  V30 18165 H 1775.88 4.84375 4.30448 0
M  V30 18166 N 1769.29 -1.19996 1.0217 0
M  V30 18167 C 1770.51 -1.94007 0.733207 0
M  V30 18168 C 1770.94 -1.74565 -0.70061 0
M  V30 18169 O 1770.29 -1.04326 -1.48276 0
M  V30 18170 C 1770.34 -3.44029 1.08057 0
M  V30 18171 O 1769.45 -4.11938 0.195135 0
M  V30 18172 H 1768.79 -0.605929 0.271562 0
M  V30 18173 H 1771.32 -1.5228 1.36645 0
M  V30 18174 H 1771.33 -3.94669 1.03443 0
M  V30 18175 H 1770 -3.57502 2.1252 0
M  V30 18176 H 1768.58 -3.71697 0.299246 0
M  V30 18177 N 1770.76 -0.798611 -1.35867 0
M  V30 18178 C 1771.99 -0.387479 -2.03239 0
M  V30 18179 C 1772.41 0.999052 -1.60201 0
M  V30 18180 O 1771.76 1.64237 -0.795763 0
M  V30 18181 C 1771.81 -0.452101 -3.58662 0
M  V30 18182 O 1771.54 -1.78396 -4.00133 0
M  V30 18183 C 1773.04 -0.0327638 -4.43288 0
M  V30 18184 H 1770.26 -0.15845 -0.652024 0
M  V30 18185 H 1772.8 -1.08002 -1.73655 0
M  V30 18186 H 1770.96 0.192107 -3.86923 0
M  V30 18187 H 1771.37 -1.74118 -4.94756 0
M  V30 18188 H 1772.84 -0.129106 -5.51849 0
M  V30 18189 H 1773.32 1.02098 -4.27168 0
M  V30 18190 H 1773.93 -0.649817 -4.20306 0
M  V30 18191 N 1772.24 1.47639 -0.551417 0
M  V30 18192 C 1773.47 2.06878 -0.0298904 0
M  V30 18193 C 1773.88 1.40493 1.26123 0
M  V30 18194 O 1773.24 0.499513 1.75531 0
M  V30 18195 C 1773.29 3.61074 0.175449 0
M  V30 18196 O 1773.01 4.2497 -1.06454 0
M  V30 18197 C 1774.51 4.37166 0.734919 0
M  V30 18198 H 1771.73 0.669607 -0.0432142 0
M  V30 18199 H 1774.28 1.89726 -0.763178 0
M  V30 18200 H 1772.43 3.7776 0.858848 0
M  V30 18201 H 1772.85 5.17424 -0.858644 0
M  V30 18202 H 1774.32 5.45756 0.827915 0
M  V30 18203 H 1774.8 4.03052 1.74486 0
M  V30 18204 H 1775.4 4.2521 0.0874045 0
M  V30 18205 N 1773.72 0.287581 1.54954 0
M  V30 18206 C 1775.13 -0.207733 1.85541 0
M  V30 18207 C 1775.48 -1.54478 1.20959 0
M  V30 18208 O 1774.61 -2.10487 0.502399 0
M  V30 18209 C 1775.2 -0.383701 3.3662 0
M  V30 18210 C 1773.76 -0.82324 3.67287 0
M  V30 18211 C 1772.91 0.0762579 2.77195 0
M  V30 18212 H 1775.86 0.509004 1.50316 0
M  V30 18213 H 1775.88 -1.22036 3.60399 0
M  V30 18214 H 1775.39 0.589575 3.83596 0
M  V30 18215 H 1773.49 -1.80754 3.2582 0
M  V30 18216 H 1773.61 -0.651925 4.74644 0
M  V30 18217 H 1771.97 -0.44219 2.50832 0
M  V30 18218 H 1772.75 1.04564 3.26988 0
M  V30 18219 N 1775.2 -1.57593 0.0150662 0
M  V30 18220 C 1776.48 -1.82473 -0.704474 0
M  V30 18221 C 1776.86 -0.896018 -1.91141 0
M  V30 18222 O 1776.2 0.0517365 -2.28441 0
M  V30 18223 C 1776.41 -3.31345 -1.09598 0
M  V30 18224 C 1777.76 -3.97465 -1.49353 0
M  V30 18225 O 1778.79 -3.35757 -1.18936 0
M  V30 18226 O 1777.64 -5.06199 -2.05972 0
M  V30 18227 H 1774.74 -0.751908 -0.344331 0
M  V30 18228 H 1777.28 -1.69649 0.041674 0
M  V30 18229 H 1776.06 -3.90586 -0.236358 0
M  V30 18230 H 1775.68 -3.49224 -1.90075 0
M  V30 18231 N 1776.68 0.257904 -1.55475 0
M  V30 18232 C 1777.93 0.985329 -1.75995 0
M  V30 18233 C 1778.24 1.86898 -0.57694 0
M  V30 18234 O 1779.44 2.63233 -0.664893 0
M  V30 18235 C 1777.9 1.80195 -3.11541 0
M  V30 18236 C 1777.51 0.966227 -4.37456 0
M  V30 18237 C 1779.25 2.52277 -3.41404 0
M  V30 18238 C 1777.16 1.7781 -5.64037 0
M  V30 18239 H 1776.09 0.371623 -0.656058 0
M  V30 18240 H 1778.74 0.240396 -1.81919 0
M  V30 18241 H 1777.12 2.58841 -2.99695 0
M  V30 18242 H 1778.3 0.222865 -4.60261 0
M  V30 18243 H 1776.61 0.359255 -4.14847 0
M  V30 18244 H 1779.21 3.13451 -4.33189 0
M  V30 18245 H 1779.55 3.23333 -2.62224 0
M  V30 18246 H 1780.08 1.80649 -3.54416 0
M  V30 18247 H 1776.82 1.11147 -6.46008 0
M  V30 18248 H 1776.34 2.49703 -5.45352 0
M  V30 18249 H 1778.02 2.348 -6.02891 0
M  V30 18250 N 1778.15 1.48666 0.52309 0
M  V30 18251 C 1779.38 1.60707 1.30311 0
M  V30 18252 C 1779.8 0.269941 1.8686 0
M  V30 18253 O 1779.15 -0.741714 1.66748 0
M  V30 18254 C 1779.21 2.65899 2.44908 0
M  V30 18255 O 1778.93 3.94423 1.90688 0
M  V30 18256 C 1780.43 2.88443 3.36624 0
M  V30 18257 H 1777.65 0.541661 0.396035 0
M  V30 18258 H 1780.19 1.94544 0.630322 0
M  V30 18259 H 1778.35 2.34902 3.08058 0
M  V30 18260 H 1778.76 4.5219 2.65753 0
M  V30 18261 H 1780.23 3.65831 4.13366 0
M  V30 18262 H 1780.71 1.97524 3.92277 0
M  V30 18263 H 1781.32 3.20771 2.7926 0
M  V30 18264 N 1779.63 -0.772489 1.37369 0
M  V30 18265 C 1780.88 -1.528 1.32275 0
M  V30 18266 C 1781.2 -1.9478 -0.092541 0
M  V30 18267 O 1780.47 -1.6624 -1.0364 0
M  V30 18268 H 1779.05 -0.566727 0.486651 0
M  V30 18269 H 1781.71 -0.919435 1.7185 0
M  V30 18270 H 1780.81 -2.42774 1.96131 0
M  V30 18271 N 1781.11 -1.21927 -0.998575 0
M  V30 18272 C 1782.34 -1.06501 -1.77034 0
M  V30 18273 C 1782.75 0.387776 -1.85184 0
M  V30 18274 O 1782.09 1.28067 -1.31699 0
M  V30 18275 C 1782.15 -1.59465 -3.22198 0
M  V30 18276 C 1781.82 -3.08008 -3.37609 0
M  V30 18277 C 1782.81 -4.05495 -3.25377 0
M  V30 18278 C 1780.5 -3.47347 -3.62843 0
M  V30 18279 C 1782.49 -5.40306 -3.38154 0
M  V30 18280 C 1780.18 -4.82309 -3.75262 0
M  V30 18281 C 1781.18 -5.78597 -3.62924 0
M  V30 18282 O 1780.87 -7.1111 -3.74938 0
M  V30 18283 H 1780.6 -0.374178 -0.562998 0
M  V30 18284 H 1783.15 -1.61859 -1.26455 0
M  V30 18285 H 1781.38 -0.98509 -3.73942 0
M  V30 18286 H 1783.07 -1.39785 -3.81071 0
M  V30 18287 H 1783.84 -3.76446 -3.05799 0
M  V30 18288 H 1779.72 -2.72928 -3.71526 0
M  V30 18289 H 1783.26 -6.15445 -3.28441 0
M  V30 18290 H 1779.16 -5.1104 -3.94345 0
M  V30 18291 H 1779.93 -7.18609 -3.91846 0
M  V30 18292 N 1782.59 1.19452 -1.02805 0
M  V30 18293 C 1784 1.41147 -0.744969 0
M  V30 18294 C 1784.2 1.90008 0.670765 0
M  V30 18295 O 1783.26 2.0763 1.43688 0
M  V30 18296 C 1784.57 2.42328 -1.78039 0
M  V30 18297 C 1786.12 2.56076 -1.79984 0
M  V30 18298 C 1786.6 3.6051 -2.82483 0
M  V30 18299 N 1788.09 3.68005 -2.81294 0
M  V30 18300 C 1788.82 4.48502 -3.57258 0
M  V30 18301 N 1788.32 5.32711 -4.42934 0
M  V30 18302 N 1790.11 4.43144 -3.45803 0
M  V30 18303 H 1782.26 0.860569 -1.94185 0
M  V30 18304 H 1784.53 0.44042 -0.839484 0
M  V30 18305 H 1784.23 2.13448 -2.79523 0
M  V30 18306 H 1784.11 3.41491 -1.60199 0
M  V30 18307 H 1786.49 2.84279 -0.791782 0
M  V30 18308 H 1786.57 1.57069 -2.01898 0
M  V30 18309 H 1786.22 3.33049 -3.83459 0
M  V30 18310 H 1786.15 4.59166 -2.57827 0
M  V30 18311 H 1788.64 3.07863 -2.19154 0
M  V30 18312 H 1788.95 5.9125 -4.97637 0
M  V30 18313 H 1787.3 5.32175 -4.47007 0
M  V30 18314 H 1790.49 3.76399 -2.78283 0
M  V30 18315 H 1790.66 5.0564 -4.05256 0
M  V30 18316 N 1784.07 0.805805 1.35442 0
M  V30 18317 C 1785.32 0.382303 1.98044 0
M  V30 18318 C 1785.63 -1.05602 1.64644 0
M  V30 18319 O 1786.83 -1.5826 2.20604 0
M  V30 18320 C 1785.29 0.632619 3.54296 0
M  V30 18321 C 1784.9 2.08344 3.96607 0
M  V30 18322 C 1786.64 0.274435 4.23612 0
M  V30 18323 C 1784.55 2.27954 5.45702 0
M  V30 18324 H 1783.48 0.13921 0.741037 0
M  V30 18325 H 1786.13 0.989752 1.54519 0
M  V30 18326 H 1784.51 -0.0447699 3.95975 0
M  V30 18327 H 1785.69 2.79857 3.66083 0
M  V30 18328 H 1784 2.40142 3.40178 0
M  V30 18329 H 1786.6 0.399019 5.33209 0
M  V30 18330 H 1786.94 -0.779292 4.08941 0
M  V30 18331 H 1787.47 0.90571 3.87352 0
M  V30 18332 H 1784.21 3.3177 5.6534 0
M  V30 18333 H 1783.73 1.60965 5.77798 0
M  V30 18334 H 1785.41 2.09469 6.12153 0
M  V30 18335 N 1785.54 -1.47344 0.559239 0
M  V30 18336 C 1786.77 -2.0686 0.0408612 0
M  V30 18337 C 1787.19 -1.4116 -1.25376 0
M  V30 18338 O 1786.54 -0.508814 -1.75264 0
M  V30 18339 C 1786.6 -3.61162 -0.156298 0
M  V30 18340 O 1786.32 -4.24399 1.08706 0
M  V30 18341 C 1787.82 -4.37549 -0.711725 0
M  V30 18342 H 1785.04 -0.669368 0.0467647 0
M  V30 18343 H 1787.58 -1.89318 0.773229 0
M  V30 18344 H 1785.74 -3.7821 -0.838802 0
M  V30 18345 H 1786.15 -5.16961 0.886072 0
M  V30 18346 H 1787.62 -5.46187 -0.798961 0
M  V30 18347 H 1788.1 -4.03972 -1.72346 0
M  V30 18348 H 1788.71 -4.25251 -0.0648534 0
M  V30 18349 N 1787.02 -0.295795 -1.54799 0
M  V30 18350 C 1788.25 0.317763 -2.04445 0
M  V30 18351 C 1788.67 1.47915 -1.17331 0
M  V30 18352 O 1788.02 1.81425 -0.197811 0
M  V30 18353 C 1788.07 0.778995 -3.53007 0
M  V30 18354 O 1787.79 -0.33616 -4.36808 0
M  V30 18355 C 1789.3 1.45824 -4.18629 0
M  V30 18356 H 1786.52 0.0697871 -0.667361 0
M  V30 18357 H 1789.06 -0.433911 -1.99844 0
M  V30 18358 H 1787.21 1.4807 -3.57986 0
M  V30 18359 H 1787.63 0.0219928 -5.24495 0
M  V30 18360 H 1789.1 1.73218 -5.24118 0
M  V30 18361 H 1789.58 2.3966 -3.68049 0
M  V30 18362 H 1790.19 0.799847 -4.17711 0
M  V30 18363 N 1788.5 1.57583 -0.0234236 0
M  V30 18364 C 1789.73 1.95861 0.666797 0
M  V30 18365 C 1790.14 0.899616 1.65989 0
M  V30 18366 O 1789.5 -0.119162 1.82111 0
M  V30 18367 C 1789.55 3.34198 1.37818 0
M  V30 18368 O 1789.27 4.36035 0.424887 0
M  V30 18369 C 1790.77 3.87074 2.16075 0
M  V30 18370 H 1787.99 0.645213 0.184233 0
M  V30 18371 H 1790.54 2.04338 -0.0814987 0
M  V30 18372 H 1788.69 3.26958 2.07792 0
M  V30 18373 H 1789.11 5.162 0.929394 0
M  V30 18374 H 1790.58 4.8623 2.61312 0
M  V30 18375 H 1791.06 3.21017 2.99741 0
M  V30 18376 H 1791.66 3.97565 1.5107 0
M  V30 18377 N 1789.98 -0.249655 1.5561 0
M  V30 18378 C 1791.39 -0.818934 1.67781 0
M  V30 18379 C 1791.74 -1.86134 0.620374 0
M  V30 18380 O 1790.87 -2.15133 -0.233869 0
M  V30 18381 C 1791.46 -1.49219 3.0417 0
M  V30 18382 C 1790.02 -2.0092 3.18289 0
M  V30 18383 C 1789.17 -0.859333 2.63649 0
M  V30 18384 H 1792.12 -0.0255186 1.58679 0
M  V30 18385 H 1792.14 -2.36011 2.98461 0
M  V30 18386 H 1791.65 -0.733268 3.8111 0
M  V30 18387 H 1789.75 -2.79701 2.46167 0
M  V30 18388 H 1789.87 -2.20848 4.25163 0
M  V30 18389 H 1788.23 -1.2591 2.21402 0
M  V30 18390 H 1789.01 -0.113545 3.43112 0
M  V30 18391 N 1791.46 -1.48941 -0.515198 0
M  V30 18392 C 1792.69 -1.61396 -1.29457 0
M  V30 18393 C 1793.1 -0.279847 -1.86714 0
M  V30 18394 O 1792.46 0.732861 -1.67139 0
M  V30 18395 C 1792.51 -2.67194 -2.43494 0
M  V30 18396 O 1792.23 -3.95429 -1.88593 0
M  V30 18397 C 1793.73 -2.90224 -3.35089 0
M  V30 18398 H 1790.95 -0.543754 -0.393157 0
M  V30 18399 H 1793.49 -1.94875 -0.619996 0
M  V30 18400 H 1791.65 -2.36532 -3.06808 0
M  V30 18401 H 1792.06 -4.53593 -2.63351 0
M  V30 18402 H 1793.54 -3.68018 -4.1142 0
M  V30 18403 H 1794.01 -1.99601 -3.91224 0
M  V30 18404 H 1794.62 -3.22247 -2.77555 0
M  V30 18405 N 1792.94 0.765193 -1.37777 0
M  V30 18406 C 1793.88 1.90005 -1.34168 0
M  V30 18407 C 1794.88 1.6784 -0.229387 0
M  V30 18408 O 1796.08 1.7555 -0.39778 0
M  V30 18409 H 1792.46 0.624939 -0.418276 0
M  V30 18410 H 1794.43 1.90165 -2.29956 0
M  V30 18411 C 1793.18 3.27349 -1.17208 0
M  V30 18412 H 1792.5 3.44985 -2.02053 0
M  V30 18413 H 1793.94 4.07036 -1.18734 0
M  V30 18414 C 1792.4 3.3668 0.121835 0
M  V30 18415 O 1792.93 3.86258 1.10306 0
M  V30 18416 N 1791.14 2.90074 0.174753 0
M  V30 18417 H 1790.68 2.49918 -0.624397 0
M  V30 18418 H 1790.64 2.96697 1.0401 0
M  V30 18419 N 1794.41 1.22455 0.992094 0
M  V30 18420 C 1795.66 1.04752 1.72833 0
M  V30 18421 C 1795.98 -0.418152 1.90464 0
M  V30 18422 O 1795.25 -1.30072 1.46486 0
M  V30 18423 H 1793.83 0.384626 0.640368 0
M  V30 18424 H 1796.49 1.5398 1.19483 0
M  V30 18425 H 1795.59 1.52601 2.72249 0
M  V30 18426 N 1795.89 -1.18905 1.03437 0
M  V30 18427 C 1796.82 -2.21792 0.578016 0
M  V30 18428 C 1797.84 -1.59015 -0.349014 0
M  V30 18429 O 1799.03 -1.77914 -0.144532 0
M  V30 18430 C 1796.13 -3.38441 -0.176348 0
M  V30 18431 C 1795.3 -4.308 0.756988 0
M  V30 18432 C 1794.36 -5.26179 0.0470478 0
M  V30 18433 O 1793.38 -5.65179 0.675418 0
M  V30 18434 N 1794.59 -5.67497 -1.2218 0
M  V30 18435 H 1797.35 -2.6157 1.46291 0
M  V30 18436 H 1794.91 -1.33627 0.914078 0
M  V30 18437 H 1796.9 -3.99266 -0.660972 0
M  V30 18438 H 1795.47 -2.97406 -0.962715 0
M  V30 18439 H 1794.69 -3.67674 1.4216 0
M  V30 18440 H 1795.98 -4.89413 1.39113 0
M  V30 18441 H 1795.38 -5.37855 -1.75295 0
M  V30 18442 H 1793.94 -6.30548 -1.65081 0
M  V30 18443 N 1797.37 -0.812977 -1.35013 0
M  V30 18444 C 1798.3 -0.185443 -2.28449 0
M  V30 18445 C 1799.31 0.618951 -1.50575 0
M  V30 18446 O 1800.5 0.450262 -1.72728 0
M  V30 18447 C 1797.6 0.759419 -3.30282 0
M  V30 18448 C 1796.78 1.09356e-05 -4.374 0
M  V30 18449 C 1795.84 0.864309 -5.19053 0
M  V30 18450 O 1794.86 0.312916 -5.68339 0
M  V30 18451 N 1796.06 2.18551 -5.37788 0
M  V30 18452 H 1798.83 -0.988144 -2.82941 0
M  V30 18453 H 1796.39 -0.669018 -1.47431 0
M  V30 18454 H 1798.38 1.342 -3.81802 0
M  V30 18455 H 1796.95 1.4629 -2.76257 0
M  V30 18456 H 1796.17 -0.763818 -3.86729 0
M  V30 18457 H 1797.46 -0.523125 -5.06104 0
M  V30 18458 H 1796.86 2.65735 -4.99401 0
M  V30 18459 H 1795.41 2.71718 -5.92463 0
M  V30 18460 N 1798.85 1.47045 -0.567045 0
M  V30 18461 C 1800.1 2.02046 -0.0465877 0
M  V30 18462 C 1800.42 1.44271 1.3119 0
M  V30 18463 O 1799.69 0.621533 1.85779 0
M  V30 18464 H 1798.27 0.746864 -0.0142323 0
M  V30 18465 H 1800.93 1.80335 -0.739281 0
M  V30 18466 H 1800.02 3.12081 0.0341623 0
M  V30 18467 N 1800.33 0.304 1.5464 0
M  V30 18468 C 1801.27 -0.586475 2.25085 0
M  V30 18469 C 1802.27 -1.13458 1.25792 0
M  V30 18470 O 1803.47 -1.08487 1.43633 0
M  V30 18471 H 1799.85 -0.20774 0.722737 0
M  V30 18472 H 1801.82 0.0301682 2.98385 0
M  V30 18473 C 1800.57 -1.74539 3.00718 0
M  V30 18474 H 1799.89 -1.33287 3.76928 0
M  V30 18475 H 1801.33 -2.34447 3.53285 0
M  V30 18476 C 1799.79 -2.65132 2.07862 0
M  V30 18477 O 1800.32 -3.6631 1.64863 0
M  V30 18478 N 1798.53 -2.32932 1.73756 0
M  V30 18479 H 1798.07 -1.50698 2.08921 0
M  V30 18480 H 1798.03 -2.93811 1.11904 0
M  V30 18481 N 1801.8 -1.57568 0.0317802 0
M  V30 18482 C 1803.03 -1.9662 -0.659953 0
M  V30 18483 C 1803.45 -0.908334 -1.64715 0
M  V30 18484 O 1802.81 0.130491 -1.8083 0
M  V30 18485 C 1802.86 -3.34765 -1.34033 0
M  V30 18486 O 1801.96 -3.31317 -2.45566 0
M  V30 18487 H 1801.3 -0.641024 -0.17316 0
M  V30 18488 H 1803.83 -2.04382 0.0944231 0
M  V30 18489 H 1803.84 -3.71056 -1.69651 0
M  V30 18490 H 1802.52 -4.11302 -0.616716 0
M  V30 18491 H 1801.1 -3.06746 -2.1204 0
M  V30 18492 N 1803.28 0.241399 -1.5574 0
M  V30 18493 C 1804.21 1.30255 -1.93793 0
M  V30 18494 C 1805.19 1.49923 -0.803563 0
M  V30 18495 O 1806.38 1.62439 -1.06429 0
M  V30 18496 C 1803.51 2.65625 -2.23742 0
M  V30 18497 C 1802.46 2.60645 -3.39483 0
M  V30 18498 C 1801.79 3.99861 -3.54986 0
M  V30 18499 C 1803.09 2.17151 -4.75019 0
M  V30 18500 H 1804.78 0.986532 -2.8268 0
M  V30 18501 H 1802.33 0.473125 -1.36006 0
M  V30 18502 H 1804.28 3.40001 -2.48953 0
M  V30 18503 H 1803.01 2.98874 -1.31688 0
M  V30 18504 H 1801.66 1.88727 -3.14289 0
M  V30 18505 H 1801.31 4.30385 -2.60342 0
M  V30 18506 H 1801.01 3.97415 -4.32822 0
M  V30 18507 H 1802.54 4.75928 -3.82524 0
M  V30 18508 H 1803.95 2.8126 -4.99565 0
M  V30 18509 H 1802.35 2.25805 -5.55996 0
M  V30 18510 H 1803.42 1.12329 -4.7171 0
M  V30 18511 N 1804.76 1.49212 0.507292 0
M  V30 18512 C 1805.67 1.68141 1.63603 0
M  V30 18513 C 1806.69 0.563959 1.64607 0
M  V30 18514 O 1807.86 0.837885 1.83143 0
M  V30 18515 C 1804.93 1.73793 2.99995 0
M  V30 18516 C 1803.99 2.9733 3.09667 0
M  V30 18517 C 1803.22 3.02703 4.39553 0
M  V30 18518 O 1803.44 2.15844 5.27985 0
M  V30 18519 O 1802.38 3.95105 4.54066 0
M  V30 18520 H 1806.2 2.63749 1.50565 0
M  V30 18521 H 1803.79 1.32879 0.682893 0
M  V30 18522 H 1805.67 1.79901 3.81069 0
M  V30 18523 H 1804.35 0.813622 3.13308 0
M  V30 18524 H 1803.25 2.96743 2.27804 0
M  V30 18525 H 1804.59 3.8922 3.01278 0
M  V30 18526 N 1806.24 -0.757876 1.38181 0
M  V30 18527 C 1807.15 -1.90234 1.37289 0
M  V30 18528 C 1808.16 -1.71883 0.270567 0
M  V30 18529 O 1809.34 -1.94881 0.508279 0
M  V30 18530 C 1806.41 -3.25546 1.19251 0
M  V30 18531 C 1805.47 -3.56452 2.39249 0
M  V30 18532 C 1804.7 -4.85308 2.22063 0
M  V30 18533 O 1804.92 -5.57373 1.2121 0
M  V30 18534 O 1803.86 -5.15594 3.10558 0
M  V30 18535 H 1807.68 -1.9394 2.33711 0
M  V30 18536 H 1805.27 -0.902559 1.19056 0
M  V30 18537 H 1807.15 -4.06454 1.11235 0
M  V30 18538 H 1805.82 -3.22661 0.259109 0
M  V30 18539 H 1804.73 -2.75723 2.52839 0
M  V30 18540 H 1806.06 -3.64094 3.31205 0
M  V30 18541 N 1807.72 -1.22979 -0.985586 0
M  V30 18542 C 1808.96 -1.06033 -1.72872 0
M  V30 18543 C 1809.3 0.402572 -1.89982 0
M  V30 18544 O 1808.57 1.29824 -1.44831 0
M  V30 18545 C 1808.85 -1.78047 -3.13004 0
M  V30 18546 C 1808.71 -3.31979 -3.03497 0
M  V30 18547 C 1810.03 -1.53877 -4.12323 0
M  V30 18548 H 1807.14 -0.386594 -0.627466 0
M  V30 18549 H 1809.79 -1.51416 -1.14775 0
M  V30 18550 H 1807.94 -1.39469 -3.62603 0
M  V30 18551 H 1809.61 -3.80047 -2.61462 0
M  V30 18552 H 1807.85 -3.61279 -2.40125 0
M  V30 18553 H 1808.52 -3.7755 -4.02691 0
M  V30 18554 H 1811 -1.87402 -3.7151 0
M  V30 18555 H 1809.87 -2.06749 -5.08474 0
M  V30 18556 H 1810.14 -0.472972 -4.39563 0
M  V30 18557 N 1809.19 1.18355 -1.04066 0
M  V30 18558 C 1810.44 1.88614 -0.745148 0
M  V30 18559 C 1810.77 1.80147 0.725294 0
M  V30 18560 O 1810.05 1.20177 1.5293 0
M  V30 18561 C 1810.33 3.39095 -1.2119 0
M  V30 18562 C 1810.18 3.56372 -2.74444 0
M  V30 18563 C 1811.5 4.32732 -0.801953 0
M  V30 18564 H 1808.62 0.684905 -0.272166 0
M  V30 18565 H 1811.26 1.39248 -1.29267 0
M  V30 18566 H 1809.41 3.81269 -0.746091 0
M  V30 18567 H 1811.09 3.2329 -3.29061 0
M  V30 18568 H 1809.33 2.99028 -3.14269 0
M  V30 18569 H 1810 4.61956 -3.0216 0
M  V30 18570 H 1812.48 3.98337 -1.20278 0
M  V30 18571 H 1811.35 5.36583 -1.15628 0
M  V30 18572 H 1811.61 4.41115 0.294907 0
M  V30 18573 N 1810.67 0.820125 1.3458 0
M  V30 18574 C 1811.62 0.212417 2.27008 0
M  V30 18575 C 1812.61 -0.621679 1.48405 0
M  V30 18576 O 1813.8 -0.476717 1.70459 0
M  V30 18577 C 1810.93 -0.627099 3.37524 0
M  V30 18578 C 1810.01 0.217471 4.23542 0
M  V30 18579 N 1810.4 1.28711 4.89149 0
M  V30 18580 C 1808.7 0.00134142 4.46 0
M  V30 18581 C 1809.4 1.80387 5.53024 0
M  V30 18582 N 1808.38 1.10819 5.32184 0
M  V30 18583 H 1812.18 1.03066 2.75236 0
M  V30 18584 H 1809.7 0.662649 1.48266 0
M  V30 18585 H 1811.69 -1.07861 4.02705 0
M  V30 18586 H 1810.35 -1.44353 2.90847 0
M  V30 18587 H 1811.36 1.66989 4.9024 0
M  V30 18588 H 1808.04 -0.783152 4.10089 0
M  V30 18589 H 1809.43 2.69858 6.15326 0
M  V30 18590 N 1812.15 -1.46743 0.574835 0
M  V30 18591 C 1813.11 -2.28691 -0.152633 0
M  V30 18592 C 1814.11 -1.37949 -0.826238 0
M  V30 18593 O 1815.3 -1.60405 -0.679398 0
M  V30 18594 C 1812.44 -3.1812 -1.22525 0
M  V30 18595 H 1813.63 -2.94483 0.567439 0
M  V30 18596 H 1811.18 -1.52723 0.33248 0
M  V30 18597 H 1811.92 -2.57058 -1.97716 0
M  V30 18598 H 1811.7 -3.84922 -0.746841 0
M  V30 18599 H 1813.19 -3.7982 -1.7357 0
M  V30 18600 N 1813.63 -0.312197 -1.54477 0
M  V30 18601 C 1814.91 0.347462 -1.92489 0
M  V30 18602 C 1815.29 1.70797 -1.24063 0
M  V30 18603 O 1814.63 2.25313 -0.380296 0
M  V30 18604 C 1814.84 0.450992 -3.46074 0
M  V30 18605 C 1816.19 0.716618 -4.18509 0
M  V30 18606 O 1817.22 0.534364 -3.52169 0
M  V30 18607 O 1816.07 1.06744 -5.35974 0
M  V30 18608 H 1813.17 0.196248 -0.803378 0
M  V30 18609 H 1815.71 -0.361078 -1.65814 0
M  V30 18610 H 1814.49 -0.504982 -3.88028 0
M  V30 18611 H 1814.11 1.20756 -3.78819 0
M  V30 18612 N 1815.11 1.57549 -0.040136 0
M  V30 18613 C 1816.04 2.07803 0.966975 0
M  V30 18614 C 1817.05 1.00363 1.28184 0
M  V30 18615 O 1818.24 1.27957 1.24456 0
M  V30 18616 C 1815.34 2.49688 2.29149 0
M  V30 18617 C 1814.51 3.80336 2.16017 0
M  V30 18618 C 1813.57 4.08652 3.31497 0
M  V30 18619 O 1812.6 4.78739 3.07892 0
M  V30 18620 N 1813.8 3.59693 4.55633 0
M  V30 18621 H 1816.57 2.94829 0.538115 0
M  V30 18622 H 1814.13 1.61237 0.146368 0
M  V30 18623 H 1816.12 2.65715 3.0525 0
M  V30 18624 H 1814.69 1.67969 2.63638 0
M  V30 18625 H 1813.91 3.73998 1.24575 0
M  V30 18626 H 1815.2 4.65912 2.04458 0
M  V30 18627 H 1814.59 3.03012 4.77703 0
M  V30 18628 H 1813.15 3.80978 5.28866 0
M  V30 18629 N 1816.58 -0.233136 1.55866 0
M  V30 18630 C 1817.81 -0.980602 1.82754 0
M  V30 18631 C 1818.23 -1.77624 0.618988 0
M  V30 18632 O 1817.59 -1.76074 -0.432148 0
M  V30 18633 C 1817.64 -1.88319 3.07519 0
M  V30 18634 O 1816.74 -2.97692 2.85401 0
M  V30 18635 H 1816.09 -0.278295 0.602867 0
M  V30 18636 H 1818.62 -0.249956 2.03067 0
M  V30 18637 H 1818.63 -2.29523 3.37318 0
M  V30 18638 H 1817.3 -1.29831 3.95116 0
M  V30 18639 H 1815.88 -2.60517 2.66805 0
M  V30 18640 N 1818.06 -1.49479 -0.499372 0
M  V30 18641 C 1819.29 -1.63025 -1.28209 0
M  V30 18642 C 1819.71 -0.302238 -1.85656 0
M  V30 18643 O 1819.07 0.730355 -1.65938 0
M  V30 18644 C 1819.12 -2.70287 -2.38699 0
M  V30 18645 O 1818.22 -2.29573 -3.42593 0
M  V30 18646 H 1817.56 -0.545605 -0.378432 0
M  V30 18647 H 1820.09 -1.95677 -0.597628 0
M  V30 18648 H 1820.1 -2.92505 -2.84438 0
M  V30 18649 H 1818.78 -3.66684 -1.96253 0
M  V30 18650 H 1817.36 -2.17692 -3.02761 0
M  V30 18651 N 1819.54 0.750537 -1.38581 0
M  V30 18652 C 1820.78 1.52254 -1.36374 0
M  V30 18653 C 1821.15 1.91947 0.0452405 0
M  V30 18654 O 1822.35 2.68112 0.192202 0
M  V30 18655 C 1820.62 2.73944 -2.29542 0
M  V30 18656 S 1822.18 3.63776 -2.45382 0
M  V30 18657 H 1818.99 0.520989 -0.48383 0
M  V30 18658 H 1821.6 0.88079 -1.74535 0
M  V30 18659 H 1820.3 2.42898 -3.308 0
M  V30 18660 H 1819.83 3.43062 -1.92541 0
M  V30 18661 H 1821.85 4.66889 -1.68016 0
M  V30 18662 N 1821.02 1.235 0.979051 0
M  V30 18663 C 1822.25 1.09462 1.75572 0
M  V30 18664 C 1822.66 -0.3538 1.85455 0
M  V30 18665 O 1822.02 -1.24467 1.3347 0
M  V30 18666 C 1822.07 1.71562 3.18196 0
M  V30 18667 O 1821.79 3.1074 3.08824 0
M  V30 18668 C 1823.29 1.62984 4.12251 0
M  V30 18669 H 1820.51 0.383013 0.550946 0
M  V30 18670 H 1823.06 1.63378 1.22995 0
M  V30 18671 H 1821.21 1.21676 3.67796 0
M  V30 18672 H 1821.63 3.40888 3.98617 0
M  V30 18673 H 1823.1 2.11135 5.10025 0
M  V30 18674 H 1823.58 0.588907 4.35234 0
M  V30 18675 H 1824.18 2.12242 3.68556 0
M  V30 18676 N 1822.5 -1.17802 1.04693 0
M  V30 18677 C 1823.74 -1.87938 0.754024 0
M  V30 18678 C 1824.07 -1.80737 -0.718644 0
M  V30 18679 O 1823.33 -1.20657 -1.54079 0
M  V30 18680 C 1823.63 -3.37585 1.17349 0
M  V30 18681 C 1823.29 -3.6499 2.64751 0
M  V30 18682 C 1821.95 -3.72179 3.05019 0
M  V30 18683 C 1824.31 -3.76869 3.60027 0
M  V30 18684 C 1821.63 -3.88731 4.39437 0
M  V30 18685 C 1823.99 -3.94939 4.94172 0
M  V30 18686 C 1822.65 -4.00365 5.34101 0
M  V30 18687 H 1821.92 -0.687714 0.275917 0
M  V30 18688 H 1824.57 -1.39392 1.31309 0
M  V30 18689 H 1822.87 -3.88153 0.533333 0
M  V30 18690 H 1824.57 -3.90206 0.924134 0
M  V30 18691 H 1821.16 -3.60016 2.32565 0
M  V30 18692 H 1825.34 -3.70641 3.30059 0
M  V30 18693 H 1820.6 -3.91179 4.69882 0
M  V30 18694 H 1824.77 -4.03072 5.67896 0
M  V30 18695 H 1822.4 -4.12944 6.38264 0
M  V30 18696 N 1823.98 -0.827251 -1.34143 0
M  V30 18697 C 1825.25 -0.339793 -1.92626 0
M  V30 18698 C 1825.63 1.17342 -1.75482 0
M  V30 18699 O 1824.98 1.98251 -1.13616 0
M  V30 18700 C 1825.19 -0.773891 -3.40312 0
M  V30 18701 C 1826.54 -0.77521 -4.17463 0
M  V30 18702 O 1827.56 -0.716748 -3.48914 0
M  V30 18703 O 1826.42 -0.852347 -5.39812 0
M  V30 18704 H 1823.52 -0.0937486 -0.821669 0
M  V30 18705 H 1826.06 -0.91233 -1.4309 0
M  V30 18706 H 1824.83 -1.81597 -3.46609 0
M  V30 18707 H 1824.46 -0.177287 -3.97205 0
M  V30 18708 N 1825.45 1.46436 -0.582609 0
M  V30 18709 C 1826.4 2.32025 0.163475 0
M  V30 18710 C 1827.4 1.44476 0.884478 0
M  V30 18711 O 1828.6 1.61102 0.802878 0
M  V30 18712 H 1824.98 0.748585 0.0715868 0
M  V30 18713 H 1826.95 2.92764 -0.577205 0
M  V30 18714 C 1825.7 3.2764 1.16392 0
M  V30 18715 H 1825.02 3.94986 0.618553 0
M  V30 18716 H 1826.46 3.90308 1.65636 0
M  V30 18717 C 1824.92 2.52986 2.22486 0
M  V30 18718 O 1825.45 2.29283 3.29837 0
M  V30 18719 N 1823.65 2.1355 1.97091 0
M  V30 18720 H 1823.2 2.33027 1.09801 0
M  V30 18721 H 1823.16 1.63919 2.68287 0
M  V30 18722 N 1826.93 0.320385 1.54309 0
M  V30 18723 C 1827.86 -0.539789 2.27175 0
M  V30 18724 C 1828.84 -1.12198 1.2785 0
M  V30 18725 O 1830.03 -1.1477 1.56657 0
M  V30 18726 C 1827.16 -1.70236 3.02716 0
M  V30 18727 C 1826.11 -1.24962 4.09351 0
M  V30 18728 C 1825.44 -2.49888 4.72715 0
M  V30 18729 C 1826.74 -0.366788 5.21011 0
M  V30 18730 H 1828.43 0.0680079 2.99323 0
M  V30 18731 H 1825.98 0.0341488 1.4396 0
M  V30 18732 H 1827.93 -2.31037 3.5242 0
M  V30 18733 H 1826.65 -2.33669 2.2818 0
M  V30 18734 H 1825.31 -0.664556 3.60526 0
M  V30 18735 H 1824.96 -3.11679 3.94798 0
M  V30 18736 H 1824.66 -2.20288 5.44745 0
M  V30 18737 H 1826.19 -3.11458 5.25192 0
M  V30 18738 H 1827.6 -0.881001 5.6649 0
M  V30 18739 H 1826 -0.163707 5.99877 0
M  V30 18740 H 1827.07 0.603185 4.81134 0
M  V30 18741 N 1828.41 -1.57525 0.0484906 0
M  V30 18742 C 1829.63 -1.97309 -0.639062 0
M  V30 18743 C 1830.06 -0.925753 -1.63742 0
M  V30 18744 O 1829.42 0.111304 -1.80958 0
M  V30 18745 C 1829.47 -3.36168 -1.30475 0
M  V30 18746 O 1828.57 -3.33903 -2.42038 0
M  V30 18747 H 1827.91 -0.642824 -0.166351 0
M  V30 18748 H 1830.44 -2.0427 0.116095 0
M  V30 18749 H 1830.45 -3.72835 -1.65705 0
M  V30 18750 H 1829.13 -4.11933 -0.573057 0
M  V30 18751 H 1827.7 -3.08978 -2.08775 0
M  V30 18752 N 1829.89 0.224867 -1.55988 0
M  V30 18753 C 1831.3 0.792138 -1.69062 0
M  V30 18754 C 1831.65 1.85123 -0.649908 0
M  V30 18755 O 1830.77 2.15477 0.199614 0
M  V30 18756 C 1831.37 1.44361 -3.06505 0
M  V30 18757 C 1829.93 1.95831 -3.21446 0
M  V30 18758 C 1829.08 0.81728 -2.64983 0
M  V30 18759 H 1832.03 0.000270833 -1.587 0
M  V30 18760 H 1832.05 2.31233 -3.02178 0
M  V30 18761 H 1831.56 0.672544 -3.82228 0
M  V30 18762 H 1829.66 2.75749 -2.50586 0
M  V30 18763 H 1829.77 2.14056 -4.28622 0
M  V30 18764 H 1828.14 1.22371 -2.23377 0
M  V30 18765 H 1828.92 0.058944 -3.43249 0
M  V30 18766 N 1831.37 1.49742 0.491438 0
M  V30 18767 C 1832.61 1.59395 1.24248 0
M  V30 18768 C 1832.93 0.286934 1.92877 0
M  V30 18769 O 1832.2 -0.694353 1.83182 0
M  V30 18770 H 1830.78 0.587313 0.461598 0
M  V30 18771 H 1833.45 1.86417 0.56873 0
M  V30 18772 H 1832.54 2.39487 2.00131 0
M  V30 18773 N 1832.84 -0.743177 1.38977 0
M  V30 18774 C 1833.77 -1.87047 1.3977 0
M  V30 18775 C 1834.76 -1.68068 0.262161 0
M  V30 18776 O 1835.94 -1.88507 0.466782 0
M  V30 18777 C 1833.07 -3.24701 1.23234 0
M  V30 18778 C 1832.02 -3.58302 2.34102 0
M  V30 18779 C 1831.35 -4.94805 2.02663 0
M  V30 18780 C 1832.65 -3.62111 3.76395 0
M  V30 18781 H 1834.34 -1.8664 2.34107 0
M  V30 18782 H 1831.89 -0.896541 1.12686 0
M  V30 18783 H 1833.84 -4.03228 1.22412 0
M  V30 18784 H 1832.57 -3.25614 0.253638 0
M  V30 18785 H 1831.23 -2.82099 2.34128 0
M  V30 18786 H 1830.87 -4.92289 1.0325 0
M  V30 18787 H 1830.57 -5.18254 2.76922 0
M  V30 18788 H 1832.1 -5.75699 2.03477 0
M  V30 18789 H 1833.51 -4.30731 3.78343 0
M  V30 18790 H 1831.91 -3.97075 4.49946 0
M  V30 18791 H 1832.98 -2.62099 4.07961 0
M  V30 18792 N 1834.32 -1.24018 -0.972487 0
M  V30 18793 C 1835.23 -1.04527 -2.10027 0
M  V30 18794 C 1836.25 0.0125372 -1.73995 0
M  V30 18795 O 1837.42 -0.184615 -2.00552 0
M  V30 18796 C 1834.49 -0.647264 -3.40604 0
M  V30 18797 C 1833.55 -1.78102 -3.90613 0
M  V30 18798 C 1832.78 -1.4019 -5.14959 0
M  V30 18799 O 1833.01 -0.289608 -5.69664 0
M  V30 18800 O 1831.94 -2.22583 -5.59232 0
M  V30 18801 H 1835.77 -1.99064 -2.29363 0
M  V30 18802 H 1833.35 -1.02794 -1.08414 0
M  V30 18803 H 1835.23 -0.436606 -4.19132 0
M  V30 18804 H 1833.91 0.269025 -3.2258 0
M  V30 18805 H 1832.82 -2.04638 -3.13168 0
M  V30 18806 H 1834.15 -2.67591 -4.13105 0
M  V30 18807 N 1835.8 1.17245 -1.05316 0
M  V30 18808 C 1837.03 1.91176 -0.783273 0
M  V30 18809 C 1837.44 1.77128 0.664996 0
M  V30 18810 O 1836.78 1.10682 1.46612 0
M  V30 18811 C 1836.84 3.42708 -1.0859 0
M  V30 18812 C 1836.51 3.80539 -2.5306 0
M  V30 18813 C 1837.5 3.8328 -3.51272 0
M  V30 18814 C 1835.19 4.11464 -2.88102 0
M  V30 18815 C 1837.18 4.16418 -4.82571 0
M  V30 18816 C 1834.87 4.44271 -4.19603 0
M  V30 18817 C 1835.87 4.46726 -5.16648 0
M  V30 18818 O 1835.56 4.7876 -6.4579 0
M  V30 18819 H 1835.29 0.613371 -0.284169 0
M  V30 18820 H 1837.84 1.49608 -1.40736 0
M  V30 18821 H 1836.07 3.84576 -0.404716 0
M  V30 18822 H 1837.76 3.97901 -0.801827 0
M  V30 18823 H 1838.53 3.59511 -3.25541 0
M  V30 18824 H 1834.41 4.08723 -2.13228 0
M  V30 18825 H 1837.95 4.1825 -5.58313 0
M  V30 18826 H 1833.85 4.67503 -4.45097 0
M  V30 18827 H 1834.62 4.96612 -6.5063 0
M  V30 18828 N 1837.28 0.834353 1.33702 0
M  V30 18829 C 1838.23 0.252818 2.31222 0
M  V30 18830 C 1839.22 -0.612723 1.57931 0
M  V30 18831 O 1840.43 -0.502788 1.72835 0
M  V30 18832 H 1836.8 0.0630243 0.749354 0
M  V30 18833 H 1838.77 1.08992 2.77783 0
M  V30 18834 C 1837.52 -0.561132 3.43142 0
M  V30 18835 H 1836.84 0.0955723 3.99686 0
M  V30 18836 H 1838.28 -0.933951 4.13586 0
M  V30 18837 C 1836.74 -1.73817 2.88599 0
M  V30 18838 O 1837.27 -2.83674 2.84415 0
M  V30 18839 N 1835.48 -1.5586 2.45267 0
M  V30 18840 H 1835.03 -0.664959 2.4887 0
M  V30 18841 H 1834.98 -2.34764 2.09125 0
M  V30 18842 N 1838.76 -1.46125 0.590367 0
M  V30 18843 C 1840 -2.02646 0.0789983 0
M  V30 18844 C 1840.34 -1.45996 -1.28058 0
M  V30 18845 O 1839.61 -0.627981 -1.84083 0
M  V30 18846 C 1839.89 -3.60094 0.0214749 0
M  V30 18847 C 1839.75 -4.27112 1.41049 0
M  V30 18848 C 1841.07 -4.34889 -0.675236 0
M  V30 18849 H 1838.18 -0.736382 0.0301818 0
M  V30 18850 H 1840.83 -1.7418 0.759037 0
M  V30 18851 H 1838.98 -3.84477 -0.557648 0
M  V30 18852 H 1840.65 -4.13969 2.03537 0
M  V30 18853 H 1838.89 -3.86178 1.97607 0
M  V30 18854 H 1839.56 -5.3592 1.32264 0
M  V30 18855 H 1842.04 -4.15697 -0.183176 0
M  V30 18856 H 1840.91 -5.44615 -0.684538 0
M  V30 18857 H 1841.18 -4.06503 -1.73804 0
M  V30 18858 N 1840.23 -0.328564 -1.54137 0
M  V30 18859 C 1841.46 0.277044 -2.05541 0
M  V30 18860 C 1841.88 1.44613 -1.20285 0
M  V30 18861 O 1841.24 1.80043 -0.213107 0
M  V30 18862 C 1841.29 0.684495 -3.54044 0
M  V30 18863 O 1840.39 1.78629 -3.71706 0
M  V30 18864 H 1839.74 0.049078 -0.662184 0
M  V30 18865 H 1842.27 -0.478426 -1.98928 0
M  V30 18866 H 1842.28 0.965784 -3.96405 0
M  V30 18867 H 1840.95 -0.170554 -4.1555 0
M  V30 18868 H 1839.53 1.50343 -3.4125 0
M  V30 18869 N 1841.71 1.57497 -0.0568439 0
M  V30 18870 C 1842.96 1.932 0.61658 0
M  V30 18871 C 1843.29 0.935936 1.70158 0
M  V30 18872 O 1842.57 -0.0372005 1.94464 0
M  V30 18873 C 1842.85 3.39254 1.20742 0
M  V30 18874 C 1842.7 4.49612 0.130081 0
M  V30 18875 C 1844.02 3.85817 2.11738 0
M  V30 18876 H 1841.14 0.702558 0.222668 0
M  V30 18877 H 1843.78 1.89622 -0.119765 0
M  V30 18878 H 1841.93 3.42434 1.83497 0
M  V30 18879 H 1843.6 4.58559 -0.502172 0
M  V30 18880 H 1841.85 4.30411 -0.541167 0
M  V30 18881 H 1842.52 5.48906 0.583606 0
M  V30 18882 H 1844.99 3.8455 1.58936 0
M  V30 18883 H 1843.87 4.88653 2.50019 0
M  V30 18884 H 1844.13 3.22899 3.01974 0
M  V30 18885 N 1843.19 -0.216591 1.56105 0
M  V30 18886 C 1844.42 -0.955625 1.8317 0
M  V30 18887 C 1844.83 -1.78247 0.634397 0
M  V30 18888 O 1844.17 -1.79148 -0.406391 0
M  V30 18889 C 1844.23 -1.91834 3.04039 0
M  V30 18890 C 1843.9 -1.27553 4.38838 0
M  V30 18891 C 1844.89 -0.662972 5.15656 0
M  V30 18892 C 1842.58 -1.28582 4.85564 0
M  V30 18893 C 1844.57 -0.0692674 6.37362 0
M  V30 18894 C 1842.26 -0.688269 6.07212 0
M  V30 18895 C 1843.26 -0.0810524 6.82952 0
M  V30 18896 O 1842.95 0.507186 8.02298 0
M  V30 18897 H 1842.68 -0.285405 0.612797 0
M  V30 18898 H 1845.23 -0.235419 2.04046 0
M  V30 18899 H 1843.46 -2.67767 2.78994 0
M  V30 18900 H 1845.15 -2.52334 3.17934 0
M  V30 18901 H 1845.92 -0.647319 4.80661 0
M  V30 18902 H 1841.8 -1.74784 4.26581 0
M  V30 18903 H 1845.34 0.405305 6.96422 0
M  V30 18904 H 1841.24 -0.701352 6.41679 0
M  V30 18905 H 1842.01 0.401989 8.17512 0
M  V30 18906 N 1844.67 -1.5 -0.48349 0
M  V30 18907 C 1845.9 -1.64105 -1.26004 0
M  V30 18908 C 1846.31 -0.319389 -1.86079 0
M  V30 18909 O 1845.67 0.697243 -1.68656 0
M  V30 18910 C 1845.72 -2.72299 -2.37772 0
M  V30 18911 O 1845.44 -3.99341 -1.80163 0
M  V30 18912 C 1846.94 -2.97266 -3.28858 0
M  V30 18913 H 1844.16 -0.551971 -0.381535 0
M  V30 18914 H 1846.71 -1.96146 -0.57852 0
M  V30 18915 H 1844.86 -2.42987 -3.01722 0
M  V30 18916 H 1845.27 -4.59077 -2.5367 0
M  V30 18917 H 1846.75 -3.76662 -4.03521 0
M  V30 18918 H 1847.23 -2.07855 -3.86902 0
M  V30 18919 H 1847.83 -3.28062 -2.70657 0
M  V30 18920 N 1846.15 0.735796 -1.39369 0
M  V30 18921 C 1847.39 1.49756 -1.36752 0
M  V30 18922 C 1847.73 1.94165 0.036815 0
M  V30 18923 O 1847 1.66728 1.00159 0
M  V30 18924 C 1847.28 2.73779 -2.33916 0
M  V30 18925 C 1847.14 2.35394 -3.83288 0
M  V30 18926 C 1848.46 3.75875 -2.28924 0
M  V30 18927 H 1845.57 0.543236 -0.49806 0
M  V30 18928 H 1848.22 0.841381 -1.70355 0
M  V30 18929 H 1846.37 3.29768 -2.05391 0
M  V30 18930 H 1848.04 1.85043 -4.2256 0
M  V30 18931 H 1846.28 1.67632 -4.00102 0
M  V30 18932 H 1846.95 3.24206 -4.4676 0
M  V30 18933 H 1849.43 3.29469 -2.54144 0
M  V30 18934 H 1848.3 4.60321 -2.98991 0
M  V30 18935 H 1848.57 4.22739 -1.29399 0
M  V30 18936 N 1847.63 1.24532 0.965897 0
M  V30 18937 C 1848.57 1.03929 2.06076 0
M  V30 18938 C 1849.54 -0.0479997 1.66031 0
M  V30 18939 O 1850.73 0.106979 1.905 0
M  V30 18940 C 1847.87 0.652084 3.38883 0
M  V30 18941 C 1846.98 1.81304 3.92113 0
M  V30 18942 C 1846.12 1.37125 5.13196 0
M  V30 18943 C 1845.15 2.50204 5.58627 0
M  V30 18944 N 1844.29 2.0688 6.70929 0
M  V30 18945 H 1849.13 1.97636 2.23033 0
M  V30 18946 H 1846.67 0.984356 1.09311 0
M  V30 18947 H 1848.63 0.408608 4.15194 0
M  V30 18948 H 1847.26 -0.247995 3.21846 0
M  V30 18949 H 1846.31 2.17013 3.12425 0
M  V30 18950 H 1847.62 2.66264 4.21788 0
M  V30 18951 H 1846.77 1.08676 5.96887 0
M  V30 18952 H 1845.51 0.492215 4.8521 0
M  V30 18953 H 1844.52 2.7941 4.73508 0
M  V30 18954 H 1845.74 3.38667 5.88627 0
M  V30 18955 H 1843.69 1.21377 6.44673 0
M  V30 18956 H 1843.61 2.85392 7.00062 0
M  V30 18957 H 1844.87 1.81575 7.58057 0
M  V30 18958 N 1849.1 -1.16685 1.05936 0
M  V30 18959 C 1850.38 -1.8312 0.6875 0
M  V30 18960 C 1850.76 -1.94035 -0.831474 0
M  V30 18961 O 1850.11 -1.48067 -1.74036 0
M  V30 18962 C 1850.32 -3.20331 1.38524 0
M  V30 18963 C 1851.67 -3.96149 1.52811 0
M  V30 18964 O 1852.69 -3.29837 1.34485 0
M  V30 18965 O 1851.55 -5.15005 1.82845 0
M  V30 18966 H 1848.64 -0.790513 0.242937 0
M  V30 18967 H 1851.19 -1.23918 1.15941 0
M  V30 18968 H 1849.96 -3.074 2.42118 0
M  V30 18969 H 1849.58 -3.87206 0.903164 0
M  V30 18970 N 1850.58 -0.841432 -1.33258 0
M  V30 18971 C 1851.86 -0.360204 -1.92255 0
M  V30 18972 C 1852.24 1.15474 -1.76717 0
M  V30 18973 O 1851.59 1.97035 -1.15713 0
M  V30 18974 C 1851.8 -0.809942 -3.39472 0
M  V30 18975 C 1853.14 -0.819444 -4.16618 0
M  V30 18976 O 1854.17 -0.753715 -3.48134 0
M  V30 18977 O 1853.03 -0.909553 -5.38878 0
M  V30 18978 H 1850.12 -0.102458 -0.820629 0
M  V30 18979 H 1852.67 -0.927455 -1.42114 0
M  V30 18980 H 1851.44 -1.85263 -3.44664 0
M  V30 18981 H 1851.06 -0.219406 -3.96994 0
M  V30 18982 N 1852.06 1.4581 -0.598108 0
M  V30 18983 C 1853.01 2.30454 0.126261 0
M  V30 18984 C 1853.98 1.41541 0.869221 0
M  V30 18985 O 1855.16 1.70478 0.856841 0
M  V30 18986 C 1852.3 3.26285 1.12393 0
M  V30 18987 C 1851.41 4.303 0.382824 0
M  V30 18988 C 1850.55 5.13246 1.36937 0
M  V30 18989 C 1849.59 6.08997 0.615545 0
M  V30 18990 N 1848.73 6.84756 1.55091 0
M  V30 18991 H 1853.57 2.91865 -0.601573 0
M  V30 18992 H 1851.1 1.43829 -0.308467 0
M  V30 18993 H 1853.06 3.80303 1.71539 0
M  V30 18994 H 1851.69 2.66649 1.81929 0
M  V30 18995 H 1850.74 3.79018 -0.323962 0
M  V30 18996 H 1852.05 4.98375 -0.205781 0
M  V30 18997 H 1851.21 5.71618 2.03318 0
M  V30 18998 H 1849.95 4.45168 1.99191 0
M  V30 18999 H 1848.95 5.49765 -0.0619441 0
M  V30 19000 H 1850.18 6.791 -0.00181251 0
M  V30 19001 H 1848.12 6.19375 2.16127 0
M  V30 19002 H 1848.04 7.49149 1.0155 0
M  V30 19003 H 1849.31 7.47675 2.20458 0
M  V30 19004 N 1853.54 0.336733 1.53961 0
M  V30 19005 C 1854.45 -0.531812 2.28493 0
M  V30 19006 C 1855.46 -1.11784 1.33343 0
M  V30 19007 O 1856.64 -1.13499 1.66373 0
M  V30 19008 C 1853.7 -1.67031 3.03812 0
M  V30 19009 C 1852.77 -1.11475 4.14574 0
M  V30 19010 C 1852 -2.19898 4.86292 0
M  V30 19011 O 1852.22 -3.40492 4.57625 0
M  V30 19012 O 1851.16 -1.84576 5.72901 0
M  V30 19013 H 1854.98 0.0738624 3.0361 0
M  V30 19014 H 1852.57 0.101996 1.49051 0
M  V30 19015 H 1854.45 -2.33286 3.50936 0
M  V30 19016 H 1853.12 -2.26192 2.31558 0
M  V30 19017 H 1852.03 -0.416915 3.7177 0
M  V30 19018 H 1853.36 -0.568092 4.88911 0
M  V30 19019 N 1855.02 -1.57465 0.0651956 0
M  V30 19020 C 1856.24 -1.97975 -0.618099 0
M  V30 19021 C 1856.67 -0.943068 -1.62751 0
M  V30 19022 O 1856.02 0.0921045 -1.81066 0
M  V30 19023 C 1856.07 -3.37533 -1.26902 0
M  V30 19024 O 1855.18 -3.36451 -2.38483 0
M  V30 19025 H 1854.52 -0.644553 -0.159524 0
M  V30 19026 H 1857.05 -2.04136 0.137754 0
M  V30 19027 H 1857.06 -3.74571 -1.61742 0
M  V30 19028 H 1855.73 -4.12518 -0.529334 0
M  V30 19029 H 1854.31 -3.11175 -2.05486 0
M  V30 19030 N 1856.49 0.20831 -1.56217 0
M  V30 19031 C 1857.74 0.932104 -1.8011 0
M  V30 19032 C 1858.07 1.83453 -0.637061 0
M  V30 19033 O 1857.35 1.91081 0.363066 0
M  V30 19034 C 1857.63 1.7597 -3.14176 0
M  V30 19035 C 1857.48 0.882874 -4.4105 0
M  V30 19036 C 1858.8 2.7349 -3.44806 0
M  V30 19037 H 1855.92 0.337428 -0.655218 0
M  V30 19038 H 1858.56 0.2002 -1.88942 0
M  V30 19039 H 1856.71 2.38369 -3.06778 0
M  V30 19040 H 1858.39 0.274607 -4.60482 0
M  V30 19041 H 1856.63 0.188921 -4.33388 0
M  V30 19042 H 1857.3 1.49662 -5.31324 0
M  V30 19043 H 1859.78 2.21225 -3.52418 0
M  V30 19044 H 1858.65 3.28489 -4.39757 0
M  V30 19045 H 1858.91 3.51887 -2.67635 0
M  V30 19046 N 1857.97 1.50255 0.475528 0
M  V30 19047 C 1859.38 1.53931 1.05651 0
M  V30 19048 C 1859.73 0.340226 1.93228 0
M  V30 19049 O 1858.86 -0.547349 2.09363 0
M  V30 19050 C 1859.45 2.78951 1.92281 0
M  V30 19051 C 1858.01 2.85323 2.45495 0
M  V30 19052 C 1857.16 2.48166 1.2373 0
M  V30 19053 H 1860.11 1.56583 0.258332 0
M  V30 19054 H 1860.13 2.60555 2.77293 0
M  V30 19055 H 1859.64 3.66205 1.28514 0
M  V30 19056 H 1857.74 2.0241 3.12827 0
M  V30 19057 H 1857.86 3.88109 2.80906 0
M  V30 19058 H 1856.22 2.00505 1.57066 0
M  V30 19059 H 1857 3.37722 0.616324 0
M  V30 19060 N 1859.45 -0.728395 1.39758 0
M  V30 19061 C 1860.7 -1.48357 1.3665 0
M  V30 19062 C 1861.01 -1.95573 -0.0325759 0
M  V30 19063 O 1862.22 -2.7086 -0.186252 0
M  V30 19064 C 1860.67 -2.68105 2.40099 0
M  V30 19065 C 1860.28 -2.27812 3.85754 0
M  V30 19066 C 1862.03 -3.45899 2.46077 0
M  V30 19067 C 1859.93 -3.44322 4.80828 0
M  V30 19068 H 1858.86 -0.557138 0.508048 0
M  V30 19069 H 1861.51 -0.793948 1.65435 0
M  V30 19070 H 1859.9 -3.39174 2.04394 0
M  V30 19071 H 1861.07 -1.64246 4.30534 0
M  V30 19072 H 1859.38 -1.63094 3.83131 0
M  V30 19073 H 1861.98 -4.32573 3.143 0
M  V30 19074 H 1862.32 -3.88824 1.48732 0
M  V30 19075 H 1862.86 -2.81864 2.80709 0
M  V30 19076 H 1859.6 -3.06441 5.7946 0
M  V30 19077 H 1859.12 -4.06847 4.40722 0
M  V30 19078 H 1860.8 -4.10567 5.00044 0
M  V30 19079 N 1860.93 -1.25042 -0.959279 0
M  V30 19080 C 1862.15 -1.12339 -1.74341 0
M  V30 19081 C 1862.58 0.319342 -1.85369 0
M  V30 19082 O 1861.94 1.23129 -1.33075 0
M  V30 19083 C 1861.98 -1.77734 -3.13756 0
M  V30 19084 O 1861.09 -1.05383 -3.98708 0
M  V30 19085 H 1860.43 -0.392479 -0.535589 0
M  V30 19086 H 1862.96 -1.65516 -1.20274 0
M  V30 19087 H 1862.97 -1.83832 -3.64239 0
M  V30 19088 H 1861.64 -2.82702 -3.05045 0
M  V30 19089 H 1860.22 -1.07132 -3.57179 0
M  V30 19090 N 1862.41 1.16121 -1.06553 0
M  V30 19091 C 1863.68 1.82752 -0.697202 0
M  V30 19092 C 1864.06 1.94474 0.821172 0
M  V30 19093 O 1863.41 1.48988 1.73248 0
M  V30 19094 C 1863.62 3.19592 -1.4022 0
M  V30 19095 C 1864.97 3.95333 -1.5491 0
M  V30 19096 O 1865.99 3.29119 -1.36232 0
M  V30 19097 O 1864.85 5.14028 -1.85574 0
M  V30 19098 H 1861.95 0.789214 -0.247125 0
M  V30 19099 H 1864.49 1.23302 -1.16597 0
M  V30 19100 H 1863.26 3.06111 -2.43745 0
M  V30 19101 H 1862.89 3.86722 -0.923686 0
M  V30 19102 N 1863.88 0.848487 1.3281 0
M  V30 19103 C 1865.11 0.462643 2.01661 0
M  V30 19104 C 1865.53 -0.938906 1.63799 0
M  V30 19105 O 1864.88 -1.61171 0.85617 0
M  V30 19106 C 1864.94 0.584905 3.56737 0
M  V30 19107 O 1864.66 1.93124 3.93236 0
M  V30 19108 C 1866.16 0.197265 4.42861 0
M  V30 19109 H 1863.38 0.18254 0.645694 0
M  V30 19110 H 1865.92 1.14372 1.69527 0
M  V30 19111 H 1864.08 -0.0483701 3.8737 0
M  V30 19112 H 1864.49 1.92361 4.87952 0
M  V30 19113 H 1865.96 0.333833 5.5099 0
M  V30 19114 H 1866.44 -0.861732 4.30663 0
M  V30 19115 H 1867.05 0.805363 4.17605 0
M  V30 19116 N 1865.36 -1.4549 0.605832 0
M  V30 19117 C 1866.61 -2.01462 0.0979275 0
M  V30 19118 C 1866.92 -1.48025 -1.27859 0
M  V30 19119 O 1868.13 -1.95962 -1.87912 0
M  V30 19120 C 1866.59 -3.59685 0.124393 0
M  V30 19121 C 1866.19 -4.22119 1.50065 0
M  V30 19122 C 1867.94 -4.23228 -0.328361 0
M  V30 19123 C 1865.85 -5.72489 1.4836 0
M  V30 19124 H 1864.78 -0.753284 0.0328415 0
M  V30 19125 H 1867.43 -1.66981 0.760903 0
M  V30 19126 H 1865.81 -3.91348 -0.605201 0
M  V30 19127 H 1866.98 -4.02032 2.25181 0
M  V30 19128 H 1865.3 -3.70763 1.89535 0
M  V30 19129 H 1867.89 -5.33485 -0.360274 0
M  V30 19130 H 1868.24 -3.93779 -1.35068 0
M  V30 19131 H 1868.77 -3.96276 0.347909 0
M  V30 19132 H 1865.51 -6.06634 2.48346 0
M  V30 19133 H 1865.03 -5.94772 0.774989 0
M  V30 19134 H 1866.71 -6.35652 1.20648 0
M  V30 19135 N 1866.84 -0.344893 -1.5378 0
M  V30 19136 C 1868.09 0.252216 -2.00117 0
M  V30 19137 C 1868.4 1.51548 -1.23663 0
M  V30 19138 O 1869.61 2.18991 -1.60484 0
M  V30 19139 C 1868.06 0.499983 -3.5641 0
M  V30 19140 C 1867.67 -0.747455 -4.41721 0
M  V30 19141 C 1869.42 1.05588 -4.11159 0
M  V30 19142 C 1867.32 -0.470414 -5.89526 0
M  V30 19143 H 1866.25 0.0980234 -0.747601 0
M  V30 19144 H 1868.9 -0.460431 -1.7763 0
M  V30 19145 H 1867.29 1.27337 -3.74969 0
M  V30 19146 H 1868.46 -1.52204 -4.34937 0
M  V30 19147 H 1866.78 -1.22508 -3.97971 0
M  V30 19148 H 1869.37 1.27813 -5.19199 0
M  V30 19149 H 1869.72 2.01181 -3.64461 0
M  V30 19150 H 1870.25 0.343167 -3.96317 0
M  V30 19151 H 1866.99 -1.3961 -6.4046 0
M  V30 19152 H 1866.51 0.266065 -5.9921 0
M  V30 19153 H 1868.19 -0.0881607 -6.4694 0
M  V30 19154 N 1868.32 1.57428 -0.0735454 0
M  V30 19155 C 1869.73 1.80973 0.458858 0
M  V30 19156 C 1870.08 0.987586 1.69532 0
M  V30 19157 O 1869.21 0.210611 2.15373 0
M  V30 19158 C 1869.8 3.28241 0.839246 0
M  V30 19159 C 1868.36 3.52626 1.3165 0
M  V30 19160 C 1867.51 2.75645 0.302533 0
M  V30 19161 H 1870.46 1.55854 -0.299225 0
M  V30 19162 H 1870.48 3.40386 1.70052 0
M  V30 19163 H 1869.99 3.88052 -0.0608625 0
M  V30 19164 H 1868.09 2.98121 2.23505 0
M  V30 19165 H 1868.2 4.61316 1.29322 0
M  V30 19166 H 1866.57 2.42457 0.780179 0
M  V30 19167 H 1867.35 3.38194 -0.589878 0
M  V30 19168 N 1869.8 -0.200022 1.56326 0
M  V30 19169 C 1870.76 -1.23155 1.93302 0
M  V30 19170 C 1871.76 -1.38696 0.81364 0
M  V30 19171 O 1872.95 -1.36592 1.08112 0
M  V30 19172 C 1870.08 -2.60177 2.20274 0
M  V30 19173 H 1871.27 -0.915616 2.85581 0
M  V30 19174 H 1868.83 -0.44134 1.4994 0
M  V30 19175 H 1869.56 -2.96833 1.30617 0
M  V30 19176 H 1869.35 -2.50269 3.01841 0
M  V30 19177 H 1870.84 -3.34572 2.49903 0
M  V30 19178 N 1871.27 -1.50505 -0.467553 0
M  V30 19179 C 1872.52 -1.6191 -1.22118 0
M  V30 19180 C 1872.85 -0.320112 -1.91544 0
M  V30 19181 O 1872.13 0.678631 -1.82277 0
M  V30 19182 C 1872.41 -2.80184 -2.26206 0
M  V30 19183 C 1872.26 -4.19975 -1.61062 0
M  V30 19184 C 1873.58 -2.94011 -3.27484 0
M  V30 19185 H 1870.7 -0.589289 -0.442615 0
M  V30 19186 H 1873.34 -1.82902 -0.514484 0
M  V30 19187 H 1871.49 -2.62417 -2.86478 0
M  V30 19188 H 1873.17 -4.4934 -1.04359 0
M  V30 19189 H 1871.41 -4.24069 -0.91365 0
M  V30 19190 H 1872.08 -4.98667 -2.36718 0
M  V30 19191 H 1874.56 -3.10288 -2.77238 0
M  V30 19192 H 1873.43 -3.78384 -3.97639 0
M  V30 19193 H 1873.69 -2.04777 -3.91815 0
M  V30 19194 N 1872.75 0.720973 -1.40142 0
M  V30 19195 C 1874.16 1.29988 -1.34015 0
M  V30 19196 C 1874.51 1.96197 -0.0110816 0
M  V30 19197 O 1873.64 1.97207 0.890984 0
M  V30 19198 C 1874.23 2.36373 -2.42721 0
M  V30 19199 C 1872.79 2.89902 -2.40071 0
M  V30 19200 C 1871.94 1.63627 -2.23878 0
M  V30 19201 H 1874.89 0.51748 -1.50026 0
M  V30 19202 H 1874.91 3.17091 -2.10317 0
M  V30 19203 H 1874.42 1.88156 -3.39439 0
M  V30 19204 H 1872.53 3.42362 -1.47033 0
M  V30 19205 H 1872.64 3.42062 -3.35456 0
M  V30 19206 H 1871 1.88491 -1.71298 0
M  V30 19207 H 1871.79 1.17442 -3.22587 0
M  V30 19208 N 1874.23 1.25549 0.952634 0
M  V30 19209 C 1875.64 1.09496 1.5122 0
M  V30 19210 C 1875.99 -0.328639 1.93428 0
M  V30 19211 O 1875.12 -1.21884 1.78811 0
M  V30 19212 C 1875.71 1.9815 2.74813 0
M  V30 19213 C 1874.27 1.86275 3.27076 0
M  V30 19214 C 1873.42 1.92181 1.99904 0
M  V30 19215 H 1876.37 1.38806 0.769318 0
M  V30 19216 H 1876.39 1.52265 3.48705 0
M  V30 19217 H 1875.9 3.01754 2.44062 0
M  V30 19218 H 1874 0.855627 3.62643 0
M  V30 19219 H 1874.12 2.71194 3.94957 0
M  V30 19220 H 1872.48 1.36092 2.15293 0
M  V30 19221 H 1873.26 2.97393 1.71499 0
M  V30 19222 N 1875.71 -1.15554 1.07168 0
M  V30 19223 C 1877.12 -1.67889 0.816719 0
M  V30 19224 C 1877.47 -1.84821 -0.658442 0
M  V30 19225 O 1876.6 -1.55018 -1.50991 0
M  V30 19226 C 1877.19 -3.04959 1.47598 0
M  V30 19227 C 1875.75 -3.54378 1.26858 0
M  V30 19228 C 1874.9 -2.30148 1.54684 0
M  V30 19229 H 1877.85 -0.997938 1.23397 0
M  V30 19230 H 1877.87 -3.69796 0.89618 0
M  V30 19231 H 1877.38 -2.92603 2.54961 0
M  V30 19232 H 1875.48 -3.71979 0.215097 0
M  V30 19233 H 1875.59 -4.35932 1.98747 0
M  V30 19234 H 1873.96 -2.35597 0.967776 0
M  V30 19235 H 1874.74 -2.20381 2.63225 0
M  V30 19236 N 1877.19 -0.855519 -1.32358 0
M  V30 19237 C 1878.42 -0.473331 -2.01413 0
M  V30 19238 C 1878.83 0.930206 -1.64294 0
M  V30 19239 O 1878.19 1.60714 -0.864705 0
M  V30 19240 C 1878.24 -0.603815 -3.56422 0
M  V30 19241 O 1877.96 -1.95207 -3.92207 0
M  V30 19242 C 1879.46 -0.220748 -4.4275 0
M  V30 19243 H 1876.68 -0.185962 -0.644716 0
M  V30 19244 H 1879.22 -1.1527 -1.68918 0
M  V30 19245 H 1877.38 0.0278263 -3.8739 0
M  V30 19246 H 1877.79 -1.94946 -4.86925 0
M  V30 19247 H 1879.27 -0.363048 -5.50805 0
M  V30 19248 H 1879.74 0.838881 -4.31114 0
M  V30 19249 H 1880.35 -0.827498 -4.17172 0
M  V30 19250 N 1878.67 1.45167 -0.61354 0
M  V30 19251 C 1879.94 1.95553 -0.042781 0
M  V30 19252 C 1880.32 1.55588 1.42673 0
M  V30 19253 O 1879.67 0.821325 2.13229 0
M  V30 19254 C 1879.88 3.48124 -0.247141 0
M  V30 19255 C 1881.23 4.24398 -0.131068 0
M  V30 19256 O 1882.25 3.55757 -0.177576 0
M  V30 19257 O 1881.11 5.46496 -0.0211683 0
M  V30 19258 H 1878.21 0.826367 0.0323494 0
M  V30 19259 H 1880.75 1.55304 -0.684017 0
M  V30 19260 H 1879.52 3.70202 -1.26751 0
M  V30 19261 H 1879.15 3.95278 0.429074 0
M  V30 19262 N 1880.14 0.353044 1.53595 0
M  V30 19263 C 1881.07 -0.491481 2.28269 0
M  V30 19264 C 1882.05 -1.0946 1.30201 0
M  V30 19265 O 1883.24 -1.11421 1.59056 0
M  V30 19266 C 1880.37 -1.63776 3.06259 0
M  V30 19267 C 1879.32 -1.16251 4.1191 0
M  V30 19268 C 1878.65 -2.39805 4.7791 0
M  V30 19269 C 1879.95 -0.256191 5.21671 0
M  V30 19270 H 1881.64 0.131483 2.99111 0
M  V30 19271 H 1879.19 0.0646771 1.43855 0
M  V30 19272 H 1881.14 -2.2351 3.57241 0
M  V30 19273 H 1879.87 -2.28777 2.33085 0
M  V30 19274 H 1878.53 -0.587934 3.61855 0
M  V30 19275 H 1878.17 -3.03234 4.0132 0
M  V30 19276 H 1877.87 -2.08684 5.49295 0
M  V30 19277 H 1879.4 -3.00248 5.3168 0
M  V30 19278 H 1880.81 -0.760642 5.68232 0
M  V30 19279 H 1879.21 -0.0364273 6.00089 0
M  V30 19280 H 1880.28 0.705105 4.79746 0
M  V30 19281 N 1881.62 -1.57387 0.0818932 0
M  V30 19282 C 1883.04 -1.57217 -0.274755 0
M  V30 19283 C 1883.24 -1.09207 -1.6934 0
M  V30 19284 O 1882.29 -0.762532 -2.40711 0
M  V30 19285 C 1883.61 -3.00606 -0.075209 0
M  V30 19286 C 1885.15 -3.12669 -0.143973 0
M  V30 19287 C 1885.63 -4.57992 0.0274161 0
M  V30 19288 N 1887.12 -4.63192 -0.0278563 0
M  V30 19289 C 1887.86 -5.73344 0.0801936 0
M  V30 19290 N 1887.35 -6.92376 0.242334 0
M  V30 19291 N 1889.14 -5.62096 0.0224057 0
M  V30 19292 H 1881.3 -1.86907 1.00894 0
M  V30 19293 H 1883.56 -0.8621 0.39432 0
M  V30 19294 H 1883.26 -3.39881 0.904105 0
M  V30 19295 H 1883.14 -3.68107 -0.823213 0
M  V30 19296 H 1885.53 -2.73274 -1.11378 0
M  V30 19297 H 1885.61 -2.47785 0.635303 0
M  V30 19298 H 1885.25 -4.98078 0.994034 0
M  V30 19299 H 1885.18 -5.2092 -0.77139 0
M  V30 19300 H 1887.67 -3.77598 -0.151172 0
M  V30 19301 H 1887.98 -7.72151 0.316652 0
M  V30 19302 H 1886.33 -6.94444 0.277829 0
M  V30 19303 H 1889.52 -4.67987 -0.103039 0
M  V30 19304 H 1889.69 -6.47907 0.110065 0
M  V30 19305 N 1883.1 0.191729 -1.56429 0
M  V30 19306 C 1884.35 0.911598 -1.80821 0
M  V30 19307 C 1884.67 1.83115 -0.655667 0
M  V30 19308 O 1883.93 1.92391 0.35837 0
M  V30 19309 C 1884.23 1.75708 -3.11226 0
M  V30 19310 C 1883.89 0.988211 -4.39938 0
M  V30 19311 C 1882.56 0.775937 -4.74903 0
M  V30 19312 C 1884.91 0.447459 -5.19276 0
M  V30 19313 C 1882.24 0.0114851 -5.86699 0
M  V30 19314 C 1884.59 -0.303799 -6.3187 0
M  V30 19315 C 1883.25 -0.527059 -6.65416 0
M  V30 19316 H 1882.52 0.333577 -0.66167 0
M  V30 19317 H 1885.17 0.177758 -1.90673 0
M  V30 19318 H 1883.47 2.5597 -2.96626 0
M  V30 19319 H 1885.17 2.31674 -3.27304 0
M  V30 19320 H 1881.76 1.16368 -4.125 0
M  V30 19321 H 1885.95 0.59885 -4.92674 0
M  V30 19322 H 1881.2 -0.171429 -6.1116 0
M  V30 19323 H 1885.38 -0.730171 -6.92562 0
M  V30 19324 H 1883 -1.12131 -7.51885 0
M  V30 19325 N 1884.58 1.50751 0.459565 0
M  V30 19326 C 1885.81 1.66089 1.23377 0
M  V30 19327 C 1886.22 0.348952 1.85547 0
M  V30 19328 O 1885.58 -0.670323 1.69744 0
M  V30 19329 C 1885.63 2.76047 2.3341 0
M  V30 19330 O 1885.35 4.02156 1.73787 0
M  V30 19331 C 1886.85 3.02461 3.24087 0
M  V30 19332 H 1884.07 0.557971 0.372705 0
M  V30 19333 H 1886.61 1.97042 0.547242 0
M  V30 19334 H 1884.77 2.47756 2.97818 0
M  V30 19335 H 1885.18 4.63055 2.46335 0
M  V30 19336 H 1886.66 3.83034 3.97478 0
M  V30 19337 H 1887.13 2.13984 3.83546 0
M  V30 19338 H 1887.74 3.32326 2.65404 0
M  V30 19339 N 1886.06 -0.713531 1.40522 0
M  V30 19340 C 1887 -1.84894 1.41127 0
M  V30 19341 C 1888 -1.66873 0.291521 0
M  V30 19342 O 1889.2 -1.73952 0.46266 0
M  V30 19343 H 1885.58 -0.608985 0.441182 0
M  V30 19344 H 1887.55 -1.815 2.36855 0
M  V30 19345 C 1886.3 -3.22774 1.29276 0
M  V30 19346 H 1885.62 -3.37248 2.14718 0
M  V30 19347 H 1887.06 -4.02349 1.33759 0
M  V30 19348 C 1885.52 -3.369 0.00320525 0
M  V30 19349 O 1886.05 -3.90086 -0.958942 0
M  V30 19350 N 1884.26 -2.90523 -0.0669733 0
M  V30 19351 H 1883.8 -2.47428 0.716722 0
M  V30 19352 H 1883.76 -3.00353 -0.929262 0
M  V30 19353 N 1887.53 -1.26053 -0.945962 0
M  V30 19354 C 1888.78 -1.10706 -1.68603 0
M  V30 19355 C 1889.1 0.350167 -1.9244 0
M  V30 19356 O 1890.3 0.624224 -2.64227 0
M  V30 19357 C 1888.76 -1.93306 -3.0358 0
M  V30 19358 C 1888.37 -3.43574 -2.87508 0
M  V30 19359 C 1890.11 -1.86555 -3.8131 0
M  V30 19360 C 1888.02 -4.18438 -4.17928 0
M  V30 19361 H 1886.95 -0.410689 -0.632337 0
M  V30 19362 H 1889.6 -1.50322 -1.0524 0
M  V30 19363 H 1887.98 -1.4652 -3.67897 0
M  V30 19364 H 1889.15 -3.98096 -2.3207 0
M  V30 19365 H 1887.47 -3.51511 -2.23224 0
M  V30 19366 H 1890.07 -2.39775 -4.77925 0
M  V30 19367 H 1890.41 -0.83525 -4.07835 0
M  V30 19368 H 1890.94 -2.31138 -3.23759 0
M  V30 19369 H 1887.68 -5.21917 -3.96589 0
M  V30 19370 H 1887.2 -3.68698 -4.73098 0
M  V30 19371 H 1888.88 -4.26626 -4.86415 0
M  V30 19372 N 1889.01 1.14984 -1.07779 0
M  V30 19373 C 1890.26 1.85506 -0.802 0
M  V30 19374 C 1890.58 1.82981 0.674026 0
M  V30 19375 O 1889.85 1.27376 1.48836 0
M  V30 19376 H 1888.43 0.686845 -0.293689 0
M  V30 19377 H 1891.09 1.39368 -1.36244 0
M  V30 19378 H 1890.19 2.90518 -1.14042 0
M  V30 19379 N 1890.49 0.862526 1.31902 0
M  V30 19380 C 1891.9 0.523345 1.79215 0
M  V30 19381 C 1892.25 -0.95931 1.71148 0
M  V30 19382 O 1891.38 -1.74868 1.27476 0
M  V30 19383 C 1891.97 0.943195 3.25406 0
M  V30 19384 C 1890.53 0.655789 3.70643 0
M  V30 19385 C 1889.68 1.13861 2.52846 0
M  V30 19386 H 1892.63 1.04897 1.19089 0
M  V30 19387 H 1892.65 0.262794 3.79591 0
M  V30 19388 H 1892.16 2.02233 3.31245 0
M  V30 19389 H 1890.26 -0.412291 3.70312 0
M  V30 19390 H 1890.38 1.2276 4.63106 0
M  V30 19391 H 1888.74 0.558615 2.48499 0
M  V30 19392 H 1889.52 2.22501 2.61434 0
M  V30 19393 N 1891.97 -1.4484 0.62123 0
M  V30 19394 C 1893.25 -1.95528 0.0531511 0
M  V30 19395 C 1893.63 -1.56342 -1.41846 0
M  V30 19396 O 1892.97 -0.832621 -2.1279 0
M  V30 19397 C 1893.18 -3.47988 0.2656 0
M  V30 19398 C 1894.53 -4.24322 0.153573 0
M  V30 19399 O 1895.56 -3.55658 0.19644 0
M  V30 19400 O 1894.41 -5.46477 0.05015 0
M  V30 19401 H 1891.51 -0.826527 -0.0279665 0
M  V30 19402 H 1894.05 -1.54939 0.692243 0
M  V30 19403 H 1892.83 -3.69525 1.28713 0
M  V30 19404 H 1892.45 -3.955 -0.408105 0
M  V30 19405 N 1893.45 -0.361184 -1.53405 0
M  V30 19406 C 1894.67 0.230765 -2.05609 0
M  V30 19407 C 1895.09 1.42805 -1.23499 0
M  V30 19408 O 1894.45 1.80423 -0.274582 0
M  V30 19409 C 1894.5 0.628571 -3.55993 0
M  V30 19410 O 1894.22 -0.521123 -4.3499 0
M  V30 19411 C 1895.72 1.27938 -4.24437 0
M  V30 19412 H 1892.94 0.0414193 -0.66972 0
M  V30 19413 H 1895.48 -0.518281 -1.97823 0
M  V30 19414 H 1893.64 1.32754 -3.63944 0
M  V30 19415 H 1894.05 -0.200483 -5.24117 0
M  V30 19416 H 1895.53 1.50832 -5.30993 0
M  V30 19417 H 1896 2.23834 -3.77882 0
M  V30 19418 H 1896.61 0.621961 -4.20728 0
M  V30 19419 N 1894.92 1.57341 -0.0902386 0
M  V30 19420 C 1895.86 2.09404 0.906927 0
M  V30 19421 C 1896.84 1.00345 1.27944 0
M  V30 19422 O 1898.02 1.2781 1.38553 0
M  V30 19423 C 1895.15 2.567 2.20959 0
M  V30 19424 C 1894.19 3.77371 1.98729 0
M  V30 19425 S 1895.03 5.21189 1.22974 0
M  V30 19426 C 1896.18 5.71831 2.5448 0
M  V30 19427 H 1896.41 2.93657 0.463996 0
M  V30 19428 H 1893.95 1.5391 0.122943 0
M  V30 19429 H 1895.91 2.84608 2.95819 0
M  V30 19430 H 1894.57 1.72682 2.62373 0
M  V30 19431 H 1893.76 4.08516 2.95179 0
M  V30 19432 H 1893.36 3.49932 1.31999 0
M  V30 19433 H 1895.65 5.79801 3.50481 0
M  V30 19434 H 1896.6 6.70416 2.27921 0
M  V30 19435 H 1897 4.99738 2.6253 0
M  V30 19436 N 1896.4 -0.183431 1.56529 0
M  V30 19437 C 1897.82 -0.534734 1.50375 0
M  V30 19438 C 1898.02 -1.85267 0.792359 0
M  V30 19439 O 1897.07 -2.50095 0.3477 0
M  V30 19440 C 1898.39 -0.578686 2.95079 0
M  V30 19441 C 1899.94 -0.66672 3.05817 0
M  V30 19442 C 1900.41 -0.741676 4.51955 0
M  V30 19443 N 1901.9 -0.804892 4.56153 0
M  V30 19444 C 1902.64 -0.883257 5.66556 0
M  V30 19445 N 1902.13 -0.923203 6.86621 0
M  V30 19446 N 1903.93 -0.921346 5.54498 0
M  V30 19447 H 1896.08 0.68092 2.0119 0
M  V30 19448 H 1898.34 0.244029 0.916053 0
M  V30 19449 H 1898.05 0.320816 3.50234 0
M  V30 19450 H 1897.92 -1.42937 3.49068 0
M  V30 19451 H 1900.31 -1.55665 2.50704 0
M  V30 19452 H 1900.39 0.210402 2.54933 0
M  V30 19453 H 1900.03 0.143948 5.07696 0
M  V30 19454 H 1899.96 -1.63477 5.00583 0
M  V30 19455 H 1902.45 -0.782796 3.69704 0
M  V30 19456 H 1902.77 -0.983835 7.66512 0
M  V30 19457 H 1901.11 -0.891683 6.89256 0
M  V30 19458 H 1904.3 -0.887056 4.59618 0
M  V30 19459 H 1904.47 -0.978957 6.40563 0
M  V30 19460 N 1897.88 -1.50992 -0.451564 0
M  V30 19461 C 1899.13 -1.63197 -1.20394 0
M  V30 19462 C 1899.46 -0.340409 -1.91193 0
M  V30 19463 O 1898.73 0.65926 -1.82986 0
M  V30 19464 C 1899.02 -2.82567 -2.23221 0
M  V30 19465 C 1898.87 -4.2166 -1.56598 0
M  V30 19466 C 1900.19 -2.97468 -3.24347 0
M  V30 19467 H 1897.31 -0.59395 -0.43634 0
M  V30 19468 H 1899.95 -1.83437 -0.495056 0
M  V30 19469 H 1898.1 -2.65441 -2.83678 0
M  V30 19470 H 1899.77 -4.50422 -0.995877 0
M  V30 19471 H 1898.02 -4.25015 -0.86862 0
M  V30 19472 H 1898.69 -5.0115 -2.31415 0
M  V30 19473 H 1901.16 -3.13211 -2.73931 0
M  V30 19474 H 1900.04 -3.82581 -3.93603 0
M  V30 19475 H 1900.3 -2.08921 -3.89621 0
M  V30 19476 N 1899.36 0.706069 -1.40899 0
M  V30 19477 C 1900.59 1.49504 -1.43025 0
M  V30 19478 C 1901 1.88772 -0.0325752 0
M  V30 19479 O 1900.36 1.56085 0.945716 0
M  V30 19480 C 1900.41 2.76431 -2.32955 0
M  V30 19481 O 1900.13 2.38821 -3.67282 0
M  V30 19482 C 1901.63 3.70255 -2.43774 0
M  V30 19483 H 1898.85 0.461069 -0.4875 0
M  V30 19484 H 1901.4 0.870198 -1.85062 0
M  V30 19485 H 1899.55 3.35177 -1.94255 0
M  V30 19486 H 1899.96 3.2056 -4.1514 0
M  V30 19487 H 1901.44 4.56129 -3.10887 0
M  V30 19488 H 1901.92 4.14021 -1.46573 0
M  V30 19489 H 1902.52 3.17417 -2.83066 0
M  V30 19490 N 1900.84 1.26553 0.939264 0
M  V30 19491 C 1902.08 1.13385 1.68865 0
M  V30 19492 C 1902.44 -0.319227 1.89733 0
M  V30 19493 O 1901.73 -1.23093 1.46829 0
M  V30 19494 C 1901.92 1.83848 3.06488 0
M  V30 19495 C 1901.75 3.35858 2.99048 0
M  V30 19496 C 1900.52 4.05152 3.0196 0
M  V30 19497 C 1902.72 4.3202 2.7904 0
M  V30 19498 N 1900.7 5.4382 2.84839 0
M  V30 19499 C 1902.07 5.57876 2.70508 0
M  V30 19500 C 1904.13 4.22248 2.63838 0
M  V30 19501 C 1902.83 6.75076 2.48325 0
M  V30 19502 C 1904.86 5.39157 2.4303 0
M  V30 19503 C 1904.22 6.63962 2.35231 0
M  V30 19504 H 1900.32 0.469707 0.62522 0
M  V30 19505 H 1902.9 1.59865 1.11136 0
M  V30 19506 H 1901.07 1.3984 3.62353 0
M  V30 19507 H 1902.81 1.63286 3.70297 0
M  V30 19508 H 1899.56 3.56528 3.11745 0
M  V30 19509 H 1899.99 6.16638 2.7944 0
M  V30 19510 H 1904.63 3.2649 2.68634 0
M  V30 19511 H 1902.35 7.70929 2.4227 0
M  V30 19512 H 1905.93 5.33468 2.3217 0
M  V30 19513 H 1904.81 7.529 2.19344 0
M  V30 19514 N 1902.31 -1.14411 1.08387 0
M  V30 19515 C 1903.28 -2.17682 0.717433 0
M  V30 19516 C 1904.28 -1.58881 -0.24766 0
M  V30 19517 O 1905.47 -1.74179 -0.027231 0
M  V30 19518 C 1902.6 -3.40849 0.0592022 0
M  V30 19519 H 1903.79 -2.51614 1.63188 0
M  V30 19520 H 1901.35 -1.29056 0.88172 0
M  V30 19521 H 1902.08 -3.12496 -0.866987 0
M  V30 19522 H 1901.87 -3.84792 0.753477 0
M  V30 19523 H 1903.36 -4.17203 -0.182152 0
M  V30 19524 N 1903.79 -0.869509 -1.31443 0
M  V30 19525 C 1905.2 -0.532842 -1.78935 0
M  V30 19526 C 1905.55 0.95022 -1.71654 0
M  V30 19527 O 1904.68 1.74189 -1.28402 0
M  V30 19528 C 1905.27 -0.960439 -3.24902 0
M  V30 19529 C 1903.83 -0.675436 -3.7029 0
M  V30 19530 C 1902.98 -1.15201 -2.52238 0
M  V30 19531 H 1905.93 -1.05527 -1.18531 0
M  V30 19532 H 1905.95 -0.282921 -3.79447 0
M  V30 19533 H 1905.46 -2.03986 -3.30168 0
M  V30 19534 H 1903.57 0.392647 -3.70525 0
M  V30 19535 H 1903.68 -1.25214 -4.62448 0
M  V30 19536 H 1902.04 -0.571786 -2.48199 0
M  V30 19537 H 1902.83 -2.23885 -2.60251 0
M  V30 19538 N 1905.27 1.44508 -0.628902 0
M  V30 19539 C 1906.68 1.85457 -0.215122 0
M  V30 19540 C 1907.03 1.52619 1.23296 0
M  V30 19541 O 1906.16 0.963178 1.93783 0
M  V30 19542 C 1906.75 3.36621 -0.383645 0
M  V30 19543 C 1905.31 3.76392 -0.0243904 0
M  V30 19544 C 1904.46 2.68369 -0.698081 0
M  V30 19545 H 1907.41 1.35006 -0.834208 0
M  V30 19546 H 1907.43 3.78617 0.378049 0
M  V30 19547 H 1906.94 3.6049 -1.43767 0
M  V30 19548 H 1905.04 3.58139 1.02798 0
M  V30 19549 H 1905.16 4.7714 -0.432898 0
M  V30 19550 H 1903.52 2.54349 -0.133605 0
M  V30 19551 H 1904.3 2.95071 -1.75465 0
M  V30 19552 N 1906.75 0.369315 1.53212 0
M  V30 19553 C 1908.16 -0.10909 1.86381 0
M  V30 19554 C 1908.51 -1.47849 1.28977 0
M  V30 19555 O 1907.64 -2.07528 0.613267 0
M  V30 19556 C 1908.23 -0.204726 3.38181 0
M  V30 19557 C 1906.79 -0.627391 3.71134 0
M  V30 19558 C 1905.94 0.223086 2.76401 0
M  V30 19559 H 1908.89 0.587967 1.47406 0
M  V30 19560 H 1908.91 -1.02761 3.66361 0
M  V30 19561 H 1908.42 0.792082 3.79931 0
M  V30 19562 H 1906.52 -1.63229 3.34943 0
M  V30 19563 H 1906.64 -0.39941 4.77432 0
M  V30 19564 H 1905 -0.308608 2.52823 0
M  V30 19565 H 1905.78 1.2175 3.20986 0
M  V30 19566 N 1908.23 -1.57291 0.0985816 0
M  V30 19567 C 1909.45 -1.99242 -0.575966 0
M  V30 19568 C 1909.88 -0.977378 -1.60714 0
M  V30 19569 O 1909.24 0.053677 -1.81221 0
M  V30 19570 C 1909.28 -3.40148 -1.19714 0
M  V30 19571 O 1908.39 -3.41434 -2.31293 0
M  V30 19572 H 1907.73 -0.647791 -0.145816 0
M  V30 19573 H 1910.26 -2.03798 0.181023 0
M  V30 19574 H 1910.27 -3.77918 -1.5376 0
M  V30 19575 H 1908.94 -4.13548 -0.441714 0
M  V30 19576 H 1907.52 -3.15464 -1.98839 0
M  V30 19577 N 1909.71 0.175127 -1.56624 0
M  V30 19578 C 1910.95 0.890653 -1.8097 0
M  V30 19579 C 1911.27 1.83577 -0.675199 0
M  V30 19580 O 1912.47 2.59338 -0.803492 0
M  V30 19581 C 1910.93 1.63427 -3.20655 0
M  V30 19582 C 1910.54 0.732982 -4.41963 0
M  V30 19583 C 1912.28 2.33825 -3.54297 0
M  V30 19584 C 1910.19 1.47661 -5.72669 0
M  V30 19585 H 1909.12 0.336324 -0.674835 0
M  V30 19586 H 1911.77 0.143627 -1.82937 0
M  V30 19587 H 1910.15 2.42591 -3.12994 0
M  V30 19588 H 1911.33 -0.0214223 -4.60795 0
M  V30 19589 H 1909.64 0.138848 -4.16168 0
M  V30 19590 H 1912.24 2.90048 -4.49195 0
M  V30 19591 H 1912.58 3.08979 -2.78994 0
M  V30 19592 H 1913.11 1.61608 -3.63494 0
M  V30 19593 H 1909.85 0.767472 -6.50992 0
M  V30 19594 H 1909.37 2.20444 -5.57821 0
M  V30 19595 H 1911.05 2.02512 -6.1449 0
M  V30 19596 N 1911.18 1.5123 0.44355 0
M  V30 19597 C 1912.46 1.54127 1.20434 0
M  V30 19598 C 1912.84 0.301893 2.0893 0
M  V30 19599 O 1912.19 -0.713356 2.17079 0
M  V30 19600 C 1912.4 2.85196 2.01157 0
M  V30 19601 C 1913.75 3.3691 2.58411 0
M  V30 19602 O 1914.77 2.86704 2.11374 0
M  V30 19603 O 1913.63 4.24498 3.44185 0
M  V30 19604 H 1910.72 0.619396 0.547976 0
M  V30 19605 H 1913.27 1.63539 0.453125 0
M  V30 19606 H 1912.04 3.66861 1.3612 0
M  V30 19607 H 1911.66 2.78917 2.83357 0
M  V30 19608 N 1912.66 -0.698586 1.41271 0
M  V30 19609 C 1913.59 -1.82505 1.4565 0
M  V30 19610 C 1914.57 -1.67149 0.315497 0
M  V30 19611 O 1915.76 -1.86926 0.526518 0
M  V30 19612 C 1912.89 -3.20616 1.33502 0
M  V30 19613 C 1911.84 -3.50672 2.45383 0
M  V30 19614 C 1911.17 -4.88107 2.18302 0
M  V30 19615 C 1912.47 -3.49952 3.87725 0
M  V30 19616 H 1914.16 -1.79098 2.39926 0
M  V30 19617 H 1911.71 -0.860237 1.15481 0
M  V30 19618 H 1913.66 -3.9913 1.35179 0
M  V30 19619 H 1912.38 -3.24642 0.357101 0
M  V30 19620 H 1911.04 -2.74507 2.42984 0
M  V30 19621 H 1910.69 -4.88755 1.1886 0
M  V30 19622 H 1910.39 -5.09182 2.9327 0
M  V30 19623 H 1911.92 -5.68934 2.21689 0
M  V30 19624 H 1913.33 -4.18476 3.91855 0
M  V30 19625 H 1911.73 -3.82559 4.62351 0
M  V30 19626 H 1912.8 -2.48988 4.16093 0
M  V30 19627 N 1914.14 -1.27049 -0.93254 0
M  V30 19628 C 1915.37 -1.15903 -1.71389 0
M  V30 19629 C 1915.78 0.284726 -1.86641 0
M  V30 19630 O 1915.14 1.19428 -1.37997 0
M  V30 19631 C 1915.19 -1.83254 -3.11609 0
M  V30 19632 O 1914.91 -3.21988 -2.97078 0
M  V30 19633 C 1916.41 -1.78172 -4.05918 0
M  V30 19634 H 1913.63 -0.403197 -0.536352 0
M  V30 19635 H 1916.18 -1.67831 -1.16846 0
M  V30 19636 H 1914.33 -1.35243 -3.63026 0
M  V30 19637 H 1914.75 -3.55447 -3.85691 0
M  V30 19638 H 1916.22 -2.29919 -5.01838 0
M  V30 19639 H 1916.7 -0.750036 -4.32748 0
M  V30 19640 H 1917.3 -2.25774 -3.60425 0
M  V30 19641 N 1915.62 1.13835 -1.08993 0
M  V30 19642 C 1916.57 2.21179 -0.719905 0
M  V30 19643 C 1917.56 1.67118 0.277123 0
M  V30 19644 O 1918.77 1.79462 0.139054 0
M  V30 19645 H 1915.14 0.72067 -0.214799 0
M  V30 19646 H 1917.11 2.49654 -1.63448 0
M  V30 19647 C 1915.86 3.47368 -0.151794 0
M  V30 19648 H 1915.18 3.89302 -0.910172 0
M  V30 19649 H 1916.62 4.23943 0.0692336 0
M  V30 19650 C 1915.08 3.18024 1.11185 0
M  V30 19651 O 1915.61 3.36374 2.1958 0
M  V30 19652 N 1913.82 2.71938 1.0246 0
M  V30 19653 H 1913.37 2.57206 0.142456 0
M  V30 19654 H 1913.32 2.52679 1.87084 0
M  V30 19655 N 1917.1 0.876467 1.3098 0
M  V30 19656 C 1918.34 0.49064 1.96466 0
M  V30 19657 C 1918.67 -0.958443 1.69246 0
M  V30 19658 O 1917.93 -1.69096 0.985144 0
M  V30 19659 C 1918.22 0.70208 3.50436 0
M  V30 19660 C 1917.89 2.12494 3.9769 0
M  V30 19661 C 1916.55 2.51405 4.10303 0
M  V30 19662 C 1918.9 3.0526 4.22452 0
M  V30 19663 C 1916.23 3.82309 4.45035 0
M  V30 19664 C 1918.58 4.35686 4.5865 0
M  V30 19665 C 1917.25 4.74502 4.69472 0
M  V30 19666 H 1916.52 0.179538 0.718921 0
M  V30 19667 H 1919.17 1.1107 1.55999 0
M  V30 19668 H 1917.47 -0.00106996 3.918 0
M  V30 19669 H 1919.17 0.383279 3.99164 0
M  V30 19670 H 1915.76 1.81287 3.88372 0
M  V30 19671 H 1919.94 2.76422 4.12195 0
M  V30 19672 H 1915.2 4.12136 4.51612 0
M  V30 19673 H 1919.37 5.07612 4.76763 0
M  V30 19674 H 1917 5.75976 4.9614 0
M  V30 19675 N 1918.57 -1.44173 0.636557 0
M  V30 19676 C 1919.5 -2.33442 -0.0518719 0
M  V30 19677 C 1920.48 -1.48519 -0.829226 0
M  V30 19678 O 1921.67 -1.77225 -0.794028 0
M  V30 19679 C 1918.8 -3.31663 -1.03038 0
M  V30 19680 C 1917.75 -4.26447 -0.364286 0
M  V30 19681 C 1917.08 -5.14577 -1.45308 0
M  V30 19682 C 1918.38 -5.17133 0.732884 0
M  V30 19683 H 1920.07 -2.91255 0.693589 0
M  V30 19684 H 1917.62 -1.40049 0.33499 0
M  V30 19685 H 1919.57 -3.93002 -1.52077 0
M  V30 19686 H 1918.3 -2.72071 -1.80679 0
M  V30 19687 H 1916.96 -3.66448 0.105505 0
M  V30 19688 H 1916.6 -4.51334 -2.22051 0
M  V30 19689 H 1916.3 -5.78807 -1.01274 0
M  V30 19690 H 1917.83 -5.78788 -1.94517 0
M  V30 19691 H 1919.24 -5.72376 0.325363 0
M  V30 19692 H 1917.64 -5.89994 1.09669 0
M  V30 19693 H 1918.71 -4.5782 1.59779 0
M  V30 19694 N 1920.05 -0.377435 -1.53014 0
M  V30 19695 C 1921.3 0.208838 -2.01722 0
M  V30 19696 C 1921.63 1.47446 -1.26385 0
M  V30 19697 O 1920.91 1.91122 -0.360903 0
M  V30 19698 C 1921.19 0.4888 -3.56767 0
M  V30 19699 C 1921.04 -0.791285 -4.42785 0
M  V30 19700 C 1922.36 1.28443 -4.2094 0
M  V30 19701 H 1919.48 0.0744281 -0.733232 0
M  V30 19702 H 1922.12 -0.504664 -1.83175 0
M  V30 19703 H 1920.27 1.09662 -3.72702 0
M  V30 19704 H 1921.94 -1.42848 -4.38625 0
M  V30 19705 H 1920.19 -1.40914 -4.10275 0
M  V30 19706 H 1920.86 -0.550199 -5.49251 0
M  V30 19707 H 1923.33 0.770147 -4.08911 0
M  V30 19708 H 1922.21 1.44906 -5.29427 0
M  V30 19709 H 1922.47 2.29631 -3.77786 0
M  V30 19710 N 1921.53 1.57237 -0.106922 0
M  V30 19711 C 1922.95 1.57634 0.249708 0
M  V30 19712 C 1923.15 1.11888 1.67581 0
M  V30 19713 O 1922.2 0.80073 2.39467 0
M  V30 19714 C 1923.52 3.00688 0.0273757 0
M  V30 19715 C 1925.06 3.12858 0.0942116 0
M  V30 19716 C 1925.54 4.5789 -0.100275 0
M  V30 19717 N 1927.03 4.63177 -0.045837 0
M  V30 19718 C 1927.76 5.73144 -0.171398 0
M  V30 19719 N 1927.26 6.91903 -0.352455 0
M  V30 19720 N 1929.05 5.61989 -0.111827 0
M  V30 19721 H 1921.2 1.85278 -1.03855 0
M  V30 19722 H 1923.47 0.855717 -0.407985 0
M  V30 19723 H 1923.17 3.38399 -0.958063 0
M  V30 19724 H 1923.05 3.6937 0.764546 0
M  V30 19725 H 1925.43 2.75012 1.07016 0
M  V30 19726 H 1925.52 2.46743 -0.674643 0
M  V30 19727 H 1925.16 4.96433 -1.07315 0
M  V30 19728 H 1925.09 5.22081 0.688418 0
M  V30 19729 H 1927.58 3.7779 0.0910806 0
M  V30 19730 H 1927.89 7.7155 -0.439454 0
M  V30 19731 H 1926.24 6.93915 -0.388274 0
M  V30 19732 H 1929.43 4.68091 0.0285732 0
M  V30 19733 H 1929.6 6.47649 -0.213127 0
M  V30 19734 N 1923.01 -0.166818 1.56715 0
M  V30 19735 C 1924.24 -0.896867 1.86118 0
M  V30 19736 C 1924.65 -1.76139 0.690784 0
M  V30 19737 O 1923.99 -1.80351 -0.349191 0
M  V30 19738 C 1924.05 -1.82064 3.09989 0
M  V30 19739 C 1923.72 -1.13527 4.42674 0
M  V30 19740 C 1924.71 -0.498585 5.17504 0
M  V30 19741 C 1922.4 -1.13069 4.89409 0
M  V30 19742 C 1924.39 0.13354 6.3726 0
M  V30 19743 C 1922.08 -0.494741 6.09094 0
M  V30 19744 C 1923.08 0.136265 6.82864 0
M  V30 19745 O 1922.76 0.762174 8.00279 0
M  V30 19746 H 1922.5 -0.265765 0.621567 0
M  V30 19747 H 1925.05 -0.170384 2.04692 0
M  V30 19748 H 1923.28 -2.58756 2.87372 0
M  V30 19749 H 1924.97 -2.42092 3.25801 0
M  V30 19750 H 1925.74 -0.494073 4.82477 0
M  V30 19751 H 1921.61 -1.61124 4.31926 0
M  V30 19752 H 1925.16 0.626661 6.9478 0
M  V30 19753 H 1921.06 -0.496852 6.43585 0
M  V30 19754 H 1921.82 0.66187 8.1582 0
M  V30 19755 N 1924.49 -1.51463 -0.435524 0
M  V30 19756 C 1925.71 -1.68316 -1.21179 0
M  V30 19757 C 1926.14 -0.380709 -1.84207 0
M  V30 19758 O 1925.49 0.659318 -1.68887 0
M  V30 19759 C 1925.54 -2.80168 -2.27021 0
M  V30 19760 O 1924.65 -2.43897 -3.32548 0
M  V30 19761 H 1923.99 -0.561165 -0.35495 0
M  V30 19762 H 1926.52 -1.98036 -0.514097 0
M  V30 19763 H 1926.53 -3.04305 -2.71776 0
M  V30 19764 H 1925.2 -3.74678 -1.80524 0
M  V30 19765 H 1923.78 -2.30337 -2.93256 0
M  V30 19766 N 1925.96 0.691085 -1.4164 0
M  V30 19767 C 1927.38 1.27116 -1.36742 0
M  V30 19768 C 1927.73 1.96129 -0.0526953 0
M  V30 19769 O 1926.85 1.99052 0.848953 0
M  V30 19770 C 1927.45 2.31171 -2.4768 0
M  V30 19771 C 1926.01 2.84744 -2.46166 0
M  V30 19772 C 1925.15 1.58841 -2.27299 0
M  V30 19773 H 1928.1 0.485541 -1.5109 0
M  V30 19774 H 1928.12 3.12559 -2.16996 0
M  V30 19775 H 1927.64 1.80913 -3.43354 0
M  V30 19776 H 1925.74 3.39167 -1.54262 0
M  V30 19777 H 1925.85 3.34869 -3.42636 0
M  V30 19778 H 1924.21 1.84815 -1.75258 0
M  V30 19779 H 1925 1.10573 -3.25005 0
M  V30 19780 N 1927.44 1.27542 0.925789 0
M  V30 19781 C 1928.69 1.14161 1.67616 0
M  V30 19782 C 1929.02 -0.311471 1.91686 0
M  V30 19783 O 1928.3 -1.22766 1.5086 0
M  V30 19784 C 1928.58 1.92778 3.04152 0
M  V30 19785 C 1928.43 3.46081 2.87312 0
M  V30 19786 C 1929.75 1.73374 4.04511 0
M  V30 19787 H 1926.87 0.416091 0.608307 0
M  V30 19788 H 1929.51 1.56719 1.0742 0
M  V30 19789 H 1927.66 1.5661 3.55536 0
M  V30 19790 H 1929.33 3.92089 2.43031 0
M  V30 19791 H 1927.58 3.72324 2.22615 0
M  V30 19792 H 1928.25 3.96333 3.84219 0
M  V30 19793 H 1930.72 2.04914 3.62146 0
M  V30 19794 H 1929.6 2.30773 4.98031 0
M  V30 19795 H 1929.86 0.682154 4.36806 0
M  V30 19796 N 1928.92 -1.13255 1.09595 0
M  V30 19797 C 1929.87 -2.1872 0.736907 0
M  V30 19798 C 1930.84 -1.63677 -0.282692 0
M  V30 19799 O 1932.02 -1.90094 -0.163936 0
M  V30 19800 C 1929.16 -3.44703 0.165494 0
M  V30 19801 C 1928.28 -4.13841 1.23934 0
M  V30 19802 C 1927.41 -5.27445 0.630499 0
M  V30 19803 C 1926.45 -5.88435 1.68554 0
M  V30 19804 N 1925.59 -6.93468 1.09759 0
M  V30 19805 H 1930.43 -2.48779 1.64052 0
M  V30 19806 H 1927.96 -1.22152 0.819597 0
M  V30 19807 H 1929.92 -4.16796 -0.183618 0
M  V30 19808 H 1928.55 -3.15088 -0.701377 0
M  V30 19809 H 1927.6 -3.40014 1.70571 0
M  V30 19810 H 1928.92 -4.5525 2.03834 0
M  V30 19811 H 1928.07 -6.06263 0.230332 0
M  V30 19812 H 1926.81 -4.8729 -0.200028 0
M  V30 19813 H 1925.81 -5.08311 2.09523 0
M  V30 19814 H 1927.04 -6.30663 2.51876 0
M  V30 19815 H 1924.98 -6.55366 0.288376 0
M  V30 19816 H 1924.9 -7.33429 1.83353 0
M  V30 19817 H 1926.17 -7.76133 0.723688 0
M  V30 19818 N 1930.4 -0.883401 -1.30514 0
M  V30 19819 C 1931.35 -0.33846 -2.30124 0
M  V30 19820 C 1932.34 0.553686 -1.60096 0
M  V30 19821 O 1933.55 0.438295 -1.74582 0
M  V30 19822 H 1929.92 -0.0907927 -0.746499 0
M  V30 19823 H 1931.89 -1.19227 -2.73546 0
M  V30 19824 C 1930.64 0.43339 -3.44988 0
M  V30 19825 H 1929.96 -0.243847 -3.99056 0
M  V30 19826 H 1931.4 0.779808 -4.16767 0
M  V30 19827 C 1929.86 1.62986 -2.94851 0
M  V30 19828 O 1930.39 2.72922 -2.94748 0
M  V30 19829 N 1928.6 1.4665 -2.50883 0
M  V30 19830 H 1928.15 0.572135 -2.51166 0
M  V30 19831 H 1928.1 2.2684 -2.17694 0
M  V30 19832 N 1931.88 1.43833 -0.644194 0
M  V30 19833 C 1932.79 2.34538 0.0537504 0
M  V30 19834 C 1933.8 1.53369 0.821825 0
M  V30 19835 O 1934.98 1.86053 0.771123 0
M  V30 19836 C 1932.04 3.3153 1.01434 0
M  V30 19837 C 1931.1 4.28605 0.244198 0
M  V30 19838 C 1930.34 5.20963 1.15903 0
M  V30 19839 O 1930.56 5.1754 2.3981 0
M  V30 19840 O 1929.49 5.98527 0.636302 0
M  V30 19841 H 1933.32 2.95696 -0.692624 0
M  V30 19842 H 1930.91 1.43823 -0.404377 0
M  V30 19843 H 1932.79 3.91196 1.56663 0
M  V30 19844 H 1931.46 2.72887 1.7411 0
M  V30 19845 H 1930.37 3.72445 -0.351459 0
M  V30 19846 H 1931.7 4.90204 -0.442806 0
M  V30 19847 N 1933.35 0.385544 1.52811 0
M  V30 19848 C 1934.26 -0.45885 2.30069 0
M  V30 19849 C 1935.28 -1.07486 1.36831 0
M  V30 19850 O 1936.46 -1.08148 1.699 0
M  V30 19851 C 1933.52 -1.57281 3.08972 0
M  V30 19852 C 1932.58 -0.98229 4.17911 0
M  V30 19853 C 1931.82 -2.04316 4.93042 0
M  V30 19854 O 1932.04 -3.25761 4.68226 0
M  V30 19855 O 1930.97 -1.66256 5.78483 0
M  V30 19856 H 1934.8 0.170416 3.03221 0
M  V30 19857 H 1932.38 0.149363 1.48651 0
M  V30 19858 H 1934.27 -2.22003 3.5818 0
M  V30 19859 H 1932.94 -2.18711 2.38637 0
M  V30 19860 H 1931.85 -0.298428 3.72908 0
M  V30 19861 H 1933.18 -0.412261 4.9047 0
M  V30 19862 N 1934.83 -1.57178 0.115259 0
M  V30 19863 C 1936.11 -1.86584 -0.587002 0
M  V30 19864 C 1936.49 -1.01576 -1.85055 0
M  V30 19865 O 1935.84 -0.0936485 -2.28308 0
M  V30 19866 C 1936.05 -3.37644 -0.883041 0
M  V30 19867 C 1937.4 -4.06159 -1.23773 0
M  V30 19868 O 1938.42 -3.42641 -0.973422 0
M  V30 19869 O 1937.28 -5.18274 -1.73363 0
M  V30 19870 H 1934.37 -0.772284 -0.295816 0
M  V30 19871 H 1936.92 -1.6904 0.14948 0
M  V30 19872 H 1935.69 -3.91298 0.0125183 0
M  V30 19873 H 1935.31 -3.60605 -1.67481 0
M  V30 19874 N 1936.31 0.158505 -1.56801 0
M  V30 19875 C 1937.56 0.874331 -1.82984 0
M  V30 19876 C 1937.89 1.81334 -0.695103 0
M  V30 19877 O 1937.17 1.9214 0.302091 0
M  V30 19878 C 1937.45 1.65886 -3.19615 0
M  V30 19879 C 1937.3 0.74211 -4.43636 0
M  V30 19880 C 1938.62 2.62382 -3.53332 0
M  V30 19881 H 1935.74 0.316412 -0.665622 0
M  V30 19882 H 1938.38 0.139988 -1.89484 0
M  V30 19883 H 1936.53 2.28488 -3.14206 0
M  V30 19884 H 1938.2 0.127969 -4.61122 0
M  V30 19885 H 1936.45 0.0509465 -4.3377 0
M  V30 19886 H 1937.12 1.32683 -5.35816 0
M  V30 19887 H 1939.59 2.09902 -3.59278 0
M  V30 19888 H 1938.47 3.14332 -4.49985 0
M  V30 19889 H 1938.73 3.43194 -2.78694 0
M  V30 19890 N 1937.79 1.51692 0.427485 0
M  V30 19891 C 1938.75 1.73114 1.50214 0
M  V30 19892 C 1939.75 0.601079 1.49143 0
M  V30 19893 O 1940.94 0.86875 1.50991 0
M  V30 19894 C 1938.07 1.79666 2.89712 0
M  V30 19895 H 1939.27 2.69033 1.32518 0
M  V30 19896 H 1936.82 1.4183 0.656804 0
M  V30 19897 H 1937.56 0.855968 3.128 0
M  V30 19898 H 1937.34 2.61803 2.91893 0
M  V30 19899 H 1938.83 1.98045 3.67652 0
M  V30 19900 N 1939.27 -0.683564 1.42004 0
M  V30 19901 C 1940.18 -1.82689 1.4718 0
M  V30 19902 C 1941.19 -1.70208 0.361298 0
M  V30 19903 O 1942.37 -1.91912 0.610867 0
M  V30 19904 C 1939.43 -3.18767 1.3634 0
M  V30 19905 C 1938.5 -3.43269 2.57808 0
M  V30 19906 C 1937.73 -4.72855 2.47476 0
M  V30 19907 O 1937.95 -5.50164 1.50584 0
M  V30 19908 O 1936.89 -4.98407 3.37452 0
M  V30 19909 H 1940.71 -1.81279 2.43663 0
M  V30 19910 H 1938.3 -0.838182 1.23672 0
M  V30 19911 H 1940.18 -3.99986 1.32624 0
M  V30 19912 H 1938.85 -3.20834 0.429781 0
M  V30 19913 H 1937.76 -2.61933 2.67099 0
M  V30 19914 H 1939.09 -3.46025 3.50039 0
M  V30 19915 N 1940.75 -1.28031 -0.919012 0
M  V30 19916 C 1941.68 -1.14034 -2.03761 0
M  V30 19917 C 1942.66 -0.039495 -1.70054 0
M  V30 19918 O 1943.84 -0.215546 -1.93 0
M  V30 19919 C 1940.97 -0.795894 -3.38057 0
M  V30 19920 C 1939.93 -1.85093 -3.85907 0
M  V30 19921 C 1939.25 -1.36024 -5.17109 0
M  V30 19922 C 1940.55 -3.25658 -4.08343 0
M  V30 19923 H 1942.25 -2.07609 -2.15729 0
M  V30 19924 H 1939.79 -0.999558 -1.03657 0
M  V30 19925 H 1941.74 -0.684762 -4.15799 0
M  V30 19926 H 1940.47 0.175558 -3.26128 0
M  V30 19927 H 1939.13 -1.95112 -3.10366 0
M  V30 19928 H 1938.78 -0.378004 -5.01578 0
M  V30 19929 H 1938.48 -2.06568 -5.50094 0
M  V30 19930 H 1940 -1.26223 -5.97411 0
M  V30 19931 H 1941.41 -3.1859 -4.76627 0
M  V30 19932 H 1939.81 -3.93989 -4.52651 0
M  V30 19933 H 1940.88 -3.70066 -3.13335 0
M  V30 19934 N 1942.22 1.12672 -1.10194 0
M  V30 19935 C 1943.45 1.88496 -0.865112 0
M  V30 19936 C 1943.87 1.78977 0.578691 0
M  V30 19937 O 1943.23 1.14292 1.40737 0
M  V30 19938 C 1943.28 3.35768 -1.315 0
M  V30 19939 O 1942.38 4.09615 -0.478447 0
M  V30 19940 H 1941.72 0.585782 -0.312658 0
M  V30 19941 H 1944.25 1.42506 -1.46811 0
M  V30 19942 H 1944.26 3.86605 -1.30385 0
M  V30 19943 H 1942.94 3.42013 -2.36643 0
M  V30 19944 H 1941.52 3.68753 -0.554589 0
M  V30 19945 N 1943.7 0.89031 1.30043 0
M  V30 19946 C 1944.95 0.507478 1.95212 0
M  V30 19947 C 1945.26 -0.949179 1.71026 0
M  V30 19948 O 1946.47 -1.4391 2.30222 0
M  V30 19949 C 1944.93 0.856657 3.49556 0
M  V30 19950 C 1944.53 2.33145 3.82554 0
M  V30 19951 C 1946.28 0.543281 4.21009 0
M  V30 19952 C 1944.18 2.62198 5.301 0
M  V30 19953 H 1943.11 0.186056 0.730684 0
M  V30 19954 H 1945.77 1.08602 1.47912 0
M  V30 19955 H 1944.15 0.207146 3.95458 0
M  V30 19956 H 1945.32 3.02572 3.47544 0
M  V30 19957 H 1943.64 2.61289 3.24217 0
M  V30 19958 H 1946.23 0.737312 5.29592 0
M  V30 19959 H 1946.58 -0.517644 4.13069 0
M  V30 19960 H 1947.11 1.15022 3.80808 0
M  V30 19961 H 1943.85 3.67052 5.43096 0
M  V30 19962 H 1943.37 1.97385 5.66392 0
M  V30 19963 H 1945.05 2.47975 5.97593 0
M  V30 19964 N 1945.18 -1.43489 0.651812 0
M  V30 19965 C 1946.4 -2.06696 0.170683 0
M  V30 19966 C 1946.83 -1.48527 -1.15418 0
M  V30 19967 O 1946.19 -0.594665 -1.7127 0
M  V30 19968 C 1946.24 -3.60484 0.0915457 0
M  V30 19969 O 1945.34 -4.01388 -0.946644 0
M  V30 19970 H 1944.68 -0.65728 0.0942276 0
M  V30 19971 H 1947.21 -1.84018 0.89434 0
M  V30 19972 H 1947.22 -4.07896 -0.0922419 0
M  V30 19973 H 1945.9 -4.02199 1.0587 0
M  V30 19974 H 1944.47 -3.65569 -0.735758 0
M  V30 19975 N 1946.66 -0.393643 -1.52605 0
M  V30 19976 C 1948.07 0.0794242 -1.86531 0
M  V30 19977 C 1948.42 1.45778 -1.31313 0
M  V30 19978 O 1947.54 2.06526 -0.646206 0
M  V30 19979 C 1948.14 0.150899 -3.38464 0
M  V30 19980 C 1946.7 0.568268 -3.72086 0
M  V30 19981 C 1945.85 -0.267031 -2.76011 0
M  V30 19982 H 1948.8 -0.611344 -1.46452 0
M  V30 19983 H 1948.82 0.969194 -3.6795 0
M  V30 19984 H 1948.33 -0.852425 -3.78623 0
M  V30 19985 H 1946.43 1.5788 -3.37498 0
M  V30 19986 H 1946.54 0.323405 -4.78007 0
M  V30 19987 H 1944.91 0.268347 -2.53282 0
M  V30 19988 H 1945.69 -1.26841 -3.19008 0
M  V30 19989 N 1948.14 1.57115 -0.123593 0
M  V30 19990 C 1949.36 2.00133 0.544196 0
M  V30 19991 C 1949.79 1.00282 1.59139 0
M  V30 19992 O 1949.14 -0.0248396 1.81283 0
M  V30 19993 C 1949.19 3.4201 1.14287 0
M  V30 19994 O 1948.3 3.45071 2.25832 0
M  V30 19995 H 1947.64 0.650029 0.135492 0
M  V30 19996 H 1950.17 2.03484 -0.213423 0
M  V30 19997 H 1950.18 3.80316 1.47728 0
M  V30 19998 H 1948.85 4.14198 0.375866 0
M  V30 19999 H 1947.43 3.18587 1.93795 0
M  V30 20000 N 1949.61 -0.150187 1.56883 0
M  V30 20001 C 1950.89 -0.891842 1.74085 0
M  V30 20002 C 1951.27 -1.99479 0.690751 0
M  V30 20003 O 1950.62 -2.26641 -0.290877 0
M  V30 20004 C 1950.83 -1.43722 3.18033 0
M  V30 20005 C 1952.18 -1.90188 3.79623 0
M  V30 20006 O 1953.2 -1.53471 3.21442 0
M  V30 20007 O 1952.06 -2.57892 4.81824 0
M  V30 20008 H 1949.15 -0.421241 0.711678 0
M  V30 20009 H 1951.7 -0.136362 1.69151 0
M  V30 20010 H 1950.47 -0.644422 3.85957 0
M  V30 20011 H 1950.09 -2.2563 3.27379 0
M  V30 20012 N 1951.09 -1.51916 -0.419434 0
M  V30 20013 C 1952.04 -1.75117 -1.5309 0
M  V30 20014 C 1953.03 -0.617961 -1.57726 0
M  V30 20015 O 1954.24 -0.79977 -1.61257 0
M  V30 20016 H 1950.62 -0.553609 -0.508941 0
M  V30 20017 H 1952.59 -2.68253 -1.30702 0
M  V30 20018 C 1951.34 -1.90958 -2.90569 0
M  V30 20019 H 1950.66 -2.77571 -2.8774 0
M  V30 20020 H 1952.1 -2.11196 -3.67658 0
M  V30 20021 C 1950.56 -0.673977 -3.3009 0
M  V30 20022 O 1951.09 0.163 -4.01369 0
M  V30 20023 N 1949.29 -0.512857 -2.86039 0
M  V30 20024 H 1948.84 -1.19505 -2.28202 0
M  V30 20025 H 1948.8 0.312589 -3.12842 0
M  V30 20026 N 1952.57 0.676023 -1.42365 0
M  V30 20027 C 1953.53 1.77138 -1.45446 0
M  V30 20028 C 1954.53 1.57116 -0.342226 0
M  V30 20029 O 1955.72 1.63431 -0.602999 0
M  V30 20030 C 1952.86 3.15757 -1.28492 0
M  V30 20031 H 1954.05 1.75794 -2.42974 0
M  V30 20032 H 1951.6 0.885538 -1.28794 0
M  V30 20033 H 1952.34 3.22729 -0.318815 0
M  V30 20034 H 1952.12 3.31694 -2.09097 0
M  V30 20035 H 1953.61 3.95677 -1.33528 0
M  V30 20036 N 1954.05 1.28517 0.912209 0
M  V30 20037 C 1955.29 1.15932 1.66396 0
M  V30 20038 C 1955.63 -0.291123 1.92006 0
M  V30 20039 O 1954.9 -1.21159 1.52154 0
M  V30 20040 C 1955.19 1.95993 3.0209 0
M  V30 20041 C 1955.04 3.49109 2.83625 0
M  V30 20042 C 1956.36 1.77655 4.0265 0
M  V30 20043 H 1953.48 0.42252 0.603859 0
M  V30 20044 H 1956.12 1.5785 1.05752 0
M  V30 20045 H 1954.27 1.60372 3.53855 0
M  V30 20046 H 1955.94 3.94644 2.38859 0
M  V30 20047 H 1954.18 3.74664 2.18653 0
M  V30 20048 H 1954.85 4.00386 3.79993 0
M  V30 20049 H 1957.33 2.08743 3.59952 0
M  V30 20050 H 1956.21 2.36043 4.95555 0
M  V30 20051 H 1956.47 0.728445 4.36057 0
M  V30 20052 N 1955.53 -1.12086 1.1079 0
M  V30 20053 C 1956.77 -1.83949 0.853848 0
M  V30 20054 C 1957.11 -1.8407 -0.619029 0
M  V30 20055 O 1956.38 -1.28889 -1.45664 0
M  V30 20056 C 1956.66 -3.31452 1.40754 0
M  V30 20057 C 1956.52 -3.39765 2.94754 0
M  V30 20058 C 1957.84 -4.2732 1.05288 0
M  V30 20059 H 1954.95 -0.667872 0.311635 0
M  V30 20060 H 1957.6 -1.31475 1.37166 0
M  V30 20061 H 1955.75 -3.7627 0.967112 0
M  V30 20062 H 1957.42 -3.03555 3.4735 0
M  V30 20063 H 1955.66 -2.80196 3.31168 0
M  V30 20064 H 1956.33 -4.43553 3.2858 0
M  V30 20065 H 1958.81 -3.90647 1.43297 0
M  V30 20066 H 1957.68 -5.28929 1.46716 0
M  V30 20067 H 1957.95 -4.42084 -0.0372227 0
M  V30 20068 N 1957 -0.897194 -1.29569 0
M  V30 20069 C 1957.93 -0.389601 -2.30227 0
M  V30 20070 C 1958.92 0.53405 -1.61499 0
M  V30 20071 O 1960.1 0.44531 -1.89025 0
M  V30 20072 C 1957.23 0.385966 -3.45149 0
M  V30 20073 C 1956.18 -0.447028 -4.25659 0
M  V30 20074 C 1955.51 0.455883 -5.32753 0
M  V30 20075 C 1956.81 -1.69562 -4.9401 0
M  V30 20076 H 1958.5 -1.23077 -2.72933 0
M  V30 20077 H 1956.05 -0.593265 -1.31211 0
M  V30 20078 H 1958 0.751791 -4.1464 0
M  V30 20079 H 1956.73 1.26089 -3.01279 0
M  V30 20080 H 1955.39 -0.795152 -3.57873 0
M  V30 20081 H 1955.03 1.32887 -4.85129 0
M  V30 20082 H 1954.73 -0.0977528 -5.87519 0
M  V30 20083 H 1956.26 0.817956 -6.05097 0
M  V30 20084 H 1957.67 -1.39968 -5.55951 0
M  V30 20085 H 1956.07 -2.19039 -5.58697 0
M  V30 20086 H 1957.14 -2.43305 -4.19441 0
M  V30 20087 N 1958.48 1.43142 -0.659413 0
M  V30 20088 C 1959.71 2.06087 -0.183265 0
M  V30 20089 C 1960.13 1.49462 1.15354 0
M  V30 20090 O 1959.48 0.628341 1.71342 0
M  V30 20091 C 1959.53 3.61381 -0.0928701 0
M  V30 20092 O 1959.25 4.15902 -1.37684 0
M  V30 20093 C 1960.76 4.41413 0.408616 0
M  V30 20094 H 1957.98 0.664557 -0.092765 0
M  V30 20095 H 1960.52 1.83542 -0.901809 0
M  V30 20096 H 1958.67 3.8309 0.576268 0
M  V30 20097 H 1959.09 5.09629 -1.24009 0
M  V30 20098 H 1960.56 5.50394 0.420806 0
M  V30 20099 H 1961.04 4.14885 1.44108 0
M  V30 20100 H 1961.65 4.24687 -0.228247 0
M  V30 20101 N 1959.96 0.40173 1.52394 0
M  V30 20102 C 1960.91 -0.442142 2.28359 0
M  V30 20103 C 1961.9 -1.05228 1.32753 0
M  V30 20104 O 1963.11 -0.991332 1.50242 0
M  V30 20105 H 1959.48 -0.161356 0.734485 0
M  V30 20106 H 1961.45 0.219869 2.97589 0
M  V30 20107 C 1960.2 -1.55062 3.11209 0
M  V30 20108 H 1959.53 -1.09046 3.84642 0
M  V30 20109 H 1960.97 -2.11505 3.6748 0
M  V30 20110 C 1959.43 -2.51376 2.24303 0
M  V30 20111 O 1959.96 -3.55084 1.87825 0
M  V30 20112 N 1958.16 -2.2141 1.88218 0
M  V30 20113 H 1957.71 -1.37106 2.18082 0
M  V30 20114 H 1957.67 -2.861 1.30362 0
M  V30 20115 N 1961.44 -1.57047 0.131923 0
M  V30 20116 C 1962.37 -2.19006 -0.809859 0
M  V30 20117 C 1963.35 -1.13384 -1.26799 0
M  V30 20118 O 1964.53 -1.4167 -1.32827 0
M  V30 20119 C 1961.66 -2.79973 -2.05505 0
M  V30 20120 C 1960.62 -3.9129 -1.73424 0
M  V30 20121 C 1959.94 -4.39123 -3.05081 0
M  V30 20122 C 1961.24 -5.12783 -0.992535 0
M  V30 20123 H 1962.94 -2.97958 -0.293522 0
M  V30 20124 H 1960.48 -1.4332 -0.13974 0
M  V30 20125 H 1962.44 -3.2198 -2.71858 0
M  V30 20126 H 1961.16 -1.9833 -2.59486 0
M  V30 20127 H 1959.82 -3.49879 -1.09456 0
M  V30 20128 H 1959.47 -3.54322 -3.57022 0
M  V30 20129 H 1959.17 -5.14197 -2.84385 0
M  V30 20130 H 1960.69 -4.8379 -3.72531 0
M  V30 20131 H 1962.11 -5.51728 -1.55785 0
M  V30 20132 H 1960.5 -5.93522 -0.886062 0
M  V30 20133 H 1961.57 -4.84896 0.0184538 0
M  V30 20134 N 1962.92 0.141865 -1.5696 0
M  V30 20135 C 1963.85 1.17667 -2.01685 0
M  V30 20136 C 1964.83 1.44509 -0.897282 0
M  V30 20137 O 1966.01 1.55342 -1.16544 0
M  V30 20138 C 1963.14 2.50859 -2.40182 0
M  V30 20139 C 1962.1 2.38527 -3.55371 0
M  V30 20140 C 1961.42 3.76476 -3.79697 0
M  V30 20141 C 1962.72 1.86502 -4.87867 0
M  V30 20142 H 1964.42 0.804761 -2.88382 0
M  V30 20143 H 1961.96 0.385672 -1.38739 0
M  V30 20144 H 1963.92 3.2348 -2.70071 0
M  V30 20145 H 1962.64 2.89895 -1.50428 0
M  V30 20146 H 1961.3 1.68357 -3.25656 0
M  V30 20147 H 1960.95 4.12957 -2.87186 0
M  V30 20148 H 1960.65 3.69085 -4.5722 0
M  V30 20149 H 1962.17 4.50638 -4.12017 0
M  V30 20150 H 1963.58 2.48921 -5.16441 0
M  V30 20151 H 1961.98 1.89989 -5.69231 0
M  V30 20152 H 1963.05 0.821025 -4.77899 0
M  V30 20153 N 1964.39 1.52136 0.411372 0
M  V30 20154 C 1965.81 1.58274 0.990272 0
M  V30 20155 C 1966.16 0.421874 1.91611 0
M  V30 20156 O 1965.28 -0.458058 2.11497 0
M  V30 20157 C 1965.88 2.86855 1.80276 0
M  V30 20158 C 1964.44 2.95478 2.33173 0
M  V30 20159 C 1963.58 2.5319 1.13093 0
M  V30 20160 H 1966.53 1.57538 0.191687 0
M  V30 20161 H 1966.55 2.72082 2.65992 0
M  V30 20162 H 1966.07 3.71326 1.12866 0
M  V30 20163 H 1964.17 2.15496 3.03961 0
M  V30 20164 H 1964.28 3.99674 2.64192 0
M  V30 20165 H 1962.64 2.06986 1.48421 0
M  V30 20166 H 1963.43 3.40032 0.472529 0
M  V30 20167 N 1965.87 -0.668464 1.42721 0
M  V30 20168 C 1967.12 -1.42567 1.43245 0
M  V30 20169 C 1967.44 -1.9493 0.0521972 0
M  V30 20170 O 1966.71 -1.73469 -0.910231 0
M  V30 20171 H 1965.29 -0.529068 0.527349 0
M  V30 20172 H 1967.95 -0.789428 1.78197 0
M  V30 20173 H 1967.05 -2.27556 2.13599 0
M  V30 20174 N 1967.35 -1.28999 -0.905381 0
M  V30 20175 C 1968.58 -1.19512 -1.68892 0
M  V30 20176 C 1968.99 0.245073 -1.87203 0
M  V30 20177 O 1968.35 1.16474 -1.405 0
M  V30 20178 C 1968.4 -1.89822 -3.07652 0
M  V30 20179 O 1968.12 -3.28217 -2.90181 0
M  V30 20180 C 1969.62 -1.86742 -4.02048 0
M  V30 20181 H 1966.84 -0.414483 -0.527678 0
M  V30 20182 H 1969.39 -1.70271 -1.1326 0
M  V30 20183 H 1967.54 -1.42913 -3.60076 0
M  V30 20184 H 1967.96 -3.63549 -3.78064 0
M  V30 20185 H 1969.43 -2.40512 -4.96848 0
M  V30 20186 H 1969.91 -0.841659 -4.3106 0
M  V30 20187 H 1970.51 -2.33369 -3.55555 0
M  V30 20188 N 1968.83 1.11497 -1.11383 0
M  V30 20189 C 1969.74 2.21101 -0.784315 0
M  V30 20190 C 1970.76 1.72574 0.222313 0
M  V30 20191 O 1971.93 2.01315 0.058632 0
M  V30 20192 C 1969 3.45925 -0.231713 0
M  V30 20193 C 1968.06 4.09243 -1.29687 0
M  V30 20194 C 1967.29 5.28108 -0.770542 0
M  V30 20195 O 1967.51 5.68998 0.399616 0
M  V30 20196 O 1966.45 5.81996 -1.53505 0
M  V30 20197 H 1970.27 2.51699 -1.69946 0
M  V30 20198 H 1967.86 1.20022 -0.889672 0
M  V30 20199 H 1969.74 4.21338 0.0721248 0
M  V30 20200 H 1968.42 3.1698 0.656146 0
M  V30 20201 H 1967.32 3.35564 -1.65371 0
M  V30 20202 H 1968.66 4.42365 -2.1581 0
M  V30 20203 N 1970.31 0.904053 1.29092 0
M  V30 20204 C 1971.54 0.546964 1.99228 0
M  V30 20205 C 1971.95 -0.873787 1.67814 0
M  V30 20206 O 1971.29 -1.58892 0.921898 0
M  V30 20207 C 1971.35 0.664609 3.53303 0
M  V30 20208 C 1971.01 2.05313 4.08284 0
M  V30 20209 C 1972.01 3.02478 4.22851 0
M  V30 20210 C 1969.7 2.36369 4.4321 0
M  V30 20211 C 1971.69 4.28821 4.71584 0
M  V30 20212 C 1969.38 3.62953 4.91638 0
M  V30 20213 C 1970.38 4.58993 5.05781 0
M  V30 20214 O 1970.06 5.83329 5.53157 0
M  V30 20215 H 1969.8 0.208111 0.643168 0
M  V30 20216 H 1972.35 1.21663 1.65491 0
M  V30 20217 H 1970.58 -0.0621014 3.8665 0
M  V30 20218 H 1972.27 0.316038 4.04668 0
M  V30 20219 H 1973.03 2.79801 3.96152 0
M  V30 20220 H 1968.91 1.62373 4.31458 0
M  V30 20221 H 1972.46 5.03789 4.82538 0
M  V30 20222 H 1968.35 3.85459 5.17776 0
M  V30 20223 H 1969.12 5.8598 5.71463 0
M  V30 20224 N 1971.79 -1.4279 0.666995 0
M  V30 20225 C 1973.03 -2.01942 0.186305 0
M  V30 20226 C 1973.36 -1.52579 -1.20139 0
M  V30 20227 O 1972.64 -0.724677 -1.80496 0
M  V30 20228 C 1972.92 -3.59474 0.212322 0
M  V30 20229 C 1972.78 -4.19035 1.63491 0
M  V30 20230 C 1974.09 -4.37857 -0.443762 0
M  V30 20231 H 1971.21 -0.733747 0.0691733 0
M  V30 20232 H 1973.86 -1.69912 0.850298 0
M  V30 20233 H 1972.01 -3.86892 -0.353062 0
M  V30 20234 H 1973.68 -4.02598 2.25195 0
M  V30 20235 H 1971.92 -3.75161 2.178 0
M  V30 20236 H 1972.59 -5.28155 1.60486 0
M  V30 20237 H 1975.07 -4.16083 0.0374331 0
M  V30 20238 H 1973.94 -5.47478 -0.394887 0
M  V30 20239 H 1974.2 -4.15144 -1.52012 0
M  V30 20240 N 1973.26 -0.409806 -1.52179 0
M  V30 20241 C 1974.51 0.166003 -2.02119 0
M  V30 20242 C 1974.84 1.44732 -1.29484 0
M  V30 20243 O 1974.12 1.90314 -0.401362 0
M  V30 20244 C 1974.4 0.413015 -3.57724 0
M  V30 20245 C 1974.25 -0.885028 -4.41007 0
M  V30 20246 C 1975.57 1.19486 -4.2357 0
M  V30 20247 H 1972.69 0.0588585 -0.734646 0
M  V30 20248 H 1975.33 -0.543405 -1.82063 0
M  V30 20249 H 1973.48 1.01732 -3.74944 0
M  V30 20250 H 1975.16 -1.5212 -4.35497 0
M  V30 20251 H 1973.4 -1.49585 -4.07194 0
M  V30 20252 H 1974.07 -0.66658 -5.47961 0
M  V30 20253 H 1976.55 0.683238 -4.10452 0
M  V30 20254 H 1975.42 1.33644 -5.32382 0
M  V30 20255 H 1975.68 2.21566 -3.82571 0
M  V30 20256 N 1974.74 1.56975 -0.14025 0
M  V30 20257 C 1975.97 2.00699 0.522938 0
M  V30 20258 C 1976.39 1.01964 1.58066 0
M  V30 20259 O 1975.75 -0.0056107 1.81299 0
M  V30 20260 C 1975.8 3.43203 1.10653 0
M  V30 20261 O 1974.9 3.47447 2.22159 0
M  V30 20262 H 1974.24 0.65143 0.12859 0
M  V30 20263 H 1976.77 2.03246 -0.234993 0
M  V30 20264 H 1976.78 3.81862 1.43686 0
M  V30 20265 H 1975.46 4.14573 0.331913 0
M  V30 20266 H 1974.03 3.20625 1.90405 0
M  V30 20267 N 1976.22 -0.133539 1.57033 0
M  V30 20268 C 1977.47 -0.845109 1.84352 0
M  V30 20269 C 1977.8 -1.80205 0.723864 0
M  V30 20270 O 1977.07 -1.92596 -0.271485 0
M  V30 20271 C 1977.36 -1.6078 3.22214 0
M  V30 20272 C 1977.21 -0.671438 4.4476 0
M  V30 20273 C 1978.53 -2.56728 3.57462 0
M  V30 20274 H 1975.65 -0.305783 0.670571 0
M  V30 20275 H 1978.29 -0.109825 1.89682 0
M  V30 20276 H 1976.44 -2.23461 3.17801 0
M  V30 20277 H 1978.11 -0.0545922 4.61268 0
M  V30 20278 H 1976.35 0.018069 4.33796 0
M  V30 20279 H 1977.03 -1.24142 5.37859 0
M  V30 20280 H 1979.5 -2.04159 3.62572 0
M  V30 20281 H 1978.38 -3.07133 4.54929 0
M  V30 20282 H 1978.64 -3.38717 2.84119 0
M  V30 20283 N 1977.7 -1.52352 -0.403298 0
M  V30 20284 C 1978.92 -1.70849 -1.17582 0
M  V30 20285 C 1979.35 -0.419696 -1.83358 0
M  V30 20286 O 1978.71 0.623346 -1.70247 0
M  V30 20287 C 1978.75 -2.8492 -2.21027 0
M  V30 20288 O 1977.86 -2.50896 -3.273 0
M  V30 20289 H 1977.2 -0.568568 -0.342967 0
M  V30 20290 H 1979.73 -1.99082 -0.471975 0
M  V30 20291 H 1979.74 -3.10002 -2.6526 0
M  V30 20292 H 1978.41 -3.78423 -1.72536 0
M  V30 20293 H 1976.99 -2.36506 -2.88304 0
M  V30 20294 N 1979.18 0.660885 -1.43074 0
M  V30 20295 C 1980.4 1.45376 -1.47921 0
M  V30 20296 C 1980.83 1.87855 -0.0960289 0
M  V30 20297 O 1980.18 1.5689 0.908583 0
M  V30 20298 C 1980.23 2.67002 -2.42368 0
M  V30 20299 O 1979.34 3.65783 -1.90465 0
M  V30 20300 H 1978.68 0.436193 -0.500632 0
M  V30 20301 H 1981.21 0.809399 -1.87909 0
M  V30 20302 H 1981.22 3.14909 -2.59416 0
M  V30 20303 H 1979.89 2.35426 -3.42852 0
M  V30 20304 H 1978.47 3.24885 -1.83041 0
M  V30 20305 N 1980.65 1.29477 0.898527 0
M  V30 20306 C 1981.9 1.1769 1.65157 0
M  V30 20307 C 1982.23 -0.270742 1.92303 0
M  V30 20308 O 1981.51 -1.19538 1.5343 0
M  V30 20309 C 1981.79 1.99186 2.99995 0
M  V30 20310 C 1981.64 3.52097 2.79906 0
M  V30 20311 C 1982.96 1.81916 4.00743 0
M  V30 20312 H 1980.08 0.428901 0.599344 0
M  V30 20313 H 1982.72 1.58963 1.04071 0
M  V30 20314 H 1980.87 1.64116 3.52134 0
M  V30 20315 H 1982.55 3.97155 2.3466 0
M  V30 20316 H 1980.79 3.76962 2.14667 0
M  V30 20317 H 1981.46 4.04394 3.75725 0
M  V30 20318 H 1983.94 2.12549 3.57718 0
M  V30 20319 H 1982.81 2.41285 4.93024 0
M  V30 20320 H 1983.07 0.774654 4.3526 0
M  V30 20321 N 1982.13 -1.10905 1.11972 0
M  V30 20322 C 1983.36 -1.86284 0.893402 0
M  V30 20323 C 1983.77 -1.80704 -0.560594 0
M  V30 20324 O 1983.11 -1.19041 -1.3991 0
M  V30 20325 C 1983.18 -3.35793 1.28386 0
M  V30 20326 C 1982.84 -3.65137 2.74816 0
M  V30 20327 C 1983.84 -3.62148 3.73021 0
M  V30 20328 C 1981.52 -3.93967 3.11601 0
M  V30 20329 C 1983.52 -3.87575 5.06028 0
M  V30 20330 C 1981.2 -4.19051 4.44791 0
M  V30 20331 C 1982.2 -4.15844 5.41814 0
M  V30 20332 O 1981.89 -4.40294 6.72604 0
M  V30 20333 H 1981.62 -0.59576 0.319447 0
M  V30 20334 H 1984.17 -1.41148 1.49219 0
M  V30 20335 H 1982.4 -3.81563 0.628247 0
M  V30 20336 H 1984.09 -3.9255 1.03245 0
M  V30 20337 H 1984.86 -3.3992 3.45948 0
M  V30 20338 H 1980.74 -3.95596 2.36695 0
M  V30 20339 H 1984.28 -3.84987 5.81748 0
M  V30 20340 H 1980.18 -4.40757 4.71596 0
M  V30 20341 H 1980.95 -4.57833 6.78477 0
M  V30 20342 N 1983.61 -0.910886 -1.2861 0
M  V30 20343 C 1984.52 -0.402088 -2.31129 0
M  V30 20344 C 1985.54 0.508811 -1.66394 0
M  V30 20345 O 1986.71 0.395691 -1.97475 0
M  V30 20346 C 1983.78 0.352182 -3.44907 0
M  V30 20347 C 1982.84 -0.59159 -4.25204 0
M  V30 20348 C 1982.07 0.126778 -5.33549 0
M  V30 20349 O 1982.29 1.34897 -5.54219 0
M  V30 20350 O 1981.23 -0.536442 -5.99505 0
M  V30 20351 H 1985.05 -1.25289 -2.76652 0
M  V30 20352 H 1982.64 -0.675604 -1.33251 0
M  V30 20353 H 1984.52 0.778285 -4.14151 0
M  V30 20354 H 1983.2 1.17886 -3.01471 0
M  V30 20355 H 1982.1 -1.06703 -3.5856 0
M  V30 20356 H 1983.44 -1.38501 -4.72312 0
M  V30 20357 N 1985.09 1.42434 -0.674558 0
M  V30 20358 C 1986.02 2.2916 0.0428589 0
M  V30 20359 C 1987.03 1.43667 0.765749 0
M  V30 20360 O 1988.22 1.67388 0.619947 0
M  V30 20361 C 1985.32 3.21083 1.08439 0
M  V30 20362 C 1984.5 4.35228 0.435368 0
M  V30 20363 C 1983.55 5.07873 1.37665 0
M  V30 20364 O 1982.58 5.62402 0.877047 0
M  V30 20365 N 1983.78 5.13364 2.70994 0
M  V30 20366 H 1986.55 2.91372 -0.701618 0
M  V30 20367 H 1984.11 1.53357 -0.518954 0
M  V30 20368 H 1986.1 3.66548 1.71535 0
M  V30 20369 H 1984.67 2.60324 1.7306 0
M  V30 20370 H 1983.89 3.92411 -0.375103 0
M  V30 20371 H 1985.18 5.08797 -0.0167882 0
M  V30 20372 H 1984.58 4.70472 3.14122 0
M  V30 20373 H 1983.13 5.62476 3.29338 0
M  V30 20374 N 1986.57 0.417871 1.51959 0
M  V30 20375 C 1987.52 -0.420841 2.24082 0
M  V30 20376 C 1988.5 -1.00627 1.25551 0
M  V30 20377 O 1989.69 -0.927636 1.50745 0
M  V30 20378 C 1986.82 -1.5322 3.07211 0
M  V30 20379 C 1985.91 -0.957122 4.13159 0
M  V30 20380 N 1986.3 -0.109467 5.05682 0
M  V30 20381 C 1984.6 -1.22673 4.28797 0
M  V30 20382 C 1985.3 0.211436 5.81316 0
M  V30 20383 N 1984.27 -0.399968 5.42127 0
M  V30 20384 H 1988.08 0.232982 2.92975 0
M  V30 20385 H 1985.59 0.228798 1.6078 0
M  V30 20386 H 1987.59 -2.14574 3.57441 0
M  V30 20387 H 1986.25 -2.18856 2.39859 0
M  V30 20388 H 1987.26 0.25551 5.17269 0
M  V30 20389 H 1983.93 -1.88203 3.72674 0
M  V30 20390 H 1985.32 0.900024 6.65845 0
M  V30 20391 N 1988.04 -1.56898 0.148573 0
M  V30 20392 C 1988.95 -2.2041 -0.80353 0
M  V30 20393 C 1989.97 -1.18886 -1.27052 0
M  V30 20394 O 1991.15 -1.51468 -1.32738 0
M  V30 20395 C 1988.21 -2.81447 -2.02456 0
M  V30 20396 C 1987.27 -3.98102 -1.60665 0
M  V30 20397 C 1986.51 -4.56219 -2.76948 0
M  V30 20398 O 1986.73 -4.13215 -3.93204 0
M  V30 20399 O 1985.66 -5.46455 -2.52329 0
M  V30 20400 H 1989.49 -3.02284 -0.292881 0
M  V30 20401 H 1987.07 -1.49193 -0.0785299 0
M  V30 20402 H 1988.96 -3.20235 -2.73911 0
M  V30 20403 H 1987.63 -2.02585 -2.5247 0
M  V30 20404 H 1986.54 -3.64027 -0.862287 0
M  V30 20405 H 1987.87 -4.78489 -1.15365 0
M  V30 20406 N 1989.52 0.125209 -1.57102 0
M  V30 20407 C 1990.75 0.852378 -1.89075 0
M  V30 20408 C 1991.17 1.72938 -0.739878 0
M  V30 20409 O 1990.53 1.78633 0.309828 0
M  V30 20410 C 1990.58 1.66688 -3.19762 0
M  V30 20411 O 1989.68 2.77324 -3.0523 0
M  V30 20412 H 1989.02 0.236103 -0.620606 0
M  V30 20413 H 1991.55 0.109473 -2.04307 0
M  V30 20414 H 1991.56 2.0574 -3.52328 0
M  V30 20415 H 1990.24 1.02303 -4.03121 0
M  V30 20416 H 1988.82 2.41519 -2.84118 0
M  V30 20417 N 1991 1.52564 0.395213 0
M  V30 20418 C 1992.23 1.71173 1.16222 0
M  V30 20419 C 1992.64 0.427335 1.839 0
M  V30 20420 O 1992 -0.597726 1.72434 0
M  V30 20421 C 1992.05 2.85698 2.21492 0
M  V30 20422 O 1991.77 4.09165 1.56574 0
M  V30 20423 C 1993.27 3.15934 3.10967 0
M  V30 20424 H 1990.49 0.573277 0.348705 0
M  V30 20425 H 1993.04 1.99186 0.463177 0
M  V30 20426 H 1991.19 2.60165 2.87042 0
M  V30 20427 H 1991.61 4.73086 2.26473 0
M  V30 20428 H 1993.08 3.99548 3.80874 0
M  V30 20429 H 1993.56 2.30059 3.74125 0
M  V30 20430 H 1994.16 3.43284 2.5107 0
M  V30 20431 N 1992.48 -0.653289 1.43422 0
M  V30 20432 C 1993.89 -1.23446 1.40064 0
M  V30 20433 C 1994.24 -1.95921 0.104677 0
M  V30 20434 O 1993.37 -2.01233 -0.79588 0
M  V30 20435 C 1993.96 -2.24523 2.53722 0
M  V30 20436 C 1992.52 -2.78117 2.53629 0
M  V30 20437 C 1991.67 -1.52759 2.3143 0
M  V30 20438 H 1994.62 -0.445312 1.52324 0
M  V30 20439 H 1994.64 -3.06696 2.25207 0
M  V30 20440 H 1994.15 -1.71746 3.4803 0
M  V30 20441 H 1992.25 -3.34957 1.632 0
M  V30 20442 H 1992.36 -3.25667 3.51394 0
M  V30 20443 H 1990.73 -1.80104 1.80096 0
M  V30 20444 H 1991.51 -1.01917 3.27823 0
M  V30 20445 N 1993.96 -1.29952 -0.891648 0
M  V30 20446 C 1994.89 -1.18331 -2.01296 0
M  V30 20447 C 1995.87 -0.0755571 -1.69932 0
M  V30 20448 O 1997.05 -0.256435 -1.92499 0
M  V30 20449 C 1994.18 -0.867421 -3.36293 0
M  V30 20450 C 1993.14 -1.93237 -3.81894 0
M  V30 20451 C 1992.46 -1.46962 -5.14107 0
M  V30 20452 C 1993.76 -3.34246 -4.01344 0
M  V30 20453 H 1995.46 -2.12138 -2.11276 0
M  V30 20454 H 1993 -1.02132 -1.01514 0
M  V30 20455 H 1994.96 -0.772806 -4.14253 0
M  V30 20456 H 1993.68 0.106342 -3.26427 0
M  V30 20457 H 1992.34 -2.01651 -3.06157 0
M  V30 20458 H 1991.99 -0.484311 -5.00663 0
M  V30 20459 H 1991.69 -2.1819 -5.45589 0
M  V30 20460 H 1993.21 -1.38866 -5.94599 0
M  V30 20461 H 1994.62 -3.28629 -4.69762 0
M  V30 20462 H 1993.02 -4.03502 -4.44192 0
M  V30 20463 H 1994.09 -3.76629 -3.05415 0
M  V30 20464 N 1995.44 1.1031 -1.12559 0
M  V30 20465 C 1996.85 1.34325 -0.861911 0
M  V30 20466 C 1997.05 1.95009 0.507319 0
M  V30 20467 O 1996.11 2.1906 1.25574 0
M  V30 20468 C 1997.42 2.26367 -1.97935 0
M  V30 20469 C 1998.97 2.39901 -2.01039 0
M  V30 20470 C 1999.44 3.35273 -3.1202 0
M  V30 20471 N 2000.93 3.42841 -3.11471 0
M  V30 20472 C 2001.67 4.16611 -3.93983 0
M  V30 20473 N 2001.17 4.93256 -4.86488 0
M  V30 20474 N 2002.96 4.12243 -3.82116 0
M  V30 20475 H 1995.11 0.692899 -2.0078 0
M  V30 20476 H 1997.37 0.367689 -0.87379 0
M  V30 20477 H 1997.08 1.8899 -2.96607 0
M  V30 20478 H 1996.95 3.26685 -1.88565 0
M  V30 20479 H 1999.34 2.76546 -1.02986 0
M  V30 20480 H 1999.42 1.39393 -2.14484 0
M  V30 20481 H 1999.06 2.99352 -4.10306 0
M  V30 20482 H 1998.99 4.35663 -2.95813 0
M  V30 20483 H 2001.49 2.88182 -2.44457 0
M  V30 20484 H 2001.8 5.46948 -5.45956 0
M  V30 20485 H 2000.14 4.92376 -4.90501 0
M  V30 20486 H 2003.33 3.5146 -3.09182 0
M  V30 20487 H 2003.51 4.69475 -4.46651 0
M  V30 20488 N 1996.91 0.917694 1.28125 0
M  V30 20489 C 1998.16 0.551804 1.94421 0
M  V30 20490 C 1998.48 -0.908163 1.72561 0
M  V30 20491 O 1997.75 -1.64255 1.06758 0
M  V30 20492 H 1996.33 0.201081 0.719427 0
M  V30 20493 H 1998.99 1.16791 1.56032 0
M  V30 20494 H 1998.09 0.749587 3.02965 0
M  V30 20495 N 1998.39 -1.42074 0.682102 0
M  V30 20496 C 1999.81 -1.55662 0.352347 0
M  V30 20497 C 2000.01 -1.66032 -1.14174 0
M  V30 20498 O 1999.06 -1.63128 -1.92732 0
M  V30 20499 C 2000.38 -2.80285 1.08907 0
M  V30 20500 C 2001.92 -2.94066 1.0721 0
M  V30 20501 C 2002.4 -4.2156 1.7903 0
M  V30 20502 N 2003.89 -4.28488 1.75933 0
M  V30 20503 C 2004.63 -5.25968 2.28354 0
M  V30 20504 N 2004.12 -6.29557 2.89188 0
M  V30 20505 N 2005.91 -5.17815 2.18686 0
M  V30 20506 H 1998.07 -1.33588 1.65131 0
M  V30 20507 H 2000.33 -0.643549 0.696096 0
M  V30 20508 H 2000.03 -2.78786 2.14409 0
M  V30 20509 H 1999.91 -3.71399 0.658975 0
M  V30 20510 H 2002.3 -2.95089 0.0253867 0
M  V30 20511 H 2002.38 -2.04163 1.54114 0
M  V30 20512 H 2002.02 -4.21298 2.83673 0
M  V30 20513 H 2001.95 -5.10411 1.2957 0
M  V30 20514 H 2004.44 -3.54257 1.31568 0
M  V30 20515 H 2004.75 -7.00306 3.26789 0
M  V30 20516 H 2003.1 -6.30098 2.9326 0
M  V30 20517 H 2006.29 -4.3581 1.70843 0
M  V30 20518 H 2006.46 -5.9362 2.59845 0
M  V30 20519 N 1999.87 -0.425924 -1.51735 0
M  V30 20520 C 2000.8 0.426878 -2.2519 0
M  V30 20521 C 2001.81 0.996019 -1.28776 0
M  V30 20522 O 2003 0.892101 -1.54609 0
M  V30 20523 C 2000.1 1.60792 -2.98327 0
M  V30 20524 C 1999.28 1.15969 -4.21746 0
M  V30 20525 C 1998.34 2.20954 -4.77562 0
M  V30 20526 O 1997.36 1.80855 -5.39704 0
M  V30 20527 N 1998.56 3.53313 -4.60597 0
M  V30 20528 H 2001.33 -0.20262 -2.99014 0
M  V30 20529 H 1998.89 -0.254194 -1.59892 0
M  V30 20530 H 2000.88 2.30624 -3.32558 0
M  V30 20531 H 1999.45 2.14299 -2.27585 0
M  V30 20532 H 1998.67 0.28885 -3.9314 0
M  V30 20533 H 1999.96 0.837426 -5.01861 0
M  V30 20534 H 1999.36 3.88631 -4.11075 0
M  V30 20535 H 1997.91 4.19073 -4.9922 0
M  V30 20536 N 2001.35 1.56817 -0.156891 0
M  V30 20537 C 2002.29 2.17256 0.779004 0
M  V30 20538 C 2003.26 1.1083 1.23717 0
M  V30 20539 O 2004.45 1.38917 1.30793 0
M  V30 20540 C 2001.59 2.80612 2.00876 0
M  V30 20541 C 2000.7 4.01457 1.59549 0
M  V30 20542 C 1999.84 4.52782 2.7778 0
M  V30 20543 C 1998.88 5.66071 2.32874 0
M  V30 20544 N 1998.01 6.11969 3.44148 0
M  V30 20545 H 2002.85 2.96891 0.256809 0
M  V30 20546 H 2000.39 1.46649 0.115039 0
M  V30 20547 H 2002.35 3.15494 2.72983 0
M  V30 20548 H 2000.98 2.03604 2.5049 0
M  V30 20549 H 2000.03 3.7249 0.771705 0
M  V30 20550 H 2001.34 4.83505 1.22576 0
M  V30 20551 H 2000.5 4.89771 3.58064 0
M  V30 20552 H 1999.24 3.69763 3.18005 0
M  V30 20553 H 1998.24 5.28648 1.51034 0
M  V30 20554 H 1999.47 6.50882 1.93724 0
M  V30 20555 H 1997.41 5.31883 3.83975 0
M  V30 20556 H 1997.33 6.88968 3.11222 0
M  V30 20557 H 1998.6 6.53605 4.24759 0
M  V30 20558 N 2002.83 -0.116876 1.57166 0
M  V30 20559 C 2004.05 -0.838417 1.89151 0
M  V30 20560 C 2004.47 -1.73335 0.748361 0
M  V30 20561 O 2003.83 -1.80328 -0.280719 0
M  V30 20562 C 2003.88 -1.67006 3.20611 0
M  V30 20563 O 2003.6 -0.811158 4.30525 0
M  V30 20564 C 2005.1 -2.49657 3.66314 0
M  V30 20565 H 2002.32 -0.240909 0.626262 0
M  V30 20566 H 2004.86 -0.100631 2.04252 0
M  V30 20567 H 2003.02 -2.36058 3.07173 0
M  V30 20568 H 2003.43 -1.38499 5.05884 0
M  V30 20569 H 2004.91 -3.03537 4.61052 0
M  V30 20570 H 2005.38 -3.27114 2.93075 0
M  V30 20571 H 2005.99 -1.85844 3.82547 0
M  V30 20572 N 2004.3 -1.52772 -0.387116 0
M  V30 20573 C 2005.55 -1.67576 -1.12973 0
M  V30 20574 C 2005.87 -0.419122 -1.90443 0
M  V30 20575 O 2005.14 0.566514 -1.8753 0
M  V30 20576 H 2003.72 -0.617716 -0.420043 0
M  V30 20577 H 2006.38 -1.89892 -0.43896 0
M  V30 20578 H 2005.48 -2.52704 -1.83158 0
M  V30 20579 N 2005.78 0.645673 -1.43767 0
M  V30 20580 C 2006.71 1.76974 -1.52324 0
M  V30 20581 C 2007.69 1.65862 -0.377316 0
M  V30 20582 O 2008.88 1.84843 -0.595532 0
M  V30 20583 C 2006.01 3.1544 -1.4531 0
M  V30 20584 C 2004.96 3.41324 -2.58229 0
M  V30 20585 C 2004.29 4.79669 -2.36267 0
M  V30 20586 C 2005.59 3.35321 -4.00446 0
M  V30 20587 H 2007.28 1.70069 -2.46408 0
M  V30 20588 H 2004.83 0.816784 -1.18594 0
M  V30 20589 H 2006.78 3.93838 -1.49899 0
M  V30 20590 H 2005.5 3.23093 -0.477344 0
M  V30 20591 H 2004.16 2.653 -2.53005 0
M  V30 20592 H 2003.81 4.84007 -1.36918 0
M  V30 20593 H 2003.51 4.97947 -3.11966 0
M  V30 20594 H 2005.04 5.60315 -2.42652 0
M  V30 20595 H 2006.45 4.03644 -4.07117 0
M  V30 20596 H 2004.85 3.65135 -4.76231 0
M  V30 20597 H 2005.92 2.33373 -4.25047 0
M  V30 20598 N 2007.26 1.30423 0.884744 0
M  V30 20599 C 2008.54 1.09917 1.61795 0
M  V30 20600 C 2008.92 -0.351448 2.08154 0
M  V30 20601 O 2008.26 -1.34299 1.84868 0
M  V30 20602 C 2008.47 2.10024 2.78731 0
M  V30 20603 C 2009.82 2.41754 3.49056 0
M  V30 20604 O 2010.85 2.08336 2.8892 0
M  V30 20605 O 2009.71 2.98918 4.57505 0
M  V30 20606 H 2006.8 0.422163 0.711131 0
M  V30 20607 H 2009.35 1.41849 0.9315 0
M  V30 20608 H 2008.12 3.07665 2.41781 0
M  V30 20609 H 2007.74 1.7891 3.55073 0
M  V30 20610 N 2008.74 -1.09711 1.13142 0
M  V30 20611 C 2009.96 -1.86136 0.914785 0
M  V30 20612 C 2010.39 -1.80448 -0.531035 0
M  V30 20613 O 2009.75 -1.17983 -1.37658 0
M  V30 20614 C 2009.79 -3.32164 1.40356 0
M  V30 20615 O 2008.9 -4.08203 0.586881 0
M  V30 20616 H 2008.24 -0.577287 0.328079 0
M  V30 20617 H 2010.77 -1.38563 1.50537 0
M  V30 20618 H 2010.78 -3.83013 1.40589 0
M  V30 20619 H 2009.45 -3.35619 2.45628 0
M  V30 20620 H 2008.03 -3.67153 0.652163 0
M  V30 20621 N 2010.22 -0.924476 -1.27637 0
M  V30 20622 C 2011.63 -0.608255 -1.76514 0
M  V30 20623 C 2011.98 0.87656 -1.7553 0
M  V30 20624 O 2011.1 1.68587 -1.35674 0
M  V30 20625 C 2011.7 -1.09738 -3.20536 0
M  V30 20626 C 2010.26 -0.831881 -3.67092 0
M  V30 20627 C 2009.4 -1.25795 -2.47125 0
M  V30 20628 H 2012.36 -1.1046 -1.13949 0
M  V30 20629 H 2012.38 -0.443602 -3.77905 0
M  V30 20630 H 2011.89 -2.17806 -3.21219 0
M  V30 20631 H 2009.99 0.235141 -3.71857 0
M  V30 20632 H 2010.1 -1.44716 -4.56721 0
M  V30 20633 H 2008.47 -0.676541 -2.4555 0
M  V30 20634 H 2009.25 -2.34721 -2.50521 0
M  V30 20635 N 2011.69 1.41711 -0.689627 0
M  V30 20636 C 2012.92 2.05652 -0.226938 0
M  V30 20637 C 2013.34 1.51875 1.12158 0
M  V30 20638 O 2012.69 0.664544 1.69971 0
M  V30 20639 C 2012.75 3.61102 -0.169503 0
M  V30 20640 O 2012.47 4.12888 -1.46475 0
M  V30 20641 C 2013.97 4.4218 0.314894 0
M  V30 20642 H 2011.19 0.66244 -0.10684 0
M  V30 20643 H 2013.73 1.81588 -0.940538 0
M  V30 20644 H 2011.89 3.84226 0.49488 0
M  V30 20645 H 2012.3 5.06884 -1.34791 0
M  V30 20646 H 2013.77 5.51162 0.303964 0
M  V30 20647 H 2014.25 4.17848 1.35275 0
M  V30 20648 H 2014.86 4.24107 -0.318278 0
M  V30 20649 N 2013.17 0.433965 1.51507 0
M  V30 20650 C 2014.42 -0.133365 2.01659 0
M  V30 20651 C 2014.74 -1.43506 1.32026 0
M  V30 20652 O 2014.01 -1.90572 0.453774 0
M  V30 20653 H 2012.59 -0.0522753 0.745169 0
M  V30 20654 H 2015.25 0.575899 1.86197 0
M  V30 20655 H 2014.35 -0.311697 3.1054 0
M  V30 20656 N 2014.65 -1.56732 0.165206 0
M  V30 20657 C 2015.9 -1.95872 -0.481368 0
M  V30 20658 C 2016.21 -1.05357 -1.64801 0
M  V30 20659 O 2017.42 -1.34152 -2.36041 0
M  V30 20660 C 2015.87 -3.48264 -0.907766 0
M  V30 20661 C 2015.48 -4.47394 0.232939 0
M  V30 20662 C 2017.23 -3.96235 -1.5231 0
M  V30 20663 C 2015.13 -5.91017 -0.212747 0
M  V30 20664 H 2014.06 -0.731304 -0.183605 0
M  V30 20665 H 2016.71 -1.81755 0.252461 0
M  V30 20666 H 2015.1 -3.57777 -1.69739 0
M  V30 20667 H 2016.27 -4.49591 1.01018 0
M  V30 20668 H 2014.59 -4.09446 0.757843 0
M  V30 20669 H 2017.18 -5.0099 -1.8685 0
M  V30 20670 H 2017.53 -3.38822 -2.41879 0
M  V30 20671 H 2018.06 -3.89713 -0.798029 0
M  V30 20672 H 2014.8 -6.52289 0.648008 0
M  V30 20673 H 2014.32 -5.92141 -0.955479 0
M  V30 20674 H 2016 -6.43638 -0.658675 0
M  V30 20675 N 2016.13 0.10854 -1.57226 0
M  V30 20676 C 2017.41 0.845372 -1.76388 0
M  V30 20677 C 2017.79 1.97577 -0.743397 0
M  V30 20678 O 2017.13 2.27333 0.230685 0
M  V30 20679 C 2017.34 1.3524 -3.21732 0
M  V30 20680 C 2018.69 1.80056 -3.84532 0
M  V30 20681 O 2019.72 1.44895 -3.25398 0
M  V30 20682 O 2018.57 2.45026 -4.88492 0
M  V30 20683 H 2015.67 0.402224 -0.722596 0
M  V30 20684 H 2018.21 0.0914662 -1.69453 0
M  V30 20685 H 2016.99 0.541866 -3.8753 0
M  V30 20686 H 2016.61 2.16871 -3.33246 0
M  V30 20687 N 2017.61 1.52975 0.379009 0
M  V30 20688 C 2018.85 1.68505 1.12304 0
M  V30 20689 C 2019.18 0.430012 1.89687 0
M  V30 20690 O 2018.44 -0.587809 1.86664 0
M  V30 20691 C 2018.74 2.8776 2.11964 0
M  V30 20692 C 2018.4 4.24806 1.51163 0
M  V30 20693 C 2017.06 4.62077 1.34308 0
M  V30 20694 C 2019.42 5.10087 1.07053 0
M  V30 20695 C 2016.74 5.82277 0.719058 0
M  V30 20696 C 2019.1 6.30921 0.460559 0
M  V30 20697 C 2017.76 6.66915 0.279391 0
M  V30 20698 H 2017.03 0.616604 0.41095 0
M  V30 20699 H 2019.68 1.87137 0.406443 0
M  V30 20700 H 2017.98 2.63586 2.89879 0
M  V30 20701 H 2019.68 2.96971 2.69461 0
M  V30 20702 H 2016.27 3.95453 1.65272 0
M  V30 20703 H 2020.45 4.81854 1.18872 0
M  V30 20704 H 2015.71 6.08765 0.566983 0
M  V30 20705 H 2019.88 6.96312 0.110504 0
M  V30 20706 H 2017.51 7.5992 -0.206228 0
M  V30 20707 N 2019.08 -0.63804 1.44107 0
M  V30 20708 C 2020.31 -1.43004 1.50215 0
M  V30 20709 C 2020.73 -1.87678 0.125903 0
M  V30 20710 O 2020.09 -1.58316 -0.883508 0
M  V30 20711 C 2020.14 -2.63112 2.46585 0
M  V30 20712 O 2019.24 -3.62706 1.9626 0
M  V30 20713 H 2018.59 -0.428173 0.507508 0
M  V30 20714 H 2021.12 -0.779402 1.89173 0
M  V30 20715 H 2021.13 -3.10742 2.64393 0
M  V30 20716 H 2019.8 -2.29941 3.46554 0
M  V30 20717 H 2018.38 -3.21932 1.88186 0
M  V30 20718 N 2020.56 -1.3089 -0.877815 0
M  V30 20719 C 2021.84 -1.10773 -1.6121 0
M  V30 20720 C 2022.22 0.340404 -2.08337 0
M  V30 20721 O 2021.57 1.33316 -1.85577 0
M  V30 20722 C 2021.78 -2.11499 -2.77613 0
M  V30 20723 C 2023.13 -2.43601 -3.47769 0
M  V30 20724 O 2024.15 -2.09865 -2.87811 0
M  V30 20725 O 2023.01 -3.0134 -4.55913 0
M  V30 20726 H 2020.1 -0.425928 -0.708882 0
M  V30 20727 H 2022.65 -1.42341 -0.923964 0
M  V30 20728 H 2021.42 -3.08943 -2.40146 0
M  V30 20729 H 2021.04 -1.80791 -3.54119 0
M  V30 20730 N 2022.04 1.0911 -1.13723 0
M  V30 20731 C 2023.29 1.80725 -0.895618 0
M  V30 20732 C 2023.6 1.86812 0.579725 0
M  V30 20733 O 2024.81 2.54768 0.938368 0
M  V30 20734 C 2023.26 3.24679 -1.55278 0
M  V30 20735 C 2022.87 3.26849 -3.06388 0
M  V30 20736 C 2024.62 4.01028 -1.392 0
M  V30 20737 C 2022.52 4.65347 -3.64974 0
M  V30 20738 H 2021.45 0.677257 -0.33142 0
M  V30 20739 H 2024.1 1.22603 -1.36531 0
M  V30 20740 H 2022.49 3.82883 -1.01075 0
M  V30 20741 H 2023.66 2.78393 -3.67198 0
M  V30 20742 H 2021.98 2.63993 -3.2202 0
M  V30 20743 H 2024.57 5.03356 -1.80379 0
M  V30 20744 H 2024.92 4.14932 -0.337236 0
M  V30 20745 H 2025.45 3.49274 -1.904 0
M  V30 20746 H 2022.19 4.56646 -4.70271 0
M  V30 20747 H 2021.71 5.14115 -3.08943 0
M  V30 20748 H 2023.39 5.34322 -3.64841 0
M  V30 20749 N 2023.52 0.931232 1.27145 0
M  V30 20750 C 2024.75 0.589956 1.98311 0
M  V30 20751 C 2025.16 -0.832836 1.69438 0
M  V30 20752 O 2024.52 -1.55399 0.956935 0
M  V30 20753 C 2024.57 0.810592 3.52295 0
M  V30 20754 O 2024.29 2.17741 3.80158 0
M  V30 20755 C 2025.79 0.478508 4.4071 0
M  V30 20756 H 2023.01 0.223234 0.632778 0
M  V30 20757 H 2025.56 1.24922 1.6191 0
M  V30 20758 H 2023.71 0.198081 3.86893 0
M  V30 20759 H 2024.12 2.23003 4.74731 0
M  V30 20760 H 2025.6 0.683566 5.47751 0
M  V30 20761 H 2026.08 -0.586102 4.35272 0
M  V30 20762 H 2026.68 1.06931 4.11638 0
M  V30 20763 N 2025 -1.41343 0.697132 0
M  V30 20764 C 2025.96 -2.29162 0.0417336 0
M  V30 20765 C 2026.96 -1.44455 -0.706353 0
M  V30 20766 O 2028.15 -1.65586 -0.54101 0
M  V30 20767 C 2025.28 -3.2736 -0.951235 0
M  V30 20768 H 2026.48 -2.88614 0.814974 0
M  V30 20769 H 2024.03 -1.49356 0.460717 0
M  V30 20770 H 2024.76 -2.7289 -1.75218 0
M  V30 20771 H 2024.55 -3.89866 -0.417931 0
M  V30 20772 H 2026.04 -3.93164 -1.40756 0
M  V30 20773 N 2026.48 -0.441993 -1.51275 0
M  V30 20774 C 2027.42 0.381441 -2.29451 0
M  V30 20775 C 2028.42 1.01672 -1.35496 0
M  V30 20776 O 2029.62 0.95115 -1.52817 0
M  V30 20777 H 2026 0.141826 -0.738505 0
M  V30 20778 H 2027.97 -0.298692 -2.96901 0
M  V30 20779 C 2026.72 1.46756 -3.15211 0
M  V30 20780 H 2026.04 0.988092 -3.87397 0
M  V30 20781 H 2027.48 2.01687 -3.72959 0
M  V30 20782 C 2025.94 2.4534 -2.30889 0
M  V30 20783 O 2026.47 3.49979 -1.97173 0
M  V30 20784 N 2024.68 2.16342 -1.94022 0
M  V30 20785 H 2024.22 1.31276 -2.2164 0
M  V30 20786 H 2024.18 2.82543 -1.37902 0
M  V30 20787 N 2027.95 1.56642 -0.173515 0
M  V30 20788 C 2029.18 2.01763 0.480249 0
M  V30 20789 C 2029.6 1.05294 1.55868 0
M  V30 20790 O 2028.96 0.0328468 1.8127 0
M  V30 20791 C 2029.01 3.45473 1.03349 0
M  V30 20792 O 2028.11 3.52081 2.14739 0
M  V30 20793 H 2027.45 0.654011 0.114743 0
M  V30 20794 H 2029.98 2.02702 -0.278052 0
M  V30 20795 H 2029.99 3.84823 1.35554 0
M  V30 20796 H 2028.67 4.15184 0.243902 0
M  V30 20797 H 2027.25 3.24591 1.83562 0
M  V30 20798 N 2029.43 -0.1002 1.57281 0
M  V30 20799 C 2030.68 -0.804623 1.85828 0
M  V30 20800 C 2031.01 -1.78981 0.761313 0
M  V30 20801 O 2030.26 -1.94153 -0.245591 0
M  V30 20802 C 2030.56 -1.57263 3.20941 0
M  V30 20803 C 2030.23 -0.730033 4.44951 0
M  V30 20804 C 2028.89 -0.497735 4.78619 0
M  V30 20805 C 2031.24 -0.143946 5.21001 0
M  V30 20806 C 2028.57 0.330597 5.85768 0
M  V30 20807 C 2030.92 0.671681 6.29024 0
M  V30 20808 C 2029.58 0.914119 6.61211 0
M  V30 20809 H 2028.85 -0.294433 0.679993 0
M  V30 20810 H 2031.5 -0.0662872 1.91385 0
M  V30 20811 H 2029.81 -2.3824 3.11045 0
M  V30 20812 H 2031.5 -2.12197 3.40255 0
M  V30 20813 H 2028.09 -0.921196 4.18583 0
M  V30 20814 H 2032.28 -0.310588 4.95327 0
M  V30 20815 H 2027.53 0.527461 6.09121 0
M  V30 20816 H 2031.71 1.13271 6.87126 0
M  V30 20817 H 2029.33 1.55777 7.44068 0
M  V30 20818 N 2030.91 -1.53174 -0.370891 0
M  V30 20819 C 2032.14 -1.73 -1.13484 0
M  V30 20820 C 2032.55 -0.456538 -1.83197 0
M  V30 20821 O 2031.91 0.570218 -1.73363 0
M  V30 20822 C 2031.96 -2.89186 -2.16919 0
M  V30 20823 O 2031.68 -4.11604 -1.50045 0
M  V30 20824 C 2033.18 -3.20841 -3.05901 0
M  V30 20825 H 2030.4 -0.578752 -0.33954 0
M  V30 20826 H 2032.95 -1.99897 -0.43143 0
M  V30 20827 H 2031.1 -2.64699 -2.82866 0
M  V30 20828 H 2031.52 -4.76629 -2.18918 0
M  V30 20829 H 2032.99 -4.05557 -3.7447 0
M  V30 20830 H 2033.47 -2.35982 -3.70418 0
M  V30 20831 H 2034.07 -3.47235 -2.45577 0
M  V30 20832 N 2032.39 0.630389 -1.44443 0
M  V30 20833 C 2033.63 1.39199 -1.47484 0
M  V30 20834 C 2033.97 1.93903 -0.107313 0
M  V30 20835 O 2033.24 1.73699 0.875158 0
M  V30 20836 C 2033.52 2.55674 -2.5358 0
M  V30 20837 C 2033.38 2.06314 -3.99693 0
M  V30 20838 C 2034.7 3.57858 -2.56174 0
M  V30 20839 H 2031.82 0.504794 -0.536984 0
M  V30 20840 H 2034.46 0.712698 -1.76127 0
M  V30 20841 H 2032.61 3.13624 -2.29287 0
M  V30 20842 H 2034.28 1.53189 -4.35122 0
M  V30 20843 H 2032.52 1.37492 -4.11435 0
M  V30 20844 H 2033.19 2.90173 -4.69578 0
M  V30 20845 H 2035.67 3.0971 -2.77883 0
M  V30 20846 H 2034.55 4.36875 -3.32312 0
M  V30 20847 H 2034.81 4.11976 -1.60401 0
M  V30 20848 N 2033.87 1.31354 0.870861 0
M  V30 20849 C 2034.82 1.15526 1.96565 0
M  V30 20850 C 2035.8 0.066503 1.60763 0
M  V30 20851 O 2036.99 0.291327 1.74586 0
M  V30 20852 C 2034.12 0.863778 3.32256 0
M  V30 20853 C 2033.21 1.99347 3.74328 0
M  V30 20854 N 2033.6 3.2404 3.8837 0
M  V30 20855 C 2031.9 1.893 4.03833 0
M  V30 20856 C 2032.6 3.9793 4.24295 0
M  V30 20857 N 2031.57 3.26092 4.34931 0
M  V30 20858 H 2035.37 2.10081 2.05532 0
M  V30 20859 H 2032.89 1.22898 1.0616 0
M  V30 20860 H 2034.89 0.731372 4.10435 0
M  V30 20861 H 2033.55 -0.0735588 3.24617 0
M  V30 20862 H 2034.56 3.59167 3.73122 0
M  V30 20863 H 2031.23 1.03026 4.04589 0
M  V30 20864 H 2032.62 5.05381 4.42764 0
M  V30 20865 N 2035.34 -1.08505 1.143 0
M  V30 20866 C 2036.59 -1.81308 0.921896 0
M  V30 20867 C 2036.94 -1.84498 -0.545746 0
M  V30 20868 O 2036.24 -1.3091 -1.39904 0
M  V30 20869 C 2036.43 -3.26425 1.45538 0
M  V30 20870 C 2036.26 -3.37374 2.97336 0
M  V30 20871 C 2035.03 -3.48623 3.65773 0
M  V30 20872 C 2037.23 -3.29112 3.95209 0
M  V30 20873 N 2035.21 -3.48353 5.05493 0
M  V30 20874 C 2036.58 -3.35822 5.21175 0
M  V30 20875 C 2038.64 -3.12842 3.87342 0
M  V30 20876 C 2037.34 -3.27937 6.40195 0
M  V30 20877 C 2039.37 -3.06287 5.05907 0
M  V30 20878 C 2038.73 -3.13598 6.30742 0
M  V30 20879 H 2034.83 -0.67731 0.390865 0
M  V30 20880 H 2037.41 -1.29607 1.45293 0
M  V30 20881 H 2035.58 -3.76574 0.951129 0
M  V30 20882 H 2037.31 -3.87288 1.1743 0
M  V30 20883 H 2034.07 -3.52472 3.16323 0
M  V30 20884 H 2034.49 -3.51777 5.78431 0
M  V30 20885 H 2039.13 -3.06053 2.91705 0
M  V30 20886 H 2036.85 -3.33488 7.36078 0
M  V30 20887 H 2040.44 -2.9482 5.0157 0
M  V30 20888 H 2039.32 -3.08554 7.20946 0
M  V30 20889 N 2036.82 -0.937962 -1.26649 0
M  V30 20890 C 2038.07 -0.57958 -1.93194 0
M  V30 20891 C 2038.38 0.88505 -1.74431 0
M  V30 20892 O 2039.59 1.35267 -2.35404 0
M  V30 20893 C 2038.05 -0.985803 -3.46136 0
M  V30 20894 C 2037.65 -2.47182 -3.73637 0
M  V30 20895 C 2039.4 -0.699162 -4.18703 0
M  V30 20896 C 2037.3 -2.81691 -5.20004 0
M  V30 20897 H 2036.23 -0.213046 -0.723275 0
M  V30 20898 H 2038.89 -1.14017 -1.43779 0
M  V30 20899 H 2037.27 -0.353775 -3.94417 0
M  V30 20900 H 2038.44 -3.15263 -3.36075 0
M  V30 20901 H 2036.76 -2.73143 -3.14296 0
M  V30 20902 H 2039.35 -0.933359 -5.26491 0
M  V30 20903 H 2039.7 0.363979 -4.14706 0
M  V30 20904 H 2040.23 -1.29076 -3.76277 0
M  V30 20905 H 2036.97 -3.86955 -5.29099 0
M  V30 20906 H 2036.49 -2.1827 -5.58675 0
M  V30 20907 H 2038.17 -2.69984 -5.87978 0
M  V30 20908 N 2038.3 1.40971 -0.704618 0
M  V30 20909 C 2039.26 2.29137 -0.053886 0
M  V30 20910 C 2040.26 1.44828 0.698682 0
M  V30 20911 O 2041.45 1.65871 0.532221 0
M  V30 20912 C 2038.58 3.27859 0.933861 0
M  V30 20913 H 2039.78 2.88178 -0.830268 0
M  V30 20914 H 2037.33 1.49109 -0.468632 0
M  V30 20915 H 2038.07 2.73815 1.73769 0
M  V30 20916 H 2037.85 3.90082 0.397249 0
M  V30 20917 H 2039.34 3.93905 1.38669 0
M  V30 20918 N 2039.78 0.45001 1.51039 0
M  V30 20919 C 2041.19 -0.0101397 1.86697 0
M  V30 20920 C 2041.54 -1.40804 1.36633 0
M  V30 20921 O 2040.67 -2.03986 0.722411 0
M  V30 20922 C 2041.26 -0.0251761 3.38791 0
M  V30 20923 C 2039.82 -0.429779 3.73938 0
M  V30 20924 C 2038.97 0.369286 2.7483 0
M  V30 20925 H 2041.92 0.665278 1.44082 0
M  V30 20926 H 2041.94 -0.831964 3.71293 0
M  V30 20927 H 2041.45 0.992361 3.75198 0
M  V30 20928 H 2039.55 -1.45245 3.43125 0
M  V30 20929 H 2039.66 -0.145773 4.78878 0
M  V30 20930 H 2038.03 -0.174158 2.54104 0
M  V30 20931 H 2038.81 1.38594 3.14081 0
M  V30 20932 N 2041.26 -1.56548 0.18182 0
M  V30 20933 C 2042.67 -1.58646 -0.174214 0
M  V30 20934 C 2042.87 -1.19756 -1.62052 0
M  V30 20935 O 2041.93 -0.914071 -2.35374 0
M  V30 20936 C 2043.24 -3.00476 0.116117 0
M  V30 20937 C 2044.79 -3.12951 0.0551643 0
M  V30 20938 C 2045.26 -4.5689 0.318626 0
M  V30 20939 N 2046.76 -4.62431 0.266773 0
M  V30 20940 C 2047.49 -5.71673 0.444657 0
M  V30 20941 N 2046.99 -6.89433 0.682169 0
M  V30 20942 N 2048.78 -5.60815 0.379832 0
M  V30 20943 H 2040.93 -1.80112 1.12576 0
M  V30 20944 H 2043.19 -0.835277 0.448348 0
M  V30 20945 H 2042.9 -3.33443 1.11843 0
M  V30 20946 H 2042.77 -3.72598 -0.587444 0
M  V30 20947 H 2045.16 -2.79805 -0.937734 0
M  V30 20948 H 2045.24 -2.43243 0.791599 0
M  V30 20949 H 2044.89 -4.90748 1.30878 0
M  V30 20950 H 2044.82 -5.24771 -0.438543 0
M  V30 20951 H 2047.31 -3.77795 0.0892717 0
M  V30 20952 H 2047.62 -7.68574 0.80707 0
M  V30 20953 H 2045.96 -6.91272 0.718908 0
M  V30 20954 H 2049.16 -4.67695 0.194792 0
M  V30 20955 H 2049.33 -6.45895 0.521886 0
M  V30 20956 N 2042.73 0.0918577 -1.57332 0
M  V30 20957 C 2043.7 1.09546 -2.01326 0
M  V30 20958 C 2044.7 1.32761 -0.907252 0
M  V30 20959 O 2045.89 1.2882 -1.17265 0
M  V30 20960 C 2043.02 2.44385 -2.37674 0
M  V30 20961 H 2044.21 0.71671 -2.9121 0
M  V30 20962 H 2041.77 0.337001 -1.52624 0
M  V30 20963 H 2042.5 2.8713 -1.50755 0
M  V30 20964 H 2042.29 2.28882 -3.18364 0
M  V30 20965 H 2043.78 3.16562 -2.72357 0
M  V30 20966 N 2044.21 1.53368 0.362763 0
M  V30 20967 C 2045.44 1.73599 1.12565 0
M  V30 20968 C 2045.86 0.466247 1.82952 0
M  V30 20969 O 2045.21 -0.561016 1.73663 0
M  V30 20970 C 2045.26 2.90332 2.15382 0
M  V30 20971 O 2044.98 4.12394 1.4786 0
M  V30 20972 C 2046.49 3.22459 3.04196 0
M  V30 20973 H 2043.71 0.580544 0.336466 0
M  V30 20974 H 2046.25 2.00123 0.420823 0
M  V30 20975 H 2044.4 2.66195 2.81459 0
M  V30 20976 H 2044.82 4.77783 2.16387 0
M  V30 20977 H 2046.29 4.07537 3.72314 0
M  V30 20978 H 2046.77 2.37943 3.69161 0
M  V30 20979 H 2047.38 3.48532 2.43732 0
M  V30 20980 N 2045.69 -0.62272 1.44776 0
M  V30 20981 C 2046.94 -1.37812 1.47278 0
M  V30 20982 C 2047.25 -1.95276 0.112585 0
M  V30 20983 O 2048.46 -2.71496 0.0151784 0
M  V30 20984 C 2046.91 -2.49557 2.59325 0
M  V30 20985 C 2046.52 -1.9857 4.01589 0
M  V30 20986 C 2048.27 -3.26693 2.71057 0
M  V30 20987 C 2046.17 -3.07707 5.05045 0
M  V30 20988 H 2045.1 -0.517918 0.547976 0
M  V30 20989 H 2047.75 -0.669045 1.70868 0
M  V30 20990 H 2046.14 -3.23078 2.2899 0
M  V30 20991 H 2047.31 -1.31858 4.41532 0
M  V30 20992 H 2045.63 -1.34224 3.94174 0
M  V30 20993 H 2048.22 -4.08067 3.45521 0
M  V30 20994 H 2048.57 -3.76721 1.77164 0
M  V30 20995 H 2049.1 -2.60265 3.00844 0
M  V30 20996 H 2045.84 -2.62614 6.00595 0
M  V30 20997 H 2045.36 -3.73034 4.69687 0
M  V30 20998 H 2047.04 -3.72343 5.29121 0
M  V30 20999 N 2047.17 -1.31814 -0.863883 0
M  V30 21000 C 2048.4 -1.24825 -1.65004 0
M  V30 21001 C 2048.81 0.185391 -1.87888 0
M  V30 21002 O 2048.17 1.11945 -1.44134 0
M  V30 21003 C 2048.22 -1.99514 -3.01457 0
M  V30 21004 O 2047.94 -3.37283 -2.79593 0
M  V30 21005 C 2049.44 -1.99438 -3.95903 0
M  V30 21006 H 2046.66 -0.431061 -0.514225 0
M  V30 21007 H 2049.21 -1.73789 -1.07786 0
M  V30 21008 H 2047.36 -1.54296 -3.55347 0
M  V30 21009 H 2047.77 -3.75392 -3.66307 0
M  V30 21010 H 2049.25 -2.56197 -4.88945 0
M  V30 21011 H 2049.73 -0.978372 -4.28164 0
M  V30 21012 H 2050.33 -2.44562 -3.4795 0
M  V30 21013 N 2048.65 1.07897 -1.14873 0
M  V30 21014 C 2049.89 1.8003 -0.918351 0
M  V30 21015 C 2050.22 1.86897 0.556293 0
M  V30 21016 O 2049.49 1.36584 1.40434 0
M  V30 21017 H 2048.07 0.666777 -0.336776 0
M  V30 21018 H 2050.73 1.30421 -1.44832 0
M  V30 21019 H 2049.82 2.82678 -1.32287 0
M  V30 21020 N 2050.12 0.944665 1.2615 0
M  V30 21021 C 2051.35 0.61007 1.97387 0
M  V30 21022 C 2051.76 -0.819956 1.70509 0
M  V30 21023 O 2051.11 -1.55879 0.971982 0
M  V30 21024 C 2051.17 0.776673 3.5101 0
M  V30 21025 C 2050.83 2.18198 4.01545 0
M  V30 21026 C 2051.83 3.15777 4.13014 0
M  V30 21027 C 2049.51 2.5035 4.35466 0
M  V30 21028 C 2051.51 4.43607 4.57703 0
M  V30 21029 C 2049.19 3.7841 4.79842 0
M  V30 21030 C 2050.19 4.74852 4.90922 0
M  V30 21031 O 2049.88 6.00632 5.34319 0
M  V30 21032 H 2049.61 0.228468 0.636222 0
M  V30 21033 H 2052.17 1.26867 1.61536 0
M  V30 21034 H 2050.4 0.0609398 3.86652 0
M  V30 21035 H 2052.09 0.44462 4.03457 0
M  V30 21036 H 2052.85 2.92263 3.8705 0
M  V30 21037 H 2048.73 1.76017 4.26074 0
M  V30 21038 H 2052.27 5.18885 4.66266 0
M  V30 21039 H 2048.17 4.01736 5.05251 0
M  V30 21040 H 2048.94 6.03864 5.52531 0
M  V30 21041 N 2051.6 -1.40596 0.712085 0
M  V30 21042 C 2053.02 -1.5488 0.385286 0
M  V30 21043 C 2053.22 -1.68416 -1.10626 0
M  V30 21044 O 2052.27 -1.67179 -1.89228 0
M  V30 21045 C 2053.59 -2.77912 1.14828 0
M  V30 21046 C 2055.14 -2.91726 1.13424 0
M  V30 21047 C 2055.61 -4.17667 1.87931 0
M  V30 21048 N 2057.1 -4.2466 1.84982 0
M  V30 21049 C 2057.84 -5.21006 2.39459 0
M  V30 21050 N 2057.33 -6.23282 3.02476 0
M  V30 21051 N 2059.13 -5.1306 2.29621 0
M  V30 21052 H 2051.28 -1.30055 1.67927 0
M  V30 21053 H 2053.54 -0.628638 0.70959 0
M  V30 21054 H 2053.25 -2.74175 2.20275 0
M  V30 21055 H 2053.12 -3.69918 0.737606 0
M  V30 21056 H 2055.51 -2.94969 0.0879737 0
M  V30 21057 H 2055.59 -2.00848 1.5841 0
M  V30 21058 H 2055.23 -4.15186 2.92546 0
M  V30 21059 H 2055.16 -5.07548 1.40367 0
M  V30 21060 H 2057.65 -3.51387 1.39053 0
M  V30 21061 H 2057.97 -6.93217 3.4157 0
M  V30 21062 H 2056.31 -6.23736 3.06559 0
M  V30 21063 H 2059.5 -4.32088 1.80049 0
M  V30 21064 H 2059.67 -5.87975 2.72378 0
M  V30 21065 N 2053.08 -0.458013 -1.50798 0
M  V30 21066 C 2054.33 0.10308 -2.01436 0
M  V30 21067 C 2054.64 1.41957 -1.34564 0
M  V30 21068 O 2055.85 2.06484 -1.76286 0
M  V30 21069 C 2054.3 0.234229 -3.59137 0
M  V30 21070 C 2053.91 -1.07305 -4.34959 0
M  V30 21071 C 2055.66 0.747982 -4.17858 0
M  V30 21072 C 2053.56 -0.906414 -5.84413 0
M  V30 21073 H 2052.49 0.0422981 -0.752813 0
M  V30 21074 H 2055.14 -0.590924 -1.73725 0
M  V30 21075 H 2053.53 0.991716 -3.83381 0
M  V30 21076 H 2054.7 -1.84048 -4.22449 0
M  V30 21077 H 2053.02 -1.51691 -3.87787 0
M  V30 21078 H 2055.61 0.889478 -5.2725 0
M  V30 21079 H 2055.96 1.73592 -3.7838 0
M  V30 21080 H 2056.49 0.048243 -3.97771 0
M  V30 21081 H 2053.23 -1.86733 -6.2834 0
M  V30 21082 H 2052.75 -0.179147 -5.99532 0
M  V30 21083 H 2054.43 -0.567802 -6.44504 0
M  V30 21084 N 2054.56 1.56449 -0.190119 0
M  V30 21085 C 2055.98 1.58736 0.165798 0
M  V30 21086 C 2056.18 1.20613 1.61414 0
M  V30 21087 O 2055.23 0.926541 2.34886 0
M  V30 21088 C 2056.54 3.0041 -0.132051 0
M  V30 21089 C 2058.09 3.12918 -0.0717601 0
M  V30 21090 C 2058.57 4.56715 -0.342852 0
M  V30 21091 N 2060.06 4.62283 -0.291293 0
M  V30 21092 C 2060.79 5.71429 -0.474968 0
M  V30 21093 N 2060.29 6.89062 -0.718722 0
M  V30 21094 N 2062.08 5.60606 -0.409568 0
M  V30 21095 H 2054.23 1.79512 -1.1353 0
M  V30 21096 H 2056.5 0.832888 -0.452771 0
M  V30 21097 H 2056.2 3.32845 -1.13609 0
M  V30 21098 H 2056.08 3.72904 0.567676 0
M  V30 21099 H 2058.46 2.80298 0.922882 0
M  V30 21100 H 2058.54 2.4282 -0.804488 0
M  V30 21101 H 2058.19 4.90047 -1.33479 0
M  V30 21102 H 2058.12 5.24996 0.410707 0
M  V30 21103 H 2060.61 3.77742 -0.109306 0
M  V30 21104 H 2060.92 7.68135 -0.847818 0
M  V30 21105 H 2059.27 6.90881 -0.755557 0
M  V30 21106 H 2062.46 4.67585 -0.219592 0
M  V30 21107 H 2062.63 6.45609 -0.556132 0
M  V30 21108 N 2056.04 -0.0835127 1.57379 0
M  V30 21109 C 2056.99 -1.1071 1.99317 0
M  V30 21110 C 2057.97 -1.35133 0.873384 0
M  V30 21111 O 2059.16 -1.3563 1.13726 0
M  V30 21112 C 2056.29 -2.42414 2.43085 0
M  V30 21113 C 2055.38 -2.21315 3.61774 0
M  V30 21114 N 2055.77 -1.70115 4.76335 0
M  V30 21115 C 2054.07 -2.51836 3.68096 0
M  V30 21116 C 2054.77 -1.63558 5.58233 0
M  V30 21117 N 2053.74 -2.09189 5.01738 0
M  V30 21118 H 2057.55 -0.704359 2.85335 0
M  V30 21119 H 2055.06 -0.290768 1.59776 0
M  V30 21120 H 2057.06 -3.16492 2.71364 0
M  V30 21121 H 2055.72 -2.83415 1.58449 0
M  V30 21122 H 2056.73 -1.39146 4.98858 0
M  V30 21123 H 2053.41 -2.96283 2.94147 0
M  V30 21124 H 2054.8 -1.24924 6.60184 0
M  V30 21125 N 2057.52 -1.53558 -0.354624 0
M  V30 21126 C 2058.47 -1.77149 -1.43535 0
M  V30 21127 C 2059.45 -0.626333 -1.48209 0
M  V30 21128 O 2060.64 -0.885366 -1.53265 0
M  V30 21129 C 2057.77 -1.97463 -2.80826 0
M  V30 21130 C 2056.86 -3.18012 -2.80587 0
M  V30 21131 N 2057.25 -4.39705 -2.49986 0
M  V30 21132 C 2055.55 -3.18957 -3.11741 0
M  V30 21133 C 2056.25 -5.21502 -2.57702 0
M  V30 21134 N 2055.22 -4.57963 -2.92867 0
M  V30 21135 H 2059.02 -2.68839 -1.18755 0
M  V30 21136 H 2056.54 -1.52332 -0.562901 0
M  V30 21137 H 2058.54 -2.12494 -3.58681 0
M  V30 21138 H 2057.2 -1.07008 -3.06561 0
M  V30 21139 H 2058.21 -4.67248 -2.23382 0
M  V30 21140 H 2054.88 -2.38432 -3.42719 0
M  V30 21141 H 2056.27 -6.28602 -2.37296 0
M  V30 21142 N 2058.99 0.615033 -1.45104 0
M  V30 21143 C 2060.4 1.19689 -1.43288 0
M  V30 21144 C 2060.76 1.95574 -0.156585 0
M  V30 21145 O 2059.88 2.03272 0.742247 0
M  V30 21146 C 2060.48 2.17717 -2.59586 0
M  V30 21147 C 2059.03 2.71295 -2.60914 0
M  V30 21148 C 2058.18 1.46569 -2.35399 0
M  V30 21149 H 2061.13 0.404769 -1.53451 0
M  V30 21150 H 2061.15 3.00617 -2.33259 0
M  V30 21151 H 2060.67 1.62458 -3.52461 0
M  V30 21152 H 2058.77 3.30513 -1.72024 0
M  V30 21153 H 2058.88 3.16236 -3.59905 0
M  V30 21154 H 2057.24 1.75266 -1.84808 0
M  V30 21155 H 2058.03 0.931898 -3.3041 0
M  V30 21156 N 2060.47 1.3227 0.85688 0
M  V30 21157 C 2061.38 1.23012 1.99763 0
M  V30 21158 C 2062.4 0.144168 1.73402 0
M  V30 21159 O 2063.57 0.364429 1.98075 0
M  V30 21160 C 2060.64 0.951293 3.33394 0
M  V30 21161 C 2059.7 2.12547 3.72991 0
M  V30 21162 C 2058.93 1.85984 5.00245 0
M  V30 21163 O 2059.16 0.801321 5.64743 0
M  V30 21164 O 2058.09 2.72029 5.36921 0
M  V30 21165 H 2061.92 2.18906 2.10509 0
M  V30 21166 H 2059.5 1.12138 0.987193 0
M  V30 21167 H 2061.38 0.812192 4.13499 0
M  V30 21168 H 2060.06 0.0224976 3.23692 0
M  V30 21169 H 2058.96 2.32003 2.93471 0
M  V30 21170 H 2060.3 3.03697 3.87336 0
M  V30 21171 N 2061.95 -1.07287 1.15444 0
M  V30 21172 C 2062.9 -2.12735 0.820244 0
M  V30 21173 C 2063.88 -1.59704 -0.195801 0
M  V30 21174 O 2065.08 -1.77 0.00355156 0
M  V30 21175 C 2062.2 -3.41879 0.311994 0
M  V30 21176 C 2061.29 -4.01762 1.35823 0
M  V30 21177 N 2061.68 -4.35894 2.56574 0
M  V30 21178 C 2059.98 -4.29241 1.21113 0
M  V30 21179 C 2060.68 -4.83356 3.23638 0
M  V30 21180 N 2059.66 -4.82169 2.51026 0
M  V30 21181 H 2063.46 -2.36958 1.73863 0
M  V30 21182 H 2060.97 -1.24731 1.03999 0
M  V30 21183 H 2062.97 -4.16865 0.0542227 0
M  V30 21184 H 2061.63 -3.191 -0.600445 0
M  V30 21185 H 2062.64 -4.2656 2.93712 0
M  V30 21186 H 2059.32 -4.15957 0.358635 0
M  V30 21187 H 2060.71 -5.19052 4.26655 0
M  V30 21188 N 2063.43 -0.951342 -1.25647 0
M  V30 21189 C 2064.67 -0.604351 -1.93271 0
M  V30 21190 C 2065 0.858137 -1.74546 0
M  V30 21191 O 2064.26 1.63065 -1.08206 0
M  V30 21192 C 2064.56 -0.9052 -3.45747 0
M  V30 21193 C 2064.22 -2.35319 -3.84624 0
M  V30 21194 C 2062.88 -2.74899 -3.94948 0
M  V30 21195 C 2065.24 -3.29371 -4.03936 0
M  V30 21196 C 2062.56 -4.07606 -4.21989 0
M  V30 21197 C 2064.92 -4.61686 -4.32468 0
M  V30 21198 C 2063.58 -5.01067 -4.41009 0
M  V30 21199 H 2062.85 -0.221148 -0.70723 0
M  V30 21200 H 2065.5 -1.19976 -1.49258 0
M  V30 21201 H 2063.8 -0.227362 -3.9114 0
M  V30 21202 H 2065.5 -0.615351 -3.9625 0
M  V30 21203 H 2062.09 -2.03622 -3.77142 0
M  V30 21204 H 2066.27 -2.99984 -3.95378 0
M  V30 21205 H 2061.53 -4.37766 -4.26815 0
M  V30 21206 H 2065.7 -5.34545 -4.46357 0
M  V30 21207 H 2063.33 -6.03923 -4.61715 0
M  V30 21208 N 2064.91 1.40216 -0.719531 0
M  V30 21209 C 2066.13 2.05647 -0.269106 0
M  V30 21210 C 2066.56 1.53865 1.082 0
M  V30 21211 O 2065.91 0.675703 1.68238 0
M  V30 21212 C 2065.96 3.59636 -0.263433 0
M  V30 21213 O 2065.07 4.05448 0.754058 0
M  V30 21214 H 2064.41 0.652036 -0.12548 0
M  V30 21215 H 2066.94 1.79542 -0.981119 0
M  V30 21216 H 2066.95 4.07871 -0.102475 0
M  V30 21217 H 2065.62 3.9669 -1.24939 0
M  V30 21218 H 2064.2 3.68664 0.560502 0
M  V30 21219 N 2066.38 0.466004 1.50553 0
M  V30 21220 C 2067.63 -0.09056 2.01897 0
M  V30 21221 C 2067.95 -1.40673 1.35041 0
M  V30 21222 O 2067.22 -1.89567 0.494095 0
M  V30 21223 H 2065.8 -0.0364574 0.74611 0
M  V30 21224 H 2068.46 0.615265 1.84934 0
M  V30 21225 H 2067.56 -0.245757 3.11131 0
M  V30 21226 N 2067.86 -1.56346 0.198413 0
M  V30 21227 C 2069.28 -1.58822 -0.157378 0
M  V30 21228 C 2069.48 -1.21468 -1.60773 0
M  V30 21229 O 2068.53 -0.938985 -2.34391 0
M  V30 21230 C 2069.85 -3.00336 0.14798 0
M  V30 21231 C 2071.39 -3.12875 0.0883539 0
M  V30 21232 C 2071.87 -4.56527 0.367068 0
M  V30 21233 N 2073.36 -4.62122 0.315805 0
M  V30 21234 C 2074.1 -5.7117 0.505265 0
M  V30 21235 N 2073.59 -6.88671 0.755254 0
M  V30 21236 N 2075.38 -5.60381 0.439293 0
M  V30 21237 H 2067.54 -1.78908 1.1448 0
M  V30 21238 H 2069.8 -0.830475 0.457182 0
M  V30 21239 H 2069.5 -3.32238 1.15373 0
M  V30 21240 H 2069.38 -3.732 -0.547892 0
M  V30 21241 H 2071.77 -2.80783 -0.908004 0
M  V30 21242 H 2071.85 -2.4239 0.817354 0
M  V30 21243 H 2071.49 -4.89332 1.36076 0
M  V30 21244 H 2071.42 -5.25206 -0.382859 0
M  V30 21245 H 2073.91 -3.77679 0.129337 0
M  V30 21246 H 2074.22 -7.67675 0.888542 0
M  V30 21247 H 2072.57 -6.9047 0.792186 0
M  V30 21248 H 2075.76 -4.67462 0.244386 0
M  V30 21249 H 2075.93 -6.45305 0.590363 0
M  V30 21250 N 2069.34 0.0751653 -1.57421 0
M  V30 21251 C 2070.75 0.627391 -1.75843 0
M  V30 21252 C 2071.1 1.78086 -0.823397 0
M  V30 21253 O 2070.23 2.16399 -0.00667483 0
M  V30 21254 C 2070.82 1.14489 -3.18869 0
M  V30 21255 C 2069.38 1.64301 -3.38648 0
M  V30 21256 C 2068.53 0.560994 -2.71566 0
M  V30 21257 H 2071.48 -0.150994 -1.5798 0
M  V30 21258 H 2071.5 2.01378 -3.22842 0
M  V30 21259 H 2071.01 0.305165 -3.86898 0
M  V30 21260 H 2069.11 2.50609 -2.75728 0
M  V30 21261 H 2069.23 1.72227 -4.47073 0
M  V30 21262 H 2067.59 1.00523 -2.34024 0
M  V30 21263 H 2068.37 -0.268489 -3.42248 0
M  V30 21264 N 2070.82 1.53744 0.346476 0
M  V30 21265 C 2072.23 1.43943 0.689395 0
M  V30 21266 C 2072.43 0.593819 1.92551 0
M  V30 21267 O 2071.49 0.0836653 2.52361 0
M  V30 21268 C 2072.8 2.87389 0.884766 0
M  V30 21269 C 2074.35 2.97145 0.98357 0
M  V30 21270 C 2074.83 4.41692 1.21128 0
M  V30 21271 N 2076.32 4.45205 1.27855 0
M  V30 21272 C 2077.05 5.54179 1.47219 0
M  V30 21273 N 2076.55 6.73164 1.63775 0
M  V30 21274 N 2078.34 5.41787 1.49743 0
M  V30 21275 H 2070.49 2.07218 -0.466306 0
M  V30 21276 H 2072.76 0.936584 -0.146675 0
M  V30 21277 H 2072.46 3.51667 0.0480249 0
M  V30 21278 H 2072.34 3.32165 1.78736 0
M  V30 21279 H 2074.72 2.33008 1.81084 0
M  V30 21280 H 2074.8 2.55734 0.0579478 0
M  V30 21281 H 2074.45 5.06409 0.388952 0
M  V30 21282 H 2074.38 4.80692 2.15042 0
M  V30 21283 H 2076.87 3.59463 1.16596 0
M  V30 21284 H 2077.18 7.51979 1.78179 0
M  V30 21285 H 2075.53 6.76114 1.60917 0
M  V30 21286 H 2078.72 4.4779 1.36389 0
M  V30 21287 H 2078.89 6.26774 1.64493 0
M  V30 21288 N 2072.3 -0.607329 1.45428 0
M  V30 21289 C 2073.21 -1.7463 1.56657 0
M  V30 21290 C 2074.22 -1.68053 0.451014 0
M  V30 21291 O 2075.4 -1.88405 0.711736 0
M  V30 21292 C 2072.46 -3.11092 1.53045 0
M  V30 21293 C 2071.52 -3.29121 2.75641 0
M  V30 21294 C 2070.76 -4.59072 2.72193 0
M  V30 21295 O 2070.98 -5.41408 1.79536 0
M  V30 21296 O 2069.91 -4.79819 3.63397 0
M  V30 21297 H 2073.74 -1.68108 2.5293 0
M  V30 21298 H 2071.33 -0.771447 1.27942 0
M  V30 21299 H 2073.21 -3.92394 1.5364 0
M  V30 21300 H 2071.88 -3.18105 0.599244 0
M  V30 21301 H 2070.79 -2.47406 2.80608 0
M  V30 21302 H 2072.12 -3.26984 3.67889 0
M  V30 21303 N 2073.77 -1.32722 -0.849853 0
M  V30 21304 C 2075.05 -1.14168 -1.58824 0
M  V30 21305 C 2075.43 0.296136 -2.09013 0
M  V30 21306 O 2074.78 1.2935 -1.88364 0
M  V30 21307 C 2074.99 -2.1734 -2.73065 0
M  V30 21308 C 2076.34 -2.50923 -3.42524 0
M  V30 21309 O 2077.36 -2.15923 -2.83295 0
M  V30 21310 O 2076.22 -3.10942 -4.49419 0
M  V30 21311 H 2073.31 -0.440869 -0.699688 0
M  V30 21312 H 2075.86 -1.44269 -0.893563 0
M  V30 21313 H 2074.63 -3.13967 -2.33539 0
M  V30 21314 H 2074.26 -1.88261 -3.50205 0
M  V30 21315 N 2075.25 1.06673 -1.16011 0
M  V30 21316 C 2076.67 1.31515 -0.90421 0
M  V30 21317 C 2076.87 1.96524 0.445021 0
M  V30 21318 O 2075.92 2.22945 1.18541 0
M  V30 21319 C 2077.24 2.19955 -2.05037 0
M  V30 21320 C 2078.79 2.33384 -2.08569 0
M  V30 21321 C 2079.26 3.25176 -3.22528 0
M  V30 21322 N 2080.75 3.32759 -3.2222 0
M  V30 21323 C 2081.49 4.03866 -4.07038 0
M  V30 21324 N 2080.98 4.77529 -5.01934 0
M  V30 21325 N 2082.78 3.99877 -3.95037 0
M  V30 21326 H 2074.93 0.628672 -2.02883 0
M  V30 21327 H 2077.19 0.339704 -0.885045 0
M  V30 21328 H 2076.9 1.79458 -3.02469 0
M  V30 21329 H 2076.77 3.20521 -1.98862 0
M  V30 21330 H 2079.16 2.7313 -1.11732 0
M  V30 21331 H 2079.24 1.32499 -2.1881 0
M  V30 21332 H 2078.88 2.86147 -4.19622 0
M  V30 21333 H 2078.81 4.26031 -3.09524 0
M  V30 21334 H 2081.3 2.80259 -2.53502 0
M  V30 21335 H 2081.62 5.29302 -5.6308 0
M  V30 21336 H 2079.96 4.76522 -5.05917 0
M  V30 21337 H 2083.15 3.41446 -3.20207 0
M  V30 21338 H 2083.32 4.55027 -4.61361 0
M  V30 21339 N 2076.73 0.957992 1.25141 0
M  V30 21340 C 2077.98 0.615503 1.93234 0
M  V30 21341 C 2078.31 -0.845811 1.74813 0
M  V30 21342 O 2077.58 -1.60729 1.09528 0
M  V30 21343 C 2077.87 0.979109 3.46533 0
M  V30 21344 C 2077.72 2.4964 3.74165 0
M  V30 21345 C 2079.04 0.506601 4.37175 0
M  V30 21346 H 2076.16 0.225085 0.701787 0
M  V30 21347 H 2078.8 1.19525 1.47695 0
M  V30 21348 H 2076.95 0.485773 3.85451 0
M  V30 21349 H 2078.62 3.06376 3.44865 0
M  V30 21350 H 2076.87 2.93263 3.19655 0
M  V30 21351 H 2077.54 2.70132 4.81386 0
M  V30 21352 H 2080.01 0.929831 4.05578 0
M  V30 21353 H 2078.89 0.789676 5.4319 0
M  V30 21354 H 2079.15 -0.59342 4.38099 0
M  V30 21355 N 2078.21 -1.39832 0.726957 0
M  V30 21356 C 2079.62 -1.83534 0.342368 0
M  V30 21357 C 2079.97 -1.6075 -1.12489 0
M  V30 21358 O 2079.1 -1.09438 -1.86688 0
M  V30 21359 C 2079.69 -3.33178 0.614625 0
M  V30 21360 C 2078.25 -3.7533 0.283621 0
M  V30 21361 C 2077.4 -2.62923 0.881297 0
M  V30 21362 H 2080.35 -1.28939 0.925229 0
M  V30 21363 H 2080.37 -3.80322 -0.116329 0
M  V30 21364 H 2079.88 -3.49729 1.68259 0
M  V30 21365 H 2077.98 -3.64369 -0.778826 0
M  V30 21366 H 2078.09 -4.73025 0.760562 0
M  V30 21367 H 2076.46 -2.52825 0.308504 0
M  V30 21368 H 2077.24 -2.82282 1.95375 0
M  V30 21369 N 2079.69 -0.473982 -1.50304 0
M  V30 21370 C 2080.64 0.337385 -2.2549 0
M  V30 21371 C 2081.62 0.958978 -1.29199 0
M  V30 21372 O 2082.81 0.871049 -1.54084 0
M  V30 21373 C 2079.94 1.41713 -3.12686 0
M  V30 21374 C 2079.03 0.803121 -4.16426 0
M  V30 21375 N 2079.42 -0.0782885 -5.05739 0
M  V30 21376 C 2077.72 1.06674 -4.33055 0
M  V30 21377 C 2078.42 -0.427042 -5.8013 0
M  V30 21378 N 2077.39 0.198485 -5.43238 0
M  V30 21379 H 2081.2 -0.341558 -2.91909 0
M  V30 21380 H 2078.71 -0.288313 -1.5982 0
M  V30 21381 H 2080.71 2.0116 -3.65158 0
M  V30 21382 H 2079.37 2.09803 -2.47816 0
M  V30 21383 H 2080.38 -0.447316 -5.15965 0
M  V30 21384 H 2077.05 1.74241 -3.79402 0
M  V30 21385 H 2078.44 -1.14653 -6.62046 0
M  V30 21386 N 2081.16 1.56239 -0.206702 0
M  V30 21387 C 2082.39 2.02736 0.437344 0
M  V30 21388 C 2082.81 1.08577 1.53599 0
M  V30 21389 O 2082.17 0.0712895 1.8116 0
M  V30 21390 C 2082.22 3.47587 0.959974 0
M  V30 21391 O 2081.32 3.56556 2.07223 0
M  V30 21392 H 2080.67 0.656297 0.100845 0
M  V30 21393 H 2083.2 2.02066 -0.320985 0
M  V30 21394 H 2083.21 3.87612 1.27361 0
M  V30 21395 H 2081.88 4.15608 0.15578 0
M  V30 21396 H 2080.46 3.28412 1.76635 0
M  V30 21397 N 2082.64 -0.0668159 1.57458 0
M  V30 21398 C 2084.06 -0.421716 1.53928 0
M  V30 21399 C 2084.26 -1.78879 0.927602 0
M  V30 21400 O 2083.31 -2.46826 0.532256 0
M  V30 21401 C 2084.63 -0.358209 2.98559 0
M  V30 21402 C 2086.18 -0.438036 3.0992 0
M  V30 21403 C 2086.65 -0.404384 4.56211 0
M  V30 21404 N 2088.14 -0.464311 4.60867 0
M  V30 21405 C 2088.88 -0.460566 5.71547 0
M  V30 21406 N 2088.37 -0.41134 6.91578 0
M  V30 21407 N 2090.17 -0.507495 5.59804 0
M  V30 21408 H 2082.32 0.828281 1.95584 0
M  V30 21409 H 2084.58 0.311307 0.895428 0
M  V30 21410 H 2084.29 0.579727 3.46889 0
M  V30 21411 H 2084.16 -1.16651 3.58709 0
M  V30 21412 H 2086.55 -1.3664 2.6156 0
M  V30 21413 H 2086.63 0.398926 2.5267 0
M  V30 21414 H 2086.27 0.520148 5.0523 0
M  V30 21415 H 2086.2 -1.25895 5.1133 0
M  V30 21416 H 2088.69 -0.506402 3.74492 0
M  V30 21417 H 2089.01 -0.412545 7.71698 0
M  V30 21418 H 2087.35 -0.377953 6.93972 0
M  V30 21419 H 2090.54 -0.543679 4.64932 0
M  V30 21420 H 2090.71 -0.501107 6.4606 0
M  V30 21421 N 2084.12 -1.53926 -0.338317 0
M  V30 21422 C 2085.07 -1.82986 -1.43592 0
M  V30 21423 C 2086.06 -0.700699 -1.54229 0
M  V30 21424 O 2087.27 -0.884124 -1.5679 0
M  V30 21425 H 2083.64 -0.579808 -0.47888 0
M  V30 21426 H 2085.62 -2.74804 -1.16299 0
M  V30 21427 C 2084.36 -2.06092 -2.80038 0
M  V30 21428 H 2083.69 -2.92433 -2.72622 0
M  V30 21429 H 2085.13 -2.30388 -3.55946 0
M  V30 21430 C 2083.59 -0.848002 -3.26053 0
M  V30 21431 O 2084.12 -0.0499866 -4.01669 0
M  V30 21432 N 2082.32 -0.663759 -2.82918 0
M  V30 21433 H 2081.87 -1.31433 -2.21547 0
M  V30 21434 H 2081.83 0.146319 -3.14059 0
M  V30 21435 N 2085.6 0.599608 -1.45748 0
M  V30 21436 C 2086.82 1.38971 -1.53954 0
M  V30 21437 C 2087.25 1.87278 -0.175618 0
M  V30 21438 O 2086.61 1.60602 0.841223 0
M  V30 21439 C 2086.66 2.56482 -2.53474 0
M  V30 21440 O 2085.76 3.57375 -2.05808 0
M  V30 21441 H 2085.1 0.414567 -0.518681 0
M  V30 21442 H 2087.63 0.728972 -1.91173 0
M  V30 21443 H 2087.64 3.03623 -2.72539 0
M  V30 21444 H 2086.32 2.20672 -3.52529 0
M  V30 21445 H 2084.89 3.1683 -1.96656 0
M  V30 21446 N 2087.08 1.33171 0.842803 0
M  V30 21447 C 2088.33 1.23754 1.59273 0
M  V30 21448 C 2088.64 -0.196137 1.94614 0
M  V30 21449 O 2089.85 -0.412282 2.68351 0
M  V30 21450 C 2088.3 2.16819 2.87259 0
M  V30 21451 C 2087.91 3.65335 2.59296 0
M  V30 21452 C 2089.65 2.16266 3.6528 0
M  V30 21453 C 2087.56 4.50325 3.83355 0
M  V30 21454 H 2086.49 0.459639 0.597702 0
M  V30 21455 H 2089.14 1.5821 0.929616 0
M  V30 21456 H 2087.52 1.75291 3.5509 0
M  V30 21457 H 2088.7 4.15278 1.99701 0
M  V30 21458 H 2087.01 3.68138 1.94586 0
M  V30 21459 H 2089.61 2.76995 4.57359 0
M  V30 21460 H 2089.95 1.1567 3.99908 0
M  V30 21461 H 2090.49 2.56135 3.04368 0
M  V30 21462 H 2087.22 5.51781 3.53861 0
M  V30 21463 H 2086.74 4.05127 4.42303 0
M  V30 21464 H 2088.42 4.6393 4.50975 0
M  V30 21465 N 2088.56 -1.06056 1.16576 0
M  V30 21466 C 2089.78 -1.82592 0.973019 0
M  V30 21467 C 2090.2 -1.82629 -0.478773 0
M  V30 21468 O 2089.56 -1.2472 -1.33233 0
M  V30 21469 C 2089.61 -3.291 1.49585 0
M  V30 21470 O 2089.33 -3.29189 2.89078 0
M  V30 21471 C 2090.83 -4.22357 1.34647 0
M  V30 21472 H 2088.05 -0.575656 0.344763 0
M  V30 21473 H 2090.59 -1.33793 1.5466 0
M  V30 21474 H 2088.75 -3.75202 0.964496 0
M  V30 21475 H 2089.16 -4.2082 3.13066 0
M  V30 21476 H 2090.64 -5.23171 1.76056 0
M  V30 21477 H 2091.11 -4.38226 0.292348 0
M  V30 21478 H 2091.72 -3.82103 1.86755 0
M  V30 21479 N 2090.03 -0.964615 -1.24631 0
M  V30 21480 C 2090.96 -0.511091 -2.27838 0
M  V30 21481 C 2091.94 0.447692 -1.64103 0
M  V30 21482 O 2093.13 0.344485 -1.9112 0
M  V30 21483 C 2090.26 0.202467 -3.46709 0
M  V30 21484 C 2089.21 -0.672032 -4.22691 0
M  V30 21485 C 2088.54 0.172842 -5.34421 0
M  V30 21486 C 2089.84 -1.9551 -4.84327 0
M  V30 21487 H 2091.53 -1.37371 -2.66025 0
M  V30 21488 H 2089.08 -0.661983 -1.27882 0
M  V30 21489 H 2091.03 0.530942 -4.18042 0
M  V30 21490 H 2089.76 1.09942 -3.07539 0
M  V30 21491 H 2088.42 -0.983734 -3.53155 0
M  V30 21492 H 2088.06 1.06985 -4.91491 0
M  V30 21493 H 2087.76 -0.409046 -5.86175 0
M  V30 21494 H 2089.29 0.496057 -6.08582 0
M  V30 21495 H 2090.7 -1.69241 -5.4775 0
M  V30 21496 H 2089.1 -2.48346 -5.46301 0
M  V30 21497 H 2090.17 -2.65197 -4.05954 0
M  V30 21498 N 2091.51 1.39445 -0.734362 0
M  V30 21499 C 2092.74 2.04826 -0.29225 0
M  V30 21500 C 2093.15 1.55366 1.0727 0
M  V30 21501 O 2092.51 0.718282 1.67771 0
M  V30 21502 C 2092.56 3.6038 -0.2843 0
M  V30 21503 O 2092.28 4.08019 -1.59536 0
M  V30 21504 C 2093.78 4.42958 0.174058 0
M  V30 21505 H 2091 0.658705 -0.127861 0
M  V30 21506 H 2093.55 1.78504 -0.997833 0
M  V30 21507 H 2091.7 3.85606 0.372391 0
M  V30 21508 H 2092.12 5.02339 -1.50849 0
M  V30 21509 H 2093.59 5.5185 0.128462 0
M  V30 21510 H 2094.07 4.21941 1.21913 0
M  V30 21511 H 2094.67 4.2288 -0.453043 0
M  V30 21512 N 2092.99 0.481946 1.5005 0
M  V30 21513 C 2093.94 -0.320472 2.30382 0
M  V30 21514 C 2094.93 -0.980434 1.38144 0
M  V30 21515 O 2096.14 -0.910298 1.55285 0
M  V30 21516 H 2092.51 -0.122196 0.742006 0
M  V30 21517 H 2094.48 0.377305 2.96005 0
M  V30 21518 C 2093.23 -1.38347 3.18991 0
M  V30 21519 H 2092.56 -0.885033 3.89881 0
M  V30 21520 H 2094 -1.91728 3.78175 0
M  V30 21521 C 2092.45 -2.39133 2.37313 0
M  V30 21522 O 2092.98 -3.44629 2.06383 0
M  V30 21523 N 2091.19 -2.11122 1.9969 0
M  V30 21524 H 2090.74 -1.25354 2.25043 0
M  V30 21525 H 2090.7 -2.78787 1.45345 0
M  V30 21526 N 2094.47 -1.56127 0.214985 0
M  V30 21527 C 2095.4 -2.22991 -0.69263 0
M  V30 21528 C 2096.38 -1.19946 -1.20611 0
M  V30 21529 O 2097.56 -1.48512 -1.25131 0
M  V30 21530 C 2094.69 -2.90473 -1.90376 0
M  V30 21531 C 2093.65 -3.99933 -1.52439 0
M  V30 21532 C 2092.97 -4.54678 -2.81375 0
M  V30 21533 C 2094.27 -5.17323 -0.719325 0
M  V30 21534 H 2095.97 -2.99095 -0.135168 0
M  V30 21535 H 2093.51 -1.4386 -0.0635721 0
M  V30 21536 H 2095.47 -3.35938 -2.54408 0
M  V30 21537 H 2094.19 -2.11806 -2.48608 0
M  V30 21538 H 2092.85 -3.55189 -0.907557 0
M  V30 21539 H 2092.5 -3.72749 -3.37739 0
M  V30 21540 H 2092.2 -5.28549 -2.56729 0
M  V30 21541 H 2093.72 -5.02857 -3.46362 0
M  V30 21542 H 2095.14 -5.5921 -1.2632 0
M  V30 21543 H 2093.53 -5.97385 -0.570203 0
M  V30 21544 H 2094.6 -4.84117 0.275461 0
M  V30 21545 N 2095.95 0.0584645 -1.57492 0
M  V30 21546 C 2097.17 0.767637 -1.92133 0
M  V30 21547 C 2097.59 1.70438 -0.812178 0
M  V30 21548 O 2096.95 1.81246 0.213598 0
M  V30 21549 C 2097 1.54992 -3.26588 0
M  V30 21550 O 2096.72 0.650813 -4.33239 0
M  V30 21551 C 2098.22 2.3589 -3.75328 0
M  V30 21552 H 2095.44 0.2175 -0.634772 0
M  V30 21553 H 2097.98 0.0247547 -2.04485 0
M  V30 21554 H 2096.14 2.24495 -3.15722 0
M  V30 21555 H 2096.55 1.19628 -5.10675 0
M  V30 21556 H 2098.03 2.86216 -4.72 0
M  V30 21557 H 2098.5 3.16011 -3.05014 0
M  V30 21558 H 2099.11 1.71518 -3.89181 0
M  V30 21559 N 2097.42 1.54103 0.330149 0
M  V30 21560 C 2098.83 1.633 0.904982 0
M  V30 21561 C 2099.19 0.522849 1.89105 0
M  V30 21562 O 2098.31 -0.345304 2.13627 0
M  V30 21563 C 2098.91 2.96008 1.64817 0
M  V30 21564 C 2097.46 3.07423 2.17182 0
M  V30 21565 C 2096.61 2.58829 0.995126 0
M  V30 21566 H 2099.56 1.58333 0.10791 0
M  V30 21567 H 2099.58 2.85799 2.51196 0
M  V30 21568 H 2099.1 3.76786 0.930246 0
M  V30 21569 H 2097.2 2.31306 2.9211 0
M  V30 21570 H 2097.31 4.13117 2.42635 0
M  V30 21571 H 2095.67 2.14563 1.3724 0
M  V30 21572 H 2096.46 3.42059 0.291621 0
M  V30 21573 N 2098.9 -0.59187 1.46064 0
M  V30 21574 C 2100.15 -1.34773 1.50601 0
M  V30 21575 C 2100.47 -1.94379 0.155452 0
M  V30 21576 O 2099.74 -1.7805 -0.816999 0
M  V30 21577 H 2098.32 -0.50037 0.554652 0
M  V30 21578 H 2100.98 -0.69386 1.82131 0
M  V30 21579 H 2100.08 -2.15914 2.25361 0
M  V30 21580 N 2100.38 -1.33616 -0.835729 0
M  V30 21581 C 2101.61 -1.28297 -1.62319 0
M  V30 21582 C 2102.02 0.145496 -1.88239 0
M  V30 21583 O 2101.38 1.08862 -1.46476 0
M  V30 21584 C 2101.43 -2.05863 -2.97158 0
M  V30 21585 O 2101.15 -3.43137 -2.72375 0
M  V30 21586 C 2102.65 -2.07791 -3.91584 0
M  V30 21587 H 2099.87 -0.441872 -0.504966 0
M  V30 21588 H 2102.42 -1.76036 -1.04075 0
M  V30 21589 H 2100.57 -1.61799 -3.51994 0
M  V30 21590 H 2100.99 -3.83078 -3.58262 0
M  V30 21591 H 2102.46 -2.66511 -4.834 0
M  V30 21592 H 2102.94 -1.06897 -4.25993 0
M  V30 21593 H 2103.54 -2.51888 -3.42684 0
M  V30 21594 N 2101.86 1.05436 -1.17136 0
M  V30 21595 C 2102.77 2.16633 -0.900413 0
M  V30 21596 C 2103.78 1.7351 0.130523 0
M  V30 21597 O 2104.96 2.01342 -0.0481629 0
M  V30 21598 C 2102.03 3.4421 -0.414754 0
M  V30 21599 C 2101.09 4.01793 -1.51198 0
M  V30 21600 C 2100.32 5.23281 -1.0494 0
M  V30 21601 O 2100.54 5.70317 0.0974405 0
M  V30 21602 O 2099.48 5.73041 -1.8414 0
M  V30 21603 H 2103.3 2.42336 -1.83049 0
M  V30 21604 H 2100.89 1.15137 -0.952042 0
M  V30 21605 H 2102.77 4.21128 -0.151319 0
M  V30 21606 H 2101.44 3.20013 0.487199 0
M  V30 21607 H 2100.35 3.26326 -1.82926 0
M  V30 21608 H 2101.68 4.30304 -2.38955 0
M  V30 21609 N 2103.34 0.971211 1.24118 0
M  V30 21610 C 2104.57 0.651802 1.96049 0
M  V30 21611 C 2104.97 -0.783604 1.7221 0
M  V30 21612 O 2104.32 -1.53782 1.00483 0
M  V30 21613 C 2104.38 0.850953 3.49284 0
M  V30 21614 C 2104.04 2.26667 3.96826 0
M  V30 21615 C 2105.04 3.24467 4.06223 0
M  V30 21616 C 2102.73 2.5953 4.30057 0
M  V30 21617 C 2104.72 4.53215 4.4819 0
M  V30 21618 C 2102.41 3.88503 4.71708 0
M  V30 21619 C 2103.4 4.85158 4.8074 0
M  V30 21620 O 2103.09 6.1183 5.21459 0
M  V30 21621 H 2102.82 0.241912 0.631233 0
M  V30 21622 H 2105.38 1.30265 1.58809 0
M  V30 21623 H 2103.61 0.142941 3.86436 0
M  V30 21624 H 2105.3 0.530099 4.02424 0
M  V30 21625 H 2106.06 3.00407 3.80763 0
M  V30 21626 H 2101.94 1.85015 4.22245 0
M  V30 21627 H 2105.49 5.28659 4.55155 0
M  V30 21628 H 2101.38 4.12363 4.96616 0
M  V30 21629 H 2102.15 6.15448 5.39598 0
M  V30 21630 N 2104.81 -1.39054 0.741747 0
M  V30 21631 C 2106.06 -2.00671 0.293089 0
M  V30 21632 C 2106.39 -1.58733 -1.11882 0
M  V30 21633 O 2105.67 -0.819335 -1.76401 0
M  V30 21634 C 2105.95 -3.57843 0.402573 0
M  V30 21635 C 2105.8 -4.0978 1.85474 0
M  V30 21636 C 2107.12 -4.39594 -0.211039 0
M  V30 21637 H 2104.24 -0.729048 0.10797 0
M  V30 21638 H 2106.88 -1.65165 0.939169 0
M  V30 21639 H 2105.03 -3.8822 -0.147482 0
M  V30 21640 H 2106.71 -3.90095 2.46219 0
M  V30 21641 H 2104.95 -3.63088 2.3738 0
M  V30 21642 H 2105.62 -5.18906 1.88257 0
M  V30 21643 H 2108.1 -4.153 0.257937 0
M  V30 21644 H 2106.97 -5.48801 -0.104126 0
M  V30 21645 H 2107.23 -4.22618 -1.29792 0
M  V30 21646 N 2106.29 -0.489897 -1.49792 0
M  V30 21647 C 2107.54 0.0586308 -2.02715 0
M  V30 21648 C 2107.87 1.37665 -1.36974 0
M  V30 21649 O 2107.15 1.87919 -0.501679 0
M  V30 21650 C 2107.43 0.222812 -3.5941 0
M  V30 21651 C 2107.28 -1.11755 -4.35696 0
M  V30 21652 C 2108.6 0.96865 -4.29308 0
M  V30 21653 H 2105.72 0.0198337 -0.736733 0
M  V30 21654 H 2108.36 -0.639149 -1.78927 0
M  V30 21655 H 2106.51 0.81714 -3.79809 0
M  V30 21656 H 2108.18 -1.74991 -4.26821 0
M  V30 21657 H 2106.43 -1.70959 -3.98692 0
M  V30 21658 H 2107.1 -0.956105 -5.43657 0
M  V30 21659 H 2109.57 0.464706 -4.13497 0
M  V30 21660 H 2108.45 1.05235 -5.38718 0
M  V30 21661 H 2108.71 2.00975 -3.93778 0
M  V30 21662 N 2107.77 1.56011 -0.223262 0
M  V30 21663 C 2109 2.03189 0.415817 0
M  V30 21664 C 2109.42 1.102 1.52439 0
M  V30 21665 O 2108.78 0.0904999 1.81074 0
M  V30 21666 C 2108.83 3.48586 0.923053 0
M  V30 21667 O 2107.93 3.58734 2.03429 0
M  V30 21668 H 2107.27 0.65733 0.0938783 0
M  V30 21669 H 2109.8 2.01715 -0.342399 0
M  V30 21670 H 2109.81 3.88941 1.23243 0
M  V30 21671 H 2108.49 4.1575 0.11169 0
M  V30 21672 H 2107.06 3.30267 1.73142 0
M  V30 21673 N 2109.25 -0.0501116 1.5752 0
M  V30 21674 C 2110.5 -0.744028 1.87476 0
M  V30 21675 C 2110.81 -1.77631 0.818943 0
M  V30 21676 O 2112.02 -2.52133 1.00703 0
M  V30 21677 C 2110.47 -1.37429 3.32628 0
M  V30 21678 C 2110.08 -0.379458 4.4639 0
M  V30 21679 C 2111.82 -2.04931 3.71757 0
M  V30 21680 C 2109.73 -1.01687 5.82592 0
M  V30 21681 H 2108.66 -0.281635 0.699427 0
M  V30 21682 H 2111.31 0.00219827 1.835 0
M  V30 21683 H 2109.69 -2.16952 3.31282 0
M  V30 21684 H 2110.87 0.387526 4.59168 0
M  V30 21685 H 2109.18 0.1923 4.15956 0
M  V30 21686 H 2111.78 -2.53436 4.70823 0
M  V30 21687 H 2112.12 -2.85832 3.02665 0
M  V30 21688 H 2112.66 -1.32212 3.75186 0
M  V30 21689 H 2109.4 -0.247733 6.55032 0
M  V30 21690 H 2108.92 -1.7542 5.73575 0
M  V30 21691 H 2110.59 -1.53041 6.28639 0
M  V30 21692 N 2110.73 -1.54276 -0.321972 0
M  V30 21693 C 2111.97 -1.72813 -1.0613 0
M  V30 21694 C 2112.31 -0.501222 -1.8762 0
M  V30 21695 O 2111.58 0.501806 -1.87915 0
M  V30 21696 C 2111.86 -3.00469 -1.9847 0
M  V30 21697 C 2111.72 -4.33415 -1.20299 0
M  V30 21698 C 2113.04 -3.23886 -2.97969 0
M  V30 21699 H 2110.15 -0.628793 -0.384432 0
M  V30 21700 H 2112.8 -1.86973 -0.337811 0
M  V30 21701 H 2110.95 -2.88528 -2.60161 0
M  V30 21702 H 2112.62 -4.57242 -0.610559 0
M  V30 21703 H 2110.86 -4.30847 -0.505293 0
M  V30 21704 H 2111.53 -5.18959 -1.8811 0
M  V30 21705 H 2114.01 -3.353 -2.46401 0
M  V30 21706 H 2112.88 -4.14562 -3.59763 0
M  V30 21707 H 2113.15 -2.4119 -3.70513 0
M  V30 21708 N 2112.2 0.584116 -1.46376 0
M  V30 21709 C 2113.17 1.6753 -1.56417 0
M  V30 21710 C 2114.17 1.54622 -0.441454 0
M  V30 21711 O 2115.36 1.59265 -0.705714 0
M  V30 21712 C 2112.49 3.06947 -1.48313 0
M  V30 21713 H 2113.68 1.59986 -2.53662 0
M  V30 21714 H 2111.24 0.801837 -1.34165 0
M  V30 21715 H 2111.97 3.20048 -0.523413 0
M  V30 21716 H 2111.76 3.17724 -2.29768 0
M  V30 21717 H 2113.25 3.86384 -1.58422 0
M  V30 21718 N 2113.68 1.34058 0.828631 0
M  V30 21719 C 2114.61 1.278 1.95421 0
M  V30 21720 C 2115.59 0.156548 1.69378 0
M  V30 21721 O 2116.78 0.347987 1.91057 0
M  V30 21722 C 2113.91 1.02688 3.31772 0
M  V30 21723 C 2112.86 2.11238 3.7224 0
M  V30 21724 C 2112.19 1.71324 5.0651 0
M  V30 21725 C 2113.49 3.53014 3.84939 0
M  V30 21726 H 2115.18 2.21977 2.00914 0
M  V30 21727 H 2112.73 1.06859 0.965253 0
M  V30 21728 H 2114.68 0.969571 4.10094 0
M  V30 21729 H 2113.41 0.0495214 3.26562 0
M  V30 21730 H 2112.07 2.16029 2.96188 0
M  V30 21731 H 2111.71 0.722632 4.97782 0
M  V30 21732 H 2111.41 2.43972 5.34557 0
M  V30 21733 H 2112.94 1.67077 5.87297 0
M  V30 21734 H 2114.35 3.50667 4.53547 0
M  V30 21735 H 2112.75 4.24235 4.24434 0
M  V30 21736 H 2113.82 3.90772 2.87098 0
M  V30 21737 N 2115.16 -1.04814 1.17694 0
M  V30 21738 C 2116.11 -2.14759 0.893388 0
M  V30 21739 C 2117.1 -1.68792 -0.143446 0
M  V30 21740 O 2118.31 -1.8 0.00399528 0
M  V30 21741 H 2114.68 -0.701322 0.271388 0
M  V30 21742 H 2116.66 -2.35876 1.8277 0
M  V30 21743 C 2115.4 -3.45064 0.427351 0
M  V30 21744 H 2114.73 -3.80838 1.21665 0
M  V30 21745 H 2116.17 -4.23153 0.267873 0
M  V30 21746 C 2114.63 -3.25854 -0.855618 0
M  V30 21747 O 2115.16 -3.5276 -1.92155 0
M  V30 21748 N 2113.36 -2.7922 -0.805269 0
M  V30 21749 H 2112.91 -2.57524 0.0623836 0
M  V30 21750 H 2112.87 -2.66747 -1.66413 0
M  V30 21751 N 2116.64 -0.977779 -1.23601 0
M  V30 21752 C 2117.89 -0.643936 -1.91567 0
M  V30 21753 C 2118.21 0.824798 -1.76698 0
M  V30 21754 O 2117.48 1.58974 -1.14473 0
M  V30 21755 H 2116.06 -0.235177 -0.709014 0
M  V30 21756 H 2118.72 -1.24103 -1.50282 0
M  V30 21757 H 2117.82 -0.893282 -2.99043 0
M  V30 21758 N 2118.12 1.38658 -0.749111 0
M  V30 21759 C 2119.53 1.53804 -0.426214 0
M  V30 21760 C 2119.73 1.7129 1.06122 0
M  V30 21761 O 2118.79 1.72138 1.84729 0
M  V30 21762 C 2120.1 2.7477 -1.22155 0
M  V30 21763 C 2121.65 2.88616 -1.21118 0
M  V30 21764 C 2122.13 4.12538 -1.98939 0
M  V30 21765 N 2123.62 4.19606 -1.96176 0
M  V30 21766 C 2124.35 5.14474 -2.53188 0
M  V30 21767 N 2123.85 6.15043 -3.18895 0
M  V30 21768 N 2125.64 5.06792 -2.43143 0
M  V30 21769 H 2117.79 1.25557 -1.71316 0
M  V30 21770 H 2120.05 0.609604 -0.726008 0
M  V30 21771 H 2119.76 2.68239 -2.27466 0
M  V30 21772 H 2119.63 3.67832 -0.835424 0
M  V30 21773 H 2122.02 2.94632 -0.166149 0
M  V30 21774 H 2122.1 1.96577 -1.63679 0
M  V30 21775 H 2121.75 4.07284 -3.03451 0
M  V30 21776 H 2121.68 5.03648 -1.53775 0
M  V30 21777 H 2124.17 3.47577 -1.4832 0
M  V30 21778 H 2124.48 6.83917 -3.59829 0
M  V30 21779 H 2122.83 6.15389 -3.22989 0
M  V30 21780 H 2126.02 4.27162 -1.91442 0
M  V30 21781 H 2126.19 5.80546 -2.87871 0
M  V30 21782 N 2119.6 0.497834 1.49531 0
M  V30 21783 C 2120.51 -0.286926 2.32839 0
M  V30 21784 C 2121.52 -0.970397 1.44427 0
M  V30 21785 O 2122.7 -0.952478 1.77454 0
M  V30 21786 C 2119.76 -1.33928 3.19788 0
M  V30 21787 C 2118.82 -0.669588 4.24046 0
M  V30 21788 C 2118.06 -1.67181 5.0684 0
M  V30 21789 O 2118.28 -2.90132 4.91101 0
M  V30 21790 O 2117.21 -1.22887 5.89222 0
M  V30 21791 H 2121.04 0.394869 3.01122 0
M  V30 21792 H 2118.62 0.259218 1.47134 0
M  V30 21793 H 2120.51 -1.94822 3.73661 0
M  V30 21794 H 2119.18 -2.00407 2.54202 0
M  V30 21795 H 2118.09 -0.0209922 3.74094 0
M  V30 21796 H 2119.42 -0.0473067 4.92177 0
M  V30 21797 N 2121.07 -1.5589 0.231532 0
M  V30 21798 C 2121.98 -2.24359 -0.685566 0
M  V30 21799 C 2123 -1.25454 -1.20571 0
M  V30 21800 O 2124.18 -1.58292 -1.24522 0
M  V30 21801 C 2121.24 -2.91783 -1.87252 0
M  V30 21802 C 2120.3 -4.06059 -1.39337 0
M  V30 21803 C 2119.53 -4.70258 -2.52375 0
M  V30 21804 O 2119.76 -4.33477 -3.70747 0
M  V30 21805 O 2118.69 -5.59063 -2.23008 0
M  V30 21806 H 2122.52 -3.03412 -0.132235 0
M  V30 21807 H 2120.1 -1.494 0.000664697 0
M  V30 21808 H 2121.98 -3.34305 -2.56551 0
M  V30 21809 H 2120.66 -2.15683 -2.41377 0
M  V30 21810 H 2119.57 -3.68086 -0.668112 0
M  V30 21811 H 2120.9 -4.83932 -0.898393 0
M  V30 21812 N 2122.55 0.0417572 -1.57545 0
M  V30 21813 C 2123.78 0.750955 -1.93327 0
M  V30 21814 C 2124.2 1.68773 -0.830508 0
M  V30 21815 O 2123.56 1.80024 0.214702 0
M  V30 21816 C 2123.61 1.49503 -3.28148 0
M  V30 21817 O 2122.71 2.60754 -3.19501 0
M  V30 21818 H 2122.05 0.202874 -0.632248 0
M  V30 21819 H 2124.58 0.00102047 -2.046 0
M  V30 21820 H 2124.59 1.86775 -3.62738 0
M  V30 21821 H 2123.27 0.80791 -4.07977 0
M  V30 21822 H 2121.84 2.26119 -2.96521 0
M  V30 21823 N 2124.03 1.54445 0.313786 0
M  V30 21824 C 2125.44 1.64251 0.887611 0
M  V30 21825 C 2125.79 0.542877 1.8854 0
M  V30 21826 O 2124.92 -0.322627 2.13981 0
M  V30 21827 C 2125.51 2.97739 1.61668 0
M  V30 21828 C 2124.07 3.09709 2.13909 0
M  V30 21829 C 2123.22 2.5987 0.967618 0
M  V30 21830 H 2126.17 1.58438 0.091111 0
M  V30 21831 H 2126.19 2.88447 2.4815 0
M  V30 21832 H 2125.7 3.77752 0.890231 0
M  V30 21833 H 2123.8 2.34391 2.89641 0
M  V30 21834 H 2123.92 4.15667 2.38239 0
M  V30 21835 H 2122.28 2.16006 1.34957 0
M  V30 21836 H 2123.06 3.42349 0.255325 0
M  V30 21837 N 2125.51 -0.576345 1.46683 0
M  V30 21838 C 2126.44 -1.69505 1.60594 0
M  V30 21839 C 2127.42 -1.63873 0.456022 0
M  V30 21840 O 2128.6 -1.81791 0.683045 0
M  V30 21841 C 2125.73 -3.08148 1.60194 0
M  V30 21842 C 2124.69 -3.28615 2.7422 0
M  V30 21843 C 2124.01 -4.6785 2.58884 0
M  V30 21844 C 2125.31 -3.15834 4.15989 0
M  V30 21845 H 2127.01 -1.58119 2.54241 0
M  V30 21846 H 2124.55 -0.759271 1.22356 0
M  V30 21847 H 2126.51 -3.86237 1.68519 0
M  V30 21848 H 2125.23 -3.20447 0.630952 0
M  V30 21849 H 2123.89 -2.52927 2.65375 0
M  V30 21850 H 2123.54 -4.76923 1.59854 0
M  V30 21851 H 2123.24 -4.82495 3.35368 0
M  V30 21852 H 2124.76 -5.48099 2.69109 0
M  V30 21853 H 2126.18 -3.83761 4.25911 0
M  V30 21854 H 2124.57 -3.41998 4.9311 0
M  V30 21855 H 2125.64 -2.12828 4.35698 0
M  V30 21856 N 2126.99 -1.34495 -0.82151 0
M  V30 21857 C 2127.92 -1.28835 -1.94741 0
M  V30 21858 C 2128.9 -0.165528 -1.69293 0
M  V30 21859 O 2130.08 -0.358115 -1.9087 0
M  V30 21860 C 2127.21 -1.04446 -3.31222 0
M  V30 21861 C 2126.17 -2.13209 -3.71114 0
M  V30 21862 C 2125.49 -1.74007 -5.05594 0
M  V30 21863 C 2126.79 -3.55051 -3.83062 0
M  V30 21864 H 2128.49 -2.23039 -1.99734 0
M  V30 21865 H 2126.03 -1.07369 -0.959573 0
M  V30 21866 H 2127.98 -0.991306 -4.09574 0
M  V30 21867 H 2126.71 -0.0668391 -3.26532 0
M  V30 21868 H 2125.37 -2.17597 -2.95038 0
M  V30 21869 H 2125.02 -0.749021 -4.97392 0
M  V30 21870 H 2124.72 -2.46803 -5.33256 0
M  V30 21871 H 2126.24 -1.7019 -5.86402 0
M  V30 21872 H 2127.65 -3.53068 -4.51681 0
M  V30 21873 H 2126.05 -4.2648 -4.22179 0
M  V30 21874 H 2127.12 -3.92289 -2.85021 0
M  V30 21875 N 2128.46 1.04188 -1.18248 0
M  V30 21876 C 2129.71 1.76764 -0.971464 0
M  V30 21877 C 2130.03 1.89102 0.49997 0
M  V30 21878 O 2131.23 2.58519 0.829468 0
M  V30 21879 C 2129.69 3.17801 -1.68909 0
M  V30 21880 C 2129.3 3.1356 -3.19975 0
M  V30 21881 C 2131.04 3.94763 -1.56084 0
M  V30 21882 C 2128.95 4.49449 -3.84382 0
M  V30 21883 H 2127.88 0.662591 -0.359847 0
M  V30 21884 H 2130.53 1.16702 -1.41608 0
M  V30 21885 H 2128.91 3.78252 -1.17224 0
M  V30 21886 H 2130.08 2.62568 -3.78675 0
M  V30 21887 H 2128.4 2.50097 -3.32927 0
M  V30 21888 H 2131 4.95253 -2.01566 0
M  V30 21889 H 2131.34 4.13128 -0.512919 0
M  V30 21890 H 2131.87 3.40885 -2.05043 0
M  V30 21891 H 2128.61 4.36289 -4.89216 0
M  V30 21892 H 2128.13 5.00549 -3.3047 0
M  V30 21893 H 2129.81 5.18367 -3.87175 0
M  V30 21894 N 2129.94 0.98432 1.23081 0
M  V30 21895 C 2131.19 0.654086 1.91223 0
M  V30 21896 C 2131.51 -0.815416 1.77133 0
M  V30 21897 O 2130.78 -1.58365 1.15315 0
M  V30 21898 H 2129.36 0.238934 0.707757 0
M  V30 21899 H 2132.02 1.24898 1.49621 0
M  V30 21900 H 2131.12 0.909129 2.98565 0
M  V30 21901 N 2131.42 -1.38259 0.756453 0
M  V30 21902 C 2132.35 -2.2902 0.0908208 0
M  V30 21903 C 2133.37 -1.47887 -0.680684 0
M  V30 21904 O 2134.55 -1.70718 -0.521301 0
M  V30 21905 C 2131.65 -3.26859 -0.895342 0
M  V30 21906 C 2130.83 -4.37026 -0.180877 0
M  V30 21907 C 2129.89 -5.15035 -1.0782 0
M  V30 21908 O 2128.91 -5.66559 -0.547658 0
M  V30 21909 N 2130.11 -5.28291 -2.40602 0
M  V30 21910 H 2132.88 -2.86785 0.870302 0
M  V30 21911 H 2130.44 -1.50071 0.607483 0
M  V30 21912 H 2132.43 -3.75926 -1.49873 0
M  V30 21913 H 2131 -2.69972 -1.57588 0
M  V30 21914 H 2130.22 -3.89557 0.603252 0
M  V30 21915 H 2131.51 -5.07834 0.313403 0
M  V30 21916 H 2130.91 -4.87986 -2.86158 0
M  V30 21917 H 2129.47 -5.80721 -2.95984 0
M  V30 21918 N 2132.9 -0.505757 -1.49264 0
M  V30 21919 C 2133.83 0.30691 -2.27136 0
M  V30 21920 C 2134.84 0.926357 -1.33875 0
M  V30 21921 O 2136.03 0.808892 -1.5912 0
M  V30 21922 C 2133.13 1.44752 -3.06431 0
M  V30 21923 C 2132.31 0.934498 -4.27301 0
M  V30 21924 C 2131.36 1.95329 -4.88603 0
M  V30 21925 O 2130.39 1.51993 -5.48532 0
M  V30 21926 N 2131.59 3.28401 -4.78678 0
M  V30 21927 H 2134.36 -0.360836 -2.9752 0
M  V30 21928 H 2131.92 -0.338592 -1.5832 0
M  V30 21929 H 2133.91 2.12672 -3.44315 0
M  V30 21930 H 2132.48 2.01934 -2.38624 0
M  V30 21931 H 2131.7 0.0800492 -3.94119 0
M  V30 21932 H 2132.99 0.570223 -5.05595 0
M  V30 21933 H 2132.39 3.66295 -4.31097 0
M  V30 21934 H 2130.94 3.92022 -5.20732 0
M  V30 21935 N 2134.38 1.55765 -0.239796 0
M  V30 21936 C 2135.6 2.03618 0.394243 0
M  V30 21937 C 2136.03 1.1181 1.51261 0
M  V30 21938 O 2135.38 0.1097 1.80968 0
M  V30 21939 C 2135.43 3.49545 0.886029 0
M  V30 21940 O 2134.54 3.60872 1.99613 0
M  V30 21941 H 2133.88 0.658289 0.0869012 0
M  V30 21942 H 2136.41 2.0134 -0.363774 0
M  V30 21943 H 2136.42 3.90226 1.1911 0
M  V30 21944 H 2135.09 4.15845 0.0675883 0
M  V30 21945 H 2133.67 3.32085 1.6963 0
M  V30 21946 N 2135.85 -0.0334016 1.57565 0
M  V30 21947 C 2137.08 -0.736973 1.9333 0
M  V30 21948 C 2137.5 -1.69124 0.83919 0
M  V30 21949 O 2136.85 -1.81563 -0.184737 0
M  V30 21950 C 2136.91 -1.49777 3.29012 0
M  V30 21951 O 2136.63 -0.581806 4.3422 0
M  V30 21952 C 2138.13 -2.29889 3.79033 0
M  V30 21953 H 2135.35 -0.207374 0.638151 0
M  V30 21954 H 2137.89 0.0077802 2.04499 0
M  V30 21955 H 2136.05 -2.19444 3.19254 0
M  V30 21956 H 2136.46 -1.11488 5.12514 0
M  V30 21957 H 2137.93 -2.78671 4.76494 0
M  V30 21958 H 2138.41 -3.11119 3.10003 0
M  V30 21959 H 2139.02 -1.65304 3.9186 0
M  V30 21960 N 2137.33 -1.54609 -0.305591 0
M  V30 21961 C 2138.58 -1.73929 -1.04291 0
M  V30 21962 C 2138.91 -0.521093 -1.87078 0
M  V30 21963 O 2138.19 0.481847 -1.88437 0
M  V30 21964 C 2138.47 -3.02557 -1.95272 0
M  V30 21965 C 2138.32 -4.34666 -1.15695 0
M  V30 21966 C 2139.64 -3.27028 -2.94517 0
M  V30 21967 H 2136.76 -0.632835 -0.377741 0
M  V30 21968 H 2139.4 -1.87321 -0.317961 0
M  V30 21969 H 2137.55 -2.91271 -2.57087 0
M  V30 21970 H 2139.22 -4.57863 -0.562028 0
M  V30 21971 H 2137.47 -4.31359 -0.459568 0
M  V30 21972 H 2138.14 -5.20925 -1.82595 0
M  V30 21973 H 2140.61 -3.37894 -2.42831 0
M  V30 21974 H 2139.49 -4.18355 -3.55346 0
M  V30 21975 H 2139.75 -2.45106 -3.67934 0
M  V30 21976 N 2138.81 0.568558 -1.46987 0
M  V30 21977 C 2140.04 1.35675 -1.56867 0
M  V30 21978 C 2140.46 1.86864 -0.215303 0
M  V30 21979 O 2139.82 1.62351 0.806967 0
M  V30 21980 C 2139.87 2.51048 -2.58858 0
M  V30 21981 O 2138.97 3.52929 -2.13342 0
M  V30 21982 H 2138.31 0.403471 -0.527358 0
M  V30 21983 H 2140.84 0.688258 -1.92676 0
M  V30 21984 H 2140.85 2.97773 -2.78918 0
M  V30 21985 H 2139.53 2.13145 -3.5713 0
M  V30 21986 H 2138.1 3.12587 -2.03332 0
M  V30 21987 N 2140.29 1.34929 0.814366 0
M  V30 21988 C 2141.57 1.18339 1.55741 0
M  V30 21989 C 2141.95 -0.240616 2.09724 0
M  V30 21990 O 2141.29 -1.2431 1.91727 0
M  V30 21991 C 2141.5 2.24503 2.67206 0
M  V30 21992 C 2142.85 2.59917 3.35751 0
M  V30 21993 O 2143.88 2.23358 2.7747 0
M  V30 21994 O 2142.73 3.22749 4.41017 0
M  V30 21995 H 2139.83 0.459265 0.687753 0
M  V30 21996 H 2142.37 1.46587 0.854999 0
M  V30 21997 H 2141.15 3.20048 2.25133 0
M  V30 21998 H 2140.77 1.9748 3.4509 0
M  V30 21999 N 2141.77 -1.0356 1.18799 0
M  V30 22000 C 2143.01 -1.77109 0.987945 0
M  V30 22001 C 2143.35 -1.88154 -0.480786 0
M  V30 22002 O 2142.62 -1.39339 -1.35702 0
M  V30 22003 C 2142.9 -3.20098 1.64952 0
M  V30 22004 C 2142.76 -3.16964 3.19145 0
M  V30 22005 C 2144.08 -4.18333 1.36696 0
M  V30 22006 H 2141.19 -0.642915 0.360318 0
M  V30 22007 H 2143.84 -1.20938 1.4654 0
M  V30 22008 H 2141.99 -3.6806 1.24356 0
M  V30 22009 H 2143.66 -2.76953 3.6891 0
M  V30 22010 H 2141.9 -2.54859 3.5104 0
M  V30 22011 H 2142.57 -4.17958 3.60576 0
M  V30 22012 H 2145.05 -3.78941 1.7188 0
M  V30 22013 H 2143.92 -5.16589 1.85546 0
M  V30 22014 H 2144.19 -4.41143 0.290807 0
M  V30 22015 N 2143.25 -0.990834 -1.22557 0
M  V30 22016 C 2144.66 -0.700966 -1.73042 0
M  V30 22017 C 2145.01 0.782283 -1.7993 0
M  V30 22018 O 2144.13 1.61158 -1.4442 0
M  V30 22019 C 2144.73 -1.26574 -3.14268 0
M  V30 22020 C 2143.29 -1.0253 -3.62167 0
M  V30 22021 C 2142.43 -1.38718 -2.4011 0
M  V30 22022 H 2145.38 -1.16344 -1.07934 0
M  V30 22023 H 2145.41 -0.643298 -3.75023 0
M  V30 22024 H 2144.92 -2.34527 -3.09222 0
M  V30 22025 H 2143.02 0.0376973 -3.72581 0
M  V30 22026 H 2143.13 -1.68722 -4.48408 0
M  V30 22027 H 2141.5 -0.805751 -2.41619 0
M  V30 22028 H 2142.28 -2.47671 -2.37727 0
M  V30 22029 N 2144.72 1.37856 -0.763775 0
M  V30 22030 C 2146.14 1.53343 -0.442503 0
M  V30 22031 C 2146.34 1.72406 1.04299 0
M  V30 22032 O 2145.4 1.74087 1.82893 0
M  V30 22033 C 2146.71 2.73459 -1.25063 0
M  V30 22034 C 2148.26 2.87315 -1.24173 0
M  V30 22035 C 2148.73 4.10404 -2.03303 0
M  V30 22036 N 2150.22 4.17501 -2.00616 0
M  V30 22037 C 2150.96 5.11759 -2.58631 0
M  V30 22038 N 2150.45 6.11626 -3.25401 0
M  V30 22039 N 2152.25 5.04184 -2.48505 0
M  V30 22040 H 2144.4 1.23733 -1.72638 0
M  V30 22041 H 2146.66 0.601869 -0.732432 0
M  V30 22042 H 2146.37 2.65811 -2.30299 0
M  V30 22043 H 2146.24 3.66925 -0.87439 0
M  V30 22044 H 2148.63 2.94439 -0.197389 0
M  V30 22045 H 2148.71 1.9483 -1.65755 0
M  V30 22046 H 2148.35 4.04042 -3.07754 0
M  V30 22047 H 2148.28 5.01988 -1.59108 0
M  V30 22048 H 2150.77 3.45984 -1.51998 0
M  V30 22049 H 2151.09 6.80062 -3.67063 0
M  V30 22050 H 2149.43 6.11928 -3.29498 0
M  V30 22051 H 2152.62 4.25108 -1.95962 0
M  V30 22052 H 2152.8 5.7746 -2.94013 0
M  V30 22053 N 2146.2 0.513665 1.48994 0
M  V30 22054 C 2147.48 -0.0899538 1.95393 0
M  V30 22055 C 2147.86 -1.52898 1.45552 0
M  V30 22056 O 2147.21 -2.18308 0.674808 0
M  V30 22057 C 2147.42 0.010453 3.48998 0
M  V30 22058 C 2148.76 -0.157087 4.24309 0
M  V30 22059 O 2149.79 -0.0641299 3.56142 0
M  V30 22060 O 2148.65 -0.349548 5.45381 0
M  V30 22061 H 2145.74 -0.0883243 0.82227 0
M  V30 22062 H 2148.29 0.577105 1.59586 0
M  V30 22063 H 2147.06 1.0135 3.77947 0
M  V30 22064 H 2146.68 -0.696188 3.91458 0
M  V30 22065 N 2147.68 -1.55636 0.248053 0
M  V30 22066 C 2148.61 -2.2441 -0.645175 0
M  V30 22067 C 2149.59 -1.22477 -1.18039 0
M  V30 22068 O 2150.78 -1.51133 -1.21953 0
M  V30 22069 C 2147.91 -2.94446 -1.84171 0
M  V30 22070 C 2146.86 -4.03076 -1.43922 0
M  V30 22071 C 2146.19 -4.60544 -2.71668 0
M  V30 22072 C 2147.49 -5.18732 -0.609431 0
M  V30 22073 H 2149.18 -2.99314 -0.0716951 0
M  V30 22074 H 2146.73 -1.43962 -0.033043 0
M  V30 22075 H 2148.68 -3.41259 -2.47225 0
M  V30 22076 H 2147.4 -2.17031 -2.44059 0
M  V30 22077 H 2146.06 -3.57034 -0.832012 0
M  V30 22078 H 2145.71 -3.79829 -3.29756 0
M  V30 22079 H 2145.41 -5.33876 -2.4546 0
M  V30 22080 H 2146.93 -5.10091 -3.35618 0
M  V30 22081 H 2148.35 -5.61764 -1.1443 0
M  V30 22082 H 2146.74 -5.9846 -0.443361 0
M  V30 22083 H 2147.81 -4.83424 0.378087 0
M  V30 22084 N 2149.16 0.0250451 -1.5758 0
M  V30 22085 C 2150.07 1.04128 -2.10225 0
M  V30 22086 C 2151.08 1.39367 -1.04178 0
M  V30 22087 O 2152.26 1.48605 -1.35936 0
M  V30 22088 C 2149.32 2.32208 -2.5745 0
M  V30 22089 C 2148.39 2.03512 -3.77996 0
M  V30 22090 C 2147.62 3.25486 -4.22959 0
M  V30 22091 O 2147.84 4.36301 -3.6742 0
M  V30 22092 O 2146.78 3.1095 -5.15358 0
M  V30 22093 H 2150.6 0.623859 -2.97223 0
M  V30 22094 H 2148.19 0.242286 -1.47422 0
M  V30 22095 H 2150.07 3.07498 -2.88137 0
M  V30 22096 H 2148.74 2.73237 -1.73561 0
M  V30 22097 H 2147.65 1.25777 -3.52322 0
M  V30 22098 H 2148.98 1.67337 -4.62882 0
M  V30 22099 N 2150.64 1.54769 0.297388 0
M  V30 22100 C 2151.88 1.74479 1.03367 0
M  V30 22101 C 2152.21 0.531007 1.86799 0
M  V30 22102 O 2151.49 -0.471847 1.8869 0
M  V30 22103 C 2151.77 3.03588 1.93665 0
M  V30 22104 C 2151.63 4.35274 1.13389 0
M  V30 22105 C 2152.94 3.28586 2.92779 0
M  V30 22106 H 2150.06 0.63483 0.37438 0
M  V30 22107 H 2152.71 1.87487 0.308023 0
M  V30 22108 H 2150.86 2.9263 2.55538 0
M  V30 22109 H 2152.53 4.58155 0.537739 0
M  V30 22110 H 2150.77 4.31596 0.436685 0
M  V30 22111 H 2151.44 5.21886 1.7983 0
M  V30 22112 H 2153.92 3.39177 2.41035 0
M  V30 22113 H 2152.79 4.20233 3.53122 0
M  V30 22114 H 2153.05 2.47054 3.66629 0
M  V30 22115 N 2152.11 -0.560755 1.47286 0
M  V30 22116 C 2153.36 -1.32004 1.53957 0
M  V30 22117 C 2153.69 -1.9317 0.199705 0
M  V30 22118 O 2152.97 -1.77676 -0.791288 0
M  V30 22119 C 2153.25 -2.43284 2.6549 0
M  V30 22120 C 2153.1 -1.87009 4.09081 0
M  V30 22121 C 2154.42 -3.45228 2.72957 0
M  V30 22122 H 2151.54 -0.478599 0.560457 0
M  V30 22123 H 2154.18 -0.627854 1.79327 0
M  V30 22124 H 2152.33 -3.02327 2.43989 0
M  V30 22125 H 2154.01 -1.32254 4.41935 0
M  V30 22126 H 2152.25 -1.17705 4.17526 0
M  V30 22127 H 2152.92 -2.67438 4.82888 0
M  V30 22128 H 2155.4 -2.96099 2.92344 0
M  V30 22129 H 2154.27 -4.20522 3.52778 0
M  V30 22130 H 2154.53 -4.03854 1.79874 0
M  V30 22131 N 2153.59 -1.35359 -0.807199 0
M  V30 22132 C 2154.55 -1.28103 -1.90059 0
M  V30 22133 C 2155.55 -0.192614 -1.59642 0
M  V30 22134 O 2156.74 -0.446274 -1.68387 0
M  V30 22135 C 2153.88 -0.981581 -3.26463 0
M  V30 22136 H 2155.07 -2.25323 -1.97912 0
M  V30 22137 H 2152.62 -1.19874 -1.00299 0
M  V30 22138 H 2153.36 -0.013209 -3.24297 0
M  V30 22139 H 2153.14 -1.76903 -3.49925 0
M  V30 22140 H 2154.63 -0.956397 -4.06501 0
M  V30 22141 N 2155.07 1.02928 -1.19346 0
M  V30 22142 C 2156.03 2.09361 -0.932765 0
M  V30 22143 C 2157.03 1.60567 0.086582 0
M  V30 22144 O 2158.22 1.73569 -0.148116 0
M  V30 22145 C 2155.35 3.38524 -0.401767 0
M  V30 22146 H 2156.55 2.33922 -1.87671 0
M  V30 22147 H 2154.1 1.19532 -1.00707 0
M  V30 22148 H 2154.84 3.19632 0.548245 0
M  V30 22149 H 2154.62 3.75261 -1.13672 0
M  V30 22150 H 2156.11 4.16919 -0.238443 0
M  V30 22151 N 2156.55 0.997319 1.2203 0
M  V30 22152 C 2157.78 0.694247 1.94905 0
M  V30 22153 C 2158.19 -0.741849 1.73615 0
M  V30 22154 O 2157.55 -1.50108 1.03796 0
M  V30 22155 C 2157.6 0.996196 3.47503 0
M  V30 22156 O 2157.32 2.37587 3.68082 0
M  V30 22157 C 2158.82 0.711446 4.37554 0
M  V30 22158 H 2156.04 0.256462 0.620055 0
M  V30 22159 H 2158.58 1.33329 1.5506 0
M  V30 22160 H 2156.74 0.402886 3.85299 0
M  V30 22161 H 2157.15 2.47854 4.62243 0
M  V30 22162 H 2158.63 0.972956 5.43358 0
M  V30 22163 H 2159.1 -0.35455 4.37767 0
M  V30 22164 H 2159.71 1.28601 4.05391 0
M  V30 22165 N 2158.03 -1.37449 0.771075 0
M  V30 22166 C 2159.44 -1.82352 0.400585 0
M  V30 22167 C 2159.79 -1.64247 -1.07318 0
M  V30 22168 O 2158.91 -1.15322 -1.83111 0
M  V30 22169 C 2159.51 -3.31054 0.720312 0
M  V30 22170 C 2158.07 -3.74238 0.402886 0
M  V30 22171 C 2157.21 -2.59986 0.964497 0
M  V30 22172 H 2160.17 -1.2593 0.965782 0
M  V30 22173 H 2160.19 -3.805 0.00472604 0
M  V30 22174 H 2159.7 -3.44199 1.793 0
M  V30 22175 H 2157.8 -3.66663 -0.662511 0
M  V30 22176 H 2157.91 -4.70365 0.910666 0
M  V30 22177 H 2156.28 -2.51715 0.388782 0
M  V30 22178 H 2157.06 -2.75924 2.04257 0
M  V30 22179 N 2159.5 -0.52156 -1.4872 0
M  V30 22180 C 2160.73 0.0117966 -2.06897 0
M  V30 22181 C 2161.15 1.28928 -1.37924 0
M  V30 22182 O 2160.5 1.76502 -0.464046 0
M  V30 22183 C 2160.56 0.248161 -3.60647 0
M  V30 22184 O 2160.28 -0.978703 -4.27028 0
M  V30 22185 C 2161.78 0.822848 -4.35596 0
M  V30 22186 H 2159 -0.0297145 -0.670342 0
M  V30 22187 H 2161.54 -0.724798 -1.91225 0
M  V30 22188 H 2159.7 0.934783 -3.75953 0
M  V30 22189 H 2160.11 -0.754221 -5.19049 0
M  V30 22190 H 2161.58 0.937703 -5.43977 0
M  V30 22191 H 2162.06 1.82571 -3.99455 0
M  V30 22192 H 2162.67 0.173056 -4.24948 0
M  V30 22193 N 2160.98 1.55502 -0.256304 0
M  V30 22194 C 2162.21 2.04025 0.372624 0
M  V30 22195 C 2162.63 1.13408 1.50067 0
M  V30 22196 O 2161.99 0.128888 1.80841 0
M  V30 22197 C 2162.04 3.50465 0.848906 0
M  V30 22198 O 2161.14 3.62969 1.95774 0
M  V30 22199 H 2160.48 0.659174 0.0799143 0
M  V30 22200 H 2163.01 2.00943 -0.385109 0
M  V30 22201 H 2163.02 3.91468 1.14965 0
M  V30 22202 H 2161.7 4.15893 0.0234786 0
M  V30 22203 H 2160.28 3.33865 1.66098 0
M  V30 22204 N 2162.46 -0.0166879 1.57591 0
M  V30 22205 C 2163.39 -1.01268 2.10398 0
M  V30 22206 C 2164.37 -1.36922 1.00928 0
M  V30 22207 O 2165.56 -1.45589 1.2852 0
M  V30 22208 C 2162.69 -2.30979 2.59357 0
M  V30 22209 C 2161.64 -2.09533 3.73202 0
M  V30 22210 C 2160.97 -3.45113 4.08413 0
M  V30 22211 C 2162.27 -1.47144 5.01145 0
M  V30 22212 H 2163.96 -0.573053 2.93865 0
M  V30 22213 H 2161.51 -0.274203 1.41365 0
M  V30 22214 H 2163.46 -3.00996 2.94923 0
M  V30 22215 H 2162.18 -2.77024 1.72989 0
M  V30 22216 H 2160.84 -1.41946 3.38004 0
M  V30 22217 H 2160.49 -3.88829 3.19094 0
M  V30 22218 H 2160.19 -3.31585 4.85104 0
M  V30 22219 H 2161.71 -4.16472 4.46524 0
M  V30 22220 H 2163.13 -2.07094 5.34588 0
M  V30 22221 H 2161.53 -1.44154 5.82529 0
M  V30 22222 H 2162.6 -0.438665 4.82912 0
M  V30 22223 N 2163.94 -1.54924 -0.289176 0
M  V30 22224 C 2164.87 -1.89696 -1.36153 0
M  V30 22225 C 2165.85 -0.757081 -1.52323 0
M  V30 22226 O 2167.03 -1.01384 -1.65635 0
M  V30 22227 C 2164.16 -2.15468 -2.7238 0
M  V30 22228 C 2163.12 -3.31307 -2.70961 0
M  V30 22229 C 2162.44 -3.42522 -4.10588 0
M  V30 22230 C 2163.74 -4.68117 -2.31655 0
M  V30 22231 H 2165.44 -2.79513 -1.07299 0
M  V30 22232 H 2162.98 -1.34486 -0.514723 0
M  V30 22233 H 2164.94 -2.3838 -3.47495 0
M  V30 22234 H 2163.66 -1.22435 -3.02783 0
M  V30 22235 H 2162.32 -3.08337 -1.98302 0
M  V30 22236 H 2161.97 -2.46985 -4.38187 0
M  V30 22237 H 2161.67 -4.20397 -4.10537 0
M  V30 22238 H 2163.19 -3.67708 -4.87466 0
M  V30 22239 H 2164.61 -4.9068 -2.96489 0
M  V30 22240 H 2163 -5.4879 -2.42796 0
M  V30 22241 H 2164.07 -4.68033 -1.26781 0
M  V30 22242 N 2165.42 0.552936 -1.47582 0
M  V30 22243 C 2166.67 1.30628 -1.53685 0
M  V30 22244 C 2166.98 1.94516 -0.205625 0
M  V30 22245 O 2168.18 2.71114 -0.144695 0
M  V30 22246 C 2166.64 2.369 -2.70936 0
M  V30 22247 C 2166.25 1.79183 -4.10606 0
M  V30 22248 C 2167.99 3.13388 -2.86336 0
M  V30 22249 C 2165.9 2.8326 -5.19151 0
M  V30 22250 H 2164.83 0.491183 -0.572062 0
M  V30 22251 H 2167.48 0.58676 -1.73866 0
M  V30 22252 H 2165.86 3.11785 -2.44143 0
M  V30 22253 H 2167.04 1.10641 -4.4732 0
M  V30 22254 H 2165.35 1.15265 -4.00129 0
M  V30 22255 H 2167.95 3.91117 -3.64597 0
M  V30 22256 H 2168.29 3.67839 -1.94936 0
M  V30 22257 H 2168.82 2.45615 -3.12919 0
M  V30 22258 H 2165.56 2.3366 -6.12441 0
M  V30 22259 H 2165.08 3.502 -4.8695 0
M  V30 22260 H 2166.76 3.46674 -5.46284 0
M  V30 22261 N 2166.89 1.35785 0.800009 0
M  V30 22262 C 2168.12 1.32717 1.59377 0
M  V30 22263 C 2168.54 -0.0914251 1.87878 0
M  V30 22264 O 2167.9 -1.06023 1.47068 0
M  V30 22265 C 2167.95 2.14589 2.898 0
M  V30 22266 O 2167.05 1.53112 3.82924 0
M  V30 22267 H 2166.4 0.45473 0.483856 0
M  V30 22268 H 2168.93 1.7892 0.992412 0
M  V30 22269 H 2168.94 2.26784 3.39165 0
M  V30 22270 H 2167.61 3.17717 2.68382 0
M  V30 22271 H 2166.19 1.49795 3.41491 0
M  V30 22272 N 2168.37 -1.02294 1.19891 0
M  V30 22273 C 2169.62 -1.76166 1.01671 0
M  V30 22274 C 2169.97 -1.87131 -0.44718 0
M  V30 22275 O 2169.27 -1.38142 -1.32768 0
M  V30 22276 C 2169.46 -3.18252 1.62636 0
M  V30 22277 C 2169.29 -3.21139 3.14801 0
M  V30 22278 C 2168.06 -3.28744 3.83739 0
M  V30 22279 C 2170.26 -3.077 4.12099 0
M  V30 22280 N 2168.24 -3.21068 5.23248 0
M  V30 22281 C 2169.61 -3.07723 5.38244 0
M  V30 22282 C 2171.67 -2.9187 4.03381 0
M  V30 22283 C 2170.37 -2.93541 6.56678 0
M  V30 22284 C 2172.39 -2.79039 5.21432 0
M  V30 22285 C 2171.76 -2.79723 6.46478 0
M  V30 22286 H 2167.86 -0.655638 0.426219 0
M  V30 22287 H 2170.44 -1.21723 1.51959 0
M  V30 22288 H 2168.61 -3.71003 1.14941 0
M  V30 22289 H 2170.34 -3.80519 1.37794 0
M  V30 22290 H 2167.1 -3.35209 3.34562 0
M  V30 22291 H 2167.52 -3.20621 5.96264 0
M  V30 22292 H 2172.16 -2.9016 3.07518 0
M  V30 22293 H 2169.88 -2.94001 7.52721 0
M  V30 22294 H 2173.47 -2.67818 5.16493 0
M  V30 22295 H 2172.35 -2.69905 7.36289 0
M  V30 22296 N 2169.85 -1.00378 -1.21499 0
M  V30 22297 C 2171.13 -0.601329 -1.86127 0
M  V30 22298 C 2171.51 0.921083 -1.89945 0
M  V30 22299 O 2170.86 1.80753 -1.39787 0
M  V30 22300 C 2171.07 -1.2343 -3.26445 0
M  V30 22301 C 2172.41 -1.34165 -4.02846 0
M  V30 22302 O 2173.44 -1.18952 -3.35751 0
M  V30 22303 O 2172.3 -1.58622 -5.22973 0
M  V30 22304 H 2169.39 -0.205796 -0.800985 0
M  V30 22305 H 2171.94 -1.10035 -1.29192 0
M  V30 22306 H 2170.71 -2.27515 -3.18359 0
M  V30 22307 H 2170.33 -0.721556 -3.90998 0
M  V30 22308 N 2171.33 1.37038 -0.778354 0
M  V30 22309 C 2172.29 2.28529 -0.175271 0
M  V30 22310 C 2173.29 1.48328 0.62093 0
M  V30 22311 O 2174.48 1.68459 0.443548 0
M  V30 22312 C 2171.61 3.32349 0.758757 0
M  V30 22313 H 2172.81 2.83372 -0.981858 0
M  V30 22314 H 2170.36 1.46415 -0.547012 0
M  V30 22315 H 2171.09 2.82642 1.5901 0
M  V30 22316 H 2170.88 3.9164 0.189916 0
M  V30 22317 H 2172.37 4.00701 1.17594 0
M  V30 22318 N 2172.81 0.529439 1.48441 0
M  V30 22319 C 2174.22 0.0888387 1.86489 0
M  V30 22320 C 2174.57 -1.33364 1.43905 0
M  V30 22321 O 2173.69 -1.9987 0.829524 0
M  V30 22322 C 2174.29 0.154445 3.38448 0
M  V30 22323 C 2172.85 -0.230958 3.75691 0
M  V30 22324 C 2172 0.514449 2.72486 0
M  V30 22325 H 2174.95 0.740717 1.40353 0
M  V30 22326 H 2174.97 -0.63398 3.75181 0
M  V30 22327 H 2174.48 1.18985 3.69411 0
M  V30 22328 H 2172.58 -1.26853 3.50341 0
M  V30 22329 H 2172.69 0.108275 4.78978 0
M  V30 22330 H 2171.06 -0.039218 2.5467 0
M  V30 22331 H 2171.84 1.55048 3.06293 0
M  V30 22332 N 2174.29 -1.55364 0.264547 0
M  V30 22333 C 2175.25 -2.20814 -0.614312 0
M  V30 22334 C 2176.25 -1.18274 -1.0894 0
M  V30 22335 O 2177.44 -1.43246 -0.991274 0
M  V30 22336 C 2174.57 -2.86572 -1.84632 0
M  V30 22337 H 2175.76 -2.99869 -0.0430102 0
M  V30 22338 H 2173.32 -1.56293 0.0150952 0
M  V30 22339 H 2174.05 -2.11501 -2.45841 0
M  V30 22340 H 2173.84 -3.61704 -1.51369 0
M  V30 22341 H 2175.33 -3.36608 -2.47153 0
M  V30 22342 N 2175.76 0.00833021 -1.57598 0
M  V30 22343 C 2177.01 0.695941 -1.90485 0
M  V30 22344 C 2177.34 1.73883 -0.864775 0
M  V30 22345 O 2176.62 1.94144 0.11758 0
M  V30 22346 C 2176.9 1.34667 -3.33971 0
M  V30 22347 C 2176.75 0.315885 -4.48689 0
M  V30 22348 C 2178.07 2.2751 -3.76732 0
M  V30 22349 H 2175.19 0.251528 -0.69275 0
M  V30 22350 H 2177.83 -0.0412539 -1.89955 0
M  V30 22351 H 2175.98 1.975 -3.34553 0
M  V30 22352 H 2177.66 -0.312127 -4.60243 0
M  V30 22353 H 2175.9 -0.362729 -4.32281 0
M  V30 22354 H 2176.57 0.810081 -5.46024 0
M  V30 22355 H 2179.05 1.74702 -3.77649 0
M  V30 22356 H 2177.92 2.70011 -4.77897 0
M  V30 22357 H 2178.18 3.15068 -3.10136 0
M  V30 22358 N 2177.24 1.55075 0.280956 0
M  V30 22359 C 2178.47 1.79322 1.03205 0
M  V30 22360 C 2178.88 0.56257 1.80224 0
M  V30 22361 O 2178.24 -0.468172 1.76393 0
M  V30 22362 C 2178.29 3.01341 1.99689 0
M  V30 22363 O 2178.01 4.19652 1.25792 0
M  V30 22364 C 2179.51 3.38131 2.86675 0
M  V30 22365 H 2176.73 0.597563 0.30522 0
M  V30 22366 H 2179.28 2.02073 0.31415 0
M  V30 22367 H 2177.43 2.8074 2.66953 0
M  V30 22368 H 2177.85 4.88582 1.90757 0
M  V30 22369 H 2179.32 4.267 3.50188 0
M  V30 22370 H 2179.8 2.57177 3.56029 0
M  V30 22371 H 2180.4 3.60962 2.24914 0
M  V30 22372 N 2178.72 -0.545102 1.47873 0
M  V30 22373 C 2179.97 -1.30364 1.55348 0
M  V30 22374 C 2180.3 -1.92948 0.220182 0
M  V30 22375 O 2179.57 -1.78506 -0.772398 0
M  V30 22376 C 2179.86 -2.40454 2.68055 0
M  V30 22377 C 2179.71 -1.8266 4.11042 0
M  V30 22378 C 2181.03 -3.42314 2.76603 0
M  V30 22379 H 2178.15 -0.472628 0.565502 0
M  V30 22380 H 2180.79 -0.608798 1.79982 0
M  V30 22381 H 2178.94 -2.99722 2.47182 0
M  V30 22382 H 2180.61 -1.2756 4.43313 0
M  V30 22383 H 2178.85 -1.1327 4.18751 0
M  V30 22384 H 2179.53 -2.62302 4.85697 0
M  V30 22385 H 2182 -2.92981 2.95468 0
M  V30 22386 H 2180.88 -4.16757 3.57218 0
M  V30 22387 H 2181.14 -4.01923 1.84147 0
M  V30 22388 N 2180.2 -1.36208 -0.792797 0
M  V30 22389 C 2181.61 -1.16547 -1.09036 0
M  V30 22390 C 2181.81 0.0127355 -2.01496 0
M  V30 22391 O 2180.87 0.679142 -2.43195 0
M  V30 22392 C 2182.18 -2.47477 -1.70808 0
M  V30 22393 C 2183.73 -2.5381 -1.83165 0
M  V30 22394 C 2184.21 -3.84818 -2.48352 0
M  V30 22395 N 2185.7 -3.86146 -2.55824 0
M  V30 22396 C 2186.43 -4.84251 -3.07064 0
M  V30 22397 N 2185.93 -5.92749 -3.58637 0
M  V30 22398 N 2187.72 -4.71674 -3.05745 0
M  V30 22399 H 2179.87 -2.11649 -0.178453 0
M  V30 22400 H 2182.13 -0.937338 -0.141777 0
M  V30 22401 H 2181.84 -3.33944 -1.10338 0
M  V30 22402 H 2181.71 -2.63037 -2.70354 0
M  V30 22403 H 2184.1 -1.67764 -2.42774 0
M  V30 22404 H 2184.18 -2.42153 -0.824343 0
M  V30 22405 H 2183.83 -4.71269 -1.89388 0
M  V30 22406 H 2183.76 -3.9377 -3.49647 0
M  V30 22407 H 2186.25 -3.07758 -2.19301 0
M  V30 22408 H 2186.56 -6.63584 -3.96075 0
M  V30 22409 H 2184.91 -5.96423 -3.56798 0
M  V30 22410 H 2188.1 -3.86044 -2.6474 0
M  V30 22411 H 2188.27 -5.48291 -3.4537 0
M  V30 22412 N 2181.68 1.01656 -1.20431 0
M  V30 22413 C 2182.91 1.78596 -1.03861 0
M  V30 22414 C 2183.31 1.84587 0.415224 0
M  V30 22415 O 2182.66 1.29783 1.30008 0
M  V30 22416 C 2182.72 3.24529 -1.54664 0
M  V30 22417 C 2182.38 3.42144 -3.02963 0
M  V30 22418 C 2183.38 3.31361 -4.0062 0
M  V30 22419 C 2181.06 3.6796 -3.41922 0
M  V30 22420 C 2183.06 3.46138 -5.35227 0
M  V30 22421 C 2180.75 3.8238 -4.76685 0
M  V30 22422 C 2181.74 3.71474 -5.73146 0
M  V30 22423 O 2181.43 3.85453 -7.05465 0
M  V30 22424 H 2181.16 0.568491 -0.365779 0
M  V30 22425 H 2183.72 1.28844 -1.59964 0
M  V30 22426 H 2181.95 3.75364 -0.929469 0
M  V30 22427 H 2183.64 3.83104 -1.34113 0
M  V30 22428 H 2184.4 3.11354 -3.71865 0
M  V30 22429 H 2180.28 3.75536 -2.67383 0
M  V30 22430 H 2183.83 3.37541 -6.10501 0
M  V30 22431 H 2179.72 4.01888 -5.0513 0
M  V30 22432 H 2180.49 4.0247 -7.12713 0
M  V30 22433 N 2183.15 1.01021 1.20965 0
M  V30 22434 C 2184.38 0.713843 1.93876 0
M  V30 22435 C 2184.79 -0.72842 1.74616 0
M  V30 22436 O 2184.13 -1.50507 1.05324 0
M  V30 22437 C 2184.2 0.961644 3.464 0
M  V30 22438 C 2183.86 2.39177 3.89414 0
M  V30 22439 C 2184.86 3.37226 3.95695 0
M  V30 22440 C 2182.54 2.73081 4.21583 0
M  V30 22441 C 2184.54 4.67245 4.33545 0
M  V30 22442 C 2182.22 4.03314 4.59109 0
M  V30 22443 C 2183.22 5.00207 4.65061 0
M  V30 22444 O 2182.91 6.2811 5.0173 0
M  V30 22445 H 2182.64 0.261872 0.623217 0
M  V30 22446 H 2185.2 1.35251 1.54584 0
M  V30 22447 H 2183.43 0.26581 3.85785 0
M  V30 22448 H 2185.11 0.657859 4.00533 0
M  V30 22449 H 2185.88 3.12369 3.71013 0
M  V30 22450 H 2181.76 1.98355 4.16145 0
M  V30 22451 H 2185.3 5.42871 4.38106 0
M  V30 22452 H 2181.2 4.27954 4.83245 0
M  V30 22453 H 2181.97 6.32304 5.19745 0
M  V30 22454 N 2184.63 -1.36623 0.78561 0
M  V30 22455 C 2186.05 -1.5262 0.466843 0
M  V30 22456 C 2186.25 -1.74044 -1.01543 0
M  V30 22457 O 2185.3 -1.76975 -1.801 0
M  V30 22458 C 2186.62 -2.71435 1.29398 0
M  V30 22459 C 2188.16 -2.85304 1.28728 0
M  V30 22460 C 2188.64 -4.07118 2.09807 0
M  V30 22461 N 2190.13 -4.14257 2.07233 0
M  V30 22462 C 2190.87 -5.0758 2.6674 0
M  V30 22463 N 2190.36 -6.06372 3.3509 0
M  V30 22464 N 2192.15 -5.00167 2.56494 0
M  V30 22465 H 2184.31 -1.20971 1.74585 0
M  V30 22466 H 2186.57 -0.590141 0.741915 0
M  V30 22467 H 2186.27 -2.62113 2.34498 0
M  V30 22468 H 2186.15 -3.65488 0.932654 0
M  V30 22469 H 2188.54 -2.94088 0.244207 0
M  V30 22470 H 2188.62 -1.92169 1.68834 0
M  V30 22471 H 2188.26 -3.99095 3.14143 0
M  V30 22472 H 2188.19 -4.99393 1.67074 0
M  V30 22473 H 2190.68 -3.43522 1.57483 0
M  V30 22474 H 2190.99 -6.74137 3.77836 0
M  V30 22475 H 2189.34 -6.06609 3.39191 0
M  V30 22476 H 2192.53 -4.21936 2.027 0
M  V30 22477 H 2192.7 -5.7271 3.03162 0
M  V30 22478 N 2186.11 -0.537304 -1.48158 0
M  V30 22479 C 2187.36 -0.00384223 -2.017 0
M  V30 22480 C 2187.67 1.34625 -1.419 0
M  V30 22481 O 2188.88 1.96849 -1.86983 0
M  V30 22482 C 2187.33 0.0435291 -3.59874 0
M  V30 22483 C 2186.94 -1.30211 -4.2866 0
M  V30 22484 C 2188.69 0.525433 -4.21236 0
M  V30 22485 C 2186.59 -1.21492 -5.78786 0
M  V30 22486 H 2185.52 0.00233368 -0.753996 0
M  V30 22487 H 2188.17 -0.682181 -1.70348 0
M  V30 22488 H 2186.56 0.7871 -3.88099 0
M  V30 22489 H 2187.73 -2.06182 -4.12099 0
M  V30 22490 H 2186.04 -1.72034 -3.79201 0
M  V30 22491 H 2188.64 0.608744 -5.31223 0
M  V30 22492 H 2188.98 1.5329 -3.8705 0
M  V30 22493 H 2189.52 -0.162674 -3.97467 0
M  V30 22494 H 2186.26 -2.19778 -6.17558 0
M  V30 22495 H 2185.78 -0.496694 -5.9774 0
M  V30 22496 H 2187.46 -0.908641 -6.40588 0
M  V30 22497 N 2187.59 1.55221 -0.272782 0
M  V30 22498 C 2188.82 2.03951 0.348078 0
M  V30 22499 C 2189.23 1.15123 1.4964 0
M  V30 22500 O 2188.59 0.170857 1.81698 0
M  V30 22501 C 2188.64 3.51812 0.831313 0
M  V30 22502 O 2188.36 4.37259 -0.271279 0
M  V30 22503 C 2189.86 4.16418 1.52023 0
M  V30 22504 H 2187.08 0.666252 0.0796865 0
M  V30 22505 H 2189.63 2.00466 -0.404197 0
M  V30 22506 H 2187.78 3.55748 1.53368 0
M  V30 22507 H 2188.19 5.24405 0.0998522 0
M  V30 22508 H 2189.67 5.21489 1.80979 0
M  V30 22509 H 2190.15 3.6445 2.45097 0
M  V30 22510 H 2190.75 4.16478 0.861768 0
M  V30 22511 N 2189.07 2.77022e-05 1.576 0
M  V30 22512 C 2190.3 -0.69479 1.94567 0
M  V30 22513 C 2190.7 -1.67836 0.873374 0
M  V30 22514 O 2190.05 -1.83034 -0.156298 0
M  V30 22515 C 2190.11 -1.48224 3.27521 0
M  V30 22516 C 2189.77 -0.660251 4.52205 0
M  V30 22517 C 2190.77 0.0520805 5.19874 0
M  V30 22518 C 2188.46 -0.606213 4.98628 0
M  V30 22519 C 2190.45 0.807435 6.32265 0
M  V30 22520 C 2188.14 0.152866 6.10909 0
M  V30 22521 C 2189.13 0.858424 6.77584 0
M  V30 22522 O 2188.82 1.60512 7.87713 0
M  V30 22523 H 2188.55 -0.198468 0.646209 0
M  V30 22524 H 2191.11 0.0472739 2.05346 0
M  V30 22525 H 2189.34 -2.26878 3.1315 0
M  V30 22526 H 2191.03 -2.0624 3.496 0
M  V30 22527 H 2191.79 0.0194852 4.84996 0
M  V30 22528 H 2187.67 -1.14492 4.46556 0
M  V30 22529 H 2191.22 1.35868 6.84241 0
M  V30 22530 H 2187.11 0.187282 6.45228 0
M  V30 22531 H 2187.88 1.52183 8.04228 0
M  V30 22532 N 2190.54 -1.55222 -0.272728 0
M  V30 22533 C 2191.79 -1.75494 -1.00231 0
M  V30 22534 C 2192.11 -0.559233 -1.86809 0
M  V30 22535 O 2191.38 0.425848 -1.91215 0
M  V30 22536 H 2189.96 -0.647172 -0.373065 0
M  V30 22537 H 2192.63 -1.92625 -0.296893 0
M  V30 22538 H 2191.72 -2.65594 -1.63909 0
M  V30 22539 N 2192.02 0.537252 -1.4816 0
M  V30 22540 C 2192.93 1.66957 -1.6481 0
M  V30 22541 C 2193.95 1.6571 -0.53068 0
M  V30 22542 O 2195.12 1.84794 -0.800816 0
M  V30 22543 C 2192.19 3.03435 -1.67714 0
M  V30 22544 C 2191.25 3.15595 -2.9103 0
M  V30 22545 C 2190.48 4.45562 -2.93786 0
M  V30 22546 O 2190.71 5.32226 -2.05162 0
M  V30 22547 O 2189.64 4.61934 -3.85876 0
M  V30 22548 H 2193.47 1.55849 -2.60662 0
M  V30 22549 H 2191.05 0.709526 -1.31477 0
M  V30 22550 H 2192.93 3.84616 -1.72187 0
M  V30 22551 H 2191.61 3.14884 -0.750333 0
M  V30 22552 H 2190.52 2.33736 -2.92093 0
M  V30 22553 H 2191.85 3.09059 -3.83071 0
M  V30 22554 N 2193.5 1.36626 0.785562 0
M  V30 22555 C 2194.73 1.34233 1.57446 0
M  V30 22556 C 2195.14 -0.0755322 1.88649 0
M  V30 22557 O 2194.5 -1.03351 1.50416 0
M  V30 22558 C 2194.55 2.1675 2.89312 0
M  V30 22559 O 2194.27 3.5301 2.59452 0
M  V30 22560 C 2195.77 2.22181 3.83602 0
M  V30 22561 H 2192.99 0.460309 0.488218 0
M  V30 22562 H 2195.54 1.79777 0.974701 0
M  V30 22563 H 2193.69 1.74751 3.45747 0
M  V30 22564 H 2194.11 3.96111 3.43797 0
M  V30 22565 H 2195.58 2.84268 4.73176 0
M  V30 22566 H 2196.06 1.22634 4.21732 0
M  V30 22567 H 2196.66 2.64433 3.331 0
M  V30 22568 N 2194.98 -1.01016 1.20969 0
M  V30 22569 C 2196.23 -1.74369 1.02175 0
M  V30 22570 C 2196.55 -1.89822 -0.44638 0
M  V30 22571 O 2195.82 -1.44539 -1.32232 0
M  V30 22572 H 2194.4 -0.646008 0.375078 0
M  V30 22573 H 2197.06 -1.21756 1.52189 0
M  V30 22574 H 2196.16 -2.74484 1.48543 0
M  V30 22575 N 2196.46 -1.01661 -1.20428 0
M  V30 22576 C 2197.7 -0.704556 -1.89421 0
M  V30 22577 C 2198.03 0.768165 -1.79232 0
M  V30 22578 O 2197.3 1.55252 -1.19473 0
M  V30 22579 H 2195.88 -0.257615 -0.701173 0
M  V30 22580 H 2198.54 -1.28821 -1.46257 0
M  V30 22581 H 2197.63 -0.987968 -2.9605 0
M  V30 22582 N 2197.93 1.36205 -0.792844 0
M  V30 22583 C 2198.88 2.3189 -0.181596 0
M  V30 22584 C 2199.88 1.55972 0.660998 0
M  V30 22585 O 2201.08 1.71207 0.555698 0
M  V30 22586 H 2197.46 0.750938 -0.0399514 0
M  V30 22587 H 2199.43 2.81003 -1.00399 0
M  V30 22588 C 2198.18 3.41254 0.666384 0
M  V30 22589 H 2197.5 3.99791 0.0273786 0
M  V30 22590 H 2198.94 4.10518 1.06069 0
M  V30 22591 C 2197.4 2.83117 1.82609 0
M  V30 22592 O 2197.93 2.75558 2.92286 0
M  V30 22593 N 2196.14 2.40359 1.63328 0
M  V30 22594 H 2195.68 2.46707 0.741174 0
M  V30 22595 H 2195.64 2.01807 2.41083 0
M  V30 22596 N 2199.41 0.545154 1.47871 0
M  V30 22597 C 2200.64 0.0190975 2.07391 0
M  V30 22598 C 2201.06 -1.25969 1.39691 0
M  V30 22599 O 2200.42 -1.7516 0.467847 0
M  V30 22600 C 2200.47 -0.172272 3.60188 0
M  V30 22601 O 2199.57 -1.23759 3.93392 0
M  V30 22602 H 2198.91 0.0459176 0.66241 0
M  V30 22603 H 2201.44 0.757399 1.90065 0
M  V30 22604 H 2201.45 -0.390233 4.0613 0
M  V30 22605 H 2200.13 0.761796 4.08864 0
M  V30 22606 H 2198.71 -1.00108 3.59211 0
M  V30 22607 N 2200.89 -1.55074 0.28101 0
M  V30 22608 C 2202.3 -1.85451 -0.215596 0
M  V30 22609 C 2202.65 -1.20303 -1.54989 0
M  V30 22610 O 2201.78 -0.493472 -2.10698 0
M  V30 22611 C 2202.37 -3.36455 -0.397967 0
M  V30 22612 C 2200.93 -3.66935 -0.838802 0
M  V30 22613 C 2200.08 -2.77225 0.0645067 0
M  V30 22614 H 2203.03 -1.5053 0.502627 0
M  V30 22615 H 2203.05 -3.59878 -1.23563 0
M  V30 22616 H 2202.56 -3.83842 0.573309 0
M  V30 22617 H 2200.66 -3.25051 -1.82134 0
M  V30 22618 H 2200.78 -4.74363 -0.67204 0
M  V30 22619 H 2199.14 -2.50642 -0.452819 0
M  V30 22620 H 2199.92 -3.27428 1.03177 0
M  V30 22621 N 2202.37 -0.00838561 -1.57598 0
M  V30 22622 C 2203.62 0.675698 -1.91212 0
M  V30 22623 C 2203.95 1.72956 -0.883169 0
M  V30 22624 O 2203.22 1.94258 0.0969819 0
M  V30 22625 C 2203.51 1.31117 -3.35381 0
M  V30 22626 C 2203.36 0.268278 -4.48999 0
M  V30 22627 C 2204.68 2.23502 -3.79124 0
M  V30 22628 H 2201.8 0.244167 -0.695379 0
M  V30 22629 H 2204.44 -0.0613989 -1.89901 0
M  V30 22630 H 2202.59 1.93941 -3.36629 0
M  V30 22631 H 2204.26 -0.360925 -4.59886 0
M  V30 22632 H 2202.5 -0.408557 -4.31872 0
M  V30 22633 H 2203.18 0.752122 -5.46852 0
M  V30 22634 H 2205.65 1.70686 -3.7948 0
M  V30 22635 H 2204.53 2.64927 -4.80734 0
M  V30 22636 H 2204.79 3.11761 -3.13461 0
M  V30 22637 N 2203.85 1.55365 0.264492 0
M  V30 22638 C 2204.78 1.85251 1.34962 0
M  V30 22639 C 2205.79 0.737551 1.45135 0
M  V30 22640 O 2206.98 1.0155 1.46799 0
M  V30 22641 C 2204.08 2.00802 2.73005 0
M  V30 22642 C 2203.25 3.3153 2.85319 0
M  V30 22643 C 2202.31 3.37041 4.04091 0
M  V30 22644 O 2201.34 4.10365 3.94448 0
M  V30 22645 N 2202.54 2.65058 5.16454 0
M  V30 22646 H 2205.31 2.78915 1.09667 0
M  V30 22647 H 2202.87 1.55386 0.454608 0
M  V30 22648 H 2204.86 2.0185 3.50769 0
M  V30 22649 H 2203.43 1.13965 2.91085 0
M  V30 22650 H 2202.65 3.42948 1.94371 0
M  V30 22651 H 2203.94 4.17729 2.90483 0
M  V30 22652 H 2203.34 2.05185 5.27177 0
M  V30 22653 H 2201.89 2.71819 5.92417 0
M  V30 22654 N 2205.33 -0.529387 1.48443 0
M  V30 22655 C 2206.24 -1.66081 1.65693 0
M  V30 22656 C 2207.25 -1.65426 0.539461 0
M  V30 22657 O 2208.43 -1.84367 0.810605 0
M  V30 22658 C 2205.49 -3.02542 1.69321 0
M  V30 22659 C 2204.55 -3.14047 2.927 0
M  V30 22660 C 2203.79 -4.43998 2.96144 0
M  V30 22661 O 2204.01 -5.31131 2.07982 0
M  V30 22662 O 2202.94 -4.59881 3.8832 0
M  V30 22663 H 2206.77 -1.54464 2.61485 0
M  V30 22664 H 2204.35 -0.702544 1.31851 0
M  V30 22665 H 2206.24 -3.83698 1.74224 0
M  V30 22666 H 2204.91 -3.14481 0.767022 0
M  V30 22667 H 2203.82 -2.32184 2.93328 0
M  V30 22668 H 2205.15 -3.07023 3.84704 0
M  V30 22669 N 2206.8 -1.37041 -0.778305 0
M  V30 22670 C 2208.05 -1.31887 -1.53662 0
M  V30 22671 C 2208.38 0.0985962 -1.9425 0
M  V30 22672 O 2207.63 1.07038 -1.63834 0
M  V30 22673 C 2207.93 -2.19773 -2.81842 0
M  V30 22674 C 2207.6 -3.6815 -2.60338 0
M  V30 22675 C 2206.26 -4.08589 -2.54182 0
M  V30 22676 C 2208.61 -4.62179 -2.40915 0
M  V30 22677 C 2205.94 -5.41181 -2.26584 0
M  V30 22678 C 2208.29 -5.95001 -2.14842 0
M  V30 22679 C 2206.96 -6.34551 -2.07126 0
M  V30 22680 H 2206.23 -0.482608 -0.562291 0
M  V30 22681 H 2208.87 -1.69191 -0.897039 0
M  V30 22682 H 2207.18 -1.75442 -3.50325 0
M  V30 22683 H 2208.88 -2.13103 -3.39688 0
M  V30 22684 H 2205.47 -3.36076 -2.6599 0
M  V30 22685 H 2209.65 -4.31802 -2.44665 0
M  V30 22686 H 2204.91 -5.70793 -2.19101 0
M  V30 22687 H 2209.08 -6.67418 -1.9881 0
M  V30 22688 H 2206.71 -7.37219 -1.85505 0
M  V30 22689 N 2208.28 1.00373 -1.21503 0
M  V30 22690 C 2209.51 1.77742 -1.05903 0
M  V30 22691 C 2209.92 1.84705 0.391093 0
M  V30 22692 O 2209.28 1.30935 1.27131 0
M  V30 22693 C 2209.33 3.21588 -1.65116 0
M  V30 22694 O 2209.05 3.15022 -3.04455 0
M  V30 22695 C 2210.55 4.15451 -1.54645 0
M  V30 22696 H 2207.77 0.558551 -0.371835 0
M  V30 22697 H 2210.32 1.26262 -1.60867 0
M  V30 22698 H 2208.47 3.70173 -1.14241 0
M  V30 22699 H 2208.89 4.05404 -3.32788 0
M  V30 22700 H 2210.36 5.14176 -2.00817 0
M  V30 22701 H 2210.84 4.36332 -0.501099 0
M  V30 22702 H 2211.44 3.72757 -2.04773 0
M  V30 22703 N 2209.76 1.02298 1.19887 0
M  V30 22704 C 2211.01 0.717066 1.897 0
M  V30 22705 C 2211.34 -0.751958 1.79051 0
M  V30 22706 O 2210.61 -1.54698 1.17894 0
M  V30 22707 C 2210.9 1.16142 3.40856 0
M  V30 22708 C 2210.75 2.69123 3.60407 0
M  V30 22709 C 2212.07 0.737625 4.33875 0
M  V30 22710 H 2209.19 0.261969 0.68887 0
M  V30 22711 H 2211.83 1.27186 1.41152 0
M  V30 22712 H 2209.98 0.689409 3.82334 0
M  V30 22713 H 2211.65 3.24226 3.28139 0
M  V30 22714 H 2209.89 3.09795 3.0366 0
M  V30 22715 H 2210.57 2.95269 4.66391 0
M  V30 22716 H 2213.04 1.14351 4.00079 0
M  V30 22717 H 2211.92 1.0765 5.3824 0
M  V30 22718 H 2212.18 -0.360359 4.40629 0
M  V30 22719 N 2211.24 -1.35782 0.800057 0
M  V30 22720 C 2212.65 -1.81461 0.439174 0
M  V30 22721 C 2213 -1.66487 -1.0381 0
M  V30 22722 O 2212.12 -1.1918 -1.80624 0
M  V30 22723 C 2212.72 -3.29452 0.790372 0
M  V30 22724 C 2211.28 -3.73299 0.482177 0
M  V30 22725 C 2210.43 -2.57882 1.01943 0
M  V30 22726 H 2213.38 -1.23853 0.992276 0
M  V30 22727 H 2213.4 -3.80404 0.0854346 0
M  V30 22728 H 2212.91 -3.40319 1.8656 0
M  V30 22729 H 2211.01 -3.67986 -0.584587 0
M  V30 22730 H 2211.12 -4.68328 1.01023 0
M  V30 22731 H 2209.49 -2.50834 0.442087 0
M  V30 22732 H 2210.27 -2.71529 2.10064 0
M  V30 22733 N 2212.72 -0.552988 -1.4758 0
M  V30 22734 C 2213.96 -0.0273058 -2.02082 0
M  V30 22735 C 2214.28 1.32561 -1.43013 0
M  V30 22736 O 2213.55 1.86363 -0.603778 0
M  V30 22737 H 2212.13 -0.00710495 -0.746966 0
M  V30 22738 H 2214.8 -0.72204 -1.81032 0
M  V30 22739 H 2213.89 0.0639403 -3.12034 0
M  V30 22740 N 2214.19 1.54923 -0.28923 0
M  V30 22741 C 2215.42 2.0477 0.329263 0
M  V30 22742 C 2215.84 1.16566 1.47628 0
M  V30 22743 O 2215.2 0.167218 1.80527 0
M  V30 22744 C 2215.25 3.52187 0.774376 0
M  V30 22745 O 2214.35 3.6704 1.88031 0
M  V30 22746 H 2213.69 0.66072 0.0659143 0
M  V30 22747 H 2216.22 2.00081 -0.427645 0
M  V30 22748 H 2216.23 3.93818 1.06635 0
M  V30 22749 H 2214.91 4.1585 -0.0647438 0
M  V30 22750 H 2213.49 3.37313 1.58979 0
M  V30 22751 N 2215.67 0.0167433 1.57591 0
M  V30 22752 C 2216.62 -0.969215 2.09463 0
M  V30 22753 C 2217.59 -1.33087 0.993833 0
M  V30 22754 O 2218.77 -1.42634 1.26729 0
M  V30 22755 C 2215.91 -2.25046 2.61626 0
M  V30 22756 C 2215.03 -1.94636 3.8567 0
M  V30 22757 C 2214.16 -3.16964 4.26271 0
M  V30 22758 C 2213.2 -2.82316 5.43106 0
M  V30 22759 N 2212.34 -3.97232 5.78922 0
M  V30 22760 H 2217.18 -0.519945 2.93429 0
M  V30 22761 H 2214.71 -0.245062 1.45044 0
M  V30 22762 H 2216.67 -2.99971 2.89954 0
M  V30 22763 H 2215.3 -2.67612 1.8051 0
M  V30 22764 H 2214.35 -1.10006 3.64147 0
M  V30 22765 H 2215.67 -1.65109 4.70681 0
M  V30 22766 H 2214.82 -4.0022 4.5597 0
M  V30 22767 H 2213.56 -3.49642 3.40002 0
M  V30 22768 H 2212.56 -1.9747 5.13114 0
M  V30 22769 H 2213.79 -2.50868 6.31064 0
M  V30 22770 H 2211.74 -4.29776 4.95609 0
M  V30 22771 H 2211.65 -3.71287 6.58545 0
M  V30 22772 H 2212.92 -4.81228 6.13221 0
M  V30 22773 N 2217.15 -1.55503 -0.256249 0
M  V30 22774 C 2218.38 -1.81278 -1.00762 0
M  V30 22775 C 2218.8 -0.592551 -1.78523 0
M  V30 22776 O 2218.16 0.458239 -1.75413 0
M  V30 22777 C 2218.21 -3.0469 -1.92864 0
M  V30 22778 O 2217.31 -2.8095 -3.01896 0
M  V30 22779 H 2216.65 -0.598669 -0.287213 0
M  V30 22780 H 2219.18 -2.02674 -0.280074 0
M  V30 22781 H 2219.19 -3.33873 -2.34505 0
M  V30 22782 H 2217.87 -3.93145 -1.35682 0
M  V30 22783 H 2216.44 -2.62909 -2.64449 0
M  V30 22784 N 2218.63 0.521507 -1.48721 0
M  V30 22785 C 2219.86 1.3014 -1.60846 0
M  V30 22786 C 2220.27 1.86831 -0.271929 0
M  V30 22787 O 2219.63 1.66827 0.739939 0
M  V30 22788 C 2219.68 2.44625 -2.6616 0
M  V30 22789 O 2219.4 1.90268 -3.94626 0
M  V30 22790 C 2220.9 3.36317 -2.88801 0
M  V30 22791 H 2218.12 0.395459 -0.542082 0
M  V30 22792 H 2220.67 0.628251 -1.94611 0
M  V30 22793 H 2218.82 3.07808 -2.3523 0
M  V30 22794 H 2219.23 2.65271 -4.52472 0
M  V30 22795 H 2220.71 4.12976 -3.66271 0
M  V30 22796 H 2221.19 3.92066 -1.97941 0
M  V30 22797 H 2221.79 2.78919 -3.21068 0
M  V30 22798 N 2220.11 1.37452 0.771027 0
M  V30 22799 C 2221.07 1.33097 1.86596 0
M  V30 22800 C 2222.07 0.234873 1.59075 0
M  V30 22801 O 2223.26 0.490762 1.67144 0
M  V30 22802 C 2220.39 1.06779 3.23745 0
M  V30 22803 H 2221.58 2.30492 1.91869 0
M  V30 22804 H 2219.14 1.22491 0.970855 0
M  V30 22805 H 2219.87 0.099186 3.24148 0
M  V30 22806 H 2219.66 1.86118 3.45112 0
M  V30 22807 H 2221.15 1.06384 4.03822 0
M  V30 22808 N 2221.58 -0.997276 1.22033 0
M  V30 22809 C 2222.81 -1.77178 1.06844 0
M  V30 22810 C 2223.23 -1.8491 -0.381292 0
M  V30 22811 O 2222.58 -1.31607 -1.26435 0
M  V30 22812 C 2222.64 -3.20708 1.6682 0
M  V30 22813 O 2222.36 -3.13403 3.06121 0
M  V30 22814 C 2223.86 -4.14625 1.56846 0
M  V30 22815 H 2221.08 -0.556572 0.374792 0
M  V30 22816 H 2223.62 -1.25407 1.61535 0
M  V30 22817 H 2221.78 -3.69561 1.16203 0
M  V30 22818 H 2222.19 -4.03634 3.34933 0
M  V30 22819 H 2223.66 -5.13103 2.03541 0
M  V30 22820 H 2224.14 -4.3606 0.524231 0
M  V30 22821 H 2224.75 -3.71666 2.06747 0
M  V30 22822 N 2223.06 -1.02932 -1.19343 0
M  V30 22823 C 2224.31 -0.721289 -1.88362 0
M  V30 22824 C 2224.62 0.753223 -1.80516 0
M  V30 22825 O 2225.83 1.17432 -2.4479 0
M  V30 22826 C 2224.29 -1.23984 -3.3787 0
M  V30 22827 C 2223.89 -2.74217 -3.54273 0
M  V30 22828 C 2225.64 -1.00782 -4.12363 0
M  V30 22829 C 2223.55 -3.19488 -4.97676 0
M  V30 22830 H 2222.48 -0.26611 -0.70548 0
M  V30 22831 H 2225.13 -1.24368 -1.34926 0
M  V30 22832 H 2223.51 -0.645369 -3.90706 0
M  V30 22833 H 2224.68 -3.39323 -3.11763 0
M  V30 22834 H 2223 -2.95704 -2.93169 0
M  V30 22835 H 2225.59 -1.32133 -5.18117 0
M  V30 22836 H 2225.94 0.0553576 -4.16263 0
M  V30 22837 H 2226.47 -1.56632 -3.65666 0
M  V30 22838 H 2223.21 -4.25137 -4.98938 0
M  V30 22839 H 2222.73 -2.5911 -5.40946 0
M  V30 22840 H 2224.41 -3.12855 -5.66331 0
M  V30 22841 N 2224.54 1.35356 -0.807246 0
M  V30 22842 C 2225.77 2.03519 -0.399345 0
M  V30 22843 C 2226.19 1.60434 0.981958 0
M  V30 22844 O 2225.55 0.781328 1.636 0
M  V30 22845 C 2225.6 3.57233 -0.491615 0
M  V30 22846 O 2224.7 4.09422 0.494682 0
M  V30 22847 H 2224.04 0.642736 -0.166693 0
M  V30 22848 H 2226.57 1.72939 -1.09331 0
M  V30 22849 H 2226.58 4.06394 -0.361659 0
M  V30 22850 H 2225.26 3.87941 -1.49914 0
M  V30 22851 H 2223.83 3.71482 0.324911 0
M  V30 22852 N 2226.02 0.560807 1.47284 0
M  V30 22853 C 2227.27 0.0380223 2.02064 0
M  V30 22854 C 2227.59 -1.31801 1.43714 0
M  V30 22855 O 2226.86 -1.86041 0.613652 0
M  V30 22856 H 2225.44 0.0110662 0.746918 0
M  V30 22857 H 2228.1 0.73163 1.80647 0
M  V30 22858 H 2227.2 -0.0473914 3.12064 0
M  V30 22859 N 2227.5 -1.54768 0.297442 0
M  V30 22860 C 2228.43 -2.26349 -0.573454 0
M  V30 22861 C 2229.41 -1.26171 -1.14083 0
M  V30 22862 O 2230.59 -1.54936 -1.17083 0
M  V30 22863 C 2227.72 -3.00156 -1.74711 0
M  V30 22864 C 2226.68 -4.07451 -1.31025 0
M  V30 22865 C 2226 -4.68954 -2.56878 0
M  V30 22866 C 2227.3 -5.20409 -0.444092 0
M  V30 22867 H 2229 -2.99391 0.0235657 0
M  V30 22868 H 2226.54 -1.43994 0.0127742 0
M  V30 22869 H 2228.5 -3.48951 -2.36243 0
M  V30 22870 H 2227.22 -2.24686 -2.37031 0
M  V30 22871 H 2225.88 -3.595 -0.718003 0
M  V30 22872 H 2225.53 -3.90128 -3.17505 0
M  V30 22873 H 2225.23 -5.41415 -2.28351 0
M  V30 22874 H 2226.75 -5.2051 -3.1922 0
M  V30 22875 H 2228.16 -5.6512 -0.965 0
M  V30 22876 H 2226.56 -5.99568 -0.252741 0
M  V30 22877 H 2227.63 -4.81976 0.531693 0
M  V30 22878 N 2228.97 -0.0251005 -1.5758 0
M  V30 22879 C 2229.92 0.958093 -2.09974 0
M  V30 22880 C 2230.89 1.32558 -1.00088 0
M  V30 22881 O 2232.08 1.4196 -1.27484 0
M  V30 22882 C 2229.22 2.23656 -2.62816 0
M  V30 22883 C 2228.33 1.92587 -3.86696 0
M  V30 22884 C 2227.46 3.14699 -4.27946 0
M  V30 22885 C 2226.5 2.79432 -5.44595 0
M  V30 22886 N 2225.64 3.94157 -5.81021 0
M  V30 22887 H 2230.48 0.504377 -2.93701 0
M  V30 22888 H 2228.02 0.237366 -1.45172 0
M  V30 22889 H 2229.98 2.98429 -2.91541 0
M  V30 22890 H 2228.61 2.66651 -1.81926 0
M  V30 22891 H 2227.66 1.08073 -3.64725 0
M  V30 22892 H 2228.97 1.6261 -4.7155 0
M  V30 22893 H 2228.12 3.97796 -4.58086 0
M  V30 22894 H 2226.86 3.47834 -3.41852 0
M  V30 22895 H 2225.87 1.94746 -5.14154 0
M  V30 22896 H 2227.09 2.47517 -6.32386 0
M  V30 22897 H 2225.04 4.27141 -4.97882 0
M  V30 22898 H 2224.96 3.6779 -6.60505 0
M  V30 22899 H 2226.22 4.77969 -6.15764 0
M  V30 22900 N 2230.45 1.55637 0.247999 0
M  V30 22901 C 2231.86 1.67868 0.817148 0
M  V30 22902 C 2232.21 0.622355 1.86068 0
M  V30 22903 O 2231.34 -0.23158 2.15157 0
M  V30 22904 C 2231.93 3.04328 1.48895 0
M  V30 22905 C 2230.49 3.18503 2.00581 0
M  V30 22906 C 2229.64 2.6374 0.856527 0
M  V30 22907 H 2232.59 1.58682 0.02383 0
M  V30 22908 H 2232.61 2.98712 2.35693 0
M  V30 22909 H 2232.12 3.81188 0.729212 0
M  V30 22910 H 2230.23 2.46465 2.79439 0
M  V30 22911 H 2230.34 4.25397 2.20395 0
M  V30 22912 H 2228.7 2.21536 1.25674 0
M  V30 22913 H 2229.49 3.43124 0.109893 0
M  V30 22914 N 2231.93 -0.513613 1.48996 0
M  V30 22915 C 2233.18 -1.26601 1.57533 0
M  V30 22916 C 2233.5 -1.93282 0.25827 0
M  V30 22917 O 2232.77 -1.82131 -0.72147 0
M  V30 22918 H 2231.35 -0.470266 0.580396 0
M  V30 22919 H 2234.01 -0.596341 1.85553 0
M  V30 22920 H 2233.11 -2.03664 2.36489 0
M  V30 22921 N 2233.41 -1.37859 -0.763727 0
M  V30 22922 C 2234.66 -1.33707 -1.52481 0
M  V30 22923 C 2234.99 0.075927 -1.94052 0
M  V30 22924 O 2234.26 1.03498 -1.64677 0
M  V30 22925 C 2234.55 -2.28353 -2.78437 0
M  V30 22926 C 2234.4 -3.78468 -2.43069 0
M  V30 22927 C 2235.72 -2.21304 -3.80411 0
M  V30 22928 H 2232.84 -0.487014 -0.55316 0
M  V30 22929 H 2235.48 -1.68625 -0.875532 0
M  V30 22930 H 2233.63 -1.98705 -3.33839 0
M  V30 22931 H 2235.3 -4.18746 -1.93519 0
M  V30 22932 H 2233.54 -3.96644 -1.75659 0
M  V30 22933 H 2234.22 -4.40138 -3.33141 0
M  V30 22934 H 2236.69 -2.47455 -3.34523 0
M  V30 22935 H 2235.57 -2.89656 -4.66252 0
M  V30 22936 H 2235.83 -1.20856 -4.2526 0
M  V30 22937 N 2234.89 0.990791 -1.22561 0
M  V30 22938 C 2236.16 1.70426 -0.959905 0
M  V30 22939 C 2236.54 2.04482 0.524419 0
M  V30 22940 O 2235.89 1.7298 1.49299 0
M  V30 22941 C 2236.1 2.9533 -1.8596 0
M  V30 22942 C 2237.45 3.68064 -2.11693 0
M  V30 22943 O 2238.47 3.05342 -1.83425 0
M  V30 22944 O 2237.33 4.80916 -2.5958 0
M  V30 22945 H 2234.43 0.743967 -0.361167 0
M  V30 22946 H 2236.97 1.04695 -1.33556 0
M  V30 22947 H 2235.75 2.66682 -2.86351 0
M  V30 22948 H 2235.37 3.68801 -1.48566 0
M  V30 22949 N 2236.37 1.03564 1.18795 0
M  V30 22950 C 2237.6 0.754807 1.92318 0
M  V30 22951 C 2238 -0.691217 1.76122 0
M  V30 22952 O 2237.35 -1.48239 1.08493 0
M  V30 22953 C 2237.41 1.0349 3.44282 0
M  V30 22954 C 2237.07 2.47383 3.84253 0
M  V30 22955 C 2238.07 3.45544 3.88453 0
M  V30 22956 C 2235.75 2.81962 4.15696 0
M  V30 22957 C 2237.75 4.76336 4.23536 0
M  V30 22958 C 2235.44 4.12961 4.50451 0
M  V30 22959 C 2236.43 5.09959 4.54347 0
M  V30 22960 O 2236.12 6.38611 4.88294 0
M  V30 22961 H 2235.85 0.275032 0.617522 0
M  V30 22962 H 2238.41 1.385 1.51681 0
M  V30 22963 H 2236.64 0.347581 3.85135 0
M  V30 22964 H 2238.33 0.74267 3.99048 0
M  V30 22965 H 2239.09 3.20168 3.64304 0
M  V30 22966 H 2234.97 2.07137 4.11844 0
M  V30 22967 H 2238.52 5.52042 4.26492 0
M  V30 22968 H 2234.41 4.38108 4.74059 0
M  V30 22969 H 2235.18 6.43186 5.06216 0
M  V30 22970 N 2237.84 -1.34926 0.814413 0
M  V30 22971 C 2239.07 -2.02773 0.411172 0
M  V30 22972 C 2239.49 -1.61356 -0.980288 0
M  V30 22973 O 2238.84 -0.814876 -1.63297 0
M  V30 22974 C 2238.89 -3.5811 0.493928 0
M  V30 22975 O 2238.62 -3.98024 1.83054 0
M  V30 22976 C 2240.12 -4.43219 0.0844953 0
M  V30 22977 H 2237.34 -0.65013 0.166048 0
M  V30 22978 H 2239.88 -1.72382 1.10021 0
M  V30 22979 H 2238.04 -3.87121 -0.146938 0
M  V30 22980 H 2238.45 -4.9269 1.7988 0
M  V30 22981 H 2239.92 -5.51661 0.193501 0
M  V30 22982 H 2240.4 -4.28331 -0.971054 0
M  V30 22983 H 2241.01 -4.19519 0.698824 0
M  V30 22984 N 2239.32 -0.56861 -1.46985 0
M  V30 22985 C 2240.57 -0.0466248 -2.01646 0
M  V30 22986 C 2240.88 1.31584 -1.44723 0
M  V30 22987 O 2242.09 1.92838 -1.91117 0
M  V30 22988 C 2240.55 -0.0328152 -3.59885 0
M  V30 22989 C 2240.15 -1.39274 -4.25801 0
M  V30 22990 C 2241.9 0.435964 -4.22255 0
M  V30 22991 C 2239.8 -1.33742 -5.76079 0
M  V30 22992 H 2238.73 -0.0136602 -0.753876 0
M  V30 22993 H 2241.39 -0.718161 -1.68863 0
M  V30 22994 H 2239.77 0.704601 -3.89681 0
M  V30 22995 H 2240.94 -2.14877 -4.07633 0
M  V30 22996 H 2239.26 -1.80038 -3.75467 0
M  V30 22997 H 2241.85 0.495926 -5.32395 0
M  V30 22998 H 2242.2 1.45046 -3.90214 0
M  V30 22999 H 2242.73 -0.246947 -3.97033 0
M  V30 23000 H 2239.47 -2.32827 -6.12757 0
M  V30 23001 H 2238.99 -0.623372 -5.96552 0
M  V30 23002 H 2240.67 -1.04431 -6.38516 0
M  V30 23003 N 2240.8 1.54608 -0.305646 0
M  V30 23004 C 2242.03 2.04643 0.304739 0
M  V30 23005 C 2242.44 1.18271 1.47165 0
M  V30 23006 O 2241.8 0.209359 1.81295 0
M  V30 23007 C 2241.85 3.53496 0.756502 0
M  V30 23008 O 2241.57 4.36585 -0.363967 0
M  V30 23009 C 2243.07 4.19549 1.43156 0
M  V30 23010 H 2240.29 0.667792 0.0655364 0
M  V30 23011 H 2242.84 1.99563 -0.446627 0
M  V30 23012 H 2240.99 3.58921 1.45788 0
M  V30 23013 H 2241.41 5.24499 -0.0114043 0
M  V30 23014 H 2242.88 5.2521 1.69877 0
M  V30 23015 H 2243.36 3.69567 2.37312 0
M  V30 23016 H 2243.96 4.18212 0.773233 0
M  V30 23017 N 2242.28 0.033457 1.57564 0
M  V30 23018 C 2243.52 -0.645193 1.92263 0
M  V30 23019 C 2243.86 -1.71529 0.910573 0
M  V30 23020 O 2243.13 -1.94388 -0.0660648 0
M  V30 23021 C 2243.41 -1.25765 3.37425 0
M  V30 23022 C 2243.27 -0.196812 4.49369 0
M  V30 23023 C 2244.59 -2.17442 3.82632 0
M  V30 23024 H 2241.71 -0.233073 0.699175 0
M  V30 23025 H 2244.35 0.0916027 1.89779 0
M  V30 23026 H 2242.5 -1.8856 3.39672 0
M  V30 23027 H 2244.17 0.434043 4.59253 0
M  V30 23028 H 2242.41 0.477213 4.31167 0
M  V30 23029 H 2243.08 -0.665027 5.47979 0
M  V30 23030 H 2245.56 -1.64628 3.82148 0
M  V30 23031 H 2244.44 -2.57246 4.84888 0
M  V30 23032 H 2244.7 -3.06734 3.18381 0
M  V30 23033 N 2243.76 -1.55766 -0.239741 0
M  V30 23034 C 2244.99 -1.81732 -0.982711 0
M  V30 23035 C 2245.39 -0.607866 -1.79169 0
M  V30 23036 O 2244.74 0.432941 -1.78525 0
M  V30 23037 C 2244.8 -3.01158 -1.96326 0
M  V30 23038 C 2244.46 -4.36896 -1.34054 0
M  V30 23039 C 2245.46 -5.14615 -0.739449 0
M  V30 23040 C 2243.14 -4.83601 -1.35776 0
M  V30 23041 C 2245.14 -6.37189 -0.163877 0
M  V30 23042 C 2242.83 -6.06123 -0.778334 0
M  V30 23043 C 2243.82 -6.82756 -0.182428 0
M  V30 23044 O 2243.51 -8.02963 0.388028 0
M  V30 23045 H 2243.24 -0.608492 -0.294471 0
M  V30 23046 H 2245.8 -2.03674 -0.265684 0
M  V30 23047 H 2244.03 -2.74988 -2.71879 0
M  V30 23048 H 2245.72 -3.14154 -2.57026 0
M  V30 23049 H 2246.48 -4.79647 -0.718603 0
M  V30 23050 H 2242.36 -4.2394 -1.81097 0
M  V30 23051 H 2245.91 -6.96947 0.301876 0
M  V30 23052 H 2241.8 -6.40567 -0.796532 0
M  V30 23053 H 2242.57 -8.18019 0.280584 0
M  V30 23054 N 2245.23 0.505704 -1.49266 0
M  V30 23055 C 2246.2 1.59003 -1.65078 0
M  V30 23056 C 2247.2 1.52064 -0.522794 0
M  V30 23057 O 2248.39 1.553 -0.789145 0
M  V30 23058 C 2245.52 2.98653 -1.64375 0
M  V30 23059 H 2246.71 1.46314 -2.61786 0
M  V30 23060 H 2244.26 0.729592 -1.38227 0
M  V30 23061 H 2245 3.16824 -0.692328 0
M  V30 23062 H 2244.78 3.05098 -2.46287 0
M  V30 23063 H 2246.27 3.77443 -1.7868 0
M  V30 23064 N 2246.71 1.38262 0.756405 0
M  V30 23065 C 2247.96 1.34514 1.51769 0
M  V30 23066 C 2248.29 -0.065635 1.94089 0
M  V30 23067 O 2247.57 -1.02623 1.65223 0
M  V30 23068 C 2247.85 2.29826 2.77222 0
M  V30 23069 C 2247.7 3.79751 2.41058 0
M  V30 23070 C 2249.02 2.23319 3.79232 0
M  V30 23071 H 2246.14 0.489941 0.55057 0
M  V30 23072 H 2248.78 1.69087 0.866577 0
M  V30 23073 H 2246.93 2.00473 3.3278 0
M  V30 23074 H 2248.6 4.19766 1.91296 0
M  V30 23075 H 2246.85 3.9757 1.73553 0
M  V30 23076 H 2247.52 4.41898 3.30802 0
M  V30 23077 H 2249.99 2.49225 3.33206 0
M  V30 23078 H 2248.87 2.92124 4.64709 0
M  V30 23079 H 2249.13 1.2311 4.24613 0
M  V30 23080 N 2248.19 -0.984277 1.23084 0
M  V30 23081 C 2249.42 -1.76035 1.08717 0
M  V30 23082 C 2249.83 -1.85304 -0.361659 0
M  V30 23083 O 2249.19 -1.32941 -1.25032 0
M  V30 23084 C 2249.24 -3.1892 1.70212 0
M  V30 23085 O 2248.96 -3.10138 3.09428 0
M  V30 23086 C 2250.46 -4.12939 1.61235 0
M  V30 23087 H 2247.68 -0.552565 0.380674 0
M  V30 23088 H 2250.23 -1.23686 1.62856 0
M  V30 23089 H 2248.38 -3.68308 1.20116 0
M  V30 23090 H 2248.8 -4.00059 3.39195 0
M  V30 23091 H 2250.27 -5.10916 2.08971 0
M  V30 23092 H 2250.75 -4.3548 0.570452 0
M  V30 23093 H 2251.35 -3.69452 2.10678 0
M  V30 23094 N 2249.67 -1.04192 -1.18244 0
M  V30 23095 C 2250.92 -0.744576 -1.87884 0
M  V30 23096 C 2251.24 0.729975 -1.80821 0
M  V30 23097 O 2250.51 1.52682 -1.22739 0
M  V30 23098 H 2249.09 -0.27243 -0.695551 0
M  V30 23099 H 2251.75 -1.31894 -1.43492 0
M  V30 23100 H 2250.85 -1.05054 -2.93888 0
M  V30 23101 N 2251.15 1.34492 -0.821557 0
M  V30 23102 C 2252.56 1.51328 -0.507143 0
M  V30 23103 C 2252.76 1.76675 0.968932 0
M  V30 23104 O 2251.82 1.81688 1.75345 0
M  V30 23105 C 2253.13 2.67908 -1.36549 0
M  V30 23106 C 2254.68 2.8179 -1.36247 0
M  V30 23107 C 2255.15 4.01412 -2.20527 0
M  V30 23108 N 2256.65 4.08617 -2.18143 0
M  V30 23109 C 2257.38 5.0033 -2.80103 0
M  V30 23110 N 2256.88 5.97274 -3.51049 0
M  V30 23111 N 2258.67 4.93191 -2.69665 0
M  V30 23112 H 2250.82 1.16299 -1.77731 0
M  V30 23113 H 2253.08 0.570263 -0.757301 0
M  V30 23114 H 2252.79 2.55804 -2.41365 0
M  V30 23115 H 2252.66 3.62887 -1.02923 0
M  V30 23116 H 2255.05 2.93337 -0.322093 0
M  V30 23117 H 2255.13 1.87625 -1.73869 0
M  V30 23118 H 2254.78 3.90626 -3.24614 0
M  V30 23119 H 2254.71 4.94788 -1.80256 0
M  V30 23120 H 2257.2 3.39226 -1.66536 0
M  V30 23121 H 2257.51 6.63882 -3.95576 0
M  V30 23122 H 2255.85 5.97402 -3.55155 0
M  V30 23123 H 2259.05 4.16414 -2.13816 0
M  V30 23124 H 2259.22 5.64471 -3.1824 0
M  V30 23125 N 2252.62 0.576397 1.46681 0
M  V30 23126 C 2253.87 0.0594518 2.02013 0
M  V30 23127 C 2254.19 -1.30269 1.45104 0
M  V30 23128 O 2253.46 -1.85379 0.63335 0
M  V30 23129 H 2252.04 0.0189876 0.746759 0
M  V30 23130 H 2254.71 0.750749 1.7986 0
M  V30 23131 H 2253.8 -0.0142902 3.12097 0
M  V30 23132 N 2254.1 -1.54444 0.313841 0
M  V30 23133 C 2255.38 -1.92526 -0.345413 0
M  V30 23134 C 2255.76 -1.24245 -1.70665 0
M  V30 23135 O 2255.11 -0.382694 -2.25273 0
M  V30 23136 C 2255.32 -3.46122 -0.447309 0
M  V30 23137 C 2256.67 -4.18585 -0.712164 0
M  V30 23138 O 2257.69 -3.52226 -0.530616 0
M  V30 23139 O 2256.55 -5.36087 -1.06173 0
M  V30 23140 H 2253.64 -0.803586 -0.195393 0
M  V30 23141 H 2256.19 -1.65776 0.362842 0
M  V30 23142 H 2254.96 -3.87974 0.509111 0
M  V30 23143 H 2254.58 -3.78947 -1.20353 0
M  V30 23144 N 2255.58 -0.0418125 -1.57545 0
M  V30 23145 C 2256.81 0.64742 -1.97036 0
M  V30 23146 C 2257.23 1.64133 -0.918803 0
M  V30 23147 O 2256.59 1.80909 0.118974 0
M  V30 23148 C 2256.64 1.31899 -3.35612 0
M  V30 23149 O 2255.74 2.43452 -3.32874 0
M  V30 23150 H 2255.08 0.169075 -0.642113 0
M  V30 23151 H 2257.61 -0.107435 -2.04318 0
M  V30 23152 H 2257.62 1.67284 -3.72129 0
M  V30 23153 H 2256.3 0.590514 -4.11686 0
M  V30 23154 H 2254.87 2.10083 -3.0809 0
M  V30 23155 N 2257.06 1.55891 0.231477 0
M  V30 23156 C 2258.47 1.68725 0.799297 0
M  V30 23157 C 2258.82 0.642055 1.85397 0
M  V30 23158 O 2257.95 -0.208746 2.15391 0
M  V30 23159 C 2258.54 3.05891 1.45659 0
M  V30 23160 C 2257.1 3.20613 1.97192 0
M  V30 23161 C 2256.25 2.64634 0.828506 0
M  V30 23162 H 2259.2 1.58698 0.00699826 0
M  V30 23163 H 2259.22 3.01195 2.32512 0
M  V30 23164 H 2258.73 3.8194 0.688741 0
M  V30 23165 H 2256.83 2.49414 2.76809 0
M  V30 23166 H 2256.94 4.27711 2.15871 0
M  V30 23167 H 2255.31 2.22856 1.23317 0
M  V30 23168 H 2256.09 3.43221 0.0734941 0
M  V30 23169 N 2258.54 -0.497781 1.49532 0
M  V30 23170 C 2259.5 -1.58125 1.65919 0
M  V30 23171 C 2260.5 -1.51785 0.530851 0
M  V30 23172 O 2261.69 -1.54879 0.79737 0
M  V30 23173 C 2258.82 -2.97777 1.65956 0
M  V30 23174 H 2260.01 -1.44924 2.62559 0
M  V30 23175 H 2257.57 -0.722251 1.38612 0
M  V30 23176 H 2258.3 -3.16452 0.70912 0
M  V30 23177 H 2258.09 -3.03788 2.47902 0
M  V30 23178 H 2259.58 -3.7649 1.80679 0
M  V30 23179 N 2260.01 -1.38661 -0.749062 0
M  V30 23180 C 2261.24 -1.3854 -1.54342 0
M  V30 23181 C 2261.66 0.0216325 -1.88088 0
M  V30 23182 O 2261.02 1.00491 -1.50901 0
M  V30 23183 C 2261.07 -2.25197 -2.81636 0
M  V30 23184 O 2260.17 -1.67218 -3.76977 0
M  V30 23185 H 2259.52 -0.472375 -0.466646 0
M  V30 23186 H 2262.05 -1.8248 -0.925323 0
M  V30 23187 H 2262.06 -2.39215 -3.30515 0
M  V30 23188 H 2260.73 -3.27459 -2.56405 0
M  V30 23189 H 2259.31 -1.62366 -3.35696 0
M  V30 23190 N 2261.49 0.977736 -1.23605 0
M  V30 23191 C 2262.72 1.75989 -1.09738 0
M  V30 23192 C 2263.14 1.84875 0.346825 0
M  V30 23193 O 2262.5 1.31232 1.25091 0
M  V30 23194 C 2262.55 3.1636 -1.73057 0
M  V30 23195 O 2261.65 4.00229 -0.994522 0
M  V30 23196 H 2260.99 0.541357 -0.384485 0
M  V30 23197 H 2263.52 1.22717 -1.63712 0
M  V30 23198 H 2263.53 3.66928 -1.78404 0
M  V30 23199 H 2262.21 3.09208 -2.78142 0
M  V30 23200 H 2260.79 3.5873 -1.01818 0
M  V30 23201 N 2262.97 1.04818 1.1769 0
M  V30 23202 C 2263.92 0.645836 2.2158 0
M  V30 23203 C 2264.89 -0.35013 1.62368 0
M  V30 23204 O 2266.07 -0.2424 1.89254 0
M  V30 23205 C 2263.21 0.0228174 3.45092 0
M  V30 23206 C 2262.33 1.06716 4.18612 0
M  V30 23207 C 2261.46 0.411861 5.29601 0
M  V30 23208 C 2260.5 1.44077 5.94902 0
M  V30 23209 N 2259.64 0.809904 6.97413 0
M  V30 23210 H 2264.48 1.53624 2.5535 0
M  V30 23211 H 2262.01 0.768386 1.25436 0
M  V30 23212 H 2263.97 -0.355807 4.1568 0
M  V30 23213 H 2262.6 -0.831067 3.11918 0
M  V30 23214 H 2261.65 1.56366 3.46777 0
M  V30 23215 H 2262.97 1.84835 4.6329 0
M  V30 23216 H 2262.12 -0.0205557 6.06697 0
M  V30 23217 H 2260.86 -0.401352 4.86046 0
M  V30 23218 H 2259.86 1.88325 5.1654 0
M  V30 23219 H 2261.09 2.25582 6.40538 0
M  V30 23220 H 2259.04 0.0171339 6.55998 0
M  V30 23221 H 2258.95 1.52869 7.40383 0
M  V30 23222 H 2260.22 0.402136 7.78462 0
M  V30 23223 N 2264.45 -1.34055 0.828678 0
M  V30 23224 C 2265.86 -1.80489 0.477566 0
M  V30 23225 C 2266.21 -1.68651 -1.00256 0
M  V30 23226 O 2265.34 -1.22985 -1.78055 0
M  V30 23227 C 2265.93 -3.27701 0.860075 0
M  V30 23228 C 2264.49 -3.72192 0.56125 0
M  V30 23229 C 2263.64 -2.55661 1.0739 0
M  V30 23230 H 2266.59 -1.2172 1.01832 0
M  V30 23231 H 2266.61 -3.80137 0.166105 0
M  V30 23232 H 2266.12 -3.36285 1.93737 0
M  V30 23233 H 2264.22 -3.69143 -0.5064 0
M  V30 23234 H 2264.34 -4.6608 1.10934 0
M  V30 23235 H 2262.7 -2.4984 0.495193 0
M  V30 23236 H 2263.48 -2.67012 2.15776 0
M  V30 23237 N 2265.93 -0.584167 -1.46374 0
M  V30 23238 C 2267.18 -0.0680095 -2.01585 0
M  V30 23239 C 2267.49 1.30042 -1.46111 0
M  V30 23240 O 2268.7 1.908 -1.93151 0
M  V30 23241 C 2267.15 -0.070984 -3.5983 0
M  V30 23242 C 2266.76 -1.43782 -4.243 0
M  V30 23243 C 2268.5 0.391154 -4.22694 0
M  V30 23244 C 2266.41 -1.39845 -5.74628 0
M  V30 23245 H 2265.34 -0.0216553 -0.753689 0
M  V30 23246 H 2267.99 -0.736031 -1.68092 0
M  V30 23247 H 2266.37 0.66323 -3.90407 0
M  V30 23248 H 2267.55 -2.19188 -4.05331 0
M  V30 23249 H 2265.86 -1.8401 -3.73536 0
M  V30 23250 H 2268.46 0.439431 -5.32891 0
M  V30 23251 H 2268.8 1.40899 -3.91731 0
M  V30 23252 H 2269.34 -0.289043 -3.96749 0
M  V30 23253 H 2266.07 -2.39313 -6.10253 0
M  V30 23254 H 2265.59 -0.686609 -5.95857 0
M  V30 23255 H 2267.27 -1.11198 -6.37373 0
M  V30 23256 N 2267.41 1.54275 -0.322027 0
M  V30 23257 C 2268.63 2.05422 0.285755 0
M  V30 23258 C 2269.06 1.19671 1.45122 0
M  V30 23259 O 2268.41 0.205473 1.80132 0
M  V30 23260 C 2268.46 3.5375 0.699497 0
M  V30 23261 O 2267.57 3.70945 1.80203 0
M  V30 23262 H 2266.91 0.66197 0.0518846 0
M  V30 23263 H 2269.44 1.99129 -0.469989 0
M  V30 23264 H 2269.45 3.95992 0.982579 0
M  V30 23265 H 2268.12 4.15619 -0.152937 0
M  V30 23266 H 2266.7 3.40609 1.51788 0
M  V30 23267 N 2268.88 0.0501669 1.5752 0
M  V30 23268 C 2270.13 -0.623294 1.91828 0
M  V30 23269 C 2270.45 -1.72063 0.930252 0
M  V30 23270 O 2271.65 -2.45218 1.16534 0
M  V30 23271 C 2270.11 -1.15997 3.40694 0
M  V30 23272 C 2269.72 -0.0948023 4.479 0
M  V30 23273 C 2271.46 -1.80874 3.84038 0
M  V30 23274 C 2269.37 -0.644307 5.8788 0
M  V30 23275 H 2268.3 -0.236584 0.715922 0
M  V30 23276 H 2270.95 0.118893 1.83114 0
M  V30 23277 H 2269.33 -1.95444 3.44409 0
M  V30 23278 H 2270.5 0.678755 4.55774 0
M  V30 23279 H 2268.82 0.456443 4.13891 0
M  V30 23280 H 2271.42 -2.2298 4.85988 0
M  V30 23281 H 2271.76 -2.66005 3.2023 0
M  V30 23282 H 2272.29 -1.08084 3.82835 0
M  V30 23283 H 2269.03 0.169344 6.55281 0
M  V30 23284 H 2268.55 -1.38587 5.8357 0
M  V30 23285 H 2270.23 -1.12752 6.371 0
M  V30 23286 N 2270.36 -1.56011 -0.223207 0
M  V30 23287 C 2271.31 -1.93133 -1.29623 0
M  V30 23288 C 2272.3 -0.813172 -1.48606 0
M  V30 23289 O 2273.51 -0.997992 -1.498 0
M  V30 23290 H 2269.88 -0.613733 -0.434552 0
M  V30 23291 H 2271.86 -2.82673 -0.955946 0
M  V30 23292 C 2270.6 -2.26297 -2.63979 0
M  V30 23293 H 2269.93 -3.1185 -2.50179 0
M  V30 23294 H 2271.37 -2.56157 -3.37875 0
M  V30 23295 C 2269.83 -1.08752 -3.18864 0
M  V30 23296 O 2270.36 -0.347797 -4.00192 0
M  V30 23297 N 2268.56 -0.871792 -2.77215 0
M  V30 23298 H 2268.11 -1.47505 -2.11187 0
M  V30 23299 H 2268.07 -0.0870457 -3.14279 0
M  V30 23300 N 2271.84 0.489844 -1.49794 0
M  V30 23301 C 2273.07 1.26515 -1.63333 0
M  V30 23302 C 2273.48 1.86669 -0.308425 0
M  V30 23303 O 2272.82 1.69109 0.717482 0
M  V30 23304 C 2272.88 2.42685 -2.65225 0
M  V30 23305 C 2272.55 2.03314 -4.09283 0
M  V30 23306 C 2273.54 1.56643 -4.95741 0
M  V30 23307 C 2271.23 2.12608 -4.55086 0
M  V30 23308 C 2273.22 1.19784 -6.26044 0
M  V30 23309 C 2270.91 1.7536 -5.85399 0
M  V30 23310 C 2271.91 1.29024 -6.70702 0
M  V30 23311 O 2271.6 0.922849 -7.98585 0
M  V30 23312 H 2271.33 0.389499 -0.552509 0
M  V30 23313 H 2273.88 0.593347 -1.96643 0
M  V30 23314 H 2272.11 3.12977 -2.27117 0
M  V30 23315 H 2273.8 3.0469 -2.68177 0
M  V30 23316 H 2274.57 1.489 -4.61577 0
M  V30 23317 H 2270.45 2.47624 -3.88848 0
M  V30 23318 H 2273.99 0.83546 -6.92579 0
M  V30 23319 H 2269.89 1.82757 -6.19088 0
M  V30 23320 H 2270.65 1.05335 -8.11694 0
M  V30 23321 N 2273.32 1.39056 0.741698 0
M  V30 23322 C 2274.73 1.20514 1.04636 0
M  V30 23323 C 2274.93 0.0620572 2.01404 0
M  V30 23324 O 2273.99 -0.588414 2.45548 0
M  V30 23325 C 2275.3 2.53646 1.61506 0
M  V30 23326 C 2276.85 2.60433 1.73619 0
M  V30 23327 C 2277.33 3.93771 2.33899 0
M  V30 23328 N 2278.82 3.95374 2.41316 0
M  V30 23329 C 2279.55 4.95314 2.8888 0
M  V30 23330 N 2279.05 6.05651 3.3639 0
M  V30 23331 N 2280.84 4.82697 2.88028 0
M  V30 23332 H 2272.99 2.12166 0.0997782 0
M  V30 23333 H 2275.25 0.941955 0.10689 0
M  V30 23334 H 2274.96 3.37809 0.97868 0
M  V30 23335 H 2274.83 2.72889 2.60406 0
M  V30 23336 H 2277.22 1.76659 2.3638 0
M  V30 23337 H 2277.3 2.45046 0.733902 0
M  V30 23338 H 2276.95 4.77973 1.71767 0
M  V30 23339 H 2276.88 4.06475 3.34792 0
M  V30 23340 H 2279.37 3.15686 2.07728 0
M  V30 23341 H 2279.68 6.77827 3.71174 0
M  V30 23342 H 2278.03 6.09254 3.34416 0
M  V30 23343 H 2281.22 3.95604 2.5023 0
M  V30 23344 H 2281.39 5.60732 3.24783 0
M  V30 23345 N 2274.8 -0.971167 1.24121 0
M  V30 23346 C 2276.02 -1.74872 1.10578 0
M  V30 23347 C 2276.44 -1.85677 -0.341984 0
M  V30 23348 O 2275.8 -1.3426 -1.23615 0
M  V30 23349 C 2275.85 -3.17097 1.73585 0
M  V30 23350 O 2275.57 -3.06839 3.127 0
M  V30 23351 C 2277.07 -4.11205 1.65605 0
M  V30 23352 H 2274.29 -0.548496 0.386513 0
M  V30 23353 H 2276.83 -1.21952 1.64158 0
M  V30 23354 H 2274.99 -3.67014 1.24015 0
M  V30 23355 H 2275.4 -3.96439 3.43419 0
M  V30 23356 H 2276.88 -5.08671 2.14379 0
M  V30 23357 H 2277.35 -4.3485 0.616608 0
M  V30 23358 H 2277.96 -3.67197 2.14584 0
M  V30 23359 N 2276.27 -1.05441 -1.17133 0
M  V30 23360 C 2277.18 -0.668405 -2.24877 0
M  V30 23361 C 2278.2 0.311657 -1.71186 0
M  V30 23362 O 2279.38 0.163126 -2.00738 0
M  V30 23363 C 2276.44 -0.0517089 -3.46661 0
M  V30 23364 C 2275.5 -1.08254 -4.15427 0
M  V30 23365 C 2274.74 -0.495175 -5.31398 0
M  V30 23366 O 2274.96 0.694643 -5.66154 0
M  V30 23367 O 2273.89 -1.23066 -5.89184 0
M  V30 23368 H 2277.72 -1.56642 -2.60187 0
M  V30 23369 H 2275.3 -0.826125 -1.24481 0
M  V30 23370 H 2277.19 0.290892 -4.20395 0
M  V30 23371 H 2275.86 0.819916 -3.13144 0
M  V30 23372 H 2274.77 -1.47717 -3.43701 0
M  V30 23373 H 2276.1 -1.9254 -4.52978 0
M  V30 23374 N 2277.75 1.33613 -0.835776 0
M  V30 23375 C 2279 1.97143 -0.426324 0
M  V30 23376 C 2279.31 1.66955 1.01909 0
M  V30 23377 O 2280.52 2.24074 1.53307 0
M  V30 23378 C 2278.98 3.52799 -0.711383 0
M  V30 23379 C 2278.58 3.91867 -2.17127 0
M  V30 23380 C 2280.33 4.22896 -0.368729 0
M  V30 23381 C 2278.24 5.40489 -2.40054 0
M  V30 23382 H 2277.17 0.737753 -0.155683 0
M  V30 23383 H 2279.82 1.52276 -1.02393 0
M  V30 23384 H 2278.2 3.95976 -0.0434462 0
M  V30 23385 H 2279.37 3.59758 -2.87942 0
M  V30 23386 H 2277.69 3.34744 -2.4766 0
M  V30 23387 H 2280.28 5.32188 -0.517694 0
M  V30 23388 H 2280.63 4.10575 0.688006 0
M  V30 23389 H 2281.16 3.85239 -0.99177 0
M  V30 23390 H 2277.9 5.57809 -3.44281 0
M  V30 23391 H 2277.42 5.74069 -1.73795 0
M  V30 23392 H 2279.1 6.07336 -2.23053 0
M  V30 23393 N 2279.23 0.591922 1.46062 0
M  V30 23394 C 2280.51 0.0137463 1.95595 0
M  V30 23395 C 2280.89 -1.44967 1.53453 0
M  V30 23396 O 2280.24 -2.14425 0.78958 0
M  V30 23397 C 2280.45 0.195435 3.48452 0
M  V30 23398 C 2281.79 0.0680511 4.24545 0
M  V30 23399 O 2282.82 0.124744 3.55982 0
M  V30 23400 O 2281.68 -0.0599619 5.46467 0
M  V30 23401 H 2278.77 -0.0446133 0.825796 0
M  V30 23402 H 2281.32 0.660886 1.56302 0
M  V30 23403 H 2280.09 1.21242 3.72043 0
M  V30 23404 H 2279.71 -0.487706 3.94598 0
M  V30 23405 N 2280.71 -1.54102 0.330204 0
M  V30 23406 C 2281.66 -2.24568 -0.532722 0
M  V30 23407 C 2282.63 -1.23893 -1.10633 0
M  V30 23408 O 2283.81 -1.52593 -1.14543 0
M  V30 23409 C 2280.95 -3.01198 -1.68445 0
M  V30 23410 C 2280.06 -4.16702 -1.13943 0
M  V30 23411 C 2279.2 -4.80849 -2.25738 0
M  V30 23412 C 2278.24 -5.88445 -1.68519 0
M  V30 23413 N 2277.37 -6.46426 -2.74003 0
M  V30 23414 H 2282.21 -2.97906 0.0747429 0
M  V30 23415 H 2279.75 -1.4702 0.0486579 0
M  V30 23416 H 2281.71 -3.43878 -2.36228 0
M  V30 23417 H 2280.34 -2.30182 -2.2631 0
M  V30 23418 H 2279.39 -3.78759 -0.352944 0
M  V30 23419 H 2280.7 -4.94132 -0.680805 0
M  V30 23420 H 2279.86 -5.26531 -3.01413 0
M  V30 23421 H 2278.6 -4.02814 -2.7494 0
M  V30 23422 H 2277.6 -5.42159 -0.913448 0
M  V30 23423 H 2278.83 -6.6838 -1.20186 0
M  V30 23424 H 2276.77 -5.71262 -3.22484 0
M  V30 23425 H 2276.69 -7.19289 -2.32723 0
M  V30 23426 H 2277.96 -6.96763 -3.49487 0
M  V30 23427 N 2282.19 -0.0585199 -1.57491 0
M  V30 23428 C 2283.6 0.476106 -1.80527 0
M  V30 23429 C 2283.95 1.70467 -0.971364 0
M  V30 23430 O 2283.07 2.15564 -0.19005 0
M  V30 23431 C 2283.67 0.870529 -3.27425 0
M  V30 23432 C 2282.23 1.35009 -3.51354 0
M  V30 23433 C 2281.37 0.328822 -2.75344 0
M  V30 23434 H 2284.33 -0.284339 -1.56132 0
M  V30 23435 H 2284.35 1.73293 -3.38748 0
M  V30 23436 H 2283.86 -0.0238309 -3.88093 0
M  V30 23437 H 2281.96 2.2634 -2.95975 0
M  V30 23438 H 2282.07 1.33718 -4.60061 0
M  V30 23439 H 2280.44 0.803279 -2.41701 0
M  V30 23440 H 2281.22 -0.55758 -3.38742 0
M  V30 23441 N 2283.66 1.56128 0.21493 0
M  V30 23442 C 2284.89 1.83886 0.959207 0
M  V30 23443 C 2285.31 0.639675 1.76889 0
M  V30 23444 O 2284.67 -0.41157 1.76567 0
M  V30 23445 C 2284.72 3.09696 1.84718 0
M  V30 23446 O 2283.82 2.88855 2.94341 0
M  V30 23447 H 2283.17 0.606073 0.27124 0
M  V30 23448 H 2285.7 2.03345 0.22624 0
M  V30 23449 H 2285.71 3.39973 2.2557 0
M  V30 23450 H 2284.38 3.96605 1.25211 0
M  V30 23451 H 2282.96 2.69828 2.57386 0
M  V30 23452 N 2285.14 -0.481893 1.50052 0
M  V30 23453 C 2286.07 -1.59841 1.64266 0
M  V30 23454 C 2287.09 -1.54118 0.524537 0
M  V30 23455 O 2288.28 -1.59703 0.797321 0
M  V30 23456 C 2285.38 -2.98695 1.60108 0
M  V30 23457 C 2284.55 -3.29402 2.87773 0
M  V30 23458 C 2283.61 -4.47758 2.76405 0
M  V30 23459 O 2282.63 -4.48597 3.50356 0
M  V30 23460 N 2283.84 -5.48791 1.89232 0
M  V30 23461 H 2286.6 -1.48068 2.60568 0
M  V30 23462 H 2284.16 -0.670123 1.4738 0
M  V30 23463 H 2286.15 -3.75823 1.5013 0
M  V30 23464 H 2284.72 -3.04293 0.715851 0
M  V30 23465 H 2283.94 -2.40988 3.11959 0
M  V30 23466 H 2285.23 -3.46724 3.72371 0
M  V30 23467 H 2284.63 -5.50925 1.28443 0
M  V30 23468 H 2283.19 -6.24946 1.85165 0
M  V30 23469 N 2286.62 -1.39448 -0.734313 0
M  V30 23470 C 2287.55 -1.32612 -1.85713 0
M  V30 23471 C 2288.53 -0.199665 -1.61369 0
M  V30 23472 O 2289.72 -0.380228 -1.84625 0
M  V30 23473 C 2286.84 -1.05934 -3.21707 0
M  V30 23474 C 2285.89 -2.20779 -3.64909 0
M  V30 23475 S 2286.72 -3.83063 -3.74197 0
M  V30 23476 C 2287.88 -3.58612 -5.1298 0
M  V30 23477 H 2288.11 -2.27638 -1.91228 0
M  V30 23478 H 2285.64 -1.25511 -0.899241 0
M  V30 23479 H 2287.6 -0.912273 -4.00235 0
M  V30 23480 H 2286.26 -0.125938 -3.13847 0
M  V30 23481 H 2285.46 -1.97708 -4.63603 0
M  V30 23482 H 2285.06 -2.31693 -2.93589 0
M  V30 23483 H 2287.35 -3.1592 -5.99334 0
M  V30 23484 H 2288.29 -4.56769 -5.4108 0
M  V30 23485 H 2288.7 -2.92698 -4.82688 0
M  V30 23486 N 2288.1 0.964571 -1.24635 0
M  V30 23487 C 2289.03 2.06266 -0.999339 0
M  V30 23488 C 2290.04 1.62768 0.032294 0
M  V30 23489 O 2291.23 1.77318 -0.20511 0
M  V30 23490 C 2288.33 3.35384 -0.486875 0
M  V30 23491 C 2287.51 4.07774 -1.58237 0
M  V30 23492 C 2286.56 5.15165 -1.07201 0
M  V30 23493 O 2285.59 5.41165 -1.76435 0
M  V30 23494 N 2286.79 5.80427 0.0919352 0
M  V30 23495 H 2289.56 2.28029 -1.94481 0
M  V30 23496 H 2287.12 1.13242 -1.15706 0
M  V30 23497 H 2289.11 4.04491 -0.130138 0
M  V30 23498 H 2287.68 3.10469 0.364405 0
M  V30 23499 H 2286.9 3.32903 -2.11115 0
M  V30 23500 H 2288.19 4.52899 -2.31862 0
M  V30 23501 H 2287.59 5.6171 0.670685 0
M  V30 23502 H 2286.14 6.50633 0.389791 0
M  V30 23503 N 2289.58 1.0606 1.16572 0
M  V30 23504 C 2290.82 0.777055 1.87322 0
M  V30 23505 C 2291.16 -0.694613 1.81353 0
M  V30 23506 O 2290.43 -1.50869 1.22756 0
M  V30 23507 C 2290.71 1.26928 3.36989 0
M  V30 23508 C 2290.57 2.80453 3.51662 0
M  V30 23509 C 2291.89 0.875286 4.31308 0
M  V30 23510 H 2289 0.283752 0.680187 0
M  V30 23511 H 2291.65 1.31612 1.37034 0
M  V30 23512 H 2289.8 0.810697 3.79947 0
M  V30 23513 H 2291.47 3.34501 3.17658 0
M  V30 23514 H 2289.71 3.19299 2.9365 0
M  V30 23515 H 2290.38 3.09958 4.56761 0
M  V30 23516 H 2292.86 1.27021 3.96238 0
M  V30 23517 H 2291.73 1.24719 5.34543 0
M  V30 23518 H 2292 -0.219994 4.41552 0
M  V30 23519 N 2291.06 -1.33168 0.84285 0
M  V30 23520 C 2292.28 -2.01855 0.454091 0
M  V30 23521 C 2292.7 -1.63399 -0.945841 0
M  V30 23522 O 2292.06 -0.84933 -1.61532 0
M  V30 23523 C 2292.11 -3.56981 0.569777 0
M  V30 23524 O 2291.83 -3.94051 1.91455 0
M  V30 23525 C 2293.33 -4.42941 0.17849 0
M  V30 23526 H 2290.55 -0.646462 0.179801 0
M  V30 23527 H 2293.09 -1.7001 1.13653 0
M  V30 23528 H 2291.25 -3.87346 -0.0647906 0
M  V30 23529 H 2291.66 -4.88764 1.9029 0
M  V30 23530 H 2293.14 -5.51126 0.310473 0
M  V30 23531 H 2293.61 -4.30294 -0.879981 0
M  V30 23532 H 2294.22 -4.17943 0.787653 0
M  V30 23533 N 2292.53 -0.599659 -1.45746 0
M  V30 23534 C 2293.81 -0.024119 -1.95585 0
M  V30 23535 C 2294.19 1.44152 -1.54219 0
M  V30 23536 O 2293.54 2.14003 -0.800941 0
M  V30 23537 C 2293.75 -0.213911 -3.48344 0
M  V30 23538 C 2295.1 -0.0905648 -4.24503 0
M  V30 23539 O 2296.12 -0.14362 -3.5591 0
M  V30 23540 O 2294.98 0.0309806 -5.46491 0
M  V30 23541 H 2292.07 0.0402333 -0.826021 0
M  V30 23542 H 2294.62 -0.669166 -1.5595 0
M  V30 23543 H 2293.39 -1.23213 -3.71395 0
M  V30 23544 H 2293.01 0.466773 -3.94851 0
M  V30 23545 N 2294.01 1.53925 -0.338371 0
M  V30 23546 C 2295.26 2.01125 0.260108 0
M  V30 23547 C 2295.59 1.22592 1.50615 0
M  V30 23548 O 2294.87 0.312147 1.91979 0
M  V30 23549 C 2295.15 3.55408 0.579437 0
M  V30 23550 C 2295 4.44656 -0.678342 0
M  V30 23551 C 2296.32 4.17535 1.39114 0
M  V30 23552 H 2293.44 0.731101 0.0930644 0
M  V30 23553 H 2296.08 1.844 -0.457884 0
M  V30 23554 H 2294.23 3.6979 1.19112 0
M  V30 23555 H 2295.9 4.42119 -1.31639 0
M  V30 23556 H 2294.15 4.13728 -1.30427 0
M  V30 23557 H 2294.82 5.50473 -0.41024 0
M  V30 23558 H 2297.29 4.06818 0.873963 0
M  V30 23559 H 2296.17 5.25568 1.58333 0
M  V30 23560 H 2296.43 3.71819 2.39171 0
M  V30 23561 N 2295.49 0.0668712 1.57458 0
M  V30 23562 C 2296.42 -0.931565 2.09415 0
M  V30 23563 C 2297.43 -1.26462 1.02524 0
M  V30 23564 O 2298.62 -1.22266 1.30051 0
M  V30 23565 C 2295.72 -2.24878 2.53541 0
M  V30 23566 C 2294.9 -2.0953 3.83948 0
M  V30 23567 C 2293.96 -3.24513 4.1422 0
M  V30 23568 O 2292.98 -2.99721 4.83896 0
M  V30 23569 N 2294.18 -4.49462 3.67375 0
M  V30 23570 H 2296.95 -0.487996 2.957 0
M  V30 23571 H 2294.51 -0.11898 1.61462 0
M  V30 23572 H 2296.5 -3.00696 2.70858 0
M  V30 23573 H 2295.07 -2.6075 1.72419 0
M  V30 23574 H 2294.29 -1.18209 3.76059 0
M  V30 23575 H 2295.58 -1.96521 4.69315 0
M  V30 23576 H 2294.98 -4.72491 3.11076 0
M  V30 23577 H 2293.53 -5.22323 3.899 0
M  V30 23578 N 2296.97 -1.56239 -0.206647 0
M  V30 23579 C 2298.24 -1.70757 -0.954021 0
M  V30 23580 C 2298.62 -0.618388 -2.01839 0
M  V30 23581 O 2297.97 0.372394 -2.25445 0
M  V30 23582 C 2298.18 -3.12645 -1.55094 0
M  V30 23583 C 2299.53 -3.7252 -2.0375 0
M  V30 23584 O 2300.55 -3.15701 -1.64959 0
M  V30 23585 O 2299.41 -4.72213 -2.75094 0
M  V30 23586 H 2296.51 -0.696029 -0.446624 0
M  V30 23587 H 2299.05 -1.6855 -0.197254 0
M  V30 23588 H 2297.83 -3.83383 -0.783145 0
M  V30 23589 H 2297.45 -3.19032 -2.37285 0
M  V30 23590 N 2298.45 0.473929 -1.50305 0
M  V30 23591 C 2299.39 1.59304 -1.69485 0
M  V30 23592 C 2300.39 1.59852 -0.560697 0
M  V30 23593 O 2301.59 1.64035 -0.741116 0
M  V30 23594 H 2297.97 0.528569 -0.534901 0
M  V30 23595 H 2299.94 1.40288 -2.63366 0
M  V30 23596 C 2298.69 2.97264 -1.80359 0
M  V30 23597 H 2298.01 2.9756 -2.67017 0
M  V30 23598 H 2299.45 3.75032 -1.97805 0
M  V30 23599 C 2297.91 3.32305 -0.554538 0
M  V30 23600 O 2298.44 4.00521 0.307591 0
M  V30 23601 N 2296.65 2.87702 -0.409404 0
M  V30 23602 H 2296.19 2.32362 -1.112 0
M  V30 23603 H 2296.15 3.11512 0.425168 0
M  V30 23604 N 2299.92 1.39835 0.726907 0
M  V30 23605 C 2301.15 1.40978 1.52118 0
M  V30 23606 C 2301.57 0.00829336 1.88098 0
M  V30 23607 O 2300.93 -0.98078 1.52481 0
M  V30 23608 C 2300.98 2.29649 2.78017 0
M  V30 23609 O 2300.08 1.73194 3.74269 0
M  V30 23610 H 2299.42 0.479739 0.459071 0
M  V30 23611 H 2301.95 1.83929 0.896175 0
M  V30 23612 H 2301.96 2.44443 3.26667 0
M  V30 23613 H 2300.64 3.31497 2.51163 0
M  V30 23614 H 2299.22 1.67686 3.3307 0
M  V30 23615 N 2301.4 -0.957948 1.25144 0
M  V30 23616 C 2302.65 -1.69652 1.09093 0
M  V30 23617 C 2302.96 -1.92097 -0.368514 0
M  V30 23618 O 2304.17 -2.63619 -0.649409 0
M  V30 23619 C 2302.63 -3.05411 1.904 0
M  V30 23620 C 2302.23 -2.90773 3.40815 0
M  V30 23621 C 2303.98 -3.83073 1.82908 0
M  V30 23622 C 2301.88 -4.21902 4.14431 0
M  V30 23623 H 2300.81 -0.636228 0.404636 0
M  V30 23624 H 2303.47 -1.06669 1.49311 0
M  V30 23625 H 2301.85 -3.69278 1.43002 0
M  V30 23626 H 2303.02 -2.35858 3.95863 0
M  V30 23627 H 2301.34 -2.26568 3.49365 0
M  V30 23628 H 2303.93 -4.80191 2.35204 0
M  V30 23629 H 2304.28 -4.08613 0.796296 0
M  V30 23630 H 2304.81 -3.2595 2.28038 0
M  V30 23631 H 2301.55 -4.01552 5.18109 0
M  V30 23632 H 2301.07 -4.76595 3.64167 0
M  V30 23633 H 2302.75 -4.90464 4.21965 0
M  V30 23634 N 2302.88 -1.06677 -1.16008 0
M  V30 23635 C 2304.1 -0.80674 -1.91067 0
M  V30 23636 C 2304.53 0.633454 -1.77113 0
M  V30 23637 O 2303.89 1.44185 -1.0991 0
M  V30 23638 C 2303.94 -1.21112 -3.39653 0
M  V30 23639 O 2303.04 -0.352262 -4.10893 0
M  V30 23640 H 2302.38 -0.294497 -0.59512 0
M  V30 23641 H 2304.91 -1.42359 -1.46953 0
M  V30 23642 H 2304.92 -1.18435 -3.90432 0
M  V30 23643 H 2303.6 -2.26014 -3.49128 0
M  V30 23644 H 2302.17 -0.440933 -3.70284 0
M  V30 23645 N 2304.36 1.32719 -0.8499 0
M  V30 23646 C 2305.6 1.97707 -0.451625 0
M  V30 23647 C 2305.94 1.67121 0.989145 0
M  V30 23648 O 2305.21 0.956921 1.69332 0
M  V30 23649 C 2305.49 3.53512 -0.68566 0
M  V30 23650 C 2305.35 3.93745 -2.1745 0
M  V30 23651 C 2306.67 4.39881 -0.138952 0
M  V30 23652 H 2303.79 0.718163 -0.165563 0
M  V30 23653 H 2306.43 1.5718 -1.06745 0
M  V30 23654 H 2304.58 3.88164 -0.161484 0
M  V30 23655 H 2306.25 3.69295 -2.76439 0
M  V30 23656 H 2304.49 3.43076 -2.65483 0
M  V30 23657 H 2305.16 5.02305 -2.28897 0
M  V30 23658 H 2307.64 4.11937 -0.58714 0
M  V30 23659 H 2306.52 5.47893 -0.332309 0
M  V30 23660 H 2306.78 4.31596 0.957984 0
M  V30 23661 N 2305.84 0.60738 1.45426 0
M  V30 23662 C 2306.78 -0.111584 2.3053 0
M  V30 23663 C 2307.75 -0.860191 1.42091 0
M  V30 23664 O 2308.94 -0.845968 1.71021 0
M  V30 23665 C 2306.08 -1.10313 3.26994 0
M  V30 23666 C 2305.19 -0.355417 4.30535 0
M  V30 23667 C 2304.33 -1.33667 5.14108 0
M  V30 23668 C 2303.37 -0.576755 6.09377 0
M  V30 23669 N 2302.5 -1.50728 6.8573 0
M  V30 23670 H 2307.34 0.620145 2.91476 0
M  V30 23671 H 2304.88 0.317619 1.4363 0
M  V30 23672 H 2306.84 -1.69114 3.81388 0
M  V30 23673 H 2305.47 -1.80227 2.67802 0
M  V30 23674 H 2304.52 0.348089 3.78804 0
M  V30 23675 H 2305.83 0.23751 4.98234 0
M  V30 23676 H 2304.99 -1.99674 5.72901 0
M  V30 23677 H 2303.72 -1.96353 4.46427 0
M  V30 23678 H 2302.73 0.0969486 5.49715 0
M  V30 23679 H 2303.95 0.0450534 6.79085 0
M  V30 23680 H 2301.9 -2.12179 6.20738 0
M  V30 23681 H 2301.82 -0.967781 7.4978 0
M  V30 23682 H 2303.09 -2.15693 7.49064 0
M  V30 23683 N 2307.31 -1.53743 0.34653 0
M  V30 23684 C 2308.56 -2.01954 -0.2421 0
M  V30 23685 C 2308.92 -1.22986 -1.4796 0
M  V30 23686 O 2308.21 -0.309957 -1.89076 0
M  V30 23687 C 2308.4 -3.52229 -0.605747 0
M  V30 23688 C 2308.23 -4.45747 0.59496 0
M  V30 23689 C 2307 -4.93155 1.10119 0
M  V30 23690 C 2309.2 -4.93309 1.45434 0
M  V30 23691 N 2307.18 -5.70632 2.26391 0
M  V30 23692 C 2308.55 -5.68938 2.46393 0
M  V30 23693 C 2310.61 -4.75413 1.47943 0
M  V30 23694 C 2309.31 -6.28574 3.49695 0
M  V30 23695 C 2311.34 -5.35901 2.50128 0
M  V30 23696 C 2310.7 -6.114 3.49813 0
M  V30 23697 H 2306.8 -0.780281 -0.0518159 0
M  V30 23698 H 2309.38 -1.88517 0.48677 0
M  V30 23699 H 2307.55 -3.65866 -1.30372 0
M  V30 23700 H 2309.28 -3.87181 -1.17782 0
M  V30 23701 H 2306.04 -4.68854 0.668804 0
M  V30 23702 H 2306.46 -6.14039 2.85105 0
M  V30 23703 H 2311.11 -4.16584 0.722347 0
M  V30 23704 H 2308.82 -6.8651 4.26297 0
M  V30 23705 H 2312.41 -5.23958 2.52901 0
M  V30 23706 H 2311.29 -6.57373 4.27587 0
M  V30 23707 N 2308.79 -0.0752207 -1.5742 0
M  V30 23708 C 2309.72 0.888286 -2.15944 0
M  V30 23709 C 2310.7 1.30804 -1.08739 0
M  V30 23710 O 2311.89 1.37848 -1.3679 0
M  V30 23711 C 2309.02 2.15465 -2.72382 0
M  V30 23712 C 2307.97 1.87418 -3.84784 0
M  V30 23713 C 2307.3 3.20714 -4.2784 0
M  V30 23714 C 2308.6 1.17675 -5.08871 0
M  V30 23715 H 2310.29 0.400747 -2.96706 0
M  V30 23716 H 2307.84 0.191317 -1.42723 0
M  V30 23717 H 2309.79 2.83289 -3.1197 0
M  V30 23718 H 2308.52 2.66467 -1.88846 0
M  V30 23719 H 2307.17 1.21998 -3.45705 0
M  V30 23720 H 2306.82 3.69564 -3.41221 0
M  V30 23721 H 2306.52 3.02738 -5.03611 0
M  V30 23722 H 2308.05 3.8973 -4.70046 0
M  V30 23723 H 2309.46 1.75574 -5.45753 0
M  V30 23724 H 2307.86 1.09946 -5.89942 0
M  V30 23725 H 2308.93 0.156368 -4.84648 0
M  V30 23726 N 2310.27 1.56347 0.198358 0
M  V30 23727 C 2311.68 1.70382 0.763328 0
M  V30 23728 C 2312.03 0.681236 1.83994 0
M  V30 23729 O 2311.16 -0.163012 2.15785 0
M  V30 23730 C 2311.75 3.08911 1.39137 0
M  V30 23731 C 2310.31 3.24723 1.90347 0
M  V30 23732 C 2309.46 2.66332 0.772187 0
M  V30 23733 H 2312.41 1.58678 -0.0266656 0
M  V30 23734 H 2312.43 3.06059 2.2607 0
M  V30 23735 H 2311.94 3.83315 0.607571 0
M  V30 23736 H 2310.04 2.5523 2.71456 0
M  V30 23737 H 2310.16 4.32194 2.0675 0
M  V30 23738 H 2308.52 2.25422 1.18562 0
M  V30 23739 H 2309.3 3.433 0.000675217 0
M  V30 23740 N 2311.75 -0.465951 1.50554 0
M  V30 23741 C 2312.97 -1.24546 1.6584 0
M  V30 23742 C 2313.4 -1.84937 0.343518 0
M  V30 23743 O 2312.76 -1.67524 -0.69321 0
M  V30 23744 C 2312.8 -2.32619 2.75537 0
M  V30 23745 O 2311.91 -3.37394 2.37147 0
M  V30 23746 H 2311.25 -0.366184 0.5539 0
M  V30 23747 H 2313.78 -0.553892 1.9696 0
M  V30 23748 H 2313.79 -2.77852 2.98768 0
M  V30 23749 H 2312.46 -1.88037 3.70965 0
M  V30 23750 H 2311.04 -2.97837 2.24382 0
M  V30 23751 N 2313.23 -1.40218 -0.719481 0
M  V30 23752 C 2314.45 -1.41783 -1.51368 0
M  V30 23753 C 2314.88 -0.0182685 -1.88091 0
M  V30 23754 O 2314.23 0.97268 -1.52999 0
M  V30 23755 C 2314.28 -2.3112 -2.76796 0
M  V30 23756 O 2313.39 -1.75177 -3.73345 0
M  V30 23757 H 2312.73 -0.482167 -0.456521 0
M  V30 23758 H 2315.26 -1.84402 -0.886408 0
M  V30 23759 H 2315.27 -2.46172 -3.25366 0
M  V30 23760 H 2313.94 -3.32824 -2.49401 0
M  V30 23761 H 2312.52 -1.6945 -3.32176 0
M  V30 23762 N 2314.7 0.951297 -1.25651 0
M  V30 23763 C 2315.93 1.73622 -1.13446 0
M  V30 23764 C 2316.35 1.85569 0.307532 0
M  V30 23765 O 2315.71 1.33856 1.22279 0
M  V30 23766 C 2315.76 3.12618 -1.79728 0
M  V30 23767 O 2314.86 3.98029 -1.07919 0
M  V30 23768 H 2314.21 0.533079 -0.395882 0
M  V30 23769 H 2316.74 1.19217 -1.66278 0
M  V30 23770 H 2316.75 3.63061 -1.86147 0
M  V30 23771 H 2315.42 3.03239 -2.84638 0
M  V30 23772 H 2314 3.5649 -1.09404 0
M  V30 23773 N 2316.18 1.07291 1.1544 0
M  V30 23774 C 2317.59 0.818505 1.67802 0
M  V30 23775 C 2317.94 -0.656475 1.84891 0
M  V30 23776 O 2317.07 -1.50826 1.55179 0
M  V30 23777 C 2317.66 1.47923 3.04802 0
M  V30 23778 C 2316.22 1.27235 3.54243 0
M  V30 23779 C 2315.37 1.54929 2.29983 0
M  V30 23780 H 2318.32 1.23503 0.996625 0
M  V30 23781 H 2318.34 0.900115 3.697 0
M  V30 23782 H 2317.85 2.55272 2.92332 0
M  V30 23783 H 2315.96 0.219055 3.71956 0
M  V30 23784 H 2316.07 1.99211 4.3572 0
M  V30 23785 H 2314.43 0.970283 2.35494 0
M  V30 23786 H 2315.22 2.63459 2.201 0
M  V30 23787 N 2317.66 -1.32267 0.856927 0
M  V30 23788 C 2318.91 -1.97465 0.462104 0
M  V30 23789 C 2319.24 -1.67644 -0.980269 0
M  V30 23790 O 2318.51 -0.965888 -1.68822 0
M  V30 23791 C 2318.8 -3.53143 0.704398 0
M  V30 23792 C 2318.65 -3.92587 2.19536 0
M  V30 23793 C 2319.97 -4.39801 0.162278 0
M  V30 23794 H 2317.09 -0.717275 0.169369 0
M  V30 23795 H 2319.73 -1.56612 1.07577 0
M  V30 23796 H 2317.88 -3.88073 0.182067 0
M  V30 23797 H 2319.55 -3.67824 2.78394 0
M  V30 23798 H 2317.8 -3.41664 2.67298 0
M  V30 23799 H 2318.47 -5.01084 2.31557 0
M  V30 23800 H 2320.94 -4.1162 0.608978 0
M  V30 23801 H 2319.82 -5.47709 0.361361 0
M  V30 23802 H 2320.08 -4.32098 -0.935082 0
M  V30 23803 N 2319.14 -0.615084 -1.45102 0
M  V30 23804 C 2320.37 -0.119806 -2.06553 0
M  V30 23805 C 2320.78 1.19896 -1.45844 0
M  V30 23806 O 2320.14 1.73193 -0.575355 0
M  V30 23807 C 2320.19 0.0183005 -3.61495 0
M  V30 23808 O 2319.91 -1.2483 -4.19939 0
M  V30 23809 C 2321.41 0.54416 -4.39947 0
M  V30 23810 H 2318.63 -0.0722856 -0.667095 0
M  V30 23811 H 2321.18 -0.844942 -1.86228 0
M  V30 23812 H 2319.33 0.693798 -3.81137 0
M  V30 23813 H 2319.74 -1.08279 -5.13202 0
M  V30 23814 H 2321.22 0.589856 -5.48839 0
M  V30 23815 H 2321.7 1.56798 -4.10257 0
M  V30 23816 H 2322.3 -0.0975451 -4.25188 0
M  V30 23817 N 2320.62 1.53557 -0.354678 0
M  V30 23818 C 2321.87 2.00694 0.237937 0
M  V30 23819 C 2322.19 1.24394 1.50171 0
M  V30 23820 O 2321.46 0.354169 1.92672 0
M  V30 23821 H 2320.04 0.741447 0.0909126 0
M  V30 23822 H 2322.7 1.88937 -0.478401 0
M  V30 23823 H 2321.79 3.08501 0.472586 0
M  V30 23824 N 2322.1 0.083568 1.57378 0
M  V30 23825 C 2323.33 -0.590678 1.97976 0
M  V30 23826 C 2323.73 -1.6297 0.961112 0
M  V30 23827 O 2323.08 -1.83605 -0.0590556 0
M  V30 23828 C 2323.14 -1.30654 3.34918 0
M  V30 23829 C 2322.8 -0.419618 4.55069 0
M  V30 23830 C 2323.8 0.327581 5.18867 0
M  V30 23831 C 2321.48 -0.341049 5.01141 0
M  V30 23832 C 2323.48 1.14145 6.27096 0
M  V30 23833 C 2321.17 0.476481 6.0924 0
M  V30 23834 C 2322.16 1.21639 6.72081 0
M  V30 23835 O 2321.85 2.02041 7.78097 0
M  V30 23836 H 2321.58 -0.163935 0.655821 0
M  V30 23837 H 2324.14 0.156057 2.04806 0
M  V30 23838 H 2322.37 -2.0996 3.24736 0
M  V30 23839 H 2324.06 -1.87418 3.60041 0
M  V30 23840 H 2324.82 0.276544 4.84211 0
M  V30 23841 H 2320.7 -0.9066 4.51998 0
M  V30 23842 H 2324.25 1.71947 6.76077 0
M  V30 23843 H 2320.14 0.52904 6.43328 0
M  V30 23844 H 2320.91 1.946 7.9503 0
M  V30 23845 N 2323.57 -1.5645 -0.190064 0
M  V30 23846 C 2324.99 -1.50147 -0.541104 0
M  V30 23847 C 2325.19 -0.784498 -1.85601 0
M  V30 23848 O 2324.25 -0.337095 -2.5024 0
M  V30 23849 C 2325.56 -2.94831 -0.591189 0
M  V30 23850 C 2327.11 -3.05531 -0.679678 0
M  V30 23851 C 2327.58 -4.51636 -0.760828 0
M  V30 23852 N 2329.07 -4.55808 -0.824222 0
M  V30 23853 C 2329.81 -5.66177 -0.907266 0
M  V30 23854 N 2329.3 -6.86224 -0.952301 0
M  V30 23855 N 2331.1 -5.54102 -0.944843 0
M  V30 23856 H 2323.25 -2.01476 0.672385 0
M  V30 23857 H 2325.51 -0.91708 0.240144 0
M  V30 23858 H 2325.22 -3.50367 0.305967 0
M  V30 23859 H 2325.09 -3.48459 -1.44416 0
M  V30 23860 H 2327.48 -2.50042 -1.56726 0
M  V30 23861 H 2327.56 -2.5502 0.199594 0
M  V30 23862 H 2327.2 -5.07752 0.122425 0
M  V30 23863 H 2327.13 -4.99885 -1.65597 0
M  V30 23864 H 2329.62 -3.69368 -0.798461 0
M  V30 23865 H 2329.94 -7.66088 -1.01632 0
M  V30 23866 H 2328.28 -6.88872 -0.920893 0
M  V30 23867 H 2331.47 -4.59238 -0.906532 0
M  V30 23868 H 2331.65 -6.40142 -1.0061 0
M  V30 23869 N 2325.05 0.45796 -1.50799 0
M  V30 23870 C 2326.3 1.21085 -1.62685 0
M  V30 23871 C 2326.63 1.91336 -0.332301 0
M  V30 23872 O 2325.91 1.82705 0.667011 0
M  V30 23873 C 2326.19 2.24417 -2.81619 0
M  V30 23874 C 2326.04 1.58384 -4.20992 0
M  V30 23875 C 2327.36 3.25605 -2.9609 0
M  V30 23876 H 2324.48 0.438853 -0.592095 0
M  V30 23877 H 2327.12 0.502828 -1.83226 0
M  V30 23878 H 2325.27 2.84801 -2.64236 0
M  V30 23879 H 2326.94 1.01496 -4.49996 0
M  V30 23880 H 2325.19 0.886629 -4.24643 0
M  V30 23881 H 2325.86 2.33538 -5.00164 0
M  V30 23882 H 2328.33 2.75256 -3.12047 0
M  V30 23883 H 2327.21 3.95221 -3.80909 0
M  V30 23884 H 2327.47 3.90503 -2.07267 0
M  V30 23885 N 2326.53 1.40598 0.712035 0
M  V30 23886 C 2327.76 1.4239 1.50109 0
M  V30 23887 C 2328.17 0.0245727 1.88784 0
M  V30 23888 O 2327.53 -0.952324 1.55683 0
M  V30 23889 C 2327.58 2.31781 2.77416 0
M  V30 23890 O 2327.3 3.66267 2.40375 0
M  V30 23891 C 2328.8 2.42203 3.71285 0
M  V30 23892 H 2326.02 0.485541 0.463132 0
M  V30 23893 H 2328.57 1.84691 0.878035 0
M  V30 23894 H 2326.72 1.92833 3.35997 0
M  V30 23895 H 2327.14 4.13778 3.22317 0
M  V30 23896 H 2328.61 3.08951 4.57442 0
M  V30 23897 H 2329.09 1.44817 4.14638 0
M  V30 23898 H 2329.69 2.81718 3.18614 0
M  V30 23899 N 2328.01 -0.94462 1.26153 0
M  V30 23900 C 2329.24 -1.72487 1.14262 0
M  V30 23901 C 2329.65 -1.86361 -0.302523 0
M  V30 23902 O 2329.01 -1.36852 -1.20739 0
M  V30 23903 C 2329.06 -3.13344 1.80272 0
M  V30 23904 O 2328.78 -3.00137 3.19138 0
M  V30 23905 C 2330.28 -4.076 1.7429 0
M  V30 23906 H 2327.5 -0.540174 0.398061 0
M  V30 23907 H 2330.04 -1.18443 1.66708 0
M  V30 23908 H 2328.2 -3.643 1.31772 0
M  V30 23909 H 2328.61 -3.89065 3.51751 0
M  V30 23910 H 2330.09 -5.04009 2.2512 0
M  V30 23911 H 2330.56 -4.33444 0.708708 0
M  V30 23912 H 2331.17 -3.62563 2.22325 0
M  V30 23913 N 2329.49 -1.07901 -1.1487 0
M  V30 23914 C 2330.71 -0.826863 -1.89659 0
M  V30 23915 C 2331.13 0.620488 -1.78313 0
M  V30 23916 O 2330.49 1.42602 -1.1389 0
M  V30 23917 C 2330.54 -1.23322 -3.39815 0
M  V30 23918 O 2330.26 -2.62379 -3.50841 0
M  V30 23919 C 2331.76 -1.01118 -4.31613 0
M  V30 23920 H 2328.98 -0.298567 -0.600915 0
M  V30 23921 H 2331.52 -1.43694 -1.45507 0
M  V30 23922 H 2329.68 -0.667353 -3.81609 0
M  V30 23923 H 2330.09 -2.79108 -4.44071 0
M  V30 23924 H 2331.57 -1.34495 -5.35364 0
M  V30 23925 H 2332.04 0.0521396 -4.39169 0
M  V30 23926 H 2332.65 -1.56222 -3.95569 0
M  V30 23927 N 2330.96 1.31811 -0.863929 0
M  V30 23928 C 2332.37 1.79159 -0.525252 0
M  V30 23929 C 2332.73 1.7125 0.957488 0
M  V30 23930 O 2331.85 1.27662 1.74732 0
M  V30 23931 C 2332.45 3.25306 -0.946657 0
M  V30 23932 C 2331 3.70573 -0.659733 0
M  V30 23933 C 2330.15 2.52724 -1.14131 0
M  V30 23934 H 2333.1 1.18978 -1.05024 0
M  V30 23935 H 2333.12 3.79563 -0.266833 0
M  V30 23936 H 2332.64 3.3103 -2.02585 0
M  V30 23937 H 2330.74 3.70356 0.40835 0
M  V30 23938 H 2330.85 4.62975 -1.23253 0
M  V30 23939 H 2329.21 2.48439 -0.561259 0
M  V30 23940 H 2330 2.61198 -2.2278 0
M  V30 23941 N 2332.44 0.62277 1.44773 0
M  V30 23942 C 2333.39 -0.0871274 2.30635 0
M  V30 23943 C 2334.36 -0.845072 1.42996 0
M  V30 23944 O 2335.54 -0.827782 1.71908 0
M  V30 23945 C 2332.68 -1.06839 3.28146 0
M  V30 23946 C 2331.8 -0.309733 4.30888 0
M  V30 23947 C 2330.93 -1.28206 5.15496 0
M  V30 23948 C 2329.97 -0.51209 6.09954 0
M  V30 23949 N 2329.11 -1.43446 6.8729 0
M  V30 23950 H 2333.95 0.651025 2.90802 0
M  V30 23951 H 2331.48 0.332835 1.43285 0
M  V30 23952 H 2333.44 -1.65059 3.8316 0
M  V30 23953 H 2332.07 -1.77377 2.69699 0
M  V30 23954 H 2331.12 0.388247 3.78414 0
M  V30 23955 H 2332.44 0.290341 4.97954 0
M  V30 23956 H 2331.59 -1.93586 5.74986 0
M  V30 23957 H 2330.33 -1.91607 4.48484 0
M  V30 23958 H 2329.33 0.155248 5.49581 0
M  V30 23959 H 2330.56 0.117077 6.78999 0
M  V30 23960 H 2328.51 -2.05583 6.22954 0
M  V30 23961 H 2328.42 -0.888203 7.50764 0
M  V30 23962 H 2329.69 -2.07736 7.51309 0
M  V30 23963 N 2333.92 -1.53367 0.362817 0
M  V30 23964 C 2334.87 -2.2716 -0.500115 0
M  V30 23965 C 2335.86 -1.30032 -1.08573 0
M  V30 23966 O 2337.07 -1.4767 -1.02925 0
M  V30 23967 H 2333.44 -0.730141 -0.179996 0
M  V30 23968 H 2335.41 -2.98052 0.144063 0
M  V30 23969 C 2334.16 -3.07162 -1.62931 0
M  V30 23970 H 2333.49 -3.81742 -1.18799 0
M  V30 23971 H 2334.93 -3.61979 -2.20788 0
M  V30 23972 C 2333.38 -2.17833 -2.57003 0
M  V30 23973 O 2333.91 -1.78727 -3.59749 0
M  V30 23974 N 2332.12 -1.82522 -2.26128 0
M  V30 23975 H 2331.67 -2.14522 -1.42612 0
M  V30 23976 H 2331.63 -1.23039 -2.89325 0
M  V30 23977 N 2335.4 -0.091913 -1.57332 0
M  V30 23978 C 2336.65 0.571412 -1.93854 0
M  V30 23979 C 2336.97 1.68919 -0.974242 0
M  V30 23980 O 2336.24 1.95883 -0.0257598 0
M  V30 23981 H 2334.82 0.214069 -0.71567 0
M  V30 23982 H 2337.48 -0.154498 -1.94287 0
M  V30 23983 H 2336.58 0.983677 -2.96193 0
M  V30 23984 N 2336.88 1.56548 0.181765 0
M  V30 23985 C 2338.29 1.71183 0.745214 0
M  V30 23986 C 2338.64 0.700712 1.83261 0
M  V30 23987 O 2337.76 -0.140116 2.15946 0
M  V30 23988 C 2338.36 3.1037 1.35853 0
M  V30 23989 C 2336.92 3.26724 1.86892 0
M  V30 23990 C 2336.06 2.67136 0.743895 0
M  V30 23991 H 2339.02 1.5864 -0.043494 0
M  V30 23992 H 2339.04 3.0844 2.22812 0
M  V30 23993 H 2338.55 3.83938 0.566881 0
M  V30 23994 H 2336.65 2.58095 2.68734 0
M  V30 23995 H 2336.76 4.34362 2.02154 0
M  V30 23996 H 2335.13 2.26667 1.16165 0
M  V30 23997 H 2335.91 3.43281 -0.0357364 0
M  V30 23998 N 2338.35 -0.449957 1.5104 0
M  V30 23999 C 2339.6 -1.19805 1.62761 0
M  V30 24000 C 2339.92 -1.92013 0.340015 0
M  V30 24001 O 2339.19 -1.85027 -0.643573 0
M  V30 24002 H 2337.77 -0.445226 0.599819 0
M  V30 24003 H 2340.44 -0.517105 1.87915 0
M  V30 24004 H 2339.53 -1.93451 2.44915 0
M  V30 24005 N 2339.83 -1.40974 -0.704569 0
M  V30 24006 C 2341.24 -1.35523 -1.28415 0
M  V30 24007 C 2341.59 -0.0339779 -1.96171 0
M  V30 24008 O 2340.72 0.867909 -1.98233 0
M  V30 24009 C 2341.31 -2.45463 -2.33524 0
M  V30 24010 C 2339.87 -2.43438 -2.8708 0
M  V30 24011 C 2339.02 -2.25773 -1.61003 0
M  V30 24012 H 2341.97 -1.5062 -0.499936 0
M  V30 24013 H 2341.99 -2.14004 -3.14615 0
M  V30 24014 H 2341.5 -3.41612 -1.84181 0
M  V30 24015 H 2339.61 -1.51019 -3.40623 0
M  V30 24016 H 2339.72 -3.39425 -3.38124 0
M  V30 24017 H 2338.08 -1.73486 -1.86479 0
M  V30 24018 H 2338.87 -3.23935 -1.13669 0
M  V30 24019 N 2341.31 0.937917 -1.26653 0
M  V30 24020 C 2342.54 1.71878 -1.15176 0
M  V30 24021 C 2342.95 1.86518 0.292635 0
M  V30 24022 O 2342.31 1.3749 1.20011 0
M  V30 24023 C 2342.36 3.12383 -1.81931 0
M  V30 24024 O 2342.08 2.9844 -3.20726 0
M  V30 24025 C 2343.58 4.0667 -1.76449 0
M  V30 24026 H 2340.8 0.538056 -0.40092 0
M  V30 24027 H 2343.35 1.17557 -1.67334 0
M  V30 24028 H 2341.5 3.63596 -1.33703 0
M  V30 24029 H 2341.92 3.87194 -3.53809 0
M  V30 24030 H 2343.39 5.02808 -2.2779 0
M  V30 24031 H 2343.87 4.33062 -0.731684 0
M  V30 24032 H 2344.47 3.61379 -2.24245 0
M  V30 24033 N 2342.79 1.08509 1.14296 0
M  V30 24034 C 2343.74 0.716003 2.19413 0
M  V30 24035 C 2344.71 -0.298297 1.634 0
M  V30 24036 O 2345.89 -0.182067 1.89929 0
M  V30 24037 C 2343.03 0.132594 3.44845 0
M  V30 24038 C 2342.14 1.1998 4.15005 0
M  V30 24039 C 2341.28 0.580141 5.28023 0
M  V30 24040 C 2340.32 1.62931 5.90017 0
M  V30 24041 N 2339.45 1.03137 6.94483 0
M  V30 24042 H 2344.29 1.6167 2.50333 0
M  V30 24043 H 2341.83 0.807904 1.22928 0
M  V30 24044 H 2343.79 -0.223381 4.16602 0
M  V30 24045 H 2342.42 -0.731412 3.14405 0
M  V30 24046 H 2341.47 1.67319 3.41626 0
M  V30 24047 H 2342.78 1.99481 4.57175 0
M  V30 24048 H 2341.94 0.172471 6.06455 0
M  V30 24049 H 2340.68 -0.246518 4.87077 0
M  V30 24050 H 2339.68 2.04663 5.10287 0
M  V30 24051 H 2340.91 2.45846 6.33037 0
M  V30 24052 H 2338.85 0.225826 6.55611 0
M  V30 24053 H 2338.77 1.76347 7.35145 0
M  V30 24054 H 2340.04 0.649594 7.76789 0
M  V30 24055 N 2344.27 -1.31351 0.870907 0
M  V30 24056 C 2345.49 -2.00847 0.496805 0
M  V30 24057 C 2345.91 -1.65369 -0.910969 0
M  V30 24058 O 2345.27 -0.883402 -1.59694 0
M  V30 24059 C 2345.32 -3.55693 0.64537 0
M  V30 24060 O 2345.04 -3.89902 1.99771 0
M  V30 24061 C 2346.54 -4.42462 0.272404 0
M  V30 24062 H 2343.76 -0.642502 0.193473 0
M  V30 24063 H 2346.3 -1.67561 1.17233 0
M  V30 24064 H 2344.46 -3.87396 0.0173857 0
M  V30 24065 H 2344.87 -4.84617 2.00615 0
M  V30 24066 H 2346.35 -5.50344 0.427305 0
M  V30 24067 H 2346.82 -4.32064 -0.788511 0
M  V30 24068 H 2347.43 -4.16178 0.876128 0
M  V30 24069 N 2345.74 -0.630439 -1.44441 0
M  V30 24070 C 2346.69 0.074895 -2.30678 0
M  V30 24071 C 2347.66 0.837477 -1.43442 0
M  V30 24072 O 2348.85 0.818653 -1.72345 0
M  V30 24073 C 2345.99 1.05097 -3.28708 0
M  V30 24074 C 2345.1 0.286878 -4.31046 0
M  V30 24075 C 2344.23 1.25471 -5.16169 0
M  V30 24076 C 2343.27 0.479736 -6.10217 0
M  V30 24077 N 2342.41 1.39799 -6.88041 0
M  V30 24078 H 2347.25 -0.666438 -2.90452 0
M  V30 24079 H 2344.79 -0.340429 -1.43107 0
M  V30 24080 H 2346.75 1.63025 -3.8403 0
M  V30 24081 H 2345.38 1.75944 -2.70635 0
M  V30 24082 H 2344.43 -0.40831 -3.78202 0
M  V30 24083 H 2345.74 -0.316745 -4.97793 0
M  V30 24084 H 2344.89 1.90534 -5.76005 0
M  V30 24085 H 2343.63 1.89225 -4.49494 0
M  V30 24086 H 2342.64 -0.184391 -5.49491 0
M  V30 24087 H 2343.86 -0.153084 -6.78927 0
M  V30 24088 H 2341.81 2.02276 -6.24036 0
M  V30 24089 H 2341.73 0.848376 -7.51225 0
M  V30 24090 H 2342.99 2.03749 -7.52401 0
M  V30 24091 N 2347.22 1.53172 -0.370945 0
M  V30 24092 C 2348.45 2.05752 0.217668 0
M  V30 24093 C 2348.87 1.24406 1.42016 0
M  V30 24094 O 2348.22 0.286065 1.80244 0
M  V30 24095 C 2348.27 3.56386 0.605891 0
M  V30 24096 O 2347.99 4.34649 -0.54881 0
M  V30 24097 C 2349.5 4.25243 1.25232 0
M  V30 24098 H 2346.72 0.669971 0.0371541 0
M  V30 24099 H 2349.26 1.97489 -0.530867 0
M  V30 24100 H 2347.41 3.64782 1.30434 0
M  V30 24101 H 2347.83 5.23978 -0.233852 0
M  V30 24102 H 2349.3 5.31943 1.47448 0
M  V30 24103 H 2349.78 3.793 2.21423 0
M  V30 24104 H 2350.39 4.21115 0.595159 0
M  V30 24105 N 2348.7 0.100255 1.57281 0
M  V30 24106 C 2349.66 -0.842361 2.13159 0
M  V30 24107 C 2350.66 -1.20736 1.06205 0
M  V30 24108 O 2351.85 -1.13595 1.32068 0
M  V30 24109 C 2348.99 -2.13651 2.65643 0
M  V30 24110 H 2350.18 -0.357061 2.97767 0
M  V30 24111 H 2347.73 -0.148796 1.5559 0
M  V30 24112 H 2348.47 -2.66654 1.8457 0
M  V30 24113 H 2348.25 -1.88445 3.43847 0
M  V30 24114 H 2349.74 -2.81071 3.08851 0
M  V30 24115 N 2350.18 -1.56643 -0.17346 0
M  V30 24116 C 2351.43 -1.81513 -0.888674 0
M  V30 24117 C 2351.75 -0.676904 -1.82874 0
M  V30 24118 O 2351.02 0.30338 -1.93537 0
M  V30 24119 H 2349.6 -0.669588 -0.331152 0
M  V30 24120 H 2352.26 -1.94124 -0.173789 0
M  V30 24121 H 2351.36 -2.75481 -1.46686 0
M  V30 24122 N 2351.66 0.44194 -1.51277 0
M  V30 24123 C 2353.07 1.02196 -1.56246 0
M  V30 24124 C 2353.42 1.92422 -0.383183 0
M  V30 24125 O 2352.54 2.10531 0.500576 0
M  V30 24126 C 2353.14 1.86019 -2.83165 0
M  V30 24127 C 2351.7 2.39079 -2.9072 0
M  V30 24128 C 2350.85 1.18171 -2.5086 0
M  V30 24129 H 2353.8 0.223389 -1.5712 0
M  V30 24130 H 2353.82 2.7142 -2.66667 0
M  V30 24131 H 2353.33 1.20325 -3.68976 0
M  V30 24132 H 2351.43 3.08241 -2.09328 0
M  V30 24133 H 2351.54 2.72191 -3.9427 0
M  V30 24134 H 2349.91 1.52561 -2.03954 0
M  V30 24135 H 2350.69 0.540942 -3.39011 0
M  V30 24136 N 2353.14 1.41345 0.697083 0
M  V30 24137 C 2354.41 1.31112 1.45152 0
M  V30 24138 C 2354.79 -0.0620078 2.11009 0
M  V30 24139 O 2354.14 -1.07614 2.01572 0
M  V30 24140 C 2354.35 2.46342 2.47218 0
M  V30 24141 C 2355.7 2.87436 3.12515 0
M  V30 24142 O 2356.72 2.4607 2.57542 0
M  V30 24143 O 2355.58 3.58964 4.12077 0
M  V30 24144 H 2352.68 0.5159 0.646356 0
M  V30 24145 H 2355.22 1.53306 0.727689 0
M  V30 24146 H 2353.99 3.37977 1.97198 0
M  V30 24147 H 2353.62 2.26016 3.27112 0
M  V30 24148 N 2354.61 -0.931187 1.27148 0
M  V30 24149 C 2355.55 -2.03544 1.05368 0
M  V30 24150 C 2356.56 -1.62796 0.0108724 0
M  V30 24151 O 2357.75 -1.76711 0.252051 0
M  V30 24152 C 2354.85 -3.33976 0.575625 0
M  V30 24153 C 2354.02 -4.03436 1.68992 0
M  V30 24154 C 2353.08 -5.12141 1.20822 0
M  V30 24155 O 2352.11 -5.36297 1.90721 0
M  V30 24156 N 2353.31 -5.80467 0.0619871 0
M  V30 24157 H 2356.07 -2.22793 2.00458 0
M  V30 24158 H 2353.63 -1.10134 1.18668 0
M  V30 24159 H 2355.63 -4.04003 0.237335 0
M  V30 24160 H 2354.2 -3.11326 -0.281961 0
M  V30 24161 H 2353.42 -3.27188 2.19867 0
M  V30 24162 H 2354.7 -4.46592 2.43788 0
M  V30 24163 H 2354.1 -5.63291 -0.521522 0
M  V30 24164 H 2352.66 -6.51438 -0.21715 0
M  V30 24165 N 2356.09 -1.09114 -1.13719 0
M  V30 24166 C 2357.32 -0.846932 -1.88771 0
M  V30 24167 C 2357.73 0.60154 -1.78961 0
M  V30 24168 O 2357.09 1.41386 -1.15397 0
M  V30 24169 C 2357.14 -1.26919 -3.38488 0
M  V30 24170 O 2356.86 -2.66085 -3.48038 0
M  V30 24171 C 2358.36 -1.0569 -4.30517 0
M  V30 24172 H 2355.58 -0.304924 -0.597714 0
M  V30 24173 H 2358.13 -1.45229 -1.43975 0
M  V30 24174 H 2356.28 -0.70779 -3.80879 0
M  V30 24175 H 2356.7 -2.83803 -4.41085 0
M  V30 24176 H 2358.17 -1.40166 -5.33908 0
M  V30 24177 H 2358.65 0.00555696 -4.392 0
M  V30 24178 H 2359.25 -1.60409 -3.9389 0
M  V30 24179 N 2357.57 1.30887 -0.877861 0
M  V30 24180 C 2358.48 2.32077 -0.343136 0
M  V30 24181 C 2359.5 1.65046 0.550993 0
M  V30 24182 O 2360.67 1.96404 0.445819 0
M  V30 24183 C 2357.74 3.43899 0.439845 0
M  V30 24184 C 2356.8 4.26572 -0.483186 0
M  V30 24185 C 2356.03 5.33054 0.262522 0
M  V30 24186 O 2356.25 5.50607 1.48958 0
M  V30 24187 O 2355.19 6.00676 -0.383698 0
M  V30 24188 H 2359.01 2.79751 -1.18208 0
M  V30 24189 H 2356.6 1.34928 -0.641473 0
M  V30 24190 H 2358.48 4.12036 0.883432 0
M  V30 24191 H 2357.16 2.98373 1.25521 0
M  V30 24192 H 2356.06 3.61159 -0.975437 0
M  V30 24193 H 2357.4 4.75684 -1.26436 0
M  V30 24194 N 2359.05 0.638091 1.44105 0
M  V30 24195 C 2359.98 -0.112121 2.27924 0
M  V30 24196 C 2360.96 -0.84455 1.38946 0
M  V30 24197 O 2362.14 -0.847218 1.68388 0
M  V30 24198 C 2359.27 -1.16506 3.18031 0
M  V30 24199 C 2358.32 -0.532383 4.23164 0
M  V30 24200 S 2359.15 0.682759 5.3113 0
M  V30 24201 C 2360.3 -0.37002 6.24805 0
M  V30 24202 H 2360.54 0.598938 2.91204 0
M  V30 24203 H 2358.07 0.426467 1.48393 0
M  V30 24204 H 2360.03 -1.76759 3.70495 0
M  V30 24205 H 2358.69 -1.84835 2.53958 0
M  V30 24206 H 2357.88 -1.32563 4.86254 0
M  V30 24207 H 2357.48 -0.0043107 3.74 0
M  V30 24208 H 2359.78 -1.24059 6.66045 0
M  V30 24209 H 2360.72 0.225473 7.07741 0
M  V30 24210 H 2361.13 -0.699042 5.60155 0
M  V30 24211 N 2360.53 -1.52973 0.379063 0
M  V30 24212 C 2361.75 -2.05864 -0.206754 0
M  V30 24213 C 2362.17 -1.25158 -1.41354 0
M  V30 24214 O 2361.53 -0.295619 -1.8009 0
M  V30 24215 C 2361.58 -3.56703 -0.586983 0
M  V30 24216 O 2361.3 -4.34352 0.571853 0
M  V30 24217 C 2362.8 -4.25901 -1.22975 0
M  V30 24218 H 2360.02 -0.670158 -0.0336005 0
M  V30 24219 H 2362.56 -1.97205 0.541333 0
M  V30 24220 H 2360.72 -3.65468 -1.28497 0
M  V30 24221 H 2361.13 -5.23847 0.261636 0
M  V30 24222 H 2362.61 -5.32717 -1.44625 0
M  V30 24223 H 2363.08 -3.80469 -2.19409 0
M  V30 24224 H 2363.69 -4.21425 -0.572818 0
M  V30 24225 N 2362 -0.108595 -1.57225 0
M  V30 24226 C 2363.25 0.551669 -1.94009 0
M  V30 24227 C 2363.57 1.68492 -0.993471 0
M  V30 24228 O 2364.77 2.40724 -1.25555 0
M  V30 24229 C 2363.23 1.03273 -3.44765 0
M  V30 24230 C 2362.84 -0.071498 -4.47943 0
M  V30 24231 C 2364.58 1.66496 -3.90486 0
M  V30 24232 C 2362.49 0.425676 -5.89866 0
M  V30 24233 H 2361.42 0.20985 -0.724209 0
M  V30 24234 H 2364.07 -0.186773 -1.82547 0
M  V30 24235 H 2362.45 1.82527 -3.51425 0
M  V30 24236 H 2363.62 -0.847445 -4.5294 0
M  V30 24237 H 2361.94 -0.609741 -4.11912 0
M  V30 24238 H 2364.54 2.04789 -4.93929 0
M  V30 24239 H 2364.88 2.53936 -3.29882 0
M  V30 24240 H 2365.41 0.938006 -3.86583 0
M  V30 24241 H 2362.15 -0.412431 -6.54201 0
M  V30 24242 H 2361.67 1.16833 -5.88311 0
M  V30 24243 H 2363.35 0.890285 -6.40845 0
M  V30 24244 N 2363.48 1.56732 0.16515 0
M  V30 24245 C 2364.39 2.00127 1.22419 0
M  V30 24246 C 2365.41 0.913645 1.48083 0
M  V30 24247 O 2366.58 1.22175 1.6011 0
M  V30 24248 C 2363.65 2.35769 2.54193 0
M  V30 24249 C 2362.71 3.5839 2.36337 0
M  V30 24250 C 2361.94 3.92322 3.61827 0
M  V30 24251 O 2362.17 3.27143 4.67262 0
M  V30 24252 O 2361.1 4.85647 3.5557 0
M  V30 24253 H 2364.93 2.90494 0.885835 0
M  V30 24254 H 2362.51 1.44682 0.372492 0
M  V30 24255 H 2364.39 2.59635 3.31915 0
M  V30 24256 H 2363.07 1.48562 2.87595 0
M  V30 24257 H 2361.97 3.39734 1.56626 0
M  V30 24258 H 2363.31 4.46157 2.07857 0
M  V30 24259 N 2364.96 -0.433911 1.51509 0
M  V30 24260 C 2366.21 -1.18072 1.64022 0
M  V30 24261 C 2366.53 -1.91641 0.360361 0
M  V30 24262 O 2365.8 -1.85699 -0.623912 0
M  V30 24263 H 2364.38 -0.438839 0.604507 0
M  V30 24264 H 2367.04 -0.497145 1.88453 0
M  V30 24265 H 2366.14 -1.90842 2.46953 0
M  V30 24266 N 2366.44 -1.41713 -0.689577 0
M  V30 24267 C 2367.37 -1.4681 -1.81574 0
M  V30 24268 C 2368.35 -0.326134 -1.66944 0
M  V30 24269 O 2369.53 -0.53841 -1.86587 0
M  V30 24270 C 2366.66 -1.35541 -3.19759 0
M  V30 24271 C 2365.62 -2.47611 -3.49103 0
M  V30 24272 C 2364.94 -2.21405 -4.86707 0
M  V30 24273 C 2366.24 -3.89945 -3.47477 0
M  V30 24274 H 2367.94 -2.41061 -1.77566 0
M  V30 24275 H 2365.48 -1.16027 -0.852866 0
M  V30 24276 H 2367.44 -1.37717 -3.98261 0
M  V30 24277 H 2366.16 -0.377765 -3.24408 0
M  V30 24278 H 2364.82 -2.44727 -2.72955 0
M  V30 24279 H 2364.47 -1.21969 -4.87988 0
M  V30 24280 H 2364.17 -2.96506 -5.07304 0
M  V30 24281 H 2365.69 -2.25307 -5.67511 0
M  V30 24282 H 2367.11 -3.94512 -4.15973 0
M  V30 24283 H 2365.5 -4.64778 -3.79607 0
M  V30 24284 H 2366.57 -4.1767 -2.46333 0
M  V30 24285 N 2367.92 0.924431 -1.2764 0
M  V30 24286 C 2368.85 2.02983 -1.06445 0
M  V30 24287 C 2369.86 1.62788 -0.0195057 0
M  V30 24288 O 2371.05 1.76575 -0.261419 0
M  V30 24289 C 2368.15 3.33666 -0.593328 0
M  V30 24290 C 2367.32 4.02534 -1.7113 0
M  V30 24291 C 2366.38 5.11493 -1.23536 0
M  V30 24292 O 2365.41 5.35278 -1.93563 0
M  V30 24293 N 2366.61 5.80426 -0.0927698 0
M  V30 24294 H 2369.38 2.21726 -2.01637 0
M  V30 24295 H 2366.94 1.09503 -1.1925 0
M  V30 24296 H 2368.93 4.03872 -0.258757 0
M  V30 24297 H 2367.5 3.11471 0.265447 0
M  V30 24298 H 2366.72 3.26018 -2.21599 0
M  V30 24299 H 2368.01 4.45293 -2.46153 0
M  V30 24300 H 2367.4 5.6356 0.491642 0
M  V30 24301 H 2365.96 6.51544 0.182599 0
M  V30 24302 N 2369.39 1.09715 1.13139 0
M  V30 24303 C 2370.81 0.853914 1.66028 0
M  V30 24304 C 2371.16 -0.617109 1.86242 0
M  V30 24305 O 2370.28 -1.47501 1.58343 0
M  V30 24306 C 2370.88 1.54355 3.01596 0
M  V30 24307 C 2369.44 1.34721 3.51465 0
M  V30 24308 C 2368.58 1.59773 2.26645 0
M  V30 24309 H 2371.53 1.2559 0.970204 0
M  V30 24310 H 2371.55 0.978331 3.67708 0
M  V30 24311 H 2371.07 2.61415 2.86851 0
M  V30 24312 H 2369.17 0.297903 3.71407 0
M  V30 24313 H 2369.28 2.08408 4.31396 0
M  V30 24314 H 2367.64 1.02002 2.33383 0
M  V30 24315 H 2368.43 2.68069 2.14462 0
M  V30 24316 N 2370.87 -1.30419 0.88479 0
M  V30 24317 C 2372.1 -2.00309 0.51808 0
M  V30 24318 C 2372.52 -1.66326 -0.893378 0
M  V30 24319 O 2371.87 -0.90029 -1.58748 0
M  V30 24320 C 2371.92 -3.54988 0.68306 0
M  V30 24321 O 2371.64 -3.87761 2.03895 0
M  V30 24322 C 2373.15 -4.42148 0.319317 0
M  V30 24323 H 2370.37 -0.640414 0.200277 0
M  V30 24324 H 2372.91 -1.66308 1.19004 0
M  V30 24325 H 2371.06 -3.87356 0.0584733 0
M  V30 24326 H 2371.48 -4.82462 2.05744 0
M  V30 24327 H 2372.95 -5.49859 0.485652 0
M  V30 24328 H 2373.43 -4.32876 -0.74264 0
M  V30 24329 H 2374.04 -4.15225 0.92022 0
M  V30 24330 N 2372.35 -0.645724 -1.43764 0
M  V30 24331 C 2373.6 -0.156306 -2.02197 0
M  V30 24332 C 2373.93 1.22391 -1.50779 0
M  V30 24333 O 2373.2 1.81552 -0.697803 0
M  V30 24334 C 2373.49 -0.158935 -3.59749 0
M  V30 24335 C 2373.34 -1.57253 -4.21416 0
M  V30 24336 C 2374.66 0.508713 -4.3715 0
M  V30 24337 H 2371.78 -0.0582732 -0.734693 0
M  V30 24338 H 2374.42 -0.824981 -1.71155 0
M  V30 24339 H 2372.57 0.410457 -3.86326 0
M  V30 24340 H 2374.24 -2.19193 -4.05897 0
M  V30 24341 H 2372.49 -2.12207 -3.78353 0
M  V30 24342 H 2373.16 -1.52628 -5.3048 0
M  V30 24343 H 2375.63 0.0243389 -4.16093 0
M  V30 24344 H 2374.51 0.476117 -5.46831 0
M  V30 24345 H 2374.77 1.58158 -4.12842 0
M  V30 24346 N 2373.83 1.5277 -0.38717 0
M  V30 24347 C 2374.74 2.30118 0.456401 0
M  V30 24348 C 2375.75 1.36946 1.0734 0
M  V30 24349 O 2376.93 1.70015 1.07968 0
M  V30 24350 C 2374 3.09139 1.56952 0
M  V30 24351 C 2373.06 4.18015 0.977842 0
M  V30 24352 C 2372.29 4.93259 2.03791 0
M  V30 24353 O 2372.51 4.68573 3.25263 0
M  V30 24354 O 2371.45 5.7866 1.6564 0
M  V30 24355 H 2375.27 3.03203 -0.173643 0
M  V30 24356 H 2372.86 1.48636 -0.150945 0
M  V30 24357 H 2374.74 3.58416 2.21621 0
M  V30 24358 H 2373.41 2.38869 2.18456 0
M  V30 24359 H 2372.32 3.72939 0.29446 0
M  V30 24360 H 2373.65 4.90514 0.407042 0
M  V30 24361 N 2375.31 0.116931 1.57166 0
M  V30 24362 C 2376.54 -0.548551 1.99185 0
M  V30 24363 C 2376.94 -1.60895 0.995464 0
M  V30 24364 O 2376.29 -1.83689 -0.020097 0
M  V30 24365 C 2376.35 -1.23521 3.37614 0
M  V30 24366 C 2376.01 -0.322997 4.55857 0
M  V30 24367 C 2377.01 0.437567 5.18055 0
M  V30 24368 C 2374.7 -0.234673 5.01752 0
M  V30 24369 C 2376.69 1.27421 6.24534 0
M  V30 24370 C 2374.38 0.605603 6.08092 0
M  V30 24371 C 2375.37 1.35867 6.6935 0
M  V30 24372 O 2375.06 2.185 7.73636 0
M  V30 24373 H 2374.79 -0.149987 0.659151 0
M  V30 24374 H 2377.35 0.199464 2.04429 0
M  V30 24375 H 2375.58 -2.03025 3.29117 0
M  V30 24376 H 2377.27 -1.79739 3.63935 0
M  V30 24377 H 2378.03 0.37919 4.83515 0
M  V30 24378 H 2373.91 -0.810521 4.53819 0
M  V30 24379 H 2377.46 1.86249 6.72278 0
M  V30 24380 H 2373.35 0.665381 6.42061 0
M  V30 24381 H 2374.12 2.1142 7.90724 0
M  V30 24382 N 2376.78 -1.56818 -0.156836 0
M  V30 24383 C 2378.03 -1.83077 -0.872383 0
M  V30 24384 C 2378.36 -0.697033 -1.8126 0
M  V30 24385 O 2377.64 0.300046 -1.92172 0
M  V30 24386 C 2377.92 -3.19792 -1.65545 0
M  V30 24387 C 2377.77 -4.43715 -0.737389 0
M  V30 24388 C 2379.09 -3.53611 -2.62006 0
M  V30 24389 H 2376.21 -0.665958 -0.315704 0
M  V30 24390 H 2378.85 -1.89498 -0.137971 0
M  V30 24391 H 2377 -3.14449 -2.28154 0
M  V30 24392 H 2378.68 -4.61136 -0.123062 0
M  V30 24393 H 2376.92 -4.33775 -0.0463305 0
M  V30 24394 H 2377.59 -5.35957 -1.32113 0
M  V30 24395 H 2380.07 -3.59501 -2.09519 0
M  V30 24396 H 2378.94 -4.50319 -3.13853 0
M  V30 24397 H 2379.2 -2.79059 -3.42897 0
M  V30 24398 N 2378.26 0.425871 -1.51737 0
M  V30 24399 C 2379.51 1.17607 -1.65217 0
M  V30 24400 C 2379.84 1.90588 -0.372812 0
M  V30 24401 O 2379.12 1.84079 0.628106 0
M  V30 24402 C 2379.4 2.18393 -2.86315 0
M  V30 24403 C 2379.25 1.49419 -4.24257 0
M  V30 24404 C 2380.57 3.19251 -3.0293 0
M  V30 24405 H 2377.69 0.426195 -0.601271 0
M  V30 24406 H 2380.33 0.46385 -1.84251 0
M  V30 24407 H 2378.48 2.79132 -2.70218 0
M  V30 24408 H 2380.15 0.919283 -4.52047 0
M  V30 24409 H 2378.4 0.796357 -4.26428 0
M  V30 24410 H 2379.07 2.22876 -5.05005 0
M  V30 24411 H 2381.54 2.68575 -3.17815 0
M  V30 24412 H 2380.42 3.87053 -3.89206 0
M  V30 24413 H 2380.68 3.86019 -2.15504 0
M  V30 24414 N 2379.74 1.42077 0.682052 0
M  V30 24415 C 2380.97 1.45746 1.47556 0
M  V30 24416 C 2381.39 0.0681312 1.87977 0
M  V30 24417 O 2380.75 -0.931773 1.55524 0
M  V30 24418 C 2380.8 2.38378 2.70571 0
M  V30 24419 O 2379.9 1.85014 3.6857 0
M  V30 24420 H 2379.24 0.494101 0.443577 0
M  V30 24421 H 2381.77 1.86687 0.837206 0
M  V30 24422 H 2381.78 2.54712 3.18725 0
M  V30 24423 H 2380.46 3.39319 2.40489 0
M  V30 24424 H 2379.03 1.78198 3.27567 0
M  V30 24425 N 2381.22 -0.917649 1.28129 0
M  V30 24426 C 2382.47 -1.66886 1.15226 0
M  V30 24427 C 2382.8 -1.9188 -0.299259 0
M  V30 24428 O 2382.07 -1.51639 -1.21803 0
M  V30 24429 C 2382.36 -3.02919 1.94711 0
M  V30 24430 C 2382.21 -2.85102 3.47903 0
M  V30 24431 C 2383.53 -4.03399 1.75946 0
M  V30 24432 H 2380.65 -0.605645 0.419956 0
M  V30 24433 H 2383.29 -1.0642 1.574 0
M  V30 24434 H 2381.44 -3.54531 1.58871 0
M  V30 24435 H 2383.11 -2.4053 3.93628 0
M  V30 24436 H 2381.35 -2.2024 3.73734 0
M  V30 24437 H 2382.03 -3.81687 3.98772 0
M  V30 24438 H 2384.5 -3.60834 2.07216 0
M  V30 24439 H 2383.38 -4.96552 2.3394 0
M  V30 24440 H 2383.64 -4.36362 0.709953 0
M  V30 24441 N 2382.7 -1.10314 -1.12555 0
M  V30 24442 C 2383.93 -0.865649 -1.8759 0
M  V30 24443 C 2384.34 0.587358 -1.79852 0
M  V30 24444 O 2383.68 1.41662 -1.16951 0
M  V30 24445 C 2383.74 -1.23387 -3.37662 0
M  V30 24446 C 2383.4 -2.69365 -3.69177 0
M  V30 24447 C 2384.4 -3.67604 -3.67646 0
M  V30 24448 C 2382.09 -3.05718 -3.98549 0
M  V30 24449 C 2384.08 -5.00219 -3.95044 0
M  V30 24450 C 2381.77 -4.38522 -4.25608 0
M  V30 24451 C 2382.77 -5.35581 -4.23842 0
M  V30 24452 O 2382.45 -6.65994 -4.5023 0
M  V30 24453 H 2382.19 -0.310567 -0.600436 0
M  V30 24454 H 2384.74 -1.47107 -1.43348 0
M  V30 24455 H 2382.97 -0.571534 -3.82453 0
M  V30 24456 H 2384.66 -0.974063 -3.94039 0
M  V30 24457 H 2385.42 -3.40863 -3.45018 0
M  V30 24458 H 2381.3 -2.30796 -3.99066 0
M  V30 24459 H 2384.85 -5.75969 -3.93581 0
M  V30 24460 H 2380.74 -4.65001 -4.4771 0
M  V30 24461 H 2381.51 -6.71606 -4.67855 0
M  V30 24462 N 2384.18 1.29948 -0.891694 0
M  V30 24463 C 2385.14 2.26221 -0.368319 0
M  V30 24464 C 2386.14 1.53056 0.492987 0
M  V30 24465 O 2387.33 1.71612 0.299183 0
M  V30 24466 C 2384.46 3.37584 0.47436 0
M  V30 24467 H 2385.65 2.74031 -1.21848 0
M  V30 24468 H 2383.21 1.41253 -0.669132 0
M  V30 24469 H 2383.94 2.95101 1.34484 0
M  V30 24470 H 2383.73 3.9184 -0.142684 0
M  V30 24471 H 2385.22 4.09226 0.832108 0
M  V30 24472 N 2385.65 0.653339 1.4342 0
M  V30 24473 C 2386.59 -0.0768731 2.29071 0
M  V30 24474 C 2387.6 -0.786992 1.42514 0
M  V30 24475 O 2388.79 -0.644728 1.6645 0
M  V30 24476 C 2385.89 -1.13193 3.19438 0
M  V30 24477 C 2385.06 -0.49993 4.34534 0
M  V30 24478 C 2384.12 -1.45189 5.05773 0
M  V30 24479 O 2383.15 -0.960439 5.61039 0
M  V30 24480 N 2384.35 -2.78585 5.09285 0
M  V30 24481 H 2387.11 0.658286 2.92381 0
M  V30 24482 H 2384.67 0.496131 1.54111 0
M  V30 24483 H 2386.67 -1.76958 3.63962 0
M  V30 24484 H 2385.24 -1.76906 2.57727 0
M  V30 24485 H 2384.46 0.316807 3.92925 0
M  V30 24486 H 2385.74 -0.058745 5.08766 0
M  V30 24487 H 2385.14 -3.21072 4.65757 0
M  V30 24488 H 2383.7 -3.37652 5.57525 0
M  V30 24489 N 2387.13 -1.52563 0.395266 0
M  V30 24490 C 2388.08 -2.2817 -0.451818 0
M  V30 24491 C 2389.07 -1.32306 -1.0579 0
M  V30 24492 O 2390.28 -1.4982 -0.997692 0
M  V30 24493 H 2386.65 -0.733794 -0.164468 0
M  V30 24494 H 2388.63 -2.97679 0.207252 0
M  V30 24495 C 2387.37 -3.10549 -1.56379 0
M  V30 24496 H 2386.7 -3.84176 -1.10675 0
M  V30 24497 H 2388.14 -3.6658 -2.13061 0
M  V30 24498 C 2386.6 -2.23235 -2.52324 0
M  V30 24499 O 2387.13 -1.86318 -3.55877 0
M  V30 24500 N 2385.33 -1.87278 -2.22206 0
M  V30 24501 H 2384.88 -2.17498 -1.3803 0
M  V30 24502 H 2384.84 -1.29148 -2.8665 0
M  V30 24503 N 2388.61 -0.125265 -1.57101 0
M  V30 24504 C 2390.02 0.39911 -1.82384 0
M  V30 24505 C 2390.37 1.66194 -1.04279 0
M  V30 24506 O 2389.5 2.14564 -0.281307 0
M  V30 24507 C 2390.09 0.730873 -3.30823 0
M  V30 24508 C 2388.65 1.19986 -3.56764 0
M  V30 24509 C 2387.8 0.211744 -2.7649 0
M  V30 24510 H 2390.75 -0.350304 -1.54786 0
M  V30 24511 H 2390.77 1.58769 -3.45793 0
M  V30 24512 H 2390.28 -0.188413 -3.87642 0
M  V30 24513 H 2388.38 2.13583 -3.05308 0
M  V30 24514 H 2388.5 1.14085 -4.65319 0
M  V30 24515 H 2386.86 0.700042 -2.44891 0
M  V30 24516 H 2387.64 -0.70075 -3.36072 0
M  V30 24517 N 2390.09 1.56899 0.148518 0
M  V30 24518 C 2391.31 1.87789 0.880352 0
M  V30 24519 C 2391.74 0.714124 1.74017 0
M  V30 24520 O 2391.1 -0.336312 1.78153 0
M  V30 24521 C 2391.14 3.17252 1.71416 0
M  V30 24522 O 2390.25 3.01079 2.81824 0
M  V30 24523 H 2389.59 0.617032 0.24529 0
M  V30 24524 H 2392.12 2.04122 0.139791 0
M  V30 24525 H 2392.13 3.49235 2.10948 0
M  V30 24526 H 2390.8 4.01558 1.08277 0
M  V30 24527 H 2389.38 2.80501 2.4571 0
M  V30 24528 N 2391.57 -0.417818 1.51961 0
M  V30 24529 C 2392.81 -1.16326 1.65265 0
M  V30 24530 C 2393.13 -1.91248 0.380667 0
M  V30 24531 O 2392.4 -1.8635 -0.604181 0
M  V30 24532 H 2390.98 -0.432403 0.609128 0
M  V30 24533 H 2393.65 -0.477129 1.8897 0
M  V30 24534 H 2392.74 -1.88212 2.48963 0
M  V30 24535 N 2393.04 -1.42436 -0.674508 0
M  V30 24536 C 2393.95 -1.4834 -1.81748 0
M  V30 24537 C 2394.97 -0.372129 -1.69974 0
M  V30 24538 O 2396.15 -0.623074 -1.9152 0
M  V30 24539 C 2393.21 -1.38367 -3.17892 0
M  V30 24540 C 2392.27 -2.59988 -3.41621 0
M  V30 24541 C 2391.5 -2.50481 -4.71269 0
M  V30 24542 O 2391.73 -1.54084 -5.49194 0
M  V30 24543 O 2390.66 -3.40619 -4.96248 0
M  V30 24544 H 2394.49 -2.44813 -1.79723 0
M  V30 24545 H 2392.07 -1.24204 -0.83029 0
M  V30 24546 H 2393.95 -1.35168 -3.99133 0
M  V30 24547 H 2392.63 -0.450201 -3.20554 0
M  V30 24548 H 2391.54 -2.68762 -2.60227 0
M  V30 24549 H 2392.87 -3.52235 -3.43789 0
M  V30 24550 N 2394.52 0.910841 -1.28614 0
M  V30 24551 C 2395.75 1.69925 -1.18913 0
M  V30 24552 C 2396.17 1.86453 0.248339 0
M  V30 24553 O 2395.53 1.37679 1.17959 0
M  V30 24554 C 2395.58 3.06742 -1.89583 0
M  V30 24555 O 2394.68 3.94394 -1.20528 0
M  V30 24556 H 2394.02 0.520215 -0.412641 0
M  V30 24557 H 2396.55 1.13867 -1.69987 0
M  V30 24558 H 2396.56 3.56955 -1.97603 0
M  V30 24559 H 2395.24 2.9403 -2.94142 0
M  V30 24560 H 2393.81 3.52829 -1.2069 0
M  V30 24561 N 2396 1.10909 1.11969 0
M  V30 24562 C 2396.93 0.720213 2.1759 0
M  V30 24563 C 2397.95 -0.245467 1.60939 0
M  V30 24564 O 2399.13 -0.0291932 1.78476 0
M  V30 24565 C 2396.23 0.0428513 3.38873 0
M  V30 24566 C 2395.41 1.03395 4.25004 0
M  V30 24567 C 2394.47 0.387167 5.24774 0
M  V30 24568 O 2393.49 1.03944 5.59629 0
M  V30 24569 N 2394.69 -0.852306 5.74209 0
M  V30 24570 H 2397.46 1.62898 2.51564 0
M  V30 24571 H 2395.02 0.998566 1.27437 0
M  V30 24572 H 2397.01 -0.40143 4.02704 0
M  V30 24573 H 2395.58 -0.768403 3.03009 0
M  V30 24574 H 2394.8 1.65635 3.57713 0
M  V30 24575 H 2396.09 1.70467 4.79394 0
M  V30 24576 H 2395.49 -1.40151 5.48064 0
M  V30 24577 H 2394.05 -1.23966 6.39903 0
M  V30 24578 N 2397.48 -1.29474 0.898573 0
M  V30 24579 C 2398.89 -1.77704 0.572568 0
M  V30 24580 C 2399.24 -1.73729 -0.911747 0
M  V30 24581 O 2398.37 -1.3225 -1.71286 0
M  V30 24582 C 2398.96 -3.22682 1.03257 0
M  V30 24583 C 2397.52 -3.68694 0.757752 0
M  V30 24584 C 2396.67 -2.49609 1.20791 0
M  V30 24585 H 2399.62 -1.16151 1.08141 0
M  V30 24586 H 2399.64 -3.78722 0.367374 0
M  V30 24587 H 2399.15 -3.25543 2.11291 0
M  V30 24588 H 2397.25 -3.71308 -0.310014 0
M  V30 24589 H 2397.36 -4.59544 1.35484 0
M  V30 24590 H 2395.73 -2.46864 0.626931 0
M  V30 24591 H 2396.51 -2.55199 2.29626 0
M  V30 24592 N 2398.96 -0.660936 -1.43071 0
M  V30 24593 C 2399.89 0.0122419 -2.33497 0
M  V30 24594 C 2400.87 0.803899 -1.49905 0
M  V30 24595 O 2402.05 0.763833 -1.78548 0
M  V30 24596 C 2399.18 0.973936 -3.33364 0
M  V30 24597 C 2398.14 0.291852 -4.27004 0
M  V30 24598 C 2397.46 1.36553 -5.16969 0
M  V30 24599 C 2398.76 -0.820552 -5.15814 0
M  V30 24600 H 2400.46 -0.742924 -2.90036 0
M  V30 24601 H 2398 -0.358713 -1.39461 0
M  V30 24602 H 2399.96 1.45385 -3.95527 0
M  V30 24603 H 2398.68 1.76036 -2.75098 0
M  V30 24604 H 2397.34 -0.167687 -3.66216 0
M  V30 24605 H 2396.99 2.14358 -4.55038 0
M  V30 24606 H 2396.69 0.914352 -5.80442 0
M  V30 24607 H 2398.21 1.84665 -5.82006 0
M  V30 24608 H 2399.62 -0.422467 -5.71741 0
M  V30 24609 H 2398.02 -1.19667 -5.88048 0
M  V30 24610 H 2399.09 -1.67526 -4.55042 0
M  V30 24611 N 2400.43 1.52351 -0.403352 0
M  V30 24612 C 2401.68 2.02047 0.17457 0
M  V30 24613 C 2402.01 1.2887 1.4528 0
M  V30 24614 O 2401.29 0.393291 1.90482 0
M  V30 24615 C 2401.57 3.57545 0.428175 0
M  V30 24616 C 2401.42 4.41378 -0.866326 0
M  V30 24617 C 2402.74 4.23059 1.2128 0
M  V30 24618 H 2399.86 0.73439 0.0619722 0
M  V30 24619 H 2402.5 1.82292 -0.535682 0
M  V30 24620 H 2400.65 3.74509 1.03321 0
M  V30 24621 H 2402.33 4.36138 -1.50272 0
M  V30 24622 H 2400.57 4.07824 -1.47858 0
M  V30 24623 H 2401.24 5.48238 -0.643345 0
M  V30 24624 H 2403.72 4.10159 0.700631 0
M  V30 24625 H 2402.59 5.31811 1.35899 0
M  V30 24626 H 2402.85 3.81629 2.23186 0
M  V30 24627 N 2401.91 0.133594 1.57033 0
M  V30 24628 C 2402.84 -0.841906 2.13177 0
M  V30 24629 C 2403.86 -1.22 1.07796 0
M  V30 24630 O 2405.05 -1.1664 1.35119 0
M  V30 24631 C 2402.15 -2.13922 2.62851 0
M  V30 24632 C 2401.32 -1.93057 3.92489 0
M  V30 24633 C 2400.38 -3.06652 4.27611 0
M  V30 24634 O 2399.4 -2.78928 4.96173 0
M  V30 24635 N 2400.61 -4.33476 3.86107 0
M  V30 24636 H 2403.37 -0.36214 2.97504 0
M  V30 24637 H 2400.93 -0.0503915 1.61822 0
M  V30 24638 H 2402.92 -2.88937 2.83368 0
M  V30 24639 H 2401.49 -2.53202 1.83324 0
M  V30 24640 H 2400.71 -1.02152 3.80734 0
M  V30 24641 H 2402 -1.76439 4.77228 0
M  V30 24642 H 2401.4 -4.58872 3.30836 0
M  V30 24643 H 2399.96 -5.05316 4.11703 0
M  V30 24644 N 2403.39 -1.56975 -0.140195 0
M  V30 24645 C 2404.62 -1.87886 -0.866404 0
M  V30 24646 C 2405.03 -0.722547 -1.74427 0
M  V30 24647 O 2404.39 0.307458 -1.79891 0
M  V30 24648 C 2404.44 -3.18096 -1.71747 0
M  V30 24649 O 2404.16 -4.29273 -0.87498 0
M  V30 24650 C 2405.66 -3.62568 -2.55068 0
M  V30 24651 H 2402.88 -0.622616 -0.250179 0
M  V30 24652 H 2405.43 -2.0408 -0.130941 0
M  V30 24653 H 2403.58 -3.03635 -2.40592 0
M  V30 24654 H 2404 -5.03772 -1.45994 0
M  V30 24655 H 2405.47 -4.56495 -3.10348 0
M  V30 24656 H 2405.95 -2.88187 -3.31429 0
M  V30 24657 H 2406.55 -3.79746 -1.91502 0
M  V30 24658 N 2404.87 0.409753 -1.5218 0
M  V30 24659 C 2405.83 1.48183 -1.74855 0
M  V30 24660 C 2406.83 1.48432 -0.618443 0
M  V30 24661 O 2408.02 1.49967 -0.886312 0
M  V30 24662 C 2405.15 2.87595 -1.83035 0
M  V30 24663 H 2406.35 1.2937 -2.70561 0
M  V30 24664 H 2403.9 0.640208 -1.42587 0
M  V30 24665 H 2404.63 3.11779 -0.892415 0
M  V30 24666 H 2404.42 2.88818 -2.65192 0
M  V30 24667 H 2405.91 3.65315 -2.02323 0
M  V30 24668 N 2406.35 1.42792 0.666944 0
M  V30 24669 C 2407.59 1.43893 1.42908 0
M  V30 24670 C 2407.93 0.0579313 1.94114 0
M  V30 24671 O 2407.2 -0.91908 1.71415 0
M  V30 24672 C 2407.48 2.46991 2.62044 0
M  V30 24673 C 2407.34 3.94313 2.16419 0
M  V30 24674 C 2408.66 2.46984 3.64262 0
M  V30 24675 H 2405.77 0.523963 0.518297 0
M  V30 24676 H 2408.42 1.74256 0.75729 0
M  V30 24677 H 2406.57 2.21231 3.19357 0
M  V30 24678 H 2408.24 4.31082 1.64213 0
M  V30 24679 H 2406.48 4.07802 1.47918 0
M  V30 24680 H 2407.15 4.62041 3.02029 0
M  V30 24681 H 2409.63 2.69911 3.16681 0
M  V30 24682 H 2408.5 3.21087 4.45191 0
M  V30 24683 H 2408.77 1.49864 4.15924 0
M  V30 24684 N 2407.82 -0.904008 1.29095 0
M  V30 24685 C 2409.05 -1.68764 1.19692 0
M  V30 24686 C 2409.47 -1.87229 -0.24308 0
M  V30 24687 O 2408.82 -1.40624 -1.16324 0
M  V30 24688 C 2408.88 -3.0745 1.90149 0
M  V30 24689 O 2408.6 -2.89832 3.28526 0
M  V30 24690 C 2410.1 -4.01849 1.8717 0
M  V30 24691 H 2407.32 -0.527237 0.415045 0
M  V30 24692 H 2409.86 -1.13079 1.70392 0
M  V30 24693 H 2408.02 -3.59924 1.43296 0
M  V30 24694 H 2408.43 -3.77677 3.63951 0
M  V30 24695 H 2409.9 -4.96592 2.41041 0
M  V30 24696 H 2410.38 -4.3097 0.846246 0
M  V30 24697 H 2410.99 -3.55306 2.33747 0
M  V30 24698 N 2409.3 -1.11501 -1.11379 0
M  V30 24699 C 2410.25 -0.768994 -2.1952 0
M  V30 24700 C 2411.24 0.239828 -1.67694 0
M  V30 24701 O 2412.45 0.0990439 -1.79727 0
M  V30 24702 H 2408.83 -0.230799 -0.715707 0
M  V30 24703 H 2410.8 -1.68969 -2.45951 0
M  V30 24704 C 2409.55 -0.229134 -3.46944 0
M  V30 24705 H 2408.87 -0.996664 -3.87178 0
M  V30 24706 H 2410.31 -0.0252186 -4.23993 0
M  V30 24707 C 2408.77 1.04074 -3.20422 0
M  V30 24708 O 2409.3 2.12032 -3.41182 0
M  V30 24709 N 2407.5 0.963775 -2.74153 0
M  V30 24710 H 2407.05 0.0851269 -2.57459 0
M  V30 24711 H 2407.01 1.81409 -2.56784 0
M  V30 24712 N 2410.78 1.28995 -0.905426 0
M  V30 24713 C 2412.03 1.94606 -0.530225 0
M  V30 24714 C 2412.34 1.72122 0.929155 0
M  V30 24715 O 2413.55 2.31886 1.41214 0
M  V30 24716 C 2412.01 3.48532 -0.897394 0
M  V30 24717 C 2411.61 3.79807 -2.37593 0
M  V30 24718 C 2413.36 4.20346 -0.592378 0
M  V30 24719 C 2411.26 5.27004 -2.68366 0
M  V30 24720 H 2410.19 0.728463 -0.19457 0
M  V30 24721 H 2412.85 1.46634 -1.10321 0
M  V30 24722 H 2411.23 3.95189 -0.253283 0
M  V30 24723 H 2412.4 3.43989 -3.06608 0
M  V30 24724 H 2410.72 3.21146 -2.65055 0
M  V30 24725 H 2413.31 5.28696 -0.799068 0
M  V30 24726 H 2413.66 4.13645 0.469401 0
M  V30 24727 H 2414.19 3.7944 -1.19458 0
M  V30 24728 H 2410.93 5.38775 -3.73365 0
M  V30 24729 H 2410.45 5.64049 -2.03981 0
M  V30 24730 H 2412.13 5.94658 -2.54933 0
M  V30 24731 N 2412.26 0.668514 1.42719 0
M  V30 24732 C 2413.54 0.117408 1.95247 0
M  V30 24733 C 2413.92 -1.36629 1.60921 0
M  V30 24734 O 2413.26 -2.09938 0.902132 0
M  V30 24735 C 2413.47 0.379867 3.46927 0
M  V30 24736 C 2414.82 0.292998 4.23588 0
M  V30 24737 O 2415.85 0.313266 3.5482 0
M  V30 24738 O 2414.71 0.229793 5.46017 0
M  V30 24739 H 2411.8 -0.000776984 0.827 0
M  V30 24740 H 2414.35 0.74281 1.52579 0
M  V30 24741 H 2413.12 1.40792 3.65093 0
M  V30 24742 H 2412.74 -0.277853 3.96628 0
M  V30 24743 N 2413.74 -1.52135 0.411426 0
M  V30 24744 C 2415.15 -1.59478 0.0624145 0
M  V30 24745 C 2415.35 -1.42413 -1.42551 0
M  V30 24746 O 2414.41 -1.25224 -2.19261 0
M  V30 24747 C 2415.72 -2.95451 0.559383 0
M  V30 24748 C 2417.27 -3.08691 0.517558 0
M  V30 24749 C 2417.75 -4.47148 0.991073 0
M  V30 24750 N 2419.24 -4.53395 0.947987 0
M  V30 24751 C 2419.97 -5.58804 1.28553 0
M  V30 24752 N 2419.47 -6.71754 1.69465 0
M  V30 24753 N 2421.26 -5.49024 1.20536 0
M  V30 24754 H 2413.41 -1.61475 1.37985 0
M  V30 24755 H 2415.67 -0.759754 0.56699 0
M  V30 24756 H 2415.38 -3.13227 1.59944 0
M  V30 24757 H 2415.25 -3.77188 -0.0297351 0
M  V30 24758 H 2417.64 -2.90599 -0.513454 0
M  V30 24759 H 2417.72 -2.28855 1.14276 0
M  V30 24760 H 2417.37 -4.65984 2.02042 0
M  V30 24761 H 2417.3 -5.25484 0.342663 0
M  V30 24762 H 2419.79 -3.72316 0.647223 0
M  V30 24763 H 2420.1 -7.48176 1.93527 0
M  V30 24764 H 2418.45 -6.73029 1.73371 0
M  V30 24765 H 2421.64 -4.59666 0.884585 0
M  V30 24766 H 2421.81 -6.31066 1.47172 0
M  V30 24767 N 2415.22 -0.14192 -1.5696 0
M  V30 24768 C 2416.63 0.379743 -1.82797 0
M  V30 24769 C 2416.98 1.65078 -1.06036 0
M  V30 24770 O 2416.1 2.14253 -0.304049 0
M  V30 24771 C 2416.7 0.695744 -3.31579 0
M  V30 24772 C 2415.26 1.16195 -3.58016 0
M  V30 24773 C 2414.4 0.182406 -2.76699 0
M  V30 24774 H 2417.35 -0.366702 -1.54405 0
M  V30 24775 H 2417.38 1.55093 -3.47457 0
M  V30 24776 H 2416.89 -0.229517 -3.87421 0
M  V30 24777 H 2414.99 2.10333 -3.07556 0
M  V30 24778 H 2415.1 1.09143 -4.66502 0
M  V30 24779 H 2413.47 0.674029 -2.4562 0
M  V30 24780 H 2414.25 -0.736356 -3.3531 0
M  V30 24781 N 2416.69 1.57047 0.131868 0
M  V30 24782 C 2417.64 1.99396 1.16233 0
M  V30 24783 C 2418.61 0.863968 1.41862 0
M  V30 24784 O 2419.8 1.12721 1.53944 0
M  V30 24785 C 2416.94 2.3925 2.48704 0
M  V30 24786 C 2416.05 3.65607 2.3012 0
M  V30 24787 C 2415.18 3.94498 3.55731 0
M  V30 24788 C 2414.22 5.14078 3.32249 0
M  V30 24789 N 2413.36 5.38904 4.5003 0
M  V30 24790 H 2418.2 2.87222 0.794201 0
M  V30 24791 H 2415.74 1.42089 0.380682 0
M  V30 24792 H 2417.69 2.6039 3.25965 0
M  V30 24793 H 2416.32 1.54483 2.83434 0
M  V30 24794 H 2415.38 3.52157 1.43839 0
M  V30 24795 H 2416.69 4.53023 2.08738 0
M  V30 24796 H 2415.84 4.16218 4.41416 0
M  V30 24797 H 2414.58 3.05533 3.80133 0
M  V30 24798 H 2413.59 4.92217 2.44955 0
M  V30 24799 H 2414.81 6.0461 3.09231 0
M  V30 24800 H 2412.76 4.52895 4.74576 0
M  V30 24801 H 2412.67 6.20618 4.31705 0
M  V30 24802 H 2413.94 5.65133 5.36885 0
M  V30 24803 N 2418.17 -0.401677 1.52395 0
M  V30 24804 C 2419.42 -1.14567 1.6649 0
M  V30 24805 C 2419.74 -1.90834 0.40093 0
M  V30 24806 O 2419.01 -1.86981 -0.584382 0
M  V30 24807 H 2417.59 -0.425918 0.61368 0
M  V30 24808 H 2420.25 -0.457059 1.89465 0
M  V30 24809 H 2419.35 -1.85561 2.50945 0
M  V30 24810 N 2419.65 -1.43144 -0.659362 0
M  V30 24811 C 2420.58 -1.50628 -1.78419 0
M  V30 24812 C 2421.56 -0.361472 -1.66215 0
M  V30 24813 O 2422.75 -0.577866 -1.85403 0
M  V30 24814 C 2419.88 -1.42293 -3.16812 0
M  V30 24815 C 2418.83 -2.5496 -3.43772 0
M  V30 24816 C 2418.16 -2.31679 -4.81901 0
M  V30 24817 C 2419.46 -3.97228 -3.39127 0
M  V30 24818 H 2421.15 -2.44774 -1.72413 0
M  V30 24819 H 2418.7 -1.1781 -0.828063 0
M  V30 24820 H 2420.65 -1.46134 -3.9525 0
M  V30 24821 H 2419.37 -0.446492 -3.23534 0
M  V30 24822 H 2418.03 -2.50462 -2.67702 0
M  V30 24823 H 2417.68 -1.32293 -4.85291 0
M  V30 24824 H 2417.38 -3.072 -5.00901 0
M  V30 24825 H 2418.9 -2.37294 -5.62604 0
M  V30 24826 H 2420.32 -4.03247 -4.07511 0
M  V30 24827 H 2418.71 -4.72725 -3.69663 0
M  V30 24828 H 2419.78 -4.22801 -2.37418 0
M  V30 24829 N 2421.13 0.897149 -1.29572 0
M  V30 24830 C 2422.09 1.9831 -1.14917 0
M  V30 24831 C 2423.09 1.60581 -0.0838911 0
M  V30 24832 O 2424.28 1.71026 -0.331036 0
M  V30 24833 C 2421.41 3.32368 -0.757893 0
M  V30 24834 H 2422.61 2.1274 -2.11381 0
M  V30 24835 H 2420.16 1.08199 -1.12795 0
M  V30 24836 H 2420.89 3.2364 0.20678 0
M  V30 24837 H 2420.68 3.61118 -1.52761 0
M  V30 24838 H 2422.17 4.12051 -0.67848 0
M  V30 24839 N 2422.61 1.1209 1.10786 0
M  V30 24840 C 2423.85 0.873963 1.82669 0
M  V30 24841 C 2424.18 -0.600279 1.85005 0
M  V30 24842 O 2423.44 -1.45955 1.30367 0
M  V30 24843 C 2423.73 1.38932 3.29291 0
M  V30 24844 C 2423.4 2.87797 3.47108 0
M  V30 24845 C 2422.06 3.28445 3.51678 0
M  V30 24846 C 2424.41 3.83641 3.52801 0
M  V30 24847 C 2421.74 4.63652 3.59505 0
M  V30 24848 C 2424.09 5.18674 3.6216 0
M  V30 24849 C 2422.76 5.5887 3.64993 0
M  V30 24850 H 2422.03 0.319806 0.668435 0
M  V30 24851 H 2424.68 1.40047 1.3061 0
M  V30 24852 H 2422.98 0.78319 3.83892 0
M  V30 24853 H 2424.68 1.1745 3.83414 0
M  V30 24854 H 2421.27 2.55356 3.44225 0
M  V30 24855 H 2425.45 3.53334 3.48524 0
M  V30 24856 H 2420.71 4.94192 3.59978 0
M  V30 24857 H 2424.88 5.9277 3.65509 0
M  V30 24858 H 2422.51 6.63629 3.70811 0
M  V30 24859 N 2424.08 -1.28513 0.912254 0
M  V30 24860 C 2425.31 -1.99165 0.560451 0
M  V30 24861 C 2425.73 -1.68183 -0.857897 0
M  V30 24862 O 2425.08 -0.933761 -1.56803 0
M  V30 24863 C 2425.13 -3.53459 0.758204 0
M  V30 24864 O 2424.86 -3.83349 2.12074 0
M  V30 24865 C 2426.36 -4.41372 0.413032 0
M  V30 24866 H 2423.58 -0.636022 0.213816 0
M  V30 24867 H 2426.12 -1.63746 1.22505 0
M  V30 24868 H 2424.28 -3.87145 0.140624 0
M  V30 24869 H 2424.69 -4.77989 2.15931 0
M  V30 24870 H 2426.16 -5.48706 0.602176 0
M  V30 24871 H 2426.64 -4.34354 -0.650654 0
M  V30 24872 H 2427.25 -4.1318 1.00809 0
M  V30 24873 N 2425.56 -0.676073 -1.42362 0
M  V30 24874 C 2426.84 -0.12776 -1.95182 0
M  V30 24875 C 2427.22 1.35774 -1.61643 0
M  V30 24876 O 2426.57 2.09456 -0.913253 0
M  V30 24877 C 2426.78 -0.39826 -3.4672 0
M  V30 24878 C 2428.13 -0.315458 -4.23427 0
M  V30 24879 O 2429.15 -0.332079 -3.54649 0
M  V30 24880 O 2428.01 -0.258746 -5.45887 0
M  V30 24881 H 2425.1 -0.00360881 -0.826992 0
M  V30 24882 H 2427.65 -0.750891 -1.52183 0
M  V30 24883 H 2426.42 -1.42726 -3.64342 0
M  V30 24884 H 2426.04 0.256815 -3.9677 0
M  V30 24885 N 2427.04 1.51915 -0.419488 0
M  V30 24886 C 2428.29 2.02221 0.15313 0
M  V30 24887 C 2428.62 1.30403 1.43905 0
M  V30 24888 O 2427.89 0.413472 1.90054 0
M  V30 24889 C 2428.18 3.57979 0.390228 0
M  V30 24890 C 2428.03 4.40435 -0.913091 0
M  V30 24891 C 2429.35 4.24322 1.16786 0
M  V30 24892 H 2426.47 0.735006 0.0541795 0
M  V30 24893 H 2429.11 1.81714 -0.554987 0
M  V30 24894 H 2427.26 3.75584 0.993425 0
M  V30 24895 H 2428.93 4.34519 -1.5489 0
M  V30 24896 H 2427.18 4.06233 -1.52175 0
M  V30 24897 H 2427.85 5.47525 -0.701457 0
M  V30 24898 H 2430.32 4.10879 0.657089 0
M  V30 24899 H 2429.2 5.33222 1.30251 0
M  V30 24900 H 2429.46 3.83974 2.19126 0
M  V30 24901 N 2428.52 0.150242 1.56882 0
M  V30 24902 C 2429.8 -0.545294 1.87845 0
M  V30 24903 C 2430.18 -1.82747 1.05673 0
M  V30 24904 O 2429.52 -2.28043 0.144482 0
M  V30 24905 C 2429.73 -0.80761 3.39527 0
M  V30 24906 C 2431.08 -1.14695 4.08816 0
M  V30 24907 O 2432.11 -0.896856 3.44724 0
M  V30 24908 O 2430.96 -1.61775 5.22007 0
M  V30 24909 H 2428.06 -0.278539 0.778681 0
M  V30 24910 H 2430.6 0.187097 1.68665 0
M  V30 24911 H 2429.38 0.0996784 3.91173 0
M  V30 24912 H 2429 -1.59407 3.64246 0
M  V30 24913 N 2430 -1.57115 -0.123538 0
M  V30 24914 C 2431.24 -1.84887 -0.833354 0
M  V30 24915 C 2431.58 -0.735324 -1.7974 0
M  V30 24916 O 2430.85 0.259216 -1.92765 0
M  V30 24917 C 2431.13 -3.23231 -1.58725 0
M  V30 24918 C 2430.99 -4.45179 -0.643104 0
M  V30 24919 C 2432.31 -3.59089 -2.54447 0
M  V30 24920 H 2429.42 -0.672505 -0.301507 0
M  V30 24921 H 2432.07 -1.89748 -0.0977447 0
M  V30 24922 H 2430.22 -3.19218 -2.21433 0
M  V30 24923 H 2431.89 -4.61293 -0.0252204 0
M  V30 24924 H 2430.13 -4.33776 0.0456901 0
M  V30 24925 H 2430.8 -5.38639 -1.20714 0
M  V30 24926 H 2433.28 -3.63864 -2.01846 0
M  V30 24927 H 2432.15 -4.56875 -3.0423 0
M  V30 24928 H 2432.42 -2.8627 -3.36901 0
M  V30 24929 N 2431.47 0.393589 -1.52606 0
M  V30 24930 C 2432.75 1.15302 -1.58003 0
M  V30 24931 C 2433.13 2.07825 -0.370422 0
M  V30 24932 O 2432.48 2.19307 0.6416 0
M  V30 24933 C 2432.69 1.91672 -2.91655 0
M  V30 24934 C 2434.04 2.47195 -3.45224 0
M  V30 24935 O 2435.06 2.01834 -2.93499 0
M  V30 24936 O 2433.92 3.30043 -4.35585 0
M  V30 24937 H 2431.01 0.527316 -0.637077 0
M  V30 24938 H 2433.56 0.399112 -1.6494 0
M  V30 24939 H 2432.33 1.23985 -3.71138 0
M  V30 24940 H 2431.96 2.74034 -2.88082 0
M  V30 24941 N 2432.95 1.43492 0.651762 0
M  V30 24942 C 2434.18 1.48843 1.44431 0
M  V30 24943 C 2434.6 0.107988 1.8779 0
M  V30 24944 O 2433.96 -0.898574 1.57465 0
M  V30 24945 C 2434.01 2.44063 2.65453 0
M  V30 24946 O 2433.11 1.9279 3.64562 0
M  V30 24947 H 2432.45 0.503399 0.432996 0
M  V30 24948 H 2434.98 1.88421 0.797418 0
M  V30 24949 H 2434.99 2.61416 3.1325 0
M  V30 24950 H 2433.67 3.44344 2.33238 0
M  V30 24951 H 2432.25 1.85106 3.23713 0
M  V30 24952 N 2434.43 -0.890264 1.30046 0
M  V30 24953 C 2435.68 -1.6363 1.17932 0
M  V30 24954 C 2435.99 -1.93781 -0.266169 0
M  V30 24955 O 2437.2 -2.66691 -0.508757 0
M  V30 24956 C 2435.65 -2.94889 2.06322 0
M  V30 24957 C 2435.26 -2.72298 3.55749 0
M  V30 24958 C 2437.01 -3.72839 2.02956 0
M  V30 24959 C 2434.91 -3.99341 4.36212 0
M  V30 24960 H 2433.84 -0.613884 0.437792 0
M  V30 24961 H 2436.49 -0.986047 1.54756 0
M  V30 24962 H 2434.88 -3.61179 1.62376 0
M  V30 24963 H 2436.05 -2.14543 4.07809 0
M  V30 24964 H 2434.37 -2.07731 3.60883 0
M  V30 24965 H 2436.96 -4.67048 2.60327 0
M  V30 24966 H 2437.31 -4.03818 1.01177 0
M  V30 24967 H 2437.84 -3.13404 2.44996 0
M  V30 24968 H 2434.58 -3.73523 5.38666 0
M  V30 24969 H 2434.1 -4.56621 3.88918 0
M  V30 24970 H 2435.78 -4.67407 4.4737 0
M  V30 24971 N 2435.91 -1.12676 -1.1019 0
M  V30 24972 C 2436.86 -0.796944 -2.16604 0
M  V30 24973 C 2437.83 0.237447 -1.64394 0
M  V30 24974 O 2439.01 0.111451 -1.90474 0
M  V30 24975 C 2436.15 -0.26049 -3.44115 0
M  V30 24976 C 2435.26 -1.353 -4.10266 0
M  V30 24977 C 2434.4 -0.775713 -5.25506 0
M  V30 24978 C 2433.44 -1.84717 -5.83563 0
M  V30 24979 N 2432.57 -1.28841 -6.90177 0
M  V30 24980 H 2437.41 -1.7085 -2.4416 0
M  V30 24981 H 2434.95 -0.852971 -1.19845 0
M  V30 24982 H 2436.91 0.0686081 -4.17144 0
M  V30 24983 H 2435.54 0.614218 -3.16903 0
M  V30 24984 H 2434.59 -1.79883 -3.35181 0
M  V30 24985 H 2435.9 -2.16311 -4.49456 0
M  V30 24986 H 2435.06 -0.397434 -6.05397 0
M  V30 24987 H 2433.8 0.0655724 -4.87656 0
M  V30 24988 H 2432.8 -2.23461 -5.0234 0
M  V30 24989 H 2434.03 -2.69172 -6.23477 0
M  V30 24990 H 2431.97 -0.468996 -6.54321 0
M  V30 24991 H 2431.89 -2.03509 -7.28093 0
M  V30 24992 H 2433.16 -0.937447 -7.73842 0
M  V30 24993 N 2437.39 1.28028 -0.919057 0
M  V30 24994 C 2438.64 1.94033 -0.550836 0
M  V30 24995 C 2438.95 1.73098 0.910847 0
M  V30 24996 O 2440.15 2.3337 1.38746 0
M  V30 24997 C 2438.61 3.47561 -0.93431 0
M  V30 24998 C 2438.22 3.77266 -2.41608 0
M  V30 24999 C 2439.96 4.19695 -0.636928 0
M  V30 25000 C 2437.87 5.24128 -2.73941 0
M  V30 25001 H 2436.8 0.726358 -0.202286 0
M  V30 25002 H 2439.45 1.45456 -1.1187 0
M  V30 25003 H 2437.83 3.94898 -0.295184 0
M  V30 25004 H 2439.01 3.40718 -3.10239 0
M  V30 25005 H 2437.32 3.18316 -2.68447 0
M  V30 25006 H 2439.92 5.27818 -0.855098 0
M  V30 25007 H 2440.26 4.1412 0.425502 0
M  V30 25008 H 2440.79 3.78151 -1.23476 0
M  V30 25009 H 2437.53 5.34785 -3.79058 0
M  V30 25010 H 2437.05 5.61854 -2.09952 0
M  V30 25011 H 2438.73 5.91921 -2.61225 0
M  V30 25012 N 2438.86 0.683613 1.42002 0
M  V30 25013 C 2439.83 0.0198645 2.29191 0
M  V30 25014 C 2440.83 -0.720105 1.43775 0
M  V30 25015 O 2442.02 -0.556786 1.65062 0
M  V30 25016 C 2439.15 -0.98243 3.26437 0
M  V30 25017 H 2440.34 0.787396 2.89379 0
M  V30 25018 H 2437.9 0.446445 1.49788 0
M  V30 25019 H 2438.63 -1.77814 2.71206 0
M  V30 25020 H 2438.42 -0.455113 3.8945 0
M  V30 25021 H 2439.91 -1.44501 3.91803 0
M  V30 25022 N 2440.34 -1.5169 0.427538 0
M  V30 25023 C 2441.59 -2.02953 -0.134708 0
M  V30 25024 C 2441.94 -1.30657 -1.41233 0
M  V30 25025 O 2441.24 -0.409746 -1.87167 0
M  V30 25026 C 2441.43 -3.54945 -0.418187 0
M  V30 25027 C 2441.26 -4.41966 0.830405 0
M  V30 25028 C 2440.03 -4.86625 1.36105 0
M  V30 25029 C 2442.23 -4.84906 1.71378 0
M  V30 25030 N 2440.21 -5.57829 2.56321 0
M  V30 25031 C 2441.58 -5.55077 2.76205 0
M  V30 25032 C 2443.64 -4.66902 1.72936 0
M  V30 25033 C 2442.34 -6.09154 3.82523 0
M  V30 25034 C 2444.37 -5.21889 2.78184 0
M  V30 25035 C 2443.73 -5.91998 3.8173 0
M  V30 25036 H 2439.83 -0.781931 -0.010382 0
M  V30 25037 H 2442.41 -1.85672 0.586014 0
M  V30 25038 H 2440.58 -3.72262 -1.10795 0
M  V30 25039 H 2442.31 -3.9288 -0.97093 0
M  V30 25040 H 2439.07 -4.6465 0.916393 0
M  V30 25041 H 2439.49 -5.98063 3.17253 0
M  V30 25042 H 2444.13 -4.12169 0.942153 0
M  V30 25043 H 2441.85 -6.62948 4.62088 0
M  V30 25044 H 2445.44 -5.09816 2.80319 0
M  V30 25045 H 2444.32 -6.33783 4.61832 0
M  V30 25046 N 2441.82 -0.15856 -1.568 0
M  V30 25047 C 2442.73 0.789479 -2.20917 0
M  V30 25048 C 2443.75 1.26292 -1.19693 0
M  V30 25049 O 2444.92 1.3177 -1.52311 0
M  V30 25050 C 2441.99 2.0066 -2.82731 0
M  V30 25051 C 2441.05 1.58127 -3.99117 0
M  V30 25052 C 2440.28 2.74037 -4.57973 0
M  V30 25053 O 2440.51 3.90565 -4.15711 0
M  V30 25054 O 2439.44 2.48845 -5.48051 0
M  V30 25055 H 2443.27 0.273628 -3.02465 0
M  V30 25056 H 2440.85 0.0690286 -1.4924 0
M  V30 25057 H 2442.73 2.71866 -3.21973 0
M  V30 25058 H 2441.41 2.51175 -2.04188 0
M  V30 25059 H 2440.31 0.83909 -3.64568 0
M  V30 25060 H 2441.65 1.12316 -4.79214 0
M  V30 25061 N 2443.3 1.57178 0.115204 0
M  V30 25062 C 2444.52 1.89614 0.840321 0
M  V30 25063 C 2444.95 0.750875 1.72463 0
M  V30 25064 O 2444.31 -0.298447 1.78827 0
M  V30 25065 C 2444.36 3.20817 1.64648 0
M  V30 25066 O 2443.46 3.0699 2.75375 0
M  V30 25067 H 2442.8 0.622096 0.232147 0
M  V30 25068 H 2445.33 2.04372 0.0964618 0
M  V30 25069 H 2445.34 3.53631 2.03493 0
M  V30 25070 H 2444.02 4.03765 0.997345 0
M  V30 25071 H 2442.59 2.8565 2.39705 0
M  V30 25072 N 2444.78 -0.38549 1.52813 0
M  V30 25073 C 2446.19 -0.963265 1.59932 0
M  V30 25074 C 2446.54 -1.90867 0.454335 0
M  V30 25075 O 2445.66 -2.12244 -0.422094 0
M  V30 25076 C 2446.26 -1.75381 2.89874 0
M  V30 25077 C 2444.82 -2.28124 2.99393 0
M  V30 25078 C 2443.97 -1.08779 2.55073 0
M  V30 25079 H 2446.92 -0.164921 1.57841 0
M  V30 25080 H 2446.94 -2.61336 2.76557 0
M  V30 25081 H 2446.45 -1.06548 3.73188 0
M  V30 25082 H 2444.55 -3.00259 2.20624 0
M  V30 25083 H 2444.66 -2.5737 4.04101 0
M  V30 25084 H 2443.03 -1.44886 2.09476 0
M  V30 25085 H 2443.81 -0.414747 3.40785 0
M  V30 25086 N 2446.26 -1.43835 -0.644143 0
M  V30 25087 C 2447.19 -1.45672 -1.76953 0
M  V30 25088 C 2448.2 -0.351694 -1.58956 0
M  V30 25089 O 2449.39 -0.616673 -1.67509 0
M  V30 25090 C 2446.49 -1.26254 -3.14505 0
M  V30 25091 C 2445.66 -2.49763 -3.59078 0
M  V30 25092 C 2444.72 -2.25435 -4.75463 0
M  V30 25093 O 2443.75 -2.98844 -4.84438 0
M  V30 25094 N 2444.95 -1.27671 -5.66287 0
M  V30 25095 H 2447.71 -2.42685 -1.75852 0
M  V30 25096 H 2445.28 -1.39108 -0.828288 0
M  V30 25097 H 2447.27 -1.07847 -3.90066 0
M  V30 25098 H 2445.84 -0.376532 -3.10324 0
M  V30 25099 H 2445.06 -2.83535 -2.73865 0
M  V30 25100 H 2446.35 -3.3194 -3.85607 0
M  V30 25101 H 2445.74 -0.670163 -5.61716 0
M  V30 25102 H 2444.3 -1.15245 -6.41531 0
M  V30 25103 N 2447.73 0.883355 -1.30517 0
M  V30 25104 C 2448.98 1.63207 -1.19197 0
M  V30 25105 C 2449.3 1.9335 0.253171 0
M  V30 25106 O 2448.57 1.57107 1.17022 0
M  V30 25107 H 2447.15 0.605001 -0.438158 0
M  V30 25108 H 2449.81 1.05829 -1.63665 0
M  V30 25109 H 2448.91 2.5815 -1.754 0
M  V30 25110 N 2449.21 1.13259 1.09591 0
M  V30 25111 C 2450.14 0.766205 2.16014 0
M  V30 25112 C 2451.16 -0.211274 1.61423 0
M  V30 25113 O 2452.35 0.00867083 1.78498 0
M  V30 25114 C 2449.45 0.114722 3.38706 0
M  V30 25115 C 2448.62 1.12387 4.22715 0
M  V30 25116 C 2447.68 0.498393 5.23834 0
M  V30 25117 O 2446.7 1.15791 5.57298 0
M  V30 25118 N 2447.91 -0.730316 5.75888 0
M  V30 25119 H 2450.67 1.68197 2.48052 0
M  V30 25120 H 2448.23 1.02537 1.25291 0
M  V30 25121 H 2450.22 -0.31592 4.03465 0
M  V30 25122 H 2448.79 -0.703957 3.04571 0
M  V30 25123 H 2448.01 1.73186 3.54119 0
M  V30 25124 H 2449.3 1.80597 4.7567 0
M  V30 25125 H 2448.7 -1.28494 5.50913 0
M  V30 25126 H 2447.26 -1.10365 6.42388 0
M  V30 25127 N 2450.69 -1.27539 0.925834 0
M  V30 25128 C 2451.94 -1.94738 0.566126 0
M  V30 25129 C 2452.27 -1.72604 -0.890026 0
M  V30 25130 O 2451.54 -1.05402 -1.63465 0
M  V30 25131 C 2451.83 -3.48913 0.890601 0
M  V30 25132 C 2451.68 -3.80398 2.40037 0
M  V30 25133 C 2453 -4.38322 0.395178 0
M  V30 25134 H 2450.12 -0.707288 0.207152 0
M  V30 25135 H 2452.76 -1.50689 1.15727 0
M  V30 25136 H 2450.91 -3.86562 0.38752 0
M  V30 25137 H 2452.58 -3.5255 2.975 0
M  V30 25138 H 2450.82 -3.27015 2.85033 0
M  V30 25139 H 2451.5 -4.88105 2.57793 0
M  V30 25140 H 2453.97 -4.07813 0.826312 0
M  V30 25141 H 2452.85 -5.45024 0.651181 0
M  V30 25142 H 2453.11 -4.36447 -0.704721 0
M  V30 25143 N 2452.17 -0.691135 -1.41637 0
M  V30 25144 C 2453.39 -0.227619 -2.06147 0
M  V30 25145 C 2453.82 1.11278 -1.51654 0
M  V30 25146 O 2453.18 1.69565 -0.64167 0
M  V30 25147 C 2453.22 -0.190922 -3.60094 0
M  V30 25148 O 2452.33 0.835593 -4.03846 0
M  V30 25149 H 2451.67 -0.112318 -0.654432 0
M  V30 25150 H 2454.2 -0.944746 -1.81482 0
M  V30 25151 H 2454.21 -0.0202787 -4.07995 0
M  V30 25152 H 2452.88 -1.16922 -3.99127 0
M  V30 25153 H 2451.46 0.634665 -3.67459 0
M  V30 25154 N 2453.65 1.51461 -0.435577 0
M  V30 25155 C 2455.06 1.59358 -0.0877782 0
M  V30 25156 C 2455.26 1.44663 1.40267 0
M  V30 25157 O 2454.32 1.28696 2.17241 0
M  V30 25158 C 2455.63 2.94524 -0.606316 0
M  V30 25159 C 2457.18 3.07829 -0.566602 0
M  V30 25160 C 2457.65 4.45515 -1.06208 0
M  V30 25161 N 2459.14 4.5183 -1.02 0
M  V30 25162 C 2459.88 5.56688 -1.37427 0
M  V30 25163 N 2459.38 6.68973 -1.80131 0
M  V30 25164 N 2461.17 5.47037 -1.29255 0
M  V30 25165 H 2453.32 1.59259 -1.40536 0
M  V30 25166 H 2455.58 0.750638 -0.579005 0
M  V30 25167 H 2455.29 3.10642 -1.64906 0
M  V30 25168 H 2455.16 3.77188 -0.030276 0
M  V30 25169 H 2457.55 2.91379 0.467157 0
M  V30 25170 H 2457.63 2.27008 -1.17902 0
M  V30 25171 H 2457.27 4.62711 -2.0943 0
M  V30 25172 H 2457.2 5.24872 -0.426219 0
M  V30 25173 H 2459.7 3.7124 -0.706373 0
M  V30 25174 H 2460.01 7.45002 -2.05405 0
M  V30 25175 H 2458.35 6.70185 -1.84056 0
M  V30 25176 H 2461.54 4.582 -0.957602 0
M  V30 25177 H 2461.72 6.28645 -1.57193 0
M  V30 25178 N 2455.12 0.166873 1.56714 0
M  V30 25179 C 2456.35 -0.484905 2.00829 0
M  V30 25180 C 2456.76 -1.57646 1.04615 0
M  V30 25181 O 2456.11 -1.8366 0.0383524 0
M  V30 25182 C 2456.17 -1.12717 3.41372 0
M  V30 25183 C 2455.83 -0.177806 4.56654 0
M  V30 25184 C 2456.83 0.602161 5.16401 0
M  V30 25185 C 2454.51 -0.0749256 5.02244 0
M  V30 25186 C 2456.51 1.47225 6.20164 0
M  V30 25187 C 2454.19 0.798756 6.05857 0
M  V30 25188 C 2455.19 1.57093 6.64688 0
M  V30 25189 O 2454.88 2.43002 7.66293 0
M  V30 25190 H 2454.61 -0.128941 0.663589 0
M  V30 25191 H 2457.17 0.264401 2.03691 0
M  V30 25192 H 2455.4 -1.92451 3.35409 0
M  V30 25193 H 2457.09 -1.6807 3.69469 0
M  V30 25194 H 2457.85 0.532825 4.82064 0
M  V30 25195 H 2453.73 -0.665732 4.56168 0
M  V30 25196 H 2457.27 2.07543 6.66012 0
M  V30 25197 H 2453.17 0.869311 6.3962 0
M  V30 25198 H 2453.94 2.36469 7.83597 0
M  V30 25199 N 2456.6 -1.57237 -0.106866 0
M  V30 25200 C 2458.02 -1.52805 -0.460753 0
M  V30 25201 C 2458.22 -0.881778 -1.81182 0
M  V30 25202 O 2457.27 -0.469268 -2.48101 0
M  V30 25203 C 2458.59 -2.9755 -0.434074 0
M  V30 25204 C 2460.14 -3.08705 -0.516767 0
M  V30 25205 C 2460.61 -4.55034 -0.520356 0
M  V30 25206 N 2462.1 -4.59536 -0.581449 0
M  V30 25207 C 2462.84 -5.7019 -0.605872 0
M  V30 25208 N 2462.33 -6.90307 -0.58721 0
M  V30 25209 N 2464.13 -5.58331 -0.649797 0
M  V30 25210 H 2456.28 -1.97629 0.778238 0
M  V30 25211 H 2458.54 -0.903061 0.288418 0
M  V30 25212 H 2458.25 -3.48252 0.491258 0
M  V30 25213 H 2458.12 -3.55625 -1.25742 0
M  V30 25214 H 2460.51 -2.57998 -1.43252 0
M  V30 25215 H 2460.59 -2.53604 0.334494 0
M  V30 25216 H 2460.23 -5.0639 0.391402 0
M  V30 25217 H 2460.16 -5.0796 -1.38867 0
M  V30 25218 H 2462.65 -3.73082 -0.601544 0
M  V30 25219 H 2462.97 -7.70398 -0.608804 0
M  V30 25220 H 2461.31 -6.92785 -0.554442 0
M  V30 25221 H 2464.5 -4.63398 -0.661825 0
M  V30 25222 H 2464.67 -6.44575 -0.665363 0
M  V30 25223 N 2458.08 0.377381 -1.53015 0
M  V30 25224 C 2459.33 1.12291 -1.68874 0
M  V30 25225 C 2459.66 1.89305 -0.433257 0
M  V30 25226 O 2458.93 1.85984 0.569225 0
M  V30 25227 C 2459.22 2.09173 -2.93119 0
M  V30 25228 C 2459.07 1.35846 -4.28796 0
M  V30 25229 C 2460.39 3.09452 -3.12934 0
M  V30 25230 H 2457.51 0.406851 -0.614525 0
M  V30 25231 H 2460.15 0.404997 -1.85633 0
M  V30 25232 H 2458.3 2.70394 -2.78961 0
M  V30 25233 H 2459.97 0.775002 -4.54743 0
M  V30 25234 H 2458.22 0.660289 -4.28745 0
M  V30 25235 H 2458.89 2.06697 -5.1184 0
M  V30 25236 H 2461.36 2.58328 -3.26199 0
M  V30 25237 H 2460.24 3.74474 -4.01323 0
M  V30 25238 H 2460.5 3.78967 -2.27676 0
M  V30 25239 N 2459.56 1.44175 0.636506 0
M  V30 25240 C 2460.79 1.50147 1.4235 0
M  V30 25241 C 2461.2 0.124608 1.88388 0
M  V30 25242 O 2460.56 -0.868461 1.60512 0
M  V30 25243 C 2460.61 2.46161 2.6474 0
M  V30 25244 O 2460.33 3.78494 2.20622 0
M  V30 25245 C 2461.83 2.61543 3.57925 0
M  V30 25246 H 2459.05 0.509408 0.436743 0
M  V30 25247 H 2461.6 1.89086 0.7789 0
M  V30 25248 H 2459.75 2.10372 3.25303 0
M  V30 25249 H 2460.16 4.30281 2.99931 0
M  V30 25250 H 2461.64 3.32764 4.40422 0
M  V30 25251 H 2462.12 1.66592 4.06379 0
M  V30 25252 H 2462.72 2.98211 3.03233 0
M  V30 25253 N 2461.04 -0.876421 1.30983 0
M  V30 25254 C 2462.27 -1.65947 1.23066 0
M  V30 25255 C 2462.67 -1.88059 -0.207504 0
M  V30 25256 O 2462.02 -1.43428 -1.14779 0
M  V30 25257 C 2462.08 -3.0533 1.89773 0
M  V30 25258 C 2461.74 -3.06354 3.39111 0
M  V30 25259 C 2462.74 -2.84784 4.34965 0
M  V30 25260 C 2460.43 -3.2768 3.80699 0
M  V30 25261 C 2462.42 -2.84509 5.7038 0
M  V30 25262 C 2460.11 -3.27033 5.16229 0
M  V30 25263 C 2461.1 -3.05474 6.1088 0
M  V30 25264 O 2460.79 -3.0466 7.43934 0
M  V30 25265 H 2460.52 -0.524317 0.426694 0
M  V30 25266 H 2463.08 -1.10268 1.73292 0
M  V30 25267 H 2461.31 -3.62708 1.34088 0
M  V30 25268 H 2463 -3.65825 1.75859 0
M  V30 25269 H 2463.76 -2.68096 4.04165 0
M  V30 25270 H 2459.64 -3.43493 3.07463 0
M  V30 25271 H 2463.19 -2.676 6.44233 0
M  V30 25272 H 2459.08 -3.43259 5.46666 0
M  V30 25273 H 2459.85 -3.20767 7.53028 0
M  V30 25274 N 2462.51 -1.13839 -1.08989 0
M  V30 25275 C 2463.74 -0.926618 -1.85549 0
M  V30 25276 C 2464.16 0.519534 -1.80783 0
M  V30 25277 O 2463.52 1.36903 -1.18858 0
M  V30 25278 C 2463.57 -1.42468 -3.31263 0
M  V30 25279 O 2462.67 -0.612861 -4.07821 0
M  V30 25280 H 2462.02 -0.331748 -0.575186 0
M  V30 25281 H 2464.55 -1.51416 -1.37602 0
M  V30 25282 H 2464.56 -1.43025 -3.8211 0
M  V30 25283 H 2463.23 -2.4776 -3.34048 0
M  V30 25284 H 2461.81 -0.675528 -3.6673 0
M  V30 25285 N 2463.99 1.27046 -0.932584 0
M  V30 25286 C 2465.22 1.98786 -0.591509 0
M  V30 25287 C 2465.64 1.69063 0.824571 0
M  V30 25288 O 2465 0.933704 1.55408 0
M  V30 25289 C 2465.05 3.50921 -0.82987 0
M  V30 25290 O 2464.15 4.12273 0.102194 0
M  V30 25291 H 2463.49 0.623922 -0.227196 0
M  V30 25292 H 2466.02 1.61731 -1.25317 0
M  V30 25293 H 2466.03 4.01097 -0.747362 0
M  V30 25294 H 2464.71 3.71886 -1.86208 0
M  V30 25295 H 2463.29 3.72887 -0.0306417 0
M  V30 25296 N 2465.47 0.698636 1.41269 0
M  V30 25297 C 2466.88 0.305321 1.84187 0
M  V30 25298 C 2467.23 -1.15705 1.58451 0
M  V30 25299 O 2466.36 -1.88855 1.05655 0
M  V30 25300 C 2466.95 0.547373 3.34349 0
M  V30 25301 C 2465.51 0.207944 3.75825 0
M  V30 25302 C 2464.66 0.828145 2.64645 0
M  V30 25303 H 2467.61 0.899063 1.30777 0
M  V30 25304 H 2467.63 -0.192931 3.80011 0
M  V30 25305 H 2467.14 1.61178 3.53048 0
M  V30 25306 H 2465.24 -0.852079 3.62726 0
M  V30 25307 H 2465.36 0.665105 4.74461 0
M  V30 25308 H 2463.72 0.257503 2.53395 0
M  V30 25309 H 2464.5 1.89648 2.86161 0
M  V30 25310 N 2466.95 -1.51228 0.443603 0
M  V30 25311 C 2467.86 -2.31653 -0.37068 0
M  V30 25312 C 2468.87 -1.40835 -1.02183 0
M  V30 25313 O 2470.05 -1.73905 -1.01583 0
M  V30 25314 C 2467.12 -3.14751 -1.4537 0
M  V30 25315 C 2466.18 -4.21356 -0.822025 0
M  V30 25316 C 2465.41 -5.00483 -1.85344 0
M  V30 25317 O 2465.63 -4.80322 -3.07648 0
M  V30 25318 O 2464.57 -5.84409 -1.44049 0
M  V30 25319 H 2468.39 -3.0235 0.286055 0
M  V30 25320 H 2465.98 -1.47973 0.206006 0
M  V30 25321 H 2467.86 -3.66394 -2.08166 0
M  V30 25322 H 2466.53 -2.46812 -2.09441 0
M  V30 25323 H 2465.44 -3.73775 -0.155843 0
M  V30 25324 H 2466.77 -4.91687 -0.22471 0
M  V30 25325 N 2468.43 -0.175182 -1.56623 0
M  V30 25326 C 2469.7 0.51534 -1.88689 0
M  V30 25327 C 2470.08 1.81042 -1.08567 0
M  V30 25328 O 2469.43 2.27784 -0.180743 0
M  V30 25329 C 2469.64 0.753492 -3.40769 0
M  V30 25330 C 2470.99 1.08177 -4.10588 0
M  V30 25331 O 2472.01 0.8419 -3.46108 0
M  V30 25332 O 2470.87 1.5345 -5.24514 0
M  V30 25333 H 2467.97 0.266116 -0.783014 0
M  V30 25334 H 2470.51 -0.213907 -1.68346 0
M  V30 25335 H 2469.28 -0.161898 -3.90965 0
M  V30 25336 H 2468.91 1.53592 -3.66736 0
M  V30 25337 N 2469.91 1.57292 0.0985263 0
M  V30 25338 C 2471.15 1.85546 0.80106 0
M  V30 25339 C 2471.47 0.763385 1.79436 0
M  V30 25340 O 2470.74 -0.210696 1.94764 0
M  V30 25341 H 2469.32 0.684625 0.298828 0
M  V30 25342 H 2471.99 1.94732 0.0809722 0
M  V30 25343 H 2471.08 2.82166 1.33375 0
M  V30 25344 N 2471.38 -0.369261 1.53213 0
M  V30 25345 C 2472.63 -1.10958 1.68438 0
M  V30 25346 C 2472.95 -1.90569 0.440771 0
M  V30 25347 O 2474.15 -2.67339 0.473493 0
M  V30 25348 C 2472.61 -2.02174 2.97747 0
M  V30 25349 C 2472.22 -1.27892 4.29357 0
M  V30 25350 C 2473.96 -2.76221 3.22339 0
M  V30 25351 C 2471.87 -2.17989 5.49759 0
M  V30 25352 H 2470.8 -0.417929 0.627576 0
M  V30 25353 H 2473.45 -0.370853 1.79713 0
M  V30 25354 H 2471.83 -2.79763 2.80265 0
M  V30 25355 H 2473 -0.553926 4.57459 0
M  V30 25356 H 2471.32 -0.657239 4.1118 0
M  V30 25357 H 2473.92 -3.4385 4.09477 0
M  V30 25358 H 2474.26 -3.41387 2.38244 0
M  V30 25359 H 2474.79 -2.05717 3.40478 0
M  V30 25360 H 2471.53 -1.57406 6.3632 0
M  V30 25361 H 2471.05 -2.88349 5.25942 0
M  V30 25362 H 2472.73 -2.77631 5.84406 0
M  V30 25363 N 2472.86 -1.4451 -0.628851 0
M  V30 25364 C 2473.81 -1.47986 -1.73448 0
M  V30 25365 C 2474.8 -0.3454 -1.57149 0
M  V30 25366 O 2475.99 -0.590859 -1.66847 0
M  V30 25367 C 2473.12 -1.42909 -3.12141 0
M  V30 25368 C 2472.2 -2.61478 -3.33901 0
M  V30 25369 N 2472.59 -3.86712 -3.26017 0
M  V30 25370 C 2470.89 -2.56723 -3.64705 0
M  V30 25371 C 2471.59 -4.65728 -3.48528 0
M  V30 25372 N 2470.57 -3.96839 -3.7151 0
M  V30 25373 H 2474.37 -2.42658 -1.65814 0
M  V30 25374 H 2471.88 -1.39505 -0.831395 0
M  V30 25375 H 2473.88 -1.43483 -3.91431 0
M  V30 25376 H 2472.54 -0.492774 -3.20939 0
M  V30 25377 H 2473.55 -4.18647 -3.04886 0
M  V30 25378 H 2470.23 -1.71897 -3.8047 0
M  V30 25379 H 2471.62 -5.74753 -3.48006 0
M  V30 25380 N 2474.34 0.869463 -1.31446 0
M  V30 25381 C 2475.25 2.00927 -1.211 0
M  V30 25382 C 2476.27 1.73531 -0.127615 0
M  V30 25383 O 2477.44 1.98414 -0.345512 0
M  V30 25384 C 2474.51 3.34286 -0.919437 0
M  V30 25385 C 2473.57 3.75002 -2.08978 0
M  V30 25386 C 2472.8 5.01997 -1.81202 0
M  V30 25387 O 2473.02 5.65482 -0.747395 0
M  V30 25388 O 2471.96 5.39492 -2.66893 0
M  V30 25389 H 2475.78 2.12588 -2.16887 0
M  V30 25390 H 2473.37 0.997848 -1.11191 0
M  V30 25391 H 2475.25 4.14255 -0.772698 0
M  V30 25392 H 2473.93 3.23699 0.00839082 0
M  V30 25393 H 2472.83 2.95672 -2.29192 0
M  V30 25394 H 2474.17 3.90216 -2.99987 0
M  V30 25395 N 2475.82 1.14415 1.08383 0
M  V30 25396 C 2476.75 0.854082 2.17319 0
M  V30 25397 C 2477.73 -0.19102 1.69024 0
M  V30 25398 O 2478.91 -0.0476438 1.94142 0
M  V30 25399 C 2476.04 0.331044 3.45719 0
M  V30 25400 C 2475 1.31162 4.07407 0
M  V30 25401 C 2474.32 0.647873 5.3076 0
M  V30 25402 C 2475.62 2.67396 4.48661 0
M  V30 25403 H 2477.32 1.76502 2.41842 0
M  V30 25404 H 2474.86 0.850071 1.16232 0
M  V30 25405 H 2476.82 0.115719 4.21241 0
M  V30 25406 H 2475.54 -0.615324 3.20751 0
M  V30 25407 H 2474.2 1.51312 3.33917 0
M  V30 25408 H 2473.85 -0.304309 5.02079 0
M  V30 25409 H 2473.55 1.30217 5.7299 0
M  V30 25410 H 2475.07 0.442079 6.08998 0
M  V30 25411 H 2476.49 2.51153 5.15359 0
M  V30 25412 H 2474.88 3.29102 5.01809 0
M  V30 25413 H 2475.95 3.24254 3.60537 0
M  V30 25414 N 2477.3 -1.26549 0.939309 0
M  V30 25415 C 2478.54 -1.93839 0.585881 0
M  V30 25416 C 2478.87 -1.73719 -0.874753 0
M  V30 25417 O 2478.13 -1.06645 -1.6409 0
M  V30 25418 C 2478.42 -3.46595 0.872167 0
M  V30 25419 C 2478.09 -3.86852 2.31638 0
M  V30 25420 C 2476.75 -3.97553 2.71118 0
M  V30 25421 C 2479.1 -4.07061 3.25501 0
M  V30 25422 C 2476.43 -4.25859 4.03561 0
M  V30 25423 C 2478.78 -4.36854 4.57538 0
M  V30 25424 C 2477.45 -4.4577 4.96836 0
M  V30 25425 H 2476.72 -0.709308 0.214389 0
M  V30 25426 H 2479.37 -1.50396 1.18546 0
M  V30 25427 H 2477.67 -3.91339 0.190029 0
M  V30 25428 H 2479.37 -3.9682 0.577512 0
M  V30 25429 H 2475.96 -3.79068 2.00014 0
M  V30 25430 H 2480.14 -3.98222 2.96197 0
M  V30 25431 H 2475.4 -4.30973 4.33673 0
M  V30 25432 H 2479.57 -4.51437 5.30262 0
M  V30 25433 H 2477.2 -4.67457 5.9949 0
M  V30 25434 N 2478.77 -0.706118 -1.40896 0
M  V30 25435 C 2480.18 -0.315085 -1.84022 0
M  V30 25436 C 2480.54 1.14863 -1.59062 0
M  V30 25437 O 2479.66 1.88292 -1.06655 0
M  V30 25438 C 2480.26 -0.565097 -3.34054 0
M  V30 25439 C 2478.81 -0.227872 -3.7571 0
M  V30 25440 C 2477.96 -0.842168 -2.64202 0
M  V30 25441 H 2480.91 -0.905986 -1.30298 0
M  V30 25442 H 2480.93 0.172776 -3.80108 0
M  V30 25443 H 2480.45 -1.63048 -3.52189 0
M  V30 25444 H 2478.55 0.832831 -3.63173 0
M  V30 25445 H 2478.66 -0.690257 -4.74102 0
M  V30 25446 H 2477.02 -0.270938 -2.53255 0
M  V30 25447 H 2477.81 -1.91163 -2.85152 0
M  V30 25448 N 2480.25 1.50991 -0.451617 0
M  V30 25449 C 2481.21 2.26648 0.341077 0
M  V30 25450 C 2482.21 1.3065 0.937399 0
M  V30 25451 O 2483.4 1.54243 0.809617 0
M  V30 25452 C 2480.54 3.06908 1.48392 0
M  V30 25453 H 2481.73 2.98165 -0.322169 0
M  V30 25454 H 2479.28 1.54948 -0.205149 0
M  V30 25455 H 2480.02 2.39842 2.1828 0
M  V30 25456 H 2479.8 3.77434 1.06235 0
M  V30 25457 H 2481.29 3.64179 2.04361 0
M  V30 25458 N 2481.73 0.183486 1.56528 0
M  V30 25459 C 2483.14 -0.331144 1.8374 0
M  V30 25460 C 2483.49 -1.62209 1.10375 0
M  V30 25461 O 2482.62 -2.13372 0.360747 0
M  V30 25462 C 2483.21 -0.607587 3.33307 0
M  V30 25463 C 2481.77 -1.06662 3.60971 0
M  V30 25464 C 2480.92 -0.10898 2.77086 0
M  V30 25465 H 2483.87 0.407511 1.53379 0
M  V30 25466 H 2483.89 -1.45826 3.51447 0
M  V30 25467 H 2483.4 0.332154 3.86676 0
M  V30 25468 H 2481.5 -2.02104 3.13025 0
M  V30 25469 H 2481.62 -0.967364 4.69232 0
M  V30 25470 H 2479.98 -0.60867 2.4732 0
M  V30 25471 H 2480.76 0.824998 3.3324 0
M  V30 25472 N 2483.21 -1.57342 -0.0901833 0
M  V30 25473 C 2484.48 -1.77363 -0.82473 0
M  V30 25474 C 2484.86 -0.766404 -1.96696 0
M  V30 25475 O 2484.21 0.204139 -2.27586 0
M  V30 25476 C 2484.42 -3.23288 -1.31476 0
M  V30 25477 C 2485.77 -3.86607 -1.75556 0
M  V30 25478 O 2486.79 -3.27067 -1.41087 0
M  V30 25479 O 2485.65 -4.91318 -2.39309 0
M  V30 25480 H 2482.75 -0.727241 -0.393764 0
M  V30 25481 H 2485.29 -1.69549 -0.071684 0
M  V30 25482 H 2484.07 -3.88136 -0.496603 0
M  V30 25483 H 2483.69 -3.35754 -2.12967 0
M  V30 25484 N 2484.69 0.36113 -1.53407 0
M  V30 25485 C 2485.93 1.10112 -1.69469 0
M  V30 25486 C 2486.26 1.89704 -0.451385 0
M  V30 25487 O 2485.53 1.88464 0.534602 0
M  V30 25488 H 2484.11 0.409498 -0.624757 0
M  V30 25489 H 2486.77 0.406666 -1.9061 0
M  V30 25490 H 2485.86 1.78843 -2.55777 0
M  V30 25491 N 2486.16 1.44842 0.621179 0
M  V30 25492 C 2487.07 1.54983 1.76117 0
M  V30 25493 C 2488.09 0.434957 1.68476 0
M  V30 25494 O 2489.27 0.693726 1.89075 0
M  V30 25495 C 2486.33 1.5007 3.12538 0
M  V30 25496 C 2485.39 2.72488 3.31736 0
M  V30 25497 C 2484.63 2.678 4.61648 0
M  V30 25498 O 2484.85 1.74361 5.43097 0
M  V30 25499 O 2483.78 3.58802 4.83265 0
M  V30 25500 H 2487.61 2.51314 1.70514 0
M  V30 25501 H 2485.19 1.272 0.783621 0
M  V30 25502 H 2487.08 1.49889 3.93842 0
M  V30 25503 H 2485.75 0.568862 3.18662 0
M  V30 25504 H 2484.66 2.78235 2.50072 0
M  V30 25505 H 2485.99 3.64752 3.3048 0
M  V30 25506 N 2487.64 -0.862479 1.31905 0
M  V30 25507 C 2488.55 -2.00282 1.22164 0
M  V30 25508 C 2489.57 -1.73461 0.136816 0
M  V30 25509 O 2490.74 -1.98228 0.356029 0
M  V30 25510 C 2487.81 -3.33794 0.937152 0
M  V30 25511 C 2486.87 -3.73889 2.10963 0
M  V30 25512 C 2486.1 -5.01029 1.83862 0
M  V30 25513 O 2486.33 -5.65078 0.777373 0
M  V30 25514 O 2485.26 -5.38069 2.6975 0
M  V30 25515 H 2489.09 -2.11435 2.18011 0
M  V30 25516 H 2486.67 -0.991937 1.11718 0
M  V30 25517 H 2488.55 -4.1384 0.794656 0
M  V30 25518 H 2487.23 -3.23699 0.00877584 0
M  V30 25519 H 2486.14 -2.94452 2.30757 0
M  V30 25520 H 2487.47 -3.88619 3.02053 0
M  V30 25521 N 2489.12 -1.14988 -1.07775 0
M  V30 25522 C 2490.4 -0.832726 -1.76989 0
M  V30 25523 C 2490.78 0.672525 -2.00101 0
M  V30 25524 O 2490.13 1.61547 -1.61601 0
M  V30 25525 C 2490.34 -1.63869 -3.08136 0
M  V30 25526 C 2491.68 -1.84215 -3.82557 0
M  V30 25527 O 2492.71 -1.60609 -3.17936 0
M  V30 25528 O 2491.57 -2.23723 -4.98608 0
M  V30 25529 H 2488.66 -0.305804 -0.768383 0
M  V30 25530 H 2491.21 -1.25543 -1.14179 0
M  V30 25531 H 2489.98 -2.66085 -2.86905 0
M  V30 25532 H 2489.6 -1.21203 -3.78676 0
M  V30 25533 N 2490.6 1.26049 -0.946007 0
M  V30 25534 C 2491.83 1.97609 -0.613059 0
M  V30 25535 C 2492.24 1.70399 0.813005 0
M  V30 25536 O 2491.6 0.975006 1.54272 0
M  V30 25537 C 2491.65 3.51325 -0.851651 0
M  V30 25538 O 2491.37 3.77591 -2.22163 0
M  V30 25539 C 2492.87 4.40121 -0.529909 0
M  V30 25540 H 2490.09 0.630129 -0.230604 0
M  V30 25541 H 2492.64 1.60441 -1.26803 0
M  V30 25542 H 2490.79 3.86636 -0.243219 0
M  V30 25543 H 2491.2 4.72096 -2.28528 0
M  V30 25544 H 2492.68 5.46916 -0.747444 0
M  V30 25545 H 2493.16 4.35926 0.535264 0
M  V30 25546 H 2493.76 4.10362 -1.11728 0
M  V30 25547 N 2492.08 0.71358 1.4052 0
M  V30 25548 C 2493.04 0.068475 2.29098 0
M  V30 25549 C 2494.04 -0.689446 1.4527 0
M  V30 25550 O 2495.23 -0.521648 1.66206 0
M  V30 25551 C 2492.36 -0.912966 3.28447 0
M  V30 25552 H 2493.55 0.848601 2.87643 0
M  V30 25553 H 2491.11 0.478116 1.48808 0
M  V30 25554 H 2491.84 -1.72022 2.74916 0
M  V30 25555 H 2491.63 -0.372403 3.90328 0
M  V30 25556 H 2493.12 -1.36158 3.9478 0
M  V30 25557 N 2493.55 -1.50749 0.459618 0
M  V30 25558 C 2494.46 -2.32033 -0.346089 0
M  V30 25559 C 2495.48 -1.41911 -1.00684 0
M  V30 25560 O 2496.66 -1.74972 -0.99733 0
M  V30 25561 C 2493.72 -3.16276 -1.42024 0
M  V30 25562 C 2492.78 -4.22205 -0.777288 0
M  V30 25563 C 2492.02 -5.02421 -1.80025 0
M  V30 25564 O 2492.24 -4.83558 -3.02536 0
M  V30 25565 O 2491.17 -5.85904 -1.37843 0
M  V30 25566 H 2495 -3.02029 0.318107 0
M  V30 25567 H 2492.58 -1.47746 0.221689 0
M  V30 25568 H 2494.47 -3.68581 -2.04269 0
M  V30 25569 H 2493.14 -2.4902 -2.06811 0
M  V30 25570 H 2492.05 -3.7392 -0.11619 0
M  V30 25571 H 2493.38 -4.91897 -0.172548 0
M  V30 25572 N 2495.03 -0.191784 -1.56429 0
M  V30 25573 C 2495.96 0.725657 -2.21938 0
M  V30 25574 C 2496.94 1.22378 -1.18142 0
M  V30 25575 O 2498.13 1.27322 -1.46638 0
M  V30 25576 C 2495.26 1.94667 -2.87615 0
M  V30 25577 C 2494.21 1.58359 -3.97626 0
M  V30 25578 C 2493.54 2.88094 -4.50451 0
M  V30 25579 C 2494.84 0.796042 -5.16198 0
M  V30 25580 H 2496.53 0.179554 -2.98861 0
M  V30 25581 H 2494.08 0.0849212 -1.43749 0
M  V30 25582 H 2496.03 2.59367 -3.32124 0
M  V30 25583 H 2494.76 2.51725 -2.08092 0
M  V30 25584 H 2493.41 0.960185 -3.53802 0
M  V30 25585 H 2493.06 3.43235 -3.67694 0
M  V30 25586 H 2492.76 2.64547 -5.2468 0
M  V30 25587 H 2494.29 3.53789 -4.9766 0
M  V30 25588 H 2495.7 1.34608 -5.57273 0
M  V30 25589 H 2494.1 0.658823 -5.96473 0
M  V30 25590 H 2495.17 -0.203563 -4.84473 0
M  V30 25591 N 2496.51 1.57387 0.0818378 0
M  V30 25592 C 2497.44 1.99702 1.1248 0
M  V30 25593 C 2498.46 0.901484 1.35562 0
M  V30 25594 O 2499.64 1.17948 1.3398 0
M  V30 25595 C 2496.74 2.31217 2.47774 0
M  V30 25596 C 2495.92 3.62489 2.44786 0
M  V30 25597 C 2494.98 3.81789 3.6211 0
M  V30 25598 O 2494 4.53492 3.43997 0
M  V30 25599 N 2495.2 3.23375 4.82088 0
M  V30 25600 H 2497.97 2.89784 0.764534 0
M  V30 25601 H 2495.53 1.59622 0.270636 0
M  V30 25602 H 2497.52 2.4131 3.24887 0
M  V30 25603 H 2496.09 1.47075 2.7584 0
M  V30 25604 H 2495.31 3.63243 1.53128 0
M  V30 25605 H 2496.6 4.48703 2.39881 0
M  V30 25606 H 2496 2.65157 4.99708 0
M  V30 25607 H 2494.56 3.38933 5.56747 0
M  V30 25608 N 2497.99 -0.35299 1.53596 0
M  V30 25609 C 2499.24 -1.09212 1.70051 0
M  V30 25610 C 2499.56 -1.89462 0.46144 0
M  V30 25611 O 2498.83 -1.88745 -0.5246 0
M  V30 25612 H 2497.41 -0.406179 0.626919 0
M  V30 25613 H 2500.07 -0.396551 1.90823 0
M  V30 25614 H 2499.17 -1.77484 2.56722 0
M  V30 25615 N 2499.47 -1.45169 -0.613489 0
M  V30 25616 C 2500.4 -1.56228 -1.73537 0
M  V30 25617 C 2501.38 -0.414169 -1.64981 0
M  V30 25618 O 2502.56 -0.636558 -1.83471 0
M  V30 25619 C 2499.69 -1.523 -3.12125 0
M  V30 25620 C 2498.65 -2.65768 -3.35487 0
M  V30 25621 C 2497.97 -2.46893 -4.74287 0
M  V30 25622 C 2499.27 -4.07816 -3.26318 0
M  V30 25623 H 2500.97 -2.50135 -1.64538 0
M  V30 25624 H 2498.51 -1.20384 -0.790164 0
M  V30 25625 H 2500.47 -1.58635 -3.90401 0
M  V30 25626 H 2499.19 -0.549195 -3.21949 0
M  V30 25627 H 2497.85 -2.58852 -2.59598 0
M  V30 25628 H 2497.5 -1.47665 -4.80837 0
M  V30 25629 H 2497.2 -3.22981 -4.90874 0
M  V30 25630 H 2498.72 -2.55073 -5.5477 0
M  V30 25631 H 2500.14 -4.16007 -3.94476 0
M  V30 25632 H 2498.53 -4.84247 -3.54437 0
M  V30 25633 H 2499.6 -4.3014 -2.23847 0
M  V30 25634 N 2500.95 0.855472 -1.32361 0
M  V30 25635 C 2502.36 1.14355 -1.11334 0
M  V30 25636 C 2502.56 2.01217 0.106716 0
M  V30 25637 O 2501.62 2.39762 0.791849 0
M  V30 25638 C 2502.93 1.82167 -2.3924 0
M  V30 25639 C 2504.48 1.94805 -2.44989 0
M  V30 25640 C 2504.95 2.66033 -3.72814 0
M  V30 25641 N 2506.44 2.73558 -3.73791 0
M  V30 25642 C 2507.18 3.29319 -4.694 0
M  V30 25643 N 2506.68 3.85897 -5.75374 0
M  V30 25644 N 2508.47 3.27415 -4.56898 0
M  V30 25645 H 2500.62 0.27699 -2.10586 0
M  V30 25646 H 2502.88 0.185348 -0.929704 0
M  V30 25647 H 2502.59 1.25796 -3.28433 0
M  V30 25648 H 2502.46 2.8233 -2.50139 0
M  V30 25649 H 2504.85 2.50336 -1.56256 0
M  V30 25650 H 2504.93 0.936406 -2.38044 0
M  V30 25651 H 2504.57 2.11166 -4.61921 0
M  V30 25652 H 2504.5 3.67635 -3.7703 0
M  V30 25653 H 2507 2.33419 -2.97193 0
M  V30 25654 H 2507.31 4.26599 -6.44386 0
M  V30 25655 H 2505.65 3.84232 -5.7913 0
M  V30 25656 H 2508.84 2.82461 -3.73274 0
M  V30 25657 H 2509.02 3.70571 -5.31584 0
M  V30 25658 N 2502.42 1.15558 1.07164 0
M  V30 25659 C 2503.83 0.940721 1.61268 0
M  V30 25660 C 2504.19 -0.517518 1.89252 0
M  V30 25661 O 2503.31 -1.389 1.65939 0
M  V30 25662 C 2503.91 1.70125 2.9299 0
M  V30 25663 C 2502.46 1.53162 3.43829 0
M  V30 25664 C 2501.61 1.71562 2.17857 0
M  V30 25665 H 2504.56 1.30556 0.902267 0
M  V30 25666 H 2504.58 1.17187 3.62005 0
M  V30 25667 H 2504.1 2.76253 2.72591 0
M  V30 25668 H 2502.2 0.494359 3.69306 0
M  V30 25669 H 2502.31 2.30983 4.19743 0
M  V30 25670 H 2500.67 1.14229 2.27648 0
M  V30 25671 H 2501.46 2.7906 1.99951 0
M  V30 25672 N 2503.9 -1.25546 0.952678 0
M  V30 25673 C 2505.15 -1.92825 0.605209 0
M  V30 25674 C 2505.47 -1.75 -0.860231 0
M  V30 25675 O 2504.74 -1.11247 -1.61248 0
M  V30 25676 H 2503.32 -0.713608 0.220844 0
M  V30 25677 H 2505.98 -1.52751 1.2105 0
M  V30 25678 H 2505.08 -3.00782 0.832851 0
M  V30 25679 N 2505.38 -0.721022 -1.40139 0
M  V30 25680 C 2506.6 -0.271295 -2.05618 0
M  V30 25681 C 2507.03 1.08036 -1.5398 0
M  V30 25682 O 2506.39 1.68166 -0.677493 0
M  V30 25683 C 2506.44 -0.26726 -3.59608 0
M  V30 25684 O 2505.54 0.749743 -4.05528 0
M  V30 25685 H 2504.88 -0.126174 -0.651902 0
M  V30 25686 H 2507.41 -0.983029 -1.79437 0
M  V30 25687 H 2507.42 -0.106816 -4.0786 0
M  V30 25688 H 2506.1 -1.25361 -3.96557 0
M  V30 25689 H 2504.67 0.556579 -3.68723 0
M  V30 25690 N 2506.86 1.50503 -0.467606 0
M  V30 25691 C 2507.77 2.32213 0.333779 0
M  V30 25692 C 2508.78 1.42443 0.999298 0
M  V30 25693 O 2509.96 1.75499 0.988037 0
M  V30 25694 C 2507.02 3.17024 1.40344 0
M  V30 25695 C 2506.09 4.22611 0.754887 0
M  V30 25696 C 2505.32 5.03368 1.77358 0
M  V30 25697 O 2505.54 4.85155 2.99967 0
M  V30 25698 O 2504.48 5.86626 1.34734 0
M  V30 25699 H 2508.3 3.01856 -0.33412 0
M  V30 25700 H 2505.89 1.47626 -0.229522 0
M  V30 25701 H 2507.77 3.6966 2.02311 0
M  V30 25702 H 2506.44 2.50113 2.05487 0
M  V30 25703 H 2505.35 3.73976 0.0963587 0
M  V30 25704 H 2506.68 4.91982 0.146459 0
M  V30 25705 N 2508.34 0.200077 1.56325 0
M  V30 25706 C 2509.57 -0.442197 2.01812 0
M  V30 25707 C 2509.97 -1.55392 1.07935 0
M  V30 25708 O 2509.32 -1.83537 0.0773008 0
M  V30 25709 C 2509.38 -1.05451 3.43686 0
M  V30 25710 C 2509.04 -0.080903 4.56928 0
M  V30 25711 C 2510.04 0.711562 5.15008 0
M  V30 25712 C 2507.72 0.0316246 5.0229 0
M  V30 25713 C 2509.72 1.60347 6.16902 0
M  V30 25714 C 2507.41 0.927087 6.04027 0
M  V30 25715 C 2508.4 1.71157 6.61207 0
M  V30 25716 O 2508.09 2.59202 7.60966 0
M  V30 25717 H 2507.82 -0.114836 0.666175 0
M  V30 25718 H 2510.38 0.307547 2.03084 0
M  V30 25719 H 2508.61 -1.85293 3.39416 0
M  V30 25720 H 2510.3 -1.60195 3.72951 0
M  V30 25721 H 2511.06 0.634958 4.80826 0
M  V30 25722 H 2506.94 -0.568822 4.57477 0
M  V30 25723 H 2510.49 2.21623 6.6146 0
M  V30 25724 H 2506.38 1.00479 6.37632 0
M  V30 25725 H 2507.15 2.53037 7.78405 0
M  V30 25726 N 2509.81 -1.57429 -0.0734901 0
M  V30 25727 C 2511.04 -1.91391 -0.785936 0
M  V30 25728 C 2511.46 -0.795877 -1.71205 0
M  V30 25729 O 2510.81 0.230883 -1.81034 0
M  V30 25730 C 2510.86 -3.25094 -1.58101 0
M  V30 25731 O 2510.59 -4.32598 -0.692124 0
M  V30 25732 C 2512.09 -3.7306 -2.39461 0
M  V30 25733 H 2509.31 -0.632667 -0.223547 0
M  V30 25734 H 2511.85 -2.04452 -0.044266 0
M  V30 25735 H 2510.01 -3.13566 -2.27498 0
M  V30 25736 H 2510.42 -5.09511 -1.24496 0
M  V30 25737 H 2511.89 -4.69247 -2.90707 0
M  V30 25738 H 2512.37 -3.01984 -3.18908 0
M  V30 25739 H 2512.98 -3.87527 -1.75224 0
M  V30 25740 N 2511.29 0.344839 -1.53781 0
M  V30 25741 C 2512.54 1.08684 -1.71218 0
M  V30 25742 C 2512.87 1.88344 -0.473314 0
M  V30 25743 O 2512.15 1.8715 0.529647 0
M  V30 25744 C 2512.43 2.02909 -2.97489 0
M  V30 25745 C 2512.28 1.2672 -4.31581 0
M  V30 25746 C 2513.6 3.02745 -3.19427 0
M  V30 25747 H 2510.72 0.393724 -0.623017 0
M  V30 25748 H 2513.36 0.36553 -1.86451 0
M  V30 25749 H 2511.51 2.64416 -2.84634 0
M  V30 25750 H 2513.18 0.67837 -4.56285 0
M  V30 25751 H 2511.43 0.569197 -4.3005 0
M  V30 25752 H 2512.1 1.95793 -5.16109 0
M  V30 25753 H 2514.57 2.51351 -3.31605 0
M  V30 25754 H 2513.45 3.65878 -4.09176 0
M  V30 25755 H 2513.71 3.74053 -2.35663 0
M  V30 25756 N 2512.77 1.45492 0.605781 0
M  V30 25757 C 2513.99 1.53363 1.39623 0
M  V30 25758 C 2514.42 0.167678 1.87351 0
M  V30 25759 O 2513.78 -0.848023 1.60244 0
M  V30 25760 C 2513.83 2.52385 2.57554 0
M  V30 25761 O 2512.93 2.04291 3.58244 0
M  V30 25762 H 2512.27 0.516919 0.416762 0
M  V30 25763 H 2514.8 1.90862 0.73707 0
M  V30 25764 H 2514.81 2.71249 3.04775 0
M  V30 25765 H 2513.49 3.5159 2.22165 0
M  V30 25766 H 2512.06 1.95311 3.1766 0
M  V30 25767 N 2514.25 -0.848441 1.32813 0
M  V30 25768 C 2515.49 -1.60543 1.2391 0
M  V30 25769 C 2515.83 -1.93197 -0.197127 0
M  V30 25770 O 2515.1 -1.57882 -1.13593 0
M  V30 25771 C 2515.39 -2.92172 2.10494 0
M  V30 25772 C 2515.24 -2.6626 3.62527 0
M  V30 25773 C 2516.56 -3.93505 1.97082 0
M  V30 25774 H 2513.68 -0.582532 0.45147 0
M  V30 25775 H 2516.32 -0.979267 1.6282 0
M  V30 25776 H 2514.47 -3.45611 1.7744 0
M  V30 25777 H 2516.14 -2.19326 4.05825 0
M  V30 25778 H 2514.38 -2.00119 3.84883 0
M  V30 25779 H 2515.05 -3.60013 4.18443 0
M  V30 25780 H 2517.53 -3.49342 2.26051 0
M  V30 25781 H 2516.41 -4.83453 2.59932 0
M  V30 25782 H 2516.67 -4.31986 0.940262 0
M  V30 25783 N 2515.73 -1.16125 -1.06549 0
M  V30 25784 C 2516.97 -0.942552 -1.79566 0
M  V30 25785 C 2517.31 0.528514 -1.8687 0
M  V30 25786 O 2516.58 1.39204 -1.3584 0
M  V30 25787 C 2516.86 -1.56752 -3.24192 0
M  V30 25788 C 2516.72 -3.10975 -3.24984 0
M  V30 25789 C 2518.04 -1.26005 -4.21676 0
M  V30 25790 H 2515.15 -0.343839 -0.651877 0
M  V30 25791 H 2517.8 -1.43415 -1.24628 0
M  V30 25792 H 2515.95 -1.14948 -3.71105 0
M  V30 25793 H 2517.62 -3.61742 -2.86252 0
M  V30 25794 H 2515.86 -3.44441 -2.6371 0
M  V30 25795 H 2516.53 -3.49823 -4.26999 0
M  V30 25796 H 2519.01 -1.6218 -3.83193 0
M  V30 25797 H 2517.88 -1.72339 -5.21143 0
M  V30 25798 H 2518.15 -0.178445 -4.4174 0
M  V30 25799 N 2517.2 1.25039 -0.959323 0
M  V30 25800 C 2518.17 2.23951 -0.487717 0
M  V30 25801 C 2519.17 1.55454 0.411162 0
M  V30 25802 O 2520.36 1.72956 0.207794 0
M  V30 25803 C 2517.49 3.39623 0.294748 0
M  V30 25804 H 2518.68 2.67187 -1.36203 0
M  V30 25805 H 2516.24 1.37507 -0.743066 0
M  V30 25806 H 2516.97 3.01815 1.18652 0
M  V30 25807 H 2516.76 3.90533 -0.350189 0
M  V30 25808 H 2518.25 4.13061 0.614017 0
M  V30 25809 N 2518.68 0.728444 1.39755 0
M  V30 25810 C 2519.61 0.0991764 2.33289 0
M  V30 25811 C 2520.59 -0.731462 1.5357 0
M  V30 25812 O 2521.78 -0.677775 1.81989 0
M  V30 25813 C 2518.91 -0.813774 3.37631 0
M  V30 25814 C 2517.86 -0.0877911 4.2791 0
M  V30 25815 C 2517.19 -1.11732 5.22896 0
M  V30 25816 C 2518.49 1.06572 5.11312 0
M  V30 25817 H 2520.18 0.880458 2.86161 0
M  V30 25818 H 2517.73 0.424843 1.3759 0
M  V30 25819 H 2519.68 -1.26348 4.02013 0
M  V30 25820 H 2518.41 -1.6271 2.83184 0
M  V30 25821 H 2517.06 0.342223 3.64999 0
M  V30 25822 H 2516.71 -1.92403 4.64747 0
M  V30 25823 H 2516.41 -0.636374 5.84144 0
M  V30 25824 H 2517.94 -1.56686 5.90154 0
M  V30 25825 H 2519.35 0.694771 5.69075 0
M  V30 25826 H 2517.75 1.47587 5.81668 0
M  V30 25827 H 2518.82 1.89046 4.46531 0
M  V30 25828 N 2520.16 -1.50253 0.475581 0
M  V30 25829 C 2521.11 -2.25526 -0.334985 0
M  V30 25830 C 2522.09 -1.29301 -0.957603 0
M  V30 25831 O 2523.29 -1.54176 -0.869409 0
M  V30 25832 C 2520.42 -3.12836 -1.4138 0
M  V30 25833 C 2519.5 -4.16511 -0.798689 0
M  V30 25834 N 2519.89 -5.05731 0.0836704 0
M  V30 25835 C 2518.19 -4.33168 -1.06213 0
M  V30 25836 C 2518.89 -5.80085 0.433215 0
M  V30 25837 N 2517.87 -5.43258 -0.192704 0
M  V30 25838 H 2521.67 -2.91872 0.344664 0
M  V30 25839 H 2519.18 -1.59789 0.290014 0
M  V30 25840 H 2521.18 -3.65372 -2.00771 0
M  V30 25841 H 2519.84 -2.48039 -2.09539 0
M  V30 25842 H 2520.85 -5.15917 0.452806 0
M  V30 25843 H 2517.53 -3.79588 -1.73837 0
M  V30 25844 H 2518.92 -6.61923 1.15357 0
M  V30 25845 N 2521.64 -0.208365 -1.56217 0
M  V30 25846 C 2522.92 0.475201 -1.8974 0
M  V30 25847 C 2523.3 1.78699 -1.12383 0
M  V30 25848 O 2522.64 2.27349 -0.229019 0
M  V30 25849 C 2522.85 0.68104 -3.42291 0
M  V30 25850 C 2524.2 0.994434 -4.12791 0
M  V30 25851 O 2525.23 0.768296 -3.47816 0
M  V30 25852 O 2524.08 1.4229 -5.27651 0
M  V30 25853 H 2521.18 0.249447 -0.788483 0
M  V30 25854 H 2523.72 -0.249568 -1.67855 0
M  V30 25855 H 2522.5 -0.244791 -3.90534 0
M  V30 25856 H 2522.12 1.45778 -3.69911 0
M  V30 25857 N 2523.12 1.57465 0.0651402 0
M  V30 25858 C 2524.39 1.78652 0.796408 0
M  V30 25859 C 2524.77 0.7976 1.95452 0
M  V30 25860 O 2524.12 -0.167906 2.27882 0
M  V30 25861 C 2524.33 3.25339 1.26316 0
M  V30 25862 C 2525.68 3.89351 1.69384 0
M  V30 25863 O 2526.7 3.2927 1.35866 0
M  V30 25864 O 2525.56 4.95063 2.31462 0
M  V30 25865 H 2522.66 0.733413 0.382144 0
M  V30 25866 H 2525.2 1.69641 0.0447013 0
M  V30 25867 H 2523.97 3.88877 0.434791 0
M  V30 25868 H 2523.6 3.391 2.07598 0
M  V30 25869 N 2524.59 -0.336679 1.53962 0
M  V30 25870 C 2525.53 -1.43719 1.77257 0
M  V30 25871 C 2526.51 -1.50235 0.621957 0
M  V30 25872 O 2527.69 -1.67846 0.857903 0
M  V30 25873 C 2524.82 -2.81908 1.87738 0
M  V30 25874 C 2523.86 -2.92986 3.09938 0
M  V30 25875 S 2524.7 -2.58745 4.6884 0
M  V30 25876 C 2525.85 -3.9903 4.82209 0
M  V30 25877 H 2526.08 -1.23743 2.70324 0
M  V30 25878 H 2523.62 -0.532751 1.44918 0
M  V30 25879 H 2525.58 -3.61518 1.94461 0
M  V30 25880 H 2524.24 -2.99175 0.956718 0
M  V30 25881 H 2523.43 -3.9426 3.13967 0
M  V30 25882 H 2523.03 -2.21333 3.01476 0
M  V30 25883 H 2525.32 -4.93632 4.6404 0
M  V30 25884 H 2526.27 -3.99992 5.84305 0
M  V30 25885 H 2526.67 -3.87375 4.10611 0
M  V30 25886 N 2526.07 -1.45812 -0.598057 0
M  V30 25887 C 2526.98 -1.57766 -1.73629 0
M  V30 25888 C 2528 -0.461705 -1.67763 0
M  V30 25889 O 2529.17 -0.723718 -1.87948 0
M  V30 25890 C 2526.24 -1.55023 -3.10111 0
M  V30 25891 C 2525.3 -2.77731 -3.27359 0
M  V30 25892 C 2524.53 -2.7511 -4.57329 0
M  V30 25893 O 2524.76 -1.82979 -5.40254 0
M  V30 25894 O 2523.69 -3.66445 -4.77495 0
M  V30 25895 H 2527.52 -2.53995 -1.66494 0
M  V30 25896 H 2525.1 -1.2843 -0.763285 0
M  V30 25897 H 2526.98 -1.56135 -3.91407 0
M  V30 25898 H 2525.66 -0.619486 -3.17717 0
M  V30 25899 H 2524.57 -2.82178 -2.45614 0
M  V30 25900 H 2525.9 -3.69964 -3.24635 0
M  V30 25901 N 2527.55 0.841385 -1.33261 0
M  V30 25902 C 2528.78 1.63383 -1.27753 0
M  V30 25903 C 2529.2 1.87508 0.149155 0
M  V30 25904 O 2528.56 1.43738 1.10495 0
M  V30 25905 C 2528.61 2.96261 -2.05576 0
M  V30 25906 O 2527.71 3.87451 -1.41264 0
M  V30 25907 H 2527.05 0.49761 -0.439636 0
M  V30 25908 H 2529.58 1.04696 -1.75784 0
M  V30 25909 H 2529.59 3.45979 -2.16247 0
M  V30 25910 H 2528.27 2.78025 -3.09314 0
M  V30 25911 H 2526.84 3.45935 -1.39223 0
M  V30 25912 N 2529.03 1.16688 1.05932 0
M  V30 25913 C 2529.96 0.834541 2.13467 0
M  V30 25914 C 2530.97 -0.159812 1.62014 0
M  V30 25915 O 2532.16 0.0654542 1.7838 0
M  V30 25916 C 2529.26 0.22242 3.38169 0
M  V30 25917 C 2528.44 1.25778 4.18926 0
M  V30 25918 C 2527.5 0.664794 5.21984 0
M  V30 25919 O 2526.52 1.33462 5.53332 0
M  V30 25920 N 2527.72 -0.546732 5.7792 0
M  V30 25921 H 2530.49 1.76004 2.42575 0
M  V30 25922 H 2528.05 1.06471 1.21965 0
M  V30 25923 H 2530.04 -0.187401 4.04266 0
M  V30 25924 H 2528.61 -0.606704 3.06656 0
M  V30 25925 H 2527.83 1.84364 3.4843 0
M  V30 25926 H 2529.12 1.95639 4.69684 0
M  V30 25927 H 2528.52 -1.10903 5.54723 0
M  V30 25928 H 2527.07 -0.898715 6.45574 0
M  V30 25929 N 2530.51 -1.24529 0.96594 0
M  V30 25930 C 2531.92 -1.74419 0.66596 0
M  V30 25931 C 2532.27 -1.78317 -0.818376 0
M  V30 25932 O 2531.39 -1.41144 -1.64035 0
M  V30 25933 C 2531.99 -3.16754 1.20217 0
M  V30 25934 C 2530.55 -3.64159 0.952123 0
M  V30 25935 C 2529.7 -2.42856 1.33852 0
M  V30 25936 H 2532.65 -1.10256 1.14146 0
M  V30 25937 H 2532.67 -3.76243 0.56761 0
M  V30 25938 H 2532.18 -3.13885 2.2825 0
M  V30 25939 H 2530.28 -3.72429 -0.112756 0
M  V30 25940 H 2530.39 -4.51716 1.59653 0
M  V30 25941 H 2528.76 -2.43193 0.756907 0
M  V30 25942 H 2529.54 -2.42668 2.42831 0
M  V30 25943 N 2531.99 -0.735845 -1.39367 0
M  V30 25944 C 2532.92 -0.111547 -2.33233 0
M  V30 25945 C 2533.9 0.723307 -1.53955 0
M  V30 25946 O 2535.08 0.668115 -1.82345 0
M  V30 25947 C 2532.21 0.795857 -3.38058 0
M  V30 25948 C 2531.17 0.0650968 -4.2795 0
M  V30 25949 C 2530.49 1.08957 -5.23481 0
M  V30 25950 C 2531.79 -1.09282 -5.10739 0
M  V30 25951 H 2533.49 -0.895621 -2.8569 0
M  V30 25952 H 2531.03 -0.432134 -1.37363 0
M  V30 25953 H 2532.98 1.24214 -4.02677 0
M  V30 25954 H 2531.71 1.61206 -2.84043 0
M  V30 25955 H 2530.37 -0.361575 -3.64813 0
M  V30 25956 H 2530.02 1.89936 -4.65761 0
M  V30 25957 H 2529.72 0.605386 -5.84473 0
M  V30 25958 H 2531.24 1.53554 -5.90977 0
M  V30 25959 H 2532.65 -0.72494 -5.68698 0
M  V30 25960 H 2531.05 -1.5067 -5.80877 0
M  V30 25961 H 2532.12 -1.91412 -4.45522 0
M  V30 25962 N 2533.46 1.49999 -0.483543 0
M  V30 25963 C 2534.71 2.01582 0.0688748 0
M  V30 25964 C 2535.03 1.36954 1.39653 0
M  V30 25965 O 2536.23 1.79765 2.03462 0
M  V30 25966 C 2534.69 3.59483 0.173238 0
M  V30 25967 C 2534.3 4.33075 -1.14672 0
M  V30 25968 C 2536.04 4.19068 0.67695 0
M  V30 25969 C 2533.95 5.8279 -1.00548 0
M  V30 25970 H 2532.88 0.753422 0.0295144 0
M  V30 25971 H 2535.53 1.72697 -0.620325 0
M  V30 25972 H 2533.91 3.85009 0.926501 0
M  V30 25973 H 2535.08 4.19264 -1.91192 0
M  V30 25974 H 2533.4 3.85156 -1.58251 0
M  V30 25975 H 2536 5.28684 0.799859 0
M  V30 25976 H 2536.34 3.81272 1.67144 0
M  V30 25977 H 2536.87 3.97795 -0.0192782 0
M  V30 25978 H 2533.61 6.2508 -1.97371 0
M  V30 25979 H 2533.13 5.99142 -0.280881 0
M  V30 25980 H 2534.81 6.43447 -0.677113 0
M  V30 25981 N 2534.94 0.216646 1.56104 0
M  V30 25982 C 2536.19 -0.415559 1.97781 0
M  V30 25983 C 2536.51 -1.60643 1.10539 0
M  V30 25984 O 2535.78 -1.95059 0.181337 0
M  V30 25985 H 2534.36 -0.156521 0.730418 0
M  V30 25986 H 2537.02 0.308399 1.92445 0
M  V30 25987 H 2536.12 -0.745196 3.03073 0
M  V30 25988 N 2536.42 -1.57498 -0.0567885 0
M  V30 25989 C 2537.65 -1.92214 -0.765592 0
M  V30 25990 C 2538.06 -0.813991 -1.70351 0
M  V30 25991 O 2537.42 0.211669 -1.81268 0
M  V30 25992 C 2537.47 -3.26753 -1.54644 0
M  V30 25993 O 2537.19 -4.33308 -0.646202 0
M  V30 25994 C 2538.69 -3.75579 -2.3549 0
M  V30 25995 H 2535.91 -0.635003 -0.216824 0
M  V30 25996 H 2538.46 -2.04488 -0.0225787 0
M  V30 25997 H 2536.61 -3.15961 -2.24159 0
M  V30 25998 H 2537.03 -5.10802 -1.19084 0
M  V30 25999 H 2538.5 -4.72304 -2.85714 0
M  V30 26000 H 2538.98 -3.0535 -3.15687 0
M  V30 26001 H 2539.58 -3.89363 -1.71103 0
M  V30 26002 N 2537.9 0.328509 -1.54138 0
M  V30 26003 C 2538.83 1.42507 -1.79512 0
M  V30 26004 C 2539.84 1.4806 -0.676906 0
M  V30 26005 O 2541.03 1.50873 -0.953925 0
M  V30 26006 C 2538.13 2.81075 -1.89342 0
M  V30 26007 C 2537.3 2.98783 -3.19448 0
M  V30 26008 C 2536.36 4.17682 -3.20043 0
M  V30 26009 O 2535.39 4.11079 -3.93704 0
M  V30 26010 N 2536.59 5.26972 -2.43476 0
M  V30 26011 H 2539.36 1.21106 -2.74141 0
M  V30 26012 H 2536.92 0.518472 -1.53374 0
M  V30 26013 H 2538.91 3.58815 -1.87173 0
M  V30 26014 H 2537.48 2.95549 -1.01831 0
M  V30 26015 H 2536.7 2.08386 -3.34618 0
M  V30 26016 H 2537.99 3.07507 -4.0536 0
M  V30 26017 H 2537.39 5.35211 -1.8321 0
M  V30 26018 H 2535.94 6.0315 -2.4709 0
M  V30 26019 N 2539.38 1.46127 0.590316 0
M  V30 26020 C 2540.6 1.54835 1.37988 0
M  V30 26021 C 2541.03 0.187539 1.87163 0
M  V30 26022 O 2540.38 -0.830979 1.61135 0
M  V30 26023 C 2540.43 2.55102 2.54863 0
M  V30 26024 O 2539.54 2.08079 3.56057 0
M  V30 26025 H 2538.88 0.521311 0.411256 0
M  V30 26026 H 2541.41 1.91633 0.716785 0
M  V30 26027 H 2541.42 2.74466 3.01881 0
M  V30 26028 H 2540.09 3.53927 2.18423 0
M  V30 26029 H 2538.67 1.98669 3.15571 0
M  V30 26030 N 2540.85 -0.834306 1.33705 0
M  V30 26031 C 2542.08 -1.62182 1.2847 0
M  V30 26032 C 2542.5 -1.88254 -0.143493 0
M  V30 26033 O 2541.85 -1.46592 -1.08706 0
M  V30 26034 C 2541.9 -2.96938 2.06179 0
M  V30 26035 O 2541.63 -2.7201 3.43427 0
M  V30 26036 C 2543.13 -3.91362 2.08208 0
M  V30 26037 H 2540.35 -0.504495 0.442409 0
M  V30 26038 H 2542.89 -1.03888 1.76146 0
M  V30 26039 H 2541.05 -3.51822 1.62173 0
M  V30 26040 H 2541.46 -3.57854 3.83459 0
M  V30 26041 H 2542.93 -4.83117 2.67025 0
M  V30 26042 H 2543.41 -4.25879 1.0735 0
M  V30 26043 H 2544.02 -3.42416 2.52252 0
M  V30 26044 N 2542.33 -1.17248 -1.05312 0
M  V30 26045 C 2543.29 -0.890394 -2.11198 0
M  V30 26046 C 2544.29 0.118915 -1.6036 0
M  V30 26047 O 2545.48 -0.113116 -1.73832 0
M  V30 26048 C 2542.62 -0.333481 -3.39265 0
M  V30 26049 H 2543.81 -1.8292 -2.37656 0
M  V30 26050 H 2541.36 -0.98278 -1.21537 0
M  V30 26051 H 2542.1 0.612531 -3.18463 0
M  V30 26052 H 2541.88 -1.06089 -3.77475 0
M  V30 26053 H 2543.37 -0.154395 -4.17314 0
M  V30 26054 N 2543.81 1.24015 -0.972531 0
M  V30 26055 C 2545.06 1.91522 -0.632636 0
M  V30 26056 C 2545.37 1.76806 0.83661 0
M  V30 26057 O 2546.58 2.39045 1.28723 0
M  V30 26058 C 2545.03 3.43286 -1.08088 0
M  V30 26059 C 2544.64 3.66679 -2.57392 0
M  V30 26060 C 2546.39 4.16615 -0.814362 0
M  V30 26061 C 2544.29 5.12038 -2.95924 0
M  V30 26062 H 2543.22 0.717125 -0.232911 0
M  V30 26063 H 2545.87 1.4058 -1.17938 0
M  V30 26064 H 2544.26 3.93291 -0.462409 0
M  V30 26065 H 2545.43 3.27253 -3.24411 0
M  V30 26066 H 2543.75 3.06644 -2.81706 0
M  V30 26067 H 2546.34 5.23717 -1.07819 0
M  V30 26068 H 2546.69 4.15552 0.249477 0
M  V30 26069 H 2547.22 3.72574 -1.39404 0
M  V30 26070 H 2543.96 5.18227 -4.01399 0
M  V30 26071 H 2543.48 5.52444 -2.33593 0
M  V30 26072 H 2545.16 5.80309 -2.86096 0
M  V30 26073 N 2545.29 0.743226 1.38974 0
M  V30 26074 C 2546.7 0.363764 1.83122 0
M  V30 26075 C 2547.05 -1.10606 1.62052 0
M  V30 26076 O 2546.18 -1.85398 1.1161 0
M  V30 26077 C 2546.77 0.653467 3.32438 0
M  V30 26078 C 2545.33 0.327404 3.74973 0
M  V30 26079 C 2544.48 0.911921 2.61876 0
M  V30 26080 H 2547.43 0.940214 1.2785 0
M  V30 26081 H 2547.45 -0.0719362 3.80432 0
M  V30 26082 H 2546.96 1.72329 3.47742 0
M  V30 26083 H 2545.06 -0.73625 3.65254 0
M  V30 26084 H 2545.17 0.815714 4.72105 0
M  V30 26085 H 2543.54 0.337988 2.52447 0
M  V30 26086 H 2544.32 1.98656 2.79983 0
M  V30 26087 N 2546.77 -1.4974 0.491491 0
M  V30 26088 C 2547.73 -2.27473 -0.280866 0
M  V30 26089 C 2548.73 -1.3309 -0.90243 0
M  V30 26090 O 2549.92 -1.56335 -0.768438 0
M  V30 26091 C 2547.05 -3.10734 -1.40203 0
M  V30 26092 H 2548.24 -2.97206 0.401109 0
M  V30 26093 H 2545.8 -1.54349 0.246159 0
M  V30 26094 H 2546.53 -2.45545 -2.11844 0
M  V30 26095 H 2546.32 -3.80118 -0.961903 0
M  V30 26096 H 2547.81 -3.69469 -1.94633 0
M  V30 26097 N 2548.24 -0.224922 -1.55987 0
M  V30 26098 C 2549.66 0.282313 -1.84553 0
M  V30 26099 C 2550.01 1.59225 -1.14637 0
M  V30 26100 O 2549.13 2.1234 -0.417192 0
M  V30 26101 C 2549.73 0.519003 -3.34801 0
M  V30 26102 C 2548.29 0.97054 -3.63672 0
M  V30 26103 C 2547.43 0.0354773 -2.77277 0
M  V30 26104 H 2550.38 -0.448033 -1.52244 0
M  V30 26105 H 2550.4 1.36457 -3.5519 0
M  V30 26106 H 2549.92 -0.434558 -3.85659 0
M  V30 26107 H 2548.02 1.93734 -3.18273 0
M  V30 26108 H 2548.13 0.842615 -4.71632 0
M  V30 26109 H 2546.49 0.542884 -2.48847 0
M  V30 26110 H 2547.28 -0.913061 -3.30935 0
M  V30 26111 N 2549.72 1.57526 0.0484352 0
M  V30 26112 C 2550.95 1.92618 0.755387 0
M  V30 26113 C 2551.37 0.823014 1.69917 0
M  V30 26114 O 2550.72 -0.202053 1.81378 0
M  V30 26115 C 2550.77 3.27568 1.52909 0
M  V30 26116 O 2550.49 4.33645 0.623213 0
M  V30 26117 C 2552 3.76822 2.33495 0
M  V30 26118 H 2549.22 0.636144 0.213453 0
M  V30 26119 H 2551.76 2.04497 0.0117339 0
M  V30 26120 H 2549.91 3.17145 2.2248 0
M  V30 26121 H 2550.33 5.11427 1.16374 0
M  V30 26122 H 2551.8 4.73813 2.83205 0
M  V30 26123 H 2552.28 3.0702 3.14063 0
M  V30 26124 H 2552.89 3.90265 1.69036 0
M  V30 26125 N 2551.2 -0.32033 1.5431 0
M  V30 26126 C 2552.48 -1.07632 1.63324 0
M  V30 26127 C 2552.86 -2.05821 0.469156 0
M  V30 26128 O 2552.21 -2.22119 -0.536235 0
M  V30 26129 C 2552.42 -1.77539 3.00468 0
M  V30 26130 C 2553.76 -2.30442 3.56625 0
M  V30 26131 O 2554.79 -1.87601 3.02794 0
M  V30 26132 O 2553.65 -3.08884 4.50836 0
M  V30 26133 H 2550.74 -0.496319 0.66151 0
M  V30 26134 H 2553.29 -0.319963 1.66656 0
M  V30 26135 H 2552.06 -1.06136 3.76631 0
M  V30 26136 H 2551.68 -2.59977 3.00829 0
M  V30 26137 N 2552.68 -1.46438 -0.582558 0
M  V30 26138 C 2553.61 -1.59874 -1.70184 0
M  V30 26139 C 2554.59 -0.449071 -1.64065 0
M  V30 26140 O 2555.77 -0.675332 -1.82079 0
M  V30 26141 C 2552.9 -1.58886 -3.08824 0
M  V30 26142 C 2551.86 -2.72824 -3.29774 0
M  V30 26143 C 2551.18 -2.56898 -4.68943 0
M  V30 26144 C 2552.48 -4.14646 -3.17594 0
M  V30 26145 H 2554.18 -2.53569 -1.59196 0
M  V30 26146 H 2551.72 -1.22033 -0.764451 0
M  V30 26147 H 2553.68 -1.6688 -3.86948 0
M  V30 26148 H 2552.4 -0.617362 -3.20712 0
M  V30 26149 H 2551.06 -2.643 -2.54049 0
M  V30 26150 H 2550.71 -1.57831 -4.77596 0
M  V30 26151 H 2550.41 -3.3332 -4.83913 0
M  V30 26152 H 2551.93 -2.66783 -5.49235 0
M  V30 26153 H 2553.35 -4.24281 -3.85563 0
M  V30 26154 H 2551.74 -4.91656 -3.44085 0
M  V30 26155 H 2552.81 -4.34791 -2.14673 0
M  V30 26156 N 2554.16 0.827204 -1.34146 0
M  V30 26157 C 2555.1 1.93782 -1.25367 0
M  V30 26158 C 2556.07 1.65592 -0.129803 0
M  V30 26159 O 2557.26 1.88264 -0.310057 0
M  V30 26160 C 2554.4 3.29968 -1.0107 0
M  V30 26161 C 2553.51 3.7048 -2.22191 0
M  V30 26162 C 2552.65 4.95592 -1.91212 0
M  V30 26163 C 2551.69 5.28672 -3.085 0
M  V30 26164 N 2550.82 6.44962 -2.77432 0
M  V30 26165 H 2555.66 2.00623 -2.20351 0
M  V30 26166 H 2553.2 0.981589 -1.09559 0
M  V30 26167 H 2555.16 4.08445 -0.850211 0
M  V30 26168 H 2553.79 3.22653 -0.0975593 0
M  V30 26169 H 2552.84 2.8743 -2.49175 0
M  V30 26170 H 2554.15 3.909 -3.09837 0
M  V30 26171 H 2553.31 5.81845 -1.71875 0
M  V30 26172 H 2552.04 4.77165 -1.0082 0
M  V30 26173 H 2551.05 4.40918 -3.28438 0
M  V30 26174 H 2552.27 5.4904 -3.99664 0
M  V30 26175 H 2550.22 6.27999 -1.89612 0
M  V30 26176 H 2550.14 6.65534 -3.5861 0
M  V30 26177 H 2551.41 7.34296 -2.61589 0
M  V30 26178 N 2555.63 1.17805 1.04688 0
M  V30 26179 C 2556.88 0.969564 1.7778 0
M  V30 26180 C 2557.21 -0.501368 1.87927 0
M  V30 26181 O 2556.46 -1.38839 1.37921 0
M  V30 26182 C 2556.76 1.56191 3.21464 0
M  V30 26183 C 2556.43 3.05792 3.31364 0
M  V30 26184 C 2555.09 3.46625 3.33773 0
M  V30 26185 C 2557.44 4.01803 3.31969 0
M  V30 26186 C 2554.77 4.82057 3.34422 0
M  V30 26187 C 2557.12 5.37142 3.34157 0
M  V30 26188 C 2555.79 5.77432 3.34856 0
M  V30 26189 H 2555.06 0.354788 0.650543 0
M  V30 26190 H 2557.7 1.46774 1.23003 0
M  V30 26191 H 2556.01 0.985582 3.79201 0
M  V30 26192 H 2557.71 1.37609 3.76649 0
M  V30 26193 H 2554.3 2.73244 3.30206 0
M  V30 26194 H 2558.48 3.71312 3.29304 0
M  V30 26195 H 2553.74 5.12579 3.33276 0
M  V30 26196 H 2557.91 6.11311 3.33574 0
M  V30 26197 H 2555.54 6.82352 3.35112 0
M  V30 26198 N 2557.11 -1.23497 0.979094 0
M  V30 26199 C 2558.34 -1.95914 0.665236 0
M  V30 26200 C 2558.76 -1.72494 -0.767541 0
M  V30 26201 O 2558.11 -1.01557 -1.51633 0
M  V30 26202 C 2558.16 -3.48943 0.9445 0
M  V30 26203 O 2557.88 -3.71568 2.32096 0
M  V30 26204 C 2559.39 -4.38562 0.646413 0
M  V30 26205 H 2556.61 -0.623794 0.247229 0
M  V30 26206 H 2559.15 -1.57022 1.31012 0
M  V30 26207 H 2557.3 -3.85855 0.345643 0
M  V30 26208 H 2557.72 -4.65871 2.40965 0
M  V30 26209 H 2559.19 -5.44742 0.892186 0
M  V30 26210 H 2559.67 -4.37192 -0.419498 0
M  V30 26211 H 2560.28 -4.07255 1.22569 0
M  V30 26212 N 2558.59 -0.750586 -1.38578 0
M  V30 26213 C 2559.52 -0.0811117 -2.29056 0
M  V30 26214 C 2560.54 0.686947 -1.47597 0
M  V30 26215 O 2561.73 0.528533 -1.70496 0
M  V30 26216 C 2558.83 0.909189 -3.26477 0
M  V30 26217 C 2558 0.199401 -4.36945 0
M  V30 26218 C 2557.06 1.10002 -5.14574 0
M  V30 26219 O 2556.08 0.57167 -5.66322 0
M  V30 26220 N 2557.29 2.42839 -5.27266 0
M  V30 26221 H 2560.05 -0.858137 -2.87152 0
M  V30 26222 H 2557.61 -0.601116 -1.50327 0
M  V30 26223 H 2559.6 1.51465 -3.75287 0
M  V30 26224 H 2558.17 1.58731 -2.69301 0
M  V30 26225 H 2557.39 -0.586732 -3.89809 0
M  V30 26226 H 2558.68 -0.291873 -5.07962 0
M  V30 26227 H 2558.08 2.88224 -4.86768 0
M  V30 26228 H 2556.64 2.98443 -5.79461 0
M  V30 26229 N 2560.07 1.49477 -0.499425 0
M  V30 26230 C 2561.32 2.02748 0.0457219 0
M  V30 26231 C 2561.65 1.37848 1.3679 0
M  V30 26232 O 2560.92 0.513634 1.87595 0
M  V30 26233 C 2561.21 3.59545 0.199923 0
M  V30 26234 C 2561.06 4.34975 -1.14527 0
M  V30 26235 C 2562.38 4.29916 0.941295 0
M  V30 26236 H 2559.5 0.736844 0.0151423 0
M  V30 26237 H 2562.14 1.78516 -0.650529 0
M  V30 26238 H 2560.29 3.80322 0.79294 0
M  V30 26239 H 2561.96 4.25698 -1.77705 0
M  V30 26240 H 2560.2 3.97595 -1.73495 0
M  V30 26241 H 2560.88 5.43037 -0.990702 0
M  V30 26242 H 2563.35 4.13784 0.438367 0
M  V30 26243 H 2562.23 5.39377 1.01803 0
M  V30 26244 H 2562.49 3.9505 1.98464 0
M  V30 26245 N 2561.55 0.233191 1.55865 0
M  V30 26246 C 2562.78 -0.39987 2.02999 0
M  V30 26247 C 2563.19 -1.52522 1.11277 0
M  V30 26248 O 2562.55 -1.82074 0.12456 0
M  V30 26249 C 2562.6 -0.920578 3.49582 0
M  V30 26250 O 2562.32 0.159911 4.37808 0
M  V30 26251 C 2563.82 -1.62571 4.12414 0
M  V30 26252 H 2561.04 -0.0966164 0.664008 0
M  V30 26253 H 2563.58 0.353048 2.01429 0
M  V30 26254 H 2561.74 -1.62372 3.5173 0
M  V30 26255 H 2562.15 -0.233278 5.23981 0
M  V30 26256 H 2563.63 -1.94192 5.16714 0
M  V30 26257 H 2564.1 -2.54293 3.58095 0
M  V30 26258 H 2564.71 -0.96748 4.1415 0
M  V30 26259 N 2563.03 -1.57549 -0.0400806 0
M  V30 26260 C 2564.44 -1.77197 -0.588066 0
M  V30 26261 C 2564.79 -0.862863 -1.76208 0
M  V30 26262 O 2563.91 -0.0548769 -2.1633 0
M  V30 26263 C 2564.51 -3.21341 -1.07358 0
M  V30 26264 C 2563.07 -3.42223 -1.56717 0
M  V30 26265 C 2562.21 -2.72748 -0.500362 0
M  V30 26266 H 2565.16 -1.57605 0.186147 0
M  V30 26267 H 2565.19 -3.27248 -1.94137 0
M  V30 26268 H 2564.7 -3.87482 -0.218906 0
M  V30 26269 H 2562.8 -2.81242 -2.44405 0
M  V30 26270 H 2562.91 -4.50799 -1.62226 0
M  V30 26271 H 2561.28 -2.36205 -0.952853 0
M  V30 26272 H 2562.06 -3.41565 0.344659 0
M  V30 26273 N 2564.5 0.312142 -1.54478 0
M  V30 26274 C 2565.73 1.06796 -1.77206 0
M  V30 26275 C 2566.15 1.81321 -0.526145 0
M  V30 26276 O 2565.5 1.75414 0.503616 0
M  V30 26277 C 2565.55 2.0572 -2.97257 0
M  V30 26278 O 2565.28 1.34221 -4.17033 0
M  V30 26279 C 2566.78 2.93429 -3.32286 0
M  V30 26280 H 2564 0.317197 -0.591293 0
M  V30 26281 H 2566.54 0.354799 -2.01399 0
M  V30 26282 H 2564.7 2.72555 -2.75305 0
M  V30 26283 H 2565.11 2.00562 -4.84639 0
M  V30 26284 H 2566.58 3.58714 -4.19558 0
M  V30 26285 H 2567.06 3.61138 -2.49951 0
M  V30 26286 H 2567.67 2.32141 -3.56357 0
M  V30 26287 N 2565.98 1.46745 0.574784 0
M  V30 26288 C 2567.21 1.5629 1.36338 0
M  V30 26289 C 2567.63 0.20738 1.86953 0
M  V30 26290 O 2566.99 -0.813842 1.62007 0
M  V30 26291 C 2567.04 2.57791 2.52143 0
M  V30 26292 O 2566.14 2.11844 3.5383 0
M  V30 26293 H 2565.48 0.525643 0.405703 0
M  V30 26294 H 2568.01 1.92383 0.696419 0
M  V30 26295 H 2568.02 2.77653 2.98953 0
M  V30 26296 H 2566.7 3.56224 2.14657 0
M  V30 26297 H 2565.27 2.02005 3.13446 0
M  V30 26298 N 2567.46 -0.820078 1.34583 0
M  V30 26299 C 2568.39 -1.94603 1.29042 0
M  V30 26300 C 2569.37 -1.69275 0.16733 0
M  V30 26301 O 2570.56 -1.90831 0.360146 0
M  V30 26302 C 2567.69 -3.31111 1.04799 0
M  V30 26303 C 2566.64 -3.70887 2.13604 0
M  V30 26304 C 2565.97 -5.05409 1.74545 0
M  V30 26305 C 2567.27 -3.82684 3.55458 0
M  V30 26306 H 2568.96 -1.99497 2.23252 0
M  V30 26307 H 2566.51 -0.95843 1.07472 0
M  V30 26308 H 2568.46 -4.09469 0.995664 0
M  V30 26309 H 2567.18 -3.26524 0.0703139 0
M  V30 26310 H 2565.84 -2.94806 2.1791 0
M  V30 26311 H 2565.49 -4.97312 0.754313 0
M  V30 26312 H 2565.19 -5.32993 2.47371 0
M  V30 26313 H 2566.71 -5.86221 1.70814 0
M  V30 26314 H 2568.13 -4.51305 3.53548 0
M  V30 26315 H 2566.52 -4.21725 4.26929 0
M  V30 26316 H 2567.59 -2.84604 3.92592 0
M  V30 26317 N 2568.94 -1.18359 -1.04062 0
M  V30 26318 C 2570.16 -1.00448 -1.81452 0
M  V30 26319 C 2570.59 0.44239 -1.82824 0
M  V30 26320 O 2569.95 1.31739 -1.24557 0
M  V30 26321 C 2569.99 -1.5639 -3.24923 0
M  V30 26322 O 2569.1 -0.78528 -4.04854 0
M  V30 26323 H 2568.44 -0.355845 -0.560598 0
M  V30 26324 H 2570.97 -1.57116 -1.31056 0
M  V30 26325 H 2570.98 -1.59103 -3.757 0
M  V30 26326 H 2569.65 -2.61705 -3.23239 0
M  V30 26327 H 2568.23 -0.830462 -3.63535 0
M  V30 26328 N 2570.42 1.22976 -0.98563 0
M  V30 26329 C 2571.38 2.22866 -0.53511 0
M  V30 26330 C 2572.38 1.56292 0.378096 0
M  V30 26331 O 2573.57 1.73358 0.171061 0
M  V30 26332 C 2570.7 3.40172 0.222642 0
M  V30 26333 H 2571.89 2.64238 -1.4184 0
M  V30 26334 H 2569.45 1.359 -0.772066 0
M  V30 26335 H 2570.18 3.04264 1.12224 0
M  V30 26336 H 2569.97 3.89702 -0.432948 0
M  V30 26337 H 2571.46 4.14271 0.526262 0
M  V30 26338 N 2571.89 0.757924 1.38178 0
M  V30 26339 C 2572.83 0.0932579 2.2901 0
M  V30 26340 C 2573.84 -0.67911 1.47959 0
M  V30 26341 O 2575.03 -0.519483 1.70774 0
M  V30 26342 C 2572.13 -0.891863 3.26954 0
M  V30 26343 C 2571.3 -0.176226 4.37045 0
M  V30 26344 C 2570.36 -1.07272 5.1515 0
M  V30 26345 O 2569.39 -0.541629 5.66617 0
M  V30 26346 N 2570.59 -2.4004 5.28546 0
M  V30 26347 H 2573.35 0.873354 2.86693 0
M  V30 26348 H 2570.91 0.60908 1.50006 0
M  V30 26349 H 2572.91 -1.49473 3.76085 0
M  V30 26350 H 2571.48 -1.57301 2.70139 0
M  V30 26351 H 2570.7 0.607397 3.89492 0
M  V30 26352 H 2571.98 0.318807 5.078 0
M  V30 26353 H 2571.38 -2.85639 4.8829 0
M  V30 26354 H 2569.94 -2.95366 5.81036 0
M  V30 26355 N 2573.37 -1.4921 0.507345 0
M  V30 26356 C 2574.62 -2.03382 -0.0269375 0
M  V30 26357 C 2574.97 -1.37959 -1.34108 0
M  V30 26358 O 2574.27 -0.508384 -1.84732 0
M  V30 26359 C 2574.46 -3.56663 -0.22945 0
M  V30 26360 C 2574.29 -4.36943 1.06351 0
M  V30 26361 C 2573.06 -4.78726 1.61709 0
M  V30 26362 C 2575.26 -4.7514 1.96841 0
M  V30 26363 N 2573.24 -5.43458 2.85529 0
M  V30 26364 C 2574.61 -5.39656 3.0524 0
M  V30 26365 C 2576.67 -4.57079 1.97442 0
M  V30 26366 C 2575.37 -5.88021 4.14275 0
M  V30 26367 C 2577.39 -5.06409 3.05457 0
M  V30 26368 C 2576.76 -5.70931 4.12574 0
M  V30 26369 H 2572.86 -0.781382 0.031081 0
M  V30 26370 H 2575.44 -1.82304 0.683611 0
M  V30 26371 H 2573.61 -3.77612 -0.90906 0
M  V30 26372 H 2575.34 -3.97475 -0.761307 0
M  V30 26373 H 2572.1 -4.59139 1.16141 0
M  V30 26374 H 2572.52 -5.80405 3.48509 0
M  V30 26375 H 2577.16 -4.06595 1.15931 0
M  V30 26376 H 2574.88 -6.37522 4.9658 0
M  V30 26377 H 2578.47 -4.9424 3.06949 0
M  V30 26378 H 2577.35 -6.08411 4.94778 0
M  V30 26379 N 2574.85 -0.241454 -1.55739 0
M  V30 26380 C 2576.08 0.389098 -2.03208 0
M  V30 26381 C 2576.49 1.51929 -1.12084 0
M  V30 26382 O 2575.85 1.82006 -0.134215 0
M  V30 26383 C 2575.9 0.902026 -3.50065 0
M  V30 26384 O 2575.62 -0.183127 -4.37717 0
M  V30 26385 C 2577.12 1.60382 -4.13271 0
M  V30 26386 H 2574.34 0.0930936 -0.664511 0
M  V30 26387 H 2576.89 -0.363726 -2.01239 0
M  V30 26388 H 2575.04 1.60505 -3.52586 0
M  V30 26389 H 2575.46 0.205487 -5.24097 0
M  V30 26390 H 2576.93 1.91449 -5.17737 0
M  V30 26391 H 2577.41 2.5239 -3.59438 0
M  V30 26392 H 2578.01 0.945503 -4.14657 0
M  V30 26393 N 2576.33 1.57568 0.0317248 0
M  V30 26394 C 2577.74 1.77506 0.57866 0
M  V30 26395 C 2578.09 0.872195 1.75748 0
M  V30 26396 O 2577.22 0.0663487 2.16298 0
M  V30 26397 C 2577.81 3.21905 1.05652 0
M  V30 26398 C 2576.37 3.4305 1.549 0
M  V30 26399 C 2575.52 2.7301 0.485891 0
M  V30 26400 H 2578.47 1.57504 -0.194502 0
M  V30 26401 H 2578.49 3.28273 1.92399 0
M  V30 26402 H 2578 3.87593 0.198354 0
M  V30 26403 H 2576.1 2.82534 2.4291 0
M  V30 26404 H 2576.21 4.51653 1.59833 0
M  V30 26405 H 2574.58 2.36707 0.940313 0
M  V30 26406 H 2575.36 3.41378 -0.362769 0
M  V30 26407 N 2577.81 -0.303946 1.54641 0
M  V30 26408 C 2579.22 -0.877134 1.64813 0
M  V30 26409 C 2579.57 -1.8819 0.554871 0
M  V30 26410 O 2578.69 -2.14183 -0.308995 0
M  V30 26411 C 2579.29 -1.59769 2.98763 0
M  V30 26412 C 2577.85 -2.11933 3.11065 0
M  V30 26413 C 2576.99 -0.951051 2.60481 0
M  V30 26414 H 2579.95 -0.0810208 1.58493 0
M  V30 26415 H 2579.97 -2.46309 2.90021 0
M  V30 26416 H 2579.48 -0.86616 3.78311 0
M  V30 26417 H 2577.58 -2.88142 2.3623 0
M  V30 26418 H 2577.69 -2.35588 4.17175 0
M  V30 26419 H 2576.06 -1.33579 2.16861 0
M  V30 26420 H 2576.84 -0.233521 3.42505 0
M  V30 26421 N 2579.28 -1.47047 -0.566994 0
M  V30 26422 C 2580.23 -1.59191 -1.69591 0
M  V30 26423 C 2581.23 -0.459638 -1.63045 0
M  V30 26424 O 2582.43 -0.637087 -1.68348 0
M  V30 26425 H 2578.81 -0.500801 -0.560984 0
M  V30 26426 H 2580.78 -2.54078 -1.56483 0
M  V30 26427 C 2579.53 -1.61417 -3.07961 0
M  V30 26428 H 2578.85 -2.47887 -3.13675 0
M  V30 26429 H 2580.29 -1.73965 -3.86668 0
M  V30 26430 C 2578.75 -0.345649 -3.35122 0
M  V30 26431 O 2579.28 0.557451 -3.97813 0
M  V30 26432 N 2577.49 -0.228691 -2.89699 0
M  V30 26433 H 2577.03 -0.964521 -2.38861 0
M  V30 26434 H 2576.99 0.619138 -3.08243 0
M  V30 26435 N 2580.76 0.812929 -1.35016 0
M  V30 26436 C 2582.01 1.57202 -1.28123 0
M  V30 26437 C 2582.34 1.93652 0.145835 0
M  V30 26438 O 2581.62 1.60838 1.09368 0
M  V30 26439 C 2581.9 2.86488 -2.18167 0
M  V30 26440 C 2581.75 2.56555 -3.69459 0
M  V30 26441 C 2583.07 3.88142 -2.07446 0
M  V30 26442 H 2580.19 0.570358 -0.466756 0
M  V30 26443 H 2582.83 0.935754 -1.65359 0
M  V30 26444 H 2580.98 3.40785 -1.86541 0
M  V30 26445 H 2582.65 2.0849 -4.11497 0
M  V30 26446 H 2580.9 1.89844 -3.90053 0
M  V30 26447 H 2581.57 3.48792 -4.27841 0
M  V30 26448 H 2584.04 3.43226 -2.35234 0
M  V30 26449 H 2582.92 4.76391 -2.72658 0
M  V30 26450 H 2583.18 4.29341 -1.05446 0
M  V30 26451 N 2582.24 1.18909 1.03433 0
M  V30 26452 C 2583.17 0.879632 2.11649 0
M  V30 26453 C 2584.19 -0.12541 1.62316 0
M  V30 26454 O 2585.37 0.103276 1.78201 0
M  V30 26455 C 2582.47 0.294101 3.37621 0
M  V30 26456 C 2581.65 1.34636 4.16163 0
M  V30 26457 C 2580.71 0.775365 5.20456 0
M  V30 26458 O 2579.73 1.45169 5.50377 0
M  V30 26459 N 2580.93 -0.424024 5.78949 0
M  V30 26460 H 2583.7 1.81109 2.38787 0
M  V30 26461 H 2581.26 1.09034 1.19679 0
M  V30 26462 H 2583.25 -0.101608 4.04572 0
M  V30 26463 H 2581.82 -0.541521 3.07874 0
M  V30 26464 H 2581.04 1.91713 3.44441 0
M  V30 26465 H 2582.33 2.05557 4.65428 0
M  V30 26466 H 2581.73 -0.991111 5.5695 0
M  V30 26467 H 2580.29 -0.761577 6.47335 0
M  V30 26468 N 2583.72 -1.22452 0.992137 0
M  V30 26469 C 2584.65 -2.26643 0.561716 0
M  V30 26470 C 2585.63 -1.65059 -0.411026 0
M  V30 26471 O 2586.81 -1.9184 -0.301827 0
M  V30 26472 C 2583.94 -3.47074 -0.125186 0
M  V30 26473 C 2582.9 -4.21089 0.766022 0
M  V30 26474 C 2582.22 -5.34673 -0.0537544 0
M  V30 26475 C 2583.52 -4.79852 2.0625 0
M  V30 26476 H 2585.22 -2.62899 1.43263 0
M  V30 26477 H 2582.76 -1.26376 0.690305 0
M  V30 26478 H 2584.72 -4.19121 -0.43769 0
M  V30 26479 H 2583.44 -3.09912 -1.03064 0
M  V30 26480 H 2582.1 -3.50876 1.06216 0
M  V30 26481 H 2581.75 -4.93752 -0.960101 0
M  V30 26482 H 2581.45 -5.85118 0.539517 0
M  V30 26483 H 2582.97 -6.09536 -0.36037 0
M  V30 26484 H 2584.39 -5.43845 1.814 0
M  V30 26485 H 2582.78 -5.40633 2.60453 0
M  V30 26486 H 2583.85 -3.99946 2.74174 0
M  V30 26487 N 2585.2 -0.765242 -1.37774 0
M  V30 26488 C 2586.42 -0.337803 -2.04124 0
M  V30 26489 C 2586.84 1.03782 -1.57717 0
M  V30 26490 O 2586.2 1.66129 -0.755476 0
M  V30 26491 C 2586.25 -0.364505 -3.59658 0
M  V30 26492 O 2585.97 -1.68586 -4.04364 0
M  V30 26493 C 2587.47 0.0753442 -4.43236 0
M  V30 26494 H 2584.69 -0.142502 -0.655694 0
M  V30 26495 H 2587.23 -1.03735 -1.76237 0
M  V30 26496 H 2585.39 0.286403 -3.8634 0
M  V30 26497 H 2585.8 -1.62001 -4.98854 0
M  V30 26498 H 2587.28 0.00550365 -5.52 0
M  V30 26499 H 2587.75 1.12484 -4.24552 0
M  V30 26500 H 2588.36 -0.547129 -4.21766 0
M  V30 26501 N 2586.67 1.48939 -0.515251 0
M  V30 26502 C 2587.92 2.02086 0.0241316 0
M  V30 26503 C 2588.24 1.39593 1.36157 0
M  V30 26504 O 2587.51 0.556154 1.8784 0
M  V30 26505 H 2586.09 0.746905 0.0119072 0
M  V30 26506 H 2588.76 1.82811 -0.675734 0
M  V30 26507 H 2587.85 3.11771 0.143331 0
M  V30 26508 N 2588.15 0.249709 1.55609 0
M  V30 26509 C 2589.38 -0.377768 2.03117 0
M  V30 26510 C 2589.79 -1.51879 1.12824 0
M  V30 26511 O 2589.13 -1.83198 0.135653 0
M  V30 26512 C 2589.2 -0.944632 3.46867 0
M  V30 26513 C 2588.86 0.0645062 4.56954 0
M  V30 26514 C 2589.86 0.875047 5.12483 0
M  V30 26515 C 2587.54 0.191408 5.01935 0
M  V30 26516 C 2589.54 1.79892 6.11488 0
M  V30 26517 C 2587.22 1.11878 6.00772 0
M  V30 26518 C 2588.22 1.92106 6.55427 0
M  V30 26519 O 2587.91 2.8328 7.52335 0
M  V30 26520 H 2587.64 -0.0935843 0.669491 0
M  V30 26521 H 2590.2 0.372001 2.02003 0
M  V30 26522 H 2588.43 -1.74401 3.45139 0
M  V30 26523 H 2590.11 -1.48249 3.77859 0
M  V30 26524 H 2590.88 0.787607 4.78562 0
M  V30 26525 H 2586.76 -0.422991 4.59055 0
M  V30 26526 H 2590.3 2.42555 6.54074 0
M  V30 26527 H 2586.2 1.20714 6.34112 0
M  V30 26528 H 2586.97 2.77673 7.69961 0
M  V30 26529 N 2589.63 -1.57583 -0.0233682 0
M  V30 26530 C 2591.05 -1.55032 -0.379107 0
M  V30 26531 C 2591.25 -0.976579 -1.76253 0
M  V30 26532 O 2590.3 -0.600121 -2.45265 0
M  V30 26533 C 2591.62 -2.99433 -0.275739 0
M  V30 26534 C 2593.16 -3.1101 -0.352403 0
M  V30 26535 C 2593.64 -4.57153 -0.278421 0
M  V30 26536 N 2595.13 -4.61972 -0.337041 0
M  V30 26537 C 2595.87 -5.726 -0.302775 0
M  V30 26538 N 2595.36 -6.92449 -0.220468 0
M  V30 26539 N 2597.15 -5.60991 -0.352924 0
M  V30 26540 H 2589.31 -1.93226 0.881903 0
M  V30 26541 H 2591.57 -0.886503 0.335882 0
M  V30 26542 H 2591.27 -3.45158 0.675168 0
M  V30 26543 H 2591.15 -3.6179 -1.06714 0
M  V30 26544 H 2593.54 -2.65229 -1.29375 0
M  V30 26545 H 2593.62 -2.51474 0.468453 0
M  V30 26546 H 2593.26 -5.03603 0.659278 0
M  V30 26547 H 2593.19 -5.14607 -1.11746 0
M  V30 26548 H 2595.68 -3.75746 -0.402936 0
M  V30 26549 H 2595.99 -7.72542 -0.199577 0
M  V30 26550 H 2594.34 -6.9475 -0.186433 0
M  V30 26551 H 2597.53 -4.66254 -0.415258 0
M  V30 26552 H 2597.7 -6.47196 -0.322752 0
M  V30 26553 N 2591.11 0.29574 -1.548 0
M  V30 26554 C 2592.36 1.03181 -1.74589 0
M  V30 26555 C 2592.69 1.86743 -0.532995 0
M  V30 26556 O 2591.96 1.8874 0.469838 0
M  V30 26557 C 2592.25 1.93342 -3.03794 0
M  V30 26558 C 2592.1 1.12925 -4.35394 0
M  V30 26559 C 2593.42 2.92429 -3.28897 0
M  V30 26560 H 2590.54 0.373704 -0.635228 0
M  V30 26561 H 2593.18 0.306027 -1.87519 0
M  V30 26562 H 2591.33 2.55227 -2.92902 0
M  V30 26563 H 2593 0.532863 -4.58212 0
M  V30 26564 H 2591.24 0.432092 -4.31643 0
M  V30 26565 H 2591.92 1.79275 -5.22077 0
M  V30 26566 H 2594.39 2.40674 -3.39434 0
M  V30 26567 H 2593.27 3.52675 -4.20609 0
M  V30 26568 H 2593.53 3.66366 -2.47444 0
M  V30 26569 N 2592.59 1.47346 0.559187 0
M  V30 26570 C 2594 1.32821 0.88492 0
M  V30 26571 C 2594.2 0.317208 1.98988 0
M  V30 26572 O 2593.26 -0.271967 2.51031 0
M  V30 26573 C 2594.57 2.72095 1.28003 0
M  V30 26574 C 2596.12 2.80365 1.39156 0
M  V30 26575 C 2596.6 4.20276 1.82023 0
M  V30 26576 N 2598.09 4.22808 1.89177 0
M  V30 26577 C 2598.82 5.27976 2.2367 0
M  V30 26578 N 2598.32 6.43452 2.56791 0
M  V30 26579 N 2600.11 5.15353 2.24427 0
M  V30 26580 H 2592.26 2.11716 -0.170341 0
M  V30 26581 H 2594.52 0.947903 -0.0135413 0
M  V30 26582 H 2594.23 3.47499 0.541966 0
M  V30 26583 H 2594.1 3.03737 2.2366 0
M  V30 26584 H 2596.49 2.05235 2.12044 0
M  V30 26585 H 2596.57 2.5238 0.416916 0
M  V30 26586 H 2596.22 4.9591 1.09706 0
M  V30 26587 H 2596.15 4.45684 2.80488 0
M  V30 26588 H 2598.64 3.395 1.65976 0
M  V30 26589 H 2598.95 7.19459 2.82131 0
M  V30 26590 H 2597.3 6.46775 2.54375 0
M  V30 26591 H 2600.49 4.24167 1.9799 0
M  V30 26592 H 2600.66 5.97422 2.50979 0
M  V30 26593 N 2594.07 -0.805758 1.35445 0
M  V30 26594 C 2595.31 -1.5652 1.28955 0
M  V30 26595 C 2595.64 -1.93726 -0.135563 0
M  V30 26596 O 2594.92 -1.61416 -1.08513 0
M  V30 26597 C 2595.2 -2.85327 2.19683 0
M  V30 26598 C 2595.06 -2.54592 3.70814 0
M  V30 26599 C 2596.37 -3.87036 2.09502 0
M  V30 26600 H 2593.49 -0.567874 0.469774 0
M  V30 26601 H 2596.14 -0.926971 1.65853 0
M  V30 26602 H 2594.29 -3.39791 1.88346 0
M  V30 26603 H 2595.96 -2.06304 4.12597 0
M  V30 26604 H 2594.2 -1.87773 3.91055 0
M  V30 26605 H 2594.87 -3.46518 4.29685 0
M  V30 26606 H 2597.35 -3.41974 2.37051 0
M  V30 26607 H 2596.22 -4.74939 2.75181 0
M  V30 26608 H 2596.48 -4.28775 1.07722 0
M  V30 26609 N 2595.54 -1.19456 -1.02801 0
M  V30 26610 C 2596.77 -1.023 -1.7984 0
M  V30 26611 C 2597.19 0.428227 -1.83879 0
M  V30 26612 O 2596.54 1.29743 -1.28347 0
M  V30 26613 C 2596.59 -1.58604 -3.24849 0
M  V30 26614 O 2596.32 -2.98046 -3.21092 0
M  V30 26615 C 2597.82 -1.46243 -4.18483 0
M  V30 26616 H 2595.04 -0.360506 -0.56593 0
M  V30 26617 H 2597.58 -1.58291 -1.29477 0
M  V30 26618 H 2595.74 -1.0676 -3.72399 0
M  V30 26619 H 2596.15 -3.24552 -4.12027 0
M  V30 26620 H 2597.62 -1.90417 -5.18117 0
M  V30 26621 H 2598.1 -0.413087 -4.37253 0
M  V30 26622 H 2598.71 -1.97222 -3.76807 0
M  V30 26623 N 2597.02 1.21924 -0.998617 0
M  V30 26624 C 2598.43 1.72592 -0.71197 0
M  V30 26625 C 2598.78 1.80424 0.77081 0
M  V30 26626 O 2597.91 1.45443 1.60235 0
M  V30 26627 C 2598.5 3.13456 -1.28573 0
M  V30 26628 C 2597.06 3.61506 -1.04834 0
M  V30 26629 C 2596.21 2.39221 -1.40244 0
M  V30 26630 H 2599.16 1.07191 -1.17029 0
M  V30 26631 H 2599.18 3.74605 -0.667164 0
M  V30 26632 H 2598.69 3.07723 -2.36492 0
M  V30 26633 H 2596.79 3.72597 0.0139728 0
M  V30 26634 H 2596.91 4.47325 -1.71574 0
M  V30 26635 H 2595.27 2.41101 -0.821119 0
M  V30 26636 H 2596.05 2.36145 -2.4918 0
M  V30 26637 N 2598.5 0.772537 1.37367 0
M  V30 26638 C 2599.45 0.157528 2.30262 0
M  V30 26639 C 2600.42 -0.688939 1.51138 0
M  V30 26640 O 2601.6 -0.641137 1.79706 0
M  V30 26641 C 2598.74 -0.714986 3.37612 0
M  V30 26642 C 2597.85 0.148174 4.31746 0
M  V30 26643 C 2596.99 -0.72912 5.26172 0
M  V30 26644 C 2596.03 0.136525 6.11948 0
M  V30 26645 N 2595.17 -0.698791 6.98614 0
M  V30 26646 H 2600.01 0.955228 2.82275 0
M  V30 26647 H 2597.54 0.482656 1.38956 0
M  V30 26648 H 2599.5 -1.23568 3.98481 0
M  V30 26649 H 2598.13 -1.47828 2.86961 0
M  V30 26650 H 2597.18 0.786679 3.72177 0
M  V30 26651 H 2598.49 0.815877 4.92082 0
M  V30 26652 H 2597.65 -1.31626 5.92249 0
M  V30 26653 H 2596.39 -1.4305 4.66249 0
M  V30 26654 H 2595.39 0.736198 5.44849 0
M  V30 26655 H 2596.62 0.835252 6.73944 0
M  V30 26656 H 2594.56 -1.38477 6.41218 0
M  V30 26657 H 2594.48 -0.0884029 7.55948 0
M  V30 26658 H 2595.75 -1.2703 7.6908 0
M  V30 26659 N 2599.98 -1.48664 0.523142 0
M  V30 26660 C 2600.89 -2.33292 -0.247365 0
M  V30 26661 C 2601.9 -1.46054 -0.945743 0
M  V30 26662 O 2603.08 -1.79045 -0.922221 0
M  V30 26663 C 2600.14 -3.22015 -1.28481 0
M  V30 26664 C 2599.21 -4.25121 -0.597517 0
M  V30 26665 C 2598.44 -5.09604 -1.58554 0
M  V30 26666 O 2598.66 -4.95954 -2.81754 0
M  V30 26667 O 2597.6 -5.91223 -1.12869 0
M  V30 26668 H 2601.42 -3.00408 0.445922 0
M  V30 26669 H 2599.01 -1.46673 0.284154 0
M  V30 26670 H 2600.89 -3.76914 -1.88452 0
M  V30 26671 H 2599.56 -2.57567 -1.96063 0
M  V30 26672 H 2598.47 -3.74076 0.0425064 0
M  V30 26673 H 2599.8 -4.92187 0.0362382 0
M  V30 26674 N 2601.46 -0.257958 -1.55475 0
M  V30 26675 C 2602.4 0.6369 -2.21838 0
M  V30 26676 C 2603.37 1.16292 -1.18598 0
M  V30 26677 O 2604.56 1.21537 -1.47083 0
M  V30 26678 C 2601.7 1.82312 -2.93013 0
M  V30 26679 C 2600.81 1.33258 -4.10934 0
M  V30 26680 C 2599.95 2.47923 -4.69795 0
M  V30 26681 C 2598.98 1.95786 -5.79943 0
M  V30 26682 N 2598.12 3.03859 -6.32941 0
M  V30 26683 H 2602.96 0.0643067 -2.97931 0
M  V30 26684 H 2600.5 0.0199772 -1.47086 0
M  V30 26685 H 2602.46 2.52012 -3.32484 0
M  V30 26686 H 2601.09 2.36801 -2.19374 0
M  V30 26687 H 2600.14 0.529244 -3.767 0
M  V30 26688 H 2601.45 0.910568 -4.90418 0
M  V30 26689 H 2600.6 3.25647 -5.11898 0
M  V30 26690 H 2599.34 2.93431 -3.89551 0
M  V30 26691 H 2598.35 1.16536 -5.37308 0
M  V30 26692 H 2599.57 1.51234 -6.62046 0
M  V30 26693 H 2597.52 3.48781 -5.55597 0
M  V30 26694 H 2597.44 2.66023 -7.07649 0
M  V30 26695 H 2598.7 3.81609 -6.79702 0
M  V30 26696 N 2602.93 1.57593 0.0150108 0
M  V30 26697 C 2604.16 1.94176 0.71436 0
M  V30 26698 C 2604.58 0.858871 1.68133 0
M  V30 26699 O 2603.93 -0.163535 1.81766 0
M  V30 26700 C 2603.99 3.30738 1.45927 0
M  V30 26701 O 2603.71 4.34869 0.531091 0
M  V30 26702 C 2605.21 3.8169 2.2545 0
M  V30 26703 H 2602.43 0.640528 0.199912 0
M  V30 26704 H 2604.97 2.04476 -0.0316455 0
M  V30 26705 H 2603.13 3.21793 2.15703 0
M  V30 26706 H 2603.54 5.1378 1.055 0
M  V30 26707 H 2605.01 4.79714 2.73091 0
M  V30 26708 H 2605.49 3.13612 3.0748 0
M  V30 26709 H 2606.1 3.93763 1.6072 0
M  V30 26710 N 2604.41 -0.287527 1.54955 0
M  V30 26711 C 2605.66 -1.01901 1.7453 0
M  V30 26712 C 2605.98 -1.87334 0.541382 0
M  V30 26713 O 2605.25 -1.908 -0.444075 0
M  V30 26714 H 2603.83 -0.379223 0.643583 0
M  V30 26715 H 2606.49 -0.31526 1.92333 0
M  V30 26716 H 2605.59 -1.66435 2.64018 0
M  V30 26717 N 2605.89 -1.47641 -0.551365 0
M  V30 26718 C 2607.3 -1.48356 -1.13346 0
M  V30 26719 C 2607.65 -0.241466 -1.94708 0
M  V30 26720 O 2606.78 0.653169 -2.06307 0
M  V30 26721 C 2607.37 -2.68806 -2.06225 0
M  V30 26722 C 2605.93 -2.72462 -2.59695 0
M  V30 26723 C 2605.08 -2.41549 -1.36197 0
M  V30 26724 H 2608.03 -1.55066 -0.337671 0
M  V30 26725 H 2608.05 -2.46108 -2.90191 0
M  V30 26726 H 2607.56 -3.59191 -1.46981 0
M  V30 26727 H 2605.66 -1.86231 -3.22721 0
M  V30 26728 H 2605.78 -3.73313 -3.0029 0
M  V30 26729 H 2604.14 -1.92253 -1.67065 0
M  V30 26730 H 2604.92 -3.34149 -0.787366 0
M  V30 26731 N 2607.37 0.798563 -1.3587 0
M  V30 26732 C 2608.3 1.91697 -1.23804 0
M  V30 26733 C 2609.28 1.62125 -0.124171 0
M  V30 26734 O 2610.46 1.86198 -0.293689 0
M  V30 26735 C 2607.59 3.26299 -0.908121 0
M  V30 26736 C 2606.64 3.74811 -2.03516 0
M  V30 26737 S 2607.47 3.91659 -3.6519 0
M  V30 26738 C 2608.63 5.2915 -3.34292 0
M  V30 26739 H 2608.86 2.01639 -2.1847 0
M  V30 26740 H 2606.39 0.956811 -1.2118 0
M  V30 26741 H 2608.35 4.04055 -0.724577 0
M  V30 26742 H 2607.01 3.14093 0.0206032 0
M  V30 26743 H 2606.2 4.72321 -1.75866 0
M  V30 26744 H 2605.81 3.04077 -2.17745 0
M  V30 26745 H 2608.1 6.13419 -2.87618 0
M  V30 26746 H 2609.04 5.61798 -4.31031 0
M  V30 26747 H 2609.45 4.95817 -2.69863 0
M  V30 26748 N 2608.85 1.19999 1.02166 0
M  V30 26749 C 2609.79 0.944265 2.106 0
M  V30 26750 C 2610.76 -0.123635 1.65639 0
M  V30 26751 O 2611.95 0.0200276 1.90789 0
M  V30 26752 C 2609.09 0.496925 3.41504 0
M  V30 26753 C 2608.2 1.63241 3.99971 0
M  V30 26754 C 2607.34 1.13588 5.18913 0
M  V30 26755 C 2606.38 2.24478 5.69452 0
M  V30 26756 N 2605.51 1.7608 6.79662 0
M  V30 26757 H 2610.35 1.87264 2.31811 0
M  V30 26758 H 2607.89 0.933503 1.13684 0
M  V30 26759 H 2609.85 0.218916 4.16625 0
M  V30 26760 H 2608.48 -0.394452 3.20381 0
M  V30 26761 H 2607.53 2.02545 3.21993 0
M  V30 26762 H 2608.84 2.4676 4.33487 0
M  V30 26763 H 2608 0.813534 6.01221 0
M  V30 26764 H 2606.73 0.270519 4.86949 0
M  V30 26765 H 2605.74 2.57535 4.85753 0
M  V30 26766 H 2606.96 3.11482 6.03453 0
M  V30 26767 H 2604.91 0.91863 6.49536 0
M  V30 26768 H 2604.83 2.53183 7.12344 0
M  V30 26769 H 2606.1 1.4683 7.65546 0
M  V30 26770 N 2610.32 -1.21392 1.00507 0
M  V30 26771 C 2611.23 -2.27448 0.574846 0
M  V30 26772 C 2612.25 -1.69751 -0.382176 0
M  V30 26773 O 2613.43 -1.99892 -0.245992 0
M  V30 26774 C 2610.49 -3.46579 -0.0916805 0
M  V30 26775 C 2609.55 -4.19548 0.909831 0
M  V30 26776 C 2608.79 -5.32991 0.275017 0
M  V30 26777 O 2609.01 -5.62798 -0.928155 0
M  V30 26778 O 2607.94 -5.93769 0.985982 0
M  V30 26779 H 2611.77 -2.66441 1.45749 0
M  V30 26780 H 2609.35 -1.27791 0.773946 0
M  V30 26781 H 2611.24 -4.18832 -0.464477 0
M  V30 26782 H 2609.91 -3.09486 -0.9487 0
M  V30 26783 H 2608.82 -3.49515 1.33379 0
M  V30 26784 H 2610.15 -4.60552 1.73644 0
M  V30 26785 N 2611.8 -0.779811 -1.36955 0
M  V30 26786 C 2613.05 -0.34444 -1.98737 0
M  V30 26787 C 2613.36 1.08725 -1.62598 0
M  V30 26788 O 2614.57 1.62441 -2.17543 0
M  V30 26789 C 2613.03 -0.564891 -3.55439 0
M  V30 26790 C 2612.63 -2.00737 -4.0051 0
M  V30 26791 C 2614.38 -0.193545 -4.24059 0
M  V30 26792 C 2612.29 -2.17499 -5.49953 0
M  V30 26793 H 2611.22 -0.125043 -0.743559 0
M  V30 26794 H 2613.87 -0.960084 -1.5638 0
M  V30 26795 H 2612.25 0.120328 -3.95817 0
M  V30 26796 H 2613.42 -2.7282 -3.71357 0
M  V30 26797 H 2611.74 -2.33606 -3.44699 0
M  V30 26798 H 2614.33 -0.297191 -5.33873 0
M  V30 26799 H 2614.68 0.857191 -4.07379 0
M  V30 26800 H 2615.21 -0.831625 -3.8901 0
M  V30 26801 H 2611.95 -3.20921 -5.71568 0
M  V30 26802 H 2611.47 -1.49909 -5.80764 0
M  V30 26803 H 2613.15 -1.97748 -6.16039 0
M  V30 26804 N 2613.28 1.48384 -0.531019 0
M  V30 26805 C 2614.23 2.31311 0.244554 0
M  V30 26806 C 2615.22 1.41293 0.934485 0
M  V30 26807 O 2616.43 1.58194 0.858752 0
M  V30 26808 H 2612.8 0.745622 0.097734 0
M  V30 26809 H 2614.77 2.94604 -0.474421 0
M  V30 26810 C 2613.52 3.23367 1.27785 0
M  V30 26811 H 2612.85 3.9258 0.75637 0
M  V30 26812 H 2614.29 3.84274 1.79191 0
M  V30 26813 C 2612.75 2.45046 2.31201 0
M  V30 26814 O 2613.28 2.17602 3.37657 0
M  V30 26815 N 2611.48 2.06523 2.04442 0
M  V30 26816 H 2611.03 2.29042 1.17887 0
M  V30 26817 H 2610.99 1.54432 2.73858 0
M  V30 26818 N 2614.76 0.2662 1.55336 0
M  V30 26819 C 2615.69 -0.618941 2.25147 0
M  V30 26820 C 2616.67 -1.16602 1.23847 0
M  V30 26821 O 2617.85 -1.20181 1.52546 0
M  V30 26822 C 2614.98 -1.80723 2.96575 0
M  V30 26823 C 2613.94 -1.39208 4.04729 0
M  V30 26824 C 2613.26 -2.66275 4.63683 0
M  V30 26825 C 2614.56 -0.548851 5.19408 0
M  V30 26826 H 2616.26 -0.036759 2.99377 0
M  V30 26827 H 2613.8 -0.0162398 1.43991 0
M  V30 26828 H 2615.76 -2.43226 3.44121 0
M  V30 26829 H 2614.48 -2.4151 2.19865 0
M  V30 26830 H 2613.14 -0.790288 3.5798 0
M  V30 26831 H 2612.79 -3.25301 3.83651 0
M  V30 26832 H 2612.49 -2.39213 5.36704 0
M  V30 26833 H 2614.01 -3.29642 5.13973 0
M  V30 26834 H 2615.43 -1.07866 5.63061 0
M  V30 26835 H 2613.82 -0.373488 5.98937 0
M  V30 26836 H 2614.89 0.434479 4.8295 0
M  V30 26837 N 2616.24 -1.57599 -0.0066531 0
M  V30 26838 C 2617.2 -2.06955 -0.984999 0
M  V30 26839 C 2618.2 -0.97771 -1.27662 0
M  V30 26840 O 2619.39 -1.24059 -1.22291 0
M  V30 26841 C 2616.52 -2.5054 -2.31176 0
M  V30 26842 H 2617.71 -2.94659 -0.558203 0
M  V30 26843 H 2615.27 -1.54223 -0.253984 0
M  V30 26844 H 2616 -1.66059 -2.78558 0
M  V30 26845 H 2615.79 -3.30274 -2.11333 0
M  V30 26846 H 2617.28 -2.89075 -3.01372 0
M  V30 26847 N 2617.72 0.279305 -1.55105 0
M  V30 26848 C 2619.13 0.850803 -1.66187 0
M  V30 26849 C 2619.48 1.87284 -0.58474 0
M  V30 26850 O 2618.6 2.14647 0.274882 0
M  V30 26851 C 2619.2 1.54996 -3.01267 0
M  V30 26852 C 2617.76 2.06957 -3.14397 0
M  V30 26853 C 2616.9 0.90949 -2.61961 0
M  V30 26854 H 2619.85 0.0557957 -1.58602 0
M  V30 26855 H 2619.88 2.41664 -2.93903 0
M  V30 26856 H 2619.39 0.805864 -3.79641 0
M  V30 26857 H 2617.49 2.84348 -2.40784 0
M  V30 26858 H 2617.6 2.28921 -4.20871 0
M  V30 26859 H 2615.97 1.30112 -2.18959 0
M  V30 26860 H 2616.75 0.179002 -3.42833 0
M  V30 26861 N 2619.19 1.47931 0.543528 0
M  V30 26862 C 2620.47 1.45742 1.30456 0
M  V30 26863 C 2620.85 0.161729 2.1048 0
M  V30 26864 O 2620.2 -0.856697 2.11832 0
M  V30 26865 C 2620.41 2.71129 2.1975 0
M  V30 26866 C 2621.76 3.18906 2.80329 0
M  V30 26867 O 2622.78 2.71952 2.30044 0
M  V30 26868 O 2621.64 4.00572 3.71759 0
M  V30 26869 H 2618.73 0.581428 0.588107 0
M  V30 26870 H 2621.28 1.60148 0.5613 0
M  V30 26871 H 2620.05 3.56954 1.6031 0
M  V30 26872 H 2619.67 2.59376 3.01346 0
M  V30 26873 N 2620.67 -0.791347 1.36292 0
M  V30 26874 C 2621.9 -1.58529 1.33729 0
M  V30 26875 C 2622.32 -1.87932 -0.0794603 0
M  V30 26876 O 2621.68 -1.4774 -1.05084 0
M  V30 26877 C 2621.73 -2.88427 2.1643 0
M  V30 26878 O 2620.83 -3.81941 1.55547 0
M  V30 26879 H 2620.17 -0.480951 0.457802 0
M  V30 26880 H 2622.7 -0.980999 1.79548 0
M  V30 26881 H 2622.71 -3.37714 2.28939 0
M  V30 26882 H 2621.39 -2.66353 3.1942 0
M  V30 26883 H 2619.96 -3.4053 1.51967 0
M  V30 26884 N 2622.15 -1.2054 -1.01528 0
M  V30 26885 C 2623.37 -1.04274 -1.79281 0
M  V30 26886 C 2623.8 0.403511 -1.83721 0
M  V30 26887 O 2623.16 1.29067 -1.27324 0
M  V30 26888 C 2623.21 -1.63247 -3.21532 0
M  V30 26889 O 2622.31 -0.870979 -4.03098 0
M  V30 26890 H 2621.65 -0.367656 -0.552924 0
M  V30 26891 H 2624.18 -1.59861 -1.27694 0
M  V30 26892 H 2624.19 -1.67037 -3.7224 0
M  V30 26893 H 2622.87 -2.68502 -3.17615 0
M  V30 26894 H 2621.44 -0.907387 -3.61692 0
M  V30 26895 N 2623.63 1.20858 -1.01149 0
M  V30 26896 C 2624.85 1.94622 -0.716732 0
M  V30 26897 C 2625.28 1.73965 0.715384 0
M  V30 26898 O 2624.64 1.03065 1.49155 0
M  V30 26899 C 2624.68 3.44933 -1.05136 0
M  V30 26900 O 2623.79 4.12089 -0.160204 0
M  V30 26901 H 2623.13 0.60821 -0.266415 0
M  V30 26902 H 2625.66 1.53433 -1.35349 0
M  V30 26903 H 2625.67 3.95532 -1.00093 0
M  V30 26904 H 2624.34 3.59291 -2.09482 0
M  V30 26905 H 2622.92 3.71938 -0.267722 0
M  V30 26906 N 2625.11 0.787064 1.3654 0
M  V30 26907 C 2626.35 0.358907 1.99599 0
M  V30 26908 C 2626.68 -1.06603 1.62325 0
M  V30 26909 O 2625.96 -1.73611 0.876889 0
M  V30 26910 C 2626.24 0.520006 3.56326 0
M  V30 26911 C 2626.1 1.98846 4.0346 0
M  V30 26912 C 2627.41 -0.0663964 4.4005 0
M  V30 26913 H 2624.53 0.131882 0.725104 0
M  V30 26914 H 2627.18 0.992964 1.61988 0
M  V30 26915 H 2625.33 -0.0197638 3.88495 0
M  V30 26916 H 2627 2.58911 3.81789 0
M  V30 26917 H 2625.24 2.4919 3.55087 0
M  V30 26918 H 2625.91 2.05216 5.12436 0
M  V30 26919 H 2628.39 0.394339 4.14227 0
M  V30 26920 H 2627.26 0.0763647 5.48847 0
M  V30 26921 H 2627.52 -1.15827 4.26657 0
M  V30 26922 N 2626.58 -1.48101 0.53888 0
M  V30 26923 C 2627.83 -2.02798 0.0080493 0
M  V30 26924 C 2628.16 -1.41426 -1.33087 0
M  V30 26925 O 2627.44 -0.563191 -1.86168 0
M  V30 26926 C 2627.72 -3.59948 -0.104526 0
M  V30 26927 C 2627.57 -4.31786 1.2602 0
M  V30 26928 C 2628.89 -4.3226 -0.826979 0
M  V30 26929 H 2626.01 -0.736987 0.0043992 0
M  V30 26930 H 2628.65 -1.76729 0.697631 0
M  V30 26931 H 2626.8 -3.8229 -0.691825 0
M  V30 26932 H 2628.48 -4.20837 1.88929 0
M  V30 26933 H 2626.72 -3.92856 1.83975 0
M  V30 26934 H 2627.39 -5.40219 1.13433 0
M  V30 26935 H 2629.87 -4.14801 -0.328505 0
M  V30 26936 H 2628.74 -5.41886 -0.874665 0
M  V30 26937 H 2629 -4.00173 -1.8792 0
M  V30 26938 N 2628.06 -0.274434 -1.55192 0
M  V30 26939 C 2629.31 0.343051 -1.99877 0
M  V30 26940 C 2629.64 1.55555 -1.16259 0
M  V30 26941 O 2628.92 1.93105 -0.232496 0
M  V30 26942 C 2629.2 0.725903 -3.52708 0
M  V30 26943 C 2629.05 -0.493896 -4.4708 0
M  V30 26944 C 2630.37 1.5626 -4.11425 0
M  V30 26945 H 2627.49 0.123216 -0.726627 0
M  V30 26946 H 2630.13 -0.381243 -1.86136 0
M  V30 26947 H 2628.28 1.34301 -3.64548 0
M  V30 26948 H 2629.95 -1.13245 -4.47184 0
M  V30 26949 H 2628.2 -1.13208 -4.18768 0
M  V30 26950 H 2628.87 -0.182267 -5.51699 0
M  V30 26951 H 2631.34 1.04144 -4.02856 0
M  V30 26952 H 2630.22 1.7993 -5.18572 0
M  V30 26953 H 2630.48 2.54341 -3.61611 0
M  V30 26954 N 2629.54 1.576 -0.00170483 0
M  V30 26955 C 2630.76 1.95325 0.697355 0
M  V30 26956 C 2631.19 0.876735 1.66418 0
M  V30 26957 O 2630.55 -0.164976 1.80548 0
M  V30 26958 C 2630.6 3.32146 1.40397 0
M  V30 26959 O 2629.7 3.2657 2.51844 0
M  V30 26960 H 2629.04 0.637603 0.185362 0
M  V30 26961 H 2631.57 2.04525 -0.0554025 0
M  V30 26962 H 2631.58 3.67751 1.76701 0
M  V30 26963 H 2630.26 4.1005 0.695095 0
M  V30 26964 H 2628.83 3.02644 2.17856 0
M  V30 26965 N 2631.02 -0.271076 1.55251 0
M  V30 26966 C 2632.27 -1.00044 1.75601 0
M  V30 26967 C 2632.59 -1.86749 0.56122 0
M  V30 26968 O 2631.86 -1.91261 -0.423813 0
M  V30 26969 H 2630.44 -0.372376 0.647569 0
M  V30 26970 H 2633.1 -0.294843 1.92657 0
M  V30 26971 H 2632.19 -1.63626 2.65769 0
M  V30 26972 N 2632.5 -1.48217 -0.535675 0
M  V30 26973 C 2633.43 -1.65207 -1.65012 0
M  V30 26974 C 2634.41 -0.50104 -1.62553 0
M  V30 26975 O 2635.59 -0.732917 -1.79839 0
M  V30 26976 C 2632.72 -1.68631 -3.03613 0
M  V30 26977 C 2631.68 -2.83178 -3.20927 0
M  V30 26978 C 2631 -2.71687 -4.60532 0
M  V30 26979 C 2632.3 -4.2454 -3.04242 0
M  V30 26980 H 2634 -2.58505 -1.51048 0
M  V30 26981 H 2631.54 -1.24404 -0.72524 0
M  V30 26982 H 2633.5 -1.79106 -3.81443 0
M  V30 26983 H 2632.22 -0.719082 -3.18586 0
M  V30 26984 H 2630.88 -2.72249 -2.45512 0
M  V30 26985 H 2630.53 -1.72946 -4.72333 0
M  V30 26986 H 2630.23 -3.48547 -4.73063 0
M  V30 26987 H 2631.75 -2.84121 -5.4047 0
M  V30 26988 H 2633.16 -4.36332 -3.71869 0
M  V30 26989 H 2631.56 -5.02354 -3.28269 0
M  V30 26990 H 2632.63 -4.41401 -2.00732 0
M  V30 26991 N 2633.97 0.784108 -1.3671 0
M  V30 26992 C 2634.91 1.90373 -1.25831 0
M  V30 26993 C 2635.89 1.61984 -0.14136 0
M  V30 26994 O 2637.07 1.85876 -0.313421 0
M  V30 26995 C 2634.2 3.25317 -0.942678 0
M  V30 26996 C 2633.24 3.72631 -2.0748 0
M  V30 26997 S 2634.08 3.87763 -3.69324 0
M  V30 26998 C 2635.23 5.25575 -3.39886 0
M  V30 26999 H 2635.46 1.9931 -2.20596 0
M  V30 27000 H 2633 0.943905 -1.22188 0
M  V30 27001 H 2634.96 4.03263 -0.767392 0
M  V30 27002 H 2633.62 3.14097 -0.0127118 0
M  V30 27003 H 2632.81 4.70429 -1.80866 0
M  V30 27004 H 2632.41 3.01751 -2.20958 0
M  V30 27005 H 2634.7 6.10333 -2.94108 0
M  V30 27006 H 2635.65 5.57195 -4.36966 0
M  V30 27007 H 2636.05 4.92927 -2.75106 0
M  V30 27008 N 2635.45 1.21076 1.00888 0
M  V30 27009 C 2636.7 1.02715 1.74864 0
M  V30 27010 C 2637.03 -0.438754 1.89179 0
M  V30 27011 O 2636.31 -1.32564 1.42327 0
M  V30 27012 C 2636.59 1.72041 3.16344 0
M  V30 27013 C 2636.44 3.26126 3.09777 0
M  V30 27014 C 2637.76 1.4598 4.15184 0
M  V30 27015 H 2634.88 0.37455 0.634729 0
M  V30 27016 H 2637.52 1.49198 1.17643 0
M  V30 27017 H 2635.67 1.32523 3.65198 0
M  V30 27018 H 2637.34 3.74988 2.68667 0
M  V30 27019 H 2635.59 3.5663 2.46976 0
M  V30 27020 H 2636.26 3.69797 4.09822 0
M  V30 27021 H 2638.73 1.80278 3.75019 0
M  V30 27022 H 2637.61 1.97008 5.12327 0
M  V30 27023 H 2637.87 0.389001 4.40385 0
M  V30 27024 N 2636.93 -1.2032 1.01789 0
M  V30 27025 C 2637.89 -2.21369 0.594011 0
M  V30 27026 C 2638.89 -1.57239 -0.336525 0
M  V30 27027 O 2640.08 -1.73751 -0.125038 0
M  V30 27028 C 2637.22 -3.40643 -0.132373 0
M  V30 27029 H 2638.41 -2.60384 1.48796 0
M  V30 27030 H 2635.96 -1.33805 0.807826 0
M  V30 27031 H 2636.7 -3.07132 -1.04117 0
M  V30 27032 H 2636.48 -3.88418 0.536119 0
M  V30 27033 H 2637.97 -4.1552 -0.416241 0
M  V30 27034 N 2638.41 -0.794293 -1.3612 0
M  V30 27035 C 2639.64 -0.381025 -2.03361 0
M  V30 27036 C 2640.05 1.00413 -1.59883 0
M  V30 27037 O 2639.41 1.64489 -0.790544 0
M  V30 27038 C 2639.46 -0.440712 -3.58804 0
M  V30 27039 O 2639.18 -1.77125 -4.00697 0
M  V30 27040 C 2640.68 -0.0186896 -4.43296 0
M  V30 27041 H 2637.9 -0.156379 -0.652523 0
M  V30 27042 H 2640.45 -1.0745 -1.73997 0
M  V30 27043 H 2638.6 0.20439 -3.8686 0
M  V30 27044 H 2639.01 -1.72546 -4.95306 0
M  V30 27045 H 2640.49 -0.111585 -5.51887 0
M  V30 27046 H 2640.97 1.03453 -4.26842 0
M  V30 27047 H 2641.57 -0.636469 -4.20511 0
M  V30 27048 N 2639.89 1.47813 -0.546727 0
M  V30 27049 C 2640.83 2.29872 0.206814 0
M  V30 27050 C 2641.8 1.38413 0.918211 0
M  V30 27051 O 2642.99 1.67376 0.915962 0
M  V30 27052 C 2640.13 3.22153 1.2374 0
M  V30 27053 C 2639.24 4.28698 0.533141 0
M  V30 27054 C 2638.38 5.08141 1.54811 0
M  V30 27055 C 2637.42 6.06471 0.82824 0
M  V30 27056 N 2636.55 6.78911 1.78954 0
M  V30 27057 H 2641.39 2.93791 -0.499089 0
M  V30 27058 H 2638.93 1.44821 -0.257956 0
M  V30 27059 H 2640.89 3.74068 1.84739 0
M  V30 27060 H 2639.52 2.60121 1.91147 0
M  V30 27061 H 2638.57 3.79919 -0.191156 0
M  V30 27062 H 2639.88 4.9879 -0.0312863 0
M  V30 27063 H 2639.04 5.64154 2.23193 0
M  V30 27064 H 2637.77 4.37926 2.14644 0
M  V30 27065 H 2636.78 5.49645 0.130442 0
M  V30 27066 H 2638 6.78691 0.235788 0
M  V30 27067 H 2635.95 6.11434 2.37665 0
M  V30 27068 H 2635.87 7.45137 1.27699 0
M  V30 27069 H 2637.14 7.39504 2.46483 0
M  V30 27070 N 2641.36 0.28266 1.55044 0
M  V30 27071 C 2642.59 -0.334599 2.03873 0
M  V30 27072 C 2643 -1.49452 1.1602 0
M  V30 27073 O 2642.35 -1.82869 0.174481 0
M  V30 27074 C 2642.41 -0.870844 3.48793 0
M  V30 27075 C 2642.07 0.161419 4.56715 0
M  V30 27076 C 2643.07 0.983555 5.10512 0
M  V30 27077 C 2640.75 0.297833 5.01416 0
M  V30 27078 C 2642.75 1.92822 6.07535 0
M  V30 27079 C 2640.43 1.24597 5.98263 0
M  V30 27080 C 2641.43 2.05966 6.51204 0
M  V30 27081 O 2641.12 2.99175 7.46157 0
M  V30 27082 H 2640.85 -0.0793624 0.671325 0
M  V30 27083 H 2643.41 0.414765 2.01169 0
M  V30 27084 H 2641.64 -1.67041 3.48761 0
M  V30 27085 H 2643.33 -1.402 3.80918 0
M  V30 27086 H 2644.09 0.88894 4.76784 0
M  V30 27087 H 2639.97 -0.325524 4.59849 0
M  V30 27088 H 2643.51 2.56374 6.48782 0
M  V30 27089 H 2639.41 1.34137 6.31409 0
M  V30 27090 H 2640.18 2.93943 7.63898 0
M  V30 27091 N 2642.84 -1.57597 0.0100627 0
M  V30 27092 C 2643.75 -2.12492 -0.994189 0
M  V30 27093 C 2644.77 -1.07256 -1.37011 0
M  V30 27094 O 2645.94 -1.39212 -1.4554 0
M  V30 27095 C 2643.01 -2.62559 -2.26415 0
M  V30 27096 C 2642.07 -3.82436 -1.95042 0
M  V30 27097 C 2641.3 -4.30105 -3.15983 0
M  V30 27098 O 2641.53 -3.77048 -4.28009 0
M  V30 27099 O 2640.46 -5.22156 -2.99393 0
M  V30 27100 H 2644.29 -2.98539 -0.557496 0
M  V30 27101 H 2641.87 -1.47925 -0.209387 0
M  V30 27102 H 2643.75 -2.94915 -3.01004 0
M  V30 27103 H 2642.43 -1.79605 -2.69303 0
M  V30 27104 H 2641.34 -3.55037 -1.17898 0
M  V30 27105 H 2642.67 -4.66494 -1.56984 0
M  V30 27106 N 2644.32 0.262839 -1.55393 0
M  V30 27107 C 2645.57 0.994549 -1.76739 0
M  V30 27108 C 2645.9 1.8557 -0.572486 0
M  V30 27109 O 2645.17 1.89694 0.429698 0
M  V30 27110 C 2645.46 1.86854 -3.07827 0
M  V30 27111 C 2645.31 1.03665 -4.37691 0
M  V30 27112 C 2646.63 2.85387 -3.35026 0
M  V30 27113 H 2643.75 0.360146 -0.643012 0
M  V30 27114 H 2646.39 0.266183 -1.88126 0
M  V30 27115 H 2644.54 2.48956 -2.9825 0
M  V30 27116 H 2646.21 0.435549 -4.59239 0
M  V30 27117 H 2644.46 0.340437 -4.32462 0
M  V30 27118 H 2645.13 1.6816 -5.25762 0
M  V30 27119 H 2647.6 2.3342 -3.44462 0
M  V30 27120 H 2646.48 3.43674 -4.27995 0
M  V30 27121 H 2646.74 3.61035 -2.55159 0
M  V30 27122 N 2645.8 1.48499 0.527807 0
M  V30 27123 C 2647.02 1.60549 1.31297 0
M  V30 27124 C 2647.45 0.266753 1.86199 0
M  V30 27125 O 2646.81 -0.761889 1.64514 0
M  V30 27126 C 2646.85 2.65682 2.43814 0
M  V30 27127 O 2645.96 2.22993 3.46912 0
M  V30 27128 H 2645.3 0.538284 0.388775 0
M  V30 27129 H 2647.83 1.94501 0.634862 0
M  V30 27130 H 2647.84 2.87023 2.89968 0
M  V30 27131 H 2646.51 3.62872 2.03215 0
M  V30 27132 H 2645.09 2.11875 3.06861 0
M  V30 27133 N 2647.28 -0.776847 1.37123 0
M  V30 27134 C 2648.52 -1.53749 1.32246 0
M  V30 27135 C 2648.86 -1.9397 -0.0944404 0
M  V30 27136 O 2648.13 -1.63682 -1.05065 0
M  V30 27137 C 2648.41 -2.80603 2.25686 0
M  V30 27138 C 2648.27 -2.46669 3.76131 0
M  V30 27139 C 2649.59 -3.82505 2.17664 0
M  V30 27140 H 2646.71 -0.557782 0.481714 0
M  V30 27141 H 2649.35 -0.891583 1.67782 0
M  V30 27142 H 2647.5 -3.3572 1.95511 0
M  V30 27143 H 2649.17 -1.97506 4.1688 0
M  V30 27144 H 2647.41 -1.79436 3.9495 0
M  V30 27145 H 2648.08 -3.37326 4.36939 0
M  V30 27146 H 2650.56 -3.36869 2.44251 0
M  V30 27147 H 2649.44 -4.68995 2.85193 0
M  V30 27148 H 2649.7 -4.26394 1.16793 0
M  V30 27149 N 2648.76 -1.2161 -1.00244 0
M  V30 27150 C 2649.99 -1.05938 -1.77372 0
M  V30 27151 C 2650.39 0.393654 -1.85059 0
M  V30 27152 O 2649.74 1.28484 -1.31291 0
M  V30 27153 C 2649.8 -1.58441 -3.22702 0
M  V30 27154 C 2649.46 -3.06935 -3.38585 0
M  V30 27155 C 2650.46 -4.0446 -3.26663 0
M  V30 27156 C 2648.14 -3.46193 -3.63944 0
M  V30 27157 C 2650.14 -5.3923 -3.39868 0
M  V30 27158 C 2647.83 -4.81115 -3.76791 0
M  V30 27159 C 2648.82 -5.77442 -3.6476 0
M  V30 27160 O 2648.51 -7.09916 -3.77193 0
M  V30 27161 H 2648.24 -0.372388 -0.564183 0
M  V30 27162 H 2650.8 -1.61456 -1.26968 0
M  V30 27163 H 2649.03 -0.973213 -3.74253 0
M  V30 27164 H 2650.72 -1.38575 -3.81513 0
M  V30 27165 H 2651.48 -3.75474 -3.06993 0
M  V30 27166 H 2647.36 -2.71747 -3.7239 0
M  V30 27167 H 2650.91 -6.14399 -3.30393 0
M  V30 27168 H 2646.8 -5.09786 -3.95966 0
M  V30 27169 H 2647.57 -7.17362 -3.94125 0
M  V30 27170 N 2650.23 1.19778 -1.02425 0
M  V30 27171 C 2651.2 2.21051 -0.605742 0
M  V30 27172 C 2652.2 1.57415 0.328181 0
M  V30 27173 O 2653.39 1.73815 0.115822 0
M  V30 27174 C 2650.52 3.40708 0.114306 0
M  V30 27175 H 2651.71 2.59591 -1.50174 0
M  V30 27176 H 2649.26 1.33375 -0.814911 0
M  V30 27177 H 2650 3.0768 1.02487 0
M  V30 27178 H 2649.78 3.88128 -0.55671 0
M  V30 27179 H 2651.27 4.15735 0.394199 0
M  V30 27180 N 2651.71 0.801501 1.35697 0
M  V30 27181 C 2652.64 0.222699 2.32436 0
M  V30 27182 C 2653.62 -0.649029 1.57231 0
M  V30 27183 O 2654.81 -0.580354 1.85325 0
M  V30 27184 C 2651.94 -0.633659 3.4147 0
M  V30 27185 C 2650.89 0.139158 4.27774 0
M  V30 27186 C 2650.22 -0.838573 5.28083 0
M  V30 27187 C 2651.52 1.33526 5.04944 0
M  V30 27188 H 2653.21 1.03091 2.81092 0
M  V30 27189 H 2650.76 0.497179 1.35145 0
M  V30 27190 H 2652.71 -1.0486 4.08145 0
M  V30 27191 H 2651.43 -1.4747 2.91411 0
M  V30 27192 H 2650.09 0.53522 3.62672 0
M  V30 27193 H 2649.74 -1.67498 4.74293 0
M  V30 27194 H 2649.44 -0.325837 5.86696 0
M  V30 27195 H 2650.97 -1.25183 5.9763 0
M  V30 27196 H 2652.38 0.995448 5.64592 0
M  V30 27197 H 2650.78 1.78212 5.73027 0
M  V30 27198 H 2651.85 2.1245 4.35882 0
M  V30 27199 N 2653.19 -1.47521 0.554558 0
M  V30 27200 C 2654.14 -2.29978 -0.19462 0
M  V30 27201 C 2655.11 -1.38898 -0.910857 0
M  V30 27202 O 2656.29 -1.6786 -0.907073 0
M  V30 27203 C 2653.43 -3.22805 -1.2203 0
M  V30 27204 C 2652.54 -4.28974 -0.510398 0
M  V30 27205 C 2651.68 -5.08955 -1.52114 0
M  V30 27206 C 2650.72 -6.06901 -0.796066 0
M  V30 27207 N 2649.86 -6.7985 -1.75351 0
M  V30 27208 H 2654.7 -2.93522 0.514662 0
M  V30 27209 H 2652.23 -1.44682 0.265632 0
M  V30 27210 H 2654.19 -3.75043 -1.82753 0
M  V30 27211 H 2652.82 -2.61131 -1.89765 0
M  V30 27212 H 2651.87 -3.79813 0.211301 0
M  V30 27213 H 2653.18 -4.98767 0.0577379 0
M  V30 27214 H 2652.34 -5.6533 -2.20198 0
M  V30 27215 H 2651.08 -4.39058 -2.12319 0
M  V30 27216 H 2650.08 -5.49707 -0.101291 0
M  V30 27217 H 2651.31 -6.78806 -0.199792 0
M  V30 27218 H 2649.25 -6.12686 -2.34419 0
M  V30 27219 H 2649.17 -7.45804 -1.23745 0
M  V30 27220 H 2650.44 -7.40801 -2.42557 0
M  V30 27221 N 2654.67 -0.290879 -1.54892 0
M  V30 27222 C 2655.94 0.373955 -1.91992 0
M  V30 27223 C 2656.32 1.7249 -1.21697 0
M  V30 27224 O 2655.67 2.25816 -0.34921 0
M  V30 27225 C 2655.88 0.498642 -3.45419 0
M  V30 27226 C 2657.23 0.774225 -4.17482 0
M  V30 27227 O 2658.25 0.582846 -3.51399 0
M  V30 27228 O 2657.11 1.1412 -5.34452 0
M  V30 27229 H 2654.21 0.207301 -0.800597 0
M  V30 27230 H 2656.75 -0.338193 -1.66296 0
M  V30 27231 H 2655.53 -0.45146 -3.88687 0
M  V30 27232 H 2655.15 1.25965 -3.77119 0
M  V30 27233 N 2656.15 1.57589 -0.0184203 0
M  V30 27234 C 2657.37 1.95648 0.673012 0
M  V30 27235 C 2657.79 0.894341 1.66274 0
M  V30 27236 O 2657.15 -0.124943 1.82072 0
M  V30 27237 C 2657.2 3.33759 1.38878 0
M  V30 27238 O 2656.92 4.35898 0.438729 0
M  V30 27239 C 2658.42 3.86386 2.17303 0
M  V30 27240 H 2655.64 0.644624 0.18628 0
M  V30 27241 H 2658.18 2.04362 -0.0750107 0
M  V30 27242 H 2656.34 3.26296 2.08829 0
M  V30 27243 H 2656.75 5.15902 0.945778 0
M  V30 27244 H 2658.23 4.85398 2.62854 0
M  V30 27245 H 2658.7 3.20064 3.00759 0
M  V30 27246 H 2659.31 3.97083 1.52332 0
M  V30 27247 N 2657.62 -0.254594 1.5553 0
M  V30 27248 C 2658.55 -1.31893 1.92682 0
M  V30 27249 C 2659.53 -1.50599 0.790824 0
M  V30 27250 O 2660.72 -1.63335 1.05048 0
M  V30 27251 C 2657.85 -2.67513 2.21482 0
M  V30 27252 C 2656.8 -2.63513 3.37261 0
M  V30 27253 C 2656.13 -4.02856 3.51583 0
M  V30 27254 C 2657.43 -2.2117 4.73161 0
M  V30 27255 H 2659.12 -1.01046 2.81833 0
M  V30 27256 H 2656.67 -0.484638 1.356 0
M  V30 27257 H 2658.62 -3.42099 2.46061 0
M  V30 27258 H 2657.35 -2.9998 1.29149 0
M  V30 27259 H 2656.01 -1.91384 3.12678 0
M  V30 27260 H 2655.65 -4.32576 2.56684 0
M  V30 27261 H 2655.35 -4.0107 4.29437 0
M  V30 27262 H 2656.88 -4.79154 3.78475 0
M  V30 27263 H 2658.29 -2.85486 4.97163 0
M  V30 27264 H 2656.69 -2.30511 5.54062 0
M  V30 27265 H 2657.76 -1.16324 4.70741 0
M  V30 27266 N 2659.1 -1.48777 -0.519925 0
M  V30 27267 C 2660.33 -1.60984 -1.29968 0
M  V30 27268 C 2660.74 -0.273917 -1.86802 0
M  V30 27269 O 2660.1 0.738164 -1.66905 0
M  V30 27270 C 2660.15 -2.6642 -2.44342 0
M  V30 27271 O 2659.87 -3.94828 -1.89848 0
M  V30 27272 C 2661.37 -2.89159 -3.36009 0
M  V30 27273 H 2658.59 -0.542503 -0.394882 0
M  V30 27274 H 2661.14 -1.94677 -0.62618 0
M  V30 27275 H 2659.29 -2.35557 -3.07557 0
M  V30 27276 H 2659.71 -4.52755 -2.6479 0
M  V30 27277 H 2661.18 -3.6671 -4.12586 0
M  V30 27278 H 2661.66 -1.98358 -3.91855 0
M  V30 27279 H 2662.26 -3.21364 -2.78577 0
M  V30 27280 N 2660.58 0.769564 -1.37534 0
M  V30 27281 C 2661.8 1.56381 -1.36234 0
M  V30 27282 C 2662.23 1.88035 0.0495519 0
M  V30 27283 O 2661.59 1.49393 1.0272 0
M  V30 27284 C 2661.64 2.84948 -2.20991 0
M  V30 27285 O 2660.74 3.79418 -1.61604 0
M  V30 27286 H 2660.08 0.473607 -0.465395 0
M  V30 27287 H 2662.61 0.95231 -1.81086 0
M  V30 27288 H 2662.62 3.34029 -2.34283 0
M  V30 27289 H 2661.3 2.61238 -3.23617 0
M  V30 27290 H 2659.87 3.38069 -1.57365 0
M  V30 27291 N 2662.06 1.22139 0.995977 0
M  V30 27292 C 2663.47 0.980689 1.25915 0
M  V30 27293 C 2663.67 -0.327569 1.9882 0
M  V30 27294 O 2662.73 -1.05097 2.29589 0
M  V30 27295 C 2664.04 2.17733 2.07395 0
M  V30 27296 C 2665.59 2.22056 2.2059 0
M  V30 27297 C 2666.07 3.41263 3.05456 0
M  V30 27298 N 2667.56 3.41406 3.13043 0
M  V30 27299 C 2668.29 4.30296 3.7899 0
M  V30 27300 N 2667.79 5.29397 4.46889 0
M  V30 27301 N 2669.58 4.1808 3.75721 0
M  V30 27302 H 2661.73 2.06257 0.507121 0
M  V30 27303 H 2664 0.903651 0.286564 0
M  V30 27304 H 2663.7 3.12589 1.61186 0
M  V30 27305 H 2663.58 2.17539 3.0815 0
M  V30 27306 H 2665.96 1.27749 2.66015 0
M  V30 27307 H 2666.04 2.2629 1.19276 0
M  V30 27308 H 2665.69 4.35869 2.60732 0
M  V30 27309 H 2665.62 3.3427 4.06905 0
M  V30 27310 H 2668.11 2.69692 2.64716 0
M  V30 27311 H 2668.42 5.93509 4.94941 0
M  V30 27312 H 2666.77 5.33313 4.45648 0
M  V30 27313 H 2669.96 3.39912 3.21834 0
M  V30 27314 H 2670.13 4.8756 4.26836 0
M  V30 27315 N 2663.54 -1.19233 1.03059 0
M  V30 27316 C 2664.95 -1.70643 0.757479 0
M  V30 27317 C 2665.3 -1.82405 -0.722703 0
M  V30 27318 O 2664.42 -1.4964 -1.56322 0
M  V30 27319 C 2665.02 -3.09937 1.36838 0
M  V30 27320 C 2663.58 -3.586 1.14382 0
M  V30 27321 C 2662.72 -2.35419 1.46537 0
M  V30 27322 H 2665.68 -1.0405 1.1983 0
M  V30 27323 H 2665.7 -3.72705 0.76625 0
M  V30 27324 H 2665.21 -3.01344 2.44567 0
M  V30 27325 H 2663.31 -3.72503 0.0848197 0
M  V30 27326 H 2663.42 -4.42618 1.83373 0
M  V30 27327 H 2661.79 -2.38839 0.884754 0
M  V30 27328 H 2662.57 -2.29455 2.55353 0
M  V30 27329 N 2665.01 -0.808686 -1.3527 0
M  V30 27330 C 2665.98 -0.226133 -2.28082 0
M  V30 27331 C 2666.98 0.587735 -1.49674 0
M  V30 27332 O 2668.17 0.405913 -1.69405 0
M  V30 27333 C 2665.3 0.684537 -3.33956 0
M  V30 27334 H 2666.49 -1.04474 -2.81114 0
M  V30 27335 H 2664.05 -0.579491 -1.45161 0
M  V30 27336 H 2664.78 1.52675 -2.86113 0
M  V30 27337 H 2664.57 0.10263 -3.91966 0
M  V30 27338 H 2666.06 1.08639 -4.03221 0
M  V30 27339 N 2666.49 1.47225 -0.562374 0
M  V30 27340 C 2667.42 2.28142 0.21997 0
M  V30 27341 C 2668.44 1.37314 0.874571 0
M  V30 27342 O 2669.63 1.62092 0.747554 0
M  V30 27343 C 2666.73 3.11734 1.32947 0
M  V30 27344 C 2665.9 4.30557 0.770683 0
M  V30 27345 C 2664.96 4.95704 1.76533 0
M  V30 27346 O 2663.98 5.53934 1.3094 0
M  V30 27347 N 2665.19 4.90867 3.09887 0
M  V30 27348 H 2667.95 2.95925 -0.474159 0
M  V30 27349 H 2665.51 1.56912 -0.398788 0
M  V30 27350 H 2667.5 3.52183 1.99372 0
M  V30 27351 H 2666.07 2.4616 1.92676 0
M  V30 27352 H 2665.29 3.94137 -0.0704749 0
M  V30 27353 H 2666.58 5.07403 0.376783 0
M  V30 27354 H 2665.98 4.44767 3.49569 0
M  V30 27355 H 2664.54 5.35319 3.71855 0
M  V30 27356 N 2667.97 0.299089 1.54736 0
M  V30 27357 C 2669.22 -0.310135 1.99706 0
M  V30 27358 C 2669.54 -1.54557 1.18899 0
M  V30 27359 O 2668.81 -1.93823 0.284479 0
M  V30 27360 H 2667.39 -0.117583 0.737688 0
M  V30 27361 H 2670.05 0.409976 1.90539 0
M  V30 27362 H 2669.15 -0.583496 3.06597 0
M  V30 27363 N 2669.45 -1.57577 0.0267774 0
M  V30 27364 C 2670.69 -1.91988 -0.653337 0
M  V30 27365 C 2671.03 -0.903293 -1.71913 0
M  V30 27366 O 2670.3 0.0743045 -1.94358 0
M  V30 27367 C 2670.59 -3.36888 -1.27194 0
M  V30 27368 C 2670.44 -4.49282 -0.215859 0
M  V30 27369 C 2671.76 -3.81707 -2.19062 0
M  V30 27370 H 2668.88 -0.698181 -0.236035 0
M  V30 27371 H 2671.52 -1.89816 0.083557 0
M  V30 27372 H 2669.67 -3.3887 -1.89999 0
M  V30 27373 H 2671.34 -4.59433 0.414571 0
M  V30 27374 H 2669.58 -4.31366 0.458931 0
M  V30 27375 H 2670.25 -5.47693 -0.688251 0
M  V30 27376 H 2672.73 -3.81447 -1.66246 0
M  V30 27377 H 2671.61 -4.83793 -2.59299 0
M  V30 27378 H 2671.87 -3.17078 -3.08081 0
M  V30 27379 N 2670.93 0.246342 -1.55663 0
M  V30 27380 C 2672.17 0.975747 -1.77784 0
M  V30 27381 C 2672.51 1.84952 -0.592136 0
M  V30 27382 O 2671.78 1.90139 0.409554 0
M  V30 27383 C 2672.06 1.83579 -3.09792 0
M  V30 27384 C 2671.92 0.990164 -4.38766 0
M  V30 27385 C 2673.24 2.81817 -3.38034 0
M  V30 27386 H 2670.35 0.353306 -0.646795 0
M  V30 27387 H 2673 0.246215 -1.88398 0
M  V30 27388 H 2671.15 2.45779 -3.00874 0
M  V30 27389 H 2672.82 0.386816 -4.59675 0
M  V30 27390 H 2671.06 0.29455 -4.32799 0
M  V30 27391 H 2671.73 1.62574 -5.27516 0
M  V30 27392 H 2674.21 2.29754 -3.46919 0
M  V30 27393 H 2673.08 3.39115 -4.31616 0
M  V30 27394 H 2673.35 3.58308 -2.58974 0
M  V30 27395 N 2672.4 1.4905 0.512027 0
M  V30 27396 C 2673.63 1.61671 1.29113 0
M  V30 27397 C 2674.05 0.28382 1.86654 0
M  V30 27398 O 2673.4 -0.729302 1.67294 0
M  V30 27399 C 2673.46 2.67712 2.42925 0
M  V30 27400 O 2673.18 3.9583 1.87751 0
M  V30 27401 C 2674.68 2.90937 3.34471 0
M  V30 27402 H 2671.9 0.544589 0.391999 0
M  V30 27403 H 2674.44 1.95007 0.615847 0
M  V30 27404 H 2672.6 2.37185 3.06304 0
M  V30 27405 H 2673.01 4.54152 2.62385 0
M  V30 27406 H 2674.48 3.68893 4.10636 0
M  V30 27407 H 2674.96 2.00433 3.90798 0
M  V30 27408 H 2675.57 3.22837 2.76869 0
M  V30 27409 N 2673.88 -0.762259 1.3794 0
M  V30 27410 C 2675.11 -1.55145 1.36886 0
M  V30 27411 C 2675.53 -1.8875 -0.0435016 0
M  V30 27412 O 2674.88 -1.52148 -1.00783 0
M  V30 27413 C 2674.93 -2.85592 2.21629 0
M  V30 27414 O 2674.65 -2.53423 3.57363 0
M  V30 27415 C 2676.16 -3.79776 2.2866 0
M  V30 27416 H 2673.38 -0.480335 0.468529 0
M  V30 27417 H 2675.92 -0.944047 1.81406 0
M  V30 27418 H 2674.07 -3.42731 1.80594 0
M  V30 27419 H 2674.49 -3.37025 4.01889 0
M  V30 27420 H 2675.96 -4.68283 2.92259 0
M  V30 27421 H 2676.44 -4.19589 1.29774 0
M  V30 27422 H 2677.05 -3.28563 2.70049 0
M  V30 27423 N 2675.36 -1.22666 -0.989486 0
M  V30 27424 C 2676.29 -1.02407 -2.09845 0
M  V30 27425 C 2677.27 0.0561004 -1.70007 0
M  V30 27426 O 2678.46 -0.106782 -1.93906 0
M  V30 27427 C 2675.59 -0.604723 -3.41995 0
M  V30 27428 C 2674.54 -1.63122 -3.95696 0
M  V30 27429 C 2673.87 -1.06759 -5.23934 0
M  V30 27430 C 2675.17 -3.02204 -4.25993 0
M  V30 27431 H 2676.86 -1.95162 -2.27051 0
M  V30 27432 H 2674.41 -0.939747 -1.09109 0
M  V30 27433 H 2676.36 -0.450093 -4.18989 0
M  V30 27434 H 2675.08 0.358493 -3.24627 0
M  V30 27435 H 2673.74 -1.77368 -3.20837 0
M  V30 27436 H 2673.39 -0.0956306 -5.02909 0
M  V30 27437 H 2673.09 -1.75338 -5.6083 0
M  V30 27438 H 2674.61 -0.924622 -6.03559 0
M  V30 27439 H 2676.03 -2.91311 -4.93772 0
M  V30 27440 H 2674.43 -3.67938 -4.74069 0
M  V30 27441 H 2675.5 -3.51879 -3.3363 0
M  V30 27442 N 2676.84 1.18685 -1.0369 0
M  V30 27443 C 2677.75 2.25844 -0.634948 0
M  V30 27444 C 2678.77 1.70705 0.337035 0
M  V30 27445 O 2679.94 2.00474 0.192908 0
M  V30 27446 C 2677.01 3.467 -0.000240995 0
M  V30 27447 C 2676.07 4.16988 -1.02075 0
M  V30 27448 C 2675.3 5.32074 -0.416234 0
M  V30 27449 O 2675.52 5.65061 0.778613 0
M  V30 27450 O 2674.46 5.90946 -1.14306 0
M  V30 27451 H 2678.28 2.62483 -1.52762 0
M  V30 27452 H 2675.87 1.25694 -0.807555 0
M  V30 27453 H 2677.75 4.19917 0.353268 0
M  V30 27454 H 2676.43 3.11892 0.866312 0
M  V30 27455 H 2675.33 3.45856 -1.42598 0
M  V30 27456 H 2676.67 4.55787 -1.85794 0
M  V30 27457 N 2678.32 0.815849 1.34839 0
M  V30 27458 C 2679.27 0.220929 2.31548 0
M  V30 27459 C 2680.26 -0.634429 1.57071 0
M  V30 27460 O 2681.47 -0.526559 1.72126 0
M  V30 27461 H 2677.84 0.0526914 0.750152 0
M  V30 27462 H 2679.81 1.05154 2.79258 0
M  V30 27463 C 2678.56 -0.608367 3.42336 0
M  V30 27464 H 2677.88 0.0404824 3.9978 0
M  V30 27465 H 2679.32 -0.990858 4.1226 0
M  V30 27466 C 2677.78 -1.77777 2.86176 0
M  V30 27467 O 2678.31 -2.87566 2.80479 0
M  V30 27468 N 2676.52 -1.59225 2.43096 0
M  V30 27469 H 2676.07 -0.699193 2.4793 0
M  V30 27470 H 2676.02 -2.37623 2.0587 0
M  V30 27471 N 2679.8 -1.46924 0.570174 0
M  V30 27472 C 2681.04 -2.02736 0.051064 0
M  V30 27473 C 2681.37 -1.44217 -1.30058 0
M  V30 27474 O 2680.65 -0.602553 -1.84931 0
M  V30 27475 C 2680.93 -3.60089 -0.0281517 0
M  V30 27476 C 2680.79 -4.29016 1.3515 0
M  V30 27477 C 2682.1 -4.33917 -0.735104 0
M  V30 27478 H 2679.22 -0.736728 0.0200308 0
M  V30 27479 H 2681.87 -1.75209 0.734961 0
M  V30 27480 H 2680.02 -3.83672 -0.61058 0
M  V30 27481 H 2681.69 -4.16735 1.97813 0
M  V30 27482 H 2679.93 -3.88865 1.92267 0
M  V30 27483 H 2680.6 -5.37692 1.24866 0
M  V30 27484 H 2683.08 -4.15405 -0.240446 0
M  V30 27485 H 2681.95 -5.4362 -0.759526 0
M  V30 27486 H 2682.21 -4.04069 -1.7939 0
M  V30 27487 N 2681.27 -0.307291 -1.54575 0
M  V30 27488 C 2682.5 0.305343 -2.0514 0
M  V30 27489 C 2682.92 1.46257 -1.18281 0
M  V30 27490 O 2682.28 1.8032 -0.188275 0
M  V30 27491 C 2682.33 0.733221 -3.53067 0
M  V30 27492 O 2681.43 1.83735 -3.69209 0
M  V30 27493 H 2680.77 0.0581989 -0.661445 0
M  V30 27494 H 2683.3 -0.450966 -1.99568 0
M  V30 27495 H 2683.31 1.02032 -3.95036 0
M  V30 27496 H 2681.99 -0.113271 -4.15746 0
M  V30 27497 H 2680.57 1.55031 -3.39146 0
M  V30 27498 N 2682.75 1.57561 -0.0351337 0
M  V30 27499 C 2684.16 1.79801 0.502853 0
M  V30 27500 C 2684.51 0.945951 1.7189 0
M  V30 27501 O 2683.64 0.158028 2.15822 0
M  V30 27502 C 2684.23 3.26097 0.91904 0
M  V30 27503 C 2682.79 3.49311 1.4021 0
M  V30 27504 C 2681.94 2.74825 0.369661 0
M  V30 27505 H 2684.89 1.56537 -0.26113 0
M  V30 27506 H 2684.91 3.36138 1.78302 0
M  V30 27507 H 2684.42 3.88085 0.0337844 0
M  V30 27508 H 2682.52 2.92582 2.30709 0
M  V30 27509 H 2682.64 4.58025 1.40533 0
M  V30 27510 H 2681 2.40482 0.839071 0
M  V30 27511 H 2681.78 3.39532 -0.507232 0
M  V30 27512 N 2684.23 -0.238084 1.55791 0
M  V30 27513 C 2685.64 -0.806442 1.68385 0
M  V30 27514 C 2685.99 -1.85668 0.63419 0
M  V30 27515 O 2685.12 -2.153 -0.217875 0
M  V30 27516 C 2685.71 -1.46954 3.0527 0
M  V30 27517 C 2684.27 -1.98549 3.19774 0
M  V30 27518 C 2683.42 -0.839716 2.6428 0
M  V30 27519 H 2686.37 -0.0137256 1.58694 0
M  V30 27520 H 2686.39 -2.33786 3.00207 0
M  V30 27521 H 2685.9 -0.704925 3.81644 0
M  V30 27522 H 2684 -2.77864 2.48239 0
M  V30 27523 H 2684.12 -2.17682 4.26792 0
M  V30 27524 H 2682.48 -1.24261 2.22332 0
M  V30 27525 H 2683.26 -0.0880429 3.43187 0
M  V30 27526 N 2685.71 -1.4932 -0.504115 0
M  V30 27527 C 2687.12 -1.36013 -0.835015 0
M  V30 27528 C 2687.32 -0.390842 -1.97673 0
M  V30 27529 O 2686.38 0.178611 -2.51867 0
M  V30 27530 C 2687.69 -2.76659 -1.17816 0
M  V30 27531 C 2689.24 -2.85336 -1.28655 0
M  V30 27532 C 2689.72 -4.26742 -1.663 0
M  V30 27533 N 2691.21 -4.29537 -1.73355 0
M  V30 27534 C 2691.94 -5.35914 -2.03921 0
M  V30 27535 N 2691.44 -6.52539 -2.32732 0
M  V30 27536 N 2693.23 -5.23328 -2.05145 0
M  V30 27537 H 2685.38 -2.10938 0.248801 0
M  V30 27538 H 2687.64 -0.946748 0.0487128 0
M  V30 27539 H 2687.35 -3.49271 -0.41262 0
M  V30 27540 H 2687.22 -3.11828 -2.12233 0
M  V30 27541 H 2689.61 -2.12963 -2.04281 0
M  V30 27542 H 2689.69 -2.53753 -0.322959 0
M  V30 27543 H 2689.34 -4.9964 -0.912252 0
M  V30 27544 H 2689.27 -4.55787 -2.63753 0
M  V30 27545 H 2691.76 -3.45426 -1.53262 0
M  V30 27546 H 2692.07 -7.29435 -2.55235 0
M  V30 27547 H 2690.42 -6.55771 -2.30195 0
M  V30 27548 H 2693.61 -4.31223 -1.82111 0
M  V30 27549 H 2693.78 -6.06326 -2.28633 0
M  V30 27550 N 2687.19 0.754933 -1.38342 0
M  V30 27551 C 2688.6 1.05781 -1.1951 0
M  V30 27552 C 2688.8 2.01454 -0.0428359 0
M  V30 27553 O 2687.86 2.44976 0.611817 0
M  V30 27554 C 2689.17 1.63919 -2.52094 0
M  V30 27555 C 2690.72 1.76096 -2.58765 0
M  V30 27556 C 2691.19 2.37645 -3.91521 0
M  V30 27557 N 2692.68 2.45078 -3.93054 0
M  V30 27558 C 2693.42 2.93593 -4.92535 0
M  V30 27559 N 2692.92 3.42154 -6.02414 0
M  V30 27560 N 2694.71 2.92621 -4.79926 0
M  V30 27561 H 2686.86 0.120019 -2.12061 0
M  V30 27562 H 2689.12 0.115874 -0.940892 0
M  V30 27563 H 2688.83 1.01087 -3.36859 0
M  V30 27564 H 2688.7 2.62998 -2.70392 0
M  V30 27565 H 2691.09 2.38055 -1.74395 0
M  V30 27566 H 2691.17 0.757251 -2.44335 0
M  V30 27567 H 2690.81 1.7632 -4.76312 0
M  V30 27568 H 2690.74 3.38655 -4.03262 0
M  V30 27569 H 2693.24 2.10731 -3.13689 0
M  V30 27570 H 2693.55 3.77625 -6.74255 0
M  V30 27571 H 2691.89 3.40215 -6.06036 0
M  V30 27572 H 2695.08 2.53994 -3.93198 0
M  V30 27573 H 2695.26 3.30118 -5.57607 0
M  V30 27574 N 2688.66 1.23189 0.982967 0
M  V30 27575 C 2689.63 1.01201 2.05648 0
M  V30 27576 C 2690.63 -0.0252181 1.6078 0
M  V30 27577 O 2691.82 0.214273 1.72877 0
M  V30 27578 C 2688.95 0.530715 3.36744 0
M  V30 27579 H 2690.14 1.96465 2.26587 0
M  V30 27580 H 2687.69 1.05197 1.156 0
M  V30 27581 H 2688.43 -0.425817 3.21492 0
M  V30 27582 H 2688.21 1.27916 3.70648 0
M  V30 27583 H 2689.7 0.397439 4.15704 0
M  V30 27584 N 2690.14 -1.18133 1.04318 0
M  V30 27585 C 2691.56 -1.40187 0.762883 0
M  V30 27586 C 2691.76 -1.90847 -0.646514 0
M  V30 27587 O 2690.81 -2.09443 -1.41032 0
M  V30 27588 C 2692.13 -2.40041 1.8111 0
M  V30 27589 C 2693.67 -2.53763 1.8323 0
M  V30 27590 C 2694.15 -3.56884 2.87051 0
M  V30 27591 N 2695.64 -3.64393 2.85958 0
M  V30 27592 C 2696.38 -4.43917 3.6294 0
M  V30 27593 N 2695.87 -5.27028 4.49682 0
M  V30 27594 N 2697.66 -4.38704 3.51418 0
M  V30 27595 H 2689.82 -0.83577 1.95266 0
M  V30 27596 H 2692.08 -0.429694 0.845025 0
M  V30 27597 H 2691.78 -2.09871 2.82218 0
M  V30 27598 H 2691.66 -3.39423 1.64535 0
M  V30 27599 H 2694.05 -2.83248 0.827919 0
M  V30 27600 H 2694.13 -1.54485 2.03882 0
M  V30 27601 H 2693.77 -3.28139 3.87669 0
M  V30 27602 H 2693.7 -4.55845 2.63653 0
M  V30 27603 H 2696.19 -3.05048 2.23057 0
M  V30 27604 H 2696.5 -5.84865 5.05126 0
M  V30 27605 H 2694.85 -5.26439 4.53748 0
M  V30 27606 H 2698.04 -3.72824 2.83054 0
M  V30 27607 H 2698.21 -5.00438 4.11662 0
M  V30 27608 N 2691.62 -0.822988 -1.34405 0
M  V30 27609 C 2692.87 -0.411701 -1.98577 0
M  V30 27610 C 2693.2 1.02262 -1.65095 0
M  V30 27611 O 2692.47 1.71225 -0.922611 0
M  V30 27612 C 2692.76 -0.614297 -3.54822 0
M  V30 27613 C 2692.61 -2.09473 -3.98046 0
M  V30 27614 C 2693.93 -0.0502984 -4.40071 0
M  V30 27615 H 2691.05 -0.15106 -0.721353 0
M  V30 27616 H 2693.69 -1.03556 -1.59299 0
M  V30 27617 H 2691.84 -0.0832457 -3.88411 0
M  V30 27618 H 2693.51 -2.68943 -3.7479 0
M  V30 27619 H 2691.76 -2.58516 -3.48356 0
M  V30 27620 H 2692.43 -2.1873 -5.06815 0
M  V30 27621 H 2694.9 -0.504026 -4.13036 0
M  V30 27622 H 2693.78 -0.221855 -5.48451 0
M  V30 27623 H 2694.04 1.04475 -4.29578 0
M  V30 27624 N 2693.1 1.4662 -0.577957 0
M  V30 27625 C 2694.33 2.06791 -0.0672005 0
M  V30 27626 C 2694.74 1.42745 1.23569 0
M  V30 27627 O 2694.1 0.531092 1.74601 0
M  V30 27628 C 2694.15 3.61332 0.110293 0
M  V30 27629 O 2693.87 4.2298 -1.14102 0
M  V30 27630 C 2695.37 4.3842 0.655948 0
M  V30 27631 H 2692.59 0.668719 -0.055285 0
M  V30 27632 H 2695.14 1.88318 -0.797275 0
M  V30 27633 H 2693.29 3.79248 0.790571 0
M  V30 27634 H 2693.7 5.15791 -0.951833 0
M  V30 27635 H 2695.18 5.4716 0.729341 0
M  V30 27636 H 2695.66 4.06134 1.67188 0
M  V30 27637 H 2696.26 4.25299 0.0106944 0
M  V30 27638 N 2694.58 0.315484 1.5441 0
M  V30 27639 C 2695.85 -0.343364 1.92563 0
M  V30 27640 C 2696.23 -1.70533 1.24426 0
M  V30 27641 O 2695.58 -2.25232 0.385091 0
M  V30 27642 C 2695.79 -0.443626 3.46169 0
M  V30 27643 C 2697.14 -0.707709 4.18661 0
M  V30 27644 O 2698.16 -0.526868 3.52282 0
M  V30 27645 O 2697.02 -1.05603 5.362 0
M  V30 27646 H 2694.12 -0.194538 0.803794 0
M  V30 27647 H 2696.66 0.364606 1.65737 0
M  V30 27648 H 2695.43 0.51324 3.8792 0
M  V30 27649 H 2695.06 -1.19949 3.79075 0
M  V30 27650 N 2696.05 -1.5754 0.0434891 0
M  V30 27651 C 2697.02 -2.09984 -0.918659 0
M  V30 27652 C 2698.02 -1.01783 -1.24486 0
M  V30 27653 O 2699.21 -1.27887 -1.18282 0
M  V30 27654 C 2696.34 -2.57768 -2.23088 0
M  V30 27655 H 2697.53 -2.96286 -0.464177 0
M  V30 27656 H 2695.09 -1.54953 -0.204791 0
M  V30 27657 H 2695.82 -1.74837 -2.73134 0
M  V30 27658 H 2695.61 -3.3683 -2.00718 0
M  V30 27659 H 2697.1 -2.98517 -2.92023 0
M  V30 27660 N 2697.53 0.229818 -1.55915 0
M  V30 27661 C 2698.76 0.97253 -1.82618 0
M  V30 27662 C 2699.18 1.78277 -0.62152 0
M  V30 27663 O 2698.53 1.77837 0.409925 0
M  V30 27664 C 2698.58 1.89674 -3.07744 0
M  V30 27665 O 2698.3 1.11926 -4.23561 0
M  V30 27666 C 2699.81 2.75403 -3.47373 0
M  V30 27667 H 2697.03 0.285408 -0.607275 0
M  V30 27668 H 2699.57 0.247543 -2.02996 0
M  V30 27669 H 2697.72 2.57578 -2.89365 0
M  V30 27670 H 2698.14 1.7459 -4.94589 0
M  V30 27671 H 2699.61 3.35969 -4.37982 0
M  V30 27672 H 2700.09 3.47381 -2.68743 0
M  V30 27673 H 2700.7 2.12925 -3.68162 0
M  V30 27674 N 2699.01 1.49585 0.49619 0
M  V30 27675 C 2699.92 1.69352 1.62349 0
M  V30 27676 C 2700.94 0.576176 1.64183 0
M  V30 27677 O 2702.11 0.851472 1.82516 0
M  V30 27678 C 2699.18 1.76018 2.98695 0
M  V30 27679 C 2698.24 2.99623 3.07449 0
M  V30 27680 C 2697.47 3.05961 4.37291 0
M  V30 27681 O 2697.69 2.19762 5.26366 0
M  V30 27682 O 2696.63 3.98468 4.51117 0
M  V30 27683 H 2700.45 2.64861 1.48601 0
M  V30 27684 H 2698.04 1.33383 0.672999 0
M  V30 27685 H 2699.92 1.82728 3.79722 0
M  V30 27686 H 2698.6 0.836883 3.12695 0
M  V30 27687 H 2697.5 2.98428 2.25592 0
M  V30 27688 H 2698.84 3.91448 2.98378 0
M  V30 27689 N 2700.49 -0.747586 1.3874 0
M  V30 27690 C 2701.72 -1.53684 1.38524 0
M  V30 27691 C 2702.13 -1.88785 -0.0234797 0
M  V30 27692 O 2701.49 -1.53208 -0.991635 0
M  V30 27693 C 2701.54 -2.83225 2.24646 0
M  V30 27694 O 2701.26 -2.49619 3.60031 0
M  V30 27695 C 2702.76 -3.77329 2.32675 0
M  V30 27696 H 2699.98 -0.475338 0.473597 0
M  V30 27697 H 2702.53 -0.924754 1.82397 0
M  V30 27698 H 2700.68 -3.40796 1.84219 0
M  V30 27699 H 2701.09 -3.32743 4.05441 0
M  V30 27700 H 2702.57 -4.65157 2.97209 0
M  V30 27701 H 2703.05 -4.18189 1.34217 0
M  V30 27702 H 2703.65 -3.25681 2.73518 0
M  V30 27703 N 2701.97 -1.23709 -0.97642 0
M  V30 27704 C 2703.19 -1.09836 -1.75339 0
M  V30 27705 C 2703.61 0.349852 -1.8553 0
M  V30 27706 O 2702.97 1.24183 -1.33735 0
M  V30 27707 C 2703.02 -1.72239 -3.1783 0
M  V30 27708 O 2702.74 -3.11397 -3.08162 0
M  V30 27709 C 2704.24 -1.63861 -4.11904 0
M  V30 27710 H 2701.46 -0.384185 -0.55013 0
M  V30 27711 H 2704 -1.6364 -1.22647 0
M  V30 27712 H 2702.16 -1.22459 -3.67536 0
M  V30 27713 H 2702.57 -3.41736 -3.97891 0
M  V30 27714 H 2704.05 -2.1222 -5.09575 0
M  V30 27715 H 2704.52 -0.598169 -4.35108 0
M  V30 27716 H 2705.13 -2.13026 -3.68103 0
M  V30 27717 N 2703.44 1.17579 -1.04943 0
M  V30 27718 C 2704.69 1.87111 -0.753156 0
M  V30 27719 C 2705.01 1.81768 0.722475 0
M  V30 27720 O 2706.21 2.46748 1.1326 0
M  V30 27721 C 2704.67 3.35717 -1.29701 0
M  V30 27722 C 2704.28 3.49567 -2.8019 0
M  V30 27723 C 2706.02 4.10593 -1.07767 0
M  V30 27724 C 2703.93 4.92182 -3.27889 0
M  V30 27725 H 2702.86 0.700861 -0.278046 0
M  V30 27726 H 2705.51 1.32795 -1.2664 0
M  V30 27727 H 2703.89 3.89554 -0.711591 0
M  V30 27728 H 2705.06 3.05959 -3.44566 0
M  V30 27729 H 2703.38 2.88108 -3.00637 0
M  V30 27730 H 2705.98 5.158 -1.40908 0
M  V30 27731 H 2706.32 4.16297 -0.0153033 0
M  V30 27732 H 2706.85 3.62954 -1.62816 0
M  V30 27733 H 2703.59 4.9165 -4.33544 0
M  V30 27734 H 2703.11 5.3647 -2.68254 0
M  V30 27735 H 2704.79 5.60939 -3.22422 0
M  V30 27736 N 2704.92 0.830104 1.33967 0
M  V30 27737 C 2706.15 0.434808 2.0228 0
M  V30 27738 C 2706.57 -0.96139 1.62489 0
M  V30 27739 O 2705.92 -1.62335 0.833878 0
M  V30 27740 C 2705.97 0.535687 3.57509 0
M  V30 27741 O 2705.69 1.87686 3.9586 0
M  V30 27742 C 2707.2 0.136215 4.43091 0
M  V30 27743 H 2704.42 0.173624 0.648148 0
M  V30 27744 H 2706.96 1.12025 1.71087 0
M  V30 27745 H 2705.11 -0.101749 3.87266 0
M  V30 27746 H 2705.53 1.85618 4.90557 0
M  V30 27747 H 2707 0.257869 5.51397 0
M  V30 27748 H 2707.48 -0.921 4.29435 0
M  V30 27749 H 2708.09 0.747736 4.18675 0
M  V30 27750 N 2706.4 -1.46311 0.585725 0
M  V30 27751 C 2707.65 -2.01578 0.0701547 0
M  V30 27752 C 2707.96 -1.46249 -1.29887 0
M  V30 27753 O 2709.17 -1.93354 -1.90595 0
M  V30 27754 C 2707.63 -3.59822 0.0748131 0
M  V30 27755 C 2707.23 -4.24147 1.44234 0
M  V30 27756 C 2708.98 -4.22735 -0.386655 0
M  V30 27757 C 2706.88 -5.74479 1.40456 0
M  V30 27758 H 2705.81 -0.753665 0.0224574 0
M  V30 27759 H 2708.47 -1.68013 0.737819 0
M  V30 27760 H 2706.85 -3.90477 -0.659075 0
M  V30 27761 H 2708.02 -4.05097 2.1962 0
M  V30 27762 H 2706.34 -3.7334 1.84408 0
M  V30 27763 H 2708.93 -5.32938 -0.43376 0
M  V30 27764 H 2709.28 -3.91881 -1.40482 0
M  V30 27765 H 2709.81 -3.96718 0.293265 0
M  V30 27766 H 2706.55 -6.09998 2.39963 0
M  V30 27767 H 2706.07 -5.95784 0.69295 0
M  V30 27768 H 2707.75 -6.37254 1.11876 0
M  V30 27769 N 2707.88 -0.323668 -1.54241 0
M  V30 27770 C 2709.1 0.283568 -2.05452 0
M  V30 27771 C 2709.53 1.44995 -1.19826 0
M  V30 27772 O 2708.89 1.8011 -0.20739 0
M  V30 27773 C 2708.94 0.695732 -3.53825 0
M  V30 27774 O 2708.04 1.79809 -3.71137 0
M  V30 27775 H 2707.38 0.0511801 -0.662025 0
M  V30 27776 H 2709.91 -0.472108 -1.99079 0
M  V30 27777 H 2709.92 0.978365 -3.96096 0
M  V30 27778 H 2708.6 -0.15736 -4.15602 0
M  V30 27779 H 2707.17 1.51425 -3.40771 0
M  V30 27780 N 2709.36 1.57515 -0.0518432 0
M  V30 27781 C 2710.6 1.93822 0.616805 0
M  V30 27782 C 2710.96 0.930336 1.68412 0
M  V30 27783 O 2710.25 -0.0503894 1.91534 0
M  V30 27784 C 2710.45 3.34603 1.25601 0
M  V30 27785 C 2710.27 4.48993 0.252143 0
M  V30 27786 C 2709.04 5.05059 -0.15612 0
M  V30 27787 C 2711.24 5.11837 -0.502703 0
M  V30 27788 N 2709.22 6.02979 -1.15278 0
M  V30 27789 C 2710.6 6.0507 -1.35243 0
M  V30 27790 C 2712.65 4.9473 -0.560942 0
M  V30 27791 C 2711.35 6.83033 -2.25517 0
M  V30 27792 C 2713.38 5.73321 -1.45112 0
M  V30 27793 C 2712.74 6.66186 -2.28856 0
M  V30 27794 H 2708.84 0.756693 0.197331 0
M  V30 27795 H 2711.42 1.94303 -0.124331 0
M  V30 27796 H 2709.6 3.34898 1.96717 0
M  V30 27797 H 2711.33 3.58198 1.88352 0
M  V30 27798 H 2708.08 4.73075 0.222977 0
M  V30 27799 H 2708.51 6.56635 -1.64803 0
M  V30 27800 H 2713.15 4.22738 0.0722896 0
M  V30 27801 H 2710.87 7.54316 -2.89885 0
M  V30 27802 H 2714.45 5.62111 -1.50076 0
M  V30 27803 H 2713.33 7.25938 -2.96621 0
M  V30 27804 N 2710.84 -0.221546 1.56035 0
M  V30 27805 C 2712.25 -0.571245 1.49027 0
M  V30 27806 C 2712.45 -1.87144 0.746944 0
M  V30 27807 O 2711.51 -2.50868 0.28661 0
M  V30 27808 C 2712.82 -0.65047 2.9358 0
M  V30 27809 C 2714.37 -0.741097 3.041 0
M  V30 27810 C 2714.84 -0.851668 4.50012 0
M  V30 27811 N 2716.33 -0.915888 4.54055 0
M  V30 27812 C 2717.07 -1.02115 5.64234 0
M  V30 27813 N 2716.57 -1.09036 6.84166 0
M  V30 27814 N 2718.36 -1.05629 5.52086 0
M  V30 27815 H 2710.51 0.631656 2.0279 0
M  V30 27816 H 2712.77 0.221618 0.921732 0
M  V30 27817 H 2712.48 0.235314 3.50912 0
M  V30 27818 H 2712.35 -1.51407 3.45479 0
M  V30 27819 H 2714.74 -1.61732 2.46833 0
M  V30 27820 H 2714.82 0.148173 2.5537 0
M  V30 27821 H 2714.46 0.020101 5.07896 0
M  V30 27822 H 2714.39 -1.75635 4.96447 0
M  V30 27823 H 2716.89 -0.872717 3.67685 0
M  V30 27824 H 2717.2 -1.17046 7.63885 0
M  V30 27825 H 2715.54 -1.0595 6.86877 0
M  V30 27826 H 2718.73 -0.998873 4.57318 0
M  V30 27827 H 2718.91 -1.13487 6.37985 0
M  V30 27828 N 2712.31 -1.49846 -0.48825 0
M  V30 27829 C 2713.54 -1.63705 -1.26524 0
M  V30 27830 C 2713.96 -0.313479 -1.86179 0
M  V30 27831 O 2713.31 0.702594 -1.68434 0
M  V30 27832 C 2713.36 -2.71543 -2.38635 0
M  V30 27833 O 2713.09 -3.98767 -1.8143 0
M  V30 27834 C 2714.59 -2.96221 -3.298 0
M  V30 27835 H 2711.81 -0.550757 -0.383286 0
M  V30 27836 H 2714.35 -1.95962 -0.584745 0
M  V30 27837 H 2712.51 -2.42028 -3.02492 0
M  V30 27838 H 2712.92 -4.58269 -2.55127 0
M  V30 27839 H 2714.39 -3.75379 -4.04715 0
M  V30 27840 H 2714.87 -2.06625 -3.8756 0
M  V30 27841 H 2715.48 -3.27201 -2.71697 0
M  V30 27842 N 2713.79 0.740218 -1.39135 0
M  V30 27843 C 2714.74 1.85417 -1.37437 0
M  V30 27844 C 2715.71 1.64431 -0.234851 0
M  V30 27845 O 2716.89 1.85911 -0.429158 0
M  V30 27846 C 2714.03 3.22873 -1.2185 0
M  V30 27847 C 2713.15 3.55599 -2.45302 0
M  V30 27848 C 2712.28 4.82428 -2.22343 0
M  V30 27849 C 2711.32 5.07982 -3.41497 0
M  V30 27850 N 2710.46 6.26012 -3.17888 0
M  V30 27851 H 2715.3 1.86203 -2.32664 0
M  V30 27852 H 2712.83 0.909926 -1.1558 0
M  V30 27853 H 2714.79 4.02211 -1.10825 0
M  V30 27854 H 2713.42 3.21379 -0.302557 0
M  V30 27855 H 2712.47 2.71002 -2.6695 0
M  V30 27856 H 2713.79 3.70404 -3.34069 0
M  V30 27857 H 2712.94 5.69737 -2.0853 0
M  V30 27858 H 2711.68 4.69787 -1.30962 0
M  V30 27859 H 2710.68 4.19138 -3.55814 0
M  V30 27860 H 2711.91 5.22512 -4.33772 0
M  V30 27861 H 2709.86 6.14669 -2.29167 0
M  V30 27862 H 2709.77 6.4138 -4.00209 0
M  V30 27863 H 2711.04 7.16174 -3.07758 0
M  V30 27864 N 2715.27 1.24225 0.969846 0
M  V30 27865 C 2716.5 1.10764 1.74754 0
M  V30 27866 C 2716.91 -0.340008 1.85713 0
M  V30 27867 O 2716.27 -1.23472 1.34391 0
M  V30 27868 C 2716.32 1.73922 3.16912 0
M  V30 27869 O 2716.04 3.13027 3.06506 0
M  V30 27870 C 2717.54 1.66043 4.11029 0
M  V30 27871 H 2714.76 0.387097 0.548085 0
M  V30 27872 H 2717.31 1.64288 1.21777 0
M  V30 27873 H 2715.46 1.24406 3.66881 0
M  V30 27874 H 2715.88 3.43841 3.96073 0
M  V30 27875 H 2717.35 2.1492 5.08442 0
M  V30 27876 H 2717.83 0.621235 4.34784 0
M  V30 27877 H 2718.43 2.14975 3.66968 0
M  V30 27878 N 2716.75 -1.1702 1.05565 0
M  V30 27879 C 2717.66 -2.24805 0.670797 0
M  V30 27880 C 2718.67 -1.71219 -0.309835 0
M  V30 27881 O 2719.85 -2.00756 -0.16099 0
M  V30 27882 C 2716.91 -3.46656 0.0553979 0
M  V30 27883 C 2715.98 -4.15312 1.08696 0
M  V30 27884 C 2715.21 -5.31345 0.50083 0
M  V30 27885 O 2715.43 -5.66228 -0.688618 0
M  V30 27886 O 2714.37 -5.89053 1.23693 0
M  V30 27887 H 2718.19 -2.6002 1.56918 0
M  V30 27888 H 2715.78 -1.24393 0.82745 0
M  V30 27889 H 2717.66 -4.20426 -0.286418 0
M  V30 27890 H 2716.33 -3.13231 -0.816583 0
M  V30 27891 H 2715.24 -3.43544 1.48083 0
M  V30 27892 H 2716.57 -4.52773 1.93022 0
M  V30 27893 N 2718.23 -0.837197 -1.33524 0
M  V30 27894 C 2719.45 -0.44553 -2.02046 0
M  V30 27895 C 2719.87 0.952759 -1.62997 0
M  V30 27896 O 2719.23 1.61891 -0.842475 0
M  V30 27897 C 2719.28 -0.554639 -3.5722 0
M  V30 27898 O 2719 -1.89783 -3.94859 0
M  V30 27899 C 2720.5 -0.159711 -4.43012 0
M  V30 27900 H 2717.72 -0.177059 -0.647218 0
M  V30 27901 H 2720.26 -1.12931 -1.7049 0
M  V30 27902 H 2718.42 0.08121 -3.87315 0
M  V30 27903 H 2718.83 -1.88217 -4.89566 0
M  V30 27904 H 2720.31 -0.287107 -5.51253 0
M  V30 27905 H 2720.78 0.898213 -4.29917 0
M  V30 27906 H 2721.39 -0.769929 -4.18273 0
M  V30 27907 N 2719.7 1.45999 -0.593476 0
M  V30 27908 C 2720.95 2.01538 -0.0808438 0
M  V30 27909 C 2721.27 1.46936 1.29109 0
M  V30 27910 O 2722.47 1.94362 1.89567 0
M  V30 27911 C 2720.93 3.59777 -0.0938943 0
M  V30 27912 C 2720.54 4.23376 -1.46481 0
M  V30 27913 C 2722.28 4.22935 0.364231 0
M  V30 27914 C 2720.19 5.73726 -1.43501 0
M  V30 27915 H 2719.12 0.753536 -0.0264539 0
M  V30 27916 H 2721.77 1.6762 -0.746719 0
M  V30 27917 H 2720.15 3.90821 0.638358 0
M  V30 27918 H 2721.32 4.03927 -2.21765 0
M  V30 27919 H 2719.64 3.72357 -1.86385 0
M  V30 27920 H 2722.24 5.3316 0.405491 0
M  V30 27921 H 2722.58 3.9262 1.38402 0
M  V30 27922 H 2723.11 3.96556 -0.3143 0
M  V30 27923 H 2719.85 6.08717 -2.43194 0
M  V30 27924 H 2719.37 5.95408 -0.724536 0
M  V30 27925 H 2721.05 6.36652 -1.15254 0
M  V30 27926 N 2721.18 0.331843 1.54067 0
M  V30 27927 C 2722.41 -0.26996 2.05131 0
M  V30 27928 C 2722.83 -1.45136 1.20752 0
M  V30 27929 O 2722.18 -1.80914 0.240101 0
M  V30 27930 C 2722.23 -0.696393 3.54729 0
M  V30 27931 O 2721.95 0.438017 4.35905 0
M  V30 27932 C 2723.46 -1.36014 4.21918 0
M  V30 27933 H 2720.68 -0.0541924 0.668808 0
M  V30 27934 H 2723.22 0.480435 1.98776 0
M  V30 27935 H 2721.37 -1.39675 3.61344 0
M  V30 27936 H 2721.79 0.100427 5.24404 0
M  V30 27937 H 2723.26 -1.60938 5.28018 0
M  V30 27938 H 2723.74 -2.31005 3.73542 0
M  V30 27939 H 2724.35 -0.702138 4.19464 0
M  V30 27940 N 2722.66 -1.57485 0.0601958 0
M  V30 27941 C 2723.91 -1.92663 -0.610353 0
M  V30 27942 C 2724.23 -0.940011 -1.70847 0
M  V30 27943 O 2723.5 0.013711 -1.95895 0
M  V30 27944 H 2722.08 -0.711212 -0.228445 0
M  V30 27945 H 2724.74 -1.94559 0.115322 0
M  V30 27946 H 2723.84 -2.94151 -1.04315 0
M  V30 27947 N 2724.14 0.213268 -1.5615 0
M  V30 27948 C 2725.39 0.93643 -1.79547 0
M  V30 27949 C 2725.71 1.84002 -0.630369 0
M  V30 27950 O 2724.97 1.91879 0.384849 0
M  V30 27951 C 2725.27 1.7998 -3.08775 0
M  V30 27952 C 2724.93 1.04874 -4.38534 0
M  V30 27953 C 2723.6 0.84131 -4.73788 0
M  V30 27954 C 2725.95 0.518978 -5.1861 0
M  V30 27955 C 2723.28 0.0923372 -5.86627 0
M  V30 27956 C 2725.63 -0.216692 -6.32229 0
M  V30 27957 C 2724.29 -0.435308 -6.66079 0
M  V30 27958 H 2723.56 0.342664 -0.65701 0
M  V30 27959 H 2726.21 0.204017 -1.9041 0
M  V30 27960 H 2724.51 2.60033 -2.9307 0
M  V30 27961 H 2726.21 2.36162 -3.24081 0
M  V30 27962 H 2722.8 1.22041 -4.10858 0
M  V30 27963 H 2726.98 0.666688 -4.91802 0
M  V30 27964 H 2722.24 -0.0871885 -6.11338 0
M  V30 27965 H 2726.41 -0.634659 -6.93502 0
M  V30 27966 H 2724.04 -1.01759 -7.53359 0
M  V30 27967 N 2725.62 1.50103 0.480296 0
M  V30 27968 C 2726.55 1.64436 1.59666 0
M  V30 27969 C 2727.56 0.526177 1.54062 0
M  V30 27970 O 2728.75 0.79902 1.59618 0
M  V30 27971 C 2725.85 1.60425 2.98525 0
M  V30 27972 C 2725.02 2.88123 3.29095 0
M  V30 27973 C 2724.08 2.76881 4.47463 0
M  V30 27974 O 2723.11 3.50833 4.48224 0
M  V30 27975 N 2724.31 1.89816 5.48589 0
M  V30 27976 H 2727.08 2.60726 1.47791 0
M  V30 27977 H 2724.64 1.47452 0.668554 0
M  V30 27978 H 2726.63 1.5053 3.75663 0
M  V30 27979 H 2725.2 0.719089 3.04217 0
M  V30 27980 H 2724.42 3.12215 2.40656 0
M  V30 27981 H 2725.71 3.7274 3.46327 0
M  V30 27982 H 2725.1 1.29029 5.50788 0
M  V30 27983 H 2723.66 1.8583 6.24748 0
M  V30 27984 N 2727.09 -0.732829 1.39526 0
M  V30 27985 C 2728.34 -1.49464 1.3707 0
M  V30 27986 C 2728.67 -1.94172 -0.0326825 0
M  V30 27987 O 2727.95 -1.66941 -0.998042 0
M  V30 27988 C 2728.23 -2.73281 2.34499 0
M  V30 27989 C 2728.08 -2.34578 3.83788 0
M  V30 27990 C 2729.4 -3.75387 2.29723 0
M  V30 27991 H 2726.52 -0.542174 0.499215 0
M  V30 27992 H 2729.16 -0.837753 1.70534 0
M  V30 27993 H 2727.31 -3.2933 2.06093 0
M  V30 27994 H 2728.99 -1.84143 4.22953 0
M  V30 27995 H 2727.23 -1.6678 4.00458 0
M  V30 27996 H 2727.9 -3.23254 4.47449 0
M  V30 27997 H 2730.38 -3.28927 2.54845 0
M  V30 27998 H 2729.25 -4.59684 2.9997 0
M  V30 27999 H 2729.51 -4.22463 1.30299 0
M  V30 28000 N 2728.57 -1.24737 -0.963244 0
M  V30 28001 C 2729.85 -0.99763 -1.68246 0
M  V30 28002 C 2730.23 0.47874 -2.056 0
M  V30 28003 O 2729.58 1.45409 -1.76263 0
M  V30 28004 C 2729.79 -1.92492 -2.91115 0
M  V30 28005 C 2731.14 -2.19839 -3.63257 0
M  V30 28006 O 2732.16 -1.90181 -3.0118 0
M  V30 28007 O 2731.02 -2.70228 -4.75015 0
M  V30 28008 H 2728.11 -0.37765 -0.735738 0
M  V30 28009 H 2730.66 -1.35855 -1.01694 0
M  V30 28010 H 2729.43 -2.9222 -2.60237 0
M  V30 28011 H 2729.05 -1.56745 -3.654 0
M  V30 28012 N 2730.05 1.16459 -1.06184 0
M  V30 28013 C 2731.01 2.19012 -0.675761 0
M  V30 28014 C 2732.01 1.5838 0.277935 0
M  V30 28015 O 2733.2 1.74095 0.0604656 0
M  V30 28016 C 2730.34 3.40899 0.00585467 0
M  V30 28017 H 2731.53 2.54682 -1.58357 0
M  V30 28018 H 2729.08 1.30715 -0.856931 0
M  V30 28019 H 2729.82 3.10785 0.926465 0
M  V30 28020 H 2729.6 3.8616 -0.679908 0
M  V30 28021 H 2731.09 4.16779 0.261736 0
M  V30 28022 N 2731.53 0.844266 1.33079 0
M  V30 28023 C 2732.77 0.44324 1.97897 0
M  V30 28024 C 2733.11 -0.996221 1.66701 0
M  V30 28025 O 2732.38 -1.69736 0.949734 0
M  V30 28026 C 2732.67 0.670668 3.53799 0
M  V30 28027 C 2732.52 2.15779 3.94664 0
M  V30 28028 C 2733.84 0.120304 4.39936 0
M  V30 28029 H 2730.96 0.162517 0.718858 0
M  V30 28030 H 2733.6 1.06078 1.57631 0
M  V30 28031 H 2731.75 0.145028 3.88229 0
M  V30 28032 H 2733.42 2.74871 3.70464 0
M  V30 28033 H 2731.66 2.64026 3.44199 0
M  V30 28034 H 2732.33 2.26765 5.03271 0
M  V30 28035 H 2734.81 0.569672 4.12182 0
M  V30 28036 H 2733.69 0.309081 5.48029 0
M  V30 28037 H 2733.95 -0.976271 4.31186 0
M  V30 28038 N 2733.01 -1.45682 0.60121 0
M  V30 28039 C 2734.42 -1.85833 0.179691 0
M  V30 28040 C 2734.77 -1.50238 -1.26186 0
M  V30 28041 O 2733.89 -0.926022 -1.95586 0
M  V30 28042 C 2734.49 -3.37292 0.319336 0
M  V30 28043 C 2733.05 -3.7637 -0.0474431 0
M  V30 28044 C 2732.19 -2.69653 0.646739 0
M  V30 28045 H 2735.15 -1.36574 0.808292 0
M  V30 28046 H 2735.17 -3.77827 -0.450234 0
M  V30 28047 H 2734.68 -3.63167 1.36861 0
M  V30 28048 H 2732.78 -3.56112 -1.09614 0
M  V30 28049 H 2732.89 -4.77879 0.341764 0
M  V30 28050 H 2731.26 -2.54558 0.0850419 0
M  V30 28051 H 2732.04 -2.98366 1.69802 0
M  V30 28052 N 2734.48 -0.340009 -1.53889 0
M  V30 28053 C 2735.45 0.505881 -2.23548 0
M  V30 28054 C 2736.45 1.03042 -1.23447 0
M  V30 28055 O 2737.64 0.920227 -1.4791 0
M  V30 28056 C 2734.77 1.70435 -2.95237 0
M  V30 28057 H 2735.96 -0.1033 -2.99722 0
M  V30 28058 H 2733.52 -0.0913078 -1.56033 0
M  V30 28059 H 2734.25 2.35232 -2.2324 0
M  V30 28060 H 2734.04 1.33547 -3.68657 0
M  V30 28061 H 2735.53 2.30441 -3.48262 0
M  V30 28062 N 2735.96 1.57451 -0.0685468 0
M  V30 28063 C 2736.91 2.13738 0.91754 0
M  V30 28064 C 2737.91 1.07346 1.31047 0
M  V30 28065 O 2739.11 1.25731 1.28809 0
M  V30 28066 H 2735.49 0.683388 0.313823 0
M  V30 28067 H 2737.46 2.9546 0.417851 0
M  V30 28068 C 2736.21 2.71127 2.17682 0
M  V30 28069 H 2735.53 3.52664 1.8833 0
M  V30 28070 H 2736.97 3.14112 2.84798 0
M  V30 28071 C 2735.43 1.65731 2.93317 0
M  V30 28072 O 2735.96 1.08038 3.86899 0
M  V30 28073 N 2734.16 1.36842 2.56364 0
M  V30 28074 H 2733.71 1.83946 1.80337 0
M  V30 28075 H 2733.67 0.665555 3.07275 0
M  V30 28076 N 2737.44 -0.204984 1.56261 0
M  V30 28077 C 2738.69 -0.925064 1.79686 0
M  V30 28078 C 2739.01 -1.84201 0.639922 0
M  V30 28079 O 2738.28 -1.92886 -0.342311 0
M  V30 28080 H 2736.86 -0.344575 0.66278 0
M  V30 28081 H 2739.52 -0.212865 1.93734 0
M  V30 28082 H 2738.62 -1.52206 2.72469 0
M  V30 28083 N 2738.92 -1.50356 -0.472329 0
M  V30 28084 C 2739.85 -1.65281 -1.58792 0
M  V30 28085 C 2740.86 -0.53434 -1.53781 0
M  V30 28086 O 2742.05 -0.807474 -1.59192 0
M  V30 28087 C 2739.15 -1.62006 -2.9767 0
M  V30 28088 C 2738.33 -2.89864 -3.27563 0
M  V30 28089 C 2737.39 -2.7925 -4.45989 0
M  V30 28090 O 2736.41 -3.53205 -4.46357 0
M  V30 28091 N 2737.61 -1.92723 -5.47575 0
M  V30 28092 H 2740.38 -2.61506 -1.46406 0
M  V30 28093 H 2737.94 -1.47804 -0.660725 0
M  V30 28094 H 2739.93 -1.5252 -3.7486 0
M  V30 28095 H 2738.5 -0.735213 -3.03831 0
M  V30 28096 H 2737.72 -3.13487 -2.38997 0
M  V30 28097 H 2739.01 -3.74571 -3.44346 0
M  V30 28098 H 2738.41 -1.31949 -5.50096 0
M  V30 28099 H 2736.96 -1.89141 -6.23754 0
M  V30 28100 N 2740.4 0.725419 -1.39912 0
M  V30 28101 C 2741.63 1.51461 -1.40951 0
M  V30 28102 C 2742.04 1.88799 -0.00655738 0
M  V30 28103 O 2741.4 1.54767 0.967136 0
M  V30 28104 C 2741.45 2.79615 -2.29123 0
M  V30 28105 O 2741.17 2.43859 -3.63956 0
M  V30 28106 C 2742.67 3.7358 -2.38649 0
M  V30 28107 H 2739.89 0.467744 -0.4811 0
M  V30 28108 H 2742.43 0.895619 -1.83845 0
M  V30 28109 H 2740.59 3.37822 -1.89618 0
M  V30 28110 H 2741 3.26251 -4.10683 0
M  V30 28111 H 2742.48 4.6037 -3.04572 0
M  V30 28112 H 2742.95 4.16001 -1.40853 0
M  V30 28113 H 2743.56 3.21288 -2.78665 0
M  V30 28114 N 2741.88 1.25246 0.956615 0
M  V30 28115 C 2743.29 1.09015 1.51567 0
M  V30 28116 C 2743.64 -0.334779 1.93323 0
M  V30 28117 O 2742.76 -1.22451 1.78423 0
M  V30 28118 C 2743.36 1.97276 2.75441 0
M  V30 28119 C 2741.92 1.85236 3.27665 0
M  V30 28120 C 2741.06 1.91546 2.00513 0
M  V30 28121 H 2744.01 1.38561 0.773722 0
M  V30 28122 H 2744.04 1.51158 3.49187 0
M  V30 28123 H 2743.55 3.00977 2.45019 0
M  V30 28124 H 2741.65 0.844109 3.62913 0
M  V30 28125 H 2741.76 2.69938 3.95816 0
M  V30 28126 H 2740.13 1.35407 2.15724 0
M  V30 28127 H 2740.91 2.96847 1.72443 0
M  V30 28128 N 2743.35 -1.15894 1.068 0
M  V30 28129 C 2744.6 -1.85889 0.782829 0
M  V30 28130 C 2744.92 -1.82895 -0.693466 0
M  V30 28131 O 2746.12 -2.48518 -1.0932 0
M  V30 28132 C 2744.58 -3.33611 1.35026 0
M  V30 28133 C 2744.19 -3.45066 2.85716 0
M  V30 28134 C 2745.93 -4.08827 1.14285 0
M  V30 28135 C 2743.84 -4.86903 3.35678 0
M  V30 28136 H 2742.77 -0.696349 0.289161 0
M  V30 28137 H 2745.42 -1.30764 1.28736 0
M  V30 28138 H 2743.8 -3.88373 0.773475 0
M  V30 28139 H 2744.97 -3.00439 3.4939 0
M  V30 28140 H 2743.29 -2.83289 3.05183 0
M  V30 28141 H 2745.89 -5.13493 1.49096 0
M  V30 28142 H 2746.23 -4.1622 0.0815307 0
M  V30 28143 H 2746.76 -3.60318 1.68569 0
M  V30 28144 H 2743.5 -4.84691 4.41311 0
M  V30 28145 H 2743.02 -5.32134 2.76755 0
M  V30 28146 H 2744.7 -5.55739 3.31305 0
M  V30 28147 N 2744.83 -0.851312 -1.32629 0
M  V30 28148 C 2745.76 -0.250797 -2.27824 0
M  V30 28149 C 2746.78 0.575571 -1.52286 0
M  V30 28150 O 2747.97 0.400607 -1.73947 0
M  V30 28151 C 2745.07 0.664512 -3.32321 0
M  V30 28152 C 2744.24 -0.125264 -4.37221 0
M  V30 28153 C 2743.3 0.715293 -5.21316 0
M  V30 28154 O 2742.32 0.150011 -5.69002 0
M  V30 28155 N 2743.53 2.03059 -5.43827 0
M  V30 28156 H 2746.29 -1.06878 -2.79995 0
M  V30 28157 H 2743.85 -0.710969 -1.45454 0
M  V30 28158 H 2745.84 1.2321 -3.85489 0
M  V30 28159 H 2744.41 1.38318 -2.80334 0
M  V30 28160 H 2743.63 -0.874267 -3.84383 0
M  V30 28161 H 2744.92 -0.667863 -5.04398 0
M  V30 28162 H 2744.32 2.51323 -5.06807 0
M  V30 28163 H 2742.88 2.54638 -6.00002 0
M  V30 28164 N 2746.31 1.45361 -0.608928 0
M  V30 28165 C 2747.73 1.57253 -0.272686 0
M  V30 28166 C 2747.93 1.60007 1.22474 0
M  V30 28167 O 2746.98 1.5311 2.00783 0
M  V30 28168 C 2748.29 2.85464 -0.945041 0
M  V30 28169 C 2749.84 2.9914 -0.921086 0
M  V30 28170 C 2750.32 4.30123 -1.57348 0
M  V30 28171 N 2751.81 4.36885 -1.53903 0
M  V30 28172 C 2752.54 5.36906 -2.01295 0
M  V30 28173 N 2752.04 6.43456 -2.5678 0
M  V30 28174 N 2753.83 5.28272 -1.92055 0
M  V30 28175 H 2745.98 1.41817 -1.58119 0
M  V30 28176 H 2748.25 0.678134 -0.662449 0
M  V30 28177 H 2747.95 2.89334 -1.99946 0
M  V30 28178 H 2747.83 3.74271 -0.469145 0
M  V30 28179 H 2750.21 2.94836 0.124794 0
M  V30 28180 H 2750.29 2.1174 -1.43526 0
M  V30 28181 H 2749.94 4.35186 -2.61869 0
M  V30 28182 H 2749.87 5.16342 -1.03431 0
M  V30 28183 H 2752.36 3.60493 -1.13372 0
M  V30 28184 H 2752.67 7.16027 -2.90732 0
M  V30 28185 H 2751.02 6.44204 -2.60819 0
M  V30 28186 H 2754.21 4.43938 -1.48447 0
M  V30 28187 H 2754.38 6.06073 -2.29303 0
M  V30 28188 N 2747.79 0.348166 1.53706 0
M  V30 28189 C 2749.02 -0.248188 2.05406 0
M  V30 28190 C 2749.43 -1.43847 1.22284 0
M  V30 28191 O 2748.79 -1.80649 0.259276 0
M  V30 28192 C 2748.84 -0.65873 3.55448 0
M  V30 28193 O 2748.56 0.484226 4.35416 0
M  V30 28194 C 2750.06 -1.31531 4.23337 0
M  V30 28195 H 2747.28 -0.0470958 0.669345 0
M  V30 28196 H 2749.82 0.501491 1.98256 0
M  V30 28197 H 2747.98 -1.35835 3.62805 0
M  V30 28198 H 2748.39 0.156041 5.24268 0
M  V30 28199 H 2749.87 -1.55329 5.29695 0
M  V30 28200 H 2750.34 -2.2703 3.75971 0
M  V30 28201 H 2750.95 -0.657609 4.20185 0
M  V30 28202 N 2749.27 -1.57412 0.0768958 0
M  V30 28203 C 2750.51 -1.92858 -0.590645 0
M  V30 28204 C 2750.83 -0.959323 -1.70459 0
M  V30 28205 O 2752.03 -1.2068 -2.43205 0
M  V30 28206 C 2750.49 -3.42614 -1.10198 0
M  V30 28207 C 2750.1 -4.47996 -0.018766 0
M  V30 28208 C 2751.84 -3.87052 -1.74329 0
M  V30 28209 C 2749.75 -5.88889 -0.544433 0
M  V30 28210 H 2748.68 -0.719834 -0.224398 0
M  V30 28211 H 2751.33 -1.82886 0.149956 0
M  V30 28212 H 2749.71 -3.47677 -1.89571 0
M  V30 28213 H 2750.89 -4.54556 0.756016 0
M  V30 28214 H 2749.2 -4.13056 0.526628 0
M  V30 28215 H 2751.8 -4.89702 -2.14699 0
M  V30 28216 H 2752.14 -3.24699 -2.60531 0
M  V30 28217 H 2752.67 -3.84615 -1.0157 0
M  V30 28218 H 2749.41 -6.54899 0.280541 0
M  V30 28219 H 2748.93 -5.85838 -1.28662 0
M  V30 28220 H 2750.61 -6.38922 -1.01922 0
M  V30 28221 N 2750.74 0.196695 -1.56368 0
M  V30 28222 C 2751.69 1.24378 -1.94419 0
M  V30 28223 C 2752.66 1.45313 -0.804569 0
M  V30 28224 O 2753.85 1.58473 -1.06259 0
M  V30 28225 C 2750.99 2.58384 -2.28761 0
M  V30 28226 C 2750.1 2.45041 -3.55779 0
M  V30 28227 C 2749.23 3.71739 -3.79451 0
M  V30 28228 C 2748.27 3.53223 -4.999 0
M  V30 28229 N 2747.41 4.71929 -5.19834 0
M  V30 28230 H 2752.25 0.912288 -2.83692 0
M  V30 28231 H 2749.79 0.43911 -1.40393 0
M  V30 28232 H 2751.75 3.36453 -2.46688 0
M  V30 28233 H 2750.38 2.8958 -1.4263 0
M  V30 28234 H 2749.43 1.58278 -3.45908 0
M  V30 28235 H 2750.74 2.27292 -4.44004 0
M  V30 28236 H 2749.89 4.58249 -3.97609 0
M  V30 28237 H 2748.63 3.92441 -2.89553 0
M  V30 28238 H 2747.64 2.65098 -4.81667 0
M  V30 28239 H 2748.86 3.33968 -5.91306 0
M  V30 28240 H 2746.81 4.92897 -4.32884 0
M  V30 28241 H 2746.73 4.56999 -6.02236 0
M  V30 28242 H 2747.99 5.59794 -5.42449 0
M  V30 28243 N 2752.22 1.50604 0.464349 0
M  V30 28244 C 2753.63 1.54712 1.04504 0
M  V30 28245 C 2753.98 0.354576 1.92969 0
M  V30 28246 O 2753.11 -0.531775 2.09764 0
M  V30 28247 C 2753.7 2.80372 1.90202 0
M  V30 28248 C 2752.26 2.87139 2.43368 0
M  V30 28249 C 2751.41 2.49078 1.21882 0
M  V30 28250 H 2754.36 1.56771 0.246689 0
M  V30 28251 H 2754.38 2.62609 2.75349 0
M  V30 28252 H 2753.89 3.67149 1.25789 0
M  V30 28253 H 2752 2.0473 3.11314 0
M  V30 28254 H 2752.11 3.90186 2.78014 0
M  V30 28255 H 2750.47 2.01667 1.55572 0
M  V30 28256 H 2751.26 3.38171 0.591209 0
M  V30 28257 N 2753.7 -0.717989 1.40295 0
M  V30 28258 C 2754.98 -1.47082 1.28943 0
M  V30 28259 C 2755.36 -2.10894 -0.0933255 0
M  V30 28260 O 2754.71 -1.99953 -1.10595 0
M  V30 28261 C 2754.92 -2.50848 2.42644 0
M  V30 28262 C 2756.26 -3.16747 2.82766 0
M  V30 28263 O 2757.29 -2.61167 2.4222 0
M  V30 28264 O 2756.15 -4.1736 3.52807 0
M  V30 28265 H 2753.24 -0.653943 0.506248 0
M  V30 28266 H 2755.79 -0.750367 1.52209 0
M  V30 28267 H 2754.56 -2.02194 3.35012 0
M  V30 28268 H 2754.18 -3.30431 2.21135 0
M  V30 28269 N 2755.18 -1.25752 -0.94996 0
M  V30 28270 C 2756.42 -1.10941 -1.69764 0
M  V30 28271 C 2756.76 0.347995 -1.91057 0
M  V30 28272 O 2756.03 1.25622 -1.4849 0
M  V30 28273 C 2756.32 -1.86939 -3.07776 0
M  V30 28274 C 2756.17 -3.40535 -2.93864 0
M  V30 28275 C 2757.49 -1.65623 -4.07746 0
M  V30 28276 H 2754.61 -0.404407 -0.616136 0
M  V30 28277 H 2757.25 -1.54641 -1.10391 0
M  V30 28278 H 2755.4 -1.49797 -3.5846 0
M  V30 28279 H 2757.07 -3.87379 -2.5047 0
M  V30 28280 H 2755.31 -3.68008 -2.2968 0
M  V30 28281 H 2755.98 -3.88929 -3.91712 0
M  V30 28282 H 2758.46 -1.97966 -3.6599 0
M  V30 28283 H 2757.34 -2.21227 -5.02344 0
M  V30 28284 H 2757.6 -0.598672 -4.38028 0
M  V30 28285 N 2756.66 1.15326 -1.07413 0
M  V30 28286 C 2758.07 1.38115 -0.799783 0
M  V30 28287 C 2758.27 1.92494 0.595687 0
M  V30 28288 O 2757.33 2.13108 1.35429 0
M  V30 28289 C 2758.64 2.35155 -1.87411 0
M  V30 28290 C 2760.19 2.48816 -1.89894 0
M  V30 28291 C 2760.66 3.49148 -2.96412 0
M  V30 28292 N 2762.16 3.56684 -2.95518 0
M  V30 28293 C 2762.89 4.34138 -3.74582 0
M  V30 28294 N 2762.39 5.1492 -4.63497 0
M  V30 28295 N 2764.18 4.29233 -3.62926 0
M  V30 28296 H 2756.33 0.783705 -1.97413 0
M  V30 28297 H 2758.59 0.407139 -0.85612 0
M  V30 28298 H 2758.3 2.02315 -2.87683 0
M  V30 28299 H 2758.17 3.34941 -1.73476 0
M  V30 28300 H 2760.56 2.80953 -0.902726 0
M  V30 28301 H 2760.64 1.49026 -2.07906 0
M  V30 28302 H 2760.29 3.17745 -3.96233 0
M  V30 28303 H 2760.22 4.48695 -2.75646 0
M  V30 28304 H 2762.71 2.99026 -2.31066 0
M  V30 28305 H 2763.02 5.71267 -5.20455 0
M  V30 28306 H 2761.36 5.14224 -4.67546 0
M  V30 28307 H 2764.56 3.65189 -2.92839 0
M  V30 28308 H 2764.73 4.89348 -4.24786 0
M  V30 28309 N 2758.13 0.858334 1.32176 0
M  V30 28310 C 2759.36 0.476753 2.01846 0
M  V30 28311 C 2759.78 -0.919992 1.64066 0
M  V30 28312 O 2759.14 -1.60498 0.843217 0
M  V30 28313 C 2759.19 0.62764 3.55096 0
M  V30 28314 O 2758.29 -0.338013 4.11012 0
M  V30 28315 H 2757.64 0.19111 0.635903 0
M  V30 28316 H 2760.17 1.15854 1.68639 0
M  V30 28317 H 2760.18 0.516547 4.04717 0
M  V30 28318 H 2758.85 1.64616 3.81935 0
M  V30 28319 H 2757.43 -0.182851 3.72451 0
M  V30 28320 N 2759.61 -1.45036 0.616628 0
M  V30 28321 C 2760.84 -2.0624 0.121827 0
M  V30 28322 C 2761.25 -1.4604 -1.20287 0
M  V30 28323 O 2760.59 -0.572273 -1.74559 0
M  V30 28324 C 2760.66 -3.59405 -0.0826713 0
M  V30 28325 C 2760.32 -4.4199 1.16161 0
M  V30 28326 C 2761.32 -4.76395 2.08191 0
M  V30 28327 C 2759 -4.82599 1.39297 0
M  V30 28328 C 2761 -5.50275 3.21678 0
M  V30 28329 C 2758.68 -5.5623 2.53083 0
M  V30 28330 C 2759.68 -5.89986 3.44101 0
M  V30 28331 O 2759.37 -6.62122 4.55906 0
M  V30 28332 H 2759.1 -0.672347 0.0701785 0
M  V30 28333 H 2761.65 -1.87127 0.84691 0
M  V30 28334 H 2759.88 -3.76953 -0.862746 0
M  V30 28335 H 2761.57 -4.02422 -0.530202 0
M  V30 28336 H 2762.34 -4.45573 1.91546 0
M  V30 28337 H 2758.22 -4.55754 0.693476 0
M  V30 28338 H 2761.76 -5.7654 3.92743 0
M  V30 28339 H 2757.66 -5.86468 2.69678 0
M  V30 28340 H 2758.43 -6.80579 4.54702 0
M  V30 28341 N 2761.09 -0.356312 -1.53519 0
M  V30 28342 C 2762.32 0.237291 -2.05535 0
M  V30 28343 C 2762.73 1.43197 -1.23045 0
M  V30 28344 O 2762.09 1.80509 -0.268852 0
M  V30 28345 C 2762.14 0.639871 -3.55792 0
M  V30 28346 O 2761.86 -0.50731 -4.35153 0
M  V30 28347 C 2763.36 1.29284 -4.24029 0
M  V30 28348 H 2760.58 0.0435454 -0.669586 0
M  V30 28349 H 2763.13 -0.511998 -1.97987 0
M  V30 28350 H 2761.28 1.33909 -3.63521 0
M  V30 28351 H 2761.7 -0.183842 -5.24178 0
M  V30 28352 H 2763.17 1.52517 -5.30511 0
M  V30 28353 H 2763.65 2.25033 -3.7717 0
M  V30 28354 H 2764.25 0.635316 -4.20528 0
M  V30 28355 N 2762.57 1.57369 -0.0852427 0
M  V30 28356 C 2763.82 1.93169 0.580409 0
M  V30 28357 C 2764.13 0.968349 1.69948 0
M  V30 28358 O 2765.34 1.21968 2.42562 0
M  V30 28359 C 2763.79 3.43194 1.08379 0
M  V30 28360 C 2763.4 4.48 -0.00499263 0
M  V30 28361 C 2765.14 3.87971 1.72274 0
M  V30 28362 C 2763.05 5.89169 0.513195 0
M  V30 28363 H 2761.98 0.721014 0.220578 0
M  V30 28364 H 2764.63 1.82804 -0.159653 0
M  V30 28365 H 2763.01 3.48677 1.87724 0
M  V30 28366 H 2764.19 4.54149 -0.780112 0
M  V30 28367 H 2762.5 4.12771 -0.548526 0
M  V30 28368 H 2765.1 4.90834 2.12099 0
M  V30 28369 H 2765.44 3.26076 2.58805 0
M  V30 28370 H 2765.98 3.85148 0.995291 0
M  V30 28371 H 2762.72 6.54741 -0.315268 0
M  V30 28372 H 2762.24 5.86512 1.25554 0
M  V30 28373 H 2763.91 6.39453 0.985321 0
M  V30 28374 N 2764.05 -0.188399 1.5647 0
M  V30 28375 C 2765.27 -0.92377 1.85133 0
M  V30 28376 C 2765.69 -1.76566 0.668568 0
M  V30 28377 O 2765.05 -1.78861 -0.36263 0
M  V30 28378 C 2765.1 -1.81448 3.12664 0
M  V30 28379 O 2764.82 -1.00657 4.2638 0
M  V30 28380 C 2766.32 -2.66096 3.54553 0
M  V30 28381 H 2763.54 -0.269207 0.614629 0
M  V30 28382 H 2766.08 -0.193635 2.03581 0
M  V30 28383 H 2764.24 -2.49816 2.96093 0
M  V30 28384 H 2764.65 -1.61416 4.99044 0
M  V30 28385 H 2766.13 -3.24239 4.46736 0
M  V30 28386 H 2766.6 -3.40134 2.77859 0
M  V30 28387 H 2767.21 -2.03089 3.73678 0
M  V30 28388 N 2765.53 -1.50848 -0.456355 0
M  V30 28389 C 2766.77 -1.62252 -1.20494 0
M  V30 28390 C 2767.09 -0.331872 -1.92155 0
M  V30 28391 O 2766.36 0.651411 -1.84752 0
M  V30 28392 H 2764.94 -0.597926 -0.447765 0
M  V30 28393 H 2767.61 -1.87694 -0.525066 0
M  V30 28394 H 2766.7 -2.44092 -1.94487 0
M  V30 28395 N 2767 0.710538 -1.40674 0
M  V30 28396 C 2767.93 1.83734 -1.44098 0
M  V30 28397 C 2768.91 1.6741 -0.301315 0
M  V30 28398 O 2770.1 1.87366 -0.510651 0
M  V30 28399 C 2767.23 3.21736 -1.30779 0
M  V30 28400 C 2766.18 3.5274 -2.42401 0
M  V30 28401 C 2765.51 4.8994 -2.14156 0
M  V30 28402 C 2766.81 3.53227 -3.84744 0
M  V30 28403 H 2768.5 1.81125 -2.38399 0
M  V30 28404 H 2766.05 0.869996 -1.14748 0
M  V30 28405 H 2768 4.00262 -1.3179 0
M  V30 28406 H 2766.73 3.24933 -0.329565 0
M  V30 28407 H 2765.39 2.76558 -2.40648 0
M  V30 28408 H 2765.03 4.89745 -1.14712 0
M  V30 28409 H 2764.73 5.1165 -2.88943 0
M  V30 28410 H 2766.26 5.70793 -2.16858 0
M  V30 28411 H 2767.67 4.21783 -3.88293 0
M  V30 28412 H 2766.07 3.86465 -4.59091 0
M  V30 28413 H 2767.14 2.52506 -4.13967 0
M  V30 28414 N 2768.48 1.26254 0.943277 0
M  V30 28415 C 2769.41 1.0342 2.04541 0
M  V30 28416 C 2770.43 -0.00466249 1.62799 0
M  V30 28417 O 2771.62 0.235177 1.76944 0
M  V30 28418 C 2768.72 0.54373 3.3451 0
M  V30 28419 C 2767.89 1.65135 4.0503 0
M  V30 28420 C 2766.95 1.15929 5.13271 0
M  V30 28421 O 2765.97 1.85595 5.38092 0
M  V30 28422 N 2767.18 0.00659483 5.805 0
M  V30 28423 H 2769.94 1.98323 2.24695 0
M  V30 28424 H 2767.5 1.17612 1.11262 0
M  V30 28425 H 2769.49 0.198774 4.04212 0
M  V30 28426 H 2768.06 -0.311656 3.11043 0
M  V30 28427 H 2767.28 2.16735 3.29271 0
M  V30 28428 H 2768.57 2.39516 4.48898 0
M  V30 28429 H 2767.97 -0.575248 5.62768 0
M  V30 28430 H 2766.53 -0.279302 6.51201 0
M  V30 28431 N 2769.96 -1.14755 1.08024 0
M  V30 28432 C 2771.37 -1.67277 0.829173 0
M  V30 28433 C 2771.72 -1.85306 -0.644689 0
M  V30 28434 O 2770.85 -1.56136 -1.49835 0
M  V30 28435 C 2771.44 -3.03854 1.49861 0
M  V30 28436 C 2770 -3.53426 1.29488 0
M  V30 28437 C 2769.15 -2.28992 1.5639 0
M  V30 28438 H 2772.1 -0.988741 1.24135 0
M  V30 28439 H 2772.12 -3.69119 0.923637 0
M  V30 28440 H 2771.63 -2.907 2.57128 0
M  V30 28441 H 2769.73 -3.71808 0.242735 0
M  V30 28442 H 2769.85 -4.34443 2.01981 0
M  V30 28443 H 2768.21 -2.34872 0.985258 0
M  V30 28444 H 2768.99 -2.18418 2.64855 0
M  V30 28445 N 2771.44 -0.865331 -1.31719 0
M  V30 28446 C 2772.69 -0.47303 -1.96486 0
M  V30 28447 C 2773.01 0.976946 -1.68762 0
M  V30 28448 O 2772.28 1.68422 -1.00054 0
M  V30 28449 H 2770.86 -0.171934 -0.726944 0
M  V30 28450 H 2773.52 -1.1041 -1.6061 0
M  V30 28451 H 2772.61 -0.626924 -3.05739 0
M  V30 28452 N 2772.92 1.44707 -0.624311 0
M  V30 28453 C 2774.14 2.06472 -0.132955 0
M  V30 28454 C 2774.56 1.46604 1.18965 0
M  V30 28455 O 2773.92 0.586371 1.72823 0
M  V30 28456 C 2773.97 3.615 -0.00471772 0
M  V30 28457 O 2773.69 4.19136 -1.27501 0
M  V30 28458 C 2775.19 4.40285 0.516135 0
M  V30 28459 H 2772.41 0.666621 -0.0765318 0
M  V30 28460 H 2774.95 1.85686 -0.856783 0
M  V30 28461 H 2773.11 3.81571 0.669516 0
M  V30 28462 H 2773.52 5.12502 -1.11545 0
M  V30 28463 H 2775 5.49204 0.554897 0
M  V30 28464 H 2775.47 4.11247 1.54182 0
M  V30 28465 H 2776.08 4.25117 -0.124616 0
M  V30 28466 N 2774.39 0.364449 1.53328 0
M  V30 28467 C 2775.67 -0.281928 1.93558 0
M  V30 28468 C 2776.05 -1.66488 1.29788 0
M  V30 28469 O 2775.4 -2.23893 0.456552 0
M  V30 28470 C 2775.61 -0.33327 3.47405 0
M  V30 28471 C 2776.96 -0.574157 4.207 0
M  V30 28472 O 2777.98 -0.414525 3.5378 0
M  V30 28473 O 2776.84 -0.884907 5.39288 0
M  V30 28474 H 2773.93 -0.168867 0.809576 0
M  V30 28475 H 2776.48 0.41715 1.64493 0
M  V30 28476 H 2775.25 0.636394 3.8609 0
M  V30 28477 H 2774.87 -1.07829 3.82699 0
M  V30 28478 N 2775.87 -1.57322 0.0935872 0
M  V30 28479 C 2777.1 -1.98348 -0.57806 0
M  V30 28480 C 2777.51 -0.97147 -1.62355 0
M  V30 28481 O 2776.85 0.0473636 -1.83639 0
M  V30 28482 C 2776.91 -3.35743 -1.28519 0
M  V30 28483 C 2776.58 -4.55327 -0.390634 0
M  V30 28484 C 2777.58 -5.18648 0.360613 0
M  V30 28485 C 2775.26 -5.01348 -0.309132 0
M  V30 28486 C 2777.25 -6.26357 1.18136 0
M  V30 28487 C 2774.94 -6.08924 0.515264 0
M  V30 28488 C 2775.94 -6.71293 1.25916 0
M  V30 28489 O 2775.63 -7.76795 2.06992 0
M  V30 28490 H 2775.36 -0.656852 -0.159756 0
M  V30 28491 H 2777.91 -2.04703 0.169094 0
M  V30 28492 H 2776.14 -3.26067 -2.07888 0
M  V30 28493 H 2777.83 -3.61227 -1.85122 0
M  V30 28494 H 2778.6 -4.84025 0.30737 0
M  V30 28495 H 2774.48 -4.52566 -0.877802 0
M  V30 28496 H 2778.02 -6.74968 1.76248 0
M  V30 28497 H 2773.92 -6.42978 0.569993 0
M  V30 28498 H 2774.69 -7.93775 1.99658 0
M  V30 28499 N 2777.35 0.180099 -1.56568 0
M  V30 28500 C 2778.3 1.22309 -1.95727 0
M  V30 28501 C 2779.27 1.44452 -0.819936 0
M  V30 28502 O 2780.45 1.57337 -1.07934 0
M  V30 28503 C 2777.59 2.55943 -2.31489 0
M  V30 28504 C 2776.7 2.41254 -3.58358 0
M  V30 28505 C 2775.84 3.67694 -3.83373 0
M  V30 28506 C 2774.88 3.47901 -5.03619 0
M  V30 28507 N 2774.02 4.66389 -5.2481 0
M  V30 28508 H 2778.86 0.882148 -2.84644 0
M  V30 28509 H 2776.39 0.424195 -1.40851 0
M  V30 28510 H 2778.35 3.33818 -2.50243 0
M  V30 28511 H 2776.98 2.88051 -1.45694 0
M  V30 28512 H 2776.03 1.546 -3.47567 0
M  V30 28513 H 2777.34 2.2257 -4.4639 0
M  V30 28514 H 2776.5 4.54006 -4.02447 0
M  V30 28515 H 2775.24 3.89348 -2.93699 0
M  V30 28516 H 2774.24 2.59975 -4.84451 0
M  V30 28517 H 2775.47 3.27677 -5.94815 0
M  V30 28518 H 2773.41 4.88278 -4.38087 0
M  V30 28519 H 2773.33 4.50585 -6.07049 0
M  V30 28520 H 2774.6 5.54009 -5.48356 0
M  V30 28521 N 2778.83 1.51088 0.448349 0
M  V30 28522 C 2780.08 1.62446 1.19558 0
M  V30 28523 C 2780.39 0.341185 1.92601 0
M  V30 28524 O 2781.6 0.333984 2.69438 0
M  V30 28525 C 2780.05 2.86844 2.17368 0
M  V30 28526 C 2779.66 4.22134 1.50023 0
M  V30 28527 C 2781.4 3.07556 2.92592 0
M  V30 28528 C 2779.31 5.37693 2.46252 0
M  V30 28529 H 2778.24 0.605019 0.449965 0
M  V30 28530 H 2780.89 1.77544 0.463704 0
M  V30 28531 H 2779.27 2.65355 2.93944 0
M  V30 28532 H 2780.45 4.53964 0.790806 0
M  V30 28533 H 2778.76 4.07211 0.86994 0
M  V30 28534 H 2781.36 3.91063 3.64656 0
M  V30 28535 H 2781.7 2.20189 3.53302 0
M  V30 28536 H 2782.24 3.29333 2.23125 0
M  V30 28537 H 2778.97 6.27285 1.90247 0
M  V30 28538 H 2778.49 5.10253 3.1528 0
M  V30 28539 H 2780.17 5.69195 3.07613 0
M  V30 28540 N 2780.31 -0.703068 1.41049 0
M  V30 28541 C 2781.54 -1.48983 1.43135 0
M  V30 28542 C 2781.94 -1.89171 0.032887 0
M  V30 28543 O 2781.29 -1.56837 -0.956442 0
M  V30 28544 C 2781.35 -2.78771 2.26995 0
M  V30 28545 C 2781.01 -2.60831 3.75255 0
M  V30 28546 C 2782.01 -2.27268 4.67595 0
M  V30 28547 C 2779.7 -2.76705 4.19213 0
M  V30 28548 C 2781.69 -2.09806 6.0188 0
M  V30 28549 C 2779.38 -2.58861 5.53565 0
M  V30 28550 C 2780.37 -2.25461 6.44714 0
M  V30 28551 O 2780.06 -2.07765 7.76588 0
M  V30 28552 H 2779.79 -0.465913 0.489797 0
M  V30 28553 H 2782.35 -0.873789 1.85887 0
M  V30 28554 H 2780.58 -3.42754 1.79044 0
M  V30 28555 H 2782.27 -3.40544 2.20873 0
M  V30 28556 H 2783.03 -2.14625 4.34927 0
M  V30 28557 H 2778.91 -3.01687 3.48577 0
M  V30 28558 H 2782.46 -1.83659 6.7299 0
M  V30 28559 H 2778.35 -2.71091 5.85815 0
M  V30 28560 H 2779.12 -2.22587 7.87653 0
M  V30 28561 N 2781.78 -1.26752 -0.936569 0
M  V30 28562 C 2782.71 -1.11216 -2.05313 0
M  V30 28563 C 2783.7 -0.0160561 -1.70092 0
M  V30 28564 O 2784.88 -0.188928 -1.93279 0
M  V30 28565 C 2782.01 -0.74923 -3.39122 0
M  V30 28566 C 2780.96 -1.79758 -3.88421 0
M  V30 28567 C 2780.29 -1.28885 -5.18934 0
M  V30 28568 C 2781.59 -3.2 -4.12792 0
M  V30 28569 H 2783.28 -2.04616 -2.18569 0
M  V30 28570 H 2780.83 -0.985178 -1.05025 0
M  V30 28571 H 2782.78 -0.627396 -4.16703 0
M  V30 28572 H 2781.51 0.220485 -3.25855 0
M  V30 28573 H 2780.17 -1.90816 -3.13025 0
M  V30 28574 H 2779.81 -0.308845 -5.02051 0
M  V30 28575 H 2779.51 -1.98967 -5.52889 0
M  V30 28576 H 2781.04 -1.17978 -5.99094 0
M  V30 28577 H 2782.45 -3.11992 -4.80972 0
M  V30 28578 H 2780.85 -3.87713 -4.58037 0
M  V30 28579 H 2781.92 -3.65713 -3.18405 0
M  V30 28580 N 2783.26 1.1418 -1.08631 0
M  V30 28581 C 2784.49 1.88855 -0.837706 0
M  V30 28582 C 2784.9 1.7896 0.613992 0
M  V30 28583 O 2784.24 1.14836 1.43382 0
M  V30 28584 C 2784.31 3.39457 -1.18361 0
M  V30 28585 C 2783.97 3.73135 -2.63855 0
M  V30 28586 C 2784.97 3.73062 -3.62106 0
M  V30 28587 C 2782.65 4.03044 -2.99768 0
M  V30 28588 C 2784.65 4.02426 -4.94299 0
M  V30 28589 C 2782.33 4.32071 -4.32155 0
M  V30 28590 C 2783.33 4.31746 -5.2923 0
M  V30 28591 O 2783.02 4.60067 -6.59237 0
M  V30 28592 H 2782.75 0.604981 -0.30162 0
M  V30 28593 H 2785.3 1.45516 -1.44963 0
M  V30 28594 H 2783.53 3.83259 -0.514696 0
M  V30 28595 H 2785.22 3.95442 -0.91546 0
M  V30 28596 H 2785.99 3.5004 -3.35704 0
M  V30 28597 H 2781.87 4.02449 -2.24847 0
M  V30 28598 H 2785.41 4.02088 -5.70062 0
M  V30 28599 H 2781.31 4.54563 -4.58304 0
M  V30 28600 H 2782.08 4.77773 -6.64586 0
M  V30 28601 N 2784.74 0.872304 1.31258 0
M  V30 28602 C 2785.97 0.498942 2.00794 0
M  V30 28603 C 2786.38 -0.909209 1.65466 0
M  V30 28604 O 2785.74 -1.596 0.885101 0
M  V30 28605 C 2785.79 0.649155 3.55624 0
M  V30 28606 O 2785.51 2.00185 3.89689 0
M  V30 28607 C 2787.01 0.277112 4.42433 0
M  V30 28608 H 2784.23 0.194157 0.642296 0
M  V30 28609 H 2786.78 1.17411 1.67436 0
M  V30 28610 H 2784.93 0.0215083 3.87394 0
M  V30 28611 H 2785.35 2.01131 4.84403 0
M  V30 28612 H 2786.82 0.433161 5.50298 0
M  V30 28613 H 2787.3 -0.783913 4.32147 0
M  V30 28614 H 2787.9 0.880556 4.16084 0
M  V30 28615 N 2786.22 -1.44374 0.631976 0
M  V30 28616 C 2787.15 -2.33425 -0.0592832 0
M  V30 28617 C 2788.13 -1.48255 -0.833938 0
M  V30 28618 O 2789.31 -1.76972 -0.799651 0
M  V30 28619 C 2786.44 -3.31334 -1.0409 0
M  V30 28620 C 2785.4 -4.26329 -0.377824 0
M  V30 28621 C 2784.72 -5.14113 -1.46941 0
M  V30 28622 C 2786.02 -5.17363 0.716462 0
M  V30 28623 H 2787.72 -2.91474 0.684338 0
M  V30 28624 H 2785.26 -1.40155 0.330542 0
M  V30 28625 H 2787.22 -3.92517 -1.53324 0
M  V30 28626 H 2785.94 -2.71496 -1.81542 0
M  V30 28627 H 2784.6 -3.6648 0.0938698 0
M  V30 28628 H 2784.25 -4.50627 -2.23482 0
M  V30 28629 H 2783.95 -5.78482 -1.03111 0
M  V30 28630 H 2785.47 -5.78168 -1.96353 0
M  V30 28631 H 2786.89 -5.72476 0.307189 0
M  V30 28632 H 2785.28 -5.90339 1.07795 0
M  V30 28633 H 2786.35 -4.58325 1.58324 0
M  V30 28634 N 2787.7 -0.372575 -1.53133 0
M  V30 28635 C 2788.64 0.485641 -2.27474 0
M  V30 28636 C 2789.64 1.07743 -1.30721 0
M  V30 28637 O 2790.84 1.01982 -1.48323 0
M  V30 28638 H 2787.22 0.175343 -0.731272 0
M  V30 28639 H 2789.19 -0.163038 -2.97954 0
M  V30 28640 C 2787.94 1.60972 -3.08193 0
M  V30 28641 H 2787.26 1.16366 -3.8249 0
M  V30 28642 H 2788.7 2.18479 -3.63377 0
M  V30 28643 C 2787.16 2.5561 -2.19465 0
M  V30 28644 O 2787.69 3.58604 -1.81014 0
M  V30 28645 N 2785.9 2.24961 -1.83958 0
M  V30 28646 H 2785.44 1.41243 -2.15425 0
M  V30 28647 H 2785.4 2.88535 -1.24879 0
M  V30 28648 N 2789.17 1.5727 -0.101929 0
M  V30 28649 C 2790.45 1.8608 0.6028 0
M  V30 28650 C 2790.83 1.00004 1.8591 0
M  V30 28651 O 2790.18 0.0742889 2.28379 0
M  V30 28652 C 2790.39 3.36883 0.911635 0
M  V30 28653 C 2791.74 4.05095 1.27212 0
M  V30 28654 O 2792.76 3.41804 1.00244 0
M  V30 28655 O 2791.62 5.16785 1.77751 0
M  V30 28656 H 2788.71 0.769748 0.302353 0
M  V30 28657 H 2791.26 1.69161 -0.135143 0
M  V30 28658 H 2790.03 3.91295 0.0206568 0
M  V30 28659 H 2789.66 3.59172 1.70532 0
M  V30 28660 N 2790.65 -0.171793 1.56661 0
M  V30 28661 C 2791.6 -1.23203 1.97291 0
M  V30 28662 C 2792.59 -1.45853 0.861591 0
M  V30 28663 O 2793.8 -1.46438 1.0467 0
M  V30 28664 H 2790.18 -0.414139 0.627689 0
M  V30 28665 H 2792.15 -0.862492 2.85664 0
M  V30 28666 C 2790.9 -2.56396 2.34854 0
M  V30 28667 H 2790.22 -2.39791 3.19907 0
M  V30 28668 H 2791.66 -3.29271 2.67127 0
M  V30 28669 C 2790.12 -3.15116 1.19177 0
M  V30 28670 O 2790.65 -3.98832 0.479183 0
M  V30 28671 N 2788.85 -2.74199 0.962463 0
M  V30 28672 H 2788.4 -2.06223 1.54369 0
M  V30 28673 H 2788.36 -3.13823 0.190327 0
M  V30 28674 N 2792.13 -1.51324 -0.44033 0
M  V30 28675 C 2793.09 -1.71834 -1.51676 0
M  V30 28676 C 2794.09 -0.588412 -1.49647 0
M  V30 28677 O 2795.28 -0.855918 -1.51722 0
M  V30 28678 C 2792.42 -1.77204 -2.91224 0
M  V30 28679 H 2793.61 -2.679 -1.34795 0
M  V30 28680 H 2791.16 -1.41268 -0.668805 0
M  V30 28681 H 2791.9 -0.829418 -3.13514 0
M  V30 28682 H 2791.68 -2.59319 -2.94102 0
M  V30 28683 H 2793.17 -1.94921 -3.69318 0
M  V30 28684 N 2793.61 0.695578 -1.41419 0
M  V30 28685 C 2795.02 1.00617 -1.23889 0
M  V30 28686 C 2795.22 2.01092 -0.128241 0
M  V30 28687 O 2794.28 2.4735 0.507364 0
M  V30 28688 C 2795.59 1.53079 -2.58819 0
M  V30 28689 C 2797.14 1.64963 -2.66001 0
M  V30 28690 C 2797.62 2.20826 -4.01248 0
M  V30 28691 N 2799.11 2.28187 -4.03094 0
M  V30 28692 C 2799.84 2.72439 -5.04544 0
M  V30 28693 N 2799.34 3.16296 -6.16384 0
M  V30 28694 N 2801.13 2.72002 -4.91906 0
M  V30 28695 H 2793.28 0.0299688 -2.12379 0
M  V30 28696 H 2795.55 0.0758631 -0.94496 0
M  V30 28697 H 2795.25 0.867087 -3.40844 0
M  V30 28698 H 2795.13 2.51293 -2.81304 0
M  V30 28699 H 2797.51 2.30444 -1.84335 0
M  V30 28700 H 2797.59 0.652939 -2.47326 0
M  V30 28701 H 2797.24 1.5596 -4.83362 0
M  V30 28702 H 2797.17 3.21247 -4.17263 0
M  V30 28703 H 2799.66 1.97237 -3.22345 0
M  V30 28704 H 2799.97 3.48688 -6.89664 0
M  V30 28705 H 2798.32 3.14204 -6.1992 0
M  V30 28706 H 2801.51 2.37088 -4.03617 0
M  V30 28707 H 2801.68 3.06171 -5.71107 0
M  V30 28708 N 2795.09 1.27247 0.929833 0
M  V30 28709 C 2796.31 1.16377 1.71672 0
M  V30 28710 C 2796.74 -0.275991 1.86064 0
M  V30 28711 O 2796.1 -1.1999 1.35912 0
M  V30 28712 C 2796.14 1.85008 3.09523 0
M  V30 28713 O 2795.25 1.1466 3.9614 0
M  V30 28714 H 2794.59 0.404873 0.526283 0
M  V30 28715 H 2797.12 1.68278 1.16378 0
M  V30 28716 H 2797.13 1.92283 3.59849 0
M  V30 28717 H 2795.8 2.89744 2.98364 0
M  V30 28718 H 2794.38 1.15439 3.54582 0
M  V30 28719 N 2796.57 -1.13603 1.09235 0
M  V30 28720 C 2797.79 -1.89222 0.849101 0
M  V30 28721 C 2798.22 -1.7848 -0.593844 0
M  V30 28722 O 2797.57 -1.13095 -1.41701 0
M  V30 28723 C 2797.62 -3.36871 1.28648 0
M  V30 28724 O 2796.73 -4.10006 0.443702 0
M  V30 28725 H 2796.07 -0.588412 0.30768 0
M  V30 28726 H 2798.6 -1.43745 1.45597 0
M  V30 28727 H 2798.61 -3.87697 1.27103 0
M  V30 28728 H 2797.28 -3.44007 2.33735 0
M  V30 28729 H 2795.86 -3.6921 0.523306 0
M  V30 28730 N 2798.04 -0.879253 -1.30793 0
M  V30 28731 C 2799.45 -0.546124 -1.78534 0
M  V30 28732 C 2799.81 0.937437 -1.72356 0
M  V30 28733 O 2798.93 1.7323 -1.29693 0
M  V30 28734 C 2799.53 -0.984557 -3.24179 0
M  V30 28735 C 2798.08 -0.702936 -3.69778 0
M  V30 28736 C 2797.23 -1.17072 -2.51375 0
M  V30 28737 H 2800.18 -1.06405 -1.17744 0
M  V30 28738 H 2800.2 -0.311112 -3.79226 0
M  V30 28739 H 2799.72 -2.06435 -3.28643 0
M  V30 28740 H 2797.82 0.365101 -3.70807 0
M  V30 28741 H 2797.93 -1.28647 -4.61505 0
M  V30 28742 H 2796.29 -0.590215 -2.47767 0
M  V30 28743 H 2797.08 -2.25813 -2.5858 0
M  V30 28744 N 2799.52 1.44037 -0.639624 0
M  V30 28745 C 2800.77 2.02261 -0.147734 0
M  V30 28746 C 2801.1 1.50258 1.23029 0
M  V30 28747 O 2800.38 0.6901 1.81846 0
M  V30 28748 C 2800.66 3.59813 -0.143683 0
M  V30 28749 C 2800.51 4.22079 -1.55465 0
M  V30 28750 C 2801.83 4.3693 0.52724 0
M  V30 28751 H 2798.95 0.734933 -0.0551582 0
M  V30 28752 H 2801.59 1.71503 -0.817718 0
M  V30 28753 H 2799.74 3.86148 0.42683 0
M  V30 28754 H 2801.41 4.06822 -2.17471 0
M  V30 28755 H 2799.66 3.79249 -2.10601 0
M  V30 28756 H 2800.33 5.31122 -1.50378 0
M  V30 28757 H 2802.8 4.16079 0.0419772 0
M  V30 28758 H 2801.68 5.46624 0.499293 0
M  V30 28759 H 2801.94 4.12168 1.59907 0
M  V30 28760 N 2801 0.380691 1.52933 0
M  V30 28761 C 2802.25 -0.204545 2.01766 0
M  V30 28762 C 2802.58 -1.47177 1.26699 0
M  V30 28763 O 2801.85 -1.91045 0.36497 0
M  V30 28764 C 2802.14 -0.481206 3.5687 0
M  V30 28765 C 2801.99 0.800707 4.42616 0
M  V30 28766 C 2803.31 -1.27547 4.21212 0
M  V30 28767 H 2800.43 -0.0728674 0.733389 0
M  V30 28768 H 2803.07 0.508562 1.83067 0
M  V30 28769 H 2801.22 -1.08869 3.72934 0
M  V30 28770 H 2802.89 1.43781 4.3832 0
M  V30 28771 H 2801.13 1.41787 4.09974 0
M  V30 28772 H 2801.81 0.561888 5.49133 0
M  V30 28773 H 2804.28 -0.761442 4.09074 0
M  V30 28774 H 2803.16 -1.43779 5.29735 0
M  V30 28775 H 2803.42 -2.28827 3.78273 0
M  V30 28776 N 2802.48 -1.57214 0.110268 0
M  V30 28777 C 2803.73 -1.94068 -0.549604 0
M  V30 28778 C 2804.04 -0.995264 -1.68386 0
M  V30 28779 O 2805.25 -1.25811 -2.4059 0
M  V30 28780 C 2803.7 -3.44874 -1.02906 0
M  V30 28781 C 2803.31 -4.47935 0.0762649 0
M  V30 28782 C 2805.05 -3.90663 -1.6608 0
M  V30 28783 C 2802.96 -5.89911 -0.419398 0
M  V30 28784 H 2801.89 -0.724432 -0.209079 0
M  V30 28785 H 2804.54 -1.82527 0.188715 0
M  V30 28786 H 2802.92 -3.51619 -1.82153 0
M  V30 28787 H 2804.1 -4.5285 0.852264 0
M  V30 28788 H 2802.41 -4.11846 0.614124 0
M  V30 28789 H 2805.01 -4.94146 -2.04263 0
M  V30 28790 H 2805.35 -3.30152 -2.53585 0
M  V30 28791 H 2805.89 -3.86682 -0.933891 0
M  V30 28792 H 2802.62 -6.54157 0.419392 0
M  V30 28793 H 2802.14 -5.88435 -1.16207 0
M  V30 28794 H 2803.82 -6.4094 -0.883465 0
M  V30 28795 N 2803.96 0.163482 -1.5675 0
M  V30 28796 C 2805.23 0.906569 -1.73323 0
M  V30 28797 C 2805.61 2.00057 -0.673815 0
M  V30 28798 O 2804.96 2.26386 0.310082 0
M  V30 28799 C 2805.17 1.46413 -3.16803 0
M  V30 28800 C 2806.52 1.934 -3.77997 0
M  V30 28801 O 2807.54 1.56191 -3.2013 0
M  V30 28802 O 2806.4 2.61967 -4.7962 0
M  V30 28803 H 2803.5 0.427259 -0.708081 0
M  V30 28804 H 2806.04 0.150698 -1.6903 0
M  V30 28805 H 2804.81 0.677121 -3.85397 0
M  V30 28806 H 2804.44 2.28397 -3.25454 0
M  V30 28807 N 2805.43 1.51555 0.432299 0
M  V30 28808 C 2806.4 1.72636 1.50762 0
M  V30 28809 C 2807.4 0.59634 1.49333 0
M  V30 28810 O 2808.59 0.863952 1.51266 0
M  V30 28811 C 2805.72 1.78746 2.90281 0
M  V30 28812 H 2806.91 2.68611 1.33372 0
M  V30 28813 H 2804.46 1.41621 0.661304 0
M  V30 28814 H 2805.2 0.846032 3.1307 0
M  V30 28815 H 2804.98 2.60875 2.92723 0
M  V30 28816 H 2806.47 1.96877 3.68279 0
M  V30 28817 N 2806.91 -0.688069 1.41786 0
M  V30 28818 C 2808.14 -1.48172 1.4512 0
M  V30 28819 C 2808.56 -1.88004 0.0601621 0
M  V30 28820 O 2807.92 -1.55128 -0.938357 0
M  V30 28821 C 2807.97 -2.71579 2.37229 0
M  V30 28822 O 2807.07 -3.69351 1.8345 0
M  V30 28823 H 2806.41 -0.445667 0.492216 0
M  V30 28824 H 2808.94 -0.845112 1.8633 0
M  V30 28825 H 2808.95 -3.19802 2.53359 0
M  V30 28826 H 2807.63 -2.41926 3.38297 0
M  V30 28827 H 2806.2 -3.28319 1.76808 0
M  V30 28828 N 2808.39 -1.27739 -0.923072 0
M  V30 28829 C 2809.62 -1.17174 -1.70523 0
M  V30 28830 C 2810.03 0.270848 -1.86847 0
M  V30 28831 O 2809.39 1.18399 -1.38881 0
M  V30 28832 C 2809.44 -1.85564 -3.10239 0
M  V30 28833 O 2809.16 -3.24187 -2.94677 0
M  V30 28834 C 2810.66 -1.81183 -4.04583 0
M  V30 28835 H 2807.88 -0.407172 -0.53334 0
M  V30 28836 H 2810.43 -1.68694 -1.15596 0
M  V30 28837 H 2808.58 -1.37937 -3.62011 0
M  V30 28838 H 2809 -3.58304 -3.83039 0
M  V30 28839 H 2810.47 -2.33642 -5.00115 0
M  V30 28840 H 2810.95 -0.782175 -4.32179 0
M  V30 28841 H 2811.55 -2.28447 -3.58737 0
M  V30 28842 N 2809.87 1.13022 -1.09836 0
M  V30 28843 C 2810.83 2.16751 -0.745096 0
M  V30 28844 C 2811.83 1.59184 0.227407 0
M  V30 28845 O 2813.02 1.74199 0.00504798 0
M  V30 28846 C 2810.15 3.40746 -0.102603 0
M  V30 28847 H 2811.35 2.49515 -1.66379 0
M  V30 28848 H 2808.9 1.27922 -0.898083 0
M  V30 28849 H 2809.63 3.13575 0.827122 0
M  V30 28850 H 2809.42 3.83802 -0.802418 0
M  V30 28851 H 2810.91 4.17401 0.129009 0
M  V30 28852 N 2811.35 0.886177 1.30325 0
M  V30 28853 C 2812.6 0.501278 1.95372 0
M  V30 28854 C 2812.91 -0.954604 1.70724 0
M  V30 28855 O 2814.11 -1.4464 2.29764 0
M  V30 28856 C 2812.57 0.845555 3.49826 0
M  V30 28857 C 2812.18 2.31929 3.83292 0
M  V30 28858 C 2813.92 0.529912 4.2118 0
M  V30 28859 C 2811.83 2.60513 5.3093 0
M  V30 28860 H 2810.76 0.183735 0.731271 0
M  V30 28861 H 2813.41 1.08132 1.48256 0
M  V30 28862 H 2811.79 0.194589 3.95522 0
M  V30 28863 H 2812.97 3.01467 3.48503 0
M  V30 28864 H 2811.28 2.60259 3.25045 0
M  V30 28865 H 2813.88 0.720494 5.29824 0
M  V30 28866 H 2814.22 -0.530756 4.12903 0
M  V30 28867 H 2814.75 1.13812 3.81171 0
M  V30 28868 H 2811.49 3.65325 5.44259 0
M  V30 28869 H 2811.01 1.95585 5.67015 0
M  V30 28870 H 2812.69 2.46077 5.98377 0
M  V30 28871 N 2812.82 -1.43695 0.647253 0
M  V30 28872 C 2814.1 -1.954 0.0884101 0
M  V30 28873 C 2814.48 -1.58875 -1.39003 0
M  V30 28874 O 2813.83 -0.870867 -2.11254 0
M  V30 28875 C 2814.04 -3.47452 0.328324 0
M  V30 28876 C 2815.39 -4.23976 0.230083 0
M  V30 28877 O 2816.41 -3.55246 0.260558 0
M  V30 28878 O 2815.27 -5.46298 0.148711 0
M  V30 28879 H 2812.36 -0.826897 -0.0130538 0
M  V30 28880 H 2814.91 -1.53665 0.720077 0
M  V30 28881 H 2813.68 -3.67143 1.35357 0
M  V30 28882 H 2813.31 -3.96172 -0.336702 0
M  V30 28883 N 2814.3 -0.388796 -1.52729 0
M  V30 28884 C 2815.27 0.434505 -2.25044 0
M  V30 28885 C 2816.27 0.990622 -1.26662 0
M  V30 28886 O 2817.46 0.872704 -1.50763 0
M  V30 28887 C 2814.59 1.60956 -3.00509 0
M  V30 28888 H 2815.78 -0.198602 -2.99242 0
M  V30 28889 H 2813.33 -0.140902 -1.55664 0
M  V30 28890 H 2814.07 2.28011 -2.30611 0
M  V30 28891 H 2813.85 1.21751 -3.72719 0
M  V30 28892 H 2815.34 2.19245 -3.55417 0
M  V30 28893 N 2815.78 1.57153 -0.118604 0
M  V30 28894 C 2817.19 1.82213 0.406838 0
M  V30 28895 C 2817.54 1.03574 1.66634 0
M  V30 28896 O 2816.67 0.272209 2.14681 0
M  V30 28897 C 2817.26 3.3051 0.744891 0
M  V30 28898 C 2815.82 3.56252 1.21497 0
M  V30 28899 C 2814.97 2.76398 0.223462 0
M  V30 28900 H 2817.92 1.54933 -0.34374 0
M  V30 28901 H 2817.94 3.45117 1.60234 0
M  V30 28902 H 2817.45 3.87719 -0.171979 0
M  V30 28903 H 2815.55 3.044 2.14875 0
M  V30 28904 H 2815.67 4.64831 1.16057 0
M  V30 28905 H 2814.03 2.44592 0.710417 0
M  V30 28906 H 2814.81 3.36366 -0.686498 0
M  V30 28907 N 2817.26 -0.155167 1.56834 0
M  V30 28908 C 2818.48 -0.888305 1.87414 0
M  V30 28909 C 2818.91 -1.74318 0.706741 0
M  V30 28910 O 2818.27 -1.78009 -0.343861 0
M  V30 28911 C 2818.31 -1.72759 3.16523 0
M  V30 28912 O 2817.42 -2.83098 2.99882 0
M  V30 28913 H 2816.76 -0.247904 0.615987 0
M  V30 28914 H 2819.29 -0.148442 2.04061 0
M  V30 28915 H 2819.3 -2.12427 3.48337 0
M  V30 28916 H 2817.97 -1.09978 4.01096 0
M  V30 28917 H 2816.55 -2.46897 2.79457 0
M  V30 28918 N 2818.74 -1.51782 -0.424256 0
M  V30 28919 C 2819.68 -1.74631 -1.53645 0
M  V30 28920 C 2820.68 -0.61295 -1.57922 0
M  V30 28921 O 2821.88 -0.794646 -1.6151 0
M  V30 28922 H 2818.26 -0.55199 -0.510696 0
M  V30 28923 H 2820.23 -2.67836 -1.31553 0
M  V30 28924 C 2818.98 -1.90035 -2.91174 0
M  V30 28925 H 2818.3 -2.76656 -2.8862 0
M  V30 28926 H 2819.74 -2.10028 -3.68326 0
M  V30 28927 C 2818.2 -0.663493 -3.30302 0
M  V30 28928 O 2818.73 0.175742 -4.01315 0
M  V30 28929 N 2816.94 -0.503773 -2.862 0
M  V30 28930 H 2816.48 -1.1878 -2.28581 0
M  V30 28931 H 2816.44 0.32252 -3.12741 0
M  V30 28932 N 2820.21 0.68054 -1.42149 0
M  V30 28933 C 2821.14 1.80636 -1.47963 0
M  V30 28934 C 2822.13 1.66733 -0.336757 0
M  V30 28935 O 2823.31 1.86241 -0.550279 0
M  V30 28936 C 2820.44 3.1889 -1.37574 0
M  V30 28937 C 2819.39 3.47519 -2.49829 0
M  V30 28938 C 2818.72 4.85287 -2.245 0
M  V30 28939 C 2820.02 3.44987 -3.9215 0
M  V30 28940 H 2821.71 1.76028 -2.42187 0
M  V30 28941 H 2819.26 0.845461 -1.16567 0
M  V30 28942 H 2821.21 3.97376 -1.4025 0
M  V30 28943 H 2819.94 3.24161 -0.398413 0
M  V30 28944 H 2818.6 2.71391 -2.4646 0
M  V30 28945 H 2818.24 4.87202 -1.25074 0
M  V30 28946 H 2817.94 5.05406 -2.99731 0
M  V30 28947 H 2819.47 5.66065 -2.28916 0
M  V30 28948 H 2820.88 4.13452 -3.97153 0
M  V30 28949 H 2819.28 3.7664 -4.67186 0
M  V30 28950 H 2820.35 2.43669 -4.1923 0
M  V30 28951 N 2821.69 1.28226 0.916285 0
M  V30 28952 C 2823.11 1.05878 1.19424 0
M  V30 28953 C 2823.31 -0.200464 2.005 0
M  V30 28954 O 2822.36 -0.902832 2.35808 0
M  V30 28955 C 2823.68 2.30482 1.93129 0
M  V30 28956 C 2825.23 2.35635 2.06022 0
M  V30 28957 C 2825.7 3.59999 2.83134 0
M  V30 28958 N 2827.19 3.60624 2.90697 0
M  V30 28959 C 2827.93 4.53527 3.50857 0
M  V30 28960 N 2827.42 5.56746 4.12317 0
M  V30 28961 N 2829.22 4.41128 3.48372 0
M  V30 28962 H 2821.37 2.09065 0.374923 0
M  V30 28963 H 2823.63 0.920046 0.228515 0
M  V30 28964 H 2823.34 3.22207 1.4098 0
M  V30 28965 H 2823.21 2.36696 2.93692 0
M  V30 28966 H 2825.6 1.44408 2.57352 0
M  V30 28967 H 2825.68 2.33417 1.04643 0
M  V30 28968 H 2825.32 4.51568 2.32484 0
M  V30 28969 H 2825.25 3.5947 3.84823 0
M  V30 28970 H 2827.74 2.85981 2.47029 0
M  V30 28971 H 2828.06 6.23784 4.56194 0
M  V30 28972 H 2826.4 5.60575 4.10829 0
M  V30 28973 H 2829.59 3.59692 2.99566 0
M  V30 28974 H 2829.76 5.13718 3.94965 0
M  V30 28975 N 2823.17 -1.12438 1.10433 0
M  V30 28976 C 2824.42 -1.83947 0.84675 0
M  V30 28977 C 2824.75 -1.84094 -0.627677 0
M  V30 28978 O 2824 -1.28186 -1.47874 0
M  V30 28979 C 2824.3 -3.31318 1.34028 0
M  V30 28980 C 2823.97 -3.51342 2.82612 0
M  V30 28981 C 2822.63 -3.56515 3.23188 0
M  V30 28982 C 2824.98 -3.58457 3.78362 0
M  V30 28983 C 2822.31 -3.66348 4.58264 0
M  V30 28984 C 2824.66 -3.6982 5.13241 0
M  V30 28985 C 2823.32 -3.7325 5.5339 0
M  V30 28986 H 2822.59 -0.673109 0.309848 0
M  V30 28987 H 2825.24 -1.32675 1.38093 0
M  V30 28988 H 2823.55 -3.85013 0.726114 0
M  V30 28989 H 2825.24 -3.85116 1.11745 0
M  V30 28990 H 2821.83 -3.47978 2.50218 0
M  V30 28991 H 2826.02 -3.53731 3.48121 0
M  V30 28992 H 2821.27 -3.67275 4.88793 0
M  V30 28993 H 2825.45 -3.74269 5.87278 0
M  V30 28994 H 2823.07 -3.80621 6.58051 0
M  V30 28995 N 2824.65 -0.893076 -1.29853 0
M  V30 28996 C 2825.58 -0.382289 -2.30349 0
M  V30 28997 C 2826.56 0.539174 -1.61329 0
M  V30 28998 O 2827.75 0.451309 -1.88883 0
M  V30 28999 C 2824.88 0.396922 -3.45024 0
M  V30 29000 C 2823.83 -0.433512 -4.25799 0
M  V30 29001 C 2823.16 0.472796 -5.32606 0
M  V30 29002 C 2824.46 -1.67993 -4.94546 0
M  V30 29003 H 2826.15 -1.2221 -2.73322 0
M  V30 29004 H 2823.7 -0.589096 -1.31399 0
M  V30 29005 H 2825.65 0.764951 -4.14399 0
M  V30 29006 H 2824.37 1.27045 -3.00877 0
M  V30 29007 H 2823.03 -0.783786 -3.58123 0
M  V30 29008 H 2822.68 1.34427 -4.84704 0
M  V30 29009 H 2822.38 -0.0790991 -5.87547 0
M  V30 29010 H 2823.9 0.837163 -6.04834 0
M  V30 29011 H 2825.32 -1.38202 -5.56393 0
M  V30 29012 H 2823.71 -2.17264 -5.59389 0
M  V30 29013 H 2824.78 -2.41972 -4.20211 0
M  V30 29014 N 2826.13 1.4335 -0.654865 0
M  V30 29015 C 2827.09 2.29185 0.0263159 0
M  V30 29016 C 2828.09 1.42295 0.748926 0
M  V30 29017 O 2829.28 1.63907 0.589929 0
M  V30 29018 C 2826.41 3.24391 1.048 0
M  V30 29019 H 2827.61 2.90906 -0.728934 0
M  V30 29020 H 2825.16 1.50657 -0.416175 0
M  V30 29021 H 2825.89 2.67568 1.83243 0
M  V30 29022 H 2825.68 3.88454 0.533486 0
M  V30 29023 H 2827.17 3.88812 1.52365 0
M  V30 29024 N 2827.61 0.39689 1.52521 0
M  V30 29025 C 2828.83 -0.182714 2.06092 0
M  V30 29026 C 2829.25 -1.39884 1.26799 0
M  V30 29027 O 2828.61 -1.79733 0.316616 0
M  V30 29028 C 2828.66 -0.545314 3.57363 0
M  V30 29029 O 2828.38 0.622505 4.33655 0
M  V30 29030 C 2829.88 -1.17997 4.27307 0
M  V30 29031 H 2827.1 -0.0257772 0.670505 0
M  V30 29032 H 2829.64 0.564311 1.9656 0
M  V30 29033 H 2827.8 -1.24223 3.66943 0
M  V30 29034 H 2828.21 0.322754 5.23506 0
M  V30 29035 H 2829.69 -1.38398 5.34369 0
M  V30 29036 H 2830.16 -2.14954 3.83003 0
M  V30 29037 H 2830.77 -0.523597 4.22065 0
M  V30 29038 N 2829.08 -1.57088 0.126936 0
M  V30 29039 C 2830.31 -1.9982 -0.536635 0
M  V30 29040 C 2830.73 -1.00676 -1.59718 0
M  V30 29041 O 2830.08 -0.000779444 -1.825 0
M  V30 29042 C 2830.13 -3.42533 -1.15557 0
M  V30 29043 O 2829.86 -4.37884 -0.137406 0
M  V30 29044 C 2831.36 -4.00438 -1.90169 0
M  V30 29045 H 2828.58 -0.655926 -0.141431 0
M  V30 29046 H 2831.12 -2.0336 0.215613 0
M  V30 29047 H 2829.28 -3.39907 -1.85855 0
M  V30 29048 H 2829.69 -5.21192 -0.588137 0
M  V30 29049 H 2831.16 -5.02353 -2.28792 0
M  V30 29050 H 2831.64 -3.40022 -2.77996 0
M  V30 29051 H 2832.25 -4.06634 -1.24615 0
M  V30 29052 N 2830.56 0.146848 -1.56914 0
M  V30 29053 C 2831.97 0.706897 -1.728 0
M  V30 29054 C 2832.32 1.81654 -0.741361 0
M  V30 29055 O 2831.45 2.16204 0.0919782 0
M  V30 29056 C 2832.04 1.28906 -3.13319 0
M  V30 29057 C 2830.6 1.79568 -3.30806 0
M  V30 29058 C 2829.75 0.684205 -2.68726 0
M  V30 29059 H 2832.7 -0.078821 -1.58504 0
M  V30 29060 H 2832.72 2.15886 -3.13327 0
M  V30 29061 H 2832.23 0.481217 -3.85105 0
M  V30 29062 H 2830.33 2.62918 -2.64017 0
M  V30 29063 H 2830.45 1.92428 -4.38757 0
M  V30 29064 H 2828.81 1.11087 -2.29198 0
M  V30 29065 H 2829.59 -0.112195 -3.43117 0
M  V30 29066 N 2832.04 1.52005 0.4162 0
M  V30 29067 C 2832.99 1.75443 1.52717 0
M  V30 29068 C 2833.98 0.621316 1.57594 0
M  V30 29069 O 2835.19 0.8032 1.61086 0
M  V30 29070 H 2831.56 0.554691 0.507762 0
M  V30 29071 H 2833.53 2.6853 1.30131 0
M  V30 29072 C 2832.28 1.91576 2.90162 0
M  V30 29073 H 2831.61 2.78183 2.87149 0
M  V30 29074 H 2833.05 2.11978 3.67207 0
M  V30 29075 C 2831.5 0.681 3.29945 0
M  V30 29076 O 2832.03 -0.154457 4.01403 0
M  V30 29077 N 2830.24 0.518944 2.85929 0
M  V30 29078 H 2829.79 1.1999 2.27948 0
M  V30 29079 H 2829.75 -0.30593 3.12908 0
M  V30 29080 N 2833.52 -0.672992 1.42508 0
M  V30 29081 C 2834.74 -1.46625 1.46683 0
M  V30 29082 C 2835.17 -1.87929 0.080099 0
M  V30 29083 O 2834.53 -1.56114 -0.921851 0
M  V30 29084 C 2834.57 -2.69047 2.40096 0
M  V30 29085 O 2833.68 -3.67384 1.87357 0
M  V30 29086 H 2833.02 -0.440421 0.496915 0
M  V30 29087 H 2835.55 -0.825302 1.87216 0
M  V30 29088 H 2835.56 -3.17097 2.56737 0
M  V30 29089 H 2834.23 -2.38324 3.40844 0
M  V30 29090 H 2832.81 -3.26425 1.8028 0
M  V30 29091 N 2835 -1.2871 -0.909472 0
M  V30 29092 C 2835.93 -1.15545 -2.02908 0
M  V30 29093 C 2836.91 -0.0521316 -1.7002 0
M  V30 29094 O 2838.09 -0.229883 -1.92835 0
M  V30 29095 C 2835.22 -0.820994 -3.37457 0
M  V30 29096 C 2834.18 -1.87956 -3.84521 0
M  V30 29097 C 2833.5 -1.39864 -5.16084 0
M  V30 29098 C 2834.8 -3.28683 -4.05912 0
M  V30 29099 H 2836.5 -2.09207 -2.1418 0
M  V30 29100 H 2834.04 -1.00723 -1.02912 0
M  V30 29101 H 2835.99 -0.715644 -4.15279 0
M  V30 29102 H 2834.72 0.151317 -3.26249 0
M  V30 29103 H 2833.38 -1.97413 -3.08907 0
M  V30 29104 H 2833.03 -0.415268 -5.01283 0
M  V30 29105 H 2832.73 -2.1065 -5.48544 0
M  V30 29106 H 2834.25 -1.30659 -5.96457 0
M  V30 29107 H 2835.66 -3.22124 -4.74246 0
M  V30 29108 H 2834.06 -3.97342 -4.4971 0
M  V30 29109 H 2835.13 -3.72385 -3.10576 0
M  V30 29110 N 2836.47 1.1185 -1.11028 0
M  V30 29111 C 2837.4 2.19843 -0.786851 0
M  V30 29112 C 2838.38 1.68357 0.242905 0
M  V30 29113 O 2839.57 1.93903 0.107321 0
M  V30 29114 C 2836.7 3.46573 -0.224577 0
M  V30 29115 C 2835.65 4.11248 -1.18572 0
M  V30 29116 C 2834.98 5.32502 -0.484355 0
M  V30 29117 C 2836.28 4.56671 -2.53473 0
M  V30 29118 H 2837.97 2.47155 -1.68982 0
M  V30 29119 H 2835.52 1.18791 -0.813927 0
M  V30 29120 H 2837.47 4.21398 0.0138694 0
M  V30 29121 H 2836.2 3.18707 0.713666 0
M  V30 29122 H 2834.86 3.38412 -1.40972 0
M  V30 29123 H 2834.5 5.00905 0.458558 0
M  V30 29124 H 2834.2 5.76723 -1.12536 0
M  V30 29125 H 2835.73 6.10069 -0.2546 0
M  V30 29126 H 2837.14 5.22839 -2.35186 0
M  V30 29127 H 2835.54 5.11691 -3.13516 0
M  V30 29128 H 2836.61 3.70338 -3.13014 0
M  V30 29129 N 2837.95 0.89995 1.29378 0
M  V30 29130 C 2839.2 0.526776 1.95839 0
M  V30 29131 C 2839.53 -0.924621 1.70776 0
M  V30 29132 O 2838.81 -1.65555 1.02087 0
M  V30 29133 C 2839.09 0.820123 3.50637 0
M  V30 29134 C 2838.94 2.32324 3.85156 0
M  V30 29135 C 2840.26 0.306787 4.39029 0
M  V30 29136 H 2837.38 0.19286 0.711319 0
M  V30 29137 H 2840.02 1.12668 1.5299 0
M  V30 29138 H 2838.17 0.309559 3.87265 0
M  V30 29139 H 2839.84 2.90337 3.58472 0
M  V30 29140 H 2838.09 2.78387 3.32691 0
M  V30 29141 H 2838.76 2.47907 4.932 0
M  V30 29142 H 2841.23 0.74398 4.09395 0
M  V30 29143 H 2840.11 0.54124 5.46225 0
M  V30 29144 H 2840.37 -0.792512 4.34939 0
M  V30 29145 N 2839.43 -1.43001 0.662458 0
M  V30 29146 C 2840.66 -2.06564 0.186039 0
M  V30 29147 C 2841.08 -1.49381 -1.14311 0
M  V30 29148 O 2840.44 -0.607376 -1.70823 0
M  V30 29149 C 2840.49 -3.60406 0.118333 0
M  V30 29150 O 2839.59 -4.02081 -0.916788 0
M  V30 29151 H 2838.93 -0.656562 0.0991096 0
M  V30 29152 H 2841.46 -1.83349 0.90799 0
M  V30 29153 H 2841.47 -4.07953 -0.0619264 0
M  V30 29154 H 2840.15 -4.01401 1.08856 0
M  V30 29155 H 2838.72 -3.66106 -0.70857 0
M  V30 29156 N 2840.91 -0.404973 -1.52308 0
M  V30 29157 C 2842.15 0.164822 -2.02731 0
M  V30 29158 C 2842.51 1.43157 -1.28546 0
M  V30 29159 O 2841.8 1.87755 -0.381916 0
M  V30 29160 C 2842 0.470832 -3.54285 0
M  V30 29161 C 2841.83 -0.764703 -4.43151 0
M  V30 29162 C 2840.6 -1.28866 -4.88591 0
M  V30 29163 C 2842.79 -1.64161 -4.87397 0
M  V30 29164 N 2840.78 -2.48011 -5.61572 0
M  V30 29165 C 2842.15 -2.67934 -5.59116 0
M  V30 29166 C 2844.2 -1.65986 -4.69418 0
M  V30 29167 C 2842.9 -3.73438 -6.14766 0
M  V30 29168 C 2844.93 -2.70406 -5.25961 0
M  V30 29169 C 2844.29 -3.729 -5.97599 0
M  V30 29170 H 2840.39 0.0219887 -0.781691 0
M  V30 29171 H 2842.98 -0.558386 -1.86521 0
M  V30 29172 H 2841.15 1.16309 -3.70576 0
M  V30 29173 H 2842.88 1.02915 -3.91396 0
M  V30 29174 H 2839.63 -0.847314 -4.65959 0
M  V30 29175 H 2840.06 -3.0834 -6.02707 0
M  V30 29176 H 2844.7 -0.880863 -4.13522 0
M  V30 29177 H 2842.42 -4.52196 -6.69735 0
M  V30 29178 H 2846 -2.7272 -5.13921 0
M  V30 29179 H 2844.88 -4.52373 -6.40569 0
M  V30 29180 N 2842.39 1.57018 -0.135265 0
M  V30 29181 C 2843.32 2.13267 0.839637 0
M  V30 29182 C 2844.33 1.07926 1.21885 0
M  V30 29183 O 2845.52 1.35243 1.16497 0
M  V30 29184 C 2842.62 2.63079 2.13642 0
M  V30 29185 C 2841.79 3.92694 1.9264 0
M  V30 29186 C 2840.85 4.27937 3.06197 0
M  V30 29187 O 2839.88 4.9647 2.784 0
M  V30 29188 N 2841.08 3.86568 4.33065 0
M  V30 29189 H 2843.85 2.97542 0.358974 0
M  V30 29190 H 2841.41 1.61827 0.0486695 0
M  V30 29191 H 2843.4 2.83675 2.88636 0
M  V30 29192 H 2841.97 1.83593 2.53007 0
M  V30 29193 H 2841.19 3.80843 1.01747 0
M  V30 29194 H 2842.48 4.77416 1.75931 0
M  V30 29195 H 2841.87 3.31325 4.5852 0
M  V30 29196 H 2840.43 4.1224 5.04878 0
M  V30 29197 N 2843.86 -0.138524 1.5699 0
M  V30 29198 C 2845.28 -0.697724 1.73172 0
M  V30 29199 C 2845.63 -1.81259 0.750984 0
M  V30 29200 O 2844.75 -2.1625 -0.080511 0
M  V30 29201 C 2845.35 -1.27242 3.13998 0
M  V30 29202 C 2843.91 -1.77811 3.31753 0
M  V30 29203 C 2843.05 -0.669944 2.69086 0
M  V30 29204 H 2846 0.0872257 1.5846 0
M  V30 29205 H 2846.02 -2.14221 3.14467 0
M  V30 29206 H 2845.54 -0.460787 3.85355 0
M  V30 29207 H 2843.64 -2.61514 2.65407 0
M  V30 29208 H 2843.75 -1.90099 4.39772 0
M  V30 29209 H 2842.11 -1.0987 2.29784 0
M  V30 29210 H 2842.9 0.13039 3.43052 0
M  V30 29211 N 2845.34 -1.52224 -0.408133 0
M  V30 29212 C 2846.75 -1.58484 -0.986901 0
M  V30 29213 C 2847.1 -0.425951 -1.9152 0
M  V30 29214 O 2846.23 0.453556 -2.11594 0
M  V30 29215 C 2846.82 -2.87238 -1.79665 0
M  V30 29216 C 2845.38 -2.95974 -2.32543 0
M  V30 29217 C 2844.53 -2.5343 -1.12554 0
M  V30 29218 H 2847.48 -1.57579 -0.188334 0
M  V30 29219 H 2847.5 -2.72647 -2.65413 0
M  V30 29220 H 2847.01 -3.71565 -1.12076 0
M  V30 29221 H 2845.12 -2.16143 -3.03501 0
M  V30 29222 H 2845.23 -4.00236 -2.63341 0
M  V30 29223 H 2843.59 -2.07302 -1.4798 0
M  V30 29224 H 2844.38 -3.40132 -0.465291 0
M  V30 29225 N 2846.82 0.665425 -1.42863 0
M  V30 29226 C 2848.24 0.979665 -1.25995 0
M  V30 29227 C 2848.44 2.00774 -0.170867 0
M  V30 29228 O 2847.49 2.48371 0.454784 0
M  V30 29229 C 2848.81 1.47555 -2.62008 0
M  V30 29230 C 2850.35 1.59283 -2.6944 0
M  V30 29231 C 2850.83 2.12265 -4.05842 0
M  V30 29232 N 2852.32 2.19585 -4.07844 0
M  V30 29233 C 2853.05 2.61675 -5.10209 0
M  V30 29234 N 2852.55 3.0315 -6.22954 0
M  V30 29235 N 2854.34 2.61507 -4.97565 0
M  V30 29236 H 2846.49 -0.0150867 -2.12395 0
M  V30 29237 H 2848.76 0.0558021 -0.946356 0
M  V30 29238 H 2848.46 0.794594 -3.42606 0
M  V30 29239 H 2848.34 2.4527 -2.86571 0
M  V30 29240 H 2850.72 2.26483 -1.89182 0
M  V30 29241 H 2850.81 0.60033 -2.48656 0
M  V30 29242 H 2850.45 1.45672 -4.86562 0
M  V30 29243 H 2850.38 3.12324 -4.23983 0
M  V30 29244 H 2852.87 1.90355 -3.26456 0
M  V30 29245 H 2853.18 3.3398 -6.96905 0
M  V30 29246 H 2851.53 3.00984 -6.26445 0
M  V30 29247 H 2854.72 2.28474 -4.08555 0
M  V30 29248 H 2854.89 2.93988 -5.77473 0
M  V30 29249 N 2848.3 1.29191 0.902633 0
M  V30 29250 C 2849.26 1.14075 1.98795 0
M  V30 29251 C 2850.26 0.0770832 1.60615 0
M  V30 29252 O 2851.45 0.323783 1.71165 0
M  V30 29253 C 2848.58 0.743797 3.32687 0
M  V30 29254 H 2849.78 2.10477 2.13634 0
M  V30 29255 H 2847.33 1.12336 1.08676 0
M  V30 29256 H 2848.06 -0.220498 3.2355 0
M  V30 29257 H 2847.85 1.51229 3.61763 0
M  V30 29258 H 2849.34 0.661007 4.12335 0
M  V30 29259 N 2849.78 -1.1126 1.1162 0
M  V30 29260 C 2851.19 -1.35051 0.850492 0
M  V30 29261 C 2851.39 -1.94572 -0.523833 0
M  V30 29262 O 2850.45 -2.17988 -1.27427 0
M  V30 29263 C 2851.76 -2.28037 1.96009 0
M  V30 29264 C 2853.31 -2.41597 1.98998 0
M  V30 29265 C 2853.78 -3.37906 3.09166 0
M  V30 29266 N 2855.28 -3.4547 3.08553 0
M  V30 29267 C 2856.01 -4.19936 3.90437 0
M  V30 29268 N 2855.51 -4.97363 4.82288 0
M  V30 29269 N 2857.3 -4.15467 3.78607 0
M  V30 29270 H 2849.45 -0.709897 2.00185 0
M  V30 29271 H 2851.71 -0.375084 0.870641 0
M  V30 29272 H 2851.42 -1.91498 2.94994 0
M  V30 29273 H 2851.29 -3.28272 1.85788 0
M  V30 29274 H 2853.68 -2.7741 1.00638 0
M  V30 29275 H 2853.76 -1.41207 2.13294 0
M  V30 29276 H 2853.41 -3.0282 4.07753 0
M  V30 29277 H 2853.34 -4.38155 2.92109 0
M  V30 29278 H 2855.83 -2.90245 2.42005 0
M  V30 29279 H 2856.14 -5.51557 5.41299 0
M  V30 29280 H 2854.48 -4.96517 4.86309 0
M  V30 29281 H 2857.68 -3.54069 3.06191 0
M  V30 29282 H 2857.85 -4.73245 4.42655 0
M  V30 29283 N 2851.25 -0.906798 -1.28899 0
M  V30 29284 C 2852.5 -0.532296 -1.94549 0
M  V30 29285 C 2852.82 0.927323 -1.72221 0
M  V30 29286 O 2854.02 1.40967 -2.32036 0
M  V30 29287 C 2852.48 -0.901102 -3.48437 0
M  V30 29288 C 2852.09 -2.37997 -3.79554 0
M  V30 29289 C 2853.83 -0.596851 -4.20283 0
M  V30 29290 C 2851.74 -2.68927 -5.26718 0
M  V30 29291 H 2850.67 -0.195345 -0.728256 0
M  V30 29292 H 2853.32 -1.10477 -1.46517 0
M  V30 29293 H 2851.7 -0.257489 -3.95162 0
M  V30 29294 H 2852.87 -3.06973 -3.43663 0
M  V30 29295 H 2851.19 -2.65397 -3.20863 0
M  V30 29296 H 2853.79 -0.804693 -5.2861 0
M  V30 29297 H 2854.13 0.464999 -4.13695 0
M  V30 29298 H 2854.66 -1.19862 -3.79312 0
M  V30 29299 H 2851.4 -3.73938 -5.38378 0
M  V30 29300 H 2850.92 -2.04581 -5.63832 0
M  V30 29301 H 2852.6 -2.55565 -5.94387 0
M  V30 29302 N 2852.73 1.42648 -0.670032 0
M  V30 29303 C 2853.96 2.05945 -0.198576 0
M  V30 29304 C 2854.38 1.50315 1.1424 0
M  V30 29305 O 2853.73 0.641057 1.7087 0
M  V30 29306 C 2853.78 3.61302 -0.119724 0
M  V30 29307 O 2853.5 4.14868 -1.40771 0
M  V30 29308 C 2855.01 4.41704 0.375801 0
M  V30 29309 H 2852.23 0.663849 -0.0977011 0
M  V30 29310 H 2854.77 1.82867 -0.915424 0
M  V30 29311 H 2852.92 3.83508 0.547783 0
M  V30 29312 H 2853.34 5.08694 -1.27793 0
M  V30 29313 H 2854.81 5.50691 0.379891 0
M  V30 29314 H 2855.29 4.15944 1.41021 0
M  V30 29315 H 2855.9 4.24506 -0.259801 0
M  V30 29316 N 2854.21 0.413044 1.52091 0
M  V30 29317 C 2855.46 -0.161143 2.01457 0
M  V30 29318 C 2855.78 -1.45312 1.30036 0
M  V30 29319 O 2855.05 -1.91179 0.427468 0
M  V30 29320 H 2853.63 -0.0625395 0.744377 0
M  V30 29321 H 2856.29 0.550184 1.86973 0
M  V30 29322 H 2855.39 -0.354463 3.10081 0
M  V30 29323 N 2855.69 -1.56945 0.143591 0
M  V30 29324 C 2856.92 -2.00087 -0.514664 0
M  V30 29325 C 2857.33 -1.02263 -1.59182 0
M  V30 29326 O 2856.67 -0.0110837 -1.83697 0
M  V30 29327 C 2856.73 -3.39661 -1.17772 0
M  V30 29328 C 2856.4 -4.5634 -0.245577 0
M  V30 29329 C 2857.39 -5.17238 0.525434 0
M  V30 29330 C 2855.08 -5.02078 -0.149476 0
M  V30 29331 C 2857.07 -6.22281 1.38003 0
M  V30 29332 C 2854.76 -6.06976 0.708728 0
M  V30 29333 C 2855.76 -6.66947 1.47209 0
M  V30 29334 O 2855.45 -7.69816 2.316 0
M  V30 29335 H 2855.18 -0.661602 -0.138778 0
M  V30 29336 H 2857.73 -2.04061 0.234133 0
M  V30 29337 H 2855.96 -3.32515 -1.97409 0
M  V30 29338 H 2857.65 -3.66933 -1.73536 0
M  V30 29339 H 2858.42 -4.82802 0.461203 0
M  V30 29340 H 2854.3 -4.55129 -0.733377 0
M  V30 29341 H 2857.84 -6.69019 1.97633 0
M  V30 29342 H 2853.74 -6.4084 0.774263 0
M  V30 29343 H 2854.5 -7.87021 2.2481 0
M  V30 29344 N 2857.17 0.130197 -1.57061 0
M  V30 29345 C 2858.42 0.838456 -1.83447 0
M  V30 29346 C 2858.73 1.81568 -0.7275 0
M  V30 29347 O 2859.94 2.5693 -0.877439 0
M  V30 29348 C 2858.39 1.54176 -3.25204 0
M  V30 29349 C 2858 0.6061 -4.43881 0
M  V30 29350 C 2859.74 2.23581 -3.60848 0
M  V30 29351 C 2857.65 1.31199 -5.76663 0
M  V30 29352 H 2856.58 0.316859 -0.68419 0
M  V30 29353 H 2859.23 0.0911736 -1.83273 0
M  V30 29354 H 2857.61 2.33527 -3.19814 0
M  V30 29355 H 2858.79 -0.153389 -4.60545 0
M  V30 29356 H 2857.1 0.0195973 -4.16395 0
M  V30 29357 H 2859.7 2.77064 -4.57318 0
M  V30 29358 H 2860.04 3.00862 -2.87729 0
M  V30 29359 H 2860.58 1.51131 -3.67973 0
M  V30 29360 H 2857.31 0.580708 -6.52923 0
M  V30 29361 H 2856.83 2.04377 -5.63906 0
M  V30 29362 H 2858.51 1.84829 -6.20038 0
M  V30 29363 N 2858.65 1.52438 0.400055 0
M  V30 29364 C 2859.89 1.66168 1.14329 0
M  V30 29365 C 2860.21 0.402287 1.91418 0
M  V30 29366 O 2861.41 0.419534 2.68239 0
M  V30 29367 C 2859.87 2.93614 2.08132 0
M  V30 29368 C 2859.48 4.26693 1.36517 0
M  V30 29369 C 2861.22 3.16708 2.82659 0
M  V30 29370 C 2859.13 5.45255 2.29021 0
M  V30 29371 H 2858.06 0.619028 0.430489 0
M  V30 29372 H 2860.71 1.7893 0.406985 0
M  V30 29373 H 2859.09 2.74572 2.85353 0
M  V30 29374 H 2860.27 4.5625 0.645981 0
M  V30 29375 H 2858.58 4.09773 0.739948 0
M  V30 29376 H 2861.18 4.02466 3.5203 0
M  V30 29377 H 2861.52 2.31318 3.46118 0
M  V30 29378 H 2862.05 3.36265 2.12535 0
M  V30 29379 H 2858.79 6.3302 1.70194 0
M  V30 29380 H 2858.31 5.20025 2.98887 0
M  V30 29381 H 2859.99 5.78694 2.89349 0
M  V30 29382 N 2860.12 -0.657839 1.43214 0
M  V30 29383 C 2861.07 -1.77089 1.48014 0
M  V30 29384 C 2862.04 -1.62782 0.33032 0
M  V30 29385 O 2863.23 -1.83093 0.536819 0
M  V30 29386 C 2860.37 -3.15219 1.40467 0
M  V30 29387 C 2859.48 -3.40692 2.65618 0
M  V30 29388 C 2858.61 -4.68645 2.50091 0
M  V30 29389 C 2857.65 -4.87208 3.70533 0
M  V30 29390 N 2856.79 -6.06414 3.53846 0
M  V30 29391 H 2861.63 -1.72321 2.43124 0
M  V30 29392 H 2859.17 -0.840992 1.20689 0
M  V30 29393 H 2861.12 -3.95066 1.34086 0
M  V30 29394 H 2859.75 -3.19068 0.489415 0
M  V30 29395 H 2858.81 -2.54977 2.82296 0
M  V30 29396 H 2860.12 -3.50297 3.55097 0
M  V30 29397 H 2859.27 -5.5661 2.41393 0
M  V30 29398 H 2858.01 -4.61353 1.58129 0
M  V30 29399 H 2857.02 -3.9768 3.79646 0
M  V30 29400 H 2858.24 -4.96333 4.63498 0
M  V30 29401 H 2856.19 -6.00263 2.64614 0
M  V30 29402 H 2856.1 -6.16956 4.36923 0
M  V30 29403 H 2857.37 -6.97012 3.4899 0
M  V30 29404 N 2861.6 -1.29668 -0.895769 0
M  V30 29405 C 2862.83 -1.20589 -1.67755 0
M  V30 29406 C 2863.24 0.235399 -1.8773 0
M  V30 29407 O 2862.58 1.16895 -1.41708 0
M  V30 29408 C 2862.64 -1.8522 -3.08113 0
M  V30 29409 C 2862.31 -3.34526 -3.11354 0
M  V30 29410 C 2863.31 -4.30689 -2.91209 0
M  V30 29411 C 2860.99 -3.75792 -3.33295 0
M  V30 29412 C 2862.98 -5.66094 -2.92945 0
M  V30 29413 C 2860.67 -5.11317 -3.34661 0
M  V30 29414 C 2861.67 -6.06278 -3.14509 0
M  V30 29415 O 2861.36 -7.39329 -3.15671 0
M  V30 29416 H 2861.09 -0.418863 -0.530594 0
M  V30 29417 H 2863.64 -1.71636 -1.12828 0
M  V30 29418 H 2861.87 -1.28689 -3.64659 0
M  V30 29419 H 2863.56 -1.70409 -3.68396 0
M  V30 29420 H 2864.33 -4.00141 -2.74067 0
M  V30 29421 H 2860.21 -3.0233 -3.4802 0
M  V30 29422 H 2863.75 -6.4019 -2.77134 0
M  V30 29423 H 2859.65 -5.4151 -3.51336 0
M  V30 29424 H 2860.42 -7.48183 -3.3191 0
M  V30 29425 N 2863.08 1.10667 -1.12208 0
M  V30 29426 C 2863.99 2.20512 -0.800724 0
M  V30 29427 C 2865.01 1.72734 0.209482 0
M  V30 29428 O 2866.18 2.01353 0.0436696 0
M  V30 29429 C 2863.25 3.45743 -0.257414 0
M  V30 29430 C 2862.31 4.08268 -1.32725 0
M  V30 29431 C 2861.54 5.27521 -0.809767 0
M  V30 29432 O 2861.76 5.6928 0.35732 0
M  V30 29433 O 2860.7 5.80839 -1.57826 0
M  V30 29434 H 2864.52 2.50429 -1.71811 0
M  V30 29435 H 2862.11 1.19357 -0.898567 0
M  V30 29436 H 2863.99 4.2138 0.0408108 0
M  V30 29437 H 2862.67 3.17459 0.632572 0
M  V30 29438 H 2861.57 3.34326 -1.6786 0
M  V30 29439 H 2862.91 4.40749 -2.19091 0
M  V30 29440 N 2864.56 0.913621 1.28416 0
M  V30 29441 C 2865.5 0.400413 2.273 0
M  V30 29442 C 2866.47 -0.525062 1.57583 0
M  V30 29443 O 2867.66 -0.447285 1.85483 0
M  V30 29444 C 2864.8 -0.353549 3.43284 0
M  V30 29445 C 2863.91 0.604416 4.27751 0
M  V30 29446 C 2863.05 -0.167982 5.30934 0
M  V30 29447 C 2862.09 0.783606 6.07063 0
M  V30 29448 N 2861.22 0.0447346 7.02086 0
M  V30 29449 H 2866.06 1.2487 2.70576 0
M  V30 29450 H 2863.6 0.627051 1.33066 0
M  V30 29451 H 2865.56 -0.806873 4.09323 0
M  V30 29452 H 2864.19 -1.16618 3.00999 0
M  V30 29453 H 2863.24 1.17627 3.61757 0
M  V30 29454 H 2864.55 1.33224 4.80679 0
M  V30 29455 H 2863.71 -0.681873 6.02856 0
M  V30 29456 H 2862.45 -0.928862 4.78773 0
M  V30 29457 H 2861.45 1.30887 5.33993 0
M  V30 29458 H 2862.68 1.54404 6.61314 0
M  V30 29459 H 2860.62 -0.698158 6.52274 0
M  V30 29460 H 2860.54 0.712391 7.52636 0
M  V30 29461 H 2861.81 -0.448965 7.78206 0
M  V30 29462 N 2866.04 -1.4229 0.677588 0
M  V30 29463 C 2867.45 -1.84619 0.277945 0
M  V30 29464 C 2867.8 -1.56716 -1.18045 0
M  V30 29465 O 2866.92 -1.0284 -1.90402 0
M  V30 29466 C 2867.52 -3.35125 0.497678 0
M  V30 29467 C 2866.08 -3.76092 0.152129 0
M  V30 29468 C 2865.22 -2.65845 0.788767 0
M  V30 29469 H 2868.17 -1.32097 0.87955 0
M  V30 29470 H 2868.2 -3.79682 -0.249323 0
M  V30 29471 H 2867.71 -3.55402 1.55919 0
M  V30 29472 H 2865.81 -3.61421 -0.905833 0
M  V30 29473 H 2865.92 -4.75396 0.594597 0
M  V30 29474 H 2864.29 -2.53749 0.219858 0
M  V30 29475 H 2865.07 -2.88945 1.85379 0
M  V30 29476 N 2867.51 -0.421104 -1.5187 0
M  V30 29477 C 2868.76 0.150457 -2.01539 0
M  V30 29478 C 2869.08 1.4462 -1.30805 0
M  V30 29479 O 2868.35 1.9095 -0.437601 0
M  V30 29480 H 2866.93 0.058591 -0.744699 0
M  V30 29481 H 2869.59 -0.560092 -1.86679 0
M  V30 29482 H 2868.69 0.338013 -3.10264 0
M  V30 29483 N 2868.99 1.56866 -0.151912 0
M  V30 29484 C 2870.22 2.01082 0.508009 0
M  V30 29485 C 2870.64 1.03136 1.57304 0
M  V30 29486 O 2870 0.00786277 1.81298 0
M  V30 29487 C 2870.05 3.44016 1.081 0
M  V30 29488 O 2869.15 3.49088 2.19571 0
M  V30 29489 H 2868.49 0.652367 0.123745 0
M  V30 29490 H 2871.02 2.03066 -0.250091 0
M  V30 29491 H 2871.03 3.82919 1.40844 0
M  V30 29492 H 2869.71 4.14809 0.301095 0
M  V30 29493 H 2868.29 3.22031 1.88017 0
M  V30 29494 N 2870.47 -0.121866 1.57128 0
M  V30 29495 C 2871.88 -0.679317 1.73903 0
M  V30 29496 C 2872.23 -1.80452 0.770166 0
M  V30 29497 O 2871.36 -2.16323 -0.0575703 0
M  V30 29498 C 2871.95 -1.23905 3.1533 0
M  V30 29499 C 2870.51 -1.74282 3.33621 0
M  V30 29500 C 2869.66 -0.641366 2.69781 0
M  V30 29501 H 2872.61 0.104028 1.58359 0
M  V30 29502 H 2872.63 -2.10874 3.16722 0
M  V30 29503 H 2872.14 -0.419889 3.85822 0
M  V30 29504 H 2870.24 -2.58684 2.68166 0
M  V30 29505 H 2870.36 -1.85424 4.41763 0
M  V30 29506 H 2868.72 -1.07426 2.30937 0
M  V30 29507 H 2869.5 0.166767 3.42895 0
M  V30 29508 N 2871.95 -1.52648 -0.391965 0
M  V30 29509 C 2873.36 -1.59522 -0.970036 0
M  V30 29510 C 2873.71 -0.44624 -1.91058 0
M  V30 29511 O 2872.84 0.431088 -2.12063 0
M  V30 29512 C 2873.43 -2.89128 -1.76609 0
M  V30 29513 C 2871.99 -2.98424 -2.29391 0
M  V30 29514 C 2871.14 -2.5461 -1.09859 0
M  V30 29515 H 2874.09 -1.57769 -0.17161 0
M  V30 29516 H 2874.11 -2.75447 -2.62506 0
M  V30 29517 H 2873.62 -3.72733 -1.08129 0
M  V30 29518 H 2871.72 -2.1935 -3.01192 0
M  V30 29519 H 2871.83 -4.03006 -2.59081 0
M  V30 29520 H 2870.2 -2.0886 -1.45773 0
M  V30 29521 H 2870.98 -3.40607 -0.42919 0
M  V30 29522 N 2873.43 0.650235 -1.43561 0
M  V30 29523 C 2874.84 0.966246 -1.27027 0
M  V30 29524 C 2875.04 2.00582 -0.192152 0
M  V30 29525 O 2874.1 2.48839 0.428415 0
M  V30 29526 C 2875.41 1.44767 -2.63558 0
M  V30 29527 C 2876.96 1.56416 -2.71114 0
M  V30 29528 C 2877.43 2.07949 -4.0807 0
M  V30 29529 N 2878.93 2.15247 -4.1015 0
M  V30 29530 C 2879.66 2.56249 -5.12956 0
M  V30 29531 N 2879.16 2.96526 -6.26134 0
M  V30 29532 N 2880.95 2.56215 -5.0031 0
M  V30 29533 H 2873.1 -0.0376131 -2.12367 0
M  V30 29534 H 2875.36 0.0457616 -0.946895 0
M  V30 29535 H 2875.07 0.758211 -3.4343 0
M  V30 29536 H 2874.94 2.42216 -2.89156 0
M  V30 29537 H 2877.33 2.24463 -1.91573 0
M  V30 29538 H 2877.41 0.573923 -2.49278 0
M  V30 29539 H 2877.06 1.40503 -4.88079 0
M  V30 29540 H 2876.99 3.07809 -4.27272 0
M  V30 29541 H 2879.48 1.86882 -3.28456 0
M  V30 29542 H 2879.79 3.2657 -7.00408 0
M  V30 29543 H 2878.13 2.94323 -6.29602 0
M  V30 29544 H 2881.33 2.24128 -4.10956 0
M  V30 29545 H 2881.5 2.87847 -5.80558 0
M  V30 29546 N 2874.9 1.30141 0.88888 0
M  V30 29547 C 2875.81 1.18104 2.02703 0
M  V30 29548 C 2876.83 0.10184 1.73702 0
M  V30 29549 O 2878.01 0.316019 1.98905 0
M  V30 29550 C 2875.07 0.86971 3.35614 0
M  V30 29551 C 2874.13 2.03388 3.78063 0
M  V30 29552 C 2873.37 1.7373 5.04632 0
M  V30 29553 O 2873.59 0.663366 5.66529 0
M  V30 29554 O 2872.52 2.58855 5.43395 0
M  V30 29555 H 2876.35 2.13707 2.15784 0
M  V30 29556 H 2873.93 1.09697 1.01424 0
M  V30 29557 H 2875.82 0.711116 4.15357 0
M  V30 29558 H 2874.49 -0.0564433 3.23651 0
M  V30 29559 H 2873.4 2.24777 2.99042 0
M  V30 29560 H 2874.73 2.94162 3.94626 0
M  V30 29561 N 2876.38 -1.1007 1.12794 0
M  V30 29562 C 2877.63 -1.82379 0.886889 0
M  V30 29563 C 2877.96 -1.85156 -0.585728 0
M  V30 29564 O 2877.24 -1.31495 -1.43315 0
M  V30 29565 C 2877.52 -3.28859 1.46709 0
M  V30 29566 C 2877.37 -3.34393 3.00835 0
M  V30 29567 C 2878.69 -4.25351 1.12979 0
M  V30 29568 H 2875.81 -0.662142 0.323631 0
M  V30 29569 H 2878.45 -1.28979 1.39515 0
M  V30 29570 H 2876.6 -3.74464 1.03482 0
M  V30 29571 H 2878.27 -2.9724 3.52769 0
M  V30 29572 H 2876.52 -2.74177 3.36169 0
M  V30 29573 H 2877.19 -4.37554 3.36527 0
M  V30 29574 H 2879.66 -3.87999 1.5032 0
M  V30 29575 H 2878.54 -5.26196 1.56232 0
M  V30 29576 H 2878.8 -4.4208 0.0425229 0
M  V30 29577 N 2877.86 -0.920419 -1.2793 0
M  V30 29578 C 2879.11 -0.557866 -1.94976 0
M  V30 29579 C 2879.44 0.897335 -1.72225 0
M  V30 29580 O 2878.71 1.6391 -1.04708 0
M  V30 29581 C 2879 -0.875803 -3.49287 0
M  V30 29582 C 2878.85 -2.38422 -3.81412 0
M  V30 29583 C 2880.17 -0.376594 -4.38486 0
M  V30 29584 H 2877.29 -0.204152 -0.70816 0
M  V30 29585 H 2879.93 -1.15087 -1.51178 0
M  V30 29586 H 2878.08 -0.37113 -3.86723 0
M  V30 29587 H 2879.75 -2.96003 -3.53808 0
M  V30 29588 H 2878 -2.83644 -3.2822 0
M  V30 29589 H 2878.67 -2.55722 -4.89194 0
M  V30 29590 H 2881.14 -0.809017 -4.08159 0
M  V30 29591 H 2880.02 -0.628072 -5.45295 0
M  V30 29592 H 2880.28 0.723216 -4.36144 0
M  V30 29593 N 2879.34 1.41929 -0.685124 0
M  V30 29594 C 2880.75 1.84469 -0.287732 0
M  V30 29595 C 2881.1 1.5734 1.17212 0
M  V30 29596 O 2880.23 1.03848 1.89854 0
M  V30 29597 C 2880.82 3.34856 -0.515444 0
M  V30 29598 C 2879.38 3.76006 -0.172072 0
M  V30 29599 C 2878.53 2.65423 -0.802855 0
M  V30 29600 H 2881.48 1.31629 -0.886543 0
M  V30 29601 H 2881.5 3.79809 0.229184 0
M  V30 29602 H 2881.01 3.5457 -1.57802 0
M  V30 29603 H 2879.11 3.61897 0.886653 0
M  V30 29604 H 2879.22 4.75074 -0.6198 0
M  V30 29605 H 2877.59 2.53629 -0.233312 0
M  V30 29606 H 2878.37 2.87958 -1.86909 0
M  V30 29607 N 2880.82 0.429152 1.51644 0
M  V30 29608 C 2882.23 0.081022 1.59394 0
M  V30 29609 C 2882.43 -1.40879 1.44067 0
M  V30 29610 O 2881.49 -2.17784 1.27774 0
M  V30 29611 C 2882.8 0.593825 2.94778 0
M  V30 29612 C 2884.35 0.553548 3.08066 0
M  V30 29613 C 2884.82 1.04319 4.45961 0
M  V30 29614 N 2886.32 1.00084 4.52258 0
M  V30 29615 C 2887.05 1.35066 5.57265 0
M  V30 29616 N 2886.55 1.77293 6.6973 0
M  V30 29617 N 2888.34 1.26935 5.4758 0
M  V30 29618 H 2880.49 1.3986 1.59853 0
M  V30 29619 H 2882.75 0.575818 0.753085 0
M  V30 29620 H 2882.46 1.63588 3.11339 0
M  V30 29621 H 2882.33 0.0142865 3.77197 0
M  V30 29622 H 2884.72 -0.479505 2.91178 0
M  V30 29623 H 2884.8 1.16939 2.27506 0
M  V30 29624 H 2884.45 2.07467 4.63595 0
M  V30 29625 H 2884.38 0.403966 5.25048 0
M  V30 29626 H 2886.87 0.69063 3.71536 0
M  V30 29627 H 2887.18 2.02245 7.45866 0
M  V30 29628 H 2885.52 1.81214 6.7096 0
M  V30 29629 H 2888.72 0.93817 4.58602 0
M  V30 29630 H 2888.89 1.54527 6.29306 0
M  V30 29631 N 2882.29 -1.56783 0.160229 0
M  V30 29632 C 2883.71 -1.83228 -0.358384 0
M  V30 29633 C 2884.06 -1.07955 -1.6383 0
M  V30 29634 O 2883.18 -0.329032 -2.13884 0
M  V30 29635 C 2883.78 -3.32369 -0.657 0
M  V30 29636 C 2882.34 -3.59348 -1.12009 0
M  V30 29637 C 2881.48 -2.76893 -0.150102 0
M  V30 29638 H 2884.43 -1.53967 0.384696 0
M  V30 29639 H 2884.45 -3.49244 -1.51027 0
M  V30 29640 H 2883.97 -3.87126 0.274715 0
M  V30 29641 H 2882.07 -3.0999 -2.06729 0
M  V30 29642 H 2882.18 -4.67744 -1.03692 0
M  V30 29643 H 2880.54 -2.46389 -0.645318 0
M  V30 29644 H 2881.33 -3.34428 0.775438 0
M  V30 29645 N 2883.77 0.113531 -1.57191 0
M  V30 29646 C 2885.19 0.467226 -1.52608 0
M  V30 29647 C 2885.39 1.81554 -0.87409 0
M  V30 29648 O 2884.45 2.48298 -0.458747 0
M  V30 29649 C 2885.76 0.446684 -2.97364 0
M  V30 29650 C 2887.31 0.529849 -3.08483 0
M  V30 29651 C 2887.78 0.539641 -4.5481 0
M  V30 29652 N 2889.27 0.600924 -4.59285 0
M  V30 29653 C 2890.01 0.630038 -5.69928 0
M  V30 29654 N 2889.5 0.616467 -6.90052 0
M  V30 29655 N 2891.3 0.673459 -5.58051 0
M  V30 29656 H 2883.45 -0.769853 -1.97957 0
M  V30 29657 H 2885.71 -0.284588 -0.904275 0
M  V30 29658 H 2885.42 -0.476491 -3.48457 0
M  V30 29659 H 2885.29 1.27248 -3.55088 0
M  V30 29660 H 2887.68 1.44344 -2.57388 0
M  V30 29661 H 2887.76 -0.32374 -2.53743 0
M  V30 29662 H 2887.4 -0.369932 -5.06551 0
M  V30 29663 H 2887.33 1.41019 -5.07367 0
M  V30 29664 H 2889.82 0.617354 -3.72823 0
M  V30 29665 H 2890.14 0.641457 -7.70133 0
M  V30 29666 H 2888.48 0.583805 -6.92544 0
M  V30 29667 H 2891.67 0.681463 -4.63113 0
M  V30 29668 H 2891.85 0.692681 -6.44287 0
M  V30 29669 N 2885.25 1.52854 0.383864 0
M  V30 29670 C 2886.66 1.60034 0.961562 0
M  V30 29671 C 2887.01 0.456366 1.90819 0
M  V30 29672 O 2886.14 -0.419836 2.12288 0
M  V30 29673 C 2886.73 2.9006 1.75073 0
M  V30 29674 C 2885.29 2.99636 2.27805 0
M  V30 29675 C 2884.44 2.55189 1.08507 0
M  V30 29676 H 2887.39 1.57858 0.163241 0
M  V30 29677 H 2887.41 2.76835 2.61041 0
M  V30 29678 H 2886.92 3.73301 1.0615 0
M  V30 29679 H 2885.02 2.20944 3.00024 0
M  V30 29680 H 2885.14 4.04374 2.5694 0
M  V30 29681 H 2883.5 2.0963 1.44663 0
M  V30 29682 H 2884.28 3.40829 0.41112 0
M  V30 29683 N 2886.73 -0.642612 1.43904 0
M  V30 29684 C 2887.98 -1.3996 1.45793 0
M  V30 29685 C 2888.3 -1.94804 0.0873486 0
M  V30 29686 O 2887.57 -1.75083 -0.878794 0
M  V30 29687 H 2886.15 -0.51947 0.536806 0
M  V30 29688 H 2888.81 -0.757158 1.79592 0
M  V30 29689 H 2887.91 -2.23666 2.17669 0
M  V30 29690 N 2888.21 -1.30611 -0.881966 0
M  V30 29691 C 2889.45 -1.19784 -1.63645 0
M  V30 29692 C 2889.79 0.246231 -1.92633 0
M  V30 29693 O 2889.06 1.17575 -1.5494 0
M  V30 29694 C 2889.34 -2.0299 -2.97434 0
M  V30 29695 C 2889.2 -3.55633 -2.754 0
M  V30 29696 C 2890.52 -1.87004 -3.98394 0
M  V30 29697 H 2887.64 -0.436498 -0.593833 0
M  V30 29698 H 2890.28 -1.60275 -1.02039 0
M  V30 29699 H 2888.43 -1.68587 -3.50015 0
M  V30 29700 H 2890.1 -4.00111 -2.29583 0
M  V30 29701 H 2888.34 -3.79665 -2.09849 0
M  V30 29702 H 2889.01 -4.09146 -3.70545 0
M  V30 29703 H 2891.49 -2.17088 -3.54982 0
M  V30 29704 H 2890.37 -2.47544 -4.89911 0
M  V30 29705 H 2890.63 -0.830019 -4.34239 0
M  V30 29706 N 2889.69 1.0947 -1.13376 0
M  V30 29707 C 2890.91 1.854 -0.918384 0
M  V30 29708 C 2891.33 1.81127 0.532778 0
M  V30 29709 O 2890.69 1.2071 1.36877 0
M  V30 29710 C 2890.74 3.33395 -1.39749 0
M  V30 29711 O 2890.46 3.37626 -2.79178 0
M  V30 29712 C 2891.96 4.26168 -1.22049 0
M  V30 29713 H 2889.18 0.585637 -0.327521 0
M  V30 29714 H 2891.72 1.38325 -1.5062 0
M  V30 29715 H 2889.88 3.779 -0.852686 0
M  V30 29716 H 2890.29 4.29929 -3.00435 0
M  V30 29717 H 2891.77 5.28167 -1.60447 0
M  V30 29718 H 2892.24 4.38901 -0.162124 0
M  V30 29719 H 2892.85 3.87478 -1.7533 0
M  V30 29720 N 2891.16 0.92719 1.2744 0
M  V30 29721 C 2892.07 0.431488 2.30598 0
M  V30 29722 C 2893.09 -0.48758 1.67029 0
M  V30 29723 O 2894.27 -0.370512 1.97963 0
M  V30 29724 C 2891.33 -0.308231 3.45327 0
M  V30 29725 C 2890.39 0.64569 4.24416 0
M  V30 29726 C 2889.62 -0.0588226 5.33668 0
M  V30 29727 O 2889.85 -1.27828 5.55892 0
M  V30 29728 O 2888.78 0.612743 5.98773 0
M  V30 29729 H 2892.61 1.28802 2.75034 0
M  V30 29730 H 2890.19 0.692518 1.3238 0
M  V30 29731 H 2892.07 -0.725482 4.15108 0
M  V30 29732 H 2890.75 -1.14038 3.02947 0
M  V30 29733 H 2889.66 1.11261 3.57172 0
M  V30 29734 H 2890.99 1.44504 4.7051 0
M  V30 29735 N 2892.64 -1.41564 0.692641 0
M  V30 29736 C 2893.6 -2.29174 0.0344577 0
M  V30 29737 C 2894.6 -1.4423 -0.710936 0
M  V30 29738 O 2895.79 -1.65413 -0.546264 0
M  V30 29739 C 2892.93 -3.27056 -0.961624 0
M  V30 29740 H 2894.12 -2.88872 0.805806 0
M  V30 29741 H 2891.67 -1.49501 0.455973 0
M  V30 29742 H 2892.41 -2.72332 -1.76084 0
M  V30 29743 H 2892.19 -3.89732 -0.430306 0
M  V30 29744 H 2893.68 -3.92715 -1.42003 0
M  V30 29745 N 2894.12 -0.437188 -1.51415 0
M  V30 29746 C 2895.35 0.128008 -2.06504 0
M  V30 29747 C 2895.76 1.36473 -1.30463 0
M  V30 29748 O 2895.12 1.7883 -0.364158 0
M  V30 29749 C 2895.17 0.450374 -3.58684 0
M  V30 29750 O 2894.89 -0.737262 -4.31852 0
M  V30 29751 C 2896.39 1.06626 -4.30286 0
M  V30 29752 H 2893.61 0.0079909 -0.670952 0
M  V30 29753 H 2896.16 -0.616227 -1.94995 0
M  V30 29754 H 2894.31 1.14451 -3.70108 0
M  V30 29755 H 2894.73 -0.461439 -5.22466 0
M  V30 29756 H 2896.2 1.24182 -5.3785 0
M  V30 29757 H 2896.68 2.04723 -3.88568 0
M  V30 29758 H 2897.28 0.41151 -4.23304 0
M  V30 29759 N 2895.6 1.56696 -0.168541 0
M  V30 29760 C 2896.85 1.95974 0.477198 0
M  V30 29761 C 2897.16 1.05707 1.64576 0
M  V30 29762 O 2898.37 1.34654 2.35755 0
M  V30 29763 C 2896.82 3.48456 0.900352 0
M  V30 29764 C 2896.43 4.47343 -0.242461 0
M  V30 29765 C 2898.17 3.96558 1.51467 0
M  V30 29766 C 2896.08 5.91061 0.200168 0
M  V30 29767 H 2895.01 0.731693 0.182048 0
M  V30 29768 H 2897.66 1.81701 -0.256329 0
M  V30 29769 H 2896.04 3.58138 1.68978 0
M  V30 29770 H 2897.22 4.49375 -1.01975 0
M  V30 29771 H 2895.53 4.09283 -0.766555 0
M  V30 29772 H 2898.13 5.01387 1.85783 0
M  V30 29773 H 2898.47 3.39336 2.41157 0
M  V30 29774 H 2899.01 3.89882 0.789733 0
M  V30 29775 H 2895.74 6.5215 -0.661889 0
M  V30 29776 H 2895.26 5.92343 0.942875 0
M  V30 29777 H 2896.94 6.43777 0.644975 0
M  V30 29778 N 2897.08 -0.105193 1.57249 0
M  V30 29779 C 2898.3 -0.824337 1.89769 0
M  V30 29780 C 2898.72 -1.72774 0.761222 0
M  V30 29781 O 2898.08 -1.80532 -0.26731 0
M  V30 29782 C 2898.13 -1.64619 3.21843 0
M  V30 29783 O 2897.85 -0.779141 4.31116 0
M  V30 29784 C 2899.35 -2.46928 3.68159 0
M  V30 29785 H 2896.57 -0.236248 0.628035 0
M  V30 29786 H 2899.11 -0.0854491 2.04321 0
M  V30 29787 H 2897.27 -2.33769 3.08919 0
M  V30 29788 H 2897.68 -1.34736 5.06899 0
M  V30 29789 H 2899.16 -3.00103 4.63295 0
M  V30 29790 H 2899.63 -3.24927 2.95498 0
M  V30 29791 H 2900.24 -1.82996 3.83918 0
M  V30 29792 N 2898.55 -1.53055 -0.375752 0
M  V30 29793 C 2899.8 -1.68411 -1.11724 0
M  V30 29794 C 2900.12 -0.433263 -1.90126 0
M  V30 29795 O 2899.39 0.552562 -1.87946 0
M  V30 29796 H 2897.97 -0.620821 -0.41544 0
M  V30 29797 H 2900.64 -1.90213 -0.424835 0
M  V30 29798 H 2899.73 -2.54059 -1.81275 0
M  V30 29799 N 2900.03 0.634971 -1.44242 0
M  V30 29800 C 2900.96 1.75837 -1.53635 0
M  V30 29801 C 2901.94 1.65577 -0.389632 0
M  V30 29802 O 2903.13 1.84396 -0.609252 0
M  V30 29803 C 2900.26 3.14351 -1.4765 0
M  V30 29804 C 2899.21 3.39395 -2.60758 0
M  V30 29805 C 2898.54 4.77899 -2.39825 0
M  V30 29806 C 2899.84 3.32336 -4.02927 0
M  V30 29807 H 2901.53 1.68234 -2.47665 0
M  V30 29808 H 2899.08 0.807948 -1.19198 0
M  V30 29809 H 2901.03 3.92713 -1.52822 0
M  V30 29810 H 2899.76 3.22729 -0.501341 0
M  V30 29811 H 2898.41 2.63412 -2.54969 0
M  V30 29812 H 2898.06 4.82976 -1.40511 0
M  V30 29813 H 2897.76 4.95615 -3.15658 0
M  V30 29814 H 2899.29 5.58496 -2.46809 0
M  V30 29815 H 2900.7 4.00608 -4.10105 0
M  V30 29816 H 2899.1 3.61586 -4.78932 0
M  V30 29817 H 2900.17 2.30208 -4.2677 0
M  V30 29818 N 2901.51 1.31076 0.875027 0
M  V30 29819 C 2902.42 1.20248 2.01439 0
M  V30 29820 C 2903.44 0.120258 1.73584 0
M  V30 29821 O 2904.61 0.337098 1.98559 0
M  V30 29822 C 2901.68 0.905258 3.34673 0
M  V30 29823 C 2900.74 2.07386 3.75885 0
M  V30 29824 C 2899.97 1.79073 5.02761 0
M  V30 29825 O 2900.19 0.723417 5.65794 0
M  V30 29826 O 2899.13 2.64604 5.40619 0
M  V30 29827 H 2902.95 2.15984 2.13506 0
M  V30 29828 H 2900.54 1.10767 1.00255 0
M  V30 29829 H 2902.42 0.75513 4.14579 0
M  V30 29830 H 2901.1 -0.0221126 3.23692 0
M  V30 29831 H 2900 2.27937 2.96641 0
M  V30 29832 H 2901.34 2.9833 3.91484 0
M  V30 29833 N 2902.99 -1.08867 1.13955 0
M  V30 29834 C 2904.4 -1.62647 0.916677 0
M  V30 29835 C 2904.75 -1.88463 -0.545556 0
M  V30 29836 O 2903.88 -1.63859 -1.41348 0
M  V30 29837 C 2904.47 -2.95483 1.65757 0
M  V30 29838 C 2903.03 -3.46065 1.48041 0
M  V30 29839 C 2902.18 -2.2038 1.68309 0
M  V30 29840 H 2905.13 -0.921549 1.29202 0
M  V30 29841 H 2905.15 -3.63705 1.118 0
M  V30 29842 H 2904.66 -2.76662 2.72176 0
M  V30 29843 H 2902.76 -3.69999 0.439481 0
M  V30 29844 H 2902.87 -4.23125 2.24726 0
M  V30 29845 H 2901.24 -2.29319 1.10837 0
M  V30 29846 H 2902.02 -2.04072 2.76061 0
M  V30 29847 N 2904.47 -0.933936 -1.26946 0
M  V30 29848 C 2905.71 -0.576518 -1.93703 0
M  V30 29849 C 2906.04 0.886115 -1.73704 0
M  V30 29850 O 2905.31 1.62882 -1.08841 0
M  V30 29851 H 2903.89 -0.210226 -0.716808 0
M  V30 29852 H 2906.55 -1.18769 -1.54532 0
M  V30 29853 H 2905.64 -0.788108 -3.01986 0
M  V30 29854 N 2905.94 1.41194 -0.700139 0
M  V30 29855 C 2907.17 2.05477 -0.242215 0
M  V30 29856 C 2907.59 1.52704 1.11026 0
M  V30 29857 O 2906.94 0.677157 1.69472 0
M  V30 29858 C 2907 3.60966 -0.196334 0
M  V30 29859 O 2906.72 4.11788 -1.49539 0
M  V30 29860 C 2908.22 4.42402 0.282024 0
M  V30 29861 H 2905.44 0.661627 -0.11176 0
M  V30 29862 H 2907.98 1.80884 -0.954007 0
M  V30 29863 H 2906.14 3.84583 0.466312 0
M  V30 29864 H 2906.55 5.05868 -1.38554 0
M  V30 29865 H 2908.02 5.51373 0.262996 0
M  V30 29866 H 2908.5 4.18842 1.32166 0
M  V30 29867 H 2909.11 4.23859 -0.349787 0
M  V30 29868 N 2907.42 0.445212 1.51181 0
M  V30 29869 C 2908.33 -0.368215 2.31692 0
M  V30 29870 C 2909.35 -1.02033 1.40944 0
M  V30 29871 O 2910.52 -1.01398 1.74013 0
M  V30 29872 C 2907.59 -1.45035 3.14906 0
M  V30 29873 C 2906.65 -0.81754 4.21444 0
M  V30 29874 C 2905.88 -1.84811 5.0068 0
M  V30 29875 O 2906.11 -3.07136 4.80649 0
M  V30 29876 O 2905.04 -1.43427 5.84562 0
M  V30 29877 H 2908.87 0.289273 3.02319 0
M  V30 29878 H 2906.45 0.207581 1.47951 0
M  V30 29879 H 2908.33 -2.07776 3.66616 0
M  V30 29880 H 2907.01 -2.09178 2.47035 0
M  V30 29881 H 2905.92 -0.151865 3.73792 0
M  V30 29882 H 2907.25 -0.219478 4.9171 0
M  V30 29883 N 2908.9 -1.56605 0.176849 0
M  V30 29884 C 2910.13 -2.01134 -0.472107 0
M  V30 29885 C 2910.54 -1.05616 -1.56977 0
M  V30 29886 O 2909.88 -0.050046 -1.83632 0
M  V30 29887 C 2909.94 -3.42083 -1.10541 0
M  V30 29888 C 2909.61 -4.56758 -0.148726 0
M  V30 29889 C 2910.6 -5.16007 0.63503 0
M  V30 29890 C 2908.29 -5.02282 -0.0429443 0
M  V30 29891 C 2910.28 -6.19214 1.51171 0
M  V30 29892 C 2907.97 -6.05336 0.837317 0
M  V30 29893 C 2908.97 -6.63675 1.61323 0
M  V30 29894 O 2908.66 -7.6473 2.47877 0
M  V30 29895 H 2908.39 -0.664396 -0.124713 0
M  V30 29896 H 2910.94 -2.03519 0.277365 0
M  V30 29897 H 2909.17 -3.36628 -1.90312 0
M  V30 29898 H 2910.86 -3.70532 -1.65714 0
M  V30 29899 H 2911.63 -4.81715 0.563509 0
M  V30 29900 H 2907.51 -4.56582 -0.636672 0
M  V30 29901 H 2911.05 -6.64677 2.11779 0
M  V30 29902 H 2906.95 -6.39053 0.91002 0
M  V30 29903 H 2907.72 -7.82076 2.41453 0
M  V30 29904 N 2910.38 0.0968524 -1.57302 0
M  V30 29905 C 2911.61 0.814261 -1.90204 0
M  V30 29906 C 2912.02 1.72368 -0.770374 0
M  V30 29907 O 2911.38 1.80671 0.257732 0
M  V30 29908 C 2911.43 1.6291 -3.22711 0
M  V30 29909 O 2911.15 0.756267 -4.31523 0
M  V30 29910 C 2912.65 2.44972 -3.69464 0
M  V30 29911 H 2909.87 0.232914 -0.629279 0
M  V30 29912 H 2912.42 0.0746122 -2.04364 0
M  V30 29913 H 2910.57 2.32128 -3.10154 0
M  V30 29914 H 2910.98 1.32046 -5.07606 0
M  V30 29915 H 2912.46 2.97641 -4.6488 0
M  V30 29916 H 2912.94 3.23355 -2.97217 0
M  V30 29917 H 2913.54 1.80957 -3.84883 0
M  V30 29918 N 2911.86 1.53252 0.36763 0
M  V30 29919 C 2913.11 1.68556 1.10779 0
M  V30 29920 C 2913.42 0.442799 1.90522 0
M  V30 29921 O 2914.62 0.476337 2.67289 0
M  V30 29922 C 2913.08 2.97962 2.01857 0
M  V30 29923 C 2912.69 4.29493 1.27435 0
M  V30 29924 C 2914.43 3.22633 2.75877 0
M  V30 29925 C 2912.34 5.4999 2.17404 0
M  V30 29926 H 2911.27 0.62802 0.417261 0
M  V30 29927 H 2913.92 1.79753 0.36894 0
M  V30 29928 H 2912.3 2.80563 2.79465 0
M  V30 29929 H 2913.48 4.57517 0.549058 0
M  V30 29930 H 2911.79 4.1125 0.652863 0
M  V30 29931 H 2914.39 4.09843 3.43414 0
M  V30 29932 H 2914.73 2.38607 3.41134 0
M  V30 29933 H 2915.26 3.40697 2.05354 0
M  V30 29934 H 2912 6.36487 1.56729 0
M  V30 29935 H 2911.52 5.26248 2.87789 0
M  V30 29936 H 2913.2 5.84701 2.77009 0
M  V30 29937 N 2913.34 -0.627313 1.44577 0
M  V30 29938 C 2914.57 -1.41186 1.50831 0
M  V30 29939 C 2914.97 -1.88731 0.133116 0
M  V30 29940 O 2914.32 -1.61687 -0.871961 0
M  V30 29941 C 2914.38 -2.66347 2.41453 0
M  V30 29942 C 2914.04 -2.40572 3.88554 0
M  V30 29943 C 2915.04 -2.02162 4.78985 0
M  V30 29944 C 2912.72 -2.54094 4.33291 0
M  V30 29945 C 2914.72 -1.77607 6.12156 0
M  V30 29946 C 2912.41 -2.29153 5.66509 0
M  V30 29947 C 2913.4 -1.90969 6.55759 0
M  V30 29948 O 2913.09 -1.66307 7.86509 0
M  V30 29949 H 2912.82 -0.439295 0.513805 0
M  V30 29950 H 2915.38 -0.774026 1.90258 0
M  V30 29951 H 2913.61 -3.32781 1.96961 0
M  V30 29952 H 2915.3 -3.28357 2.38614 0
M  V30 29953 H 2916.06 -1.91269 4.45692 0
M  V30 29954 H 2911.94 -2.82785 3.64079 0
M  V30 29955 H 2915.49 -1.47727 6.81779 0
M  V30 29956 H 2911.38 -2.39657 5.99362 0
M  V30 29957 H 2912.15 -1.80522 7.98345 0
M  V30 29958 N 2914.81 -1.31539 -0.868063 0
M  V30 29959 C 2916.06 -1.21513 -1.62365 0
M  V30 29960 C 2916.39 0.225786 -1.92883 0
M  V30 29961 O 2915.67 1.15925 -1.56178 0
M  V30 29962 C 2915.95 -2.06134 -2.95264 0
M  V30 29963 C 2915.8 -3.58534 -2.71612 0
M  V30 29964 C 2917.12 -1.91219 -3.96388 0
M  V30 29965 H 2914.24 -0.442772 -0.58917 0
M  V30 29966 H 2916.88 -1.61348 -1.00333 0
M  V30 29967 H 2915.03 -1.7229 -3.48207 0
M  V30 29968 H 2916.71 -4.02524 -2.25327 0
M  V30 29969 H 2914.95 -3.8187 -2.05811 0
M  V30 29970 H 2915.62 -4.13053 -3.66185 0
M  V30 29971 H 2918.1 -2.2084 -3.5266 0
M  V30 29972 H 2916.97 -2.52726 -4.87258 0
M  V30 29973 H 2917.23 -0.876029 -4.33334 0
M  V30 29974 N 2916.29 1.08262 -1.1453 0
M  V30 29975 C 2917.54 1.80055 -0.909024 0
M  V30 29976 C 2917.85 1.87237 0.565826 0
M  V30 29977 O 2919.06 2.55459 0.919409 0
M  V30 29978 C 2917.52 3.23517 -1.57687 0
M  V30 29979 C 2917.12 3.24563 -3.08808 0
M  V30 29980 C 2918.87 3.99983 -1.42177 0
M  V30 29981 C 2916.77 4.62622 -3.68422 0
M  V30 29982 H 2915.7 0.674775 -0.336444 0
M  V30 29983 H 2918.36 1.21585 -1.37439 0
M  V30 29984 H 2916.74 3.82122 -1.03918 0
M  V30 29985 H 2917.91 2.75656 -3.69256 0
M  V30 29986 H 2916.23 2.61592 -3.23973 0
M  V30 29987 H 2918.82 5.02002 -1.84115 0
M  V30 29988 H 2919.17 4.1467 -0.368062 0
M  V30 29989 H 2919.7 3.4785 -1.9299 0
M  V30 29990 H 2916.44 4.53138 -4.73652 0
M  V30 29991 H 2915.96 5.11805 -3.12755 0
M  V30 29992 H 2917.64 5.31596 -3.68802 0
M  V30 29993 N 2917.77 0.940655 1.26449 0
M  V30 29994 C 2918.73 0.454417 2.2465 0
M  V30 29995 C 2919.73 -0.434195 1.54827 0
M  V30 29996 O 2920.92 -0.233447 1.72629 0
M  V30 29997 C 2918.05 -0.345133 3.39148 0
M  V30 29998 H 2919.25 1.32221 2.69179 0
M  V30 29999 H 2916.8 0.722571 1.38595 0
M  V30 30000 H 2917.54 -1.2312 3.0002 0
M  V30 30001 H 2917.32 0.292175 3.9101 0
M  V30 30002 H 2918.81 -0.675269 4.12104 0
M  V30 30003 N 2919.25 -1.40821 0.707617 0
M  V30 30004 C 2920.18 -2.33411 0.0645335 0
M  V30 30005 C 2921.16 -1.52467 -0.754179 0
M  V30 30006 O 2922.34 -1.80962 -0.704717 0
M  V30 30007 C 2919.47 -3.36386 -0.863806 0
M  V30 30008 C 2918.43 -4.27732 -0.151305 0
M  V30 30009 C 2917.75 -5.2118 -1.19482 0
M  V30 30010 C 2919.05 -5.12837 0.989697 0
M  V30 30011 H 2920.75 -2.87437 0.83788 0
M  V30 30012 H 2918.29 -1.38206 0.404371 0
M  V30 30013 H 2920.25 -4.00093 -1.32302 0
M  V30 30014 H 2918.97 -2.80737 -1.66896 0
M  V30 30015 H 2917.63 -3.65467 0.288001 0
M  V30 30016 H 2917.28 -4.6184 -1.99281 0
M  V30 30017 H 2916.98 -5.83135 -0.723021 0
M  V30 30018 H 2918.5 -5.87763 -1.6543 0
M  V30 30019 H 2919.92 -5.70043 0.610215 0
M  V30 30020 H 2918.31 -5.83795 1.38936 0
M  V30 30021 H 2919.38 -4.49288 1.82397 0
M  V30 30022 N 2920.73 -0.453223 -1.50943 0
M  V30 30023 C 2921.67 0.350157 -2.28128 0
M  V30 30024 C 2922.64 1.00297 -1.324 0
M  V30 30025 O 2923.83 1.01884 -1.61321 0
M  V30 30026 C 2920.97 1.43643 -3.13784 0
M  V30 30027 C 2920.08 0.80018 -4.24525 0
M  V30 30028 C 2919.22 1.86284 -4.97465 0
M  V30 30029 C 2918.25 1.20587 -6.00104 0
M  V30 30030 N 2917.39 2.21059 -6.66391 0
M  V30 30031 H 2922.23 -0.314392 -2.96337 0
M  V30 30032 H 2919.77 -0.166889 -1.4615 0
M  V30 30033 H 2921.73 2.0777 -3.61784 0
M  V30 30034 H 2920.36 2.07039 -2.47658 0
M  V30 30035 H 2919.41 0.0467982 -3.80371 0
M  V30 30036 H 2920.72 0.280689 -4.9801 0
M  V30 30037 H 2919.87 2.58035 -5.49093 0
M  V30 30038 H 2918.61 2.4161 -4.23646 0
M  V30 30039 H 2917.62 0.473903 -5.47754 0
M  V30 30040 H 2918.84 0.65974 -6.75888 0
M  V30 30041 H 2916.79 2.75435 -5.95375 0
M  V30 30042 H 2916.71 1.74046 -7.35693 0
M  V30 30043 H 2917.97 2.92245 -7.22643 0
M  V30 30044 N 2922.2 1.56509 -0.185151 0
M  V30 30045 C 2923.15 2.19955 0.756466 0
M  V30 30046 C 2924.15 1.16771 1.22723 0
M  V30 30047 O 2925.35 1.34939 1.19128 0
M  V30 30048 H 2921.73 0.704784 0.262267 0
M  V30 30049 H 2923.7 2.97745 0.197535 0
M  V30 30050 C 2922.45 2.86527 1.9697 0
M  V30 30051 H 2921.77 3.65662 1.61651 0
M  V30 30052 H 2923.21 3.34372 2.60713 0
M  V30 30053 C 2921.67 1.87032 2.80215 0
M  V30 30054 O 2922.2 1.36439 3.77819 0
M  V30 30055 N 2920.4 1.55481 2.45507 0
M  V30 30056 H 2919.95 1.96816 1.66196 0
M  V30 30057 H 2919.91 0.89165 3.01491 0
M  V30 30058 N 2923.68 -0.0885089 1.57351 0
M  V30 30059 C 2924.63 -1.12572 2.03544 0
M  V30 30060 C 2925.62 -1.4108 0.937693 0
M  V30 30061 O 2926.83 -1.40684 1.12286 0
M  V30 30062 H 2923.2 -0.380284 0.648759 0
M  V30 30063 H 2925.18 -0.709855 2.89834 0
M  V30 30064 C 2923.92 -2.43587 2.48114 0
M  V30 30065 H 2923.25 -2.22496 3.32168 0
M  V30 30066 H 2924.69 -3.14648 2.84205 0
M  V30 30067 C 2923.15 -3.08356 1.35713 0
M  V30 30068 O 2923.68 -3.95731 0.689922 0
M  V30 30069 N 2921.88 -2.68712 1.10646 0
M  V30 30070 H 2921.43 -1.97751 1.65083 0
M  V30 30071 H 2921.39 -3.12373 0.35641 0
M  V30 30072 N 2925.16 -1.53445 -0.359498 0
M  V30 30073 C 2926.09 -1.76604 -1.46095 0
M  V30 30074 C 2927.1 -0.646939 -1.49394 0
M  V30 30075 O 2928.29 -0.923334 -1.52764 0
M  V30 30076 C 2925.39 -1.8364 -2.84832 0
M  V30 30077 C 2924.57 -3.13364 -3.05159 0
M  V30 30078 C 2923.63 -3.11563 -4.24046 0
M  V30 30079 O 2922.65 -3.85342 -4.18928 0
M  V30 30080 N 2923.85 -2.32809 -5.31771 0
M  V30 30081 H 2926.62 -2.71646 -1.26605 0
M  V30 30082 H 2924.18 -1.52298 -0.549267 0
M  V30 30083 H 2926.17 -1.79906 -3.62513 0
M  V30 30084 H 2924.74 -0.958562 -2.97541 0
M  V30 30085 H 2923.96 -3.30351 -2.15085 0
M  V30 30086 H 2925.25 -3.99082 -3.15612 0
M  V30 30087 H 2924.65 -1.7239 -5.38793 0
M  V30 30088 H 2923.2 -2.34888 -6.08006 0
M  V30 30089 N 2926.64 0.619637 -1.44908 0
M  V30 30090 C 2927.58 1.73102 -1.52657 0
M  V30 30091 C 2928.55 1.61849 -0.373362 0
M  V30 30092 O 2929.74 1.81605 -0.585174 0
M  V30 30093 C 2926.88 3.11384 -1.48775 0
M  V30 30094 C 2925.99 3.3353 -2.74557 0
M  V30 30095 C 2925.13 4.61849 -2.62429 0
M  V30 30096 C 2924.17 4.77213 -3.83321 0
M  V30 30097 N 2923.3 5.96819 -3.69799 0
M  V30 30098 H 2928.14 1.65815 -2.47607 0
M  V30 30099 H 2925.68 0.808698 -1.22876 0
M  V30 30100 H 2927.64 3.91372 -1.44513 0
M  V30 30101 H 2926.27 3.17659 -0.573839 0
M  V30 30102 H 2925.32 2.47402 -2.88957 0
M  V30 30103 H 2926.63 3.40759 -3.64259 0
M  V30 30104 H 2925.79 5.50014 -2.56065 0
M  V30 30105 H 2924.53 4.56998 -1.70306 0
M  V30 30106 H 2923.53 3.87474 -3.90056 0
M  V30 30107 H 2924.76 4.8387 -4.76495 0
M  V30 30108 H 2922.7 5.93036 -2.80436 0
M  V30 30109 H 2922.62 6.05155 -4.53127 0
M  V30 30110 H 2923.89 6.87515 -3.67347 0
M  V30 30111 N 2928.12 1.31997 0.861075 0
M  V30 30112 C 2929.34 1.25313 1.65261 0
M  V30 30113 C 2929.77 -0.176975 1.87266 0
M  V30 30114 O 2929.12 -1.12617 1.42082 0
M  V30 30115 C 2929.17 2.01155 2.99281 0
M  V30 30116 O 2928.28 1.35497 3.89505 0
M  V30 30117 H 2927.62 0.432201 0.504082 0
M  V30 30118 H 2930.15 1.7421 1.07294 0
M  V30 30119 H 2930.16 2.11087 3.49151 0
M  V30 30120 H 2928.83 3.05153 2.82586 0
M  V30 30121 H 2927.41 1.34073 3.47964 0
M  V30 30122 N 2929.59 -1.07653 1.15103 0
M  V30 30123 C 2930.5 -2.18312 0.858908 0
M  V30 30124 C 2931.52 -1.73229 -0.163611 0
M  V30 30125 O 2932.7 -2.01398 0.00973081 0
M  V30 30126 C 2929.76 -3.44939 0.348991 0
M  V30 30127 C 2928.82 -4.04605 1.43503 0
M  V30 30128 C 2928.06 -5.25189 0.949345 0
M  V30 30129 O 2928.28 -5.70027 -0.20626 0
M  V30 30130 O 2927.21 -5.76451 1.73171 0
M  V30 30131 H 2931.04 -2.45785 1.78391 0
M  V30 30132 H 2928.62 -1.16933 0.929896 0
M  V30 30133 H 2930.51 -4.2134 0.070925 0
M  V30 30134 H 2929.18 -3.19025 -0.548181 0
M  V30 30135 H 2928.09 -3.29758 1.76665 0
M  V30 30136 H 2929.42 -4.34786 2.307 0
M  V30 30137 N 2931.07 -0.947348 -1.25949 0
M  V30 30138 C 2932.48 -0.639994 -1.75388 0
M  V30 30139 C 2932.83 0.844757 -1.77083 0
M  V30 30140 O 2931.96 1.66112 -1.38693 0
M  V30 30141 C 2932.55 -1.15501 -3.18504 0
M  V30 30142 C 2931.11 -0.897959 -3.65532 0
M  V30 30143 C 2930.26 -1.30232 -2.44816 0
M  V30 30144 H 2933.21 -1.12497 -1.11938 0
M  V30 30145 H 2933.23 -0.511694 -3.77044 0
M  V30 30146 H 2932.74 -2.23565 -3.17239 0
M  V30 30147 H 2930.85 0.168031 -3.72221 0
M  V30 30148 H 2930.96 -1.5293 -4.54037 0
M  V30 30149 H 2929.32 -0.720721 -2.4429 0
M  V30 30150 H 2930.11 -2.39202 -2.46246 0
M  V30 30151 N 2932.55 1.40444 -0.715075 0
M  V30 30152 C 2933.48 2.33373 -0.0769109 0
M  V30 30153 C 2934.46 1.52865 0.746082 0
M  V30 30154 O 2935.65 1.81334 0.69511 0
M  V30 30155 C 2932.78 3.3684 0.845955 0
M  V30 30156 C 2931.73 4.27807 0.128619 0
M  V30 30157 C 2931.06 5.21806 1.16716 0
M  V30 30158 C 2932.36 5.12305 -1.01688 0
M  V30 30159 H 2934.05 2.86988 -0.853112 0
M  V30 30160 H 2931.6 1.37989 -0.411694 0
M  V30 30161 H 2933.55 4.00789 1.30178 0
M  V30 30162 H 2932.27 2.81618 1.65405 0
M  V30 30163 H 2930.93 3.65309 -0.307378 0
M  V30 30164 H 2930.58 4.6289 1.96829 0
M  V30 30165 H 2930.28 5.8351 0.692085 0
M  V30 30166 H 2931.8 5.88632 1.6231 0
M  V30 30167 H 2933.22 5.69712 -0.640437 0
M  V30 30168 H 2931.62 5.8305 -1.4203 0
M  V30 30169 H 2932.69 4.48314 -1.84777 0
M  V30 30170 N 2934.03 0.461222 1.507 0
M  V30 30171 C 2935.28 -0.0987923 2.01458 0
M  V30 30172 C 2935.59 -1.4167 1.34866 0
M  V30 30173 O 2936.8 -2.06108 1.76725 0
M  V30 30174 C 2935.25 -0.226585 3.59186 0
M  V30 30175 C 2934.86 1.08231 4.3473 0
M  V30 30176 C 2936.6 -0.739087 4.18016 0
M  V30 30177 C 2934.51 0.91885 5.84218 0
M  V30 30178 H 2933.44 -0.0406958 0.752901 0
M  V30 30179 H 2936.09 0.59462 1.73599 0
M  V30 30180 H 2934.47 -0.983554 3.83591 0
M  V30 30181 H 2935.65 1.84946 4.22056 0
M  V30 30182 H 2933.96 1.52516 3.87463 0
M  V30 30183 H 2936.56 -0.878254 5.27438 0
M  V30 30184 H 2936.9 -1.72786 3.78749 0
M  V30 30185 H 2937.44 -0.039777 3.9778 0
M  V30 30186 H 2934.18 1.8807 6.27941 0
M  V30 30187 H 2933.7 0.191907 5.99493 0
M  V30 30188 H 2935.37 0.581518 6.44381 0
M  V30 30189 N 2935.51 -1.56408 0.193449 0
M  V30 30190 C 2936.75 -1.97143 -0.444874 0
M  V30 30191 C 2937.08 -1.08142 -1.62266 0
M  V30 30192 O 2936.35 -0.15236 -1.95307 0
M  V30 30193 H 2934.93 -0.728014 -0.167347 0
M  V30 30194 H 2937.59 -1.92881 0.279797 0
M  V30 30195 H 2936.68 -3.01933 -0.790106 0
M  V30 30196 N 2936.98 0.0801629 -1.57396 0
M  V30 30197 C 2938.4 0.434751 -1.53565 0
M  V30 30198 C 2938.6 1.79659 -0.912403 0
M  V30 30199 O 2937.66 2.47269 -0.511311 0
M  V30 30200 C 2938.97 0.383508 -2.98244 0
M  V30 30201 C 2940.52 0.464296 -3.09537 0
M  V30 30202 C 2940.99 0.443047 -4.55852 0
M  V30 30203 N 2942.48 0.503367 -4.60457 0
M  V30 30204 C 2943.22 0.509006 -5.71136 0
M  V30 30205 N 2942.71 0.469958 -6.91204 0
M  V30 30206 N 2944.51 0.554937 -5.59354 0
M  V30 30207 H 2936.66 -0.81167 -1.9628 0
M  V30 30208 H 2938.92 -0.303705 -0.898035 0
M  V30 30209 H 2938.63 -0.550297 -3.47368 0
M  V30 30210 H 2938.5 1.19688 -3.57708 0
M  V30 30211 H 2940.89 1.38852 -2.60392 0
M  V30 30212 H 2940.97 -0.37749 -2.52999 0
M  V30 30213 H 2940.61 -0.477296 -5.05652 0
M  V30 30214 H 2940.54 1.30225 -5.10244 0
M  V30 30215 H 2943.03 0.538134 -3.74049 0
M  V30 30216 H 2943.35 0.477956 -7.71321 0
M  V30 30217 H 2941.69 0.436775 -6.93626 0
M  V30 30218 H 2944.88 0.583077 -4.64454 0
M  V30 30219 H 2945.06 0.555862 -6.45611 0
M  V30 30220 N 2938.46 1.53634 0.351355 0
M  V30 30221 C 2939.41 1.81074 1.43112 0
M  V30 30222 C 2940.38 0.655939 1.526 0
M  V30 30223 O 2941.56 0.89958 1.68262 0
M  V30 30224 C 2938.7 2.01908 2.7987 0
M  V30 30225 C 2937.82 3.29623 2.79236 0
M  V30 30226 C 2936.95 3.40567 4.07661 0
M  V30 30227 C 2935.99 4.62261 4.01225 0
M  V30 30228 N 2935.13 4.7028 5.21326 0
M  V30 30229 H 2939.97 2.73203 1.19012 0
M  V30 30230 H 2937.51 1.35325 0.576667 0
M  V30 30231 H 2939.46 2.11975 3.59336 0
M  V30 30232 H 2938.09 1.13099 3.02338 0
M  V30 30233 H 2937.15 3.28436 1.91921 0
M  V30 30234 H 2938.46 4.19177 2.70356 0
M  V30 30235 H 2937.61 3.50024 4.95548 0
M  V30 30236 H 2936.35 2.49055 4.19313 0
M  V30 30237 H 2935.36 4.52889 3.11724 0
M  V30 30238 H 2936.58 5.55129 3.91164 0
M  V30 30239 H 2934.53 3.81675 5.33536 0
M  V30 30240 H 2934.44 5.53759 5.14672 0
M  V30 30241 H 2935.71 4.84038 6.11005 0
M  V30 30242 N 2939.94 -0.611943 1.45234 0
M  V30 30243 C 2940.89 -1.7229 1.53573 0
M  V30 30244 C 2941.86 -1.61649 0.38194 0
M  V30 30245 O 2943.04 -1.81292 0.594797 0
M  V30 30246 C 2940.18 -3.10591 1.50424 0
M  V30 30247 C 2939.3 -3.3207 2.76322 0
M  V30 30248 C 2938.43 -4.60451 2.64874 0
M  V30 30249 C 2937.47 -4.75173 3.85846 0
M  V30 30250 N 2936.61 -5.9485 3.72959 0
M  V30 30251 H 2941.45 -1.64499 2.48483 0
M  V30 30252 H 2938.98 -0.80217 1.23303 0
M  V30 30253 H 2940.94 -3.906 1.46587 0
M  V30 30254 H 2939.57 -3.1735 0.590677 0
M  V30 30255 H 2938.62 -2.45867 2.90265 0
M  V30 30256 H 2939.94 -3.38822 3.66061 0
M  V30 30257 H 2939.09 -5.48648 2.58978 0
M  V30 30258 H 2937.83 -4.56089 1.72727 0
M  V30 30259 H 2936.83 -3.854 3.92106 0
M  V30 30260 H 2938.06 -4.81336 4.79054 0
M  V30 30261 H 2936 -5.9154 2.83577 0
M  V30 30262 H 2935.92 -6.02743 4.5633 0
M  V30 30263 H 2937.19 -6.85557 3.70988 0
M  V30 30264 N 2941.42 -1.32452 -0.854063 0
M  V30 30265 C 2942.65 -1.26048 -1.64072 0
M  V30 30266 C 2943.06 0.171423 -1.8802 0
M  V30 30267 O 2942.42 1.1087 -1.44962 0
M  V30 30268 C 2942.47 -2.01748 -2.99966 0
M  V30 30269 O 2942.19 -3.39351 -2.77078 0
M  V30 30270 C 2943.69 -2.02375 -3.9441 0
M  V30 30271 H 2940.91 -0.434871 -0.511007 0
M  V30 30272 H 2943.46 -1.74585 -1.06491 0
M  V30 30273 H 2941.61 -1.56932 -3.54191 0
M  V30 30274 H 2942.02 -3.78104 -3.63507 0
M  V30 30275 H 2943.5 -2.59824 -4.87027 0
M  V30 30276 H 2943.98 -1.01016 -4.27425 0
M  V30 30277 H 2944.58 -2.47141 -3.46123 0
M  V30 30278 N 2942.9 1.07041 -1.15672 0
M  V30 30279 C 2944.17 1.76455 -0.843979 0
M  V30 30280 C 2944.55 2.00525 0.659771 0
M  V30 30281 O 2943.9 1.62626 1.60515 0
M  V30 30282 C 2944.11 3.07087 -1.65827 0
M  V30 30283 C 2945.46 3.81376 -1.86647 0
M  V30 30284 O 2946.48 3.16907 -1.6263 0
M  V30 30285 O 2945.34 4.97174 -2.26893 0
M  V30 30286 H 2942.44 0.76642 -0.310691 0
M  V30 30287 H 2944.98 1.13378 -1.26268 0
M  V30 30288 H 2943.76 2.85205 -2.67907 0
M  V30 30289 H 2943.38 3.77897 -1.23612 0
M  V30 30290 N 2944.38 0.954014 1.25445 0
M  V30 30291 C 2945.29 0.480304 2.29631 0
M  V30 30292 C 2946.3 -0.452041 1.68026 0
M  V30 30293 O 2947.48 -0.328437 1.98704 0
M  V30 30294 C 2944.54 -0.234913 3.45903 0
M  V30 30295 C 2943.6 0.735569 4.22951 0
M  V30 30296 C 2942.84 0.0543895 5.33672 0
M  V30 30297 O 2943.06 -1.16008 5.58479 0
M  V30 30298 O 2941.99 0.739614 5.97339 0
M  V30 30299 H 2945.82 1.34607 2.7224 0
M  V30 30300 H 2943.4 0.720442 1.30882 0
M  V30 30301 H 2945.29 -0.637268 4.16554 0
M  V30 30302 H 2943.96 -1.07586 3.05298 0
M  V30 30303 H 2942.87 1.18812 3.54732 0
M  V30 30304 H 2944.2 1.54452 4.67339 0
M  V30 30305 N 2945.85 -1.40063 0.722513 0
M  V30 30306 C 2946.78 -2.33329 0.0892862 0
M  V30 30307 C 2947.76 -1.53258 -0.737965 0
M  V30 30308 O 2948.95 -1.817 -0.685484 0
M  V30 30309 C 2946.08 -3.37283 -0.828079 0
M  V30 30310 C 2945.03 -4.27869 -0.10593 0
M  V30 30311 C 2944.36 -5.22417 -1.13948 0
M  V30 30312 C 2945.66 -5.11759 1.04404 0
M  V30 30313 H 2947.35 -2.86532 0.868319 0
M  V30 30314 H 2944.9 -1.37769 0.419006 0
M  V30 30315 H 2946.85 -4.01473 -1.28051 0
M  V30 30316 H 2945.58 -2.82492 -1.63909 0
M  V30 30317 H 2944.24 -3.65141 0.326747 0
M  V30 30318 H 2943.88 -4.63927 -1.94372 0
M  V30 30319 H 2943.58 -5.83869 -0.661131 0
M  V30 30320 H 2945.11 -5.89485 -1.59187 0
M  V30 30321 H 2946.52 -5.69364 0.670641 0
M  V30 30322 H 2944.92 -5.82289 1.4512 0
M  V30 30323 H 2945.99 -4.47328 1.87152 0
M  V30 30324 N 2947.33 -0.469207 -1.50453 0
M  V30 30325 C 2948.74 -0.0136362 -1.86695 0
M  V30 30326 C 2949.09 1.39053 -1.38415 0
M  V30 30327 O 2948.22 2.03049 -0.748329 0
M  V30 30328 C 2948.81 -0.0179694 -3.38795 0
M  V30 30329 C 2947.37 0.382125 -3.74455 0
M  V30 30330 C 2946.52 -0.404255 -2.74338 0
M  V30 30331 H 2949.47 -0.683572 -1.43224 0
M  V30 30332 H 2949.49 0.784614 -3.72323 0
M  V30 30333 H 2949 -1.04006 -3.73904 0
M  V30 30334 H 2947.1 1.40864 -3.44947 0
M  V30 30335 H 2947.22 0.0847778 -4.79025 0
M  V30 30336 H 2945.58 0.141785 -2.54305 0
M  V30 30337 H 2946.36 -1.42582 -3.1229 0
M  V30 30338 N 2948.81 1.56303 -0.201741 0
M  V30 30339 C 2949.74 2.16636 0.748428 0
M  V30 30340 C 2950.75 1.12998 1.17198 0
M  V30 30341 O 2951.94 1.40063 1.10656 0
M  V30 30342 C 2949.04 2.71903 2.02292 0
M  V30 30343 C 2948.22 4.00511 1.75811 0
M  V30 30344 C 2947.28 4.40538 2.87771 0
M  V30 30345 O 2946.3 5.07831 2.57092 0
M  V30 30346 N 2947.5 4.04588 4.1628 0
M  V30 30347 H 2950.27 2.98797 0.232453 0
M  V30 30348 H 2947.83 1.61888 -0.0200106 0
M  V30 30349 H 2949.82 2.95662 2.76344 0
M  V30 30350 H 2948.39 1.94159 2.44992 0
M  V30 30351 H 2947.61 3.84815 0.855028 0
M  V30 30352 H 2948.9 4.84448 1.55524 0
M  V30 30353 H 2948.3 3.50474 4.44055 0
M  V30 30354 H 2946.85 4.33283 4.86939 0
M  V30 30355 N 2950.29 -0.0718147 1.57436 0
M  V30 30356 C 2951.22 -1.08567 2.06726 0
M  V30 30357 C 2952.2 -1.40369 0.960756 0
M  V30 30358 O 2953.38 -1.49997 1.23348 0
M  V30 30359 C 2950.51 -2.39912 2.51117 0
M  V30 30360 C 2949.47 -2.22462 3.65643 0
M  V30 30361 C 2948.79 -3.59191 3.96089 0
M  V30 30362 C 2950.09 -1.64587 4.9569 0
M  V30 30363 H 2951.79 -0.675518 2.9168 0
M  V30 30364 H 2949.33 -0.323496 1.40319 0
M  V30 30365 H 2951.29 -3.1113 2.84211 0
M  V30 30366 H 2950.01 -2.82907 1.63191 0
M  V30 30367 H 2948.67 -1.53685 3.32831 0
M  V30 30368 H 2948.32 -3.99756 3.05294 0
M  V30 30369 H 2948.02 -3.48354 4.73205 0
M  V30 30370 H 2949.54 -4.31839 4.31679 0
M  V30 30371 H 2950.96 -2.25671 5.27015 0
M  V30 30372 H 2949.35 -1.64447 5.77128 0
M  V30 30373 H 2950.42 -0.607355 4.81081 0
M  V30 30374 N 2951.77 -1.53818 -0.343203 0
M  V30 30375 C 2953.01 -1.71334 -1.08501 0
M  V30 30376 C 2953.34 -0.475318 -1.88293 0
M  V30 30377 O 2952.62 0.527655 -1.87206 0
M  V30 30378 C 2952.9 -2.97705 -2.02592 0
M  V30 30379 C 2952.76 -4.31716 -1.26261 0
M  V30 30380 C 2954.07 -3.19749 -3.02405 0
M  V30 30381 H 2951.19 -0.623436 -0.393061 0
M  V30 30382 H 2953.84 -1.8649 -0.363546 0
M  V30 30383 H 2951.99 -2.84915 -2.64113 0
M  V30 30384 H 2953.66 -4.56357 -0.673514 0
M  V30 30385 H 2951.9 -4.3011 -0.56462 0
M  V30 30386 H 2952.57 -5.16317 -1.95244 0
M  V30 30387 H 2955.05 -3.31872 -2.50998 0
M  V30 30388 H 2953.92 -4.09565 -3.65442 0
M  V30 30389 H 2954.18 -2.36061 -3.73802 0
M  V30 30390 N 2953.24 0.604233 -1.45557 0
M  V30 30391 C 2954.47 1.3897 -1.53281 0
M  V30 30392 C 2954.89 1.88064 -0.166542 0
M  V30 30393 O 2954.24 1.62406 0.832491 0
M  V30 30394 C 2954.29 2.59191 -2.51997 0
M  V30 30395 O 2954.02 2.12137 -3.83314 0
M  V30 30396 C 2955.52 3.5201 -2.69451 0
M  V30 30397 H 2952.74 0.425287 -0.51901 0
M  V30 30398 H 2955.28 0.736587 -1.90774 0
M  V30 30399 H 2953.44 3.20537 -2.17566 0
M  V30 30400 H 2953.85 2.90271 -4.36856 0
M  V30 30401 H 2955.32 4.32901 -3.42492 0
M  V30 30402 H 2955.8 4.02567 -1.75603 0
M  V30 30403 H 2956.41 2.96515 -3.04892 0
M  V30 30404 N 2954.72 1.32903 0.847027 0
M  V30 30405 C 2955.65 1.25095 1.97164 0
M  V30 30406 C 2956.63 0.133191 1.69578 0
M  V30 30407 O 2957.82 0.321625 1.91518 0
M  V30 30408 C 2954.95 0.981064 3.33155 0
M  V30 30409 C 2953.9 2.06088 3.75116 0
M  V30 30410 C 2953.23 1.64327 5.08823 0
M  V30 30411 C 2954.53 3.47676 3.89768 0
M  V30 30412 H 2956.22 2.19187 2.03954 0
M  V30 30413 H 2953.77 1.05519 0.979888 0
M  V30 30414 H 2955.72 0.912964 4.11391 0
M  V30 30415 H 2954.44 0.00451299 3.266 0
M  V30 30416 H 2953.1 2.11927 2.99137 0
M  V30 30417 H 2952.75 0.653964 4.98731 0
M  V30 30418 H 2952.45 2.36582 5.37869 0
M  V30 30419 H 2953.98 1.58968 5.89543 0
M  V30 30420 H 2955.39 3.44384 4.58337 0
M  V30 30421 H 2953.79 4.18346 4.30241 0
M  V30 30422 H 2954.86 3.86778 2.92456 0
M  V30 30423 N 2956.2 -1.06426 1.16238 0
M  V30 30424 C 2957.61 -1.60666 0.950971 0
M  V30 30425 C 2957.96 -1.89577 -0.505457 0
M  V30 30426 O 2957.09 -1.6682 -1.3784 0
M  V30 30427 C 2957.68 -2.91901 1.71987 0
M  V30 30428 C 2956.24 -3.42847 1.55348 0
M  V30 30429 C 2955.39 -2.1676 1.72946 0
M  V30 30430 H 2958.34 -0.893936 1.31128 0
M  V30 30431 H 2958.36 -3.61251 1.1949 0
M  V30 30432 H 2957.87 -2.70826 2.77983 0
M  V30 30433 H 2955.97 -3.68984 0.517865 0
M  V30 30434 H 2956.09 -4.18263 2.33651 0
M  V30 30435 H 2954.45 -2.26916 1.15677 0
M  V30 30436 H 2955.23 -1.9817 2.80327 0
M  V30 30437 N 2957.68 -0.960653 -1.24937 0
M  V30 30438 C 2958.63 -0.456305 -2.23387 0
M  V30 30439 C 2959.61 0.457792 -1.5425 0
M  V30 30440 O 2960.8 0.289863 -1.7461 0
M  V30 30441 C 2957.93 0.258964 -3.42322 0
M  V30 30442 C 2957.02 -0.673552 -4.18717 0
M  V30 30443 N 2957.41 -1.80779 -4.7239 0
M  V30 30444 C 2955.71 -0.482937 -4.43378 0
M  V30 30445 C 2956.41 -2.39049 -5.30312 0
M  V30 30446 N 2955.39 -1.67638 -5.17106 0
M  V30 30447 H 2959.19 -1.32184 -2.62497 0
M  V30 30448 H 2956.7 -0.818876 -1.40243 0
M  V30 30449 H 2958.7 0.637454 -4.11998 0
M  V30 30450 H 2957.36 1.12103 -3.04734 0
M  V30 30451 H 2958.37 -2.1895 -4.69341 0
M  V30 30452 H 2955.05 0.335748 -4.16148 0
M  V30 30453 H 2956.44 -3.34725 -5.82588 0
M  V30 30454 N 2959.16 1.39677 -0.729931 0
M  V30 30455 C 2960.57 1.83461 -0.346274 0
M  V30 30456 C 2960.92 1.60989 1.12147 0
M  V30 30457 O 2960.04 1.09835 1.86454 0
M  V30 30458 C 2960.64 3.33047 -0.621715 0
M  V30 30459 C 2959.2 3.75269 -0.291609 0
M  V30 30460 C 2958.34 2.62735 -0.886891 0
M  V30 30461 H 2961.3 1.28742 -0.927971 0
M  V30 30462 H 2961.32 3.80346 0.108235 0
M  V30 30463 H 2960.83 3.4937 -1.69003 0
M  V30 30464 H 2958.93 3.64534 0.771069 0
M  V30 30465 H 2959.04 4.72862 -0.770628 0
M  V30 30466 H 2957.41 2.52758 -0.313884 0
M  V30 30467 H 2958.19 2.81866 -1.95976 0
M  V30 30468 N 2960.63 0.47718 1.50202 0
M  V30 30469 C 2961.58 -0.327785 2.30279 0
M  V30 30470 C 2962.58 -0.984815 1.37832 0
M  V30 30471 O 2963.78 -0.915224 1.54996 0
M  V30 30472 H 2960.16 -0.124551 0.741614 0
M  V30 30473 H 2962.13 0.367905 2.96123 0
M  V30 30474 C 2960.88 -1.39359 3.1855 0
M  V30 30475 H 2960.2 -0.897407 3.89598 0
M  V30 30476 H 2961.64 -1.92928 3.77564 0
M  V30 30477 C 2960.1 -2.39885 2.36552 0
M  V30 30478 O 2960.63 -3.45282 2.05288 0
M  V30 30479 N 2958.84 -2.11754 1.99019 0
M  V30 30480 H 2958.38 -1.26067 2.24644 0
M  V30 30481 H 2958.34 -2.79247 1.44459 0
M  V30 30482 N 2962.11 -1.56194 0.210027 0
M  V30 30483 C 2963.04 -2.2277 -0.699707 0
M  V30 30484 C 2964.02 -1.19562 -1.20991 0
M  V30 30485 O 2965.21 -1.48114 -1.25602 0
M  V30 30486 C 2962.34 -2.89867 -1.91297 0
M  V30 30487 C 2961.29 -3.99447 -1.53708 0
M  V30 30488 C 2960.62 -4.53782 -2.82818 0
M  V30 30489 C 2961.92 -5.17092 -0.735746 0
M  V30 30490 H 2963.61 -2.9905 -0.144663 0
M  V30 30491 H 2961.16 -1.43839 -0.0681392 0
M  V30 30492 H 2963.11 -3.35129 -2.55474 0
M  V30 30493 H 2961.84 -2.11015 -2.49279 0
M  V30 30494 H 2960.49 -3.54899 -0.918829 0
M  V30 30495 H 2960.14 -3.71675 -3.3892 0
M  V30 30496 H 2959.84 -5.27731 -2.58406 0
M  V30 30497 H 2961.37 -5.01755 -3.47957 0
M  V30 30498 H 2962.78 -5.58806 -1.28095 0
M  V30 30499 H 2961.18 -5.97201 -0.589167 0
M  V30 30500 H 2962.25 -4.84202 0.260089 0
M  V30 30501 N 2963.59 0.0634645 -1.57472 0
M  V30 30502 C 2964.54 1.08163 -2.00711 0
M  V30 30503 C 2965.52 1.34009 -0.890522 0
M  V30 30504 O 2966.72 1.3417 -1.15444 0
M  V30 30505 C 2963.85 2.39299 -2.46153 0
M  V30 30506 C 2962.93 2.1669 -3.64563 0
M  V30 30507 N 2963.32 1.64035 -4.78462 0
M  V30 30508 C 2961.62 2.47128 -3.71273 0
M  V30 30509 C 2962.32 1.56436 -5.6027 0
M  V30 30510 N 2961.3 2.02783 -5.04361 0
M  V30 30511 H 2965.1 0.667966 -2.86209 0
M  V30 30512 H 2962.61 0.270398 -1.60133 0
M  V30 30513 H 2964.61 3.13011 -2.75372 0
M  V30 30514 H 2963.27 2.81374 -1.62045 0
M  V30 30515 H 2964.28 1.32782 -5.00589 0
M  V30 30516 H 2960.96 2.92513 -2.97897 0
M  V30 30517 H 2962.35 1.16507 -6.61722 0
M  V30 30518 N 2965.07 1.53998 0.33504 0
M  V30 30519 C 2966.32 1.71314 1.0722 0
M  V30 30520 C 2966.64 0.483519 1.8891 0
M  V30 30521 O 2965.91 -0.502537 1.89345 0
M  V30 30522 H 2964.49 0.631617 0.398834 0
M  V30 30523 H 2967.15 1.91273 0.374254 0
M  V30 30524 H 2966.25 2.58775 1.74475 0
M  V30 30525 N 2966.55 -0.596505 1.45875 0
M  V30 30526 C 2967.96 -1.17855 1.448 0
M  V30 30527 C 2968.31 -1.95359 0.181478 0
M  V30 30528 O 2967.43 -2.04201 -0.716301 0
M  V30 30529 C 2968.03 -2.14394 2.62337 0
M  V30 30530 C 2966.59 -2.67951 2.64347 0
M  V30 30531 C 2965.73 -1.4356 2.37246 0
M  V30 30532 H 2968.69 -0.385195 1.53954 0
M  V30 30533 H 2968.71 -2.97622 2.37068 0
M  V30 30534 H 2968.22 -1.57957 3.54501 0
M  V30 30535 H 2966.32 -3.28295 1.76219 0
M  V30 30536 H 2966.43 -3.11627 3.63903 0
M  V30 30537 H 2964.8 -1.72898 1.87025 0
M  V30 30538 H 2965.58 -0.889747 3.3157 0
M  V30 30539 N 2968.02 -1.3335 -0.839967 0
M  V30 30540 C 2968.93 -1.25546 -1.9818 0
M  V30 30541 C 2969.95 -0.166238 -1.73204 0
M  V30 30542 O 2971.13 -0.389624 -1.97595 0
M  V30 30543 C 2968.19 -0.993672 -3.32155 0
M  V30 30544 C 2967.25 -2.17279 -3.70254 0
M  V30 30545 C 2966.49 -1.9234 -4.97836 0
M  V30 30546 O 2966.71 -0.873173 -5.63677 0
M  V30 30547 O 2965.64 -2.78844 -5.33413 0
M  V30 30548 H 2969.47 -2.21569 -2.07704 0
M  V30 30549 H 2967.05 -1.13386 -0.972832 0
M  V30 30550 H 2968.94 -0.864783 -4.12431 0
M  V30 30551 H 2967.61 -0.0637165 -3.23637 0
M  V30 30552 H 2966.52 -2.35721 -2.90493 0
M  V30 30553 H 2967.85 -3.08605 -3.83437 0
M  V30 30554 N 2969.5 1.05808 -1.16801 0
M  V30 30555 C 2970.75 1.78086 -0.947012 0
M  V30 30556 C 2971.06 1.88395 0.525983 0
M  V30 30557 O 2972.27 2.57351 0.865016 0
M  V30 30558 C 2970.73 3.20099 -1.64513 0
M  V30 30559 C 2970.33 3.1794 -3.15623 0
M  V30 30560 C 2972.08 3.96877 -1.50629 0
M  V30 30561 C 2969.99 4.54703 -3.78152 0
M  V30 30562 H 2968.92 0.667487 -0.350681 0
M  V30 30563 H 2971.57 1.18642 -1.39987 0
M  V30 30564 H 2969.95 3.79832 -1.12 0
M  V30 30565 H 2971.12 2.67762 -3.7502 0
M  V30 30566 H 2969.44 2.54662 -3.29449 0
M  V30 30567 H 2972.03 4.97983 -1.94722 0
M  V30 30568 H 2972.38 4.13796 -0.455937 0
M  V30 30569 H 2972.91 3.43678 -2.00325 0
M  V30 30570 H 2969.65 4.4299 -4.83157 0
M  V30 30571 H 2969.17 5.05056 -3.23541 0
M  V30 30572 H 2970.85 5.23653 -3.79995 0
M  V30 30573 N 2970.98 0.967265 1.24426 0
M  V30 30574 C 2971.91 0.515939 2.27729 0
M  V30 30575 C 2972.89 -0.444198 1.64198 0
M  V30 30576 O 2974.08 -0.340417 1.91193 0
M  V30 30577 C 2971.21 -0.195088 3.46752 0
M  V30 30578 C 2970.16 0.681027 4.22547 0
M  V30 30579 C 2969.49 -0.161467 5.34456 0
M  V30 30580 C 2970.79 1.96541 4.8391 0
M  V30 30581 H 2972.48 1.37937 2.65732 0
M  V30 30582 H 2970.03 0.664704 1.27741 0
M  V30 30583 H 2971.98 -0.522044 4.18154 0
M  V30 30584 H 2970.7 -1.09287 3.07773 0
M  V30 30585 H 2969.36 0.991248 3.52945 0
M  V30 30586 H 2969.01 -1.05938 4.91717 0
M  V30 30587 H 2968.71 0.421521 5.86086 0
M  V30 30588 H 2970.23 -0.483104 6.08686 0
M  V30 30589 H 2971.65 1.70406 5.47389 0
M  V30 30590 H 2970.05 2.49508 5.45771 0
M  V30 30591 H 2971.12 2.6606 4.05389 0
M  V30 30592 N 2972.46 -1.39288 0.737328 0
M  V30 30593 C 2973.74 -1.94442 0.212498 0
M  V30 30594 C 2974.12 -1.67394 -1.28618 0
M  V30 30595 O 2973.46 -1.00345 -2.05288 0
M  V30 30596 C 2973.67 -3.44661 0.548626 0
M  V30 30597 C 2975.02 -4.21655 0.499251 0
M  V30 30598 O 2976.05 -3.5287 0.485954 0
M  V30 30599 O 2974.91 -5.44246 0.495835 0
M  V30 30600 H 2972 -0.826053 0.0395602 0
M  V30 30601 H 2974.55 -1.48775 0.816345 0
M  V30 30602 H 2973.32 -3.57792 1.58432 0
M  V30 30603 H 2972.94 -3.97511 -0.08407 0
M  V30 30604 N 2973.94 -0.485139 -1.49947 0
M  V30 30605 C 2975.18 0.0650666 -2.02696 0
M  V30 30606 C 2975.52 1.38099 -1.36536 0
M  V30 30607 O 2974.79 1.88077 -0.49571 0
M  V30 30608 C 2975.07 0.234222 -3.59337 0
M  V30 30609 C 2974.93 -1.10371 -4.36048 0
M  V30 30610 C 2976.25 0.982276 -4.28998 0
M  V30 30611 H 2973.37 0.0221727 -0.736666 0
M  V30 30612 H 2976.01 -0.633465 -1.79129 0
M  V30 30613 H 2974.16 0.829195 -3.79548 0
M  V30 30614 H 2975.83 -1.73635 -4.27374 0
M  V30 30615 H 2974.07 -1.69693 -3.99233 0
M  V30 30616 H 2974.74 -0.938839 -5.43958 0
M  V30 30617 H 2977.22 0.477831 -4.13347 0
M  V30 30618 H 2976.1 1.06945 -5.38381 0
M  V30 30619 H 2976.36 2.02225 -3.93138 0
M  V30 30620 N 2975.42 1.56081 -0.218307 0
M  V30 30621 C 2976.83 1.84432 0.290134 0
M  V30 30622 C 2977.18 1.13961 1.5971 0
M  V30 30623 O 2976.3 0.408187 2.12515 0
M  V30 30624 C 2976.9 3.34578 0.533191 0
M  V30 30625 C 2975.46 3.63258 0.985947 0
M  V30 30626 C 2974.6 2.7726 0.047231 0
M  V30 30627 H 2977.55 1.52433 -0.441575 0
M  V30 30628 H 2977.58 3.54608 1.37961 0
M  V30 30629 H 2977.09 3.8584 -0.418205 0
M  V30 30630 H 2975.19 3.17449 1.95081 0
M  V30 30631 H 2975.3 4.71271 0.862601 0
M  V30 30632 H 2973.67 2.48615 0.553428 0
M  V30 30633 H 2974.45 3.31319 -0.899024 0
M  V30 30634 N 2976.89 -0.0551124 1.57504 0
M  V30 30635 C 2978.12 -0.767318 1.92684 0
M  V30 30636 C 2978.54 -1.69471 0.81617 0
M  V30 30637 O 2977.9 -1.79836 -0.229957 0
M  V30 30638 C 2977.95 -1.5228 3.26869 0
M  V30 30639 O 2977.05 -2.63454 3.17279 0
M  V30 30640 H 2976.39 -0.208227 0.630506 0
M  V30 30641 H 2978.92 -0.0183666 2.04592 0
M  V30 30642 H 2978.93 -1.89844 3.61142 0
M  V30 30643 H 2977.61 -0.84247 4.07278 0
M  V30 30644 H 2976.19 -2.28624 2.94593 0
M  V30 30645 N 2978.37 -1.54173 -0.326869 0
M  V30 30646 C 2979.6 -1.76179 -1.08483 0
M  V30 30647 C 2980.01 -0.508819 -1.81814 0
M  V30 30648 O 2979.37 0.520331 -1.74925 0
M  V30 30649 C 2979.42 -2.9528 -2.08547 0
M  V30 30650 O 2979.14 -4.15733 -1.38194 0
M  V30 30651 C 2980.64 -3.29471 -2.96587 0
M  V30 30652 H 2977.86 -0.588239 -0.322825 0
M  V30 30653 H 2980.41 -2.01051 -0.374001 0
M  V30 30654 H 2978.56 -2.72692 -2.75169 0
M  V30 30655 H 2978.98 -4.82703 -2.05177 0
M  V30 30656 H 2980.45 -4.16116 -3.62701 0
M  V30 30657 H 2980.93 -2.46494 -3.63507 0
M  V30 30658 H 2981.53 -3.54126 -2.35531 0
M  V30 30659 N 2979.85 0.58876 -1.4619 0
M  V30 30660 C 2981.1 1.34918 -1.5141 0
M  V30 30661 C 2981.43 1.93516 -0.162805 0
M  V30 30662 O 2980.7 1.76134 0.825051 0
M  V30 30663 C 2980.99 2.48306 -2.60799 0
M  V30 30664 C 2980.84 1.94782 -4.05438 0
M  V30 30665 C 2982.16 3.50375 -2.66319 0
M  V30 30666 H 2979.28 0.489207 -0.551221 0
M  V30 30667 H 2981.92 0.661961 -1.78096 0
M  V30 30668 H 2980.07 3.06928 -2.38175 0
M  V30 30669 H 2981.74 1.40664 -4.39331 0
M  V30 30670 H 2979.98 1.25651 -4.15204 0
M  V30 30671 H 2980.66 2.76605 -4.77696 0
M  V30 30672 H 2983.13 3.01624 -2.8664 0
M  V30 30673 H 2982.01 4.27178 -3.44688 0
M  V30 30674 H 2982.27 4.07213 -1.72134 0
M  V30 30675 N 2981.33 1.33794 0.832883 0
M  V30 30676 C 2982.26 1.20383 1.9504 0
M  V30 30677 C 2983.27 0.133328 1.62253 0
M  V30 30678 O 2984.46 0.384292 1.74314 0
M  V30 30679 C 2981.56 0.825272 3.28698 0
M  V30 30680 C 2980.73 1.98867 3.89577 0
M  V30 30681 C 2979.79 1.59012 5.01599 0
M  V30 30682 O 2978.82 2.30531 5.20427 0
M  V30 30683 N 2980.02 0.498547 5.78355 0
M  V30 30684 H 2982.79 2.16653 2.07079 0
M  V30 30685 H 2980.35 1.26618 1.00894 0
M  V30 30686 H 2982.34 0.54063 4.01073 0
M  V30 30687 H 2980.91 -0.0469247 3.12565 0
M  V30 30688 H 2980.13 2.43861 3.09718 0
M  V30 30689 H 2981.42 2.76698 4.26984 0
M  V30 30690 H 2980.82 -0.0962303 5.65618 0
M  V30 30691 H 2979.37 0.2736 6.51226 0
M  V30 30692 N 2982.81 -1.05187 1.1736 0
M  V30 30693 C 2983.75 -2.12935 0.890362 0
M  V30 30694 C 2984.72 -1.65271 -0.165749 0
M  V30 30695 O 2985.91 -1.90779 -0.0285337 0
M  V30 30696 C 2983.05 -3.42658 0.409854 0
M  V30 30697 C 2982.16 -4.03995 1.53009 0
M  V30 30698 C 2981.3 -5.21636 1.00345 0
M  V30 30699 C 2980.33 -5.74981 2.09913 0
M  V30 30700 N 2979.47 -6.83923 1.58726 0
M  V30 30701 H 2984.31 -2.36502 1.81304 0
M  V30 30702 H 2981.85 -1.16023 0.904269 0
M  V30 30703 H 2983.81 -4.17047 0.112817 0
M  V30 30704 H 2982.44 -3.19273 -0.475859 0
M  V30 30705 H 2981.49 -3.27043 1.94285 0
M  V30 30706 H 2982.8 -4.39627 2.35648 0
M  V30 30707 H 2981.95 -6.03097 0.660264 0
M  V30 30708 H 2980.69 -4.8748 0.146506 0
M  V30 30709 H 2979.7 -4.9215 2.45089 0
M  V30 30710 H 2980.92 -6.11185 2.96024 0
M  V30 30711 H 2978.87 -6.51664 0.753029 0
M  V30 30712 H 2978.79 -7.18557 2.34972 0
M  V30 30713 H 2980.05 -7.69035 1.273 0
M  V30 30714 N 2984.28 -0.97385 -1.23911 0
M  V30 30715 C 2985.51 -0.656925 -1.96194 0
M  V30 30716 C 2985.93 0.774846 -1.72167 0
M  V30 30717 O 2985.28 1.52062 -1.00913 0
M  V30 30718 C 2985.33 -0.929699 -3.49341 0
M  V30 30719 O 2985.06 -2.30519 -3.72549 0
M  V30 30720 C 2986.56 -0.627816 -4.38832 0
M  V30 30721 H 2983.78 -0.244583 -0.624836 0
M  V30 30722 H 2986.32 -1.30345 -1.57576 0
M  V30 30723 H 2984.48 -0.329283 -3.85998 0
M  V30 30724 H 2984.89 -2.38988 -4.66889 0
M  V30 30725 H 2986.36 -0.869086 -5.45115 0
M  V30 30726 H 2986.84 0.438027 -4.3701 0
M  V30 30727 H 2987.45 -1.20841 -4.07771 0
M  V30 30728 N 2985.76 1.38895 -0.744705 0
M  V30 30729 C 2987.17 1.83083 -0.365713 0
M  V30 30730 C 2987.52 1.62169 1.10433 0
M  V30 30731 O 2986.65 1.11807 1.85279 0
M  V30 30732 C 2987.24 3.32369 -0.657004 0
M  V30 30733 C 2985.8 3.74938 -0.331395 0
M  V30 30734 C 2984.95 2.61779 -0.914707 0
M  V30 30735 H 2987.9 1.2775 -0.941574 0
M  V30 30736 H 2987.92 3.80439 0.0678878 0
M  V30 30737 H 2987.43 3.47558 -1.72699 0
M  V30 30738 H 2985.53 3.65332 0.732362 0
M  V30 30739 H 2985.65 4.72018 -0.820738 0
M  V30 30740 H 2984.01 2.52411 -0.340675 0
M  V30 30741 H 2984.79 2.79772 -1.98954 0
M  V30 30742 N 2987.24 0.493084 1.49688 0
M  V30 30743 C 2988.49 -0.0542359 2.02427 0
M  V30 30744 C 2988.82 -1.37723 1.37341 0
M  V30 30745 O 2988.07 -1.89322 0.495557 0
M  V30 30746 C 2988.37 -0.263473 3.56428 0
M  V30 30747 C 2988.04 0.980537 4.40109 0
M  V30 30748 C 2986.7 1.32156 4.62697 0
M  V30 30749 C 2989.05 1.8078 4.88844 0
M  V30 30750 C 2986.38 2.4895 5.31263 0
M  V30 30751 C 2988.73 2.9672 5.58695 0
M  V30 30752 C 2987.39 3.31212 5.7953 0
M  V30 30753 H 2986.66 -0.0198463 0.740734 0
M  V30 30754 H 2989.31 0.651634 1.80072 0
M  V30 30755 H 2987.62 -1.0518 3.77418 0
M  V30 30756 H 2989.31 -0.701279 3.9482 0
M  V30 30757 H 2985.9 0.704889 4.22764 0
M  V30 30758 H 2990.09 1.55749 4.71228 0
M  V30 30759 H 2985.34 2.7592 5.45599 0
M  V30 30760 H 2989.52 3.61154 5.95433 0
M  V30 30761 H 2987.14 4.21817 6.32436 0
M  V30 30762 N 2988.72 -1.55963 0.226582 0
M  V30 30763 C 2989.96 -1.98728 -0.404352 0
M  V30 30764 C 2990.3 -1.11421 -1.59057 0
M  V30 30765 O 2989.57 -0.173005 -1.93729 0
M  V30 30766 C 2989.86 -3.50309 -0.834019 0
M  V30 30767 C 2989.71 -4.48388 0.356183 0
M  V30 30768 C 2991.03 -4.06426 -1.68838 0
M  V30 30769 H 2988.15 -0.722494 -0.145502 0
M  V30 30770 H 2990.79 -1.8722 0.323824 0
M  V30 30771 H 2988.94 -3.60246 -1.45447 0
M  V30 30772 H 2990.61 -4.50455 0.994399 0
M  V30 30773 H 2988.85 -4.22051 1.00277 0
M  V30 30774 H 2989.52 -5.51999 0.0125303 0
M  V30 30775 H 2992 -3.99463 -1.16482 0
M  V30 30776 H 2990.88 -5.12793 -1.95791 0
M  V30 30777 H 2991.14 -3.53619 -2.65341 0
M  V30 30778 N 2990.2 0.0467589 -1.57531 0
M  V30 30779 C 2991.42 0.753337 -1.92698 0
M  V30 30780 C 2991.84 1.6983 -0.824822 0
M  V30 30781 O 2991.2 1.81399 0.200123 0
M  V30 30782 C 2991.25 1.52561 -3.27731 0
M  V30 30783 O 2990.97 0.618598 -4.33711 0
M  V30 30784 C 2992.47 2.33094 -3.7707 0
M  V30 30785 H 2989.69 0.212776 -0.63637 0
M  V30 30786 H 2992.23 0.00955767 -2.04498 0
M  V30 30787 H 2990.39 2.22143 -3.17382 0
M  V30 30788 H 2990.8 1.1583 -5.1155 0
M  V30 30789 H 2992.28 2.82701 -4.74114 0
M  V30 30790 H 2992.75 3.13736 -3.07354 0
M  V30 30791 H 2993.36 1.68621 -3.90445 0
M  V30 30792 N 2991.67 1.54344 0.318688 0
M  V30 30793 C 2992.62 1.80451 1.39361 0
M  V30 30794 C 2993.61 0.660754 1.46707 0
M  V30 30795 O 2994.8 0.920896 1.51157 0
M  V30 30796 C 2991.93 2.03964 2.76141 0
M  V30 30797 C 2991.02 3.24474 2.73089 0
M  V30 30798 N 2991.41 4.4542 2.39655 0
M  V30 30799 C 2989.7 3.26145 3.04212 0
M  V30 30800 C 2990.41 5.27375 2.4546 0
M  V30 30801 N 2989.38 4.64673 2.82099 0
M  V30 30802 H 2993.18 2.71537 1.12448 0
M  V30 30803 H 2990.7 1.53605 0.527194 0
M  V30 30804 H 2992.69 2.20808 3.53623 0
M  V30 30805 H 2991.35 1.14134 3.0398 0
M  V30 30806 H 2992.37 4.72334 2.12416 0
M  V30 30807 H 2989.04 2.46365 3.37061 0
M  V30 30808 H 2990.43 6.33969 2.2256 0
M  V30 30809 N 2993.15 -0.580999 1.465 0
M  V30 30810 C 2994.56 -1.16312 1.46042 0
M  V30 30811 C 2994.91 -1.95155 0.202188 0
M  V30 30812 O 2994.04 -2.04949 -0.694602 0
M  V30 30813 C 2994.63 -2.11599 2.64596 0
M  V30 30814 C 2993.19 -2.65132 2.67174 0
M  V30 30815 C 2992.34 -1.41036 2.38756 0
M  V30 30816 H 2995.29 -0.368844 1.54354 0
M  V30 30817 H 2995.31 -2.95091 2.40212 0
M  V30 30818 H 2994.82 -1.54188 3.56157 0
M  V30 30819 H 2992.93 -3.26408 1.79691 0
M  V30 30820 H 2993.04 -3.0775 3.67188 0
M  V30 30821 H 2991.4 -1.70905 1.88848 0
M  V30 30822 H 2992.19 -0.854529 3.32495 0
M  V30 30823 N 2994.63 -1.34234 -0.825776 0
M  V30 30824 C 2995.88 -1.2618 -1.5787 0
M  V30 30825 C 2996.2 0.16887 -1.94267 0
M  V30 30826 O 2995.47 1.10081 -1.62046 0
M  V30 30827 H 2994.05 -0.464047 -0.585379 0
M  V30 30828 H 2996.71 -1.68111 -0.986133 0
M  V30 30829 H 2995.81 -1.86458 -2.5028 0
M  V30 30830 N 2996.11 1.04563 -1.17917 0
M  V30 30831 C 2997.34 1.81075 -0.994747 0
M  V30 30832 C 2997.75 1.8352 0.460113 0
M  V30 30833 O 2997.09 1.26574 1.33134 0
M  V30 30834 C 2997.15 3.28204 -1.46704 0
M  V30 30835 C 2996.82 3.4943 -2.94529 0
M  V30 30836 C 2997.81 3.41031 -3.9242 0
M  V30 30837 C 2995.5 3.76188 -3.32848 0
M  V30 30838 C 2997.49 3.59086 -5.26627 0
M  V30 30839 C 2995.18 3.93891 -4.67218 0
M  V30 30840 C 2996.18 3.8534 -5.63917 0
M  V30 30841 O 2995.86 4.02541 -6.95856 0
M  V30 30842 H 2995.6 0.577242 -0.351807 0
M  V30 30843 H 2998.15 1.32707 -1.56774 0
M  V30 30844 H 2996.38 3.77518 -0.837658 0
M  V30 30845 H 2998.07 3.8626 -1.24731 0
M  V30 30846 H 2998.84 3.20329 -3.64162 0
M  V30 30847 H 2994.71 3.81945 -2.58146 0
M  V30 30848 H 2998.26 3.52328 -6.02089 0
M  V30 30849 H 2994.16 4.14086 -4.95179 0
M  V30 30850 H 2994.92 4.19731 -7.02687 0
M  V30 30851 N 2997.59 0.980408 1.23393 0
M  V30 30852 C 2998.86 0.5657 1.87241 0
M  V30 30853 C 2999.24 -0.957164 1.88153 0
M  V30 30854 O 2998.59 -1.83388 1.36313 0
M  V30 30855 C 2998.8 1.17178 3.28741 0
M  V30 30856 C 3000.15 1.26453 4.05333 0
M  V30 30857 O 3001.17 1.12523 3.3796 0
M  V30 30858 O 3000.03 1.48613 5.25905 0
M  V30 30859 H 2997.13 0.190473 0.804766 0
M  V30 30860 H 2999.67 1.07549 1.31268 0
M  V30 30861 H 2998.44 2.21398 3.22643 0
M  V30 30862 H 2998.07 0.646808 3.92304 0
M  V30 30863 N 2999.06 -1.38498 0.75206 0
M  V30 30864 C 3000.29 -2.04437 0.31831 0
M  V30 30865 C 3000.71 -1.5672 -1.05282 0
M  V30 30866 O 3000.06 -0.739589 -1.66842 0
M  V30 30867 C 3000.12 -3.59989 0.330169 0
M  V30 30868 O 2999.84 -4.05955 1.64719 0
M  V30 30869 C 3001.34 -4.43144 -0.117635 0
M  V30 30870 H 2998.56 -0.657024 0.136239 0
M  V30 30871 H 3001.1 -1.77218 1.02048 0
M  V30 30872 H 2999.26 -3.86049 -0.323255 0
M  V30 30873 H 2999.67 -5.00378 1.57234 0
M  V30 30874 H 3001.14 -5.51969 -0.0581764 0
M  V30 30875 H 3001.62 -4.23459 -1.1653 0
M  V30 30876 H 3002.23 -4.22269 0.506858 0
M  V30 30877 N 3000.54 -0.501015 -1.49424 0
M  V30 30878 C 3001.79 0.043414 -2.02053 0
M  V30 30879 C 3002.11 1.37483 -1.38287 0
M  V30 30880 O 3001.38 1.88362 -0.538204 0
M  V30 30881 H 2999.96 0.0190338 -0.746757 0
M  V30 30882 H 3002.62 -0.658259 -1.83447 0
M  V30 30883 H 3001.72 0.173074 -3.1162 0
M  V30 30884 N 3002.02 1.5584 -0.234849 0
M  V30 30885 C 3002.97 2.22251 0.686106 0
M  V30 30886 C 3003.96 1.20616 1.18946 0
M  V30 30887 O 3005.17 1.38661 1.14775 0
M  V30 30888 H 3001.54 0.712771 0.239712 0
M  V30 30889 H 3003.52 2.98223 0.102709 0
M  V30 30890 C 3002.26 2.92649 1.87755 0
M  V30 30891 H 3001.59 3.7062 1.49936 0
M  V30 30892 H 3003.03 3.42497 2.49944 0
M  V30 30893 C 3001.49 1.95852 2.74123 0
M  V30 30894 O 3002.02 1.4839 3.73287 0
M  V30 30895 N 3000.22 1.63213 2.40437 0
M  V30 30896 H 2999.77 2.02004 1.5985 0
M  V30 30897 H 2999.73 0.987116 2.98502 0
M  V30 30898 N 3003.5 -0.038404 1.57553 0
M  V30 30899 C 3004.75 -0.729638 1.88469 0
M  V30 30900 C 3005.07 -1.76391 0.831333 0
M  V30 30901 O 3004.34 -1.95426 -0.136186 0
M  V30 30902 H 3002.92 -0.272473 0.695534 0
M  V30 30903 H 3005.58 -0.00656894 1.94899 0
M  V30 30904 H 3004.68 -1.22506 2.87052 0
M  V30 30905 N 3004.98 -1.54511 -0.310498 0
M  V30 30906 C 3006.23 -1.72551 -1.04447 0
M  V30 30907 C 3006.54 -0.513205 -1.88747 0
M  V30 30908 O 3007.75 -0.575212 -2.65337 0
M  V30 30909 C 3006.2 -3.05249 -1.9066 0
M  V30 30910 C 3005.81 -4.33927 -1.11407 0
M  V30 30911 C 3007.55 -3.32649 -2.63713 0
M  V30 30912 C 3005.46 -5.5768 -1.96842 0
M  V30 30913 H 3004.39 -0.643074 -0.393665 0
M  V30 30914 H 3007.04 -1.80998 -0.301972 0
M  V30 30915 H 3005.42 -2.90742 -2.68859 0
M  V30 30916 H 3006.6 -4.5924 -0.378875 0
M  V30 30917 H 3004.91 -4.1339 -0.49978 0
M  V30 30918 H 3007.51 -4.22306 -3.27966 0
M  V30 30919 H 3007.85 -2.51104 -3.32043 0
M  V30 30920 H 3008.39 -3.48084 -1.92568 0
M  V30 30921 H 3005.12 -6.41866 -1.32998 0
M  V30 30922 H 3004.64 -5.36567 -2.6806 0
M  V30 30923 H 3006.32 -5.94579 -2.55117 0
M  V30 30924 N 3006.46 0.573222 -1.46806 0
M  V30 30925 C 3007.39 1.69637 -1.5413 0
M  V30 30926 C 3008.4 1.57051 -0.428805 0
M  V30 30927 O 3009.59 1.64302 -0.69764 0
M  V30 30928 C 3006.69 3.07972 -1.41443 0
M  V30 30929 C 3005.86 3.46469 -2.6698 0
M  V30 30930 C 3004.92 4.63902 -2.48357 0
M  V30 30931 O 3003.95 4.69286 -3.22117 0
M  V30 30932 N 3005.15 5.59386 -1.55139 0
M  V30 30933 H 3007.91 1.63806 -2.50974 0
M  V30 30934 H 3005.48 0.759453 -1.42982 0
M  V30 30935 H 3007.47 3.84341 -1.26744 0
M  V30 30936 H 3006.04 3.08118 -0.527442 0
M  V30 30937 H 3005.26 2.59709 -2.96555 0
M  V30 30938 H 3006.55 3.68958 -3.50353 0
M  V30 30939 H 3005.94 5.57779 -0.943338 0
M  V30 30940 H 3004.5 6.35146 -1.46398 0
M  V30 30941 N 3007.93 1.3467 0.818645 0
M  V30 30942 C 3008.86 1.29249 1.94466 0
M  V30 30943 C 3009.84 0.169131 1.69257 0
M  V30 30944 O 3011.03 0.362176 1.90793 0
M  V30 30945 C 3008.16 1.05151 3.30999 0
M  V30 30946 C 3007.11 2.13999 3.7066 0
M  V30 30947 C 3006.44 1.75083 5.05223 0
M  V30 30948 C 3007.74 3.55865 3.82305 0
M  V30 30949 H 3009.43 2.23464 1.99259 0
M  V30 30950 H 3006.98 1.07573 0.957286 0
M  V30 30951 H 3008.93 1.00002 4.09362 0
M  V30 30952 H 3007.66 0.0737886 3.26517 0
M  V30 30953 H 3006.32 2.18224 2.94574 0
M  V30 30954 H 3005.96 0.759605 4.97231 0
M  V30 30955 H 3005.66 2.47938 5.32729 0
M  V30 30956 H 3007.19 1.71437 5.86039 0
M  V30 30957 H 3008.6 3.54028 4.50929 0
M  V30 30958 H 3007 4.27378 4.2127 0
M  V30 30959 H 3008.07 3.92895 2.84186 0
M  V30 30960 N 3009.41 -1.03936 1.1847 0
M  V30 30961 C 3010.82 -1.58612 0.984836 0
M  V30 30962 C 3011.17 -1.90607 -0.465131 0
M  V30 30963 O 3010.3 -1.69706 -1.34271 0
M  V30 30964 C 3010.89 -2.88187 1.7814 0
M  V30 30965 C 3009.45 -3.39475 1.62585 0
M  V30 30966 C 3008.6 -2.13043 1.77505 0
M  V30 30967 H 3011.55 -0.865921 1.32994 0
M  V30 30968 H 3011.57 -3.58635 1.27125 0
M  V30 30969 H 3011.08 -2.64869 2.83665 0
M  V30 30970 H 3009.18 -3.67802 0.596015 0
M  V30 30971 H 3009.3 -4.13213 2.4247 0
M  V30 30972 H 3007.66 -2.24412 1.20464 0
M  V30 30973 H 3008.44 -1.9218 2.84468 0
M  V30 30974 N 3010.89 -0.986938 -1.22871 0
M  V30 30975 C 3012.14 -0.658155 -1.91083 0
M  V30 30976 C 3012.46 0.811644 -1.77306 0
M  V30 30977 O 3011.73 1.58119 -1.15651 0
M  V30 30978 H 3010.31 -0.240439 -0.707247 0
M  V30 30979 H 3012.97 -1.25216 -1.49355 0
M  V30 30980 H 3012.07 -0.915481 -2.98371 0
M  V30 30981 N 3012.37 1.38098 -0.759394 0
M  V30 30982 C 3013.6 2.04265 -0.329147 0
M  V30 30983 C 3014.01 1.57276 1.0445 0
M  V30 30984 O 3013.37 0.748427 1.66448 0
M  V30 30985 C 3013.42 3.59809 -0.349256 0
M  V30 30986 O 3013.14 4.05075 -1.6687 0
M  V30 30987 C 3014.64 4.432 0.0941327 0
M  V30 30988 H 3011.86 0.656292 -0.139722 0
M  V30 30989 H 3014.4 1.76675 -1.02987 0
M  V30 30990 H 3012.56 3.86215 0.302778 0
M  V30 30991 H 3012.97 4.99537 -1.59885 0
M  V30 30992 H 3014.45 5.51992 0.0289033 0
M  V30 30993 H 3014.92 4.24071 1.14283 0
M  V30 30994 H 3015.53 4.21994 -0.529245 0
M  V30 30995 N 3013.85 0.508932 1.49156 0
M  V30 30996 C 3015.07 -0.0314817 2.07376 0
M  V30 30997 C 3015.5 -1.29338 1.36577 0
M  V30 30998 O 3014.85 -1.76248 0.424994 0
M  V30 30999 C 3014.9 -0.260054 3.59661 0
M  V30 31000 O 3014.01 -1.33315 3.90257 0
M  V30 31001 H 3013.35 0.0297506 0.663333 0
M  V30 31002 H 3015.88 0.710825 1.91855 0
M  V30 31003 H 3015.89 -0.489154 4.05057 0
M  V30 31004 H 3014.56 0.661866 4.106 0
M  V30 31005 H 3013.14 -1.08838 3.56663 0
M  V30 31006 N 3015.32 -1.55714 0.243111 0
M  V30 31007 C 3016.57 -1.98458 -0.381929 0
M  V30 31008 C 3016.89 -1.1325 -1.58743 0
M  V30 31009 O 3016.16 -0.214419 -1.94723 0
M  V30 31010 H 3014.74 -0.732969 -0.144101 0
M  V30 31011 H 3017.4 -1.91893 0.341019 0
M  V30 31012 H 3016.5 -3.04294 -0.693648 0
M  V30 31013 N 3016.8 0.030048 -1.57571 0
M  V30 31014 C 3017.73 1.05853 -2.03292 0
M  V30 31015 C 3018.75 1.32525 -0.945566 0
M  V30 31016 O 3019.94 1.3003 -1.22289 0
M  V30 31017 C 3017.04 2.40038 -2.39238 0
M  V30 31018 C 3016.21 2.32736 -3.70341 0
M  V30 31019 C 3015.27 3.49362 -3.93488 0
M  V30 31020 O 3014.29 3.28901 -4.64557 0
M  V30 31021 N 3015.5 4.71195 -3.3905 0
M  V30 31022 H 3018.26 0.668846 -2.92141 0
M  V30 31023 H 3015.82 0.218009 -1.60425 0
M  V30 31024 H 3017.81 3.16778 -2.51861 0
M  V30 31025 H 3016.38 2.70855 -1.56065 0
M  V30 31026 H 3015.6 1.41102 -3.68081 0
M  V30 31027 H 3016.89 2.24999 -4.56347 0
M  V30 31028 H 3016.29 4.9072 -2.81443 0
M  V30 31029 H 3014.85 5.45303 -3.57054 0
M  V30 31030 N 3018.28 1.54674 0.3023 0
M  V30 31031 C 3019.21 1.81905 1.39439 0
M  V30 31032 C 3020.23 0.701939 1.4689 0
M  V30 31033 O 3021.41 0.979395 1.49232 0
M  V30 31034 C 3018.51 1.94085 2.7782 0
M  V30 31035 C 3017.69 3.24474 2.93318 0
M  V30 31036 C 3016.75 3.27087 4.1219 0
M  V30 31037 O 3015.77 4.00624 4.04337 0
M  V30 31038 N 3016.97 2.52385 5.22764 0
M  V30 31039 H 3019.74 2.76157 1.16436 0
M  V30 31040 H 3017.3 1.54232 0.492365 0
M  V30 31041 H 3019.29 1.93237 3.55586 0
M  V30 31042 H 3017.86 1.06833 2.93778 0
M  V30 31043 H 3017.08 3.38107 2.02676 0
M  V30 31044 H 3018.37 4.10521 3.00583 0
M  V30 31045 H 3017.77 1.92268 5.32024 0
M  V30 31046 H 3016.33 2.57292 5.98869 0
M  V30 31047 N 3019.76 -0.565428 1.47108 0
M  V30 31048 C 3021.17 -1.14757 1.47268 0
M  V30 31049 C 3021.52 -1.9493 0.222876 0
M  V30 31050 O 3020.65 -2.05675 -0.672825 0
M  V30 31051 C 3021.24 -2.08781 2.66826 0
M  V30 31052 C 3019.8 -2.62283 2.69971 0
M  V30 31053 C 3018.95 -1.38495 2.40238 0
M  V30 31054 H 3021.9 -0.352452 1.54737 0
M  V30 31055 H 3021.92 -2.92526 2.43328 0
M  V30 31056 H 3021.43 -1.50402 3.57772 0
M  V30 31057 H 3019.53 -3.24483 1.83143 0
M  V30 31058 H 3019.64 -3.03838 3.70431 0
M  V30 31059 H 3018.01 -1.68892 1.9065 0
M  V30 31060 H 3018.79 -0.819216 3.33382 0
M  V30 31061 N 3021.24 -1.35102 -0.811492 0
M  V30 31062 C 3022.46 -1.31361 -1.60497 0
M  V30 31063 C 3022.89 0.10735 -1.87793 0
M  V30 31064 O 3022.24 1.07266 -1.46163 0
M  V30 31065 C 3022.29 -2.12124 -2.91609 0
M  V30 31066 O 3021.4 -1.4986 -3.84208 0
M  V30 31067 H 3020.74 -0.450611 -0.487694 0
M  V30 31068 H 3023.27 -1.78072 -1.00754 0
M  V30 31069 H 3023.28 -2.239 -3.41076 0
M  V30 31070 H 3021.95 -3.1543 -2.71066 0
M  V30 31071 H 3020.53 -1.46895 -3.42748 0
M  V30 31072 N 3022.71 1.03306 -1.19019 0
M  V30 31073 C 3023.96 1.76898 -0.991712 0
M  V30 31074 C 3024.29 1.88256 0.47678 0
M  V30 31075 O 3023.57 1.39627 1.35405 0
M  V30 31076 C 3023.85 3.19746 -1.65633 0
M  V30 31077 C 3023.7 3.16285 -3.19819 0
M  V30 31078 C 3025.02 4.18041 -1.37586 0
M  V30 31079 H 3022.14 0.642147 -0.361685 0
M  V30 31080 H 3024.78 1.20626 -1.46797 0
M  V30 31081 H 3022.93 3.67794 -1.25139 0
M  V30 31082 H 3024.61 2.76167 -3.69499 0
M  V30 31083 H 3022.85 2.54111 -3.51582 0
M  V30 31084 H 3023.52 4.1719 -3.61465 0
M  V30 31085 H 3026 3.78575 -1.72686 0
M  V30 31086 H 3024.87 5.16193 -1.86645 0
M  V30 31087 H 3025.13 4.4108 -0.300196 0
M  V30 31088 N 3024.19 0.99344 1.22346 0
M  V30 31089 C 3025.44 0.668279 1.90731 0
M  V30 31090 C 3025.76 -0.802229 1.77734 0
M  V30 31091 O 3025.03 -1.57503 1.16488 0
M  V30 31092 H 3023.61 0.244187 0.705962 0
M  V30 31093 H 3026.27 1.26006 1.48689 0
M  V30 31094 H 3025.37 0.931291 2.97881 0
M  V30 31095 N 3025.67 -1.37693 0.766707 0
M  V30 31096 C 3026.6 -2.28946 0.107838 0
M  V30 31097 C 3027.62 -1.48389 -0.669675 0
M  V30 31098 O 3028.8 -1.71101 -0.508599 0
M  V30 31099 C 3025.9 -3.27515 -0.871026 0
M  V30 31100 C 3025.08 -4.37148 -0.148394 0
M  V30 31101 C 3024.14 -5.15822 -1.03989 0
M  V30 31102 O 3023.16 -5.66951 -0.505539 0
M  V30 31103 N 3024.36 -5.30064 -2.36669 0
M  V30 31104 H 3027.13 -2.86131 0.891591 0
M  V30 31105 H 3024.69 -1.49615 0.618619 0
M  V30 31106 H 3026.68 -3.77029 -1.47075 0
M  V30 31107 H 3025.25 -2.71135 -1.55578 0
M  V30 31108 H 3024.47 -3.89098 0.632185 0
M  V30 31109 H 3025.76 -5.07587 0.351134 0
M  V30 31110 H 3025.16 -4.90099 -2.82524 0
M  V30 31111 H 3023.72 -5.82904 -2.9166 0
M  V30 31112 N 3027.15 -0.516835 -1.48884 0
M  V30 31113 C 3028.08 0.290021 -2.27358 0
M  V30 31114 C 3029.09 0.916383 -1.3456 0
M  V30 31115 O 3030.28 0.797045 -1.59717 0
M  V30 31116 C 3027.38 1.42471 -3.07499 0
M  V30 31117 C 3026.56 0.902718 -4.27983 0
M  V30 31118 C 3025.61 1.91692 -4.90041 0
M  V30 31119 O 3024.64 1.47912 -5.49646 0
M  V30 31120 N 3025.84 3.24835 -4.81105 0
M  V30 31121 H 3028.61 -0.382936 -2.97243 0
M  V30 31122 H 3026.17 -0.350348 -1.58064 0
M  V30 31123 H 3028.16 2.10107 -3.45886 0
M  V30 31124 H 3026.73 2.00155 -2.40118 0
M  V30 31125 H 3025.95 0.0507579 -3.94167 0
M  V30 31126 H 3027.24 0.532634 -5.06004 0
M  V30 31127 H 3026.64 3.63081 -4.33807 0
M  V30 31128 H 3025.19 3.88141 -5.23631 0
M  V30 31129 N 3028.63 1.55583 -0.251365 0
M  V30 31130 C 3029.56 2.17612 0.687054 0
M  V30 31131 C 3030.54 1.12955 1.16961 0
M  V30 31132 O 3031.72 1.41364 1.24693 0
M  V30 31133 C 3028.85 2.78037 1.93425 0
M  V30 31134 C 3027.89 3.95787 1.58918 0
M  V30 31135 S 3028.73 5.31063 0.687926 0
M  V30 31136 C 3029.88 5.94944 1.94402 0
M  V30 31137 H 3030.12 2.9687 0.15993 0
M  V30 31138 H 3027.65 1.54359 -0.0357864 0
M  V30 31139 H 3029.61 3.13486 2.65022 0
M  V30 31140 H 3028.27 1.98717 2.4325 0
M  V30 31141 H 3027.46 4.36673 2.5166 0
M  V30 31142 H 3027.06 3.61639 0.953601 0
M  V30 31143 H 3029.36 6.12732 2.89077 0
M  V30 31144 H 3030.3 6.9028 1.57858 0
M  V30 31145 H 3030.71 5.24059 2.09815 0
M  V30 31146 N 3030.1 -0.0216912 1.57585 0
M  V30 31147 C 3031.35 -0.710091 1.88787 0
M  V30 31148 C 3031.67 -1.76125 0.85085 0
M  V30 31149 O 3032.87 -2.50276 1.05235 0
M  V30 31150 C 3031.33 -1.31407 3.35052 0
M  V30 31151 C 3030.94 -0.29888 4.47002 0
M  V30 31152 C 3032.68 -1.98192 3.75393 0
M  V30 31153 C 3030.59 -0.911624 5.84332 0
M  V30 31154 H 3029.52 -0.268973 0.704393 0
M  V30 31155 H 3032.17 0.0352961 1.83466 0
M  V30 31156 H 3030.55 -2.10941 3.35141 0
M  V30 31157 H 3031.72 0.470284 4.58394 0
M  V30 31158 H 3030.04 0.267295 4.15541 0
M  V30 31159 H 3032.64 -2.44902 4.75318 0
M  V30 31160 H 3032.98 -2.80326 3.07771 0
M  V30 31161 H 3033.51 -1.25423 3.7751 0
M  V30 31162 H 3030.25 -0.129544 6.55372 0
M  V30 31163 H 3029.77 -1.65045 5.76646 0
M  V30 31164 H 3031.45 -1.41677 6.31298 0
M  V30 31165 N 3031.58 -1.54832 -0.294093 0
M  V30 31166 C 3032.83 -1.74441 -1.02843 0
M  V30 31167 C 3033.16 -0.533938 -1.87028 0
M  V30 31168 O 3032.41 0.484001 -1.8962 0
M  V30 31169 C 3032.71 -2.99009 -1.95776 0
M  V30 31170 C 3032.38 -4.32494 -1.27513 0
M  V30 31171 C 3031.04 -4.68779 -1.08628 0
M  V30 31172 C 3033.39 -5.15214 -0.78767 0
M  V30 31173 C 3030.72 -5.85356 -0.396937 0
M  V30 31174 C 3033.07 -6.32501 -0.112012 0
M  V30 31175 C 3031.74 -6.67441 0.0887244 0
M  V30 31176 H 3031.01 -0.638323 -0.37633 0
M  V30 31177 H 3033.65 -1.89093 -0.302651 0
M  V30 31178 H 3031.96 -2.79167 -2.74906 0
M  V30 31179 H 3033.66 -3.11376 -2.52678 0
M  V30 31180 H 3030.25 -4.03963 -1.43218 0
M  V30 31181 H 3034.43 -4.87675 -0.921255 0
M  V30 31182 H 3029.69 -6.10965 -0.230489 0
M  V30 31183 H 3033.86 -6.95862 0.273562 0
M  V30 31184 H 3031.49 -7.57627 0.624881 0
M  V30 31185 N 3033.06 0.557619 -1.47405 0
M  V30 31186 C 3033.97 1.69213 -1.62494 0
M  V30 31187 C 3034.99 1.66426 -0.507793 0
M  V30 31188 O 3036.16 1.8588 -0.775273 0
M  V30 31189 C 3033.23 3.05718 -1.63516 0
M  V30 31190 C 3032.29 3.19575 -2.86653 0
M  V30 31191 C 3031.52 4.49569 -2.87617 0
M  V30 31192 O 3031.75 5.35003 -1.97808 0
M  V30 31193 O 3030.68 4.67208 -3.79474 0
M  V30 31194 H 3034.51 1.59426 -2.5849 0
M  V30 31195 H 3032.09 0.727578 -1.30486 0
M  V30 31196 H 3033.97 3.86953 -1.6687 0
M  V30 31197 H 3032.65 3.15888 -0.706868 0
M  V30 31198 H 3031.55 2.37739 -2.88844 0
M  V30 31199 H 3032.89 3.14309 -3.78775 0
M  V30 31200 N 3034.54 1.35531 0.804316 0
M  V30 31201 C 3035.45 1.30756 1.94782 0
M  V30 31202 C 3036.47 0.212102 1.72702 0
M  V30 31203 O 3037.64 0.441875 1.96493 0
M  V30 31204 C 3034.71 1.08139 3.29404 0
M  V30 31205 C 3033.77 2.27019 3.64363 0
M  V30 31206 C 3033 2.05471 4.92562 0
M  V30 31207 O 3033.22 1.02231 5.61164 0
M  V30 31208 O 3032.16 2.92889 5.25833 0
M  V30 31209 H 3035.98 2.26998 2.01757 0
M  V30 31210 H 3033.57 1.15925 0.942428 0
M  V30 31211 H 3035.45 0.973828 4.09993 0
M  V30 31212 H 3034.13 0.149501 3.23355 0
M  V30 31213 H 3033.03 2.4334 2.84141 0
M  V30 31214 H 3034.37 3.18663 3.7512 0
M  V30 31215 N 3036.02 -1.02674 1.19565 0
M  V30 31216 C 3036.97 -2.09352 0.903092 0
M  V30 31217 C 3037.95 -1.6035 -0.13298 0
M  V30 31218 O 3039.14 -1.76849 0.0730055 0
M  V30 31219 C 3036.27 -3.40392 0.445911 0
M  V30 31220 C 3035.36 -3.96123 1.51484 0
M  V30 31221 N 3035.75 -4.2549 2.73481 0
M  V30 31222 C 3034.05 -4.24158 1.37863 0
M  V30 31223 C 3034.75 -4.70284 3.42357 0
M  V30 31224 N 3033.72 -4.71947 2.69754 0
M  V30 31225 H 3037.53 -2.29953 1.83027 0
M  V30 31226 H 3035.04 -1.20554 1.08814 0
M  V30 31227 H 3037.04 -4.16331 0.217763 0
M  V30 31228 H 3035.7 -3.2121 -0.474764 0
M  V30 31229 H 3036.71 -4.14706 3.10225 0
M  V30 31230 H 3033.39 -4.14229 0.521585 0
M  V30 31231 H 3034.78 -5.0191 4.46695 0
M  V30 31232 N 3037.5 -0.999914 -1.21817 0
M  V30 31233 C 3038.74 -0.678385 -1.90374 0
M  V30 31234 C 3039.06 0.792792 -1.78157 0
M  V30 31235 O 3038.33 1.56883 -1.17322 0
M  V30 31236 H 3036.91 -0.247927 -0.704657 0
M  V30 31237 H 3039.58 -1.26793 -1.48019 0
M  V30 31238 H 3038.67 -0.947076 -2.97383 0
M  V30 31239 N 3038.97 1.37284 -0.773999 0
M  V30 31240 C 3040.22 1.99636 -0.339341 0
M  V30 31241 C 3040.55 1.61441 1.08475 0
M  V30 31242 O 3039.8 0.853283 1.76118 0
M  V30 31243 C 3040.1 3.54771 -0.432714 0
M  V30 31244 C 3039.77 4.1274 -1.81539 0
M  V30 31245 C 3038.43 4.28286 -2.19374 0
M  V30 31246 C 3040.78 4.44507 -2.72145 0
M  V30 31247 C 3038.11 4.72902 -3.47247 0
M  V30 31248 C 3040.46 4.90549 -3.9943 0
M  V30 31249 C 3039.13 5.043 -4.37307 0
M  V30 31250 H 3038.4 0.730522 -0.124174 0
M  V30 31251 H 3041.04 1.64017 -0.988461 0
M  V30 31252 H 3039.35 3.9065 0.299941 0
M  V30 31253 H 3041.05 4.00925 -0.0776704 0
M  V30 31254 H 3037.64 4.01069 -1.51133 0
M  V30 31255 H 3041.82 4.3208 -2.44173 0
M  V30 31256 H 3037.08 4.81735 -3.76485 0
M  V30 31257 H 3041.25 5.14096 -4.69765 0
M  V30 31258 H 3038.88 5.38631 -5.36451 0
M  V30 31259 N 3040.45 0.524724 1.48608 0
M  V30 31260 C 3041.87 0.182227 1.58556 0
M  V30 31261 C 3042.07 -1.31432 1.52735 0
M  V30 31262 O 3041.12 -2.09217 1.41366 0
M  V30 31263 C 3042.44 0.780091 2.90405 0
M  V30 31264 C 3043.98 0.748346 3.03922 0
M  V30 31265 C 3044.46 1.32469 4.38424 0
M  V30 31266 N 3045.95 1.28643 4.44978 0
M  V30 31267 C 3046.69 1.70233 5.47548 0
M  V30 31268 N 3046.18 2.19527 6.571 0
M  V30 31269 N 3047.97 1.61502 5.38399 0
M  V30 31270 H 3040.13 1.49743 1.50635 0
M  V30 31271 H 3042.39 0.622546 0.714941 0
M  V30 31272 H 3042.09 1.83057 3.00305 0
M  V30 31273 H 3041.97 0.254141 3.76343 0
M  V30 31274 H 3044.36 -0.293355 2.93638 0
M  V30 31275 H 3044.44 1.31171 2.19609 0
M  V30 31276 H 3044.08 2.3653 4.49462 0
M  V30 31277 H 3044.01 0.737059 5.21416 0
M  V30 31278 H 3046.5 0.925514 3.66391 0
M  V30 31279 H 3046.81 2.4927 7.31495 0
M  V30 31280 H 3045.16 2.23517 6.58077 0
M  V30 31281 H 3048.35 1.22792 4.51707 0
M  V30 31282 H 3048.52 1.94236 6.18204 0
M  V30 31283 N 3041.93 -1.55447 0.259613 0
M  V30 31284 C 3043.35 -1.59317 -0.094933 0
M  V30 31285 C 3043.55 -1.27683 -1.55882 0
M  V30 31286 O 3042.6 -1.03024 -2.30526 0
M  V30 31287 C 3043.91 -2.99524 0.265721 0
M  V30 31288 C 3045.46 -3.12288 0.211062 0
M  V30 31289 C 3045.94 -4.54735 0.545931 0
M  V30 31290 N 3047.43 -4.60527 0.496903 0
M  V30 31291 C 3048.16 -5.68747 0.729009 0
M  V30 31292 N 3047.66 -6.85177 1.02491 0
M  V30 31293 N 3049.45 -5.58225 0.658854 0
M  V30 31294 H 3041.6 -1.74278 1.21413 0
M  V30 31295 H 3043.87 -0.811895 0.489418 0
M  V30 31296 H 3043.57 -3.27455 1.28321 0
M  V30 31297 H 3043.45 -3.75062 -0.401023 0
M  V30 31298 H 3045.83 -2.8413 -0.797122 0
M  V30 31299 H 3045.91 -2.38996 0.911841 0
M  V30 31300 H 3045.56 -4.83615 1.55173 0
M  V30 31301 H 3045.49 -5.26304 -0.176467 0
M  V30 31302 H 3047.98 -3.7688 0.277443 0
M  V30 31303 H 3048.29 -7.63597 1.1891 0
M  V30 31304 H 3046.64 -6.8683 1.06252 0
M  V30 31305 H 3049.83 -4.66143 0.427635 0
M  V30 31306 H 3050 -6.42491 0.843133 0
M  V30 31307 N 3043.41 0.0133338 -1.57594 0
M  V30 31308 C 3044.64 0.712294 -1.94252 0
M  V30 31309 C 3045.05 1.68042 -0.860659 0
M  V30 31310 O 3044.41 1.81783 0.1616 0
M  V30 31311 C 3044.46 1.45575 -3.30893 0
M  V30 31312 O 3044.18 0.526463 -4.34925 0
M  V30 31313 C 3045.68 2.25043 -3.8193 0
M  V30 31314 H 3042.9 0.19923 -0.64074 0
M  V30 31315 H 3045.44 -0.0338215 -2.04472 0
M  V30 31316 H 3043.6 2.15361 -3.22023 0
M  V30 31317 H 3044.01 1.04953 -5.13892 0
M  V30 31318 H 3045.49 2.72581 -4.80004 0
M  V30 31319 H 3045.96 3.07146 -3.13939 0
M  V30 31320 H 3046.57 1.60301 -3.93934 0
M  V30 31321 N 3044.89 1.54985 0.285878 0
M  V30 31322 C 3046.11 1.78994 1.03773 0
M  V30 31323 C 3046.53 0.556845 1.80401 0
M  V30 31324 O 3045.89 -0.47377 1.76243 0
M  V30 31325 C 3045.94 3.00706 2.00645 0
M  V30 31326 O 3045.66 4.19251 1.27123 0
M  V30 31327 C 3047.16 3.37219 2.87747 0
M  V30 31328 H 3044.38 0.596591 0.307115 0
M  V30 31329 H 3046.92 2.01972 0.320564 0
M  V30 31330 H 3045.08 2.79891 2.67843 0
M  V30 31331 H 3045.49 4.87974 1.92307 0
M  V30 31332 H 3046.97 4.25586 3.51541 0
M  V30 31333 H 3047.44 2.56045 3.56844 0
M  V30 31334 H 3048.05 3.60246 2.26059 0
M  V30 31335 N 3046.36 -0.549794 1.47699 0
M  V30 31336 C 3047.78 -1.13189 1.48476 0
M  V30 31337 C 3048.13 -1.94683 0.243538 0
M  V30 31338 O 3047.25 -2.06377 -0.650973 0
M  V30 31339 C 3047.85 -2.05939 2.69025 0
M  V30 31340 C 3046.41 -2.59405 2.72738 0
M  V30 31341 C 3045.55 -1.35939 2.41694 0
M  V30 31342 H 3048.5 -0.33602 1.55102 0
M  V30 31343 H 3048.52 -2.89929 2.46417 0
M  V30 31344 H 3048.04 -1.46599 3.59347 0
M  V30 31345 H 3046.14 -3.22523 1.86574 0
M  V30 31346 H 3046.25 -2.99892 3.73633 0
M  V30 31347 H 3044.61 -1.6686 1.92431 0
M  V30 31348 H 3045.4 -0.78381 3.34232 0
M  V30 31349 N 3047.84 -1.35955 -0.797117 0
M  V30 31350 C 3049.25 -1.26647 -1.37177 0
M  V30 31351 C 3049.6 0.0970702 -1.9596 0
M  V30 31352 O 3048.73 0.998321 -1.91996 0
M  V30 31353 C 3049.32 -2.29324 -2.49391 0
M  V30 31354 C 3047.88 -2.23728 -3.02693 0
M  V30 31355 C 3047.03 -2.1452 -1.75717 0
M  V30 31356 H 3049.98 -1.46946 -0.599381 0
M  V30 31357 H 3050 -1.92521 -3.28201 0
M  V30 31358 H 3049.51 -3.28553 -2.06578 0
M  V30 31359 H 3047.62 -1.2794 -3.49946 0
M  V30 31360 H 3047.73 -3.16093 -3.60031 0
M  V30 31361 H 3046.09 -1.60649 -1.97646 0
M  V30 31362 H 3046.88 -3.15624 -1.35043 0
M  V30 31363 N 3049.32 1.02038 -1.20108 0
M  V30 31364 C 3050.55 1.79185 -1.03443 0
M  V30 31365 C 3050.96 1.84148 0.41651 0
M  V30 31366 O 3050.32 1.29171 1.28923 0
M  V30 31367 C 3050.37 3.23833 -1.60669 0
M  V30 31368 O 3050.09 3.19188 -3.00085 0
M  V30 31369 C 3051.59 4.17543 -1.48905 0
M  V30 31370 H 3048.81 0.563623 -0.364102 0
M  V30 31371 H 3051.36 1.28467 -1.59112 0
M  V30 31372 H 3049.51 3.71712 -1.09129 0
M  V30 31373 H 3049.93 4.09952 -3.27169 0
M  V30 31374 H 3051.4 5.16894 -1.93712 0
M  V30 31375 H 3051.88 4.36981 -0.44092 0
M  V30 31376 H 3052.48 3.75544 -1.99617 0
M  V30 31377 N 3050.8 1.00636 1.21285 0
M  V30 31378 C 3052.03 0.708712 1.94383 0
M  V30 31379 C 3052.44 -0.728927 1.74161 0
M  V30 31380 O 3051.8 -1.49333 1.04909 0
M  V30 31381 C 3051.85 1.02199 3.46753 0
M  V30 31382 O 3051.57 2.40315 3.66306 0
M  V30 31383 C 3053.07 0.743944 4.37013 0
M  V30 31384 H 3050.29 0.261063 0.618132 0
M  V30 31385 H 3052.84 1.34477 1.54065 0
M  V30 31386 H 3050.99 0.431508 3.84989 0
M  V30 31387 H 3051.4 2.51283 4.60388 0
M  V30 31388 H 3052.88 1.01331 5.4262 0
M  V30 31389 H 3053.36 -0.322007 4.38018 0
M  V30 31390 H 3053.96 1.3161 4.04424 0
M  V30 31391 N 3052.28 -1.36872 0.781268 0
M  V30 31392 C 3053.24 -2.28491 0.180134 0
M  V30 31393 C 3054.24 -1.48459 -0.617772 0
M  V30 31394 O 3055.43 -1.68553 -0.439962 0
M  V30 31395 C 3052.56 -3.32509 -0.751682 0
M  V30 31396 H 3053.75 -2.83162 0.987887 0
M  V30 31397 H 3051.31 -1.46299 0.550127 0
M  V30 31398 H 3052.04 -2.82979 -1.58408 0
M  V30 31399 H 3051.83 -3.91679 -0.181581 0
M  V30 31400 H 3053.32 -4.00951 -1.1674 0
M  V30 31401 N 3053.75 -0.532597 -1.48328 0
M  V30 31402 C 3054.98 -0.00357936 -2.069 0
M  V30 31403 C 3055.4 1.279 -1.38878 0
M  V30 31404 O 3054.75 1.76152 -0.47715 0
M  V30 31405 C 3054.81 0.221353 -3.60822 0
M  V30 31406 O 3054.53 -1.01041 -4.26289 0
M  V30 31407 C 3056.03 0.790454 -4.36196 0
M  V30 31408 H 3053.25 -0.0346953 -0.670102 0
M  V30 31409 H 3055.79 -0.738989 -1.90681 0
M  V30 31410 H 3053.95 0.906818 -3.76637 0
M  V30 31411 H 3054.36 -0.792774 -5.18474 0
M  V30 31412 H 3055.83 0.897252 -5.44659 0
M  V30 31413 H 3056.31 1.79598 -4.00801 0
M  V30 31414 H 3056.92 0.141471 -4.25065 0
M  V30 31415 N 3055.23 1.55307 -0.267853 0
M  V30 31416 C 3056.64 1.85262 0.231311 0
M  V30 31417 C 3056.99 1.18985 1.56004 0
M  V30 31418 O 3056.12 0.475591 2.11109 0
M  V30 31419 C 3056.71 3.36105 0.426478 0
M  V30 31420 C 3055.27 3.6621 0.869881 0
M  V30 31421 C 3054.42 2.7727 -0.041001 0
M  V30 31422 H 3057.37 1.50951 -0.489847 0
M  V30 31423 H 3057.39 3.58818 1.2661 0
M  V30 31424 H 3056.9 3.84314 -0.540746 0
M  V30 31425 H 3055.01 3.23495 1.84883 0
M  V30 31426 H 3055.12 4.73776 0.712233 0
M  V30 31427 H 3053.48 2.5025 0.474053 0
M  V30 31428 H 3054.27 3.28291 -1.00398 0
M  V30 31429 N 3056.71 -0.00497598 1.57599 0
M  V30 31430 C 3057.96 -0.690028 1.8953 0
M  V30 31431 C 3058.27 -1.75212 0.869482 0
M  V30 31432 O 3059.48 -2.49145 1.07883 0
M  V30 31433 C 3057.93 -1.27846 3.36427 0
M  V30 31434 C 3057.54 -0.251453 4.47294 0
M  V30 31435 C 3059.29 -1.942 3.77474 0
M  V30 31436 C 3057.19 -0.849597 5.85266 0
M  V30 31437 H 3056.12 -0.261487 0.707206 0
M  V30 31438 H 3058.77 0.0547531 1.83418 0
M  V30 31439 H 3057.16 -2.07375 3.3736 0
M  V30 31440 H 3058.33 0.518876 4.57869 0
M  V30 31441 H 3056.65 0.311354 4.15234 0
M  V30 31442 H 3059.24 -2.39847 4.77889 0
M  V30 31443 H 3059.59 -2.77046 3.10727 0
M  V30 31444 H 3060.12 -1.21412 3.78819 0
M  V30 31445 H 3056.86 -0.0600256 6.55473 0
M  V30 31446 H 3056.38 -1.5892 5.78364 0
M  V30 31447 H 3058.06 -1.34973 6.32765 0
M  V30 31448 N 3058.19 -1.55135 -0.277654 0
M  V30 31449 C 3059.6 -1.4687 -0.624599 0
M  V30 31450 C 3059.8 -0.678992 -1.89715 0
M  V30 31451 O 3058.86 -0.195983 -2.51738 0
M  V30 31452 C 3060.17 -2.91044 -0.755886 0
M  V30 31453 C 3061.72 -3.0123 -0.850246 0
M  V30 31454 C 3062.2 -4.46649 -1.01335 0
M  V30 31455 N 3063.69 -4.50458 -1.07898 0
M  V30 31456 C 3064.42 -5.60186 -1.2239 0
M  V30 31457 N 3063.92 -6.7979 -1.3363 0
M  V30 31458 N 3065.71 -5.47919 -1.25463 0
M  V30 31459 H 3057.86 -2.04936 0.558138 0
M  V30 31460 H 3060.13 -0.929122 0.188245 0
M  V30 31461 H 3059.83 -3.51532 0.108654 0
M  V30 31462 H 3059.71 -3.39796 -1.63764 0
M  V30 31463 H 3062.09 -2.40842 -1.70526 0
M  V30 31464 H 3062.17 -2.55739 0.0560131 0
M  V30 31465 H 3061.82 -5.07638 -0.163013 0
M  V30 31466 H 3061.75 -4.89793 -1.93419 0
M  V30 31467 H 3064.24 -3.64299 -1.0047 0
M  V30 31468 H 3064.55 -7.59169 -1.44509 0
M  V30 31469 H 3062.9 -6.82611 -1.30643 0
M  V30 31470 H 3066.09 -4.5342 -1.16309 0
M  V30 31471 H 3066.26 -6.33479 -1.36413 0
M  V30 31472 N 3059.67 0.541953 -1.47989 0
M  V30 31473 C 3060.62 1.64356 -1.58022 0
M  V30 31474 C 3061.6 1.54821 -0.438083 0
M  V30 31475 O 3062.79 1.63045 -0.688866 0
M  V30 31476 C 3059.92 3.03106 -1.61188 0
M  V30 31477 C 3059.01 3.17789 -2.80839 0
M  V30 31478 N 3059.4 3.02485 -4.05384 0
M  V30 31479 C 3057.7 3.48821 -2.77921 0
M  V30 31480 C 3058.4 3.20266 -4.85597 0
M  V30 31481 N 3057.37 3.47296 -4.18194 0
M  V30 31482 H 3061.18 1.51116 -2.52074 0
M  V30 31483 H 3058.69 0.747111 -1.44194 0
M  V30 31484 H 3060.69 3.82223 -1.66468 0
M  V30 31485 H 3059.35 3.17448 -0.682431 0
M  V30 31486 H 3060.36 2.79495 -4.36008 0
M  V30 31487 H 3057.03 3.69594 -1.94181 0
M  V30 31488 H 3058.42 3.13272 -5.94399 0
M  V30 31489 N 3061.15 1.36376 0.789896 0
M  V30 31490 C 3062.56 1.16779 1.08788 0
M  V30 31491 C 3062.76 -0.00844695 2.01498 0
M  V30 31492 O 3061.82 -0.673964 2.43339 0
M  V30 31493 C 3063.13 2.4784 1.70281 0
M  V30 31494 C 3064.68 2.54199 1.82624 0
M  V30 31495 C 3065.15 3.85346 2.47532 0
M  V30 31496 N 3066.64 3.86689 2.55001 0
M  V30 31497 C 3067.38 4.84904 3.06033 0
M  V30 31498 N 3066.88 5.93511 3.57374 0
M  V30 31499 N 3068.67 4.72324 3.0474 0
M  V30 31500 H 3060.82 2.11687 0.173948 0
M  V30 31501 H 3063.08 0.937638 0.139781 0
M  V30 31502 H 3062.79 3.34178 1.09627 0
M  V30 31503 H 3062.66 2.63611 2.69794 0
M  V30 31504 H 3065.05 1.6828 2.42417 0
M  V30 31505 H 3065.13 2.42328 0.819187 0
M  V30 31506 H 3064.77 4.71671 1.88385 0
M  V30 31507 H 3064.7 3.94513 3.48808 0
M  V30 31508 H 3067.2 3.08225 2.18646 0
M  V30 31509 H 3067.51 6.64426 3.94662 0
M  V30 31510 H 3065.85 5.97181 3.55528 0
M  V30 31511 H 3069.04 3.86607 2.63918 0
M  V30 31512 H 3069.22 5.49025 3.44202 0
M  V30 31513 N 3062.62 -1.014 1.20647 0
M  V30 31514 C 3064.03 -1.56488 1.01826 0
M  V30 31515 C 3064.39 -1.91551 -0.424596 0
M  V30 31516 O 3063.51 -1.72516 -1.30641 0
M  V30 31517 C 3064.11 -2.84343 1.84213 0
M  V30 31518 C 3062.66 -3.3595 1.69749 0
M  V30 31519 C 3061.81 -2.0923 1.81984 0
M  V30 31520 H 3064.76 -0.837516 1.34801 0
M  V30 31521 H 3064.78 -3.55858 1.34704 0
M  V30 31522 H 3064.3 -2.58792 2.8922 0
M  V30 31523 H 3062.4 -3.66455 0.673897 0
M  V30 31524 H 3062.51 -4.07977 2.5118 0
M  V30 31525 H 3060.87 -2.21806 1.25197 0
M  V30 31526 H 3061.66 -1.86102 2.8848 0
M  V30 31527 N 3064.1 -1.01278 -1.2075 0
M  V30 31528 C 3065.52 -0.726959 -1.42083 0
M  V30 31529 C 3065.72 0.694874 -1.8914 0
M  V30 31530 O 3064.77 1.46316 -2.05786 0
M  V30 31531 C 3066.09 -1.74943 -2.44572 0
M  V30 31532 C 3067.63 -1.76713 -2.58344 0
M  V30 31533 C 3068.11 -2.77875 -3.64073 0
M  V30 31534 N 3069.6 -2.76591 -3.71553 0
M  V30 31535 C 3070.34 -3.51525 -4.53009 0
M  V30 31536 N 3069.83 -4.36124 -5.38301 0
M  V30 31537 N 3071.62 -3.4014 -4.47506 0
M  V30 31538 H 3063.78 -1.93075 -0.885194 0
M  V30 31539 H 3066.04 -0.833816 -0.45106 0
M  V30 31540 H 3065.74 -2.76786 -2.16985 0
M  V30 31541 H 3065.62 -1.55844 -3.435 0
M  V30 31542 H 3068.01 -0.755566 -2.85263 0
M  V30 31543 H 3068.09 -1.99884 -1.59624 0
M  V30 31544 H 3067.73 -3.79193 -3.37898 0
M  V30 31545 H 3067.66 -2.51967 -4.62407 0
M  V30 31546 H 3070.15 -2.15221 -3.10626 0
M  V30 31547 H 3070.46 -4.90078 -5.97531 0
M  V30 31548 H 3068.81 -4.40203 -5.37816 0
M  V30 31549 H 3072 -2.73474 -3.79907 0
M  V30 31550 H 3072.17 -3.98793 -5.10752 0
M  V30 31551 N 3065.58 1.36456 -0.788516 0
M  V30 31552 C 3066.99 1.81827 -0.423774 0
M  V30 31553 C 3067.34 1.65601 1.05218 0
M  V30 31554 O 3066.47 1.17645 1.81628 0
M  V30 31555 C 3067.06 3.3011 -0.762412 0
M  V30 31556 C 3065.62 3.73694 -0.450511 0
M  V30 31557 C 3064.77 2.58737 -0.997527 0
M  V30 31558 H 3067.72 1.2469 -0.98174 0
M  V30 31559 H 3067.74 3.80463 -0.0531805 0
M  V30 31560 H 3067.25 3.41888 -1.83668 0
M  V30 31561 H 3065.35 3.67477 0.615764 0
M  V30 31562 H 3065.47 4.69168 -0.970491 0
M  V30 31563 H 3063.83 2.512 -0.420805 0
M  V30 31564 H 3064.61 2.733 -2.07754 0
M  V30 31565 N 3067.06 0.540456 1.48043 0
M  V30 31566 C 3068.29 0.0145306 2.06595 0
M  V30 31567 C 3068.7 -1.2771 1.39595 0
M  V30 31568 O 3068.04 -1.77296 0.480825 0
M  V30 31569 C 3068.1 -0.269253 3.5849 0
M  V30 31570 C 3067.76 0.930451 4.47428 0
M  V30 31571 C 3068.76 1.83164 4.86567 0
M  V30 31572 C 3066.45 1.1404 4.89183 0
M  V30 31573 C 3068.44 2.92659 5.66241 0
M  V30 31574 C 3066.13 2.23848 5.68626 0
M  V30 31575 C 3067.13 3.1299 6.07064 0
M  V30 31576 O 3066.81 4.20896 6.8491 0
M  V30 31577 H 3066.55 0.0351586 0.675085 0
M  V30 31578 H 3069.1 0.748563 1.91274 0
M  V30 31579 H 3067.33 -1.05739 3.71963 0
M  V30 31580 H 3069.02 -0.738525 3.99125 0
M  V30 31581 H 3069.78 1.68142 4.54921 0
M  V30 31582 H 3065.66 0.455797 4.58741 0
M  V30 31583 H 3069.21 3.62265 5.96163 0
M  V30 31584 H 3065.1 2.3885 5.99684 0
M  V30 31585 H 3065.87 4.18736 7.0328 0
M  V30 31586 N 3068.54 -1.55163 0.276085 0
M  V30 31587 C 3069.95 -1.85382 -0.221483 0
M  V30 31588 C 3070.3 -1.1981 -1.5537 0
M  V30 31589 O 3069.42 -0.48678 -2.10854 0
M  V30 31590 C 3070.02 -3.36327 -0.408647 0
M  V30 31591 C 3068.58 -3.66667 -0.850447 0
M  V30 31592 C 3067.72 -2.77244 0.0557047 0
M  V30 31593 H 3070.67 -1.50689 0.497845 0
M  V30 31594 H 3070.7 -3.59484 -1.24705 0
M  V30 31595 H 3070.21 -3.84022 0.561119 0
M  V30 31596 H 3068.31 -3.24471 -1.83165 0
M  V30 31597 H 3068.42 -4.74147 -0.687097 0
M  V30 31598 H 3066.79 -2.50497 -0.460775 0
M  V30 31599 H 3067.57 -3.27754 1.02137 0
M  V30 31600 N 3070.01 -0.00338196 -1.576 0
M  V30 31601 C 3071.42 0.538977 -1.78751 0
M  V30 31602 C 3071.78 1.73761 -0.911127 0
M  V30 31603 O 3070.9 2.16097 -0.114514 0
M  V30 31604 C 3071.5 0.984554 -3.24179 0
M  V30 31605 C 3070.05 1.4722 -3.46415 0
M  V30 31606 C 3069.2 0.424956 -2.74024 0
M  V30 31607 H 3072.15 -0.229539 -1.57031 0
M  V30 31608 H 3072.17 1.85038 -3.32477 0
M  V30 31609 H 3071.69 0.111967 -3.87938 0
M  V30 31610 H 3069.79 2.36557 -2.87875 0
M  V30 31611 H 3069.9 1.49733 -4.55101 0
M  V30 31612 H 3068.26 0.887352 -2.38743 0
M  V30 31613 H 3069.05 -0.438722 -3.40485 0
M  V30 31614 N 3071.49 1.5528 0.269423 0
M  V30 31615 C 3072.44 1.892 1.353 0
M  V30 31616 C 3073.43 0.768697 1.50955 0
M  V30 31617 O 3074.64 0.953081 1.52697 0
M  V30 31618 H 3071.01 0.600562 0.45258 0
M  V30 31619 H 3072.99 2.79711 1.03944 0
M  V30 31620 C 3071.73 2.1836 2.70581 0
M  V30 31621 H 3071.06 3.04286 2.59327 0
M  V30 31622 H 3072.5 2.46013 3.45331 0
M  V30 31623 C 3070.96 0.992384 3.21952 0
M  V30 31624 O 3071.49 0.228839 4.01048 0
M  V30 31625 N 3069.69 0.789111 2.79681 0
M  V30 31626 H 3069.24 1.41171 2.15473 0
M  V30 31627 H 3069.2 -0.00629249 3.14399 0
M  V30 31628 N 3072.97 -0.534097 1.48274 0
M  V30 31629 C 3074.22 -1.29206 1.56313 0
M  V30 31630 C 3074.55 -1.92779 0.234515 0
M  V30 31631 O 3073.82 -1.79075 -0.759111 0
M  V30 31632 C 3074.11 -2.38456 2.69835 0
M  V30 31633 C 3073.96 -1.796 4.12388 0
M  V30 31634 C 3075.28 -3.40249 2.79139 0
M  V30 31635 H 3072.4 -0.468412 0.568998 0
M  V30 31636 H 3075.04 -0.595406 1.8043 0
M  V30 31637 H 3073.19 -2.97877 2.49402 0
M  V30 31638 H 3074.86 -1.24262 4.44249 0
M  V30 31639 H 3073.1 -1.10155 4.19581 0
M  V30 31640 H 3073.78 -2.58685 4.87633 0
M  V30 31641 H 3076.25 -2.90777 2.97637 0
M  V30 31642 H 3075.13 -4.14091 3.60305 0
M  V30 31643 H 3075.39 -4.00544 1.87129 0
M  V30 31644 N 3074.45 -1.36793 -0.782652 0
M  V30 31645 C 3075.7 -1.31139 -1.53776 0
M  V30 31646 C 3076.02 0.106979 -1.94706 0
M  V30 31647 O 3075.29 1.0487 -1.65467 0
M  V30 31648 H 3073.87 -0.482436 -0.57032 0
M  V30 31649 H 3076.53 -1.71164 -0.932151 0
M  V30 31650 H 3075.62 -1.94326 -2.44221 0
M  V30 31651 N 3075.93 1.00759 -1.21184 0
M  V30 31652 C 3076.84 2.12933 -0.984729 0
M  V30 31653 C 3077.85 1.73888 0.0623351 0
M  V30 31654 O 3079.03 2.00998 -0.127135 0
M  V30 31655 C 3076.09 3.42318 -0.549507 0
M  V30 31656 C 3075.15 3.95551 -1.66848 0
M  V30 31657 C 3074.39 5.1876 -1.25393 0
M  V30 31658 O 3074.61 5.7026 -0.126433 0
M  V30 31659 O 3073.54 5.65374 -2.06485 0
M  V30 31660 H 3077.37 2.34967 -1.92417 0
M  V30 31661 H 3074.96 1.11312 -0.99649 0
M  V30 31662 H 3076.84 4.2021 -0.316458 0
M  V30 31663 H 3075.51 3.21678 0.361248 0
M  V30 31664 H 3074.42 3.18897 -1.95591 0
M  V30 31665 H 3075.75 4.20595 -2.55657 0
M  V30 31666 N 3077.4 1.01917 1.20211 0
M  V30 31667 C 3078.31 0.601351 2.26762 0
M  V30 31668 C 3079.33 -0.362339 1.70185 0
M  V30 31669 O 3080.51 -0.222647 2.00166 0
M  V30 31670 C 3077.57 -0.051227 3.46662 0
M  V30 31671 C 3076.63 0.958732 4.18458 0
M  V30 31672 C 3075.87 0.337201 5.32634 0
M  V30 31673 O 3076.09 -0.862411 5.63843 0
M  V30 31674 O 3075.02 1.05521 5.92578 0
M  V30 31675 H 3078.85 1.48849 2.64722 0
M  V30 31676 H 3076.43 0.788807 1.26879 0
M  V30 31677 H 3078.32 -0.415566 4.19346 0
M  V30 31678 H 3076.99 -0.912517 3.10572 0
M  V30 31679 H 3075.9 1.37448 3.47935 0
M  V30 31680 H 3077.23 1.79007 4.58495 0
M  V30 31681 N 3078.88 -1.36036 0.795742 0
M  V30 31682 C 3080.13 -1.98322 0.36761 0
M  V30 31683 C 3080.44 -1.63856 -1.0682 0
M  V30 31684 O 3081.65 -2.19424 -1.59891 0
M  V30 31685 C 3080.11 -3.54756 0.606334 0
M  V30 31686 C 3079.71 -3.98141 2.05397 0
M  V30 31687 C 3081.46 -4.23804 0.243022 0
M  V30 31688 C 3079.37 -5.47377 2.23902 0
M  V30 31689 H 3078.3 -0.742049 0.133712 0
M  V30 31690 H 3080.95 -1.55249 0.978269 0
M  V30 31691 H 3079.33 -3.95931 -0.0741261 0
M  V30 31692 H 3080.5 -3.68148 2.77135 0
M  V30 31693 H 3078.82 -3.41949 2.37613 0
M  V30 31694 H 3081.41 -5.3349 0.359476 0
M  V30 31695 H 3081.76 -4.08352 -0.80959 0
M  V30 31696 H 3082.29 -3.88013 0.876967 0
M  V30 31697 H 3079.03 -5.67784 3.27569 0
M  V30 31698 H 3078.55 -5.78975 1.56676 0
M  V30 31699 H 3080.23 -6.1369 2.04924 0
M  V30 31700 N 3080.36 -0.5483 -1.47755 0
M  V30 31701 C 3081.29 0.24173 -2.27922 0
M  V30 31702 C 3082.31 0.887634 -1.36473 0
M  V30 31703 O 3083.49 0.762987 -1.61371 0
M  V30 31704 C 3080.59 1.35916 -3.10451 0
M  V30 31705 C 3079.77 0.811733 -4.29802 0
M  V30 31706 C 3078.83 1.81255 -4.93997 0
M  V30 31707 O 3077.85 1.3622 -5.5266 0
M  V30 31708 N 3079.05 3.14557 -4.87887 0
M  V30 31709 H 3081.82 -0.4459 -2.96364 0
M  V30 31710 H 3079.38 -0.383797 -1.57285 0
M  V30 31711 H 3081.37 2.02723 -3.50265 0
M  V30 31712 H 3079.94 1.95017 -2.4431 0
M  V30 31713 H 3079.16 -0.0328622 -3.94186 0
M  V30 31714 H 3080.45 0.425183 -5.0702 0
M  V30 31715 H 3079.85 3.53797 -4.41411 0
M  V30 31716 H 3078.41 3.76947 -5.31747 0
M  V30 31717 N 3081.84 1.55014 -0.28431 0
M  V30 31718 C 3083.09 1.98974 0.330515 0
M  V30 31719 C 3083.4 1.17624 1.56282 0
M  V30 31720 O 3084.61 1.51771 2.25118 0
M  V30 31721 C 3083.06 3.54175 0.639395 0
M  V30 31722 C 3082.67 4.44312 -0.573621 0
M  V30 31723 C 3084.41 4.06701 1.21634 0
M  V30 31724 C 3082.32 5.90918 -0.238818 0
M  V30 31725 H 3081.25 0.743181 0.127272 0
M  V30 31726 H 3083.9 1.79299 -0.390404 0
M  V30 31727 H 3082.28 3.69685 1.41946 0
M  V30 31728 H 3083.46 4.40573 -1.35028 0
M  V30 31729 H 3081.77 4.0247 -1.06804 0
M  V30 31730 H 3084.37 5.13787 1.48079 0
M  V30 31731 H 3084.71 3.5629 2.15321 0
M  V30 31732 H 3085.25 3.94666 0.498352 0
M  V30 31733 H 3081.99 6.45443 -1.14381 0
M  V30 31734 H 3081.51 5.97705 0.500892 0
M  V30 31735 H 3083.18 6.46788 0.16566 0
M  V30 31736 N 3083.32 0.0117398 1.57596 0
M  V30 31737 C 3084.56 -0.669309 1.90695 0
M  V30 31738 C 3084.89 -1.73657 0.88703 0
M  V30 31739 O 3084.16 -1.9576 -0.0739435 0
M  V30 31740 H 3082.74 -0.250207 0.703851 0
M  V30 31741 H 3085.4 0.05544 1.94821 0
M  V30 31742 H 3084.49 -1.13311 2.90804 0
M  V30 31743 N 3084.79 -1.55421 -0.261185 0
M  V30 31744 C 3085.74 -1.85499 -1.32568 0
M  V30 31745 C 3086.73 -0.714748 -1.44153 0
M  V30 31746 O 3087.92 -0.976362 -1.47635 0
M  V30 31747 C 3085.05 -2.14072 -2.68381 0
M  V30 31748 C 3084.14 -3.34386 -2.60858 0
M  V30 31749 N 3084.53 -4.54008 -2.22959 0
M  V30 31750 C 3082.82 -3.37211 -2.91898 0
M  V30 31751 C 3083.53 -5.36122 -2.25718 0
M  V30 31752 N 3082.5 -4.74823 -2.64659 0
M  V30 31753 H 3086.3 -2.75524 -1.02293 0
M  V30 31754 H 3083.82 -1.55456 -0.469822 0
M  V30 31755 H 3085.81 -2.3378 -3.45185 0
M  V30 31756 H 3084.47 -1.25337 -2.99534 0
M  V30 31757 H 3085.49 -4.79893 -1.94739 0
M  V30 31758 H 3082.16 -2.58706 -3.27685 0
M  V30 31759 H 3083.55 -6.41792 -1.98877 0
M  V30 31760 N 3086.27 0.526227 -1.48555 0
M  V30 31761 C 3087.52 1.27835 -1.56017 0
M  V30 31762 C 3087.83 1.94114 -0.240677 0
M  V30 31763 O 3089.04 2.70809 -0.193573 0
M  V30 31764 C 3087.5 2.31975 -2.75165 0
M  V30 31765 C 3087.1 1.71748 -4.13771 0
M  V30 31766 C 3088.85 3.08173 -2.91942 0
M  V30 31767 C 3086.76 2.7385 -5.24175 0
M  V30 31768 H 3085.69 0.480785 -0.580829 0
M  V30 31769 H 3088.34 0.555304 -1.74896 0
M  V30 31770 H 3086.72 3.07331 -2.49727 0
M  V30 31771 H 3087.89 1.02555 -4.49243 0
M  V30 31772 H 3086.21 1.08029 -4.02143 0
M  V30 31773 H 3088.8 3.84477 -3.71593 0
M  V30 31774 H 3089.15 3.64263 -2.0154 0
M  V30 31775 H 3089.68 2.39931 -3.17298 0
M  V30 31776 H 3086.42 2.22575 -6.16555 0
M  V30 31777 H 3085.94 3.4136 -4.93187 0
M  V30 31778 H 3087.62 3.36764 -5.52448 0
M  V30 31779 N 3087.75 1.37206 0.775387 0
M  V30 31780 C 3089.16 1.28813 1.35145 0
M  V30 31781 C 3089.51 -0.0658824 1.96089 0
M  V30 31782 O 3088.64 -0.96765 1.9356 0
M  V30 31783 C 3089.23 2.33263 2.45711 0
M  V30 31784 C 3087.79 2.28515 2.99095 0
M  V30 31785 C 3086.94 2.17288 1.72282 0
M  V30 31786 H 3089.89 1.47881 0.575928 0
M  V30 31787 H 3089.91 1.97718 3.25097 0
M  V30 31788 H 3089.42 3.31798 2.01325 0
M  V30 31789 H 3087.52 1.33491 3.47866 0
M  V30 31790 H 3087.64 3.21781 3.54956 0
M  V30 31791 H 3086 1.63773 1.95065 0
M  V30 31792 H 3086.78 3.17732 1.30005 0
M  V30 31793 N 3089.23 -1.00115 1.21716 0
M  V30 31794 C 3090.64 -1.2633 0.975343 0
M  V30 31795 C 3090.84 -1.98679 -0.335994 0
M  V30 31796 O 3089.9 -2.29141 -1.06069 0
M  V30 31797 C 3091.21 -2.08316 2.16852 0
M  V30 31798 C 3092.76 -2.2153 2.21119 0
M  V30 31799 C 3093.24 -3.069 3.39966 0
M  V30 31800 N 3094.73 -3.14488 3.40076 0
M  V30 31801 C 3095.46 -3.8081 4.28685 0
M  V30 31802 N 3094.96 -4.4913 5.27498 0
M  V30 31803 N 3096.75 -3.77489 4.16483 0
M  V30 31804 H 3088.9 -0.51586 2.0604 0
M  V30 31805 H 3091.17 -0.290392 0.902428 0
M  V30 31806 H 3090.87 -1.62509 3.11903 0
M  V30 31807 H 3090.75 -3.09069 2.16231 0
M  V30 31808 H 3093.13 -2.66554 1.26621 0
M  V30 31809 H 3093.21 -1.20234 2.25782 0
M  V30 31810 H 3092.86 -2.62577 4.34759 0
M  V30 31811 H 3092.79 -4.08318 3.32542 0
M  V30 31812 H 3095.28 -2.65857 2.68568 0
M  V30 31813 H 3095.59 -4.97453 5.91406 0
M  V30 31814 H 3093.94 -4.47904 5.3142 0
M  V30 31815 H 3097.13 -3.23272 3.38545 0
M  V30 31816 H 3097.3 -4.28899 4.85746 0
M  V30 31817 N 3090.71 -1.02553 -1.19669 0
M  V30 31818 C 3091.62 -0.613368 -2.2644 0
M  V30 31819 C 3092.63 0.353309 -1.70375 0
M  V30 31820 O 3093.81 0.212029 -2.00281 0
M  V30 31821 C 3090.87 0.0328419 -3.46684 0
M  V30 31822 C 3089.94 -0.980911 -4.17943 0
M  V30 31823 C 3089.17 -0.365443 -5.32447 0
M  V30 31824 O 3089.39 0.832497 -5.64292 0
M  V30 31825 O 3088.33 -1.08662 -5.9201 0
M  V30 31826 H 3092.15 -1.5025 -2.63929 0
M  V30 31827 H 3089.74 -0.795524 -1.26459 0
M  V30 31828 H 3091.62 0.393321 -4.1956 0
M  V30 31829 H 3090.29 0.896034 -3.11051 0
M  V30 31830 H 3089.2 -1.39292 -3.47201 0
M  V30 31831 H 3090.53 -1.81436 -4.57539 0
M  V30 31832 N 3092.19 1.35612 -0.802945 0
M  V30 31833 C 3093.46 1.93207 -0.305027 0
M  V30 31834 C 3093.84 1.7334 1.20485 0
M  V30 31835 O 3093.19 1.10026 2.00266 0
M  V30 31836 C 3093.4 3.41651 -0.712443 0
M  V30 31837 C 3094.75 4.18792 -0.699859 0
M  V30 31838 O 3095.77 3.50149 -0.653759 0
M  V30 31839 O 3094.63 5.41261 -0.754937 0
M  V30 31840 H 3091.73 0.823225 -0.0789272 0
M  V30 31841 H 3094.27 1.4471 -0.886398 0
M  V30 31842 H 3093.04 3.49825 -1.75322 0
M  V30 31843 H 3092.67 3.9746 -0.105683 0
M  V30 31844 N 3093.66 0.556128 1.47462 0
M  V30 31845 C 3094.91 0.0317162 2.02775 0
M  V30 31846 C 3095.24 -1.31428 1.4297 0
M  V30 31847 O 3094.52 -1.85498 0.584879 0
M  V30 31848 C 3094.8 -0.0625109 3.60046 0
M  V30 31849 C 3094.65 1.3105 4.30286 0
M  V30 31850 C 3095.97 -0.776476 4.33196 0
M  V30 31851 H 3093.09 0.0129999 0.736885 0
M  V30 31852 H 3095.73 0.718208 1.75903 0
M  V30 31853 H 3093.88 -0.647163 3.83072 0
M  V30 31854 H 3095.56 1.93827 4.18603 0
M  V30 31855 H 3093.8 1.88547 3.90682 0
M  V30 31856 H 3094.47 1.1973 5.38859 0
M  V30 31857 H 3096.95 -0.280074 4.15156 0
M  V30 31858 H 3095.82 -0.811365 5.4287 0
M  V30 31859 H 3096.08 -1.83237 4.02339 0
M  V30 31860 N 3095.14 -1.54861 0.292527 0
M  V30 31861 C 3096.42 -1.92032 -0.371912 0
M  V30 31862 C 3096.8 -1.21881 -1.72361 0
M  V30 31863 O 3096.15 -0.351613 -2.25779 0
M  V30 31864 C 3096.36 -3.45472 -0.494966 0
M  V30 31865 C 3097.7 -4.17564 -0.769782 0
M  V30 31866 O 3098.73 -3.51461 -0.579106 0
M  V30 31867 O 3097.59 -5.34573 -1.13551 0
M  V30 31868 H 3094.68 -0.800817 -0.206449 0
M  V30 31869 H 3097.23 -1.6626 0.339962 0
M  V30 31870 H 3096 -3.88639 0.455596 0
M  V30 31871 H 3095.62 -3.77253 -1.25564 0
M  V30 31872 N 3096.62 -0.0200973 -1.57587 0
M  V30 31873 C 3097.85 0.669957 -1.95436 0
M  V30 31874 C 3098.26 1.6671 -0.894676 0
M  V30 31875 O 3097.6 1.83218 0.132976 0
M  V30 31876 C 3097.66 1.44041 -3.29382 0
M  V30 31877 C 3097.33 0.602611 -4.53009 0
M  V30 31878 C 3098.32 -0.11828 -5.19765 0
M  V30 31879 C 3096.01 0.542666 -4.9936 0
M  V30 31880 C 3098 -0.887885 -6.31186 0
M  V30 31881 C 3095.69 -0.23065 -6.10665 0
M  V30 31882 C 3096.69 -0.944641 -6.76436 0
M  V30 31883 O 3096.38 -1.7053 -7.85605 0
M  V30 31884 H 3096.11 0.190223 -0.648684 0
M  V30 31885 H 3098.66 -0.0734199 -2.05269 0
M  V30 31886 H 3096.89 2.22872 -3.16014 0
M  V30 31887 H 3098.58 2.01771 -3.52198 0
M  V30 31888 H 3099.35 -0.0812456 -4.84932 0
M  V30 31889 H 3095.23 1.08796 -4.47978 0
M  V30 31890 H 3098.77 -1.4457 -6.82455 0
M  V30 31891 H 3094.67 -0.269434 -6.44937 0
M  V30 31892 H 3095.43 -1.62412 -8.02225 0
M  V30 31893 N 3098.1 1.55557 0.252939 0
M  V30 31894 C 3099.05 1.86199 1.31582 0
M  V30 31895 C 3100.03 0.722382 1.43772 0
M  V30 31896 O 3101.22 0.984178 1.47115 0
M  V30 31897 C 3098.35 2.15492 2.67242 0
M  V30 31898 C 3097.44 3.35765 2.59081 0
M  V30 31899 N 3097.83 4.55184 2.20548 0
M  V30 31900 C 3096.13 3.38755 2.90106 0
M  V30 31901 C 3096.83 5.37311 2.22871 0
M  V30 31902 N 3095.8 4.7622 2.62137 0
M  V30 31903 H 3099.61 2.76062 1.0083 0
M  V30 31904 H 3097.12 1.55703 0.461571 0
M  V30 31905 H 3099.12 2.35608 3.4394 0
M  V30 31906 H 3097.78 1.26924 2.98865 0
M  V30 31907 H 3098.79 4.80919 1.92192 0
M  V30 31908 H 3095.47 2.6044 3.26309 0
M  V30 31909 H 3096.86 6.42838 1.95471 0
M  V30 31910 N 3099.58 -0.518341 1.48832 0
M  V30 31911 C 3100.51 -1.63072 1.67122 0
M  V30 31912 C 3101.49 -1.61958 0.519976 0
M  V30 31913 O 3102.67 -1.78971 0.753855 0
M  V30 31914 C 3099.8 -3.01624 1.72163 0
M  V30 31915 C 3098.76 -3.17601 2.86904 0
M  V30 31916 C 3098.08 -4.5733 2.77043 0
M  V30 31917 C 3099.38 -2.99266 4.28062 0
M  V30 31918 H 3101.08 -1.48021 2.6025 0
M  V30 31919 H 3098.62 -0.710672 1.25242 0
M  V30 31920 H 3100.57 -3.79327 1.83545 0
M  V30 31921 H 3099.3 -3.17725 0.756213 0
M  V30 31922 H 3097.96 -2.42318 2.75095 0
M  V30 31923 H 3097.61 -4.70283 1.78446 0
M  V30 31924 H 3097.31 -4.68963 3.54044 0
M  V30 31925 H 3098.83 -5.37117 2.9041 0
M  V30 31926 H 3100.24 -3.66752 4.40643 0
M  V30 31927 H 3098.64 -3.22384 5.06151 0
M  V30 31928 H 3099.71 -1.95567 4.43714 0
M  V30 31929 N 3101.05 -1.37615 -0.7681 0
M  V30 31930 C 3102.28 -1.3603 -1.55498 0
M  V30 31931 C 3102.69 0.0553941 -1.89119 0
M  V30 31932 O 3102.03 1.02856 -1.52205 0
M  V30 31933 C 3102.1 -2.13744 -2.89057 0
M  V30 31934 C 3101.76 -3.62679 -2.78052 0
M  V30 31935 C 3102.76 -4.56485 -2.48833 0
M  V30 31936 C 3100.44 -4.05849 -2.95959 0
M  V30 31937 C 3102.44 -5.91438 -2.37655 0
M  V30 31938 C 3100.12 -5.40887 -2.84402 0
M  V30 31939 C 3101.12 -6.33495 -2.5529 0
M  V30 31940 O 3100.81 -7.66051 -2.43765 0
M  V30 31941 H 3100.54 -0.467529 -0.488254 0
M  V30 31942 H 3103.1 -1.81609 -0.959551 0
M  V30 31943 H 3101.33 -1.6286 -3.50733 0
M  V30 31944 H 3103.01 -2.04747 -3.50476 0
M  V30 31945 H 3103.78 -4.24441 -2.3468 0
M  V30 31946 H 3099.66 -3.34124 -3.17619 0
M  V30 31947 H 3103.2 -6.6369 -2.14853 0
M  V30 31948 H 3099.1 -5.72532 -2.98123 0
M  V30 31949 H 3099.87 -7.76412 -2.59087 0
M  V30 31950 N 3102.53 0.994677 -1.22245 0
M  V30 31951 C 3103.94 1.54848 -1.04303 0
M  V30 31952 C 3104.29 1.92202 0.394068 0
M  V30 31953 O 3103.42 1.74573 1.2788 0
M  V30 31954 C 3104.01 2.81377 -1.88713 0
M  V30 31955 C 3102.57 3.33207 -1.75072 0
M  V30 31956 C 3101.72 2.06308 -1.85289 0
M  V30 31957 H 3104.67 0.815964 -1.36117 0
M  V30 31958 H 3104.69 3.5367 -1.40348 0
M  V30 31959 H 3104.2 2.54158 -2.933 0
M  V30 31960 H 3102.3 3.65337 -0.732112 0
M  V30 31961 H 3102.42 4.03929 -2.57639 0
M  V30 31962 H 3100.78 2.19786 -1.2871 0
M  V30 31963 H 3101.56 1.81489 -2.91404 0
M  V30 31964 N 3104.01 1.03186 1.19123 0
M  V30 31965 C 3104.96 0.58577 2.20347 0
M  V30 31966 C 3105.94 -0.367082 1.56657 0
M  V30 31967 O 3107.14 -0.187567 1.76003 0
M  V30 31968 C 3104.26 -0.0589403 3.43249 0
M  V30 31969 C 3103.35 0.91653 4.14078 0
M  V30 31970 N 3103.74 2.08013 4.61047 0
M  V30 31971 C 3102.04 0.740617 4.39808 0
M  V30 31972 C 3102.74 2.69561 5.15472 0
M  V30 31973 N 3101.72 1.97501 5.06452 0
M  V30 31974 H 3105.52 1.47263 2.54344 0
M  V30 31975 H 3103.03 0.899249 1.3523 0
M  V30 31976 H 3105.03 -0.396163 4.15013 0
M  V30 31977 H 3103.69 -0.941452 3.10752 0
M  V30 31978 H 3104.7 2.45942 4.55778 0
M  V30 31979 H 3101.38 -0.0925504 4.17397 0
M  V30 31980 H 3102.77 3.68122 5.62082 0
M  V30 31981 N 3105.49 -1.35184 0.810125 0
M  V30 31982 C 3106.74 -1.98274 0.391378 0
M  V30 31983 C 3107.06 -1.64578 -1.04589 0
M  V30 31984 O 3106.33 -0.930041 -1.72415 0
M  V30 31985 H 3104.91 -0.733432 0.141728 0
M  V30 31986 H 3107.57 -1.65038 1.03675 0
M  V30 31987 H 3106.67 -3.08069 0.499964 0
M  V30 31988 N 3106.97 -0.56394 -1.47165 0
M  V30 31989 C 3108.38 -0.13234 -1.8623 0
M  V30 31990 C 3108.73 1.29969 -1.46978 0
M  V30 31991 O 3107.85 1.97879 -0.875946 0
M  V30 31992 C 3108.45 -0.233394 -3.37995 0
M  V30 31993 C 3107.01 0.143212 -3.76127 0
M  V30 31994 C 3106.15 -0.577905 -2.71211 0
M  V30 31995 H 3109.11 -0.773273 -1.38586 0
M  V30 31996 H 3109.13 0.546243 -3.76559 0
M  V30 31997 H 3108.64 -1.27574 -3.66533 0
M  V30 31998 H 3106.74 1.18641 -3.53207 0
M  V30 31999 H 3106.85 -0.220036 -4.78594 0
M  V30 32000 H 3105.22 -0.0202308 -2.54692 0
M  V30 32001 H 3106 -1.62154 -3.0259 0
M  V30 32002 N 3108.44 1.54704 -0.300735 0
M  V30 32003 C 3109.69 1.99739 0.308009 0
M  V30 32004 C 3110.01 1.19064 1.54431 0
M  V30 32005 O 3109.28 0.286541 1.93793 0
M  V30 32006 H 3107.86 0.737812 0.116798 0
M  V30 32007 H 3110.53 1.90496 -0.412004 0
M  V30 32008 H 3109.62 3.06659 0.580233 0
M  V30 32009 N 3109.92 0.0284543 1.57574 0
M  V30 32010 C 3110.85 -0.952002 2.13212 0
M  V30 32011 C 3111.83 -1.33975 1.04808 0
M  V30 32012 O 3113.02 -1.41849 1.32637 0
M  V30 32013 C 3110.15 -2.23456 2.65866 0
M  V30 32014 C 3109.1 -1.98758 3.7905 0
M  V30 32015 C 3108.43 -3.33274 4.1813 0
M  V30 32016 C 3109.73 -1.3273 5.05153 0
M  V30 32017 H 3111.42 -0.488653 2.95385 0
M  V30 32018 H 3108.97 -0.233603 1.42093 0
M  V30 32019 H 3110.92 -2.92426 3.03423 0
M  V30 32020 H 3109.65 -2.71956 1.80852 0
M  V30 32021 H 3108.3 -1.32207 3.41931 0
M  V30 32022 H 3107.95 -3.79531 3.30099 0
M  V30 32023 H 3107.65 -3.17555 4.94401 0
M  V30 32024 H 3109.18 -4.03512 4.58269 0
M  V30 32025 H 3110.59 -1.91698 5.403 0
M  V30 32026 H 3108.99 -1.27411 5.86418 0
M  V30 32027 H 3110.06 -0.300176 4.8397 0
M  V30 32028 N 3111.4 -1.55689 -0.244686 0
M  V30 32029 C 3112.35 -1.91329 -1.32273 0
M  V30 32030 C 3113.34 -0.792615 -1.49713 0
M  V30 32031 O 3114.55 -0.977253 -1.51161 0
M  V30 32032 H 3110.92 -0.607686 -0.442969 0
M  V30 32033 H 3112.89 -2.81329 -0.99481 0
M  V30 32034 C 3111.64 -2.22638 -2.67073 0
M  V30 32035 H 3110.97 -3.08373 -2.54453 0
M  V30 32036 H 3112.41 -2.51476 -3.41373 0
M  V30 32037 C 3110.87 -1.04348 -3.20333 0
M  V30 32038 O 3111.4 -0.292614 -4.00633 0
M  V30 32039 N 3109.6 -0.833506 -2.7839 0
M  V30 32040 H 3109.15 -1.44581 -2.132 0
M  V30 32041 H 3109.11 -0.0437265 -3.1437 0
M  V30 32042 N 3112.88 0.510441 -1.49105 0
M  V30 32043 C 3114.29 1.09212 -1.51425 0
M  V30 32044 C 3114.64 1.93969 -0.295069 0
M  V30 32045 O 3113.77 2.0803 0.596027 0
M  V30 32046 C 3114.36 1.98734 -2.74391 0
M  V30 32047 C 3112.92 2.52083 -2.7952 0
M  V30 32048 C 3112.07 1.29484 -2.45213 0
M  V30 32049 H 3115.02 0.29478 -1.55938 0
M  V30 32050 H 3115.04 2.83294 -2.54017 0
M  V30 32051 H 3114.55 1.3702 -3.63108 0
M  V30 32052 H 3112.65 3.17463 -1.9506 0
M  V30 32053 H 3112.76 2.89881 -3.81453 0
M  V30 32054 H 3111.13 1.617 -1.96787 0
M  V30 32055 H 3111.91 0.694919 -3.36193 0
M  V30 32056 N 3114.36 1.38021 0.760791 0
M  V30 32057 C 3115.3 1.34774 1.89575 0
M  V30 32058 C 3116.3 0.234744 1.67766 0
M  V30 32059 O 3117.5 0.403383 1.75422 0
M  V30 32060 H 3113.88 0.420269 0.623601 0
M  V30 32061 H 3115.85 2.30562 1.8943 0
M  V30 32062 C 3114.6 1.18252 3.26974 0
M  V30 32063 H 3113.92 2.03153 3.44338 0
M  V30 32064 H 3115.36 1.20033 4.06655 0
M  V30 32065 C 3113.82 -0.111086 3.36717 0
M  V30 32066 O 3114.35 -1.09072 3.86608 0
M  V30 32067 N 3112.56 -0.165491 2.90128 0
M  V30 32068 H 3112.1 0.632372 2.49717 0
M  V30 32069 H 3112.06 -1.03062 2.97028 0
M  V30 32070 N 3115.83 -0.98818 1.22771 0
M  V30 32071 C 3116.8 -2.06075 1.00329 0
M  V30 32072 C 3117.8 -1.60768 -0.0320335 0
M  V30 32073 O 3118.99 -1.72966 0.206943 0
M  V30 32074 C 3116.12 -3.36966 0.516436 0
M  V30 32075 H 3117.31 -2.27418 1.95503 0
M  V30 32076 H 3114.87 -1.16045 1.04706 0
M  V30 32077 H 3115.6 -3.21309 -0.439441 0
M  V30 32078 H 3115.39 -3.71187 1.26344 0
M  V30 32079 H 3116.88 -4.15869 0.379813 0
M  V30 32080 N 3117.31 -1.03816 -1.18575 0
M  V30 32081 C 3118.54 -0.759907 -1.92977 0
M  V30 32082 C 3118.96 0.676455 -1.75516 0
M  V30 32083 O 3118.32 1.46823 -1.06362 0
M  V30 32084 C 3118.37 -1.12794 -3.42505 0
M  V30 32085 O 3117.47 -0.251958 -4.1163 0
M  V30 32086 H 3116.81 -0.279897 -0.602124 0
M  V30 32087 H 3119.34 -1.38733 -1.5038 0
M  V30 32088 H 3119.35 -1.08879 -3.93204 0
M  V30 32089 H 3118.03 -2.17433 -3.54536 0
M  V30 32090 H 3116.61 -0.350506 -3.71249 0
M  V30 32091 N 3118.79 1.34753 -0.817283 0
M  V30 32092 C 3120.02 2.02685 -0.415487 0
M  V30 32093 C 3120.43 1.61564 0.976851 0
M  V30 32094 O 3119.79 0.818349 1.63124 0
M  V30 32095 C 3119.84 3.58004 -0.501549 0
M  V30 32096 O 3119.56 3.97633 -1.839 0
M  V30 32097 C 3121.06 4.432 -0.0939283 0
M  V30 32098 H 3118.28 0.649775 -0.167431 0
M  V30 32099 H 3120.83 1.72148 -1.10387 0
M  V30 32100 H 3118.98 3.87152 0.138698 0
M  V30 32101 H 3119.4 4.92306 -1.80928 0
M  V30 32102 H 3120.87 5.51618 -0.205242 0
M  V30 32103 H 3121.35 4.28536 0.961936 0
M  V30 32104 H 3121.95 4.1937 -0.707751 0
M  V30 32105 N 3120.27 0.571737 1.46864 0
M  V30 32106 C 3121.52 0.0530378 2.0203 0
M  V30 32107 C 3121.84 -1.30729 1.44689 0
M  V30 32108 O 3121.11 -1.85579 0.627461 0
M  V30 32109 H 3119.69 0.0166166 0.746815 0
M  V30 32110 H 3122.35 0.745035 1.80098 0
M  V30 32111 H 3121.45 -0.0241989 3.12091 0
M  V30 32112 N 3121.75 -1.54542 0.308935 0
M  V30 32113 C 3122.68 -2.21277 -0.597414 0
M  V30 32114 C 3123.69 -1.20803 -1.09135 0
M  V30 32115 O 3124.88 -1.47353 -1.00744 0
M  V30 32116 C 3121.98 -2.85193 -1.8308 0
M  V30 32117 C 3121.15 -4.11671 -1.47803 0
M  V30 32118 C 3120.21 -4.59316 -2.5674 0
M  V30 32119 O 3119.24 -5.24335 -2.21498 0
M  V30 32120 N 3120.44 -4.32304 -3.87419 0
M  V30 32121 H 3123.21 -2.99689 -0.0260656 0
M  V30 32122 H 3120.77 -1.61365 0.131484 0
M  V30 32123 H 3122.76 -3.13996 -2.5532 0
M  V30 32124 H 3121.33 -2.10574 -2.31035 0
M  V30 32125 H 3120.55 -3.89791 -0.587905 0
M  V30 32126 H 3121.84 -4.94011 -1.21782 0
M  V30 32127 H 3121.24 -3.80231 -4.18856 0
M  V30 32128 H 3119.79 -4.65798 -4.55934 0
M  V30 32129 N 3123.23 -0.0368104 -1.57557 0
M  V30 32130 C 3124.14 0.957979 -2.14149 0
M  V30 32131 C 3125.15 1.35171 -1.09566 0
M  V30 32132 O 3126.33 1.43156 -1.41663 0
M  V30 32133 C 3123.39 2.21926 -2.66364 0
M  V30 32134 C 3122.45 1.88523 -3.85691 0
M  V30 32135 C 3121.69 3.08638 -4.35406 0
M  V30 32136 O 3121.91 4.21547 -3.84258 0
M  V30 32137 O 3120.84 2.90488 -5.27163 0
M  V30 32138 H 3124.67 0.506744 -2.99442 0
M  V30 32139 H 3122.25 0.184249 -1.4826 0
M  V30 32140 H 3124.14 2.95955 -2.99981 0
M  V30 32141 H 3122.81 2.66215 -1.8415 0
M  V30 32142 H 3121.72 1.11855 -3.56986 0
M  V30 32143 H 3123.05 1.49044 -4.69091 0
M  V30 32144 N 3124.7 1.55817 0.236426 0
M  V30 32145 C 3125.67 1.90377 1.27629 0
M  V30 32146 C 3126.67 0.781073 1.40556 0
M  V30 32147 O 3127.86 1.04897 1.39076 0
M  V30 32148 C 3124.99 2.14147 2.65243 0
M  V30 32149 H 3126.18 2.83368 0.981969 0
M  V30 32150 H 3123.73 1.4887 0.476188 0
M  V30 32151 H 3124.47 1.23658 2.99798 0
M  V30 32152 H 3124.25 2.95922 2.57241 0
M  V30 32153 H 3125.74 2.42032 3.40309 0
M  V30 32154 N 3126.18 -0.502526 1.49373 0
M  V30 32155 C 3127.11 -1.61291 1.68842 0
M  V30 32156 C 3128.09 -1.61397 0.537125 0
M  V30 32157 O 3129.28 -1.78161 0.772795 0
M  V30 32158 C 3126.41 -2.99781 1.75352 0
M  V30 32159 C 3125.36 -3.1454 2.90256 0
M  V30 32160 C 3124.69 -4.54366 2.81878 0
M  V30 32161 C 3125.99 -2.94709 4.31212 0
M  V30 32162 H 3127.68 -1.45252 2.61806 0
M  V30 32163 H 3125.23 -0.697348 1.25988 0
M  V30 32164 H 3127.18 -3.77359 1.87558 0
M  V30 32165 H 3125.9 -3.16905 0.789869 0
M  V30 32166 H 3124.56 -2.39387 2.7765 0
M  V30 32167 H 3124.21 -4.68364 1.83424 0
M  V30 32168 H 3123.91 -4.65182 3.58998 0
M  V30 32169 H 3125.44 -5.34007 2.9609 0
M  V30 32170 H 3126.85 -3.62058 4.44508 0
M  V30 32171 H 3125.25 -3.16998 5.09541 0
M  V30 32172 H 3126.32 -1.90849 4.45763 0
M  V30 32173 N 3127.66 -1.38422 -0.75346 0
M  V30 32174 C 3128.88 -1.3805 -1.54781 0
M  V30 32175 C 3129.31 0.027604 -1.8808 0
M  V30 32176 O 3128.67 1.0097 -1.50581 0
M  V30 32177 C 3128.72 -2.24302 -2.82349 0
M  V30 32178 O 3127.82 -1.6602 -3.77506 0
M  V30 32179 H 3127.16 -0.470891 -0.468143 0
M  V30 32180 H 3129.69 -1.82185 -0.931112 0
M  V30 32181 H 3129.7 -2.38165 -3.31273 0
M  V30 32182 H 3128.38 -3.26643 -2.57443 0
M  V30 32183 H 3126.95 -1.613 -3.3621 0
M  V30 32184 N 3129.14 0.981655 -1.23294 0
M  V30 32185 C 3130.07 2.07624 -0.970818 0
M  V30 32186 C 3131.08 1.62708 0.054722 0
M  V30 32187 O 3132.27 1.77583 -0.180655 0
M  V30 32188 C 3129.37 3.36024 -0.440609 0
M  V30 32189 C 3128.54 4.09916 -1.52602 0
M  V30 32190 C 3127.6 5.16593 -1.00091 0
M  V30 32191 O 3126.63 5.43545 -1.68961 0
M  V30 32192 N 3127.83 5.80245 0.171915 0
M  V30 32193 H 3130.6 2.30688 -1.9132 0
M  V30 32194 H 3128.16 1.14826 -1.14135 0
M  V30 32195 H 3130.15 4.04632 -0.0743822 0
M  V30 32196 H 3128.72 3.09937 0.407156 0
M  V30 32197 H 3127.94 3.3578 -2.06507 0
M  V30 32198 H 3129.23 4.56051 -2.25598 0
M  V30 32199 H 3128.63 5.60733 0.748031 0
M  V30 32200 H 3127.18 6.50034 0.479418 0
M  V30 32201 N 3130.62 1.04444 1.18022 0
M  V30 32202 C 3131.84 0.770195 1.9203 0
M  V30 32203 C 3132.26 -0.67315 1.76392 0
M  V30 32204 O 3131.62 -1.4592 1.09607 0
M  V30 32205 C 3131.67 1.13179 3.43326 0
M  V30 32206 O 3131.39 2.51848 3.58475 0
M  V30 32207 C 3132.89 0.882599 4.34425 0
M  V30 32208 H 3130.11 0.280596 0.609513 0
M  V30 32209 H 3132.65 1.39311 1.49709 0
M  V30 32210 H 3130.81 0.553771 3.83422 0
M  V30 32211 H 3131.22 2.65802 4.52161 0
M  V30 32212 H 3132.7 1.18543 5.39121 0
M  V30 32213 H 3133.17 -0.182492 4.38821 0
M  V30 32214 H 3133.78 1.4441 4.00032 0
M  V30 32215 N 3132.09 -1.34317 0.824418 0
M  V30 32216 C 3133.32 -2.02462 0.42623 0
M  V30 32217 C 3133.74 -1.6208 -0.96827 0
M  V30 32218 O 3133.09 -0.826989 -1.62687 0
M  V30 32219 C 3133.14 -3.57733 0.520527 0
M  V30 32220 O 3132.87 -3.96652 1.86007 0
M  V30 32221 C 3134.37 -4.43144 0.117431 0
M  V30 32222 H 3131.59 -0.648878 0.170875 0
M  V30 32223 H 3134.13 -1.7156 1.11299 0
M  V30 32224 H 3132.29 -3.8722 -0.118165 0
M  V30 32225 H 3132.7 -4.9134 1.83537 0
M  V30 32226 H 3134.17 -5.51502 0.234492 0
M  V30 32227 H 3134.65 -4.2904 -0.939196 0
M  V30 32228 H 3135.26 -4.18988 0.729981 0
M  V30 32229 N 3133.57 -0.579517 -1.46558 0
M  V30 32230 C 3134.82 -0.061609 -2.01606 0
M  V30 32231 C 3135.13 1.30505 -1.45697 0
M  V30 32232 O 3136.34 1.91413 -1.92545 0
M  V30 32233 C 3134.8 -0.0595593 -3.59851 0
M  V30 32234 C 3134.4 -1.42434 -4.24755 0
M  V30 32235 C 3136.15 0.404572 -4.22568 0
M  V30 32236 C 3134.05 -1.38019 -5.75069 0
M  V30 32237 H 3132.98 -0.0192623 -0.753754 0
M  V30 32238 H 3135.64 -0.73069 -1.68325 0
M  V30 32239 H 3134.02 0.675622 -3.90194 0
M  V30 32240 H 3135.19 -2.179 -4.06025 0
M  V30 32241 H 3133.51 -1.82824 -3.74118 0
M  V30 32242 H 3136.1 0.456347 -5.32749 0
M  V30 32243 H 3136.45 1.42142 -3.91282 0
M  V30 32244 H 3136.98 -0.276445 -3.96838 0
M  V30 32245 H 3133.72 -2.37375 -6.1101 0
M  V30 32246 H 3133.24 -0.667688 -5.96072 0
M  V30 32247 H 3134.92 -1.09174 -6.37723 0
M  V30 32248 N 3135.05 1.54376 -0.317127 0
M  V30 32249 C 3136.28 2.0533 0.292275 0
M  V30 32250 C 3136.7 1.1921 1.45501 0
M  V30 32251 O 3136.06 0.199753 1.80196 0
M  V30 32252 C 3136.11 3.53527 0.710725 0
M  V30 32253 O 3135.21 3.70371 1.8138 0
M  V30 32254 H 3134.55 0.661802 0.053986 0
M  V30 32255 H 3137.08 1.99277 -0.463664 0
M  V30 32256 H 3137.09 3.95678 0.995147 0
M  V30 32257 H 3135.77 4.15665 -0.139741 0
M  V30 32258 H 3134.34 3.40126 1.52869 0
M  V30 32259 N 3136.53 0.0451655 1.57535 0
M  V30 32260 C 3137.77 -0.625016 1.93559 0
M  V30 32261 C 3138.13 -1.68805 0.923189 0
M  V30 32262 O 3137.42 -1.91511 -0.0585083 0
M  V30 32263 C 3137.62 -1.27019 3.34067 0
M  V30 32264 C 3137.45 -0.271174 4.48882 0
M  V30 32265 C 3136.22 0.134708 5.0512 0
M  V30 32266 C 3138.41 0.481001 5.12046 0
M  V30 32267 N 3136.4 1.12721 6.03463 0
M  V30 32268 C 3137.77 1.32677 6.05638 0
M  V30 32269 C 3139.82 0.539965 4.94963 0
M  V30 32270 C 3138.52 2.2262 6.83983 0
M  V30 32271 C 3140.55 1.4268 5.73931 0
M  V30 32272 C 3139.91 2.2603 6.6715 0
M  V30 32273 H 3136.01 -0.200536 0.75585 0
M  V30 32274 H 3138.6 0.116094 1.94354 0
M  V30 32275 H 3136.77 -1.98135 3.34061 0
M  V30 32276 H 3138.5 -1.89868 3.57396 0
M  V30 32277 H 3135.25 -0.243029 4.72976 0
M  V30 32278 H 3135.68 1.62018 6.57327 0
M  V30 32279 H 3140.32 -0.0902091 4.22704 0
M  V30 32280 H 3138.04 2.86685 7.55538 0
M  V30 32281 H 3141.62 1.47692 5.62742 0
M  V30 32282 H 3140.5 2.93541 7.27189 0
M  V30 32283 N 3138.01 -1.5594 -0.228159 0
M  V30 32284 C 3138.97 -1.91051 -1.26618 0
M  V30 32285 C 3139.97 -0.788516 -1.40139 0
M  V30 32286 O 3141.16 -1.05633 -1.38518 0
M  V30 32287 C 3138.29 -2.1555 -2.64104 0
M  V30 32288 H 3139.48 -2.83885 -0.966928 0
M  V30 32289 H 3137.04 -1.4912 -0.468287 0
M  V30 32290 H 3137.77 -1.25247 -2.99138 0
M  V30 32291 H 3137.56 -2.97282 -2.55668 0
M  V30 32292 H 3139.05 -2.43833 -3.39021 0
M  V30 32293 N 3139.48 0.494597 -1.49638 0
M  V30 32294 C 3140.9 1.076 -1.52575 0
M  V30 32295 C 3141.25 1.93645 -0.315625 0
M  V30 32296 O 3140.37 2.0865 0.573929 0
M  V30 32297 C 3140.97 1.95812 -2.76483 0
M  V30 32298 C 3139.53 2.49104 -2.82178 0
M  V30 32299 C 3138.67 1.26875 -2.46572 0
M  V30 32300 H 3141.62 0.278224 -1.56242 0
M  V30 32301 H 3141.64 2.80584 -2.57008 0
M  V30 32302 H 3141.16 1.33161 -3.64541 0
M  V30 32303 H 3139.26 3.15376 -1.98416 0
M  V30 32304 H 3139.37 2.85818 -3.84506 0
M  V30 32305 H 3137.73 1.59603 -1.98491 0
M  V30 32306 H 3138.52 0.659222 -3.36911 0
M  V30 32307 N 3140.96 1.3882 0.746109 0
M  V30 32308 C 3142.21 1.35437 1.50542 0
M  V30 32309 C 3142.54 -0.0532327 1.94427 0
M  V30 32310 O 3141.79 -1.03185 1.66287 0
M  V30 32311 C 3142.09 2.26291 2.76635 0
M  V30 32312 C 3141.76 3.74126 2.51675 0
M  V30 32313 C 3140.42 4.1441 2.44577 0
M  V30 32314 C 3142.77 4.67676 2.30063 0
M  V30 32315 C 3140.1 5.46321 2.13892 0
M  V30 32316 C 3142.45 5.99853 2.00897 0
M  V30 32317 C 3141.12 6.39212 1.9226 0
M  V30 32318 H 3140.39 0.4956 0.550874 0
M  V30 32319 H 3143.03 1.71238 0.857307 0
M  V30 32320 H 3141.34 1.83571 3.46134 0
M  V30 32321 H 3143.03 2.20973 3.34622 0
M  V30 32322 H 3139.62 3.42193 2.58074 0
M  V30 32323 H 3143.81 4.37394 2.34521 0
M  V30 32324 H 3139.06 5.75751 2.05719 0
M  V30 32325 H 3143.24 6.71877 1.83179 0
M  V30 32326 H 3140.87 7.41348 1.68248 0
M  V30 32327 N 3142.44 -0.975103 1.23812 0
M  V30 32328 C 3143.37 -2.07106 0.981815 0
M  V30 32329 C 3144.39 -1.62735 -0.0460925 0
M  V30 32330 O 3145.57 -1.77485 0.19007 0
M  V30 32331 C 3142.67 -3.35785 0.458423 0
M  V30 32332 C 3141.85 -4.09101 1.54774 0
M  V30 32333 C 3140.91 -5.16055 1.02829 0
M  V30 32334 O 3139.93 -5.42641 1.71841 0
M  V30 32335 N 3141.13 -5.80328 -0.141141 0
M  V30 32336 H 3143.9 -2.2967 1.92541 0
M  V30 32337 H 3141.46 -1.14219 1.14742 0
M  V30 32338 H 3143.45 -4.04587 0.0958397 0
M  V30 32339 H 3142.02 -3.10149 -0.390714 0
M  V30 32340 H 3141.24 -3.3468 2.08285 0
M  V30 32341 H 3142.53 -4.54849 2.28014 0
M  V30 32342 H 3141.93 -5.61121 -0.718283 0
M  V30 32343 H 3140.49 -6.5028 -0.444938 0
M  V30 32344 N 3143.92 -1.05068 -1.17467 0
M  V30 32345 C 3145.2 -0.673905 -1.83624 0
M  V30 32346 C 3145.58 0.845837 -1.93414 0
M  V30 32347 O 3144.92 1.75129 -1.46773 0
M  V30 32348 C 3145.13 -1.36145 -3.2135 0
M  V30 32349 C 3146.48 -1.4987 -3.97271 0
M  V30 32350 O 3147.51 -1.32036 -3.30825 0
M  V30 32351 O 3146.36 -1.79022 -5.16346 0
M  V30 32352 H 3143.46 -0.237069 -0.792292 0
M  V30 32353 H 3146 -1.15019 -1.24774 0
M  V30 32354 H 3144.78 -2.39832 -3.09186 0
M  V30 32355 H 3144.4 -0.874432 -3.87865 0
M  V30 32356 N 3145.4 1.33878 -0.831529 0
M  V30 32357 C 3146.62 2.02233 -0.436961 0
M  V30 32358 C 3147.04 1.62591 0.95966 0
M  V30 32359 O 3146.4 0.835605 1.62246 0
M  V30 32360 C 3146.45 3.57452 -0.539492 0
M  V30 32361 O 3146.17 3.9566 -1.88108 0
M  V30 32362 C 3147.67 4.43076 -0.14093 0
M  V30 32363 H 3144.89 0.647963 -0.174314 0
M  V30 32364 H 3147.43 1.70967 -1.12207 0
M  V30 32365 H 3145.59 3.87277 0.0976279 0
M  V30 32366 H 3146 4.90359 -1.8614 0
M  V30 32367 H 3147.48 5.5137 -0.263736 0
M  V30 32368 H 3147.95 4.29533 0.91643 0
M  V30 32369 H 3148.56 4.18595 -0.752191 0
M  V30 32370 N 3146.87 0.587281 1.46249 0
M  V30 32371 C 3148.1 0.0784881 2.07251 0
M  V30 32372 C 3148.52 -1.21916 1.43241 0
M  V30 32373 O 3147.88 -1.73748 0.517822 0
M  V30 32374 C 3147.93 -0.0690403 3.60534 0
M  V30 32375 O 3147.03 -1.12441 3.96775 0
M  V30 32376 H 3146.38 0.0648707 0.660824 0
M  V30 32377 H 3148.91 0.811524 1.87818 0
M  V30 32378 H 3148.92 -0.273754 4.07081 0
M  V30 32379 H 3147.59 0.878586 4.06514 0
M  V30 32380 H 3146.17 -0.897788 3.61931 0
M  V30 32381 N 3148.35 -1.54206 0.325309 0
M  V30 32382 C 3149.26 -2.28092 -0.548738 0
M  V30 32383 C 3150.28 -1.3251 -1.1277 0
M  V30 32384 O 3151.45 -1.65527 -1.14729 0
M  V30 32385 C 3148.52 -3.02565 -1.69279 0
M  V30 32386 C 3147.58 -4.13736 -1.14545 0
M  V30 32387 C 3146.81 -4.84649 -2.23498 0
M  V30 32388 O 3147.04 -4.55089 -3.43876 0
M  V30 32389 O 3145.97 -5.71517 -1.88818 0
M  V30 32390 H 3149.8 -3.03657 0.0513508 0
M  V30 32391 H 3147.38 -1.49123 0.0909421 0
M  V30 32392 H 3149.26 -3.49196 -2.35881 0
M  V30 32393 H 3147.94 -2.29874 -2.27902 0
M  V30 32394 H 3146.85 -3.7145 -0.444466 0
M  V30 32395 H 3148.18 -4.88476 -0.604324 0
M  V30 32396 N 3149.83 -0.0535194 -1.57509 0
M  V30 32397 C 3151.06 0.628351 -1.96813 0
M  V30 32398 C 3151.47 1.64775 -0.929836 0
M  V30 32399 O 3150.81 1.83459 0.0940833 0
M  V30 32400 C 3150.87 1.37022 -3.32363 0
M  V30 32401 C 3150.54 0.506386 -4.54186 0
M  V30 32402 C 3151.54 -0.228503 -5.19398 0
M  V30 32403 C 3149.22 0.436622 -5.00399 0
M  V30 32404 C 3151.21 -1.02157 -6.2916 0
M  V30 32405 C 3148.9 -0.36013 -6.10038 0
M  V30 32406 C 3149.9 -1.08791 -6.7428 0
M  V30 32407 O 3149.59 -1.87156 -7.81811 0
M  V30 32408 H 3149.32 0.176421 -0.652573 0
M  V30 32409 H 3151.87 -0.116944 -2.05067 0
M  V30 32410 H 3150.1 2.16119 -3.2067 0
M  V30 32411 H 3151.79 1.94255 -3.56398 0
M  V30 32412 H 3152.56 -0.184089 -4.84651 0
M  V30 32413 H 3148.44 0.992693 -4.50185 0
M  V30 32414 H 3151.98 -1.59014 -6.79235 0
M  V30 32415 H 3147.88 -0.406174 -6.44221 0
M  V30 32416 H 3148.65 -1.79392 -7.98599 0
M  V30 32417 N 3151.31 1.56059 0.219886 0
M  V30 32418 C 3152.56 1.78347 0.942087 0
M  V30 32419 C 3152.87 0.622377 1.85434 0
M  V30 32420 O 3154.08 0.728932 2.61532 0
M  V30 32421 C 3152.53 3.15846 1.72538 0
M  V30 32422 C 3152.14 4.39684 0.859186 0
M  V30 32423 C 3153.89 3.47459 2.4387 0
M  V30 32424 C 3151.79 5.68208 1.63993 0
M  V30 32425 H 3150.72 0.664932 0.355502 0
M  V30 32426 H 3153.37 1.82451 0.195931 0
M  V30 32427 H 3151.76 3.05922 2.51451 0
M  V30 32428 H 3152.93 4.60668 0.110481 0
M  V30 32429 H 3151.24 4.156 0.257912 0
M  V30 32430 H 3153.84 4.40709 3.02787 0
M  V30 32431 H 3154.18 2.70036 3.16838 0
M  V30 32432 H 3154.72 3.58719 1.71946 0
M  V30 32433 H 3151.46 6.48528 0.953492 0
M  V30 32434 H 3150.98 5.51283 2.3632 0
M  V30 32435 H 3152.66 6.08442 2.20017 0
M  V30 32436 N 3152.79 -0.486655 1.49898 0
M  V30 32437 C 3154.04 -1.23653 1.59351 0
M  V30 32438 C 3154.35 -1.93407 0.292058 0
M  V30 32439 O 3155.56 -2.70201 0.265305 0
M  V30 32440 C 3154.01 -2.24597 2.81219 0
M  V30 32441 C 3153.62 -1.60717 4.18179 0
M  V30 32442 C 3155.36 -3.00324 3.0001 0
M  V30 32443 C 3153.27 -2.59856 5.31252 0
M  V30 32444 H 3152.2 -0.465216 0.593372 0
M  V30 32445 H 3154.85 -0.508738 1.76307 0
M  V30 32446 H 3153.23 -3.00602 2.57788 0
M  V30 32447 H 3154.41 -0.906081 4.51804 0
M  V30 32448 H 3152.72 -0.973291 4.04865 0
M  V30 32449 H 3155.32 -3.7449 3.81656 0
M  V30 32450 H 3155.66 -3.58791 2.11126 0
M  V30 32451 H 3156.2 -2.31434 3.23548 0
M  V30 32452 H 3152.93 -2.0615 6.2224 0
M  V30 32453 H 3152.45 -3.28164 5.02064 0
M  V30 32454 H 3154.13 -3.21999 5.61182 0
M  V30 32455 N 3154.27 -1.39214 -0.738737 0
M  V30 32456 C 3155.49 -1.39683 -1.53308 0
M  V30 32457 C 3155.92 0.00765409 -1.88098 0
M  V30 32458 O 3155.27 0.993672 -1.51644 0
M  V30 32459 C 3155.32 -2.27284 -2.79954 0
M  V30 32460 O 3154.43 -1.70015 -3.75724 0
M  V30 32461 H 3153.77 -0.47583 -0.463122 0
M  V30 32462 H 3156.3 -1.83163 -0.911736 0
M  V30 32463 H 3156.31 -2.41665 -3.28728 0
M  V30 32464 H 3154.98 -3.29355 -2.53964 0
M  V30 32465 H 3153.56 -1.64857 -3.3448 0
M  V30 32466 N 3155.74 0.968523 -1.24328 0
M  V30 32467 C 3156.98 1.72635 -1.09437 0
M  V30 32468 C 3157.35 1.88581 0.360748 0
M  V30 32469 O 3158.55 2.61285 0.631142 0
M  V30 32470 C 3156.82 3.08008 -1.8129 0
M  V30 32471 S 3158.38 3.99222 -1.8212 0
M  V30 32472 H 3155.2 0.593558 -0.39142 0
M  V30 32473 H 3157.8 1.15621 -1.57645 0
M  V30 32474 H 3156.5 2.94062 -2.86279 0
M  V30 32475 H 3156.03 3.70088 -1.33412 0
M  V30 32476 H 3158.05 4.88184 -0.888282 0
M  V30 32477 N 3157.22 1.0569 1.16908 0
M  V30 32478 C 3158.17 0.632377 2.19055 0
M  V30 32479 C 3159.16 -0.33377 1.574 0
M  V30 32480 O 3160.35 -0.150192 1.76362 0
M  V30 32481 C 3157.48 0.0138812 3.43297 0
M  V30 32482 C 3156.56 1.00416 4.12041 0
M  V30 32483 N 3156.95 2.17745 4.56531 0
M  V30 32484 C 3155.25 0.83374 4.38138 0
M  V30 32485 C 3155.95 2.80434 5.09639 0
M  V30 32486 N 3154.93 2.082 5.02149 0
M  V30 32487 H 3158.73 1.52625 2.51163 0
M  V30 32488 H 3156.24 0.927731 1.33293 0
M  V30 32489 H 3158.24 -0.308044 4.1576 0
M  V30 32490 H 3156.9 -0.875325 3.12679 0
M  V30 32491 H 3157.91 2.55554 4.50458 0
M  V30 32492 H 3154.59 -0.00399345 4.175 0
M  V30 32493 H 3155.98 3.79962 5.54147 0
M  V30 32494 N 3158.7 -1.33435 0.838617 0
M  V30 32495 C 3160.11 -1.80129 0.490966 0
M  V30 32496 C 3160.46 -1.69392 -0.989994 0
M  V30 32497 O 3159.59 -1.24305 -1.77136 0
M  V30 32498 C 3160.18 -3.27053 0.884405 0
M  V30 32499 C 3158.74 -3.71765 0.588894 0
M  V30 32500 C 3157.89 -2.54856 1.09287 0
M  V30 32501 H 3160.84 -1.2096 1.02734 0
M  V30 32502 H 3160.86 -3.80003 0.19435 0
M  V30 32503 H 3160.37 -3.34836 1.96231 0
M  V30 32504 H 3158.47 -3.69509 -0.478953 0
M  V30 32505 H 3158.59 -4.65242 1.14395 0
M  V30 32506 H 3156.95 -2.49465 0.513746 0
M  V30 32507 H 3157.73 -2.65401 2.17754 0
M  V30 32508 N 3160.18 -0.595029 -1.45935 0
M  V30 32509 C 3161.42 -0.0854673 -2.0262 0
M  V30 32510 C 3161.76 1.27591 -1.46404 0
M  V30 32511 O 3161.03 1.83882 -0.633855 0
M  V30 32512 C 3161.31 -0.0329708 -3.60085 0
M  V30 32513 C 3161.17 -1.42412 -4.2666 0
M  V30 32514 C 3162.49 0.661349 -4.35102 0
M  V30 32515 H 3159.61 -0.0325325 -0.736282 0
M  V30 32516 H 3162.25 -0.764593 -1.73937 0
M  V30 32517 H 3160.4 0.545371 -3.84653 0
M  V30 32518 H 3162.07 -2.04858 -4.13317 0
M  V30 32519 H 3160.31 -1.98839 -3.85546 0
M  V30 32520 H 3160.98 -1.33975 -5.35495 0
M  V30 32521 H 3163.46 0.169904 -4.15753 0
M  V30 32522 H 3162.34 0.667147 -5.44831 0
M  V30 32523 H 3162.6 1.72505 -4.07056 0
M  V30 32524 N 3161.66 1.54031 -0.333483 0
M  V30 32525 C 3162.9 2.00348 0.265572 0
M  V30 32526 C 3163.22 1.22312 1.51871 0
M  V30 32527 O 3162.49 0.327583 1.93142 0
M  V30 32528 H 3161.07 0.740124 0.101122 0
M  V30 32529 H 3163.74 1.89579 -0.452318 0
M  V30 32530 H 3162.83 3.07821 0.515056 0
M  V30 32531 N 3163.13 0.0618717 1.57479 0
M  V30 32532 C 3164.36 -0.618802 1.9743 0
M  V30 32533 C 3164.78 -1.63744 0.939854 0
M  V30 32534 O 3164.13 -1.82347 -0.0746853 0
M  V30 32535 C 3164.18 -1.29622 3.37462 0
M  V30 32536 O 3163.91 -0.318355 4.36942 0
M  V30 32537 C 3165.41 -2.06565 3.92232 0
M  V30 32538 H 3162.63 -0.168433 0.649516 0
M  V30 32539 H 3165.17 0.131339 2.04078 0
M  V30 32540 H 3163.33 -1.99751 3.31931 0
M  V30 32541 H 3163.74 -0.803148 5.18314 0
M  V30 32542 H 3165.21 -2.49369 4.92462 0
M  V30 32543 H 3165.69 -2.91818 3.28236 0
M  V30 32544 H 3166.3 -1.41323 4.01133 0
M  V30 32545 N 3164.61 -1.56173 -0.211607 0
M  V30 32546 C 3165.89 -1.70453 -0.959438 0
M  V30 32547 C 3166.27 -0.611977 -2.02035 0
M  V30 32548 O 3165.62 0.37955 -2.25326 0
M  V30 32549 C 3165.83 -3.12151 -1.56086 0
M  V30 32550 C 3167.18 -3.71871 -2.04932 0
M  V30 32551 O 3168.2 -3.15175 -1.65961 0
M  V30 32552 O 3167.06 -4.71338 -2.76592 0
M  V30 32553 H 3164.15 -0.694607 -0.448831 0
M  V30 32554 H 3166.7 -1.68486 -0.202604 0
M  V30 32555 H 3165.47 -3.83132 -0.795313 0
M  V30 32556 H 3165.09 -3.18277 -2.38297 0
M  V30 32557 N 3166.09 0.478699 -1.50154 0
M  V30 32558 C 3167 1.60361 -1.71235 0
M  V30 32559 C 3168.02 1.635 -0.595298 0
M  V30 32560 O 3169.19 1.81509 -0.872715 0
M  V30 32561 C 3166.26 2.9662 -1.79492 0
M  V30 32562 C 3165.32 3.03931 -3.0319 0
M  V30 32563 C 3164.55 4.33691 -3.11044 0
M  V30 32564 O 3164.77 5.23765 -2.25889 0
M  V30 32565 O 3163.71 4.46436 -4.03706 0
M  V30 32566 H 3167.53 1.455 -2.66577 0
M  V30 32567 H 3165.12 0.657387 -1.3416 0
M  V30 32568 H 3167 3.77563 -1.87147 0
M  V30 32569 H 3165.68 3.11697 -0.873319 0
M  V30 32570 H 3164.58 2.22094 -3.0104 0
M  V30 32571 H 3165.92 2.93789 -3.94904 0
M  V30 32572 N 3167.57 1.39603 0.731343 0
M  V30 32573 C 3168.48 1.40898 1.87577 0
M  V30 32574 C 3169.49 0.303349 1.71335 0
M  V30 32575 O 3170.67 0.545411 1.93874 0
M  V30 32576 C 3167.74 1.25448 3.23209 0
M  V30 32577 C 3166.8 2.46014 3.51817 0
M  V30 32578 C 3166.03 2.31292 4.80978 0
M  V30 32579 O 3166.25 1.31834 5.54956 0
M  V30 32580 O 3165.19 3.2035 5.09568 0
M  V30 32581 H 3169.01 2.37373 1.8944 0
M  V30 32582 H 3166.6 1.20758 0.879654 0
M  V30 32583 H 3168.48 1.18979 4.04255 0
M  V30 32584 H 3167.15 0.320694 3.22108 0
M  V30 32585 H 3166.06 2.5806 2.70843 0
M  V30 32586 H 3167.39 3.38099 3.57701 0
M  V30 32587 N 3169.05 -0.961916 1.2484 0
M  V30 32588 C 3170.46 -1.52028 1.08371 0
M  V30 32589 C 3170.81 -1.93179 -0.342971 0
M  V30 32590 O 3169.93 -1.77902 -1.23206 0
M  V30 32591 C 3170.53 -2.76274 1.96107 0
M  V30 32592 C 3169.09 -3.28448 1.83845 0
M  V30 32593 C 3168.23 -2.01323 1.90694 0
M  V30 32594 H 3171.19 -0.779588 1.38232 0
M  V30 32595 H 3171.21 -3.49825 1.49676 0
M  V30 32596 H 3170.72 -2.46293 2.99936 0
M  V30 32597 H 3168.82 -3.63267 0.828717 0
M  V30 32598 H 3168.93 -3.96956 2.68258 0
M  V30 32599 H 3167.3 -2.16296 1.34492 0
M  V30 32600 H 3168.08 -1.73699 2.96114 0
M  V30 32601 N 3170.52 -1.06308 -1.16346 0
M  V30 32602 C 3171.45 -0.695273 -2.22909 0
M  V30 32603 C 3172.44 0.312313 -1.67208 0
M  V30 32604 O 3173.62 0.187408 -1.93294 0
M  V30 32605 C 3170.75 -0.0810759 -3.47205 0
M  V30 32606 C 3169.7 -1.01465 -4.15799 0
M  V30 32607 C 3169.03 -0.26375 -5.34049 0
M  V30 32608 C 3170.33 -2.34373 -4.66762 0
M  V30 32609 H 3172.02 -1.58618 -2.53931 0
M  V30 32610 H 3169.57 -0.764111 -1.22055 0
M  V30 32611 H 3171.52 0.188106 -4.2098 0
M  V30 32612 H 3170.25 0.844842 -3.15484 0
M  V30 32613 H 3168.91 -1.26858 -3.43951 0
M  V30 32614 H 3168.55 0.665291 -4.98581 0
M  V30 32615 H 3168.25 -0.885922 -5.80883 0
M  V30 32616 H 3169.78 -0.00211727 -6.106 0
M  V30 32617 H 3171.19 -2.13366 -5.32117 0
M  V30 32618 H 3169.59 -2.92089 -5.24218 0
M  V30 32619 H 3170.66 -2.97433 -3.82964 0
M  V30 32620 N 3172 1.32989 -0.845682 0
M  V30 32621 C 3172.93 2.27928 -0.241137 0
M  V30 32622 C 3173.95 1.52041 0.582021 0
M  V30 32623 O 3175.14 1.73775 0.407977 0
M  V30 32624 C 3172.24 3.32037 0.678594 0
M  V30 32625 C 3171.41 4.3727 -0.106728 0
M  V30 32626 C 3170.47 5.21008 0.737386 0
M  V30 32627 O 3169.49 5.68934 0.174131 0
M  V30 32628 N 3170.7 5.42961 2.05363 0
M  V30 32629 H 3173.46 2.80446 -1.0569 0
M  V30 32630 H 3171.02 1.45754 -0.704797 0
M  V30 32631 H 3173.01 3.84963 1.24843 0
M  V30 32632 H 3171.58 2.79745 1.39505 0
M  V30 32633 H 3170.8 3.8475 -0.857965 0
M  V30 32634 H 3172.09 5.04676 -0.646475 0
M  V30 32635 H 3171.49 5.05737 2.53469 0
M  V30 32636 H 3170.05 5.98918 2.57179 0
M  V30 32637 N 3173.48 0.60276 1.45618 0
M  V30 32638 C 3174.73 0.0960692 2.02272 0
M  V30 32639 C 3175.06 -1.27156 1.47179 0
M  V30 32640 O 3174.31 -1.85124 0.634626 0
M  V30 32641 C 3174.61 0.00164192 3.574 0
M  V30 32642 C 3174.28 1.3043 4.31624 0
M  V30 32643 C 3172.94 1.66114 4.51619 0
M  V30 32644 C 3175.29 2.16543 4.74087 0
M  V30 32645 C 3172.62 2.87672 5.11333 0
M  V30 32646 C 3174.97 3.37346 5.35146 0
M  V30 32647 C 3173.63 3.73288 5.53365 0
M  V30 32648 H 3172.9 0.0351542 0.740166 0
M  V30 32649 H 3175.55 0.783412 1.74742 0
M  V30 32650 H 3173.86 -0.76894 3.8418 0
M  V30 32651 H 3175.55 -0.406478 3.98935 0
M  V30 32652 H 3172.14 1.01654 4.1637 0
M  V30 32653 H 3176.33 1.90274 4.58377 0
M  V30 32654 H 3171.58 3.15632 5.23628 0
M  V30 32655 H 3175.76 4.04326 5.67004 0
M  V30 32656 H 3173.38 4.67567 5.99404 0
M  V30 32657 N 3174.96 -1.53852 0.341647 0
M  V30 32658 C 3176.37 -1.59597 -0.0103488 0
M  V30 32659 C 3176.57 -1.35767 -1.48895 0
M  V30 32660 O 3175.63 -1.15099 -2.24741 0
M  V30 32661 C 3176.94 -2.97694 0.424119 0
M  V30 32662 C 3178.49 -3.1073 0.376302 0
M  V30 32663 C 3178.97 -4.51201 0.786209 0
M  V30 32664 N 3180.46 -4.57246 0.74032 0
M  V30 32665 C 3181.19 -5.64083 1.02946 0
M  V30 32666 N 3180.69 -6.78781 1.38667 0
M  V30 32667 N 3182.48 -5.53948 0.953831 0
M  V30 32668 H 3174.63 -1.67597 1.3048 0
M  V30 32669 H 3176.9 -0.784811 0.531767 0
M  V30 32670 H 3176.6 -3.20192 1.45499 0
M  V30 32671 H 3176.48 -3.76661 -0.201646 0
M  V30 32672 H 3178.86 -2.87956 -0.64539 0
M  V30 32673 H 3178.94 -2.33827 1.03725 0
M  V30 32674 H 3178.59 -4.7471 1.8059 0
M  V30 32675 H 3178.52 -5.265 0.102763 0
M  V30 32676 H 3181.01 -3.7488 0.476829 0
M  V30 32677 H 3181.32 -7.5622 1.5922 0
M  V30 32678 H 3179.67 -6.80232 1.4251 0
M  V30 32679 H 3182.86 -4.6322 0.674126 0
M  V30 32680 H 3183.03 -6.37119 1.18252 0
M  V30 32681 N 3176.44 -0.0702223 -1.57443 0
M  V30 32682 C 3177.68 0.600144 -1.93717 0
M  V30 32683 C 3178.02 1.69357 -0.950359 0
M  V30 32684 O 3177.29 1.94489 0.0206781 0
M  V30 32685 C 3177.57 1.17855 -3.40268 0
M  V30 32686 C 3177.43 0.0918785 -4.49706 0
M  V30 32687 C 3178.75 2.08452 -3.87602 0
M  V30 32688 H 3175.86 0.216691 -0.704425 0
M  V30 32689 H 3178.51 -0.135871 -1.89514 0
M  V30 32690 H 3176.66 1.80581 -3.43981 0
M  V30 32691 H 3178.33 -0.541111 -4.58115 0
M  V30 32692 H 3176.57 -0.577714 -4.29936 0
M  V30 32693 H 3177.24 0.536952 -5.49382 0
M  V30 32694 H 3179.72 1.55664 -3.85886 0
M  V30 32695 H 3178.59 2.45859 -4.90759 0
M  V30 32696 H 3178.86 2.9922 -3.25453 0
M  V30 32697 N 3177.91 1.56283 0.203321 0
M  V30 32698 C 3179.33 1.70139 0.768734 0
M  V30 32699 C 3179.68 0.675391 1.84209 0
M  V30 32700 O 3178.8 -0.169862 2.15732 0
M  V30 32701 C 3179.4 3.08468 1.40118 0
M  V30 32702 C 3177.96 3.24117 1.91377 0
M  V30 32703 C 3177.1 2.66085 0.780638 0
M  V30 32704 H 3180.05 1.58685 -0.0216276 0
M  V30 32705 H 3180.07 3.0534 2.27041 0
M  V30 32706 H 3179.59 3.8312 0.619738 0
M  V30 32707 H 3177.69 2.54367 2.72265 0
M  V30 32708 H 3177.8 4.31535 2.08121 0
M  V30 32709 H 3176.16 2.25044 1.19277 0
M  V30 32710 H 3176.95 3.43298 0.0115747 0
M  V30 32711 N 3179.39 -0.470729 1.50406 0
M  V30 32712 C 3180.64 -1.22037 1.61094 0
M  V30 32713 C 3180.96 -1.92463 0.313521 0
M  V30 32714 O 3180.23 -1.84122 -0.669011 0
M  V30 32715 H 3178.81 -0.45345 0.593626 0
M  V30 32716 H 3181.47 -0.542952 1.87184 0
M  V30 32717 H 3180.57 -1.96808 2.42225 0
M  V30 32718 N 3180.87 -1.39989 -0.72393 0
M  V30 32719 C 3182.1 -1.41112 -1.51311 0
M  V30 32720 C 3182.51 -0.00856652 -1.88798 0
M  V30 32721 O 3181.87 0.965488 -1.5487 0
M  V30 32722 C 3181.92 -2.29421 -2.79371 0
M  V30 32723 O 3181.64 -3.64216 -2.43472 0
M  V30 32724 C 3183.14 -2.39046 -3.73325 0
M  V30 32725 H 3180.36 -0.481597 -0.467231 0
M  V30 32726 H 3182.91 -1.8394 -0.893662 0
M  V30 32727 H 3181.06 -1.89977 -3.3762 0
M  V30 32728 H 3181.48 -4.1103 -3.25814 0
M  V30 32729 H 3182.95 -3.05061 -4.60045 0
M  V30 32730 H 3183.43 -1.41296 -4.15851 0
M  V30 32731 H 3184.03 -2.79007 -3.20991 0
M  V30 32732 N 3182.35 0.955282 -1.25348 0
M  V30 32733 C 3183.57 1.73981 -1.12895 0
M  V30 32734 C 3184 1.8547 0.313423 0
M  V30 32735 O 3183.36 1.33467 1.22704 0
M  V30 32736 C 3183.41 3.13187 -1.78735 0
M  V30 32737 O 3182.51 3.9837 -1.06655 0
M  V30 32738 H 3181.85 0.534334 -0.394187 0
M  V30 32739 H 3184.38 1.19745 -1.65899 0
M  V30 32740 H 3184.39 3.6365 -1.84994 0
M  V30 32741 H 3183.07 3.04141 -2.83674 0
M  V30 32742 H 3181.64 3.56836 -1.08272 0
M  V30 32743 N 3183.83 1.06924 1.1578 0
M  V30 32744 C 3185.06 0.810754 1.90353 0
M  V30 32745 C 3185.47 -0.635583 1.7778 0
M  V30 32746 O 3184.83 -1.43562 1.12677 0
M  V30 32747 C 3184.88 1.20436 3.40848 0
M  V30 32748 O 3184.6 2.59395 3.53052 0
M  V30 32749 C 3186.1 0.974549 4.32455 0
M  V30 32750 H 3183.32 0.293462 0.603424 0
M  V30 32751 H 3185.86 1.42455 1.4672 0
M  V30 32752 H 3184.02 0.634976 3.82161 0
M  V30 32753 H 3184.43 2.75333 4.46421 0
M  V30 32754 H 3185.91 1.29951 5.36485 0
M  V30 32755 H 3186.38 -0.0893709 4.39109 0
M  V30 32756 H 3186.99 1.52863 3.96879 0
M  V30 32757 N 3185.31 -1.32538 0.852723 0
M  V30 32758 C 3186.53 -2.02046 0.468192 0
M  V30 32759 C 3186.96 -1.63675 -0.926939 0
M  V30 32760 O 3186.31 -0.836406 -1.60854 0
M  V30 32761 C 3186.36 -3.55359 0.612582 0
M  V30 32762 O 3185.47 -4.10865 -0.355434 0
M  V30 32763 H 3184.81 -0.636708 0.188412 0
M  V30 32764 H 3187.34 -1.69128 1.15138 0
M  V30 32765 H 3187.35 -4.04932 0.499386 0
M  V30 32766 H 3186.02 -3.8263 1.62995 0
M  V30 32767 H 3184.6 -3.72371 -0.198638 0
M  V30 32768 N 3186.78 -0.610474 -1.45296 0
M  V30 32769 C 3187.75 0.0967792 -2.28996 0
M  V30 32770 C 3188.75 0.792328 -1.39924 0
M  V30 32771 O 3189.94 0.640052 -1.62015 0
M  V30 32772 C 3187.07 1.14726 -3.21015 0
M  V30 32773 H 3188.26 -0.639134 -2.9301 0
M  V30 32774 H 3185.81 -0.36965 -1.51866 0
M  V30 32775 H 3186.55 1.91384 -2.61807 0
M  V30 32776 H 3186.33 0.652685 -3.8663 0
M  V30 32777 H 3187.82 1.64249 -3.83943 0
M  V30 32778 N 3188.26 1.53669 -0.349801 0
M  V30 32779 C 3189.49 2.05432 0.246002 0
M  V30 32780 C 3189.9 1.22437 1.43717 0
M  V30 32781 O 3189.26 0.261198 1.80621 0
M  V30 32782 C 3189.31 3.55517 0.654947 0
M  V30 32783 O 3189.03 4.35364 -0.488859 0
M  V30 32784 C 3190.53 4.23477 1.31081 0
M  V30 32785 H 3187.75 0.669395 0.0463834 0
M  V30 32786 H 3190.3 1.98202 -0.503601 0
M  V30 32787 H 3188.45 3.6295 1.35448 0
M  V30 32788 H 3188.87 5.24251 -0.16162 0
M  V30 32789 H 3190.34 5.2986 1.54765 0
M  V30 32790 H 3190.82 3.76212 2.2663 0
M  V30 32791 H 3191.42 4.20255 0.653137 0
M  V30 32792 N 3189.74 0.0785709 1.57404 0
M  V30 32793 C 3190.67 -0.883688 2.16132 0
M  V30 32794 C 3191.65 -1.30573 1.09017 0
M  V30 32795 O 3192.84 -1.37557 1.37083 0
M  V30 32796 C 3189.97 -2.14885 2.7284 0
M  V30 32797 C 3188.92 -1.86599 3.85182 0
M  V30 32798 C 3188.25 -3.19803 4.28521 0
M  V30 32799 C 3189.55 -1.16592 5.0912 0
M  V30 32800 H 3191.24 -0.394431 2.9679 0
M  V30 32801 H 3188.79 -0.188279 1.42764 0
M  V30 32802 H 3190.74 -2.82624 3.12572 0
M  V30 32803 H 3189.46 -2.66065 1.89413 0
M  V30 32804 H 3188.12 -1.21262 3.45964 0
M  V30 32805 H 3187.77 -3.68837 3.42006 0
M  V30 32806 H 3187.47 -3.01665 5.04254 0
M  V30 32807 H 3188.99 -3.88728 4.70874 0
M  V30 32808 H 3190.41 -1.74412 5.46126 0
M  V30 32809 H 3188.8 -1.0869 5.90175 0
M  V30 32810 H 3189.87 -0.146052 4.8468 0
M  V30 32811 N 3191.22 -1.56389 -0.19503 0
M  V30 32812 C 3192.45 -1.84739 -0.93161 0
M  V30 32813 C 3192.86 -0.661077 -1.76848 0
M  V30 32814 O 3192.22 0.370209 -1.78706 0
M  V30 32815 C 3192.27 -3.11892 -1.82772 0
M  V30 32816 O 3191.99 -4.25949 -1.02464 0
M  V30 32817 C 3193.49 -3.53422 -2.67597 0
M  V30 32818 H 3190.71 -0.613482 -0.27181 0
M  V30 32819 H 3193.25 -2.03497 -0.202264 0
M  V30 32820 H 3191.41 -2.95031 -2.51068 0
M  V30 32821 H 3191.82 -4.98356 -1.6353 0
M  V30 32822 H 3193.3 -4.45358 -3.2613 0
M  V30 32823 H 3193.77 -2.76414 -3.41309 0
M  V30 32824 H 3194.38 -3.72813 -2.04671 0
M  V30 32825 N 3192.7 0.462746 -1.50653 0
M  V30 32826 C 3193.94 1.21181 -1.61739 0
M  V30 32827 C 3194.26 1.92294 -0.323724 0
M  V30 32828 O 3193.53 1.84475 0.659237 0
M  V30 32829 H 3192.11 0.450295 -0.596023 0
M  V30 32830 H 3194.78 0.533018 -1.8747 0
M  V30 32831 H 3193.87 1.9552 -2.43266 0
M  V30 32832 N 3194.17 1.40371 0.716495 0
M  V30 32833 C 3195.1 1.43318 1.84343 0
M  V30 32834 C 3196.09 0.294216 1.67536 0
M  V30 32835 O 3197.27 0.502704 1.87581 0
M  V30 32836 C 3194.4 1.29414 3.22288 0
M  V30 32837 C 3193.35 2.40904 3.53765 0
M  V30 32838 C 3192.68 2.12077 4.90844 0
M  V30 32839 C 3193.98 3.83243 3.54855 0
M  V30 32840 H 3195.67 2.37629 1.82134 0
M  V30 32841 H 3193.22 1.14378 0.874853 0
M  V30 32842 H 3195.17 1.30092 4.00817 0
M  V30 32843 H 3193.9 0.315787 3.2507 0
M  V30 32844 H 3192.56 2.39474 2.77575 0
M  V30 32845 H 3192.2 1.12635 4.90227 0
M  V30 32846 H 3191.9 2.86771 5.1287 0
M  V30 32847 H 3193.43 2.14436 5.71708 0
M  V30 32848 H 3194.84 3.86502 4.23426 0
M  V30 32849 H 3193.24 4.57449 3.88408 0
M  V30 32850 H 3194.31 4.12893 2.54259 0
M  V30 32851 N 3195.65 -0.948621 1.25853 0
M  V30 32852 C 3196.88 -1.72849 1.13714 0
M  V30 32853 C 3197.3 -1.86264 -0.308438 0
M  V30 32854 O 3196.65 -1.36468 -1.21173 0
M  V30 32855 C 3196.7 -3.13915 1.79276 0
M  V30 32856 O 3196.42 -3.01149 3.18184 0
M  V30 32857 C 3197.93 -4.08151 1.72995 0
M  V30 32858 H 3195.15 -0.541436 0.396344 0
M  V30 32859 H 3197.69 -1.18971 1.66331 0
M  V30 32860 H 3195.84 -3.64717 1.30615 0
M  V30 32861 H 3196.26 -3.9018 3.50514 0
M  V30 32862 H 3197.73 -5.04721 2.23519 0
M  V30 32863 H 3198.21 -4.33667 0.694942 0
M  V30 32864 H 3198.82 -3.63267 2.21173 0
M  V30 32865 N 3197.13 -1.07536 -1.15212 0
M  V30 32866 C 3198.55 -0.801252 -1.38029 0
M  V30 32867 C 3198.75 0.593638 -1.92557 0
M  V30 32868 O 3197.8 1.35202 -2.13252 0
M  V30 32869 C 3199.12 -1.87661 -2.34955 0
M  V30 32870 C 3200.66 -1.90158 -2.48614 0
M  V30 32871 C 3201.14 -2.96783 -3.48832 0
M  V30 32872 N 3202.63 -2.95898 -3.56369 0
M  V30 32873 C 3203.36 -3.75044 -4.33739 0
M  V30 32874 N 3202.86 -4.64045 -5.14426 0
M  V30 32875 N 3204.65 -3.63383 -4.28846 0
M  V30 32876 H 3196.8 -1.97496 -0.781604 0
M  V30 32877 H 3199.07 -0.856553 -0.406227 0
M  V30 32878 H 3198.77 -2.87898 -2.02008 0
M  V30 32879 H 3198.65 -1.73833 -3.34757 0
M  V30 32880 H 3201.03 -0.905716 -2.80857 0
M  V30 32881 H 3201.12 -2.08065 -1.48804 0
M  V30 32882 H 3200.76 -3.96571 -3.17323 0
M  V30 32883 H 3200.69 -2.76123 -4.48401 0
M  V30 32884 H 3203.18 -2.31384 -2.9878 0
M  V30 32885 H 3203.49 -5.21063 -5.70713 0
M  V30 32886 H 3201.84 -4.68093 -5.13726 0
M  V30 32887 H 3205.03 -2.93228 -3.64877 0
M  V30 32888 H 3205.2 -4.25306 -4.88895 0
M  V30 32889 N 3198.61 1.32084 -0.85974 0
M  V30 32890 C 3199.86 1.96685 -0.464696 0
M  V30 32891 C 3200.18 1.68347 0.984091 0
M  V30 32892 O 3199.45 0.993391 1.68845 0
M  V30 32893 H 3198.03 0.727666 -0.168851 0
M  V30 32894 H 3200.69 1.61077 -1.09728 0
M  V30 32895 H 3199.79 3.06002 -0.613958 0
M  V30 32896 N 3200.09 0.618171 1.4497 0
M  V30 32897 C 3201.05 -0.0846336 2.29044 0
M  V30 32898 C 3202.05 -0.784896 1.40342 0
M  V30 32899 O 3203.24 -0.631451 1.62353 0
M  V30 32900 C 3200.37 -1.13022 3.21619 0
M  V30 32901 H 3201.56 0.654664 2.92667 0
M  V30 32902 H 3199.12 0.377699 1.51668 0
M  V30 32903 H 3199.85 -1.89993 2.62818 0
M  V30 32904 H 3199.64 -0.632172 3.8697 0
M  V30 32905 H 3201.13 -1.62211 3.84808 0
M  V30 32906 N 3201.56 -1.53481 0.357946 0
M  V30 32907 C 3202.79 -2.0556 -0.235104 0
M  V30 32908 C 3203.21 -1.23198 -1.43066 0
M  V30 32909 O 3202.56 -0.270773 -1.8048 0
M  V30 32910 C 3202.62 -3.5586 -0.636084 0
M  V30 32911 O 3202.34 -4.35099 0.51194 0
M  V30 32912 C 3203.84 -4.24166 -1.28833 0
M  V30 32913 H 3201.06 -0.669632 -0.0428328 0
M  V30 32914 H 3203.6 -1.97932 0.514105 0
M  V30 32915 H 3201.76 -3.63663 -1.33522 0
M  V30 32916 H 3202.17 -5.24158 0.18942 0
M  V30 32917 H 3203.64 -5.30673 -1.51953 0
M  V30 32918 H 3204.12 -3.77409 -2.24631 0
M  V30 32919 H 3204.73 -4.20595 -0.630841 0
M  V30 32920 N 3203.04 -0.0869173 -1.5736 0
M  V30 32921 C 3204.27 0.586463 -1.98101 0
M  V30 32922 C 3204.68 1.62765 -0.964578 0
M  V30 32923 O 3204.02 1.83617 0.0551478 0
M  V30 32924 C 3204.09 1.29941 -3.35195 0
M  V30 32925 C 3203.75 0.409932 -4.55158 0
M  V30 32926 C 3204.75 -0.338624 -5.18796 0
M  V30 32927 C 3202.43 0.330382 -5.01212 0
M  V30 32928 C 3204.43 -1.15479 -6.26852 0
M  V30 32929 C 3202.11 -0.489447 -6.09137 0
M  V30 32930 C 3203.11 -1.23069 -6.71821 0
M  V30 32931 O 3202.8 -2.03697 -7.77665 0
M  V30 32932 H 3202.53 0.162539 -0.656168 0
M  V30 32933 H 3205.08 -0.160415 -2.04773 0
M  V30 32934 H 3203.31 2.09268 -3.25182 0
M  V30 32935 H 3205 1.86651 -3.60439 0
M  V30 32936 H 3205.77 -0.286849 -4.84151 0
M  V30 32937 H 3201.65 0.896978 -4.52189 0
M  V30 32938 H 3205.19 -1.73386 -6.75709 0
M  V30 32939 H 3201.09 -0.542731 -6.43214 0
M  V30 32940 H 3201.86 -1.96291 -7.94614 0
M  V30 32941 N 3204.52 1.5649 0.186734 0
M  V30 32942 C 3205.47 1.96106 1.2508 0
M  V30 32943 C 3206.46 0.847634 1.46668 0
M  V30 32944 O 3207.67 1.03268 1.4743 0
M  V30 32945 H 3204.04 0.623708 0.42011 0
M  V30 32946 H 3206.01 2.84827 0.889711 0
M  V30 32947 C 3204.76 2.32396 2.58626 0
M  V30 32948 H 3204.09 3.17604 2.42833 0
M  V30 32949 H 3205.53 2.63973 3.31805 0
M  V30 32950 C 3203.99 1.16165 3.16239 0
M  V30 32951 O 3204.52 0.441104 3.99271 0
M  V30 32952 N 3202.72 0.936255 2.75105 0
M  V30 32953 H 3202.27 1.52394 2.07687 0
M  V30 32954 H 3202.23 0.160373 3.13991 0
M  V30 32955 N 3206 -0.45475 1.50897 0
M  V30 32956 C 3207.24 -1.20738 1.62942 0
M  V30 32957 C 3207.58 -1.91265 0.336373 0
M  V30 32958 O 3206.85 -1.82847 -0.663121 0
M  V30 32959 C 3207.14 -2.23817 2.82096 0
M  V30 32960 C 3206.99 -1.57488 4.21328 0
M  V30 32961 C 3208.31 -3.24974 2.96783 0
M  V30 32962 H 3205.43 -0.437592 0.593028 0
M  V30 32963 H 3208.07 -0.498927 1.83332 0
M  V30 32964 H 3206.22 -2.84238 2.64842 0
M  V30 32965 H 3207.89 -1.00538 4.50211 0
M  V30 32966 H 3206.13 -0.877589 4.2483 0
M  V30 32967 H 3206.8 -2.32473 5.0066 0
M  V30 32968 H 3209.28 -2.74592 3.12632 0
M  V30 32969 H 3208.16 -3.9441 3.81749 0
M  V30 32970 H 3208.42 -3.90061 2.08098 0
M  V30 32971 N 3207.48 -1.40749 -0.709041 0
M  V30 32972 C 3208.73 -1.38684 -1.46457 0
M  V30 32973 C 3209.04 0.00558652 -1.95599 0
M  V30 32974 O 3210.24 0.14886 -2.71092 0
M  V30 32975 C 3208.7 -2.43775 -2.64767 0
M  V30 32976 C 3208.31 -3.8886 -2.22467 0
M  V30 32977 C 3210.05 -2.50827 -3.42471 0
M  V30 32978 C 3207.96 -4.85534 -3.37655 0
M  V30 32979 H 3206.89 -0.515688 -0.550075 0
M  V30 32980 H 3209.54 -1.66515 -0.771045 0
M  V30 32981 H 3207.92 -2.09054 -3.36322 0
M  V30 32982 H 3209.1 -4.3276 -1.5829 0
M  V30 32983 H 3207.41 -3.85345 -1.57791 0
M  V30 32984 H 3210.01 -3.20239 -4.28195 0
M  V30 32985 H 3210.35 -1.54083 -3.86735 0
M  V30 32986 H 3210.88 -2.84572 -2.77964 0
M  V30 32987 H 3207.62 -5.83634 -2.98416 0
M  V30 32988 H 3207.14 -4.46294 -4.00726 0
M  V30 32989 H 3208.82 -5.05662 -4.03628 0
M  V30 32990 N 3208.96 0.941933 -1.26354 0
M  V30 32991 C 3210.2 1.69054 -1.1202 0
M  V30 32992 C 3210.53 1.91274 0.335823 0
M  V30 32993 O 3209.81 1.49287 1.24674 0
M  V30 32994 C 3210.09 3.06579 -1.88895 0
M  V30 32995 C 3209.95 2.9169 -3.42399 0
M  V30 32996 C 3211.26 4.06683 -1.68216 0
M  V30 32997 H 3208.38 0.613549 -0.408322 0
M  V30 32998 H 3211.03 1.09404 -1.55341 0
M  V30 32999 H 3209.18 3.57498 -1.52076 0
M  V30 33000 H 3210.85 2.47998 -3.88966 0
M  V30 33001 H 3209.09 2.27332 -3.69463 0
M  V30 33002 H 3209.76 3.89228 -3.91415 0
M  V30 33003 H 3212.24 3.64722 -2.00292 0
M  V30 33004 H 3211.11 5.00926 -2.24421 0
M  V30 33005 H 3211.37 4.37638 -0.626551 0
M  V30 33006 N 3210.43 1.08146 1.1464 0
M  V30 33007 C 3211.34 0.720707 2.23255 0
M  V30 33008 C 3212.36 -0.271618 1.71867 0
M  V30 33009 O 3213.54 -0.116231 2.01064 0
M  V30 33010 C 3210.6 0.132603 3.46446 0
M  V30 33011 C 3209.66 1.1792 4.12787 0
M  V30 33012 C 3208.89 0.619065 5.30097 0
M  V30 33013 O 3209.12 -0.562318 5.67621 0
M  V30 33014 O 3208.05 1.36784 5.86152 0
M  V30 33015 H 3211.88 1.62672 2.5646 0
M  V30 33016 H 3209.46 0.854953 1.22519 0
M  V30 33017 H 3211.34 -0.192696 4.20959 0
M  V30 33018 H 3210.02 -0.746607 3.14972 0
M  V30 33019 H 3208.93 1.55699 3.4016 0
M  V30 33020 H 3210.26 2.03059 4.48361 0
M  V30 33021 N 3211.91 -1.31626 0.866732 0
M  V30 33022 C 3212.87 -2.26883 0.325081 0
M  V30 33023 C 3213.87 -1.52088 -0.522106 0
M  V30 33024 O 3215.06 -1.71009 -0.331878 0
M  V30 33025 C 3212.2 -3.36617 -0.538697 0
M  V30 33026 H 3213.39 -2.76306 1.16597 0
M  V30 33027 H 3210.94 -1.42504 0.642054 0
M  V30 33028 H 3211.68 -2.92481 -1.40091 0
M  V30 33029 H 3211.46 -3.92041 0.0678804 0
M  V30 33030 H 3212.95 -4.07563 -0.910052 0
M  V30 33031 N 3213.39 -0.62585 -1.4464 0
M  V30 33032 C 3214.32 0.0691778 -2.33398 0
M  V30 33033 C 3215.3 0.840215 -1.479 0
M  V30 33034 O 3216.49 0.807145 -1.76632 0
M  V30 33035 C 3213.62 1.05494 -3.3089 0
M  V30 33036 C 3212.57 0.395893 -4.26165 0
M  V30 33037 C 3211.9 1.49119 -5.13486 0
M  V30 33038 C 3213.2 -0.694524 -5.17662 0
M  V30 33039 H 3214.89 -0.671976 -2.91762 0
M  V30 33040 H 3212.44 -0.324598 -1.40294 0
M  V30 33041 H 3214.39 1.54986 -3.91864 0
M  V30 33042 H 3213.11 1.82692 -2.70724 0
M  V30 33043 H 3211.77 -0.0783336 -3.66516 0
M  V30 33044 H 3211.42 2.25391 -4.49675 0
M  V30 33045 H 3211.12 1.05562 -5.7804 0
M  V30 33046 H 3212.64 1.98802 -5.7733 0
M  V30 33047 H 3214.06 -0.282919 -5.72601 0
M  V30 33048 H 3212.45 -1.05291 -5.90791 0
M  V30 33049 H 3213.52 -1.5638 -4.58992 0
M  V30 33050 N 3214.87 1.53289 -0.36608 0
M  V30 33051 C 3215.81 2.2575 0.480165 0
M  V30 33052 C 3216.78 1.26442 1.07711 0
M  V30 33053 O 3217.97 1.55224 1.10951 0
M  V30 33054 C 3215.11 3.05048 1.61369 0
M  V30 33055 C 3214.22 4.19248 1.04187 0
M  V30 33056 C 3213.36 4.85987 2.14454 0
M  V30 33057 C 3212.4 5.92218 1.5474 0
M  V30 33058 N 3211.53 6.52645 2.58841 0
M  V30 33059 H 3216.37 2.97651 -0.144252 0
M  V30 33060 H 3213.91 1.46866 -0.0829579 0
M  V30 33061 H 3215.87 3.49298 2.28138 0
M  V30 33062 H 3214.5 2.35401 2.20876 0
M  V30 33063 H 3213.55 3.7948 0.264448 0
M  V30 33064 H 3214.86 4.95586 0.565292 0
M  V30 33065 H 3214.02 5.33423 2.89042 0
M  V30 33066 H 3212.76 4.09122 2.65463 0
M  V30 33067 H 3211.76 5.44143 0.786663 0
M  V30 33068 H 3212.99 6.71003 1.04554 0
M  V30 33069 H 3210.93 5.78633 3.09063 0
M  V30 33070 H 3210.85 7.24524 2.15872 0
M  V30 33071 H 3212.12 7.0473 3.3313 0
M  V30 33072 N 3216.35 0.0952613 1.57312 0
M  V30 33073 C 3217.62 -0.610682 1.85823 0
M  V30 33074 C 3218 -1.86332 0.992147 0
M  V30 33075 O 3217.35 -2.28409 0.0646071 0
M  V30 33076 C 3217.56 -0.925907 3.36494 0
M  V30 33077 C 3218.91 -1.28929 4.04552 0
M  V30 33078 O 3219.93 -1.01692 3.41376 0
M  V30 33079 O 3218.79 -1.7994 5.16027 0
M  V30 33080 H 3215.89 -0.305613 0.768459 0
M  V30 33081 H 3218.43 0.127971 1.69217 0
M  V30 33082 H 3217.2 -0.0372439 3.91282 0
M  V30 33083 H 3216.83 -1.72053 3.58446 0
M  V30 33084 N 3217.82 -1.56587 -0.178432 0
M  V30 33085 C 3218.76 -1.9241 -1.24543 0
M  V30 33086 C 3219.77 -0.816446 -1.40847 0
M  V30 33087 O 3220.96 -1.09489 -1.40977 0
M  V30 33088 C 3218.06 -2.15548 -2.61519 0
M  V30 33089 C 3217.23 -3.46756 -2.66606 0
M  V30 33090 C 3216.29 -3.58807 -3.84895 0
M  V30 33091 O 3215.32 -4.31488 -3.71223 0
M  V30 33092 N 3216.52 -2.93129 -5.01055 0
M  V30 33093 H 3219.28 -2.84537 -0.941225 0
M  V30 33094 H 3216.84 -1.57656 -0.368247 0
M  V30 33095 H 3218.84 -2.20882 -3.39106 0
M  V30 33096 H 3217.41 -1.2984 -2.84359 0
M  V30 33097 H 3216.63 -3.53143 -1.75167 0
M  V30 33098 H 3217.91 -4.33108 -2.6701 0
M  V30 33099 H 3217.31 -2.33937 -5.15063 0
M  V30 33100 H 3215.87 -3.04067 -5.76529 0
M  V30 33101 N 3219.3 0.446741 -1.51136 0
M  V30 33102 C 3220.23 1.55964 -1.67952 0
M  V30 33103 C 3221.25 1.52852 -0.560364 0
M  V30 33104 O 3222.44 1.57799 -0.834377 0
M  V30 33105 C 3219.54 2.94877 -1.67035 0
M  V30 33106 C 3218.71 3.22596 -2.95382 0
M  V30 33107 C 3217.77 4.41185 -2.8678 0
M  V30 33108 O 3216.79 4.40298 -3.6073 0
M  V30 33109 N 3218 5.44225 -2.01989 0
M  V30 33110 H 3220.76 1.41946 -2.63953 0
M  V30 33111 H 3218.32 0.635543 -1.48904 0
M  V30 33112 H 3220.31 3.72217 -1.58861 0
M  V30 33113 H 3218.88 3.0254 -0.786676 0
M  V30 33114 H 3218.1 2.33642 -3.17498 0
M  V30 33115 H 3219.39 3.37938 -3.80362 0
M  V30 33116 H 3218.79 5.47778 -1.41266 0
M  V30 33117 H 3217.35 6.20454 -1.997 0
M  V30 33118 N 3220.78 1.41123 0.701567 0
M  V30 33119 C 3222.2 1.23461 1.01141 0
M  V30 33120 C 3222.4 0.119716 2.01144 0
M  V30 33121 O 3221.45 -0.517845 2.47133 0
M  V30 33122 C 3222.76 2.58168 1.54175 0
M  V30 33123 C 3224.31 2.65299 1.66089 0
M  V30 33124 C 3224.79 4.00308 2.22525 0
M  V30 33125 N 3226.28 4.02124 2.29893 0
M  V30 33126 C 3227.01 5.03385 2.74575 0
M  V30 33127 N 3226.51 6.15037 3.18906 0
M  V30 33128 N 3228.3 4.90748 2.74085 0
M  V30 33129 H 3220.45 2.12364 0.0389714 0
M  V30 33130 H 3222.72 0.94463 0.0798682 0
M  V30 33131 H 3222.42 3.40473 0.881528 0
M  V30 33132 H 3222.3 2.80236 2.52483 0
M  V30 33133 H 3224.68 1.83356 2.31224 0
M  V30 33134 H 3224.76 2.47047 0.663417 0
M  V30 33135 H 3224.41 4.82697 1.58007 0
M  V30 33136 H 3224.34 4.15897 3.23013 0
M  V30 33137 H 3226.83 3.21506 1.98601 0
M  V30 33138 H 3227.14 6.8818 3.51608 0
M  V30 33139 H 3225.49 6.18582 3.16829 0
M  V30 33140 H 3228.68 4.02608 2.38797 0
M  V30 33141 H 3228.85 5.69804 3.0859 0
M  V30 33142 N 3222.26 -0.935219 1.26852 0
M  V30 33143 C 3223.21 -2.02076 1.0559 0
M  V30 33144 C 3224.19 -1.60894 -0.0136707 0
M  V30 33145 O 3225.38 -1.75821 0.203987 0
M  V30 33146 C 3222.51 -3.36146 0.697177 0
M  V30 33147 C 3221.6 -3.83795 1.8045 0
M  V30 33148 N 3221.99 -4.04032 3.0429 0
M  V30 33149 C 3220.29 -4.12763 1.68947 0
M  V30 33150 C 3220.99 -4.43593 3.76298 0
M  V30 33151 N 3219.96 -4.50637 3.04019 0
M  V30 33152 H 3223.77 -2.15743 1.99581 0
M  V30 33153 H 3221.28 -1.1215 1.17457 0
M  V30 33154 H 3223.28 -4.13569 0.525988 0
M  V30 33155 H 3221.94 -3.23847 -0.23519 0
M  V30 33156 H 3222.95 -3.90552 3.40132 0
M  V30 33157 H 3219.63 -4.09219 0.827413 0
M  V30 33158 H 3221.02 -4.67392 4.82695 0
M  V30 33159 N 3223.74 -1.08752 -1.14065 0
M  V30 33160 C 3224.68 -0.720671 -2.1926 0
M  V30 33161 C 3225.65 0.294819 -1.63463 0
M  V30 33162 O 3226.84 0.178025 -1.89968 0
M  V30 33163 C 3223.98 -0.139934 -3.44816 0
M  V30 33164 C 3223.09 -1.20863 -4.14748 0
M  V30 33165 C 3222.23 -0.591377 -5.27898 0
M  V30 33166 C 3221.27 -1.64186 -5.89669 0
M  V30 33167 N 3220.4 -1.04615 -6.94262 0
M  V30 33168 H 3225.24 -1.62203 -2.49989 0
M  V30 33169 H 3222.78 -0.810518 -1.22756 0
M  V30 33170 H 3224.74 0.214514 -4.16648 0
M  V30 33171 H 3223.37 0.724718 -3.14559 0
M  V30 33172 H 3222.42 -1.68046 -3.41269 0
M  V30 33173 H 3223.73 -2.00454 -4.56749 0
M  V30 33174 H 3222.89 -0.185378 -6.06417 0
M  V30 33175 H 3221.62 0.23615 -4.87128 0
M  V30 33176 H 3220.63 -2.05748 -5.09851 0
M  V30 33177 H 3221.85 -2.47193 -6.32513 0
M  V30 33178 H 3219.8 -0.239779 -6.55562 0
M  V30 33179 H 3219.72 -1.77911 -7.34768 0
M  V30 33180 H 3220.99 -0.666125 -7.76649 0
M  V30 33181 N 3225.21 1.31165 -0.873701 0
M  V30 33182 C 3226.46 1.96861 -0.487213 0
M  V30 33183 C 3226.79 1.68878 0.958841 0
M  V30 33184 O 3226.07 0.987308 1.67578 0
M  V30 33185 C 3226.35 3.52218 -0.749312 0
M  V30 33186 C 3226.2 3.89759 -2.24517 0
M  V30 33187 C 3227.52 4.39558 -0.218271 0
M  V30 33188 H 3224.64 0.71506 -0.17849 0
M  V30 33189 H 3227.28 1.55229 -1.09563 0
M  V30 33190 H 3225.43 3.8781 -0.231472 0
M  V30 33191 H 3227.11 3.64249 -2.83055 0
M  V30 33192 H 3225.35 3.38232 -2.71627 0
M  V30 33193 H 3226.02 4.98095 -2.3792 0
M  V30 33194 H 3228.5 4.10811 -0.661346 0
M  V30 33195 H 3227.37 5.47205 -0.43108 0
M  V30 33196 H 3227.63 4.33254 0.87998 0
M  V30 33197 N 3226.69 0.633512 1.44307 0
M  V30 33198 C 3228.11 0.299338 1.56768 0
M  V30 33199 C 3228.31 -1.19741 1.62063 0
M  V30 33200 O 3227.36 -1.98155 1.56496 0
M  V30 33201 C 3228.68 0.993357 2.83818 0
M  V30 33202 C 3230.23 0.971727 2.97534 0
M  V30 33203 C 3230.7 1.64626 4.2739 0
M  V30 33204 N 3232.19 1.61296 4.34209 0
M  V30 33205 C 3232.93 2.10379 5.33412 0
M  V30 33206 N 3232.42 2.67664 6.39005 0
M  V30 33207 N 3234.22 2.00994 5.24936 0
M  V30 33208 H 3226.37 1.60504 1.39113 0
M  V30 33209 H 3228.63 0.673863 0.666792 0
M  V30 33210 H 3228.34 2.04829 2.85899 0
M  V30 33211 H 3228.21 0.532603 3.73421 0
M  V30 33212 H 3230.6 -0.0747335 2.95005 0
M  V30 33213 H 3230.68 1.47099 2.09274 0
M  V30 33214 H 3230.32 2.69218 4.30679 0
M  V30 33215 H 3230.25 1.1218 5.14513 0
M  V30 33216 H 3232.74 1.19474 3.58517 0
M  V30 33217 H 3233.06 3.02844 7.10989 0
M  V30 33218 H 3231.4 2.71716 6.39684 0
M  V30 33219 H 3234.59 1.55961 4.41355 0
M  V30 33220 H 3234.76 2.39557 6.02093 0
M  V30 33221 N 3228.17 -1.53093 0.374204 0
M  V30 33222 C 3229.08 -2.29722 -0.475894 0
M  V30 33223 C 3230.1 -1.36031 -1.08497 0
M  V30 33224 O 3231.27 -1.69093 -1.09405 0
M  V30 33225 C 3228.34 -3.07797 -1.59567 0
M  V30 33226 C 3227.4 -4.17171 -1.01325 0
M  V30 33227 C 3226.63 -4.91514 -2.07966 0
M  V30 33228 O 3226.85 -4.65798 -3.29223 0
M  V30 33229 O 3225.79 -5.77235 -1.7054 0
M  V30 33230 H 3229.61 -3.0334 0.147931 0
M  V30 33231 H 3227.2 -1.48758 0.138338 0
M  V30 33232 H 3229.08 -3.56524 -2.24652 0
M  V30 33233 H 3227.76 -2.37008 -2.20474 0
M  V30 33234 H 3226.66 -3.72676 -0.326067 0
M  V30 33235 H 3228 -4.90151 -0.448613 0
M  V30 33236 N 3229.65 -0.103603 -1.57259 0
M  V30 33237 C 3230.56 0.866289 -2.1802 0
M  V30 33238 C 3231.57 1.30402 -1.15201 0
M  V30 33239 O 3232.75 1.37019 -1.47607 0
M  V30 33240 C 3229.82 2.10429 -2.75537 0
M  V30 33241 C 3228.88 1.71995 -3.9334 0
M  V30 33242 C 3228.11 2.89893 -4.48105 0
M  V30 33243 O 3228.33 4.0487 -4.01791 0
M  V30 33244 O 3227.27 2.67867 -5.39009 0
M  V30 33245 H 3231.09 0.379285 -3.01322 0
M  V30 33246 H 3228.68 0.121202 -1.48908 0
M  V30 33247 H 3230.56 2.82965 -3.12264 0
M  V30 33248 H 3229.23 2.58165 -1.95275 0
M  V30 33249 H 3228.14 0.96613 -3.61409 0
M  V30 33250 H 3229.47 1.29014 -4.74991 0
M  V30 33251 N 3231.13 1.56679 0.170126 0
M  V30 33252 C 3232.37 1.82331 0.887874 0
M  V30 33253 C 3232.71 0.68164 1.81844 0
M  V30 33254 O 3231.98 -0.316328 1.9191 0
M  V30 33255 C 3232.26 3.18377 1.68251 0
M  V30 33256 C 3232.12 4.43073 0.774981 0
M  V30 33257 C 3233.44 3.51377 2.64995 0
M  V30 33258 H 3230.55 0.663258 0.321338 0
M  V30 33259 H 3233.2 1.89375 0.154032 0
M  V30 33260 H 3231.35 3.12503 2.30812 0
M  V30 33261 H 3233.02 4.61015 0.162153 0
M  V30 33262 H 3231.26 4.3372 0.0831047 0
M  V30 33263 H 3231.93 5.34818 1.36652 0
M  V30 33264 H 3234.41 3.57712 2.12559 0
M  V30 33265 H 3233.28 4.47642 3.1766 0
M  V30 33266 H 3233.55 2.76142 3.45251 0
M  V30 33267 N 3232.6 -0.43872 1.5137 0
M  V30 33268 C 3233.85 -1.19003 1.64214 0
M  V30 33269 C 3234.18 -1.90897 0.35664 0
M  V30 33270 O 3233.46 -1.8354 -0.64369 0
M  V30 33271 C 3233.74 -2.20812 2.84454 0
M  V30 33272 C 3233.59 -1.5301 4.22975 0
M  V30 33273 C 3234.91 -3.21808 3.00213 0
M  V30 33274 H 3232.03 -0.431278 0.597636 0
M  V30 33275 H 3234.67 -0.479454 1.83851 0
M  V30 33276 H 3232.82 -2.81413 2.67841 0
M  V30 33277 H 3234.5 -0.957575 4.51252 0
M  V30 33278 H 3232.74 -0.832481 4.25737 0
M  V30 33279 H 3233.41 -2.27149 5.03098 0
M  V30 33280 H 3235.89 -2.7126 3.15527 0
M  V30 33281 H 3234.76 -3.90339 3.85911 0
M  V30 33282 H 3235.02 -3.87832 2.12223 0
M  V30 33283 N 3234.08 -1.41493 -0.694073 0
M  V30 33284 C 3235.31 -1.4429 -1.48283 0
M  V30 33285 C 3235.73 -0.0486115 -1.88737 0
M  V30 33286 O 3235.08 0.932421 -1.56883 0
M  V30 33287 C 3235.13 -2.35295 -2.74442 0
M  V30 33288 O 3234.85 -3.69298 -2.35692 0
M  V30 33289 C 3236.36 -2.46911 -3.68171 0
M  V30 33290 H 3233.58 -0.491399 -0.456911 0
M  V30 33291 H 3236.12 -1.85794 -0.854444 0
M  V30 33292 H 3234.27 -1.97096 -3.33515 0
M  V30 33293 H 3234.69 -4.17849 -3.17022 0
M  V30 33294 H 3236.16 -3.14751 -4.53471 0
M  V30 33295 H 3236.64 -1.50085 -4.1276 0
M  V30 33296 H 3237.25 -2.85753 -3.15001 0
M  V30 33297 N 3235.56 0.928479 -1.27346 0
M  V30 33298 C 3236.81 1.67857 -1.13807 0
M  V30 33299 C 3237.14 1.9162 0.315516 0
M  V30 33300 O 3236.41 1.50601 1.23084 0
M  V30 33301 C 3236.7 3.04558 -1.92136 0
M  V30 33302 C 3236.55 2.88042 -3.45474 0
M  V30 33303 C 3237.87 4.04876 -1.7252 0
M  V30 33304 H 3234.99 0.609184 -0.414806 0
M  V30 33305 H 3237.63 1.0775 -1.56492 0
M  V30 33306 H 3235.78 3.55865 -1.55859 0
M  V30 33307 H 3237.45 2.43858 -3.91575 0
M  V30 33308 H 3235.7 2.234 -3.71853 0
M  V30 33309 H 3236.37 3.85054 -3.95521 0
M  V30 33310 H 3238.84 3.62577 -2.04149 0
M  V30 33311 H 3237.72 4.98517 -2.29721 0
M  V30 33312 H 3237.98 4.36949 -0.672933 0
M  V30 33313 N 3237.04 1.09355 1.13486 0
M  V30 33314 C 3238.29 0.827521 1.84381 0
M  V30 33315 C 3238.61 -0.648713 1.83893 0
M  V30 33316 O 3237.88 -1.47064 1.29418 0
M  V30 33317 H 3236.46 0.303139 0.682727 0
M  V30 33318 H 3239.12 1.38154 1.37475 0
M  V30 33319 H 3238.22 1.1804 2.88917 0
M  V30 33320 N 3238.52 -1.307 0.880644 0
M  V30 33321 C 3239.47 -2.30195 0.333602 0
M  V30 33322 C 3240.46 -1.59979 -0.557064 0
M  V30 33323 O 3241.67 -1.74489 -0.441979 0
M  V30 33324 H 3238.04 -0.746689 0.0892168 0
M  V30 33325 H 3240.01 -2.73797 1.18649 0
M  V30 33326 C 3238.76 -3.44896 -0.440671 0
M  V30 33327 H 3238.08 -3.99106 0.235424 0
M  V30 33328 H 3239.52 -4.16602 -0.788603 0
M  V30 33329 C 3237.98 -2.94507 -1.63608 0
M  V30 33330 O 3238.51 -2.94171 -2.73544 0
M  V30 33331 N 3236.72 -2.50573 -1.47179 0
M  V30 33332 H 3236.27 -2.51045 -0.577435 0
M  V30 33333 H 3236.22 -2.17215 -2.27299 0
M  V30 33334 N 3240 -0.641156 -1.43969 0
M  V30 33335 C 3241.22 -0.155354 -2.06817 0
M  V30 33336 C 3241.65 1.16516 -1.47667 0
M  V30 33337 O 3241 1.71706 -0.58195 0
M  V30 33338 C 3241.05 -0.064817 -3.60542 0
M  V30 33339 O 3240.16 0.976377 -4.00675 0
M  V30 33340 H 3239.5 -0.089352 -0.657961 0
M  V30 33341 H 3242.03 -0.880672 -1.84676 0
M  V30 33342 H 3242.04 0.122481 -4.07816 0
M  V30 33343 H 3240.71 -1.02886 -4.02973 0
M  V30 33344 H 3239.29 0.762841 -3.65014 0
M  V30 33345 N 3241.47 1.52892 -0.382318 0
M  V30 33346 C 3242.72 2.01787 0.202397 0
M  V30 33347 C 3243.05 1.26855 1.47042 0
M  V30 33348 O 3242.33 0.367003 1.91006 0
M  V30 33349 C 3242.61 3.56921 0.477408 0
M  V30 33350 C 3242.46 4.4253 -0.805417 0
M  V30 33351 C 3243.78 4.21348 1.27099 0
M  V30 33352 H 3240.9 0.733466 0.0720869 0
M  V30 33353 H 3243.54 1.83013 -0.51051 0
M  V30 33354 H 3241.69 3.7305 1.08472 0
M  V30 33355 H 3243.37 4.38167 -1.44248 0
M  V30 33356 H 3241.61 4.09823 -1.42223 0
M  V30 33357 H 3242.28 5.49073 -0.567731 0
M  V30 33358 H 3244.76 4.09154 0.757089 0
M  V30 33359 H 3243.63 5.29887 1.43215 0
M  V30 33360 H 3243.89 3.78517 2.28424 0
M  V30 33361 N 3242.95 0.111941 1.57202 0
M  V30 33362 C 3243.9 -0.858248 2.16187 0
M  V30 33363 C 3244.89 -1.28037 1.10919 0
M  V30 33364 O 3246.1 -1.25293 1.29235 0
M  V30 33365 H 3242.47 -0.294858 0.691782 0
M  V30 33366 H 3244.45 -0.336213 2.965 0
M  V30 33367 C 3243.19 -2.10122 2.77027 0
M  V30 33368 H 3242.52 -1.78533 3.57723 0
M  V30 33369 H 3243.96 -2.76027 3.21846 0
M  V30 33370 C 3242.42 -2.88635 1.73757 0
M  V30 33371 O 3242.95 -3.83772 1.18666 0
M  V30 33372 N 3241.15 -2.52493 1.4386 0
M  V30 33373 H 3240.7 -1.75196 1.88849 0
M  V30 33374 H 3240.66 -3.05322 0.750039 0
M  V30 33375 N 3244.43 -1.56767 -0.161814 0
M  V30 33376 C 3245.34 -2.00387 -1.21993 0
M  V30 33377 C 3246.36 -0.916794 -1.47888 0
M  V30 33378 O 3247.53 -1.22515 -1.5985 0
M  V30 33379 C 3244.6 -2.36309 -2.5369 0
M  V30 33380 C 3243.66 -3.58892 -2.35574 0
M  V30 33381 C 3242.89 -3.93092 -3.60991 0
M  V30 33382 O 3243.11 -3.28137 -4.66564 0
M  V30 33383 O 3242.05 -4.86403 -3.54536 0
M  V30 33384 H 3245.87 -2.90682 -0.87965 0
M  V30 33385 H 3243.46 -1.44761 -0.369412 0
M  V30 33386 H 3245.34 -2.60341 -3.31362 0
M  V30 33387 H 3244.02 -1.49174 -2.87278 0
M  V30 33388 H 3242.92 -3.40067 -1.55902 0
M  V30 33389 H 3244.26 -4.46599 -2.06907 0
M  V30 33390 N 3245.91 0.430686 -1.51601 0
M  V30 33391 C 3247.16 1.17723 -1.64273 0
M  V30 33392 C 3247.48 1.91564 -0.364439 0
M  V30 33393 O 3246.75 1.85831 0.619959 0
M  V30 33394 H 3245.33 0.437552 -0.60544 0
M  V30 33395 H 3247.99 0.493133 -1.88558 0
M  V30 33396 H 3247.08 1.90316 -2.47358 0
M  V30 33397 N 3247.39 1.4186 0.686559 0
M  V30 33398 C 3248.32 1.47196 1.81261 0
M  V30 33399 C 3249.3 0.329686 1.66874 0
M  V30 33400 O 3250.48 0.54238 1.86472 0
M  V30 33401 C 3247.61 1.36221 3.1947 0
M  V30 33402 C 3246.57 2.48353 3.48575 0
M  V30 33403 C 3245.89 2.22441 4.86235 0
M  V30 33404 C 3247.19 3.90684 3.46646 0
M  V30 33405 H 3248.89 2.41439 1.77053 0
M  V30 33406 H 3246.43 1.16208 0.850395 0
M  V30 33407 H 3248.38 1.38565 3.97967 0
M  V30 33408 H 3247.11 0.384668 3.24327 0
M  V30 33409 H 3245.77 2.45307 2.72433 0
M  V30 33410 H 3245.42 1.23008 4.87727 0
M  V30 33411 H 3245.12 2.97585 5.06672 0
M  V30 33412 H 3246.64 2.26514 5.6703 0
M  V30 33413 H 3248.05 3.95396 4.15132 0
M  V30 33414 H 3246.45 4.65585 3.78617 0
M  V30 33415 H 3247.52 4.18193 2.45444 0
M  V30 33416 N 3248.86 -0.921712 1.27837 0
M  V30 33417 C 3249.81 -2.04447 1.10924 0
M  V30 33418 C 3250.81 -1.69372 0.0306767 0
M  V30 33419 O 3252.01 -1.79007 0.18885 0
M  V30 33420 H 3248.39 -0.669739 0.341984 0
M  V30 33421 H 3250.36 -2.15857 2.0603 0
M  V30 33422 C 3249.11 -3.3885 0.779503 0
M  V30 33423 H 3248.43 -3.66328 1.60137 0
M  V30 33424 H 3249.87 -4.18164 0.701072 0
M  V30 33425 C 3248.33 -3.32919 -0.516411 0
M  V30 33426 O 3248.86 -3.7063 -1.54907 0
M  V30 33427 N 3247.06 -2.86014 -0.514226 0
M  V30 33428 H 3246.61 -2.55522 0.326554 0
M  V30 33429 H 3246.57 -2.82428 -1.38136 0
M  V30 33430 N 3250.34 -1.09956 -1.12905 0
M  V30 33431 C 3251.27 -0.70174 -2.18193 0
M  V30 33432 C 3252.29 0.259103 -1.60725 0
M  V30 33433 O 3253.48 0.0443235 -1.78445 0
M  V30 33434 C 3250.58 -0.0141198 -3.38897 0
M  V30 33435 C 3249.75 -0.997882 -4.25865 0
M  V30 33436 C 3248.81 -0.342663 -5.25083 0
M  V30 33437 O 3247.83 -0.991956 -5.6049 0
M  V30 33438 N 3249.04 0.900957 -5.73466 0
M  V30 33439 H 3251.8 -1.60759 -2.52936 0
M  V30 33440 H 3249.36 -0.987726 -1.28279 0
M  V30 33441 H 3251.35 0.435557 -4.02349 0
M  V30 33442 H 3249.92 0.794064 -3.02346 0
M  V30 33443 H 3249.14 -1.62597 -3.59104 0
M  V30 33444 H 3250.43 -1.66396 -4.80822 0
M  V30 33445 H 3249.83 1.44793 -5.46856 0
M  V30 33446 H 3248.39 1.29386 -6.38829 0
M  V30 33447 N 3251.82 1.30231 -0.887563 0
M  V30 33448 C 3253.23 1.78183 -0.557481 0
M  V30 33449 C 3253.58 1.72949 0.926443 0
M  V30 33450 O 3252.71 1.30793 1.72401 0
M  V30 33451 C 3253.3 3.23545 -1.00518 0
M  V30 33452 C 3251.86 3.69323 -0.726467 0
M  V30 33453 C 3251.01 2.50624 -1.1867 0
M  V30 33454 H 3253.96 1.17064 -1.07153 0
M  V30 33455 H 3253.98 3.7902 -0.335252 0
M  V30 33456 H 3253.49 3.27322 -2.08523 0
M  V30 33457 H 3251.59 3.71032 0.341482 0
M  V30 33458 H 3251.71 4.60676 -1.31583 0
M  V30 33459 H 3250.07 2.47386 -0.60598 0
M  V30 33460 H 3250.85 2.57137 -2.27455 0
M  V30 33461 N 3253.3 0.648782 1.43627 0
M  V30 33462 C 3254.53 0.167981 2.06217 0
M  V30 33463 C 3254.94 -1.16459 1.48602 0
M  V30 33464 O 3254.3 -1.71803 0.615621 0
M  V30 33465 C 3254.35 0.066075 3.6144 0
M  V30 33466 O 3254.07 1.34597 4.16912 0
M  V30 33467 C 3255.57 -0.441331 4.41098 0
M  V30 33468 H 3252.79 0.0878354 0.665226 0
M  V30 33469 H 3255.34 0.888177 1.84206 0
M  V30 33470 H 3253.49 -0.604655 3.82652 0
M  V30 33471 H 3253.9 1.20227 5.10535 0
M  V30 33472 H 3255.38 -0.4616 5.50067 0
M  V30 33473 H 3255.86 -1.4718 4.13805 0
M  V30 33474 H 3256.46 0.196754 4.24845 0
M  V30 33475 N 3254.78 -1.52688 0.390421 0
M  V30 33476 C 3256.05 -1.94008 -0.249034 0
M  V30 33477 C 3256.43 -1.32596 -1.64261 0
M  V30 33478 O 3255.78 -0.494488 -2.23085 0
M  V30 33479 C 3255.99 -3.47921 -0.274257 0
M  V30 33480 C 3257.34 -4.21614 -0.502669 0
M  V30 33481 O 3258.36 -3.54432 -0.354418 0
M  V30 33482 O 3257.22 -5.40712 -0.793245 0
M  V30 33483 H 3254.32 -0.812325 -0.155102 0
M  V30 33484 H 3256.86 -1.63761 0.445009 0
M  V30 33485 H 3255.63 -3.84955 0.701834 0
M  V30 33486 H 3255.26 -3.84474 -1.01318 0
M  V30 33487 N 3256.25 -0.120276 -1.5714 0
M  V30 33488 C 3257.53 0.581042 -1.86771 0
M  V30 33489 C 3257.91 1.8473 -1.02166 0
M  V30 33490 O 3257.26 2.28277 -0.100937 0
M  V30 33491 C 3257.47 0.872257 -3.37924 0
M  V30 33492 C 3258.82 1.22476 -4.06552 0
M  V30 33493 O 3259.84 0.962478 -3.4295 0
M  V30 33494 O 3258.7 1.71707 -5.18824 0
M  V30 33495 H 3255.79 0.293349 -0.773224 0
M  V30 33496 H 3258.34 -0.154876 -1.68992 0
M  V30 33497 H 3257.11 -0.0250104 -3.91292 0
M  V30 33498 H 3256.74 1.66329 -3.61138 0
M  V30 33499 N 3257.73 1.56851 0.153498 0
M  V30 33500 C 3258.96 1.87508 0.88631 0
M  V30 33501 C 3259.38 0.708595 1.74243 0
M  V30 33502 O 3258.74 -0.341966 1.78046 0
M  V30 33503 C 3258.79 3.16706 1.72422 0
M  V30 33504 O 3257.89 3.00183 2.82779 0
M  V30 33505 H 3257.23 0.61625 0.247248 0
M  V30 33506 H 3259.76 2.04076 0.146271 0
M  V30 33507 H 3259.77 3.48563 2.12056 0
M  V30 33508 H 3258.45 4.01212 1.09551 0
M  V30 33509 H 3257.03 2.7972 2.46599 0
M  V30 33510 N 3259.21 -0.42264 1.51827 0
M  V30 33511 C 3260.45 -1.18013 1.6689 0
M  V30 33512 C 3260.81 -1.88123 0.383892 0
M  V30 33513 O 3262.02 -2.65648 0.41046 0
M  V30 33514 C 3260.29 -2.15865 2.84845 0
M  V30 33515 S 3261.85 -2.99903 3.20318 0
M  V30 33516 H 3258.66 -0.39999 0.587817 0
M  V30 33517 H 3261.27 -0.469446 1.8978 0
M  V30 33518 H 3259.97 -1.63023 3.76632 0
M  V30 33519 H 3259.5 -2.91493 2.64188 0
M  V30 33520 H 3261.52 -4.17671 2.67891 0
M  V30 33521 N 3260.69 -1.42222 -0.679027 0
M  V30 33522 C 3261.94 -1.42465 -1.43909 0
M  V30 33523 C 3262.26 -0.0395916 -1.9446 0
M  V30 33524 O 3261.52 0.951335 -1.71021 0
M  V30 33525 C 3261.82 -2.39232 -2.65524 0
M  V30 33526 C 3261.48 -3.85708 -2.33539 0
M  V30 33527 C 3260.15 -4.25607 -2.24526 0
M  V30 33528 C 3262.5 -4.7812 -2.07487 0
M  V30 33529 C 3259.83 -5.55904 -1.87583 0
M  V30 33530 C 3262.18 -6.08755 -1.72048 0
M  V30 33531 C 3260.84 -6.47657 -1.61543 0
M  V30 33532 H 3260.11 -0.521318 -0.526601 0
M  V30 33533 H 3262.76 -1.75133 -0.77463 0
M  V30 33534 H 3261.06 -1.99876 -3.36982 0
M  V30 33535 H 3262.76 -2.36687 -3.23698 0
M  V30 33536 H 3259.35 -3.54116 -2.41453 0
M  V30 33537 H 3263.53 -4.48085 -2.13385 0
M  V30 33538 H 3258.79 -5.84911 -1.78015 0
M  V30 33539 H 3262.96 -6.79851 -1.50914 0
M  V30 33540 H 3260.59 -7.48531 -1.32686 0
M  V30 33541 N 3262.17 0.91492 -1.28324 0
M  V30 33542 C 3263.44 1.64315 -1.06114 0
M  V30 33543 C 3263.82 2.07278 0.399897 0
M  V30 33544 O 3263.17 1.81686 1.38574 0
M  V30 33545 C 3263.38 2.83553 -2.03466 0
M  V30 33546 C 3264.73 3.54599 -2.33547 0
M  V30 33547 O 3265.75 2.937 -2.01541 0
M  V30 33548 O 3264.61 4.64352 -2.88166 0
M  V30 33549 H 3261.71 0.720783 -0.405463 0
M  V30 33550 H 3264.25 0.964328 -1.39638 0
M  V30 33551 H 3263.02 2.48891 -3.01942 0
M  V30 33552 H 3262.65 3.59149 -1.7058 0
M  V30 33553 N 3263.64 1.10553 1.1232 0
M  V30 33554 C 3265.06 0.866229 1.65389 0
M  V30 33555 C 3265.41 -0.603251 1.86696 0
M  V30 33556 O 3264.53 -1.4632 1.59435 0
M  V30 33557 C 3265.13 1.56592 3.0044 0
M  V30 33558 C 3263.69 1.37329 3.50454 0
M  V30 33559 C 3262.83 1.61453 2.25451 0
M  V30 33560 H 3265.78 1.26307 0.960844 0
M  V30 33561 H 3265.8 1.00563 3.6697 0
M  V30 33562 H 3265.32 2.6354 2.84901 0
M  V30 33563 H 3263.42 0.325496 3.71176 0
M  V30 33564 H 3263.53 2.11609 4.29836 0
M  V30 33565 H 3261.89 1.03733 2.32619 0
M  V30 33566 H 3262.68 2.69655 2.12464 0
M  V30 33567 N 3265.12 -1.29758 0.894457 0
M  V30 33568 C 3266.35 -1.99628 0.532178 0
M  V30 33569 C 3266.76 -1.67162 -0.886205 0
M  V30 33570 O 3266.1 -0.910093 -1.59571 0
M  V30 33571 C 3266.17 -3.53786 0.638397 0
M  V30 33572 C 3265.83 -4.09795 2.0228 0
M  V30 33573 C 3266.83 -4.25082 2.99334 0
M  V30 33574 C 3264.51 -4.4495 2.33076 0
M  V30 33575 C 3266.51 -4.74751 4.25312 0
M  V30 33576 C 3264.19 -4.94316 3.59298 0
M  V30 33577 C 3265.19 -5.0917 4.55231 0
M  V30 33578 O 3264.88 -5.57467 5.79212 0
M  V30 33579 H 3264.61 -0.644694 0.203337 0
M  V30 33580 H 3267.16 -1.66388 1.20433 0
M  V30 33581 H 3265.39 -3.86593 -0.0907658 0
M  V30 33582 H 3267.08 -4.04891 0.286028 0
M  V30 33583 H 3267.85 -3.98215 2.76856 0
M  V30 33584 H 3263.73 -4.3265 1.59169 0
M  V30 33585 H 3267.27 -4.8626 5.00197 0
M  V30 33586 H 3263.17 -5.20619 3.81609 0
M  V30 33587 H 3263.94 -5.75792 5.81727 0
M  V30 33588 N 3266.6 -0.65639 -1.4328 0
M  V30 33589 C 3267.83 -0.178915 -2.06125 0
M  V30 33590 C 3268.24 1.1567 -1.49218 0
M  V30 33591 O 3267.6 1.71474 -0.624723 0
M  V30 33592 C 3267.65 -0.085242 -3.61399 0
M  V30 33593 O 3267.37 -1.36806 -4.16192 0
M  V30 33594 C 3268.87 0.417932 -4.41326 0
M  V30 33595 H 3266.09 -0.091362 -0.664751 0
M  V30 33596 H 3268.64 -0.897933 -1.83732 0
M  V30 33597 H 3266.79 0.584353 -3.82967 0
M  V30 33598 H 3267.21 -1.22933 -5.0989 0
M  V30 33599 H 3268.68 0.432422 -5.50304 0
M  V30 33600 H 3269.16 1.44983 -4.1458 0
M  V30 33601 H 3269.76 -0.219282 -4.24734 0
M  V30 33602 N 3268.08 1.52478 -0.398513 0
M  V30 33603 C 3269.33 2.01991 0.180984 0
M  V30 33604 C 3269.66 1.28408 1.45688 0
M  V30 33605 O 3268.93 0.387241 1.90606 0
M  V30 33606 C 3269.22 3.57408 0.439525 0
M  V30 33607 C 3269.07 4.41651 -0.852308 0
M  V30 33608 C 3270.39 4.22672 1.22623 0
M  V30 33609 H 3267.51 0.734189 0.0643035 0
M  V30 33610 H 3270.15 1.82461 -0.529892 0
M  V30 33611 H 3268.3 3.74179 1.04509 0
M  V30 33612 H 3269.97 4.36612 -1.48887 0
M  V30 33613 H 3268.21 4.08292 -1.46562 0
M  V30 33614 H 3268.89 5.4844 -0.625936 0
M  V30 33615 H 3271.36 4.09934 0.71365 0
M  V30 33616 H 3270.24 5.31377 1.37587 0
M  V30 33617 H 3270.5 3.80918 2.24396 0
M  V30 33618 N 3269.56 0.128608 1.57074 0
M  V30 33619 C 3270.78 -0.537804 2.00306 0
M  V30 33620 C 3271.21 -1.58818 1.0079 0
M  V30 33621 O 3270.57 -1.8129 -0.019052 0
M  V30 33622 C 3270.61 -1.13195 3.42373 0
M  V30 33623 O 3269.72 -2.24729 3.4579 0
M  V30 33624 H 3269.06 -0.133416 0.650458 0
M  V30 33625 H 3271.59 0.219918 2.03415 0
M  V30 33626 H 3271.6 -1.46513 3.80786 0
M  V30 33627 H 3270.27 -0.362641 4.14316 0
M  V30 33628 H 3268.85 -1.92777 3.19204 0
M  V30 33629 N 3271.04 -1.5693 -0.145178 0
M  V30 33630 C 3271.99 -1.94821 -1.18443 0
M  V30 33631 C 3272.97 -0.819708 -1.38454 0
M  V30 33632 O 3274.16 -1.08318 -1.39986 0
M  V30 33633 C 3271.29 -2.3339 -2.51762 0
M  V30 33634 C 3270.38 -3.52815 -2.35335 0
M  V30 33635 N 3270.77 -4.69295 -1.88667 0
M  V30 33636 C 3269.07 -3.57935 -2.6608 0
M  V30 33637 C 3269.77 -5.51388 -1.85328 0
M  V30 33638 N 3268.74 -4.93147 -2.28708 0
M  V30 33639 H 3272.54 -2.82353 -0.815736 0
M  V30 33640 H 3270.06 -1.58512 -0.353214 0
M  V30 33641 H 3272.06 -2.58741 -3.26892 0
M  V30 33642 H 3270.72 -1.47211 -2.89412 0
M  V30 33643 H 3271.73 -4.93016 -1.58606 0
M  V30 33644 H 3268.4 -2.823 -3.07592 0
M  V30 33645 H 3269.79 -6.54776 -1.50723 0
M  V30 33646 N 3272.51 0.414582 -1.52049 0
M  V30 33647 C 3273.74 1.18218 -1.69435 0
M  V30 33648 C 3274.15 1.849 -0.401072 0
M  V30 33649 O 3273.49 1.72475 0.632312 0
M  V30 33650 C 3273.56 2.29166 -2.7699 0
M  V30 33651 C 3273.22 1.82664 -4.18907 0
M  V30 33652 C 3274.22 1.31742 -5.02931 0
M  V30 33653 C 3271.9 1.89664 -4.65116 0
M  V30 33654 C 3273.9 0.88435 -6.31235 0
M  V30 33655 C 3271.58 1.45968 -5.93411 0
M  V30 33656 C 3272.58 0.954381 -6.76299 0
M  V30 33657 O 3272.27 0.523711 -8.02192 0
M  V30 33658 H 3272 0.36148 -0.571234 0
M  V30 33659 H 3274.56 0.494608 -1.99356 0
M  V30 33660 H 3272.79 3.01269 -2.42433 0
M  V30 33661 H 3274.47 2.90946 -2.83028 0
M  V30 33662 H 3275.24 1.25711 -4.68425 0
M  V30 33663 H 3271.12 2.27938 -4.00706 0
M  V30 33664 H 3274.66 0.48926 -6.95882 0
M  V30 33665 H 3270.56 1.51676 -6.27427 0
M  V30 33666 H 3271.33 0.647513 -8.15935 0
M  V30 33667 N 3273.99 1.4258 0.671475 0
M  V30 33668 C 3274.95 1.46011 1.76673 0
M  V30 33669 C 3275.95 0.347241 1.57006 0
M  V30 33670 O 3277.14 0.608213 1.63237 0
M  V30 33671 C 3274.28 1.29499 3.15346 0
M  V30 33672 H 3275.47 2.43534 1.75017 0
M  V30 33673 H 3273.02 1.29076 0.881421 0
M  V30 33674 H 3273.76 0.329117 3.22626 0
M  V30 33675 H 3273.54 2.10155 3.31025 0
M  V30 33676 H 3275.03 1.34791 3.95248 0
M  V30 33677 N 3275.47 -0.908102 1.28807 0
M  V30 33678 C 3276.72 -1.66025 1.16463 0
M  V30 33679 C 3277.05 -1.92097 -0.284991 0
M  V30 33680 O 3276.32 -1.5254 -1.20673 0
M  V30 33681 C 3276.61 -3.01463 1.96957 0
M  V30 33682 C 3276.46 -2.82509 3.50012 0
M  V30 33683 C 3277.78 -4.0208 1.78939 0
M  V30 33684 H 3274.9 -0.602507 0.424446 0
M  V30 33685 H 3277.54 -1.05247 1.58187 0
M  V30 33686 H 3275.69 -3.53341 1.61501 0
M  V30 33687 H 3277.36 -2.37598 3.95405 0
M  V30 33688 H 3275.6 -2.17456 3.7536 0
M  V30 33689 H 3276.28 -3.78713 4.01597 0
M  V30 33690 H 3278.75 -3.59284 2.09891 0
M  V30 33691 H 3277.63 -4.94799 2.37623 0
M  V30 33692 H 3277.89 -4.35823 0.742362 0
M  V30 33693 N 3276.95 -1.11147 -1.11732 0
M  V30 33694 C 3278.2 -0.856749 -1.83042 0
M  V30 33695 C 3278.52 0.619375 -1.84902 0
M  V30 33696 O 3277.79 1.44987 -1.31741 0
M  V30 33697 H 3276.37 -0.313962 -0.677818 0
M  V30 33698 H 3279.03 -1.40324 -1.3526 0
M  V30 33699 H 3278.12 -1.22621 -2.87003 0
M  V30 33700 N 3278.43 1.29282 -0.901326 0
M  V30 33701 C 3279.7 1.90412 -0.447503 0
M  V30 33702 C 3280.08 1.81799 1.07295 0
M  V30 33703 O 3279.43 1.24578 1.91553 0
M  V30 33704 C 3279.64 3.35425 -0.963908 0
M  V30 33705 C 3280.99 4.12447 -1.00858 0
M  V30 33706 O 3282.01 3.44335 -0.91169 0
M  V30 33707 O 3280.87 5.34169 -1.15435 0
M  V30 33708 H 3277.97 0.815102 -0.139775 0
M  V30 33709 H 3280.51 1.37737 -0.991298 0
M  V30 33710 H 3279.28 3.35857 -2.00788 0
M  V30 33711 H 3278.91 3.95581 -0.400218 0
M  V30 33712 N 3279.9 0.663979 1.4293 0
M  V30 33713 C 3280.81 -0.0213822 2.3459 0
M  V30 33714 C 3281.83 -0.800584 1.54488 0
M  V30 33715 O 3283.01 -0.745377 1.87099 0
M  V30 33716 C 3280.07 -0.968498 3.32898 0
M  V30 33717 C 3279.13 -0.185033 4.28901 0
M  V30 33718 C 3278.36 -1.08704 5.22512 0
M  V30 33719 O 3278.59 -2.32646 5.20799 0
M  V30 33720 O 3277.52 -0.553653 5.99348 0
M  V30 33721 H 3281.35 0.73336 2.94713 0
M  V30 33722 H 3278.93 0.424185 1.43252 0
M  V30 33723 H 3280.81 -1.5125 3.93321 0
M  V30 33724 H 3279.49 -1.70328 2.75264 0
M  V30 33725 H 3278.4 0.402817 3.71925 0
M  V30 33726 H 3279.73 0.510405 4.89546 0
M  V30 33727 N 3281.38 -1.52265 0.406593 0
M  V30 33728 C 3282.63 -2.02749 -0.162664 0
M  V30 33729 C 3282.98 -1.28698 -1.4302 0
M  V30 33730 O 3282.28 -0.383914 -1.87714 0
M  V30 33731 C 3282.47 -3.54335 -0.467062 0
M  V30 33732 C 3282.3 -4.43069 0.769418 0
M  V30 33733 C 3281.07 -4.88454 1.29386 0
M  V30 33734 C 3283.27 -4.87222 1.64679 0
M  V30 33735 N 3281.25 -5.61308 2.48609 0
M  V30 33736 C 3282.62 -5.58831 2.68529 0
M  V30 33737 C 3284.67 -4.69241 1.66485 0
M  V30 33738 C 3283.38 -6.14368 3.74092 0
M  V30 33739 C 3285.4 -5.25673 2.70965 0
M  V30 33740 C 3284.77 -5.97202 3.73536 0
M  V30 33741 H 3280.86 -0.781714 -0.0211569 0
M  V30 33742 H 3283.45 -1.86462 0.560371 0
M  V30 33743 H 3281.62 -3.707 -1.15914 0
M  V30 33744 H 3283.35 -3.91505 -1.02498 0
M  V30 33745 H 3280.11 -4.65868 0.852272 0
M  V30 33746 H 3280.53 -6.02378 3.08981 0
M  V30 33747 H 3285.17 -4.13428 0.885263 0
M  V30 33748 H 3282.89 -6.69253 4.52908 0
M  V30 33749 H 3286.48 -5.13631 2.73267 0
M  V30 33750 H 3285.36 -6.40087 4.53054 0
M  V30 33751 N 3282.86 -0.136936 -1.57004 0
M  V30 33752 C 3283.77 0.819849 -2.19808 0
M  V30 33753 C 3284.79 1.2793 -1.17941 0
M  V30 33754 O 3285.96 1.33857 -1.5048 0
M  V30 33755 C 3283.03 2.04537 -2.79938 0
M  V30 33756 C 3282.09 1.63613 -3.969 0
M  V30 33757 C 3281.32 2.80323 -4.54153 0
M  V30 33758 O 3281.54 3.96256 -4.10289 0
M  V30 33759 O 3280.48 2.56374 -5.4457 0
M  V30 33760 H 3284.3 0.315284 -3.02059 0
M  V30 33761 H 3281.89 0.0895889 -1.49131 0
M  V30 33762 H 3283.77 2.76278 -3.18196 0
M  V30 33763 H 3282.45 2.53965 -2.00707 0
M  V30 33764 H 3281.35 0.889252 -3.63377 0
M  V30 33765 H 3282.69 1.1891 -4.77621 0
M  V30 33766 N 3284.34 1.57005 0.136853 0
M  V30 33767 C 3285.75 1.51897 0.48983 0
M  V30 33768 C 3285.95 0.847042 1.82832 0
M  V30 33769 O 3285.01 0.421836 2.48951 0
M  V30 33770 C 3286.32 2.96668 0.490779 0
M  V30 33771 C 3287.87 3.07662 0.575585 0
M  V30 33772 C 3288.35 4.53958 0.607098 0
M  V30 33773 N 3289.84 4.58343 0.669039 0
M  V30 33774 C 3290.57 5.6893 0.714575 0
M  V30 33775 N 3290.07 6.89061 0.718838 0
M  V30 33776 N 3291.86 5.5699 0.756228 0
M  V30 33777 H 3284.01 1.99078 -0.740382 0
M  V30 33778 H 3286.28 0.9084 -0.271132 0
M  V30 33779 H 3285.98 3.49126 -0.42471 0
M  V30 33780 H 3285.86 3.5316 1.32505 0
M  V30 33781 H 3288.24 2.55217 1.48149 0
M  V30 33782 H 3288.32 2.54196 -0.286036 0
M  V30 33783 H 3287.97 5.07044 -0.294693 0
M  V30 33784 H 3287.9 5.05218 1.48535 0
M  V30 33785 H 3290.39 3.71866 0.672632 0
M  V30 33786 H 3290.7 7.69096 0.755713 0
M  V30 33787 H 3289.05 6.91601 0.686549 0
M  V30 33788 H 3292.24 4.6205 0.750137 0
M  V30 33789 H 3292.41 6.43188 0.78825 0
M  V30 33790 N 3285.82 -0.406513 1.52267 0
M  V30 33791 C 3286.75 -1.5165 1.70521 0
M  V30 33792 C 3287.73 -1.52914 0.552825 0
M  V30 33793 O 3288.91 -1.71582 0.780498 0
M  V30 33794 C 3286.04 -2.90173 1.74692 0
M  V30 33795 C 3285.08 -3.0681 2.9626 0
M  V30 33796 S 3285.92 -2.79848 4.56558 0
M  V30 33797 C 3287.07 -4.20597 4.63518 0
M  V30 33798 H 3287.31 -1.35937 2.64402 0
M  V30 33799 H 3284.84 -0.598259 1.42338 0
M  V30 33800 H 3286.8 -3.70006 1.77779 0
M  V30 33801 H 3285.46 -3.03225 0.819344 0
M  V30 33802 H 3284.65 -4.08162 2.95668 0
M  V30 33803 H 3284.25 -2.34845 2.91073 0
M  V30 33804 H 3286.55 -5.14272 4.41056 0
M  V30 33805 H 3287.49 -4.26212 5.65464 0
M  V30 33806 H 3287.9 -4.0569 3.92525 0
M  V30 33807 N 3287.29 -1.42934 -0.663904 0
M  V30 33808 C 3288.52 -1.47614 -1.45688 0
M  V30 33809 C 3288.94 -0.0920636 -1.87875 0
M  V30 33810 O 3288.3 0.911892 -1.56698 0
M  V30 33811 C 3288.35 -2.41804 -2.67513 0
M  V30 33812 O 3287.45 -1.89692 -3.66184 0
M  V30 33813 H 3286.8 -0.49971 -0.437248 0
M  V30 33814 H 3289.33 -1.87738 -0.813364 0
M  V30 33815 H 3289.34 -2.5875 -3.15456 0
M  V30 33816 H 3288.01 -3.42354 -2.36149 0
M  V30 33817 H 3286.59 -1.82355 -3.25271 0
M  V30 33818 N 3288.77 0.901258 -1.29287 0
M  V30 33819 C 3289.68 2.03821 -1.16165 0
M  V30 33820 C 3290.7 1.73791 -0.0852604 0
M  V30 33821 O 3291.87 1.99198 -0.297025 0
M  V30 33822 C 3288.94 3.36429 -0.837646 0
M  V30 33823 C 3288 3.79987 -1.99771 0
M  V30 33824 C 3287.23 5.06267 -1.68907 0
M  V30 33825 O 3287.46 5.67137 -0.609277 0
M  V30 33826 O 3286.39 5.4584 -2.53658 0
M  V30 33827 H 3290.22 2.17814 -2.11639 0
M  V30 33828 H 3287.8 1.02467 -1.08724 0
M  V30 33829 H 3289.68 4.16016 -0.671449 0
M  V30 33830 H 3288.36 3.23582 0.0873242 0
M  V30 33831 H 3287.27 3.01173 -2.21914 0
M  V30 33832 H 3288.6 3.97415 -2.90382 0
M  V30 33833 N 3290.25 1.11738 1.11141 0
M  V30 33834 C 3291.48 0.89104 1.87284 0
M  V30 33835 C 3291.9 -0.553939 1.79759 0
M  V30 33836 O 3291.26 -1.39147 1.16223 0
M  V30 33837 C 3291.31 1.3612 3.33922 0
M  V30 33838 O 3290.41 0.534923 4.08916 0
M  V30 33839 H 3289.75 0.320711 0.581412 0
M  V30 33840 H 3292.28 1.48763 1.40466 0
M  V30 33841 H 3292.29 1.35707 3.84769 0
M  V30 33842 H 3290.97 2.4134 3.38715 0
M  V30 33843 H 3289.54 0.605419 3.67953 0
M  V30 33844 N 3291.73 -1.28802 0.90817 0
M  V30 33845 C 3292.98 -1.94825 0.537374 0
M  V30 33846 C 3293.3 -1.71883 -0.920932 0
M  V30 33847 O 3292.57 -1.05537 -1.65042 0
M  V30 33848 H 3291.15 -0.720898 0.195742 0
M  V30 33849 H 3293.81 -1.56893 1.15631 0
M  V30 33850 H 3292.91 -3.03512 0.727105 0
M  V30 33851 N 3293.21 -0.67155 -1.42576 0
M  V30 33852 C 3294.45 -0.192466 -2.01583 0
M  V30 33853 C 3294.78 1.19989 -1.53078 0
M  V30 33854 O 3294.04 1.81886 -0.722228 0
M  V30 33855 C 3294.34 -0.17216 -3.56985 0
M  V30 33856 C 3294 -1.50875 -4.24909 0
M  V30 33857 C 3292.66 -1.87472 -4.43179 0
M  V30 33858 C 3295.02 -2.38916 -4.63216 0
M  V30 33859 C 3292.34 -3.11741 -4.97026 0
M  V30 33860 C 3294.7 -3.62494 -5.18441 0
M  V30 33861 C 3293.36 -3.99264 -5.34925 0
M  V30 33862 H 3292.63 -0.0704284 -0.737645 0
M  V30 33863 H 3295.28 -0.865892 -1.70806 0
M  V30 33864 H 3293.58 0.584767 -3.87412 0
M  V30 33865 H 3295.28 0.215679 -4.0042 0
M  V30 33866 H 3291.87 -1.21404 -4.11046 0
M  V30 33867 H 3296.05 -2.11927 -4.48777 0
M  V30 33868 H 3291.31 -3.40255 -5.07973 0
M  V30 33869 H 3295.48 -4.30918 -5.47067 0
M  V30 33870 H 3293.11 -4.95633 -5.76413 0
M  V30 33871 N 3294.68 1.52047 -0.414663 0
M  V30 33872 C 3295.63 2.27163 0.408101 0
M  V30 33873 C 3296.6 1.29805 1.03634 0
M  V30 33874 O 3297.79 1.58676 1.05956 0
M  V30 33875 C 3294.93 3.10027 1.51582 0
M  V30 33876 C 3294.04 4.22351 0.90796 0
M  V30 33877 C 3293.17 4.92563 1.98884 0
M  V30 33878 C 3292.21 5.96841 1.3582 0
M  V30 33879 N 3291.35 6.6055 2.37947 0
M  V30 33880 H 3296.19 2.97041 -0.238874 0
M  V30 33881 H 3293.73 1.46528 -0.12964 0
M  V30 33882 H 3295.69 3.56379 2.1691 0
M  V30 33883 H 3294.32 2.42309 2.13275 0
M  V30 33884 H 3293.37 3.80129 0.143585 0
M  V30 33885 H 3294.68 4.97134 0.407339 0
M  V30 33886 H 3293.83 5.42348 2.71925 0
M  V30 33887 H 3292.57 4.1736 2.52313 0
M  V30 33888 H 3291.58 5.4637 0.61315 0
M  V30 33889 H 3292.8 6.7399 0.831536 0
M  V30 33890 H 3290.75 5.88173 2.90498 0
M  V30 33891 H 3290.67 7.31025 1.92712 0
M  V30 33892 H 3291.93 7.14972 3.10541 0
M  V30 33893 N 3296.16 0.145261 1.56929 0
M  V30 33894 C 3297.09 -0.791224 2.19686 0
M  V30 33895 C 3298.07 -1.25831 1.14457 0
M  V30 33896 O 3299.26 -1.31619 1.42794 0
M  V30 33897 C 3296.39 -2.03119 2.81709 0
M  V30 33898 C 3295.34 -1.70094 3.92749 0
M  V30 33899 C 3294.67 -3.0134 4.417 0
M  V30 33900 C 3295.97 -0.948935 5.13607 0
M  V30 33901 H 3297.66 -0.268197 2.98196 0
M  V30 33902 H 3295.21 -0.127558 1.43434 0
M  V30 33903 H 3297.16 -2.69113 3.24278 0
M  V30 33904 H 3295.89 -2.57791 2.00527 0
M  V30 33905 H 3294.54 -1.06479 3.50796 0
M  V30 33906 H 3294.19 -3.53999 3.57342 0
M  V30 33907 H 3293.89 -2.80006 5.16595 0
M  V30 33908 H 3295.42 -3.68407 4.86938 0
M  V30 33909 H 3296.83 -1.51092 5.53032 0
M  V30 33910 H 3295.23 -0.835607 5.94254 0
M  V30 33911 H 3296.3 0.0596483 4.84863 0
M  V30 33912 N 3297.64 -1.57075 -0.128525 0
M  V30 33913 C 3298.57 -2.02677 -1.15949 0
M  V30 33914 C 3299.55 -0.909527 -1.43742 0
M  V30 33915 O 3300.74 -1.1786 -1.54346 0
M  V30 33916 C 3297.87 -2.42304 -2.48809 0
M  V30 33917 C 3296.82 -3.57385 -2.35499 0
M  V30 33918 C 3296.15 -3.82882 -3.73236 0
M  V30 33919 C 3297.45 -4.89434 -1.8235 0
M  V30 33920 H 3299.14 -2.89055 -0.780232 0
M  V30 33921 H 3296.69 -1.39062 -0.373872 0
M  V30 33922 H 3298.64 -2.7281 -3.21174 0
M  V30 33923 H 3297.36 -1.52886 -2.88606 0
M  V30 33924 H 3296.02 -3.27074 -1.65584 0
M  V30 33925 H 3295.67 -2.90684 -4.10502 0
M  V30 33926 H 3295.37 -4.60339 -3.65187 0
M  V30 33927 H 3296.9 -4.15831 -4.47121 0
M  V30 33928 H 3298.31 -5.18537 -2.44524 0
M  V30 33929 H 3296.71 -5.70825 -1.85146 0
M  V30 33930 H 3297.78 -4.78579 -0.780394 0
M  V30 33931 N 3299.12 0.398432 -1.5248 0
M  V30 33932 C 3300.36 1.15343 -1.68746 0
M  V30 33933 C 3300.72 1.87488 -0.413772 0
M  V30 33934 O 3301.92 2.64961 -0.45267 0
M  V30 33935 C 3300.2 2.11306 -2.88244 0
M  V30 33936 S 3301.75 2.9477 -3.25048 0
M  V30 33937 H 3298.57 0.390588 -0.594106 0
M  V30 33938 H 3301.17 0.439195 -1.90503 0
M  V30 33939 H 3299.88 1.5701 -3.79178 0
M  V30 33940 H 3299.41 2.87253 -2.68792 0
M  V30 33941 H 3301.42 4.13356 -2.74502 0
M  V30 33942 N 3300.6 1.43284 0.656314 0
M  V30 33943 C 3301.53 1.44167 1.78181 0
M  V30 33944 C 3302.54 0.338205 1.59248 0
M  V30 33945 O 3303.73 0.602449 1.68026 0
M  V30 33946 C 3300.83 1.23583 3.15564 0
M  V30 33947 C 3300 2.4671 3.61183 0
M  V30 33948 C 3299.06 2.21396 4.77357 0
M  V30 33949 O 3298.09 2.94727 4.86955 0
M  V30 33950 N 3299.29 1.22865 5.67349 0
M  V30 33951 H 3302.06 2.41186 1.77903 0
M  V30 33952 H 3299.62 1.38401 0.840052 0
M  V30 33953 H 3301.61 1.04536 3.90966 0
M  V30 33954 H 3300.18 0.350209 3.10632 0
M  V30 33955 H 3299.4 2.81203 2.76259 0
M  V30 33956 H 3300.69 3.28659 3.88408 0
M  V30 33957 H 3300.09 0.622516 5.62264 0
M  V30 33958 H 3298.64 1.09802 6.42485 0
M  V30 33959 N 3302.08 -0.894389 1.29763 0
M  V30 33960 C 3303.32 -1.65961 1.19316 0
M  V30 33961 C 3303.68 -1.90363 -0.250186 0
M  V30 33962 O 3304.88 -2.64521 -0.477732 0
M  V30 33963 C 3303.15 -2.96914 1.98939 0
M  V30 33964 S 3304.71 -3.87924 2.05086 0
M  V30 33965 H 3301.53 -0.569728 0.42536 0
M  V30 33966 H 3304.13 -1.06233 1.64118 0
M  V30 33967 H 3302.83 -2.76871 3.02937 0
M  V30 33968 H 3302.37 -3.6168 1.54762 0
M  V30 33969 H 3304.38 -4.82175 1.1714 0
M  V30 33970 N 3303.55 -1.12326 -1.10547 0
M  V30 33971 C 3304.48 -0.812454 -2.1891 0
M  V30 33972 C 3305.46 0.223241 -1.68629 0
M  V30 33973 O 3306.65 0.0846843 -1.94015 0
M  V30 33974 C 3303.78 -0.265008 -3.46287 0
M  V30 33975 C 3302.73 -1.23363 -4.09836 0
M  V30 33976 C 3302.06 -0.546467 -5.319 0
M  V30 33977 C 3303.36 -2.58786 -4.53682 0
M  V30 33978 H 3305.05 -1.71855 -2.45166 0
M  V30 33979 H 3302.6 -0.827735 -1.17833 0
M  V30 33980 H 3304.55 -0.0353105 -4.21385 0
M  V30 33981 H 3303.28 0.676423 -3.19519 0
M  V30 33982 H 3301.94 -1.44912 -3.36743 0
M  V30 33983 H 3301.58 0.400068 -5.01406 0
M  V30 33984 H 3301.28 -1.19259 -5.7537 0
M  V30 33985 H 3302.81 -0.32578 -6.0973 0
M  V30 33986 H 3304.22 -2.41272 -5.20058 0
M  V30 33987 H 3302.62 -3.19466 -5.07998 0
M  V30 33988 H 3303.69 -3.17315 -3.66659 0
M  V30 33989 N 3305.03 1.28319 -0.914988 0
M  V30 33990 C 3306.28 1.94537 -0.547699 0
M  V30 33991 C 3306.6 1.72369 0.911804 0
M  V30 33992 O 3305.87 1.06411 1.6448 0
M  V30 33993 H 3304.45 0.71985 -0.199562 0
M  V30 33994 H 3307.11 1.56278 -1.16462 0
M  V30 33995 H 3306.21 3.03122 -0.743191 0
M  V30 33996 N 3306.51 0.679102 1.42218 0
M  V30 33997 C 3307.76 0.203154 2.01478 0
M  V30 33998 C 3308.08 -1.19176 1.53712 0
M  V30 33999 O 3307.34 -1.815 0.731864 0
M  V30 34000 C 3307.64 0.19109 3.56889 0
M  V30 34001 C 3307.3 1.53126 4.24103 0
M  V30 34002 C 3305.97 1.89819 4.42179 0
M  V30 34003 C 3308.32 2.41369 4.61942 0
M  V30 34004 C 3305.65 3.14372 4.95365 0
M  V30 34005 C 3308 3.65238 5.16511 0
M  V30 34006 C 3306.66 4.02095 5.328 0
M  V30 34007 H 3305.93 0.0743394 0.737262 0
M  V30 34008 H 3308.58 0.874938 1.70344 0
M  V30 34009 H 3306.88 -0.564214 3.87716 0
M  V30 34010 H 3308.58 -0.19444 4.00528 0
M  V30 34011 H 3305.17 1.23582 4.10397 0
M  V30 34012 H 3309.36 2.14304 4.47646 0
M  V30 34013 H 3304.61 3.42944 5.06161 0
M  V30 34014 H 3308.79 4.33814 5.44774 0
M  V30 34015 H 3306.41 4.98683 5.73777 0
M  V30 34016 N 3307.99 -1.51825 0.42272 0
M  V30 34017 C 3309.24 -2.01555 -0.148312 0
M  V30 34018 C 3309.56 -1.30959 -1.44481 0
M  V30 34019 O 3308.83 -0.439633 -1.90903 0
M  V30 34020 H 3307.41 -0.744761 -0.0577985 0
M  V30 34021 H 3310.07 -1.86619 0.562079 0
M  V30 34022 H 3309.16 -3.103 -0.334711 0
M  V30 34023 N 3309.47 -0.153581 -1.5685 0
M  V30 34024 C 3310.69 0.505869 -2.01136 0
M  V30 34025 C 3311.12 1.57194 -1.03304 0
M  V30 34026 O 3310.47 1.81297 -0.00979208 0
M  V30 34027 C 3310.52 1.07734 -3.44131 0
M  V30 34028 O 3309.63 2.19199 -3.49321 0
M  V30 34029 H 3308.97 0.123051 -0.652499 0
M  V30 34030 H 3311.5 -0.252252 -2.03039 0
M  V30 34031 H 3311.51 1.40437 -3.83068 0
M  V30 34032 H 3310.18 0.296681 -4.1484 0
M  V30 34033 H 3308.76 1.87675 -3.22231 0
M  V30 34034 N 3310.94 1.57141 0.120193 0
M  V30 34035 C 3312.19 1.84425 0.826554 0
M  V30 34036 C 3312.51 0.738584 1.80471 0
M  V30 34037 O 3311.78 -0.237516 1.94455 0
M  V30 34038 H 3310.36 0.680442 0.308234 0
M  V30 34039 H 3313.02 1.94602 0.107801 0
M  V30 34040 H 3312.12 2.80301 1.37251 0
M  V30 34041 N 3312.42 -0.39034 1.5269 0
M  V30 34042 C 3313.37 -1.47627 1.73753 0
M  V30 34043 C 3314.36 -1.49629 0.591598 0
M  V30 34044 O 3315.55 -1.55288 0.849381 0
M  V30 34045 C 3312.68 -2.85355 1.9086 0
M  V30 34046 C 3311.76 -2.87927 3.11382 0
M  V30 34047 N 3312.15 -2.60173 4.33756 0
M  V30 34048 C 3310.45 -3.19095 3.11599 0
M  V30 34049 C 3311.15 -2.69794 5.1535 0
M  V30 34050 N 3310.13 -3.03468 4.51008 0
M  V30 34051 H 3313.93 -1.24993 2.65996 0
M  V30 34052 H 3311.45 -0.598274 1.50978 0
M  V30 34053 H 3313.44 -3.63539 2.04072 0
M  V30 34054 H 3312.1 -3.08973 0.998295 0
M  V30 34055 H 3313.11 -2.34218 4.61911 0
M  V30 34056 H 3309.79 -3.48187 2.30374 0
M  V30 34057 H 3311.18 -2.51891 6.22897 0
M  V30 34058 N 3313.9 -1.4363 -0.648706 0
M  V30 34059 C 3315.15 -1.45486 -1.40855 0
M  V30 34060 C 3315.48 -0.0808305 -1.94332 0
M  V30 34061 O 3314.73 0.914845 -1.73 0
M  V30 34062 C 3315.03 -2.4481 -2.6039 0
M  V30 34063 C 3314.7 -3.90575 -2.25305 0
M  V30 34064 C 3313.36 -4.30274 -2.15448 0
M  V30 34065 C 3315.71 -4.82413 -1.97299 0
M  V30 34066 C 3313.04 -5.59758 -1.75749 0
M  V30 34067 C 3315.39 -6.12267 -1.59097 0
M  V30 34068 C 3314.05 -6.50938 -1.47769 0
M  V30 34069 H 3313.32 -0.532371 -0.515424 0
M  V30 34070 H 3315.97 -1.76737 -0.737308 0
M  V30 34071 H 3314.28 -2.06979 -3.32666 0
M  V30 34072 H 3315.97 -2.43499 -3.18605 0
M  V30 34073 H 3312.56 -3.59158 -2.33888 0
M  V30 34074 H 3316.75 -4.52511 -2.03832 0
M  V30 34075 H 3312 -5.88555 -1.65568 0
M  V30 34076 H 3316.18 -6.82899 -1.3646 0
M  V30 34077 H 3313.8 -7.51177 -1.16779 0
M  V30 34078 N 3315.38 0.887495 -1.30236 0
M  V30 34079 C 3316.79 1.17035 -1.08512 0
M  V30 34080 C 3316.99 2.00897 0.155752 0
M  V30 34081 O 3316.05 2.3776 0.850081 0
M  V30 34082 C 3317.36 1.87947 -2.34727 0
M  V30 34083 C 3318.91 2.00722 -2.40166 0
M  V30 34084 C 3319.39 2.75045 -3.66216 0
M  V30 34085 N 3320.88 2.82592 -3.67009 0
M  V30 34086 C 3321.61 3.40668 -4.6123 0
M  V30 34087 N 3321.11 3.99813 -5.65793 0
M  V30 34088 N 3322.9 3.38459 -4.48778 0
M  V30 34089 H 3315.05 0.32826 -2.09848 0
M  V30 34090 H 3317.32 0.207964 -0.924908 0
M  V30 34091 H 3317.02 1.33768 -3.25268 0
M  V30 34092 H 3316.9 2.88346 -2.4318 0
M  V30 34093 H 3319.28 2.54072 -1.50105 0
M  V30 34094 H 3319.36 0.994176 -2.3569 0
M  V30 34095 H 3319.01 2.22368 -4.56634 0
M  V30 34096 H 3318.94 3.7672 -3.67953 0
M  V30 34097 H 3321.43 2.40597 -2.91413 0
M  V30 34098 H 3321.74 4.42186 -6.33791 0
M  V30 34099 H 3320.09 3.9824 -5.69588 0
M  V30 34100 H 3323.28 2.91479 -3.66275 0
M  V30 34101 H 3323.45 3.83424 -5.22389 0
M  V30 34102 N 3316.86 1.12911 1.0995 0
M  V30 34103 C 3318.1 0.897678 1.83633 0
M  V30 34104 C 3318.46 -0.566146 1.83463 0
M  V30 34105 O 3319.66 -0.914932 2.5275 0
M  V30 34106 C 3317.93 1.46283 3.26092 0
M  V30 34107 S 3319.49 1.37066 4.16843 0
M  V30 34108 H 3316.31 0.323702 0.633039 0
M  V30 34109 H 3318.91 1.43959 1.32272 0
M  V30 34110 H 3317.62 2.52168 3.23789 0
M  V30 34111 H 3317.15 0.918616 3.82525 0
M  V30 34112 H 3319.16 0.345486 4.94996 0
M  V30 34113 N 3318.33 -1.27832 0.92178 0
M  V30 34114 C 3319.61 -1.89676 0.477739 0
M  V30 34115 C 3319.99 -1.83483 -1.04389 0
M  V30 34116 O 3319.34 -1.27609 -1.89547 0
M  V30 34117 C 3319.55 -3.33849 1.01715 0
M  V30 34118 C 3320.9 -4.10791 1.07407 0
M  V30 34119 O 3321.92 -3.42841 0.966355 0
M  V30 34120 O 3320.78 -5.32265 1.23919 0
M  V30 34121 H 3317.87 -0.812776 0.152724 0
M  V30 34122 H 3320.42 -1.36142 1.01309 0
M  V30 34123 H 3319.19 -3.3262 2.06106 0
M  V30 34124 H 3318.82 -3.94894 0.463101 0
M  V30 34125 N 3319.81 -0.686634 -1.41856 0
M  V30 34126 C 3321.04 -0.221073 -2.06218 0
M  V30 34127 C 3321.46 1.11759 -1.51299 0
M  V30 34128 O 3320.82 1.69768 -0.636283 0
M  V30 34129 C 3320.87 -0.179488 -3.60153 0
M  V30 34130 O 3319.97 0.848411 -4.03579 0
M  V30 34131 H 3319.31 -0.110239 -0.654785 0
M  V30 34132 H 3321.84 -0.93898 -1.81781 0
M  V30 34133 H 3321.85 -0.00732504 -4.07999 0
M  V30 34134 H 3320.53 -1.15654 -3.99496 0
M  V30 34135 H 3319.11 0.646328 -3.67256 0
M  V30 34136 N 3321.29 1.51599 -0.430766 0
M  V30 34137 C 3322.52 2.06933 0.139161 0
M  V30 34138 C 3322.94 1.29674 1.36258 0
M  V30 34139 O 3322.3 0.332868 1.78218 0
M  V30 34140 C 3322.35 3.57825 0.44653 0
M  V30 34141 O 3321.45 3.82805 1.53407 0
M  V30 34142 H 3320.79 0.663983 0.00474644 0
M  V30 34143 H 3323.32 1.95289 -0.610206 0
M  V30 34144 H 3323.33 4.01969 0.698901 0
M  V30 34145 H 3322.01 4.13483 -0.447686 0
M  V30 34146 H 3320.58 3.50528 1.27218 0
M  V30 34147 N 3322.77 0.161897 1.56766 0
M  V30 34148 C 3324.18 -0.194375 1.58412 0
M  V30 34149 C 3324.38 -1.63562 1.17685 0
M  V30 34150 O 3323.44 -2.36518 0.884065 0
M  V30 34151 C 3324.75 0.0778967 3.00599 0
M  V30 34152 C 3326.3 0.015362 3.12996 0
M  V30 34153 C 3326.78 0.260498 4.57259 0
M  V30 34154 N 3328.27 0.207944 4.62733 0
M  V30 34155 C 3329 0.371921 5.72193 0
M  V30 34156 N 3328.5 0.594439 6.90245 0
M  V30 34157 N 3330.29 0.308483 5.61253 0
M  V30 34158 H 3322.44 1.10277 1.81529 0
M  V30 34159 H 3324.71 0.437689 0.840911 0
M  V30 34160 H 3324.41 1.07593 3.34838 0
M  V30 34161 H 3324.29 -0.63478 3.7182 0
M  V30 34162 H 3326.67 -0.973241 2.78589 0
M  V30 34163 H 3326.75 0.760602 2.4423 0
M  V30 34164 H 3326.4 1.24627 4.92372 0
M  V30 34165 H 3326.33 -0.505242 5.24171 0
M  V30 34166 H 3328.82 0.0412205 3.77878 0
M  V30 34167 H 3329.13 0.709266 7.69538 0
M  V30 34168 H 3327.48 0.630941 6.9213 0
M  V30 34169 H 3330.67 0.1353 4.67904 0
M  V30 34170 H 3330.84 0.439706 6.46506 0
M  V30 34171 N 3324.25 -1.57203 -0.111858 0
M  V30 34172 C 3325.49 -1.86377 -0.814567 0
M  V30 34173 C 3325.85 -0.750589 -1.77155 0
M  V30 34174 O 3325.14 0.248834 -1.89977 0
M  V30 34175 C 3325.33 -3.19766 -1.59638 0
M  V30 34176 C 3325.16 -4.43954 -0.716612 0
M  V30 34177 C 3323.93 -5.03953 -0.368721 0
M  V30 34178 C 3326.13 -5.14291 -0.0310412 0
M  V30 34179 N 3324.11 -6.11685 0.520969 0
M  V30 34180 C 3325.48 -6.15836 0.717369 0
M  V30 34181 C 3327.54 -4.9788 0.0446328 0
M  V30 34182 C 3326.24 -7.02745 1.53436 0
M  V30 34183 C 3328.27 -5.85282 0.848467 0
M  V30 34184 C 3327.63 -6.86335 1.58505 0
M  V30 34185 H 3323.73 -0.732137 -0.274773 0
M  V30 34186 H 3326.31 -1.94544 -0.0779286 0
M  V30 34187 H 3324.48 -3.12682 -2.30401 0
M  V30 34188 H 3326.22 -3.36723 -2.24498 0
M  V30 34189 H 3322.97 -4.68208 -0.712588 0
M  V30 34190 H 3323.4 -6.70189 0.957873 0
M  V30 34191 H 3328.04 -4.19707 -0.51049 0
M  V30 34192 H 3325.76 -7.8032 2.10061 0
M  V30 34193 H 3329.34 -5.74648 0.909473 0
M  V30 34194 H 3328.22 -7.52795 2.19704 0
M  V30 34195 N 3325.72 0.382237 -1.52894 0
M  V30 34196 C 3326.96 1.13547 -1.6996 0
M  V30 34197 C 3327.33 1.87039 -0.433635 0
M  V30 34198 O 3328.53 2.64466 -0.480747 0
M  V30 34199 C 3326.8 2.08237 -2.90469 0
M  V30 34200 S 3328.36 2.91305 -3.28156 0
M  V30 34201 H 3325.18 0.384264 -0.598216 0
M  V30 34202 H 3327.78 0.418965 -1.90958 0
M  V30 34203 H 3326.48 1.5298 -3.80822 0
M  V30 34204 H 3326.01 2.84386 -2.71824 0
M  V30 34205 H 3328.03 4.10421 -2.78871 0
M  V30 34206 N 3327.2 1.43972 0.64108 0
M  V30 34207 C 3328.15 1.4651 1.74696 0
M  V30 34208 C 3329.14 0.332065 1.57436 0
M  V30 34209 O 3330.33 0.576692 1.67342 0
M  V30 34210 C 3327.46 1.40258 3.13341 0
M  V30 34211 C 3326.54 2.58638 3.36106 0
M  V30 34212 N 3326.94 3.83934 3.29284 0
M  V30 34213 C 3325.23 2.53621 3.66868 0
M  V30 34214 C 3325.93 4.62757 3.52464 0
M  V30 34215 N 3324.91 3.93675 3.74861 0
M  V30 34216 H 3328.71 2.41244 1.67865 0
M  V30 34217 H 3326.23 1.38795 0.843192 0
M  V30 34218 H 3328.22 1.4016 3.92633 0
M  V30 34219 H 3326.88 0.465547 3.21345 0
M  V30 34220 H 3327.89 4.16047 3.08424 0
M  V30 34221 H 3324.57 1.68665 3.81914 0
M  V30 34222 H 3325.96 5.71782 3.52866 0
M  V30 34223 N 3328.68 -0.880575 1.30704 0
M  V30 34224 C 3329.96 -1.61443 1.10433 0
M  V30 34225 C 3330.34 -2.08265 -0.344801 0
M  V30 34226 O 3329.69 -1.85296 -1.33708 0
M  V30 34227 C 3329.9 -2.78059 2.10913 0
M  V30 34228 C 3331.24 -3.48283 2.42867 0
M  V30 34229 O 3332.27 -2.88253 2.09257 0
M  V30 34230 O 3331.13 -4.56548 3.00377 0
M  V30 34231 H 3328.22 -0.70978 0.424431 0
M  V30 34232 H 3330.77 -0.926966 1.42146 0
M  V30 34233 H 3329.54 -2.40798 3.08435 0
M  V30 34234 H 3329.16 -3.545 1.80043 0
M  V30 34235 N 3330.16 -1.13492 -1.09349 0
M  V30 34236 C 3331.11 -0.808465 -2.18098 0
M  V30 34237 C 3332.1 0.209542 -1.68099 0
M  V30 34238 O 3333.31 0.06661 -1.79877 0
M  V30 34239 H 3329.68 -0.24367 -0.711427 0
M  V30 34240 H 3331.65 -1.73377 -2.42864 0
M  V30 34241 C 3330.4 -0.291676 -3.46474 0
M  V30 34242 H 3329.73 -1.06634 -3.85317 0
M  V30 34243 H 3331.17 -0.101691 -4.23878 0
M  V30 34244 C 3329.62 0.982771 -3.22247 0
M  V30 34245 O 3330.15 2.05844 -3.44951 0
M  V30 34246 N 3328.36 0.914169 -2.75847 0
M  V30 34247 H 3327.91 0.0386747 -2.57571 0
M  V30 34248 H 3327.87 1.76748 -2.60014 0
M  V30 34249 N 3331.64 1.27341 -0.928546 0
M  V30 34250 C 3332.89 1.93945 -0.568301 0
M  V30 34251 C 3333.21 1.73327 0.89347 0
M  V30 34252 O 3332.48 1.0815 1.63342 0
M  V30 34253 H 3331.06 0.717693 -0.207186 0
M  V30 34254 H 3333.72 1.55034 -1.18112 0
M  V30 34255 H 3332.81 3.02317 -0.775299 0
M  V30 34256 N 3333.12 0.694147 1.4149 0
M  V30 34257 C 3334.36 0.224845 2.0155 0
M  V30 34258 C 3334.69 -1.17202 1.54846 0
M  V30 34259 O 3333.97 -1.79079 0.759022 0
M  V30 34260 C 3334.25 0.280947 3.59002 0
M  V30 34261 C 3334.11 1.71466 4.15836 0
M  V30 34262 C 3335.42 -0.360045 4.38625 0
M  V30 34263 H 3332.54 0.0831761 0.732291 0
M  V30 34264 H 3335.19 0.882598 1.68256 0
M  V30 34265 H 3333.34 -0.279096 3.87496 0
M  V30 34266 H 3335.01 2.32844 3.98223 0
M  V30 34267 H 3333.25 2.24926 3.70932 0
M  V30 34268 H 3333.92 1.70546 5.24994 0
M  V30 34269 H 3336.4 0.116903 4.15936 0
M  V30 34270 H 3335.27 -0.29024 5.48132 0
M  V30 34271 H 3335.53 -1.44054 4.17972 0
M  V30 34272 N 3334.59 -1.51368 0.438799 0
M  V30 34273 C 3335.54 -2.2937 -0.386284 0
M  V30 34274 C 3336.54 -1.35281 -1.01957 0
M  V30 34275 O 3337.74 -1.52616 -0.954373 0
M  V30 34276 H 3334.12 -0.738204 -0.143384 0
M  V30 34277 H 3336.09 -2.96964 0.292424 0
M  V30 34278 C 3334.84 -3.14901 -1.47421 0
M  V30 34279 H 3334.16 -3.87188 -0.996267 0
M  V30 34280 H 3335.6 -3.72532 -2.02474 0
M  V30 34281 C 3334.06 -2.30371 -2.45827 0
M  V30 34282 O 3334.59 -1.96434 -3.50395 0
M  V30 34283 N 3332.79 -1.93565 -2.16751 0
M  V30 34284 H 3332.34 -2.21363 -1.31744 0
M  V30 34285 H 3332.3 -1.37305 -2.82833 0
M  V30 34286 N 3336.07 -0.170208 -1.56678 0
M  V30 34287 C 3337.3 0.480629 -2.00932 0
M  V30 34288 C 3337.71 1.57423 -1.0495 0
M  V30 34289 O 3337.05 1.83651 -0.0422612 0
M  V30 34290 C 3337.11 1.1199 -3.41612 0
M  V30 34291 C 3336.78 0.168087 -4.56691 0
M  V30 34292 C 3337.78 -0.61315 -5.16272 0
M  V30 34293 C 3335.46 0.064236 -5.02259 0
M  V30 34294 C 3337.45 -1.48545 -6.19849 0
M  V30 34295 C 3335.14 -0.811649 -6.05686 0
M  V30 34296 C 3336.14 -1.58508 -6.64353 0
M  V30 34297 O 3335.83 -2.44633 -7.65774 0
M  V30 34298 H 3335.56 0.127528 -0.663862 0
M  V30 34299 H 3338.11 -0.268735 -2.03634 0
M  V30 34300 H 3336.34 1.91737 -3.35818 0
M  V30 34301 H 3338.03 1.67283 -3.69826 0
M  V30 34302 H 3338.8 -0.543083 -4.8195 0
M  V30 34303 H 3334.68 0.656021 -4.56308 0
M  V30 34304 H 3338.22 -2.0896 -6.65569 0
M  V30 34305 H 3334.12 -0.882922 -6.39433 0
M  V30 34306 H 3334.89 -2.38136 -7.83092 0
M  V30 34307 N 3337.55 1.5726 0.10352 0
M  V30 34308 C 3338.5 2.0146 1.12617 0
M  V30 34309 C 3339.47 0.889415 1.4028 0
M  V30 34310 O 3340.65 1.15479 1.51885 0
M  V30 34311 C 3337.79 2.43697 2.44348 0
M  V30 34312 C 3336.9 3.69699 2.23488 0
M  V30 34313 C 3336.04 4.0085 3.48558 0
M  V30 34314 C 3335.08 5.19988 3.22923 0
M  V30 34315 N 3334.22 5.46933 4.40236 0
M  V30 34316 H 3339.06 2.88608 0.742265 0
M  V30 34317 H 3336.59 1.42752 0.354991 0
M  V30 34318 H 3338.55 2.66227 3.21215 0
M  V30 34319 H 3337.18 1.5957 2.80602 0
M  V30 34320 H 3336.23 3.54694 1.37464 0
M  V30 34321 H 3337.54 4.56715 2.00532 0
M  V30 34322 H 3336.7 4.24112 4.33836 0
M  V30 34323 H 3335.44 3.1234 3.7456 0
M  V30 34324 H 3334.44 4.96555 2.36036 0
M  V30 34325 H 3335.67 6.10089 2.98276 0
M  V30 34326 H 3333.61 4.61381 4.6633 0
M  V30 34327 H 3333.53 6.28304 4.20441 0
M  V30 34328 H 3334.8 5.74725 5.26604 0
M  V30 34329 N 3339.03 -0.374123 1.53095 0
M  V30 34330 C 3340.28 -1.11492 1.68084 0
M  V30 34331 C 3340.59 -1.90708 0.434718 0
M  V30 34332 O 3341.8 -2.67488 0.465003 0
M  V30 34333 C 3340.25 -2.03119 2.97104 0
M  V30 34334 C 3339.86 -1.29255 4.28949 0
M  V30 34335 C 3341.6 -2.77243 3.2146 0
M  V30 34336 C 3339.51 -2.19734 5.49064 0
M  V30 34337 H 3338.44 -0.41992 0.626246 0
M  V30 34338 H 3341.09 -0.376556 1.79595 0
M  V30 34339 H 3339.47 -2.80651 2.79376 0
M  V30 34340 H 3340.65 -0.568448 4.5728 0
M  V30 34341 H 3338.96 -0.67029 4.1097 0
M  V30 34342 H 3341.56 -3.45148 4.08383 0
M  V30 34343 H 3341.9 -3.42142 2.37159 0
M  V30 34344 H 3342.44 -2.06797 3.39824 0
M  V30 34345 H 3339.17 -1.59426 6.35817 0
M  V30 34346 H 3338.69 -2.90018 5.25024 0
M  V30 34347 H 3340.37 -2.79485 5.83521 0
M  V30 34348 N 3340.51 -1.4431 -0.633436 0
M  V30 34349 C 3341.75 -1.46681 -1.39029 0
M  V30 34350 C 3342.07 -0.0997508 -1.94745 0
M  V30 34351 O 3341.34 0.867628 -1.75639 0
M  V30 34352 H 3339.92 -0.540102 -0.516041 0
M  V30 34353 H 3342.59 -1.8007 -0.745707 0
M  V30 34354 H 3341.68 -2.19089 -2.22276 0
M  V30 34355 N 3341.98 0.873632 -1.3117 0
M  V30 34356 C 3342.89 2.01311 -1.20462 0
M  V30 34357 C 3343.91 1.73571 -0.122105 0
M  V30 34358 O 3345.09 1.98523 -0.33921 0
M  V30 34359 C 3342.15 3.34576 -0.908819 0
M  V30 34360 C 3341.21 3.75664 -2.07786 0
M  V30 34361 C 3340.45 5.0257 -1.79608 0
M  V30 34362 O 3340.67 5.65717 -0.729438 0
M  V30 34363 O 3339.6 5.40337 -2.65179 0
M  V30 34364 H 3343.43 2.13276 -2.16211 0
M  V30 34365 H 3341.01 1.00137 -1.10873 0
M  V30 34366 H 3342.9 4.14498 -0.759542 0
M  V30 34367 H 3341.57 3.23695 0.018668 0
M  V30 34368 H 3340.48 2.96398 -2.28252 0
M  V30 34369 H 3341.81 3.91166 -2.98747 0
M  V30 34370 N 3343.46 1.1407 1.08746 0
M  V30 34371 C 3344.41 0.824463 2.15572 0
M  V30 34372 C 3345.38 -0.216493 1.64683 0
M  V30 34373 O 3346.56 -0.0871858 1.90601 0
M  V30 34374 C 3343.7 0.30429 3.43756 0
M  V30 34375 C 3342.82 1.40513 4.08509 0
M  V30 34376 C 3341.95 0.842571 5.24475 0
M  V30 34377 C 3340.99 1.92133 5.81164 0
M  V30 34378 N 3340.13 1.3762 6.8848 0
M  V30 34379 H 3344.97 1.73945 2.41965 0
M  V30 34380 H 3342.51 0.868164 1.18749 0
M  V30 34381 H 3344.46 -0.0154813 4.17197 0
M  V30 34382 H 3343.09 -0.573813 3.17659 0
M  V30 34383 H 3342.15 1.84137 3.32863 0
M  V30 34384 H 3343.46 2.22017 4.46665 0
M  V30 34385 H 3342.61 0.474496 6.04842 0
M  V30 34386 H 3341.35 -0.0034664 4.877 0
M  V30 34387 H 3340.36 2.2984 4.99453 0
M  V30 34388 H 3341.58 2.77089 6.19999 0
M  V30 34389 H 3339.53 0.552283 6.53671 0
M  V30 34390 H 3339.44 2.12765 7.25443 0
M  V30 34391 H 3340.71 1.03592 7.72586 0
M  V30 34392 N 3344.94 -1.26847 0.935286 0
M  V30 34393 C 3346.19 -1.94652 0.590091 0
M  V30 34394 C 3346.54 -1.72087 -0.860451 0
M  V30 34395 O 3345.83 -1.04382 -1.6067 0
M  V30 34396 C 3346.03 -3.4687 0.861159 0
M  V30 34397 C 3345.86 -3.84237 2.3365 0
M  V30 34398 C 3344.63 -4.07298 2.99059 0
M  V30 34399 C 3346.83 -3.93244 3.31457 0
M  V30 34400 N 3344.81 -4.31503 4.36667 0
M  V30 34401 C 3346.18 -4.21913 4.54301 0
M  V30 34402 C 3348.23 -3.75848 3.26562 0
M  V30 34403 C 3346.94 -4.34996 5.72862 0
M  V30 34404 C 3348.96 -3.9016 4.44442 0
M  V30 34405 C 3348.32 -4.19223 5.66067 0
M  V30 34406 H 3344.42 -0.735299 0.266195 0
M  V30 34407 H 3347.01 -1.53051 1.20347 0
M  V30 34408 H 3345.18 -3.87412 0.276871 0
M  V30 34409 H 3346.91 -4.01869 0.477827 0
M  V30 34410 H 3343.67 -4.02427 2.49699 0
M  V30 34411 H 3344.09 -4.47649 5.07877 0
M  V30 34412 H 3348.73 -3.52413 2.33592 0
M  V30 34413 H 3346.45 -4.57255 6.66291 0
M  V30 34414 H 3350.04 -3.78111 4.4218 0
M  V30 34415 H 3348.92 -4.30056 6.5576 0
M  V30 34416 N 3346.42 -0.701641 -1.4112 0
M  V30 34417 C 3347.7 -0.162945 -1.9492 0
M  V30 34418 C 3348.08 1.32836 -1.64066 0
M  V30 34419 O 3347.42 2.07775 -0.950884 0
M  V30 34420 C 3347.63 -0.460734 -3.45945 0
M  V30 34421 C 3348.98 -0.39178 -4.22789 0
M  V30 34422 O 3350.01 -0.395993 -3.53992 0
M  V30 34423 O 3348.86 -0.357167 -5.45332 0
M  V30 34424 H 3345.96 -0.0185248 -0.826792 0
M  V30 34425 H 3348.5 -0.778218 -1.50804 0
M  V30 34426 H 3347.28 -1.49275 -3.61708 0
M  V30 34427 H 3346.9 0.185207 -3.97168 0
M  V30 34428 N 3347.9 1.51133 -0.446821 0
M  V30 34429 C 3349.31 1.59289 -0.0996185 0
M  V30 34430 C 3349.51 1.45701 1.39188 0
M  V30 34431 O 3348.57 1.30307 2.16278 0
M  V30 34432 C 3349.88 2.94065 -0.628186 0
M  V30 34433 C 3351.43 3.07399 -0.589463 0
M  V30 34434 C 3351.9 4.44714 -1.09516 0
M  V30 34435 N 3353.4 4.51059 -1.05355 0
M  V30 34436 C 3354.13 5.55651 -1.4156 0
M  V30 34437 N 3353.63 6.67616 -1.85097 0
M  V30 34438 N 3355.42 5.46061 -1.33317 0
M  V30 34439 H 3347.57 1.5821 -1.41716 0
M  V30 34440 H 3349.83 0.746314 -0.584568 0
M  V30 34441 H 3349.54 3.09408 -1.6721 0
M  V30 34442 H 3349.41 3.77155 -0.0583061 0
M  V30 34443 H 3351.8 2.91718 0.44549 0
M  V30 34444 H 3351.88 2.26126 -1.19586 0
M  V30 34445 H 3351.53 4.61142 -2.12863 0
M  V30 34446 H 3351.46 5.24541 -0.465214 0
M  V30 34447 H 3353.95 3.70704 -0.733942 0
M  V30 34448 H 3354.26 7.43455 -2.10936 0
M  V30 34449 H 3352.6 6.68799 -1.89032 0
M  V30 34450 H 3355.8 4.57476 -0.991627 0
M  V30 34451 H 3355.97 6.27459 -1.61861 0
M  V30 34452 N 3349.37 0.178515 1.56586 0
M  V30 34453 C 3350.31 -0.780505 2.15501 0
M  V30 34454 C 3351.32 -1.18862 1.11246 0
M  V30 34455 O 3352.51 -1.12723 1.38405 0
M  V30 34456 C 3349.61 -2.06306 2.6887 0
M  V30 34457 C 3348.78 -1.81737 3.97857 0
M  V30 34458 C 3347.84 -2.94279 4.36218 0
M  V30 34459 O 3346.87 -2.64603 5.03958 0
M  V30 34460 N 3348.07 -4.2224 3.98364 0
M  V30 34461 H 3350.83 -0.276784 2.98419 0
M  V30 34462 H 3348.39 -0.00402395 1.61899 0
M  V30 34463 H 3350.39 -2.80703 2.91527 0
M  V30 34464 H 3348.96 -2.47848 1.905 0
M  V30 34465 H 3348.18 -0.91206 3.83504 0
M  V30 34466 H 3349.46 -1.62698 4.82086 0
M  V30 34467 H 3348.86 -4.49209 3.43843 0
M  V30 34468 H 3347.42 -4.93317 4.26006 0
M  V30 34469 N 3350.85 -1.57312 -0.0951784 0
M  V30 34470 C 3352.1 -1.85716 -0.797109 0
M  V30 34471 C 3352.42 -0.767202 -1.79274 0
M  V30 34472 O 3351.69 0.20655 -1.94808 0
M  V30 34473 H 3350.27 -0.685259 -0.29737 0
M  V30 34474 H 3352.93 -1.94749 -0.0768275 0
M  V30 34475 H 3352.03 -2.82449 -1.32774 0
M  V30 34476 N 3352.33 0.365999 -1.53291 0
M  V30 34477 C 3353.24 1.47218 -1.82658 0
M  V30 34478 C 3354.26 1.58634 -0.714938 0
M  V30 34479 O 3355.43 1.74536 -1.00495 0
M  V30 34480 C 3352.5 2.82489 -2.01 0
M  V30 34481 C 3351.56 2.80604 -3.249 0
M  V30 34482 C 3350.79 4.09423 -3.42357 0
M  V30 34483 O 3351.01 5.05566 -2.64119 0
M  V30 34484 O 3349.95 4.1526 -4.35709 0
M  V30 34485 H 3353.77 1.25325 -2.76636 0
M  V30 34486 H 3351.36 0.556059 -1.38666 0
M  V30 34487 H 3353.24 3.62641 -2.14638 0
M  V30 34488 H 3351.92 3.0436 -1.10212 0
M  V30 34489 H 3350.82 1.99152 -3.16685 0
M  V30 34490 H 3352.16 2.63687 -4.15608 0
M  V30 34491 N 3353.81 1.44644 0.625774 0
M  V30 34492 C 3354.76 1.52229 1.75866 0
M  V30 34493 C 3355.75 0.393579 1.64764 0
M  V30 34494 O 3356.96 0.568748 1.70778 0
M  V30 34495 H 3353.33 0.477794 0.580704 0
M  V30 34496 H 3355.3 2.47567 1.66592 0
M  V30 34497 C 3354.05 1.48879 3.14214 0
M  V30 34498 H 3353.37 2.35049 3.23407 0
M  V30 34499 H 3354.81 1.58246 3.93363 0
M  V30 34500 C 3353.27 0.210358 3.36243 0
M  V30 34501 O 3353.8 -0.717265 3.95244 0
M  V30 34502 N 3352.01 0.111795 2.90385 0
M  V30 34503 H 3351.56 0.867508 2.42553 0
M  V30 34504 H 3351.51 -0.742817 3.05499 0
M  V30 34505 N 3355.29 -0.866663 1.31631 0
M  V30 34506 C 3356.53 -1.61676 1.21266 0
M  V30 34507 C 3356.86 -1.93656 -0.228528 0
M  V30 34508 O 3356.13 -1.58585 -1.15012 0
M  V30 34509 H 3354.71 -0.599372 0.445827 0
M  V30 34510 H 3357.37 -1.03736 1.64999 0
M  V30 34511 H 3356.46 -2.55895 1.78673 0
M  V30 34512 N 3356.77 -1.14645 -1.0814 0
M  V30 34513 C 3357.7 -0.793651 -2.1502 0
M  V30 34514 C 3358.71 0.190701 -1.61679 0
M  V30 34515 O 3359.9 -0.031401 -1.78472 0
M  V30 34516 C 3357 -0.157845 -3.38532 0
M  V30 34517 C 3356.17 -1.17761 -4.2125 0
M  V30 34518 C 3355.23 -0.56506 -5.23157 0
M  V30 34519 O 3354.26 -1.22879 -5.55778 0
M  V30 34520 N 3355.46 0.65692 -5.76771 0
M  V30 34521 H 3358.22 -1.71342 -2.4589 0
M  V30 34522 H 3355.79 -1.04124 -1.23975 0
M  V30 34523 H 3357.78 0.264515 -4.03835 0
M  V30 34524 H 3356.35 0.665114 -3.05442 0
M  V30 34525 H 3355.57 -1.77681 -3.51885 0
M  V30 34526 H 3356.86 -1.8664 -4.73332 0
M  V30 34527 H 3356.25 1.21468 -5.52505 0
M  V30 34528 H 3354.81 1.02175 -6.43742 0
M  V30 34529 N 3358.24 1.26349 -0.942 0
M  V30 34530 C 3359.18 2.24729 -0.396526 0
M  V30 34531 C 3360.15 1.54225 0.515113 0
M  V30 34532 O 3361.34 1.82991 0.452373 0
M  V30 34533 C 3358.47 3.35957 0.430173 0
M  V30 34534 C 3357.51 4.24426 -0.420055 0
M  V30 34535 S 3358.34 5.02731 -1.84451 0
M  V30 34536 C 3359.5 6.17435 -1.02589 0
M  V30 34537 H 3359.73 2.70649 -1.23029 0
M  V30 34538 H 3357.27 1.35228 -0.745172 0
M  V30 34539 H 3359.22 4.00484 0.901245 0
M  V30 34540 H 3357.89 2.88647 1.23863 0
M  V30 34541 H 3357.08 5.03548 0.213386 0
M  V30 34542 H 3356.68 3.64768 -0.825844 0
M  V30 34543 H 3358.97 6.76968 -0.26855 0
M  V30 34544 H 3359.92 6.85086 -1.7906 0
M  V30 34545 H 3360.32 5.617 -0.561587 0
M  V30 34546 N 3359.72 0.709115 1.40746 0
M  V30 34547 C 3360.65 0.00160917 2.282 0
M  V30 34548 C 3361.63 -0.774254 1.42983 0
M  V30 34549 O 3362.82 -0.762246 1.72401 0
M  V30 34550 C 3359.94 -1.00512 3.23443 0
M  V30 34551 C 3358.99 -0.320829 4.25292 0
M  V30 34552 S 3359.82 0.946611 5.27067 0
M  V30 34553 C 3360.98 -0.0581756 6.25873 0
M  V30 34554 H 3361.21 0.743322 2.87858 0
M  V30 34555 H 3358.74 0.499892 1.46084 0
M  V30 34556 H 3360.7 -1.58075 3.78843 0
M  V30 34557 H 3359.36 -1.71949 2.62854 0
M  V30 34558 H 3358.56 -1.08165 4.92256 0
M  V30 34559 H 3358.16 0.182085 3.73556 0
M  V30 34560 H 3360.45 -0.907115 6.714 0
M  V30 34561 H 3361.39 0.577911 7.05738 0
M  V30 34562 H 3361.8 -0.419009 5.62943 0
M  V30 34563 N 3361.2 -1.50894 0.454829 0
M  V30 34564 C 3362.42 -2.07128 -0.106222 0
M  V30 34565 C 3362.85 -1.31826 -1.34177 0
M  V30 34566 O 3362.21 -0.361179 -1.77666 0
M  V30 34567 C 3362.26 -3.5849 -0.389546 0
M  V30 34568 O 3361.36 -3.85198 -1.47298 0
M  V30 34569 H 3360.7 -0.663975 0.00581755 0
M  V30 34570 H 3363.23 -1.94293 0.641197 0
M  V30 34571 H 3363.24 -4.0303 -0.634863 0
M  V30 34572 H 3361.92 -4.12719 0.513411 0
M  V30 34573 H 3360.49 -3.52508 -1.21625 0
M  V30 34574 N 3362.68 -0.186817 -1.56489 0
M  V30 34575 C 3363.92 0.456392 -1.9924 0
M  V30 34576 C 3364.28 1.59368 -1.07079 0
M  V30 34577 O 3365.48 2.30051 -1.39032 0
M  V30 34578 C 3363.75 0.912526 -3.45554 0
M  V30 34579 S 3365.31 1.55474 -4.10333 0
M  V30 34580 H 3362.13 0.146255 -0.695795 0
M  V30 34581 H 3364.73 -0.287933 -1.93368 0
M  V30 34582 H 3363.44 0.0746156 -4.10332 0
M  V30 34583 H 3362.97 1.69052 -3.55225 0
M  V30 34584 H 3364.98 2.84331 -4.06658 0
M  V30 34585 N 3364.16 1.57361 0.0868344 0
M  V30 34586 C 3365.38 1.90718 0.802134 0
M  V30 34587 C 3365.8 0.781334 1.71874 0
M  V30 34588 O 3365.16 -0.246223 1.80831 0
M  V30 34589 C 3365.21 3.23742 1.60852 0
M  V30 34590 O 3364.93 4.31996 0.728775 0
M  V30 34591 C 3366.43 3.71016 2.42615 0
M  V30 34592 H 3363.65 0.630749 0.228903 0
M  V30 34593 H 3366.19 2.04407 0.0615981 0
M  V30 34594 H 3364.35 3.11626 2.30148 0
M  V30 34595 H 3364.76 5.08437 1.28811 0
M  V30 34596 H 3366.24 4.66766 2.94675 0
M  V30 34597 H 3366.71 2.9927 3.21456 0
M  V30 34598 H 3367.32 3.86027 1.78503 0
M  V30 34599 N 3365.63 -0.357865 1.53483 0
M  V30 34600 C 3366.87 -1.10828 1.71745 0
M  V30 34601 C 3367.24 -1.86326 0.463336 0
M  V30 34602 O 3368.44 -2.63668 0.522761 0
M  V30 34603 C 3366.71 -2.0359 2.93745 0
M  V30 34604 S 3368.27 -2.86048 3.32749 0
M  V30 34605 H 3365.09 -0.374699 0.604253 0
M  V30 34606 H 3367.69 -0.388532 1.916 0
M  V30 34607 H 3366.39 -1.46902 3.83207 0
M  V30 34608 H 3365.92 -2.80025 2.76314 0
M  V30 34609 H 3367.94 -4.05933 2.85365 0
M  V30 34610 N 3367.11 -1.44974 -0.618094 0
M  V30 34611 C 3368.04 -1.55676 -1.74032 0
M  V30 34612 C 3369.02 -0.408929 -1.65111 0
M  V30 34613 O 3370.21 -0.63073 -1.83672 0
M  V30 34614 C 3367.34 -1.51308 -3.12607 0
M  V30 34615 C 3366.29 -2.64701 -3.36329 0
M  V30 34616 C 3365.62 -2.45386 -4.75068 0
M  V30 34617 C 3366.92 -4.06778 -3.27611 0
M  V30 34618 H 3368.61 -2.49611 -1.65332 0
M  V30 34619 H 3366.16 -1.20133 -0.793982 0
M  V30 34620 H 3368.11 -1.57394 -3.90903 0
M  V30 34621 H 3366.83 -0.538971 -3.22122 0
M  V30 34622 H 3365.49 -2.58026 -2.60419 0
M  V30 34623 H 3365.14 -1.46138 -4.81303 0
M  V30 34624 H 3364.84 -3.21421 -4.91897 0
M  V30 34625 H 3366.37 -2.5331 -5.55577 0
M  V30 34626 H 3367.78 -4.14753 -3.95794 0
M  V30 34627 H 3366.18 -4.83119 -3.55972 0
M  V30 34628 H 3367.25 -4.29427 -2.25212 0
M  V30 34629 N 3368.59 0.85967 -1.32089 0
M  V30 34630 C 3369.84 1.6103 -1.22121 0
M  V30 34631 C 3370.16 1.93775 0.218255 0
M  V30 34632 O 3369.43 1.59192 1.14169 0
M  V30 34633 H 3368.01 0.597 -0.448999 0
M  V30 34634 H 3370.67 1.0286 -1.65547 0
M  V30 34635 H 3369.77 2.54944 -1.80028 0
M  V30 34636 N 3370.07 1.15217 1.0753 0
M  V30 34637 C 3371.02 0.84306 2.16784 0
M  V30 34638 C 3372.01 -0.182772 1.68411 0
M  V30 34639 O 3373.22 -0.0379848 1.7996 0
M  V30 34640 H 3369.59 0.254958 0.707461 0
M  V30 34641 H 3371.56 1.77219 2.40075 0
M  V30 34642 C 3370.31 0.34676 3.45967 0
M  V30 34643 H 3369.63 1.1275 3.83572 0
M  V30 34644 H 3371.07 0.169113 4.23663 0
M  V30 34645 C 3369.53 -0.93138 3.2377 0
M  V30 34646 O 3370.06 -2.0033 3.48182 0
M  V30 34647 N 3368.27 -0.870169 2.77266 0
M  V30 34648 H 3367.82 0.00230751 2.576 0
M  V30 34649 H 3367.77 -1.72589 2.62793 0
M  V30 34650 N 3371.55 -1.25848 0.948687 0
M  V30 34651 C 3372.79 -1.93017 0.599084 0
M  V30 34652 C 3373.12 -1.74726 -0.865783 0
M  V30 34653 O 3372.39 -1.10734 -1.616 0
M  V30 34654 H 3370.97 -0.714306 0.218577 0
M  V30 34655 H 3373.63 -1.53135 1.20564 0
M  V30 34656 H 3372.72 -3.01045 0.823297 0
M  V30 34657 N 3373.02 -0.716569 -1.40368 0
M  V30 34658 C 3373.97 -0.064635 -2.30709 0
M  V30 34659 C 3374.94 0.749268 -1.4824 0
M  V30 34660 O 3376.13 0.713014 -1.76977 0
M  V30 34661 C 3373.27 0.850419 -3.34458 0
M  V30 34662 C 3372.38 0.0258834 -4.31992 0
M  V30 34663 C 3371.51 0.940507 -5.22808 0
M  V30 34664 C 3370.55 0.11012 -6.12001 0
M  V30 34665 N 3369.69 0.979674 -6.95231 0
M  V30 34666 H 3374.53 -0.840733 -2.85895 0
M  V30 34667 H 3372.07 -0.426283 -1.40788 0
M  V30 34668 H 3374.03 1.39521 -3.93179 0
M  V30 34669 H 3372.66 1.59269 -2.80773 0
M  V30 34670 H 3371.71 -0.636102 -3.75044 0
M  V30 34671 H 3373.02 -0.61697 -4.9497 0
M  V30 34672 H 3372.17 1.55379 -5.86466 0
M  V30 34673 H 3370.91 1.61718 -4.60107 0
M  V30 34674 H 3369.92 -0.516097 -5.47372 0
M  V30 34675 H 3371.14 -0.563063 -6.76762 0
M  V30 34676 H 3369.09 1.64198 -6.35118 0
M  V30 34677 H 3369.01 0.392879 -7.54978 0
M  V30 34678 H 3370.27 1.57911 -7.63338 0
M  V30 34679 N 3374.5 1.50651 -0.462825 0
M  V30 34680 C 3375.75 2.01877 0.0948213 0
M  V30 34681 C 3376.07 1.34744 1.40958 0
M  V30 34682 O 3375.34 0.490093 1.89671 0
M  V30 34683 H 3373.92 0.746031 0.0380322 0
M  V30 34684 H 3376.58 1.85063 -0.61136 0
M  V30 34685 H 3375.68 3.11078 0.252323 0
M  V30 34686 N 3375.98 0.195113 1.56388 0
M  V30 34687 C 3376.89 -0.737704 2.227 0
M  V30 34688 C 3377.91 -1.23464 1.22608 0
M  V30 34689 O 3379.08 -1.2818 1.55344 0
M  V30 34690 C 3376.15 -1.94006 2.87337 0
M  V30 34691 C 3375.21 -1.48769 4.02699 0
M  V30 34692 C 3374.44 -2.63274 4.64244 0
M  V30 34693 O 3374.66 -3.80756 4.24713 0
M  V30 34694 O 3373.6 -2.35986 5.5371 0
M  V30 34695 H 3377.42 -0.20296 3.03021 0
M  V30 34696 H 3375.01 -0.0341781 1.49361 0
M  V30 34697 H 3376.89 -2.64278 3.2823 0
M  V30 34698 H 3375.57 -2.46341 2.09995 0
M  V30 34699 H 3374.47 -0.753774 3.66427 0
M  V30 34700 H 3375.81 -1.01101 4.81705 0
M  V30 34701 N 3377.46 -1.57404 -0.0784879 0
M  V30 34702 C 3378.71 -1.86921 -0.778905 0
M  V30 34703 C 3379.03 -0.785937 -1.77914 0
M  V30 34704 O 3378.29 0.218777 -1.94473 0
M  V30 34705 C 3378.59 -3.2308 -1.5282 0
M  V30 34706 C 3378.25 -4.45916 -0.668567 0
M  V30 34707 C 3376.92 -4.7926 -0.431645 0
M  V30 34708 C 3379.27 -5.2115 -0.0720411 0
M  V30 34709 C 3376.6 -5.85256 0.411393 0
M  V30 34710 C 3378.95 -6.28037 0.758414 0
M  V30 34711 C 3377.61 -6.59887 1.00527 0
M  V30 34712 H 3376.88 -0.683991 -0.285022 0
M  V30 34713 H 3379.53 -1.91458 -0.0398724 0
M  V30 34714 H 3377.83 -3.14303 -2.33925 0
M  V30 34715 H 3379.53 -3.43151 -2.07482 0
M  V30 34716 H 3376.12 -4.19815 -0.86335 0
M  V30 34717 H 3380.3 -4.95709 -0.24221 0
M  V30 34718 H 3375.56 -6.08335 0.611461 0
M  V30 34719 H 3379.73 -6.85498 1.22742 0
M  V30 34720 H 3377.36 -7.41848 1.6603 0
M  V30 34721 N 3378.94 0.34972 -1.53671 0
M  V30 34722 C 3379.88 1.42919 -1.81226 0
M  V30 34723 C 3380.85 1.5253 -0.657563 0
M  V30 34724 O 3382.04 1.68166 -0.90137 0
M  V30 34725 C 3379.18 2.79655 -2.02205 0
M  V30 34726 C 3378.29 2.78885 -3.2992 0
M  V30 34727 C 3377.43 4.07299 -3.41 0
M  V30 34728 C 3376.47 4.00733 -4.62687 0
M  V30 34729 N 3375.6 5.20825 -4.70835 0
M  V30 34730 H 3380.44 1.18722 -2.7333 0
M  V30 34731 H 3377.98 0.575227 -1.35387 0
M  V30 34732 H 3379.94 3.5911 -2.12357 0
M  V30 34733 H 3378.57 3.02218 -1.13421 0
M  V30 34734 H 3377.62 1.91571 -3.28641 0
M  V30 34735 H 3378.93 2.6991 -4.19464 0
M  V30 34736 H 3378.09 4.95176 -3.50551 0
M  V30 34737 H 3376.82 4.19047 -2.49501 0
M  V30 34738 H 3375.83 3.11241 -4.5322 0
M  V30 34739 H 3377.05 3.90573 -5.55545 0
M  V30 34740 H 3375 5.33129 -3.82242 0
M  V30 34741 H 3374.92 5.14082 -5.54306 0
M  V30 34742 H 3376.19 6.1049 -4.84688 0
M  V30 34743 N 3380.41 1.45299 0.610397 0
M  V30 34744 C 3381.65 1.50707 1.38082 0
M  V30 34745 C 3382.02 0.14403 1.91459 0
M  V30 34746 O 3383.22 0.0727993 2.68701 0
M  V30 34747 C 3381.49 2.55407 2.50004 0
M  V30 34748 S 3383.05 2.80018 3.37839 0
M  V30 34749 H 3379.87 0.532791 0.470802 0
M  V30 34750 H 3382.47 1.82361 0.704606 0
M  V30 34751 H 3381.17 3.53115 2.09136 0
M  V30 34752 H 3380.7 2.25394 3.2243 0
M  V30 34753 H 3382.72 2.13184 4.4807 0
M  V30 34754 N 3381.89 -0.852653 1.32543 0
M  V30 34755 C 3383.17 -1.59065 1.13832 0
M  V30 34756 C 3383.55 -2.0895 -0.300547 0
M  V30 34757 O 3382.9 -1.8809 -1.29747 0
M  V30 34758 C 3383.11 -2.73523 2.16763 0
M  V30 34759 C 3384.46 -3.43053 2.502 0
M  V30 34760 O 3385.48 -2.8375 2.15324 0
M  V30 34761 O 3384.34 -4.50074 3.09993 0
M  V30 34762 H 3381.43 -0.700617 0.439391 0
M  V30 34763 H 3383.98 -0.896607 1.4408 0
M  V30 34764 H 3382.75 -2.34201 3.13473 0
M  V30 34765 H 3382.37 -3.50601 1.87522 0
M  V30 34766 N 3383.37 -1.15786 -1.06918 0
M  V30 34767 C 3384.78 -0.944151 -1.61067 0
M  V30 34768 C 3385.13 0.513489 -1.89361 0
M  V30 34769 O 3384.26 1.38546 -1.66234 0
M  V30 34770 C 3384.85 -1.70748 -2.92627 0
M  V30 34771 C 3383.41 -1.53893 -3.43502 0
M  V30 34772 C 3382.56 -1.72025 -2.17492 0
M  V30 34773 H 3385.51 -1.30748 -0.899487 0
M  V30 34774 H 3385.53 -1.17957 -3.61755 0
M  V30 34775 H 3385.04 -2.76833 -2.72002 0
M  V30 34776 H 3383.14 -0.502218 -3.692 0
M  V30 34777 H 3383.26 -2.31876 -4.1925 0
M  V30 34778 H 3381.62 -1.14714 -2.27405 0
M  V30 34779 H 3382.4 -2.79485 -1.99357 0
M  V30 34780 N 3384.85 1.25343 -0.955348 0
M  V30 34781 C 3385.8 2.23579 -0.446831 0
M  V30 34782 C 3386.78 1.54055 0.464327 0
M  V30 34783 O 3387.97 1.74486 0.297263 0
M  V30 34784 C 3385.1 3.42209 0.273473 0
M  V30 34785 C 3384.19 4.18999 -0.655796 0
M  V30 34786 N 3384.58 4.73153 -1.78774 0
M  V30 34787 C 3382.88 4.43578 -0.464137 0
M  V30 34788 C 3383.58 5.3132 -2.36799 0
M  V30 34789 N 3382.56 5.17812 -1.65444 0
M  V30 34790 H 3386.36 2.63055 -1.3107 0
M  V30 34791 H 3383.87 1.40589 -0.812923 0
M  V30 34792 H 3385.87 4.11724 0.654913 0
M  V30 34793 H 3384.53 3.04256 1.13394 0
M  V30 34794 H 3385.54 4.70265 -2.16959 0
M  V30 34795 H 3382.22 4.16002 0.353386 0
M  V30 34796 H 3383.61 5.84002 -3.32252 0
M  V30 34797 N 3386.33 0.724003 1.39986 0
M  V30 34798 C 3387.24 0.0781348 2.3447 0
M  V30 34799 C 3388.25 -0.73434 1.57745 0
M  V30 34800 O 3389.43 -0.665351 1.90092 0
M  V30 34801 C 3386.49 -0.826433 3.36706 0
M  V30 34802 C 3385.56 -0.0029549 4.293 0
M  V30 34803 C 3384.79 -0.864442 5.26653 0
M  V30 34804 O 3385.01 -2.10348 5.30198 0
M  V30 34805 O 3383.95 -0.298951 6.01157 0
M  V30 34806 H 3387.77 0.857697 2.91337 0
M  V30 34807 H 3385.36 0.484561 1.41324 0
M  V30 34808 H 3387.24 -1.34432 3.99382 0
M  V30 34809 H 3385.91 -1.585 2.8224 0
M  V30 34810 H 3384.82 0.560201 3.69882 0
M  V30 34811 H 3386.15 0.71758 4.86941 0
M  V30 34812 N 3387.81 -1.50403 0.470808 0
M  V30 34813 C 3388.77 -2.27064 -0.312187 0
M  V30 34814 C 3389.77 -1.31833 -0.920686 0
M  V30 34815 O 3390.96 -1.55261 -0.789909 0
M  V30 34816 C 3388.09 -3.08773 -1.44472 0
M  V30 34817 H 3389.28 -2.9773 0.360113 0
M  V30 34818 H 3386.84 -1.54674 0.224864 0
M  V30 34819 H 3387.57 -2.42602 -2.15208 0
M  V30 34820 H 3387.36 -3.78757 -1.0142 0
M  V30 34821 H 3388.85 -3.66752 -1.99707 0
M  V30 34822 N 3389.28 -0.203404 -1.56282 0
M  V30 34823 C 3390.51 0.438536 -2.02199 0
M  V30 34824 C 3390.93 1.54617 -1.08346 0
M  V30 34825 O 3390.28 1.82279 -0.0897915 0
M  V30 34826 C 3390.33 0.987123 -3.47762 0
M  V30 34827 O 3390.06 -0.0763322 -4.38033 0
M  V30 34828 C 3391.56 1.70412 -4.09237 0
M  V30 34829 H 3388.78 0.10927 -0.662043 0
M  V30 34830 H 3391.32 -0.314544 -2.02066 0
M  V30 34831 H 3389.48 1.69055 -3.48567 0
M  V30 34832 H 3389.89 0.33323 -5.2344 0
M  V30 34833 H 3391.36 2.04018 -5.12914 0
M  V30 34834 H 3391.84 2.6108 -3.53177 0
M  V30 34835 H 3392.45 1.04634 -4.12228 0
M  V30 34836 N 3390.76 1.57444 0.0701393 0
M  V30 34837 C 3392 1.89166 0.774305 0
M  V30 34838 C 3392.37 0.797384 1.74659 0
M  V30 34839 O 3393.57 0.997726 2.49597 0
M  V30 34840 C 3391.84 3.26116 1.46229 0
M  V30 34841 S 3393.4 3.7959 2.20129 0
M  V30 34842 H 3390.21 0.662751 0.257453 0
M  V30 34843 H 3392.82 1.95476 0.0303391 0
M  V30 34844 H 3391.52 4.03657 0.740871 0
M  V30 34845 H 3391.05 3.23008 2.24565 0
M  V30 34846 H 3393.07 3.55009 3.46674 0
M  V30 34847 N 3392.24 -0.341566 1.53854 0
M  V30 34848 C 3393.47 -1.09999 1.74882 0
M  V30 34849 C 3393.88 -1.82776 0.488834 0
M  V30 34850 O 3393.22 -1.75295 -0.549302 0
M  V30 34851 C 3393.28 -2.15689 2.87608 0
M  V30 34852 C 3392.95 -1.62469 4.27145 0
M  V30 34853 C 3393.94 -1.07597 5.08644 0
M  V30 34854 C 3391.63 -1.67256 4.73636 0
M  V30 34855 C 3393.62 -0.582173 6.34736 0
M  V30 34856 C 3391.31 -1.17489 5.997 0
M  V30 34857 C 3392.31 -0.630623 6.80082 0
M  V30 34858 O 3392 -0.140378 8.03777 0
M  V30 34859 H 3391.73 -0.333814 0.58783 0
M  V30 34860 H 3394.28 -0.398929 2.01489 0
M  V30 34861 H 3392.51 -2.89359 2.56531 0
M  V30 34862 H 3394.2 -2.77111 2.96587 0
M  V30 34863 H 3394.97 -1.03219 4.73889 0
M  V30 34864 H 3390.85 -2.0856 4.11125 0
M  V30 34865 H 3394.39 -0.156689 6.97424 0
M  V30 34866 H 3390.29 -1.21568 6.33949 0
M  V30 34867 H 3391.05 -0.257482 8.18095 0
M  V30 34868 N 3393.72 -1.45621 -0.602683 0
M  V30 34869 C 3394.99 -1.40368 -1.36221 0
M  V30 34870 C 3395.37 -0.0768016 -2.1096 0
M  V30 34871 O 3394.72 0.941342 -2.08209 0
M  V30 34872 C 3394.93 -2.62056 -2.30494 0
M  V30 34873 C 3396.28 -3.07354 -2.92949 0
M  V30 34874 O 3397.3 -2.62464 -2.40814 0
M  V30 34875 O 3396.16 -3.8527 -3.87595 0
M  V30 34876 H 3393.26 -0.557263 -0.611054 0
M  V30 34877 H 3395.8 -1.57757 -0.625363 0
M  V30 34878 H 3394.58 -3.50206 -1.7456 0
M  V30 34879 H 3394.2 -2.47025 -3.11551 0
M  V30 34880 N 3395.2 0.845612 -1.32993 0
M  V30 34881 C 3396.47 1.58459 -1.14674 0
M  V30 34882 C 3396.85 2.09106 0.289462 0
M  V30 34883 O 3396.2 1.88776 1.28748 0
M  V30 34884 C 3396.41 2.72369 -2.18211 0
M  V30 34885 C 3397.76 3.41721 -2.52016 0
M  V30 34886 O 3398.78 2.82604 -2.16826 0
M  V30 34887 O 3397.64 4.48424 -3.12376 0
M  V30 34888 H 3394.74 0.698277 -0.4431 0
M  V30 34889 H 3397.28 0.888953 -1.44554 0
M  V30 34890 H 3396.05 2.32536 -3.14711 0
M  V30 34891 H 3395.68 3.49602 -1.89378 0
M  V30 34892 N 3396.67 1.16351 1.06302 0
M  V30 34893 C 3397.92 0.943105 1.78745 0
M  V30 34894 C 3398.24 -0.53045 1.87647 0
M  V30 34895 O 3397.51 -1.38536 1.38508 0
M  V30 34896 H 3396.09 0.345944 0.662066 0
M  V30 34897 H 3398.75 1.46618 1.28411 0
M  V30 34898 H 3397.85 1.36175 2.80825 0
M  V30 34899 N 3398.15 -1.24835 0.961982 0
M  V30 34900 C 3399.1 -2.25606 0.486899 0
M  V30 34901 C 3400.07 -1.59472 -0.464518 0
M  V30 34902 O 3401.25 -1.87056 -0.376146 0
M  V30 34903 C 3398.39 -3.44384 -0.222233 0
M  V30 34904 C 3397.51 -4.25132 0.767281 0
M  V30 34905 C 3396.64 -5.31189 0.0348392 0
M  V30 34906 C 3395.68 -6.03629 1.0148 0
M  V30 34907 N 3394.82 -7.01403 0.312743 0
M  V30 34908 H 3399.66 -2.65612 1.35109 0
M  V30 34909 H 3397.19 -1.30575 0.677396 0
M  V30 34910 H 3399.15 -4.12105 -0.650014 0
M  V30 34911 H 3397.78 -3.05231 -1.05041 0
M  V30 34912 H 3396.83 -3.57002 1.31352 0
M  V30 34913 H 3398.15 -4.75243 1.51478 0
M  V30 34914 H 3397.3 -6.0502 -0.451219 0
M  V30 34915 H 3396.04 -4.8197 -0.745401 0
M  V30 34916 H 3395.04 -5.28607 1.51179 0
M  V30 34917 H 3396.27 -6.54937 1.79539 0
M  V30 34918 H 3394.22 -6.54464 -0.448625 0
M  V30 34919 H 3394.13 -7.49368 0.999211 0
M  V30 34920 H 3395.4 -7.79353 -0.151536 0
M  V30 34921 N 3399.63 -0.731417 -1.396 0
M  V30 34922 C 3400.86 -0.287926 -2.04887 0
M  V30 34923 C 3401.27 1.07597 -1.5514 0
M  V30 34924 O 3400.63 1.67922 -0.71474 0
M  V30 34925 C 3400.68 -0.276692 -3.6044 0
M  V30 34926 O 3400.4 -1.58675 -4.08355 0
M  V30 34927 C 3401.9 0.183408 -4.4292 0
M  V30 34928 H 3399.12 -0.126471 -0.658974 0
M  V30 34929 H 3401.67 -0.994063 -1.78714 0
M  V30 34930 H 3399.82 0.380529 -3.85527 0
M  V30 34931 H 3400.24 -1.49788 -5.02657 0
M  V30 34932 H 3401.71 0.14011 -5.51822 0
M  V30 34933 H 3402.19 1.22804 -4.21682 0
M  V30 34934 H 3402.79 -0.444116 -4.22975 0
M  V30 34935 N 3401.11 1.50152 -0.478778 0
M  V30 34936 C 3402.34 2.06478 0.0709092 0
M  V30 34937 C 3402.75 1.34195 1.33373 0
M  V30 34938 O 3402.09 0.407102 1.79132 0
M  V30 34939 C 3402.15 3.5707 0.417259 0
M  V30 34940 C 3401.82 4.50893 -0.744643 0
M  V30 34941 C 3402.81 4.93724 -1.62887 0
M  V30 34942 C 3400.5 4.9348 -0.937149 0
M  V30 34943 C 3402.49 5.77859 -2.68995 0
M  V30 34944 C 3400.18 5.77396 -2.00144 0
M  V30 34945 C 3401.18 6.19487 -2.8762 0
M  V30 34946 O 3400.86 7.01728 -3.92215 0
M  V30 34947 H 3400.6 0.675962 -0.00721365 0
M  V30 34948 H 3403.15 1.94206 -0.668831 0
M  V30 34949 H 3401.38 3.67272 1.21029 0
M  V30 34950 H 3403.07 3.9573 0.902932 0
M  V30 34951 H 3403.84 4.61485 -1.49187 0
M  V30 34952 H 3399.71 4.60234 -0.265717 0
M  V30 34953 H 3403.26 6.10633 -3.37303 0
M  V30 34954 H 3399.16 6.09048 -2.13848 0
M  V30 34955 H 3399.92 7.19993 -3.89297 0
M  V30 34956 N 3402.59 0.211689 1.56172 0
M  V30 34957 C 3403.54 -0.715637 2.16478 0
M  V30 34958 C 3404.52 -1.16457 1.11025 0
M  V30 34959 O 3405.71 -1.1202 1.37042 0
M  V30 34960 C 3402.84 -1.92784 2.84058 0
M  V30 34961 C 3401.93 -1.49904 3.96723 0
M  V30 34962 N 3402.32 -0.782216 4.99715 0
M  V30 34963 C 3400.62 -1.78709 4.08631 0
M  V30 34964 C 3401.32 -0.564942 5.7895 0
M  V30 34965 N 3400.29 -1.11868 5.31965 0
M  V30 34966 H 3404.1 -0.159428 2.93467 0
M  V30 34967 H 3401.61 0.0125495 1.62395 0
M  V30 34968 H 3403.61 -2.60283 3.25666 0
M  V30 34969 H 3402.27 -2.48861 2.08562 0
M  V30 34970 H 3403.28 -0.43593 5.16062 0
M  V30 34971 H 3399.95 -2.36176 3.44277 0
M  V30 34972 H 3401.34 0.00488884 6.719 0
M  V30 34973 N 3404.06 -1.57479 -0.0617887 0
M  V30 34974 C 3405.31 -1.88014 -0.76016 0
M  V30 34975 C 3405.64 -0.805289 -1.76717 0
M  V30 34976 O 3404.92 0.183374 -1.93634 0
M  V30 34977 C 3405.2 -3.29211 -1.45919 0
M  V30 34978 C 3405.05 -4.4736 -0.467916 0
M  V30 34979 C 3406.37 -3.68797 -2.4016 0
M  V30 34980 H 3403.49 -0.683818 -0.274884 0
M  V30 34981 H 3406.13 -1.89986 -0.0232099 0
M  V30 34982 H 3404.28 -3.27661 -2.08736 0
M  V30 34983 H 3405.96 -4.61037 0.155816 0
M  V30 34984 H 3404.2 -4.33263 0.215874 0
M  V30 34985 H 3404.87 -5.42961 -0.994847 0
M  V30 34986 H 3407.35 -3.71505 -1.87412 0
M  V30 34987 H 3406.22 -4.68462 -2.86068 0
M  V30 34988 H 3406.48 -2.9927 -3.25408 0
M  V30 34989 N 3405.54 0.333401 -1.54033 0
M  V30 34990 C 3406.79 1.07037 -1.71428 0
M  V30 34991 C 3407.11 1.88859 -0.485529 0
M  V30 34992 O 3406.38 1.89398 0.500522 0
M  V30 34993 H 3404.96 0.398162 -0.632041 0
M  V30 34994 H 3407.62 0.372219 -1.91313 0
M  V30 34995 H 3406.72 1.742 -2.58961 0
M  V30 34996 N 3407.02 1.45939 0.594952 0
M  V30 34997 C 3407.93 1.58135 1.73293 0
M  V30 34998 C 3408.95 0.465275 1.67664 0
M  V30 34999 O 3410.12 0.727717 1.87793 0
M  V30 35000 C 3407.19 1.55683 3.0978 0
M  V30 35001 C 3406.25 2.78427 3.26767 0
M  V30 35002 C 3405.48 2.76083 4.56743 0
M  V30 35003 O 3405.7 1.84129 5.39864 0
M  V30 35004 O 3404.64 3.67461 4.76714 0
M  V30 35005 H 3408.46 2.54349 1.65953 0
M  V30 35006 H 3406.05 1.28592 0.76055 0
M  V30 35007 H 3407.93 1.56968 3.91074 0
M  V30 35008 H 3406.61 0.626247 3.17584 0
M  V30 35009 H 3405.51 2.827 2.45013 0
M  V30 35010 H 3406.85 3.70654 3.23847 0
M  V30 35011 N 3408.5 -0.838547 1.3344 0
M  V30 35012 C 3409.43 -1.95548 1.19555 0
M  V30 35013 C 3410.44 -1.62308 0.126448 0
M  V30 35014 O 3411.63 -1.74476 0.376899 0
M  V30 35015 C 3408.73 -3.29045 0.811331 0
M  V30 35016 C 3407.91 -3.90417 1.97214 0
M  V30 35017 C 3406.96 -5.02269 1.56884 0
M  V30 35018 O 3405.99 -5.21399 2.28323 0
M  V30 35019 N 3407.19 -5.78561 0.474026 0
M  V30 35020 H 3409.96 -2.07995 2.15773 0
M  V30 35021 H 3407.52 -1.01429 1.26189 0
M  V30 35022 H 3409.51 -4.01298 0.523623 0
M  V30 35023 H 3408.08 -3.12542 -0.0601741 0
M  V30 35024 H 3407.3 -3.10749 2.42546 0
M  V30 35025 H 3408.59 -4.28153 2.74886 0
M  V30 35026 H 3407.99 -5.65572 -0.120206 0
M  V30 35027 H 3406.54 -6.51336 0.245991 0
M  V30 35028 N 3409.98 -1.16914 -1.05683 0
M  V30 35029 C 3411.22 -0.965866 -1.79004 0
M  V30 35030 C 3411.58 0.50056 -1.85774 0
M  V30 35031 O 3410.87 1.36668 -1.34285 0
M  V30 35032 C 3411.06 -1.5346 -3.22777 0
M  V30 35033 C 3410.89 -3.0548 -3.30018 0
M  V30 35034 C 3409.66 -3.74172 -3.39593 0
M  V30 35035 C 3411.86 -4.03122 -3.19369 0
M  V30 35036 N 3409.84 -5.13844 -3.35913 0
M  V30 35037 C 3411.21 -5.29215 -3.23003 0
M  V30 35038 C 3413.27 -3.94861 -3.03297 0
M  V30 35039 C 3411.97 -6.48007 -3.12217 0
M  V30 35040 C 3414 -5.13231 -2.9385 0
M  V30 35041 C 3413.36 -6.38207 -2.98113 0
M  V30 35042 H 3409.46 -0.407277 -0.66757 0
M  V30 35043 H 3412.04 -1.48413 -1.26022 0
M  V30 35044 H 3410.21 -1.04274 -3.74141 0
M  V30 35045 H 3411.95 -1.26846 -3.84307 0
M  V30 35046 H 3408.7 -3.2483 -3.44648 0
M  V30 35047 H 3409.13 -5.86843 -3.37557 0
M  V30 35048 H 3413.77 -2.99087 -2.98843 0
M  V30 35049 H 3411.49 -7.43997 -3.15426 0
M  V30 35050 H 3415.07 -5.08615 -2.82492 0
M  V30 35051 H 3413.95 -7.28261 -2.90869 0
M  V30 35052 N 3411.45 1.24323 -0.968589 0
M  V30 35053 C 3412.39 2.24592 -0.457286 0
M  V30 35054 C 3413.4 1.56896 0.434455 0
M  V30 35055 O 3414.59 1.76873 0.240488 0
M  V30 35056 C 3411.69 3.36993 0.359027 0
M  V30 35057 C 3410.86 4.34262 -0.523021 0
M  V30 35058 C 3409.92 5.25664 0.237436 0
M  V30 35059 O 3408.95 5.68003 -0.368935 0
M  V30 35060 N 3410.15 5.60063 1.52676 0
M  V30 35061 H 3412.91 2.69095 -1.31939 0
M  V30 35062 H 3410.47 1.38373 -0.840512 0
M  V30 35063 H 3412.47 3.95109 0.87582 0
M  V30 35064 H 3411.04 2.91768 1.12206 0
M  V30 35065 H 3410.26 3.74821 -1.22078 0
M  V30 35066 H 3411.54 4.96217 -1.12456 0
M  V30 35067 H 3410.94 5.27594 2.04111 0
M  V30 35068 H 3409.5 6.20704 1.98923 0
M  V30 35069 N 3412.93 0.73881 1.3921 0
M  V30 35070 C 3413.88 0.101331 2.30577 0
M  V30 35071 C 3414.85 -0.72559 1.49414 0
M  V30 35072 O 3416.03 -0.684768 1.78089 0
M  V30 35073 C 3413.17 -0.797102 3.35768 0
M  V30 35074 C 3412.29 0.042846 4.31979 0
M  V30 35075 C 3411.42 -0.857214 5.24238 0
M  V30 35076 C 3410.46 -0.0127425 6.12099 0
M  V30 35077 N 3409.6 -0.868944 6.96702 0
M  V30 35078 H 3414.44 0.88611 2.84521 0
M  V30 35079 H 3411.98 0.448627 1.40092 0
M  V30 35080 H 3413.93 -1.33248 3.95349 0
M  V30 35081 H 3412.56 -1.54782 2.83271 0
M  V30 35082 H 3411.62 0.695687 3.73984 0
M  V30 35083 H 3412.93 0.695637 4.93925 0
M  V30 35084 H 3412.08 -1.4603 5.88864 0
M  V30 35085 H 3410.82 -1.54378 4.62622 0
M  V30 35086 H 3409.83 0.603114 5.46482 0
M  V30 35087 H 3411.05 0.670659 6.7578 0
M  V30 35088 H 3409 -1.54073 6.3765 0
M  V30 35089 H 3408.91 -0.272719 7.55508 0
M  V30 35090 H 3410.18 -1.45747 7.65753 0
M  V30 35091 N 3414.41 -1.49895 0.486734 0
M  V30 35092 C 3415.32 -2.3262 -0.304181 0
M  V30 35093 C 3416.34 -1.43704 -0.981078 0
M  V30 35094 O 3417.51 -1.76743 -0.965608 0
M  V30 35095 C 3414.58 -3.18786 -1.36296 0
M  V30 35096 C 3413.64 -4.23538 -0.701008 0
M  V30 35097 C 3412.87 -5.05586 -1.70934 0
M  V30 35098 O 3413.09 -4.88936 -2.93765 0
M  V30 35099 O 3412.03 -5.88295 -1.27252 0
M  V30 35100 H 3415.85 -3.01407 0.372533 0
M  V30 35101 H 3413.44 -1.47322 0.248302 0
M  V30 35102 H 3415.32 -3.72206 -1.97587 0
M  V30 35103 H 3414 -2.5271 -2.02286 0
M  V30 35104 H 3412.9 -3.74068 -0.0487268 0
M  V30 35105 H 3414.24 -4.92129 -0.0837952 0
M  V30 35106 N 3415.89 -0.219968 -1.56057 0
M  V30 35107 C 3417.12 0.416461 -2.02359 0
M  V30 35108 C 3417.53 1.54005 -1.09905 0
M  V30 35109 O 3416.87 1.83424 -0.100667 0
M  V30 35110 C 3416.93 1.01065 -3.45001 0
M  V30 35111 C 3416.6 0.0227088 -4.56994 0
M  V30 35112 C 3417.59 -0.777088 -5.1406 0
M  V30 35113 C 3415.28 -0.0955864 -5.02209 0
M  V30 35114 C 3417.27 -1.6819 -6.1481 0
M  V30 35115 C 3414.96 -1.00393 -6.02797 0
M  V30 35116 C 3415.96 -1.79563 -6.58973 0
M  V30 35117 O 3415.65 -2.68871 -7.57604 0
M  V30 35118 H 3415.38 0.106344 -0.667583 0
M  V30 35119 H 3417.93 -0.333384 -2.02676 0
M  V30 35120 H 3416.16 1.80956 -3.41748 0
M  V30 35121 H 3417.85 1.55432 -3.74961 0
M  V30 35122 H 3418.62 -0.696137 -4.79978 0
M  V30 35123 H 3414.5 0.510518 -4.58165 0
M  V30 35124 H 3418.04 -2.30028 -6.58584 0
M  V30 35125 H 3413.94 -1.08591 -6.36301 0
M  V30 35126 H 3414.7 -2.62929 -7.7512 0
M  V30 35127 N 3417.37 1.57509 0.0534363 0
M  V30 35128 C 3418.3 2.07979 1.06147 0
M  V30 35129 C 3419.28 0.977072 1.39238 0
M  V30 35130 O 3420.46 1.2509 1.48547 0
M  V30 35131 C 3417.59 2.53899 2.36965 0
M  V30 35132 C 3416.55 3.68214 2.1818 0
M  V30 35133 C 3415.87 4.00254 3.54544 0
M  V30 35134 C 3417.17 4.97577 1.58791 0
M  V30 35135 H 3418.87 2.92448 0.641432 0
M  V30 35136 H 3416.41 1.40687 0.307098 0
M  V30 35137 H 3418.37 2.87823 3.07792 0
M  V30 35138 H 3417.09 1.66481 2.80983 0
M  V30 35139 H 3415.75 3.34602 1.4979 0
M  V30 35140 H 3415.4 3.09939 3.96165 0
M  V30 35141 H 3415.1 4.77238 3.42808 0
M  V30 35142 H 3416.62 4.3669 4.26772 0
M  V30 35143 H 3418.04 5.29613 2.19506 0
M  V30 35144 H 3416.43 5.79008 1.577 0
M  V30 35145 H 3417.5 4.81757 0.551169 0
M  V30 35146 N 3418.85 -0.325228 1.54208 0
M  V30 35147 C 3420.09 -1.06127 1.71993 0
M  V30 35148 C 3420.41 -1.88599 0.495538 0
M  V30 35149 O 3419.68 -1.89661 -0.490471 0
M  V30 35150 H 3418.26 -0.394805 0.634144 0
M  V30 35151 H 3420.93 -0.362068 1.91507 0
M  V30 35152 H 3420.02 -1.72824 2.59881 0
M  V30 35153 N 3420.32 -1.46252 -0.587204 0
M  V30 35154 C 3421.29 -1.56063 -1.6786 0
M  V30 35155 C 3422.29 -0.438189 -1.54714 0
M  V30 35156 O 3423.48 -0.702351 -1.59414 0
M  V30 35157 C 3420.61 -1.47664 -3.07259 0
M  V30 35158 H 3421.8 -2.53324 -1.60521 0
M  V30 35159 H 3419.35 -1.33996 -0.804667 0
M  V30 35160 H 3420.09 -0.516657 -3.20158 0
M  V30 35161 H 3419.87 -2.29097 -3.18209 0
M  V30 35162 H 3421.36 -1.57606 -3.86717 0
M  V30 35163 N 3421.8 0.831459 -1.33883 0
M  V30 35164 C 3423.05 1.58215 -1.25103 0
M  V30 35165 C 3423.36 1.94774 0.179596 0
M  V30 35166 O 3424.57 2.68692 0.389469 0
M  V30 35167 C 3423.03 2.85406 -2.19251 0
M  V30 35168 C 3422.63 2.56183 -3.67524 0
M  V30 35169 C 3424.38 3.63429 -2.19361 0
M  V30 35170 C 3422.28 3.79515 -4.53566 0
M  V30 35171 H 3421.21 0.593776 -0.4647 0
M  V30 35172 H 3423.87 0.916141 -1.58994 0
M  V30 35173 H 3422.25 3.53588 -1.78302 0
M  V30 35174 H 3423.42 1.96166 -4.1696 0
M  V30 35175 H 3421.74 1.91451 -3.69778 0
M  V30 35176 H 3424.33 4.5499 -2.80871 0
M  V30 35177 H 3424.68 3.98911 -1.19063 0
M  V30 35178 H 3425.21 3.02181 -2.58711 0
M  V30 35179 H 3421.95 3.4916 -5.54768 0
M  V30 35180 H 3421.47 4.38846 -4.0887 0
M  V30 35181 H 3423.15 4.47017 -4.67744 0
M  V30 35182 N 3423.28 1.17472 1.05062 0
M  V30 35183 C 3424.52 0.974756 1.7966 0
M  V30 35184 C 3424.88 -0.487824 1.85699 0
M  V30 35185 O 3426.08 -0.806909 2.56403 0
M  V30 35186 C 3424.36 1.59982 3.19595 0
M  V30 35187 S 3425.91 1.54623 4.10655 0
M  V30 35188 H 3422.73 0.35026 0.61874 0
M  V30 35189 H 3425.33 1.4944 1.26047 0
M  V30 35190 H 3424.04 2.65674 3.12802 0
M  V30 35191 H 3423.57 1.08003 3.78284 0
M  V30 35192 H 3425.58 0.55512 4.93085 0
M  V30 35193 N 3424.76 -1.23807 0.975168 0
M  V30 35194 C 3425.98 -1.96664 0.658639 0
M  V30 35195 C 3426.41 -1.71765 -0.766714 0
M  V30 35196 O 3425.77 -0.985914 -1.52149 0
M  V30 35197 C 3425.81 -3.47902 0.948499 0
M  V30 35198 O 3424.92 -4.12383 0.0377966 0
M  V30 35199 H 3424.26 -0.615851 0.248242 0
M  V30 35200 H 3426.79 -1.57384 1.30734 0
M  V30 35201 H 3426.8 -3.98329 0.88307 0
M  V30 35202 H 3425.47 -3.65352 1.98723 0
M  V30 35203 H 3424.05 -3.72569 0.157187 0
M  V30 35204 N 3426.24 -0.746182 -1.38816 0
M  V30 35205 C 3427.48 -0.303878 -2.02129 0
M  V30 35206 C 3427.84 1.09167 -1.57945 0
M  V30 35207 O 3429.04 1.63268 -2.13535 0
M  V30 35208 C 3427.31 -0.414441 -3.54989 0
M  V30 35209 S 3428.87 -0.0536266 -4.38767 0
M  V30 35210 H 3425.69 -0.118341 -0.701082 0
M  V30 35211 H 3428.29 -0.975167 -1.69442 0
M  V30 35212 H 3426.99 -1.43121 -3.84636 0
M  V30 35213 H 3426.53 0.274286 -3.92443 0
M  V30 35214 H 3428.54 1.15912 -4.82472 0
M  V30 35215 N 3427.71 1.49635 -0.494676 0
M  V30 35216 C 3428.94 2.06842 0.0490766 0
M  V30 35217 C 3429.36 1.35578 1.31393 0
M  V30 35218 O 3428.71 0.432166 1.77309 0
M  V30 35219 C 3428.76 3.60141 0.313108 0
M  V30 35220 O 3428.49 4.28722 -0.901596 0
M  V30 35221 C 3429.99 4.34043 0.901207 0
M  V30 35222 H 3427.21 0.670768 -0.0176304 0
M  V30 35223 H 3429.75 1.925 -0.690222 0
M  V30 35224 H 3427.91 3.74207 1.00238 0
M  V30 35225 H 3428.32 5.20324 -0.660568 0
M  V30 35226 H 3429.79 5.42199 1.03557 0
M  V30 35227 H 3430.27 3.961 1.8974 0
M  V30 35228 H 3430.88 4.24567 0.249602 0
M  V30 35229 N 3429.19 0.228241 1.55939 0
M  V30 35230 C 3430.43 -0.403407 2.0038 0
M  V30 35231 C 3430.8 -1.56473 1.11266 0
M  V30 35232 O 3432 -2.26284 1.45083 0
M  V30 35233 C 3430.27 -0.820587 3.47852 0
M  V30 35234 S 3431.83 -1.4454 4.14311 0
M  V30 35235 H 3428.64 -0.127756 0.699428 0
M  V30 35236 H 3431.25 0.339099 1.92537 0
M  V30 35237 H 3429.95 0.034203 4.10386 0
M  V30 35238 H 3429.48 -1.59574 3.59583 0
M  V30 35239 H 3431.5 -2.73449 4.14053 0
M  V30 35240 N 3430.67 -1.57536 -0.0450825 0
M  V30 35241 C 3431.92 -1.88531 -0.739081 0
M  V30 35242 C 3432.25 -0.823498 -1.76207 0
M  V30 35243 O 3431.5 0.177477 -1.94894 0
M  V30 35244 C 3431.8 -3.26249 -1.45932 0
M  V30 35245 C 3431.47 -4.47234 -0.573831 0
M  V30 35246 C 3430.13 -4.80068 -0.32989 0
M  V30 35247 C 3432.48 -5.21186 0.0385188 0
M  V30 35248 C 3429.81 -5.84252 0.535442 0
M  V30 35249 C 3432.16 -6.26287 0.891459 0
M  V30 35250 C 3430.82 -6.57606 1.14502 0
M  V30 35251 H 3430.09 -0.689883 -0.270449 0
M  V30 35252 H 3432.74 -1.915 0.000747764 0
M  V30 35253 H 3431.05 -3.19194 -2.27206 0
M  V30 35254 H 3432.74 -3.47474 -2.00156 0
M  V30 35255 H 3429.33 -4.21551 -0.774107 0
M  V30 35256 H 3433.52 -4.96111 -0.137009 0
M  V30 35257 H 3428.77 -6.06901 0.74036 0
M  V30 35258 H 3432.95 -6.8274 1.37255 0
M  V30 35259 H 3430.57 -7.38159 1.81728 0
M  V30 35260 N 3432.15 0.317045 -1.54378 0
M  V30 35261 C 3433.4 1.05213 -1.72553 0
M  V30 35262 C 3433.72 1.88333 -0.505533 0
M  V30 35263 O 3432.99 1.89918 0.480405 0
M  V30 35264 H 3431.57 0.391436 -0.636229 0
M  V30 35265 H 3434.23 0.351906 -1.91697 0
M  V30 35266 H 3433.33 1.71444 -2.60794 0
M  V30 35267 N 3433.63 1.46561 0.57944 0
M  V30 35268 C 3434.87 1.5174 1.33489 0
M  V30 35269 C 3435.2 0.17196 1.9424 0
M  V30 35270 O 3434.47 -0.801843 1.78738 0
M  V30 35271 H 3433.05 0.558883 0.49564 0
M  V30 35272 H 3435.71 1.82714 0.678362 0
M  V30 35273 H 3434.8 2.27187 2.13992 0
M  V30 35274 N 3435.1 -0.824347 1.34322 0
M  V30 35275 C 3436.04 -1.94269 1.21623 0
M  V30 35276 C 3437.05 -1.62165 0.143656 0
M  V30 35277 O 3438.24 -1.74066 0.395383 0
M  V30 35278 C 3435.34 -3.28166 0.846185 0
M  V30 35279 C 3434.51 -3.88303 2.01344 0
M  V30 35280 C 3433.57 -5.00576 1.62203 0
M  V30 35281 O 3432.6 -5.18948 2.3384 0
M  V30 35282 N 3433.8 -5.78026 0.535363 0
M  V30 35283 H 3436.56 -2.05695 2.17967 0
M  V30 35284 H 3434.12 -1.00085 1.27258 0
M  V30 35285 H 3436.12 -4.0072 0.566157 0
M  V30 35286 H 3434.69 -3.12588 -0.0270215 0
M  V30 35287 H 3433.91 -3.08159 2.45828 0
M  V30 35288 H 3435.19 -4.25214 2.79411 0
M  V30 35289 H 3434.59 -5.65668 -0.0602132 0
M  V30 35290 H 3433.15 -6.51038 0.31506 0
M  V30 35291 N 3436.58 -1.18028 -1.04437 0
M  V30 35292 C 3438 -0.929165 -1.29764 0
M  V30 35293 C 3438.2 0.407402 -1.97339 0
M  V30 35294 O 3437.25 1.14261 -2.25168 0
M  V30 35295 C 3438.57 -2.09201 -2.15999 0
M  V30 35296 C 3440.12 -2.12989 -2.29357 0
M  V30 35297 C 3440.59 -3.28681 -3.18956 0
M  V30 35298 N 3442.08 -3.28518 -3.26543 0
M  V30 35299 C 3442.82 -4.14678 -3.96017 0
M  V30 35300 N 3442.31 -5.10964 -4.67854 0
M  V30 35301 N 3444.11 -4.02604 -3.92259 0
M  V30 35302 H 3436.26 -2.04047 -0.589804 0
M  V30 35303 H 3438.52 -0.891373 -0.322737 0
M  V30 35304 H 3438.23 -3.05842 -1.73648 0
M  V30 35305 H 3438.1 -2.04948 -3.16664 0
M  V30 35306 H 3440.49 -1.16929 -2.70946 0
M  V30 35307 H 3440.57 -2.21301 -1.28295 0
M  V30 35308 H 3440.21 -4.25011 -2.7808 0
M  V30 35309 H 3440.14 -3.17605 -4.20041 0
M  V30 35310 H 3442.63 -2.58809 -2.75366 0
M  V30 35311 H 3442.95 -5.73088 -5.1845 0
M  V30 35312 H 3441.29 -5.14927 -4.66771 0
M  V30 35313 H 3444.48 -3.26671 -3.35267 0
M  V30 35314 H 3444.65 -4.69969 -4.46132 0
M  V30 35315 N 3438.06 1.23288 -0.98172 0
M  V30 35316 C 3439.31 1.9136 -0.650049 0
M  V30 35317 C 3439.63 1.7696 0.819153 0
M  V30 35318 O 3438.9 1.1498 1.58608 0
M  V30 35319 H 3437.48 0.70826 -0.237439 0
M  V30 35320 H 3440.14 1.49885 -1.24582 0
M  V30 35321 H 3439.24 2.98757 -0.902824 0
M  V30 35322 N 3439.54 0.753533 1.38418 0
M  V30 35323 C 3440.78 0.319082 2.00882 0
M  V30 35324 C 3441.14 -1.08713 1.58743 0
M  V30 35325 O 3440.43 -1.73406 0.814923 0
M  V30 35326 C 3440.63 0.38 3.55374 0
M  V30 35327 C 3440.46 1.79059 4.12514 0
M  V30 35328 C 3439.23 2.40711 4.44282 0
M  V30 35329 C 3441.42 2.74723 4.34778 0
M  V30 35330 N 3439.41 3.73731 4.8703 0
M  V30 35331 C 3440.78 3.92509 4.79934 0
M  V30 35332 C 3442.83 2.72246 4.16877 0
M  V30 35333 C 3441.53 5.08177 5.09066 0
M  V30 35334 C 3443.56 3.87073 4.47134 0
M  V30 35335 C 3442.92 5.03597 4.92513 0
M  V30 35336 H 3439.02 0.163417 0.764735 0
M  V30 35337 H 3441.61 0.983475 1.68035 0
M  V30 35338 H 3439.78 -0.254124 3.87568 0
M  V30 35339 H 3441.51 -0.074765 4.04631 0
M  V30 35340 H 3438.26 1.92477 4.32723 0
M  V30 35341 H 3438.69 4.42074 5.12738 0
M  V30 35342 H 3443.33 1.83342 3.8098 0
M  V30 35343 H 3441.05 5.97697 5.4386 0
M  V30 35344 H 3444.63 3.86476 4.34888 0
M  V30 35345 H 3443.51 5.90975 5.15479 0
M  V30 35346 N 3441.02 -1.49371 0.502605 0
M  V30 35347 C 3442.43 -1.58809 0.158669 0
M  V30 35348 C 3442.63 -1.50767 -1.33685 0
M  V30 35349 O 3441.69 -1.38245 -2.11293 0
M  V30 35350 C 3443 -2.91531 0.736894 0
M  V30 35351 C 3444.55 -3.05 0.703146 0
M  V30 35352 C 3445.02 -4.40343 1.25946 0
M  V30 35353 N 3446.52 -4.46838 1.22023 0
M  V30 35354 C 3447.25 -5.50014 1.62086 0
M  V30 35355 N 3446.75 -6.60286 2.09748 0
M  V30 35356 N 3448.54 -5.40737 1.53492 0
M  V30 35357 H 3440.69 -1.52841 1.4749 0
M  V30 35358 H 3442.95 -0.724104 0.611864 0
M  V30 35359 H 3442.66 -3.02989 1.78579 0
M  V30 35360 H 3442.53 -3.76679 0.198244 0
M  V30 35361 H 3444.92 -2.9317 -0.336914 0
M  V30 35362 H 3445 -2.21532 1.27896 0
M  V30 35363 H 3444.65 -4.52924 2.29831 0
M  V30 35364 H 3444.58 -5.22453 0.659573 0
M  V30 35365 H 3447.07 -3.67725 0.871021 0
M  V30 35366 H 3447.38 -7.35114 2.38383 0
M  V30 35367 H 3445.72 -6.61322 2.13723 0
M  V30 35368 H 3448.92 -4.53481 1.16073 0
M  V30 35369 H 3449.09 -6.2102 1.85037 0
M  V30 35370 N 3442.49 -0.236508 -1.55815 0
M  V30 35371 C 3443.73 0.392775 -2.00591 0
M  V30 35372 C 3444.1 1.55881 -1.12095 0
M  V30 35373 O 3445.3 2.25511 -1.46281 0
M  V30 35374 C 3443.57 0.802129 -3.48282 0
M  V30 35375 S 3445.13 1.42341 -4.15072 0
M  V30 35376 H 3441.95 0.124045 -0.700096 0
M  V30 35377 H 3444.55 -0.349305 -1.92354 0
M  V30 35378 H 3443.25 -0.0559662 -4.10362 0
M  V30 35379 H 3442.78 1.57665 -3.60424 0
M  V30 35380 H 3444.8 2.71249 -4.15497 0
M  V30 35381 N 3443.97 1.57557 0.0367273 0
M  V30 35382 C 3445.25 1.8006 0.764055 0
M  V30 35383 C 3445.63 0.832724 1.93982 0
M  V30 35384 O 3444.98 -0.126775 2.28148 0
M  V30 35385 C 3445.19 3.27564 1.20427 0
M  V30 35386 C 3446.54 3.92343 1.62333 0
M  V30 35387 O 3447.56 3.31667 1.29905 0
M  V30 35388 O 3446.42 4.99158 2.22495 0
M  V30 35389 H 3443.51 0.740187 0.368853 0
M  V30 35390 H 3446.06 1.69694 0.0140956 0
M  V30 35391 H 3444.83 3.89598 0.364578 0
M  V30 35392 H 3444.45 3.42789 2.01448 0
M  V30 35393 N 3445.45 -0.308854 1.54544 0
M  V30 35394 C 3446.4 -1.40071 1.85696 0
M  V30 35395 C 3447.39 -1.52862 0.730031 0
M  V30 35396 O 3448.6 -1.55073 0.913912 0
M  V30 35397 H 3444.97 -0.467718 0.58885 0
M  V30 35398 H 3446.95 -1.11029 2.76975 0
M  V30 35399 C 3445.69 -2.7605 2.11404 0
M  V30 35400 H 3445.02 -2.66987 2.97587 0
M  V30 35401 H 3446.46 -3.5148 2.37145 0
M  V30 35402 C 3444.92 -3.24374 0.910127 0
M  V30 35403 O 3445.45 -4.015 0.126701 0
M  V30 35404 N 3443.65 -2.81599 0.717679 0
M  V30 35405 H 3443.2 -2.18996 1.35641 0
M  V30 35406 H 3443.16 -3.14282 -0.0863033 0
M  V30 35407 N 3446.93 -1.46867 -0.571659 0
M  V30 35408 C 3448.17 -1.54315 -1.34038 0
M  V30 35409 C 3448.53 -0.194742 -1.9101 0
M  V30 35410 O 3449.73 -0.144015 -2.68414 0
M  V30 35411 C 3448.01 -2.61945 -2.43145 0
M  V30 35412 S 3449.56 -2.88877 -3.30296 0
M  V30 35413 H 3446.38 -0.545086 -0.456511 0
M  V30 35414 H 3448.98 -1.84165 -0.656009 0
M  V30 35415 H 3447.69 -3.58536 -1.99701 0
M  V30 35416 H 3447.22 -2.33863 -3.16341 0
M  V30 35417 H 3449.23 -2.24989 -4.42261 0
M  V30 35418 N 3448.41 0.817212 -1.34757 0
M  V30 35419 C 3449.82 1.11119 -1.14563 0
M  V30 35420 C 3450.02 2.0144 0.0490422 0
M  V30 35421 O 3449.08 2.41932 0.722854 0
M  V30 35422 C 3450.39 1.7524 -2.44359 0
M  V30 35423 C 3451.94 1.87709 -2.50468 0
M  V30 35424 C 3452.42 2.55246 -3.80281 0
M  V30 35425 N 3453.91 2.6274 -3.81473 0
M  V30 35426 C 3454.64 3.1574 -4.78639 0
M  V30 35427 N 3454.14 3.69259 -5.8619 0
M  V30 35428 N 3455.93 3.14194 -4.66088 0
M  V30 35429 H 3448.08 0.216563 -2.11293 0
M  V30 35430 H 3450.34 0.158644 -0.934631 0
M  V30 35431 H 3450.05 1.16338 -3.31901 0
M  V30 35432 H 3449.92 2.7505 -2.58122 0
M  V30 35433 H 3452.31 2.45758 -1.63362 0
M  V30 35434 H 3452.39 0.867844 -2.40629 0
M  V30 35435 H 3452.04 1.9785 -4.6778 0
M  V30 35436 H 3451.97 3.56686 -3.87405 0
M  V30 35437 H 3454.46 2.24812 -3.03757 0
M  V30 35438 H 3454.77 4.07968 -6.5634 0
M  V30 35439 H 3453.12 3.67487 -5.89897 0
M  V30 35440 H 3456.31 2.71654 -3.81211 0
M  V30 35441 H 3456.48 3.55194 -5.41979 0
M  V30 35442 N 3449.89 1.1858 1.0381 0
M  V30 35443 C 3451.3 0.936034 1.29269 0
M  V30 35444 C 3451.5 -0.396931 1.97552 0
M  V30 35445 O 3450.56 -1.13065 2.25771 0
M  V30 35446 C 3451.87 2.10343 2.14886 0
M  V30 35447 C 3453.42 2.14202 2.28224 0
M  V30 35448 C 3453.89 3.30367 3.17209 0
M  V30 35449 N 3455.38 3.30245 3.24796 0
M  V30 35450 C 3456.12 4.16772 3.93813 0
M  V30 35451 N 3455.62 5.13438 4.65138 0
M  V30 35452 N 3457.41 4.04678 3.90118 0
M  V30 35453 H 3449.56 2.04357 0.578975 0
M  V30 35454 H 3451.82 0.893072 0.318005 0
M  V30 35455 H 3451.53 3.06758 1.72024 0
M  V30 35456 H 3451.4 2.06625 3.15573 0
M  V30 35457 H 3453.79 1.18364 2.70322 0
M  V30 35458 H 3453.87 2.21978 1.2712 0
M  V30 35459 H 3453.51 4.26479 2.75822 0
M  V30 35460 H 3453.44 3.19828 4.18351 0
M  V30 35461 H 3455.94 2.60265 2.7399 0
M  V30 35462 H 3456.25 5.75829 5.15403 0
M  V30 35463 H 3454.59 5.17395 4.64034 0
M  V30 35464 H 3457.78 3.28444 3.3353 0
M  V30 35465 H 3457.96 4.72328 4.43633 0
M  V30 35466 N 3451.36 -1.22766 0.988245 0
M  V30 35467 C 3452.77 -1.73189 0.697311 0
M  V30 35468 C 3453.13 -1.79764 -0.786079 0
M  V30 35469 O 3452.25 -1.4408 -1.61462 0
M  V30 35470 C 3452.85 -3.14535 1.25911 0
M  V30 35471 C 3451.4 -3.62382 1.01765 0
M  V30 35472 C 3450.55 -2.40402 1.38211 0
M  V30 35473 H 3453.5 -1.08179 1.16116 0
M  V30 35474 H 3453.52 -3.75158 0.635381 0
M  V30 35475 H 3453.04 -3.09717 2.33874 0
M  V30 35476 H 3451.14 -3.72572 -0.0455615 0
M  V30 35477 H 3451.25 -4.48763 1.67775 0
M  V30 35478 H 3449.61 -2.41789 0.800649 0
M  V30 35479 H 3450.4 -2.38249 2.47169 0
M  V30 35480 N 3452.84 -0.760864 -1.38017 0
M  V30 35481 C 3454.09 -0.319644 -1.99556 0
M  V30 35482 C 3454.41 1.10455 -1.60701 0
M  V30 35483 O 3453.68 1.75656 -0.867279 0
M  V30 35484 H 3452.26 -0.115195 -0.738064 0
M  V30 35485 H 3454.92 -0.976574 -1.68668 0
M  V30 35486 H 3454.02 -0.388577 -3.09672 0
M  V30 35487 N 3454.32 1.49102 -0.510519 0
M  V30 35488 C 3455.57 2.02077 0.0305475 0
M  V30 35489 C 3455.89 1.3916 1.366 0
M  V30 35490 O 3455.16 0.550187 1.88015 0
M  V30 35491 H 3453.74 0.746864 0.0142785 0
M  V30 35492 H 3456.4 1.83025 -0.669927 0
M  V30 35493 H 3455.5 3.11724 0.153228 0
M  V30 35494 N 3455.8 0.244768 1.55688 0
M  V30 35495 C 3456.71 -0.66648 2.24934 0
M  V30 35496 C 3457.72 -1.19501 1.26473 0
M  V30 35497 O 3458.9 -1.23173 1.59344 0
M  V30 35498 C 3455.96 -1.84767 2.93363 0
M  V30 35499 C 3455.03 -1.35882 4.07228 0
M  V30 35500 C 3454.26 -2.48371 4.72385 0
M  V30 35501 O 3454.48 -3.67051 4.36611 0
M  V30 35502 O 3453.42 -2.18251 5.60937 0
M  V30 35503 H 3457.24 -0.106453 3.03513 0
M  V30 35504 H 3454.83 0.0133572 1.49394 0
M  V30 35505 H 3456.71 -2.53702 3.36472 0
M  V30 35506 H 3455.38 -2.39536 2.17725 0
M  V30 35507 H 3454.29 -0.636817 3.6864 0
M  V30 35508 H 3455.62 -0.857248 4.84677 0
M  V30 35509 N 3457.28 -1.57574 -0.0283712 0
M  V30 35510 C 3458.69 -1.77629 -0.574881 0
M  V30 35511 C 3459.04 -0.875934 -1.75562 0
M  V30 35512 O 3458.16 -0.0709521 -2.16284 0
M  V30 35513 C 3458.76 -3.22129 -1.04967 0
M  V30 35514 C 3457.32 -3.43379 -1.54169 0
M  V30 35515 C 3456.46 -2.73113 -0.480079 0
M  V30 35516 H 3459.41 -1.57462 0.197854 0
M  V30 35517 H 3459.44 -3.28682 -1.91699 0
M  V30 35518 H 3458.95 -3.87634 -0.190104 0
M  V30 35519 H 3457.05 -2.8305 -2.42308 0
M  V30 35520 H 3457.16 -4.51992 -1.58871 0
M  V30 35521 H 3455.53 -2.36907 -0.935273 0
M  V30 35522 H 3456.31 -3.413 0.370033 0
M  V30 35523 N 3458.75 0.300654 -1.54706 0
M  V30 35524 C 3459.98 1.0591 -1.7832 0
M  V30 35525 C 3460.4 1.80146 -0.541209 0
M  V30 35526 O 3459.76 1.7403 0.50826 0
M  V30 35527 C 3459.81 2.01506 -2.99045 0
M  V30 35528 O 3458.91 3.09814 -2.72194 0
M  V30 35529 H 3458.25 0.304232 -0.590203 0
M  V30 35530 H 3460.78 0.337971 -2.01789 0
M  V30 35531 H 3460.79 2.43965 -3.27024 0
M  V30 35532 H 3459.47 1.46879 -3.89101 0
M  V30 35533 H 3458.05 2.71866 -2.55232 0
M  V30 35534 N 3460.23 1.47168 0.563863 0
M  V30 35535 C 3461.64 1.4739 1.146 0
M  V30 35536 C 3461.99 0.22495 1.94906 0
M  V30 35537 O 3461.12 -0.670636 2.05746 0
M  V30 35538 C 3461.71 2.67048 2.08497 0
M  V30 35539 C 3460.27 2.7025 2.61996 0
M  V30 35540 C 3459.42 2.40385 1.3824 0
M  V30 35541 H 3462.37 1.54774 0.350805 0
M  V30 35542 H 3462.39 2.43639 2.92267 0
M  V30 35543 H 3461.9 3.57932 1.50021 0
M  V30 35544 H 3460.01 1.83488 3.24288 0
M  V30 35545 H 3460.12 3.70754 3.03444 0
M  V30 35546 H 3458.48 1.9083 1.68689 0
M  V30 35547 H 3459.27 3.33469 0.815667 0
M  V30 35548 N 3461.71 -0.810054 1.35188 0
M  V30 35549 C 3462.62 -1.95334 1.2993 0
M  V30 35550 C 3463.64 -1.72791 0.204779 0
M  V30 35551 O 3464.81 -1.96678 0.433542 0
M  V30 35552 C 3461.88 -3.29859 1.06741 0
M  V30 35553 C 3460.94 -3.65322 2.25473 0
M  V30 35554 C 3460.17 -4.93428 2.03381 0
M  V30 35555 O 3460.39 -5.61592 0.998518 0
M  V30 35556 O 3459.33 -5.27069 2.90657 0
M  V30 35557 H 3463.15 -2.02717 2.2614 0
M  V30 35558 H 3460.74 -0.947334 1.15525 0
M  V30 35559 H 3462.62 -4.10402 0.956439 0
M  V30 35560 H 3461.3 -3.23415 0.135792 0
M  V30 35561 H 3460.2 -2.8517 2.42134 0
M  V30 35562 H 3461.54 -3.76467 3.1707 0
M  V30 35563 N 3463.19 -1.19129 -1.0318 0
M  V30 35564 C 3464.44 -0.990165 -1.76182 0
M  V30 35565 C 3464.76 0.480513 -1.88987 0
M  V30 35566 O 3464.03 1.34815 -1.42133 0
M  V30 35567 H 3462.61 -0.363376 -0.652661 0
M  V30 35568 H 3465.27 -1.49971 -1.24478 0
M  V30 35569 H 3464.37 -1.43572 -2.77116 0
M  V30 35570 N 3464.67 1.2224 -0.994741 0
M  V30 35571 C 3465.89 1.95051 -0.690131 0
M  V30 35572 C 3466.31 1.73458 0.745512 0
M  V30 35573 O 3465.67 1.03479 1.50327 0
M  V30 35574 C 3465.72 3.47712 -0.988859 0
M  V30 35575 O 3465.44 3.68582 -2.36809 0
M  V30 35576 C 3466.94 4.37703 -0.702209 0
M  V30 35577 H 3464.16 0.620595 -0.255153 0
M  V30 35578 H 3466.7 1.55341 -1.33001 0
M  V30 35579 H 3464.86 3.85384 -0.394752 0
M  V30 35580 H 3465.27 4.62765 -2.46878 0
M  V30 35581 H 3466.75 5.43562 -0.961484 0
M  V30 35582 H 3467.22 4.37691 0.363789 0
M  V30 35583 H 3467.83 4.05662 -1.27745 0
M  V30 35584 N 3466.14 0.768172 1.37611 0
M  V30 35585 C 3467.37 0.342147 2.04051 0
M  V30 35586 C 3467.79 -1.03446 1.57938 0
M  V30 35587 O 3467.14 -1.65968 0.75901 0
M  V30 35588 C 3467.2 0.372159 3.59579 0
M  V30 35589 O 3466.92 1.69446 4.04005 0
M  V30 35590 C 3468.42 -0.0659105 4.43251 0
M  V30 35591 H 3465.64 0.143898 0.655389 0
M  V30 35592 H 3468.18 1.0411 1.76015 0
M  V30 35593 H 3466.34 -0.27818 3.864 0
M  V30 35594 H 3466.75 1.63063 4.98509 0
M  V30 35595 H 3468.22 0.00624478 5.52 0
M  V30 35596 H 3468.7 -1.1158 4.2479 0
M  V30 35597 H 3469.31 0.556104 4.21649 0
M  V30 35598 N 3467.62 -1.48829 0.518419 0
M  V30 35599 C 3468.87 -2.0209 -0.0198305 0
M  V30 35600 C 3469.19 -1.39882 -1.3586 0
M  V30 35601 O 3468.46 -0.56015 -1.87721 0
M  V30 35602 H 3467.04 -0.746929 -0.0103175 0
M  V30 35603 H 3469.7 -1.82667 0.679624 0
M  V30 35604 H 3468.8 -3.11801 -0.136695 0
M  V30 35605 N 3469.1 -0.253021 -1.55556 0
M  V30 35606 C 3470.03 0.676798 -2.1898 0
M  V30 35607 C 3471.05 1.13419 -1.1679 0
M  V30 35608 O 3472.23 1.05991 -1.43625 0
M  V30 35609 C 3469.33 1.93243 -2.78407 0
M  V30 35610 C 3468.51 1.62548 -4.06075 0
M  V30 35611 C 3467.57 2.73132 -4.49762 0
M  V30 35612 O 3466.59 2.40257 -5.16009 0
M  V30 35613 N 3467.79 4.02752 -4.18056 0
M  V30 35614 H 3470.56 0.134089 -2.994 0
M  V30 35615 H 3468.12 -0.073225 -1.61734 0
M  V30 35616 H 3470.11 2.66474 -3.04587 0
M  V30 35617 H 3468.68 2.38476 -2.02108 0
M  V30 35618 H 3467.9 0.728047 -3.87419 0
M  V30 35619 H 3469.19 1.39512 -4.89299 0
M  V30 35620 H 3468.59 4.32292 -3.64884 0
M  V30 35621 H 3467.15 4.7243 -4.49058 0
M  V30 35622 N 3470.58 1.57587 0.0200142 0
M  V30 35623 C 3471.8 1.94345 0.724207 0
M  V30 35624 C 3472.23 0.853718 1.6761 0
M  V30 35625 O 3471.59 -0.189841 1.80303 0
M  V30 35626 C 3471.63 3.3018 1.44961 0
M  V30 35627 O 3470.74 3.23069 2.56321 0
M  V30 35628 H 3470.08 0.634988 0.194131 0
M  V30 35629 H 3472.61 2.04582 -0.0272116 0
M  V30 35630 H 3472.62 3.65281 1.81752 0
M  V30 35631 H 3471.29 4.09053 0.751538 0
M  V30 35632 H 3469.87 2.99613 2.22006 0
M  V30 35633 N 3472.06 -0.292445 1.54863 0
M  V30 35634 C 3473.29 -1.0438 1.78293 0
M  V30 35635 C 3473.69 -1.81128 0.546735 0
M  V30 35636 O 3473.04 -1.76954 -0.493255 0
M  V30 35637 C 3473.1 -2.0643 2.94325 0
M  V30 35638 C 3472.76 -1.48798 4.32097 0
M  V30 35639 C 3473.76 -0.9136 5.1181 0
M  V30 35640 C 3471.45 -1.52103 4.78717 0
M  V30 35641 C 3473.44 -0.379942 6.36267 0
M  V30 35642 C 3471.13 -0.983507 6.03134 0
M  V30 35643 C 3472.12 -0.413941 6.81744 0
M  V30 35644 O 3471.81 0.115409 8.03817 0
M  V30 35645 H 3471.54 -0.314944 0.598153 0
M  V30 35646 H 3474.1 -0.334625 2.02656 0
M  V30 35647 H 3472.33 -2.81051 2.65607 0
M  V30 35648 H 3474.02 -2.67535 3.05253 0
M  V30 35649 H 3474.78 -0.880904 4.76933 0
M  V30 35650 H 3470.66 -1.95375 4.17552 0
M  V30 35651 H 3474.21 0.0652707 6.97569 0
M  V30 35652 H 3470.1 -1.01338 6.37496 0
M  V30 35653 H 3470.87 0.00291883 8.185 0
M  V30 35654 N 3473.53 -1.47465 -0.55605 0
M  V30 35655 C 3474.48 -1.60447 -1.68403 0
M  V30 35656 C 3475.48 -0.471742 -1.62699 0
M  V30 35657 O 3476.68 -0.649581 -1.6787 0
M  V30 35658 H 3473.06 -0.504956 -0.557247 0
M  V30 35659 H 3475.03 -2.55234 -1.54591 0
M  V30 35660 C 3473.78 -1.63701 -3.06753 0
M  V30 35661 H 3473.1 -2.50211 -3.11824 0
M  V30 35662 H 3474.54 -1.76834 -3.85364 0
M  V30 35663 C 3473 -0.370544 -3.34856 0
M  V30 35664 O 3473.53 0.527872 -3.98217 0
M  V30 35665 N 3471.74 -0.250214 -2.89521 0
M  V30 35666 H 3471.28 -0.982246 -2.38138 0
M  V30 35667 H 3471.24 0.596214 -3.08695 0
M  V30 35668 N 3475.01 0.802873 -1.35616 0
M  V30 35669 C 3475.95 1.9231 -1.24698 0
M  V30 35670 C 3476.96 1.61916 -0.169437 0
M  V30 35671 O 3478.15 1.73415 -0.423026 0
M  V30 35672 C 3475.25 3.26778 -0.898287 0
M  V30 35673 C 3474.42 3.85051 -2.07496 0
M  V30 35674 C 3473.48 4.97933 -1.70146 0
M  V30 35675 O 3472.51 5.15163 -2.42066 0
M  V30 35676 N 3473.71 5.77101 -0.627255 0
M  V30 35677 H 3476.47 2.02202 -2.21212 0
M  V30 35678 H 3474.03 0.980481 -1.28834 0
M  V30 35679 H 3476.03 3.99769 -0.629836 0
M  V30 35680 H 3474.6 3.12592 -0.022712 0
M  V30 35681 H 3473.82 3.04209 -2.507 0
M  V30 35682 H 3475.1 4.20715 -2.86141 0
M  V30 35683 H 3474.5 5.65692 -0.0297873 0
M  V30 35684 H 3473.06 6.50454 -0.418595 0
M  V30 35685 N 3476.49 1.19674 1.02547 0
M  V30 35686 C 3477.72 1.02534 1.79361 0
M  V30 35687 C 3478.13 -0.428898 1.84275 0
M  V30 35688 O 3477.47 -1.30967 1.28816 0
M  V30 35689 C 3477.53 1.52254 3.25667 0
M  V30 35690 C 3477.2 3.00418 3.44381 0
M  V30 35691 C 3478.2 3.98152 3.34322 0
M  V30 35692 C 3475.88 3.39185 3.70485 0
M  V30 35693 C 3477.87 5.32646 3.50096 0
M  V30 35694 C 3475.56 4.73837 3.85904 0
M  V30 35695 C 3476.56 5.70376 3.75713 0
M  V30 35696 O 3476.25 7.02588 3.90672 0
M  V30 35697 H 3475.98 0.361554 0.571187 0
M  V30 35698 H 3478.53 1.59004 1.30026 0
M  V30 35699 H 3476.76 0.901614 3.76042 0
M  V30 35700 H 3478.45 1.31269 3.84088 0
M  V30 35701 H 3479.22 3.69547 3.14102 0
M  V30 35702 H 3475.1 2.64591 3.77508 0
M  V30 35703 H 3478.64 6.07982 3.42058 0
M  V30 35704 H 3474.54 5.02136 4.05622 0
M  V30 35705 H 3475.31 7.0971 4.07743 0
M  V30 35706 N 3477.97 -1.21711 1.00121 0
M  V30 35707 C 3479.19 -1.95223 0.700206 0
M  V30 35708 C 3479.62 -1.73352 -0.730107 0
M  V30 35709 O 3478.98 -1.01797 -1.50024 0
M  V30 35710 C 3479.03 -3.45812 1.02208 0
M  V30 35711 O 3478.13 -4.1221 0.125261 0
M  V30 35712 H 3477.47 -0.610447 0.261249 0
M  V30 35713 H 3480 -1.54575 1.34043 0
M  V30 35714 H 3480.01 -3.96366 0.967362 0
M  V30 35715 H 3478.69 -3.61054 2.06428 0
M  V30 35716 H 3477.26 -3.72151 0.236179 0
M  V30 35717 N 3479.45 -0.775459 -1.37202 0
M  V30 35718 C 3480.38 -0.122414 -2.28873 0
M  V30 35719 C 3481.39 0.660213 -1.48812 0
M  V30 35720 O 3482.58 0.497694 -1.71421 0
M  V30 35721 C 3479.68 0.850154 -3.28063 0
M  V30 35722 C 3478.85 0.120556 -4.37234 0
M  V30 35723 C 3477.91 1.00703 -5.16474 0
M  V30 35724 O 3476.94 0.469429 -5.67261 0
M  V30 35725 N 3478.14 2.33289 -5.3156 0
M  V30 35726 H 3480.91 -0.909792 -2.85557 0
M  V30 35727 H 3478.47 -0.628133 -1.49218 0
M  V30 35728 H 3480.46 1.44671 -3.77958 0
M  V30 35729 H 3479.03 1.53848 -2.7212 0
M  V30 35730 H 3478.25 -0.656947 -3.88687 0
M  V30 35731 H 3479.54 -0.383447 -5.07353 0
M  V30 35732 H 3478.94 2.79397 -4.91888 0
M  V30 35733 H 3477.49 2.87943 -5.8475 0
M  V30 35734 N 3480.93 1.48552 -0.526305 0
M  V30 35735 C 3482.34 1.58537 -0.183914 0
M  V30 35736 C 3482.54 1.52874 1.31269 0
M  V30 35737 O 3481.6 1.41589 2.09067 0
M  V30 35738 C 3482.91 2.90322 -0.783181 0
M  V30 35739 C 3484.46 3.03843 -0.75158 0
M  V30 35740 C 3484.93 4.38283 -1.32936 0
M  V30 35741 N 3486.42 4.44841 -1.29116 0
M  V30 35742 C 3487.16 5.47366 -1.70815 0
M  V30 35743 N 3486.66 6.56866 -2.20226 0
M  V30 35744 N 3488.45 5.38227 -1.62075 0
M  V30 35745 H 3480.6 1.50476 -1.49903 0
M  V30 35746 H 3482.86 0.714278 -0.623306 0
M  V30 35747 H 3482.57 3.0011 -1.83376 0
M  V30 35748 H 3482.44 3.76316 -0.258146 0
M  V30 35749 H 3484.83 2.93669 0.29023 0
M  V30 35750 H 3484.91 2.19469 -1.31404 0
M  V30 35751 H 3484.55 4.4921 -2.37008 0
M  V30 35752 H 3484.48 5.21338 -0.742607 0
M  V30 35753 H 3486.98 3.66293 -0.929413 0
M  V30 35754 H 3487.29 7.31229 -2.50048 0
M  V30 35755 H 3485.63 6.57839 -2.24217 0
M  V30 35756 H 3488.82 4.51577 -1.23273 0
M  V30 35757 H 3489 6.17997 -1.94893 0
M  V30 35758 N 3482.4 0.261267 1.55419 0
M  V30 35759 C 3483.63 -0.362663 2.03392 0
M  V30 35760 C 3484.04 -1.51037 1.1395 0
M  V30 35761 O 3483.38 -1.83093 0.149263 0
M  V30 35762 C 3483.45 -0.918828 3.4756 0
M  V30 35763 C 3483.11 0.0984632 4.56894 0
M  V30 35764 C 3484.11 0.913108 5.11819 0
M  V30 35765 C 3481.79 0.228705 5.01779 0
M  V30 35766 C 3483.79 1.84431 6.10134 0
M  V30 35767 C 3481.47 1.1634 5.99924 0
M  V30 35768 C 3482.47 1.96972 6.53981 0
M  V30 35769 O 3482.16 2.88863 7.50209 0
M  V30 35770 H 3481.89 -0.0886064 0.670168 0
M  V30 35771 H 3484.45 0.387003 2.01721 0
M  V30 35772 H 3482.68 -1.71832 3.46426 0
M  V30 35773 H 3484.36 -1.45436 3.7895 0
M  V30 35774 H 3485.13 0.82315 4.77964 0
M  V30 35775 H 3481.01 -0.388865 4.59357 0
M  V30 35776 H 3484.55 2.47409 6.52254 0
M  V30 35777 H 3480.45 1.25423 6.33198 0
M  V30 35778 H 3481.22 2.83387 7.67876 0
M  V30 35779 N 3483.88 -1.57596 -0.0116567 0
M  V30 35780 C 3484.83 -2.04158 -1.01505 0
M  V30 35781 C 3485.82 -0.9341 -1.31009 0
M  V30 35782 O 3487.01 -1.19793 -1.30302 0
M  V30 35783 C 3484.14 -2.53887 -2.31076 0
M  V30 35784 C 3483.22 -3.7149 -2.04587 0
M  V30 35785 N 3483.61 -4.83597 -1.48216 0
M  V30 35786 C 3481.91 -3.79197 -2.34788 0
M  V30 35787 C 3482.61 -5.65111 -1.37931 0
M  V30 35788 N 3481.59 -5.10755 -1.86091 0
M  V30 35789 H 3485.39 -2.8825 -0.573506 0
M  V30 35790 H 3482.9 -1.60936 -0.217603 0
M  V30 35791 H 3484.9 -2.85515 -3.03788 0
M  V30 35792 H 3483.56 -1.71209 -2.75894 0
M  V30 35793 H 3484.57 -5.04684 -1.16252 0
M  V30 35794 H 3481.25 -3.07353 -2.82561 0
M  V30 35795 H 3482.64 -6.65195 -0.94688 0
M  V30 35796 N 3485.36 0.284228 -1.55016 0
M  V30 35797 C 3486.29 1.37307 -1.8352 0
M  V30 35798 C 3487.3 1.46061 -0.719034 0
M  V30 35799 O 3488.49 1.48079 -0.996745 0
M  V30 35800 C 3485.59 2.75536 -1.97314 0
M  V30 35801 C 3484.77 2.89512 -3.27875 0
M  V30 35802 C 3483.83 4.08345 -3.31875 0
M  V30 35803 O 3482.85 3.99634 -4.05316 0
M  V30 35804 N 3484.05 5.19783 -2.58469 0
M  V30 35805 H 3486.82 1.13205 -2.77497 0
M  V30 35806 H 3484.38 0.474332 -1.54796 0
M  V30 35807 H 3486.37 3.53307 -1.97373 0
M  V30 35808 H 3484.94 2.92511 -1.10254 0
M  V30 35809 H 3484.16 1.98716 -3.40449 0
M  V30 35810 H 3485.45 2.95772 -4.14001 0
M  V30 35811 H 3484.85 5.29744 -1.98464 0
M  V30 35812 H 3483.4 5.95826 -2.64263 0
M  V30 35813 N 3486.84 1.47758 0.548222 0
M  V30 35814 C 3488.25 1.33475 0.875025 0
M  V30 35815 C 3488.45 0.331987 1.98746 0
M  V30 35816 O 3487.51 -0.253304 2.51226 0
M  V30 35817 C 3488.82 2.73039 1.25977 0
M  V30 35818 C 3490.37 2.81391 1.37069 0
M  V30 35819 C 3490.85 4.21617 1.78895 0
M  V30 35820 N 3492.34 4.24202 1.8603 0
M  V30 35821 C 3493.07 5.29624 2.1974 0
M  V30 35822 N 3492.57 6.45343 2.52002 0
M  V30 35823 N 3494.36 5.17007 2.20591 0
M  V30 35824 H 3486.51 2.11583 -0.18607 0
M  V30 35825 H 3488.77 0.947776 -0.0205853 0
M  V30 35826 H 3488.48 3.47892 0.516126 0
M  V30 35827 H 3488.35 3.0539 2.21397 0
M  V30 35828 H 3490.74 2.06805 2.10513 0
M  V30 35829 H 3490.82 2.52682 0.398149 0
M  V30 35830 H 3490.47 4.96712 1.06018 0
M  V30 35831 H 3490.4 4.47756 2.77168 0
M  V30 35832 H 3492.89 3.40724 1.63449 0
M  V30 35833 H 3493.2 7.21536 2.76777 0
M  V30 35834 H 3491.55 6.48648 2.49562 0
M  V30 35835 H 3494.74 4.25627 1.94832 0
M  V30 35836 H 3494.91 5.99271 2.46532 0
M  V30 35837 N 3488.32 -0.79567 1.3604 0
M  V30 35838 C 3489.54 -1.58436 1.33062 0
M  V30 35839 C 3489.96 -1.88588 -0.0895164 0
M  V30 35840 O 3489.32 -1.49645 -1.04463 0
M  V30 35841 C 3489.37 -2.90911 2.14599 0
M  V30 35842 O 3489.09 -2.62062 3.51077 0
M  V30 35843 C 3490.59 -3.85239 2.19331 0
M  V30 35844 H 3487.81 -0.491617 0.456677 0
M  V30 35845 H 3490.35 -0.988003 1.7905 0
M  V30 35846 H 3488.51 -3.47033 1.72183 0
M  V30 35847 H 3488.92 -3.46725 3.93551 0
M  V30 35848 H 3490.4 -4.75271 2.80752 0
M  V30 35849 H 3490.87 -4.22629 1.19504 0
M  V30 35850 H 3491.48 -3.35051 2.61956 0
M  V30 35851 N 3489.79 -1.20217 -1.0191 0
M  V30 35852 C 3490.74 -0.94553 -2.12515 0
M  V30 35853 C 3491.74 0.102213 -1.69091 0
M  V30 35854 O 3492.94 -0.0479197 -1.79936 0
M  V30 35855 H 3489.32 -0.288421 -0.694491 0
M  V30 35856 H 3491.29 -1.88472 -2.31346 0
M  V30 35857 C 3490.04 -0.51143 -3.43918 0
M  V30 35858 H 3489.36 -1.30923 -3.77756 0
M  V30 35859 H 3490.8 -0.371056 -4.22373 0
M  V30 35860 C 3489.26 0.775844 -3.27845 0
M  V30 35861 O 3489.79 1.83489 -3.57344 0
M  V30 35862 N 3488 0.73689 -2.81102 0
M  V30 35863 H 3487.54 -0.125209 -2.57296 0
M  V30 35864 H 3487.5 1.59854 -2.70729 0
M  V30 35865 N 3491.27 1.21178 -1.00765 0
M  V30 35866 C 3492.5 1.94308 -0.71078 0
M  V30 35867 C 3492.92 1.74239 0.727073 0
M  V30 35868 O 3492.27 1.05068 1.49221 0
M  V30 35869 C 3492.32 3.46644 -1.02568 0
M  V30 35870 O 3492.04 3.6605 -2.40705 0
M  V30 35871 C 3493.55 4.36934 -0.748594 0
M  V30 35872 H 3490.77 0.617854 -0.261721 0
M  V30 35873 H 3493.31 1.53922 -1.34641 0
M  V30 35874 H 3491.46 3.84943 -0.435605 0
M  V30 35875 H 3491.88 4.60121 -2.51772 0
M  V30 35876 H 3493.35 5.42511 -1.01908 0
M  V30 35877 H 3493.83 4.38052 0.317346 0
M  V30 35878 H 3494.44 4.04284 -1.3204 0
M  V30 35879 N 3492.75 0.782725 1.36789 0
M  V30 35880 C 3493.7 0.164399 2.32018 0
M  V30 35881 C 3494.69 -0.672543 1.55477 0
M  V30 35882 O 3495.9 -0.568376 1.70791 0
M  V30 35883 H 3492.27 0.0343829 0.751214 0
M  V30 35884 H 3494.24 0.983126 2.8174 0
M  V30 35885 C 3492.99 -0.691667 3.40751 0
M  V30 35886 H 3492.32 -0.0570182 3.99759 0
M  V30 35887 H 3493.76 -1.0911 4.09721 0
M  V30 35888 C 3492.22 -1.84703 2.81756 0
M  V30 35889 O 3492.75 -2.9432 2.73383 0
M  V30 35890 N 3490.95 -1.65106 2.39141 0
M  V30 35891 H 3490.5 -0.759444 2.46151 0
M  V30 35892 H 3490.46 -2.42573 2.00014 0
M  V30 35893 N 3494.23 -1.48271 0.534176 0
M  V30 35894 C 3495.47 -2.028 0.00161056 0
M  V30 35895 C 3495.81 -1.41003 -1.33536 0
M  V30 35896 O 3495.08 -0.557278 -1.86346 0
M  V30 35897 C 3495.37 -3.59913 -0.115953 0
M  V30 35898 C 3495.22 -4.32184 1.24648 0
M  V30 35899 C 3496.54 -4.31996 -0.840699 0
M  V30 35900 H 3493.66 -0.736997 0.0020593 0
M  V30 35901 H 3496.3 -1.7695 0.692016 0
M  V30 35902 H 3494.45 -3.82069 -0.703959 0
M  V30 35903 H 3496.12 -4.21434 1.87592 0
M  V30 35904 H 3494.36 -3.93438 1.82727 0
M  V30 35905 H 3495.03 -5.40577 1.11717 0
M  V30 35906 H 3497.51 -4.14695 -0.341673 0
M  V30 35907 H 3496.39 -5.41606 -0.891865 0
M  V30 35908 H 3496.65 -3.99574 -1.8919 0
M  V30 35909 N 3495.71 -0.269505 -1.55279 0
M  V30 35910 C 3496.65 0.636429 -2.23724 0
M  V30 35911 C 3497.65 1.1623 -1.23236 0
M  V30 35912 O 3498.85 1.11657 -1.41183 0
M  V30 35913 H 3495.23 0.223775 -0.717934 0
M  V30 35914 H 3497.2 0.0362532 -2.98378 0
M  V30 35915 C 3495.95 1.8119 -2.96759 0
M  V30 35916 H 3495.27 1.41643 -3.73868 0
M  V30 35917 H 3496.71 2.42252 -3.4798 0
M  V30 35918 C 3495.17 2.69693 -2.0191 0
M  V30 35919 O 3495.7 3.69889 -1.56669 0
M  V30 35920 N 3493.91 2.36741 -1.68529 0
M  V30 35921 H 3493.45 1.55311 -2.05515 0
M  V30 35922 H 3493.41 2.96229 -1.05336 0
M  V30 35923 N 3497.18 1.576 0.00329885 0
M  V30 35924 C 3498.42 1.9228 0.693376 0
M  V30 35925 C 3498.79 0.870745 1.7112 0
M  V30 35926 O 3499.99 1.10269 2.45141 0
M  V30 35927 C 3498.26 3.32025 1.32266 0
M  V30 35928 S 3499.82 3.88585 2.03832 0
M  V30 35929 H 3496.64 0.673074 0.229112 0
M  V30 35930 H 3499.24 1.95429 -0.0525965 0
M  V30 35931 H 3497.94 4.06436 0.569 0
M  V30 35932 H 3497.47 3.32242 2.10664 0
M  V30 35933 H 3499.49 3.69394 3.31305 0
M  V30 35934 N 3498.66 -0.276003 1.55164 0
M  V30 35935 C 3500.07 -0.847264 1.66368 0
M  V30 35936 C 3500.42 -1.87159 0.588725 0
M  V30 35937 O 3499.55 -2.14705 -0.270313 0
M  V30 35938 C 3500.14 -1.54354 3.01596 0
M  V30 35939 C 3498.7 -2.06288 3.14837 0
M  V30 35940 C 3497.85 -0.903913 2.62154 0
M  V30 35941 H 3500.8 -0.05242 1.58613 0
M  V30 35942 H 3500.82 -2.41037 2.94417 0
M  V30 35943 H 3500.33 -0.797782 3.79812 0
M  V30 35944 H 3498.44 -2.83835 2.41389 0
M  V30 35945 H 3498.55 -2.28025 4.21357 0
M  V30 35946 H 3496.91 -1.29645 2.19235 0
M  V30 35947 H 3497.7 -0.171705 3.4287 0
M  V30 35948 N 3500.14 -1.48046 -0.540378 0
M  V30 35949 C 3501.39 -1.5479 -1.29318 0
M  V30 35950 C 3501.7 -0.222143 -1.94334 0
M  V30 35951 O 3502.91 -0.167723 -2.70981 0
M  V30 35952 C 3501.36 -2.72939 -2.3459 0
M  V30 35953 C 3500.97 -4.12114 -1.75689 0
M  V30 35954 C 3502.72 -2.88988 -3.10944 0
M  V30 35955 C 3500.62 -5.21538 -2.7884 0
M  V30 35956 H 3499.55 -0.576214 -0.486305 0
M  V30 35957 H 3502.2 -1.74358 -0.571968 0
M  V30 35958 H 3500.59 -2.46783 -3.097 0
M  V30 35959 H 3501.76 -4.48244 -1.06837 0
M  V30 35960 H 3500.08 -4.01093 -1.11862 0
M  V30 35961 H 3502.67 -3.67907 -3.88006 0
M  V30 35962 H 3503.02 -1.98054 -3.6617 0
M  V30 35963 H 3503.55 -3.14994 -2.42948 0
M  V30 35964 H 3500.29 -6.14404 -2.28448 0
M  V30 35965 H 3499.81 -4.89907 -3.4605 0
M  V30 35966 H 3501.49 -5.49209 -3.42021 0
M  V30 35967 N 3501.62 0.788444 -1.3646 0
M  V30 35968 C 3502.53 1.93242 -1.33021 0
M  V30 35969 C 3503.54 1.72443 -0.232242 0
M  V30 35970 O 3504.72 1.95964 -0.464777 0
M  V30 35971 C 3501.79 3.28119 -1.11976 0
M  V30 35972 C 3500.85 3.61689 -2.31256 0
M  V30 35973 C 3500.08 4.9013 -2.11206 0
M  V30 35974 O 3500.3 5.59933 -1.08774 0
M  V30 35975 O 3499.24 5.22379 -2.99005 0
M  V30 35976 H 3503.06 1.99094 -2.29337 0
M  V30 35977 H 3500.65 0.928835 -1.17017 0
M  V30 35978 H 3502.53 4.08829 -1.02161 0
M  V30 35979 H 3501.2 3.23158 -0.187228 0
M  V30 35980 H 3500.11 2.81282 -2.4664 0
M  V30 35981 H 3501.44 3.71375 -3.23019 0
M  V30 35982 N 3503.1 1.20755 1.01271 0
M  V30 35983 C 3504.34 1.03142 1.76468 0
M  V30 35984 C 3504.7 -0.428498 1.87157 0
M  V30 35985 O 3505.9 -0.724928 2.5884 0
M  V30 35986 C 3504.17 1.70068 3.14343 0
M  V30 35987 S 3505.73 1.67609 4.05528 0
M  V30 35988 H 3502.55 0.369767 0.607284 0
M  V30 35989 H 3505.15 1.53374 1.21229 0
M  V30 35990 H 3503.86 2.75492 3.04192 0
M  V30 35991 H 3503.39 1.19983 3.74657 0
M  V30 35992 H 3505.4 0.71171 4.91069 0
M  V30 35993 N 3504.58 -1.20642 1.01406 0
M  V30 35994 C 3505.82 -1.89945 0.701942 0
M  V30 35995 C 3506.15 -1.78688 -0.768181 0
M  V30 35996 O 3505.41 -1.16365 -1.57346 0
M  V30 35997 C 3505.7 -3.40691 1.08001 0
M  V30 35998 C 3505.37 -3.72148 2.54592 0
M  V30 35999 C 3504.03 -3.80444 2.94646 0
M  V30 36000 C 3506.38 -3.86648 3.49504 0
M  V30 36001 C 3503.71 -4.00694 4.28557 0
M  V30 36002 C 3506.06 -4.08408 4.831 0
M  V30 36003 C 3504.73 -4.14933 5.22864 0
M  V30 36004 H 3504 -0.695057 0.256859 0
M  V30 36005 H 3506.65 -1.42958 1.27418 0
M  V30 36006 H 3504.95 -3.89475 0.426158 0
M  V30 36007 H 3506.65 -3.92605 0.816245 0
M  V30 36008 H 3503.24 -3.66289 2.22555 0
M  V30 36009 H 3507.42 -3.79596 3.19719 0
M  V30 36010 H 3502.68 -4.0398 4.58923 0
M  V30 36011 H 3506.85 -4.1857 5.56572 0
M  V30 36012 H 3504.48 -4.30377 6.26642 0
M  V30 36013 N 3506.05 -0.789968 -1.36372 0
M  V30 36014 C 3506.99 -0.134654 -2.27802 0
M  V30 36015 C 3507.96 0.689573 -1.47254 0
M  V30 36016 O 3509.15 0.660435 -1.76552 0
M  V30 36017 C 3506.28 0.81483 -3.28753 0
M  V30 36018 C 3505.32 0.0723262 -4.26439 0
M  V30 36019 S 3506.15 -1.2523 -5.20651 0
M  V30 36020 C 3507.31 -0.306825 -6.25147 0
M  V30 36021 H 3507.54 -0.909887 -2.83034 0
M  V30 36022 H 3505.08 -0.584212 -1.42921 0
M  V30 36023 H 3507.03 1.35719 -3.87415 0
M  V30 36024 H 3505.7 1.56331 -2.72432 0
M  V30 36025 H 3504.89 0.792806 -4.97725 0
M  V30 36026 H 3504.49 -0.39957 -3.71859 0
M  V30 36027 H 3506.78 0.514127 -6.75546 0
M  V30 36028 H 3507.73 -0.988393 -7.01168 0
M  V30 36029 H 3508.13 0.0900841 -5.64428 0
M  V30 36030 N 3507.53 1.47986 -0.542031 0
M  V30 36031 C 3508.94 1.86406 -0.104679 0
M  V30 36032 C 3509.29 1.45033 1.32136 0
M  V30 36033 O 3508.42 0.846474 1.99158 0
M  V30 36034 C 3509.01 3.38304 -0.183193 0
M  V30 36035 C 3507.57 3.75873 0.199032 0
M  V30 36036 C 3506.72 2.72039 -0.53758 0
M  V30 36037 H 3509.67 1.39719 -0.752614 0
M  V30 36038 H 3509.69 3.75706 0.602083 0
M  V30 36039 H 3509.2 3.68386 -1.22119 0
M  V30 36040 H 3507.3 3.51407 1.23872 0
M  V30 36041 H 3507.42 4.78868 -0.148964 0
M  V30 36042 H 3505.78 2.54694 0.0175807 0
M  V30 36043 H 3506.56 3.04964 -1.57644 0
M  V30 36044 N 3509.01 0.277736 1.55133 0
M  V30 36045 C 3509.94 -0.602192 2.25601 0
M  V30 36046 C 3510.92 -1.15678 1.2471 0
M  V30 36047 O 3512.11 -1.19044 1.53435 0
M  V30 36048 C 3509.24 -1.78514 2.9791 0
M  V30 36049 C 3508.19 -1.36196 4.05752 0
M  V30 36050 C 3507.52 -2.62821 4.65649 0
M  V30 36051 C 3508.82 -0.510236 5.19802 0
M  V30 36052 H 3510.51 -0.0145096 2.99396 0
M  V30 36053 H 3508.06 -0.00553857 1.43999 0
M  V30 36054 H 3510.01 -2.40662 3.45919 0
M  V30 36055 H 3508.73 -2.39869 2.21654 0
M  V30 36056 H 3507.39 -0.763663 3.58558 0
M  V30 36057 H 3507.04 -3.22441 3.86058 0
M  V30 36058 H 3506.74 -2.35217 5.38467 0
M  V30 36059 H 3508.26 -3.25813 5.16409 0
M  V30 36060 H 3509.68 -1.03679 5.63847 0
M  V30 36061 H 3508.07 -0.328967 5.99198 0
M  V30 36062 H 3509.14 0.470358 4.82613 0
M  V30 36063 N 3510.49 -1.57599 0.00505908 0
M  V30 36064 C 3511.76 -1.82022 -0.716047 0
M  V30 36065 C 3512.14 -0.883862 -1.91706 0
M  V30 36066 O 3511.49 0.0662411 -2.28404 0
M  V30 36067 C 3511.7 -3.30642 -1.117 0
M  V30 36068 C 3513.05 -3.96509 -1.51874 0
M  V30 36069 O 3514.07 -3.34995 -1.21065 0
M  V30 36070 O 3512.93 -5.04881 -2.09182 0
M  V30 36071 H 3510.03 -0.749706 -0.349099 0
M  V30 36072 H 3512.57 -1.69672 0.0309008 0
M  V30 36073 H 3511.35 -3.90428 -0.261155 0
M  V30 36074 H 3510.97 -3.4801 -1.92289 0
M  V30 36075 N 3511.97 0.267771 -1.55309 0
M  V30 36076 C 3513.21 1.00016 -1.76422 0
M  V30 36077 C 3513.54 1.85751 -0.566591 0
M  V30 36078 O 3512.82 1.89557 0.435719 0
M  V30 36079 C 3513.1 1.87831 -3.07232 0
M  V30 36080 C 3512.96 1.05054 -4.3736 0
M  V30 36081 C 3514.27 2.86449 -3.34118 0
M  V30 36082 H 3511.39 0.362186 -0.641865 0
M  V30 36083 H 3514.04 0.272154 -1.88041 0
M  V30 36084 H 3512.19 2.49902 -2.97458 0
M  V30 36085 H 3513.86 0.450128 -4.59099 0
M  V30 36086 H 3512.1 0.354166 -4.32352 0
M  V30 36087 H 3512.77 1.69829 -5.25226 0
M  V30 36088 H 3515.25 2.34513 -3.43719 0
M  V30 36089 H 3514.12 3.45031 -4.26902 0
M  V30 36090 H 3514.38 3.61843 -2.54012 0
M  V30 36091 N 3513.44 1.48331 0.532519 0
M  V30 36092 C 3514.38 1.58749 1.65322 0
M  V30 36093 C 3515.39 0.471952 1.55809 0
M  V30 36094 O 3516.58 0.742685 1.62316 0
M  V30 36095 C 3513.68 1.49883 3.03955 0
M  V30 36096 C 3512.85 2.76433 3.38975 0
M  V30 36097 C 3511.91 2.61056 4.56877 0
M  V30 36098 O 3510.94 3.34936 4.60224 0
M  V30 36099 N 3512.14 1.70506 5.54895 0
M  V30 36100 H 3514.9 2.55395 1.56822 0
M  V30 36101 H 3512.46 1.45022 0.719734 0
M  V30 36102 H 3514.46 1.37294 3.807 0
M  V30 36103 H 3513.03 0.612211 3.06546 0
M  V30 36104 H 3512.25 3.03604 2.51433 0
M  V30 36105 H 3513.53 3.60395 3.59156 0
M  V30 36106 H 3512.93 1.0968 5.54966 0
M  V30 36107 H 3511.49 1.63858 6.30868 0
M  V30 36108 N 3514.92 -0.781196 1.36876 0
M  V30 36109 C 3515.88 -1.87577 1.3171 0
M  V30 36110 C 3516.88 -1.59245 0.223072 0
M  V30 36111 O 3518.07 -1.67503 0.478356 0
M  V30 36112 C 3515.21 -3.24528 1.04376 0
M  V30 36113 H 3516.4 -1.93572 2.29063 0
M  V30 36114 H 3513.95 -0.979909 1.21768 0
M  V30 36115 H 3514.69 -3.24213 0.0751511 0
M  V30 36116 H 3514.47 -3.46483 1.83554 0
M  V30 36117 H 3515.96 -4.046 1.03387 0
M  V30 36118 N 3516.4 -1.21291 -1.0063 0
M  V30 36119 C 3517.68 -0.938154 -1.71633 0
M  V30 36120 C 3518.06 0.550381 -2.03799 0
M  V30 36121 O 3517.4 1.51487 -1.71067 0
M  V30 36122 C 3517.61 -1.82189 -2.97671 0
M  V30 36123 C 3518.96 -2.06995 -3.70726 0
M  V30 36124 O 3519.99 -1.79527 -3.0765 0
M  V30 36125 O 3518.85 -2.53443 -4.84178 0
M  V30 36126 H 3515.94 -0.351677 -0.7485 0
M  V30 36127 H 3518.49 -1.32214 -1.06385 0
M  V30 36128 H 3517.26 -2.82936 -2.70301 0
M  V30 36129 H 3516.88 -1.43864 -3.7066 0
M  V30 36130 N 3517.88 1.20103 -1.02045 0
M  V30 36131 C 3519.29 1.41617 -0.735992 0
M  V30 36132 C 3519.49 1.89578 0.682816 0
M  V30 36133 O 3518.55 2.06713 1.45003 0
M  V30 36134 C 3519.86 2.43453 -1.76496 0
M  V30 36135 C 3521.41 2.57214 -1.78354 0
M  V30 36136 C 3521.89 3.62297 -2.80188 0
M  V30 36137 N 3523.38 3.69784 -2.78952 0
M  V30 36138 C 3524.11 4.50762 -3.54403 0
M  V30 36139 N 3523.61 5.35513 -4.39542 0
M  V30 36140 N 3525.4 4.45331 -3.42982 0
M  V30 36141 H 3517.55 0.872882 -1.93635 0
M  V30 36142 H 3519.81 0.445742 -0.836671 0
M  V30 36143 H 3519.52 2.15218 -2.78162 0
M  V30 36144 H 3519.39 3.42501 -1.58028 0
M  V30 36145 H 3521.78 2.84777 -0.773715 0
M  V30 36146 H 3521.86 1.58348 -2.00897 0
M  V30 36147 H 3521.51 3.35477 -3.81337 0
M  V30 36148 H 3521.44 4.60793 -2.54906 0
M  V30 36149 H 3523.93 3.09249 -2.17195 0
M  V30 36150 H 3524.24 5.94398 -4.93873 0
M  V30 36151 H 3522.59 5.35002 -4.43619 0
M  V30 36152 H 3525.78 3.78158 -2.75888 0
M  V30 36153 H 3525.95 5.08203 -4.02037 0
M  V30 36154 N 3519.36 0.797189 1.35951 0
M  V30 36155 C 3520.27 0.202312 2.33726 0
M  V30 36156 C 3521.28 -0.649691 1.61416 0
M  V30 36157 O 3522.46 -0.563652 1.93352 0
M  V30 36158 C 3519.52 -0.64679 3.40613 0
M  V30 36159 C 3518.58 0.224612 4.28712 0
M  V30 36160 C 3517.82 -0.58406 5.30495 0
M  V30 36161 O 3518.04 -1.81948 5.40603 0
M  V30 36162 O 3516.97 0.0201297 6.01897 0
M  V30 36163 H 3520.8 1.01092 2.86381 0
M  V30 36164 H 3518.39 0.558792 1.38556 0
M  V30 36165 H 3520.27 -1.13073 4.05946 0
M  V30 36166 H 3518.94 -1.43316 2.90245 0
M  V30 36167 H 3517.85 0.75548 3.66392 0
M  V30 36168 H 3519.18 0.974688 4.82453 0
M  V30 36169 N 3520.83 -1.47696 0.549872 0
M  V30 36170 C 3522.11 -1.95554 -0.0422449 0
M  V30 36171 C 3522.49 -1.4924 -1.493 0
M  V30 36172 O 3521.84 -0.727882 -2.16597 0
M  V30 36173 C 3522.05 -3.48869 0.0956165 0
M  V30 36174 C 3523.4 -4.24566 -0.0534952 0
M  V30 36175 O 3524.42 -3.56193 0.0227991 0
M  V30 36176 O 3523.28 -5.46072 -0.216354 0
M  V30 36177 H 3520.37 -0.82418 -0.068232 0
M  V30 36178 H 3522.92 -1.5813 0.615877 0
M  V30 36179 H 3521.69 -3.75361 1.10543 0
M  V30 36180 H 3521.32 -3.9304 -0.600453 0
M  V30 36181 N 3522.31 -0.285959 -1.54984 0
M  V30 36182 C 3523.54 0.333585 -2.047 0
M  V30 36183 C 3523.96 1.47873 -1.16254 0
M  V30 36184 O 3523.32 1.80562 -0.163407 0
M  V30 36185 C 3523.37 0.781808 -3.52023 0
M  V30 36186 O 3522.47 1.88805 -3.66642 0
M  V30 36187 H 3521.81 0.0673087 -0.66058 0
M  V30 36188 H 3524.34 -0.423421 -2.00171 0
M  V30 36189 H 3524.35 1.07466 -3.93592 0
M  V30 36190 H 3523.03 -0.0559661 -4.15862 0
M  V30 36191 H 3521.61 1.5969 -3.36977 0
M  V30 36192 N 3523.79 1.57594 -0.0134169 0
M  V30 36193 C 3525.21 1.55875 0.34282 0
M  V30 36194 C 3525.41 1.01745 1.73926 0
M  V30 36195 O 3524.46 0.657201 2.43797 0
M  V30 36196 C 3525.78 2.99995 0.205778 0
M  V30 36197 C 3527.32 3.11748 0.27972 0
M  V30 36198 C 3527.8 4.57678 0.171649 0
M  V30 36199 N 3529.29 4.62633 0.229129 0
M  V30 36200 C 3530.02 5.73151 0.169052 0
M  V30 36201 N 3529.52 6.92775 0.0587948 0
M  V30 36202 N 3531.31 5.61662 0.221897 0
M  V30 36203 H 3523.46 1.91115 -0.92676 0
M  V30 36204 H 3525.73 0.878422 -0.356481 0
M  V30 36205 H 3525.43 3.43489 -0.755542 0
M  V30 36206 H 3525.31 3.64182 0.982412 0
M  V30 36207 H 3527.69 2.68176 1.23149 0
M  V30 36208 H 3527.78 2.50312 -0.527018 0
M  V30 36209 H 3527.42 5.01927 -0.776636 0
M  V30 36210 H 3527.35 5.17075 0.997047 0
M  V30 36211 H 3529.84 3.76584 0.31513 0
M  V30 36212 H 3530.15 7.72798 0.0192168 0
M  V30 36213 H 3528.5 6.94996 0.0242321 0
M  V30 36214 H 3531.69 4.67097 0.306324 0
M  V30 36215 H 3531.86 6.47773 0.171613 0
M  V30 36216 N 3525.27 -0.259531 1.55448 0
M  V30 36217 C 3526.18 -1.34285 1.92366 0
M  V30 36218 C 3527.19 -1.53332 0.822519 0
M  V30 36219 O 3528.37 -1.67198 1.1228 0
M  V30 36220 C 3525.44 -2.67971 2.19982 0
M  V30 36221 C 3524.5 -2.57556 3.43458 0
M  V30 36222 C 3523.73 -3.84866 3.69748 0
M  V30 36223 O 3523.95 -4.86171 2.98319 0
M  V30 36224 O 3522.89 -3.84259 4.6328 0
M  V30 36225 H 3526.71 -1.0597 2.84612 0
M  V30 36226 H 3524.3 -0.459214 1.42167 0
M  V30 36227 H 3526.18 -3.46994 2.3911 0
M  V30 36228 H 3524.85 -2.96045 1.30917 0
M  V30 36229 H 3523.76 -1.76863 3.29652 0
M  V30 36230 H 3525.09 -2.3443 4.32786 0
M  V30 36231 O 3526.79 -1.56333 -0.405241 0
M  V30 36232 H 3527.48 -1.62274 -1.05769 0
M  V30 END ATOM
M  V30 BEGIN BOND
M  V30 END BOND
M  V30 END CTAB
M  END
$$$$
