drugbank_target|P02776 Platelet factor 4 (DB00055; DB01109)
 OpenBabel12092119483D

  0  0  0     0  0            999 V3000
M  V30 BEGIN CTAB
M  V30 COUNTS 1574 1585 0 0 0
M  V30 BEGIN ATOM
M  V30 1 H -0.908 1.98254 -0.117106 0
M  V30 2 N 0 1.576 0 0
M  V30 3 C 0.933 2.03868 1.02534 0
M  V30 4 C 1.911 0.928543 1.3348 0
M  V30 5 O 3.095 1.19667 1.45644 0
M  V30 6 C 0.222 2.43627 2.35294 0
M  V30 7 C -0.732 3.65373 2.2001 0
M  V30 8 S 0.101 5.13292 1.52614 0
M  V30 9 C 1.257 5.56322 2.86805 0
M  V30 10 H 1.49 2.90518 0.631377 0
M  V30 11 H -0.977 1.52953 0.210867 0
M  V30 12 H 0.981 2.67203 3.11629 0
M  V30 13 H -0.358 1.57376 2.7183 0
M  V30 14 H -1.165 3.90944 3.18086 0
M  V30 15 H -1.563 3.418 1.51819 0
M  V30 16 H 0.729 5.58782 3.83104 0
M  V30 17 H 1.672 6.56266 2.65933 0
M  V30 18 H 2.08 4.83886 2.90714 0
M  V30 19 N 1.4781 -0.272755 1.55222 0
M  V30 20 C 2.7031 -1.02683 1.80197 0
M  V30 21 C 3.1281 -1.79142 0.573551 0
M  V30 22 O 2.4861 -1.74917 -0.476849 0
M  V30 23 C 2.5341 -1.9609 3.02624 0
M  V30 24 O 1.6381 -3.04863 2.77727 0
M  V30 25 H 0.9791 -0.293557 0.595584 0
M  V30 26 H 3.5091 -0.30159 2.02365 0
M  V30 27 H 3.5191 -2.38039 3.31363 0
M  V30 28 H 2.1941 -1.39851 3.91682 0
M  V30 29 H 0.7711 -2.67228 2.60084 0
M  V30 30 N 2.9562 -1.48159 -0.537278 0
M  V30 31 C 4.1812 -1.59707 -1.32319 0
M  V30 32 C 4.6062 -0.254859 -1.86365 0
M  V30 33 O 3.9642 0.772378 -1.64024 0
M  V30 34 C 4.0122 -2.6412 -2.45505 0
M  V30 35 O 3.1162 -2.20774 -3.48328 0
M  V30 36 H 2.4572 -0.535791 -0.392204 0
M  V30 37 H 4.9872 -1.94092 -0.647268 0
M  V30 38 H 4.9972 -2.85166 -2.91795 0
M  V30 39 H 3.6722 -3.61567 -2.05528 0
M  V30 40 H 2.2492 -2.09911 -3.08207 0
M  V30 41 N 4.4343 0.785586 -1.36625 0
M  V30 42 C 5.3973 1.87999 -1.31107 0
M  V30 43 C 6.3973 1.59316 -0.217959 0
M  V30 44 O 7.5873 1.67656 -0.472977 0
M  V30 45 C 4.7193 3.24861 -1.03334 0
M  V30 46 H 5.9123 1.94307 -2.2844 0
M  V30 47 H 3.4653 0.983813 -1.21453 0
M  V30 48 H 4.2003 3.24235 -0.0647432 0
M  V30 49 H 3.9853 3.4707 -1.82441 0
M  V30 50 H 5.4753 4.04929 -1.02088 0
M  V30 51 N 5.9124 1.20967 1.01018 0
M  V30 52 C 6.8754 0.965918 2.07853 0
M  V30 53 C 7.8754 -0.0610545 1.60684 0
M  V30 54 O 9.0654 0.175681 1.73312 0
M  V30 55 C 6.1974 0.455513 3.37843 0
M  V30 56 H 7.3904 1.91365 2.3091 0
M  V30 57 H 4.9434 1.02594 1.17916 0
M  V30 58 H 5.6784 -0.497381 3.20463 0
M  V30 59 H 5.4634 1.19622 3.73407 0
M  V30 60 H 6.9534 0.304667 4.16487 0
M  V30 61 N 7.3905 -1.2043 1.01659 0
M  V30 62 C 8.6385 -1.89423 0.704522 0
M  V30 63 C 8.9595 -1.79231 -0.768197 0
M  V30 64 O 8.2295 -1.1947 -1.55254 0
M  V30 65 H 6.8095 -0.701178 0.257602 0
M  V30 66 H 9.4715 -1.4626 1.28818 0
M  V30 67 H 8.5675 -2.96052 0.987916 0
M  V30 68 N 8.8686 -0.792821 -1.36206 0
M  V30 69 C 10.1156 -0.366786 -1.99151 0
M  V30 70 C 10.4436 1.06243 -1.62919 0
M  V30 71 O 9.6986 1.74927 -0.877442 0
M  V30 72 C 9.9976 -0.481501 -3.54142 0
M  V30 73 C 9.6636 -1.87202 -4.10203 0
M  V30 74 C 8.3256 -2.25248 -4.25226 0
M  V30 75 C 10.6776 -2.78237 -4.40719 0
M  V30 76 C 8.0056 -3.53723 -4.68078 0
M  V30 77 C 10.3576 -4.06144 -4.85005 0
M  V30 78 C 9.0216 -4.44207 -4.98234 0
M  V30 79 H 8.2916 -0.134217 -0.728743 0
M  V30 80 H 10.9386 -1.01094 -1.62641 0
M  V30 81 H 9.2436 0.246146 -3.91026 0
M  V30 82 H 10.9406 -0.132844 -4.0078 0
M  V30 83 H 7.5306 -1.56639 -3.98951 0
M  V30 84 H 11.7146 -2.50097 -4.28679 0
M  V30 85 H 6.9706 -3.8308 -4.76508 0
M  V30 86 H 11.1446 -4.76796 -5.07581 0
M  V30 87 H 8.7716 -5.43814 -5.31197 0
M  V30 88 N 10.3467 1.47872 -0.545128 0
M  V30 89 C 11.5867 2.04391 -0.0187854 0
M  V30 90 C 11.9507 1.41162 1.30144 0
M  V30 91 O 13.1517 1.88656 1.91474 0
M  V30 92 C 11.4227 3.57299 0.0850867 0
M  V30 93 S 12.9817 4.35221 0.559302 0
M  V30 94 H 9.7997 0.710737 -0.0193301 0
M  V30 95 H 12.4017 1.81395 -0.729125 0
M  V30 96 H 11.1057 4.00847 -0.880351 0
M  V30 97 H 10.6367 3.84773 0.819348 0
M  V30 98 H 12.6517 4.61571 1.82118 0
M  V30 99 N 11.8248 0.280983 1.55075 0
M  V30 100 C 12.7878 -0.590896 2.21452 0
M  V30 101 C 13.7878 -1.07682 1.19421 0
M  V30 102 O 14.9778 -0.97605 1.44288 0
M  V30 103 C 12.1098 -1.81587 2.88511 0
M  V30 104 H 13.3028 -0.0112554 2.99898 0
M  V30 105 H 10.8558 0.0316438 1.56268 0
M  V30 106 H 11.5908 -2.43587 2.14093 0
M  V30 107 H 11.3758 -1.4753 3.63287 0
M  V30 108 H 12.8658 -2.43575 3.39206 0
M  V30 109 N 13.3029 -1.57598 0.00835791 0
M  V30 110 C 14.5279 -1.95617 -0.689103 0
M  V30 111 C 14.9529 -0.883753 -1.66046 0
M  V30 112 O 14.3109 0.157352 -1.80616 0
M  V30 113 C 14.3589 -3.32736 -1.38994 0
M  V30 114 O 13.4629 -3.27631 -2.50463 0
M  V30 115 H 12.8039 -0.638379 -0.182668 0
M  V30 116 H 15.3339 -2.045 0.064036 0
M  V30 117 H 15.3439 -3.68494 -1.75147 0
M  V30 118 H 14.0189 -4.1034 -0.677778 0
M  V30 119 H 12.5959 -3.03561 -2.16576 0
M  V30 120 N 14.781 0.264519 -1.55364 0
M  V30 121 C 16.197 0.61215 -1.47394 0
M  V30 122 C 16.397 1.89134 -0.695018 0
M  V30 123 O 15.453 2.51563 -0.217275 0
M  V30 124 C 16.766 0.731235 -2.91674 0
M  V30 125 C 18.314 0.82473 -3.01939 0
M  V30 126 C 18.789 0.975522 -4.4749 0
M  V30 127 N 20.28 1.04083 -4.51354 0
M  V30 128 C 21.015 1.17646 -5.61201 0
M  V30 129 N 20.511 1.27874 -6.80896 0
M  V30 130 N 22.304 1.20823 -5.48961 0
M  V30 131 H 14.455 -0.575456 -2.04456 0
M  V30 132 H 16.718 -0.196099 -0.927496 0
M  V30 133 H 16.424 -0.138392 -3.51428 0
M  V30 134 H 16.298 1.60883 -3.41169 0
M  V30 135 H 18.685 1.68482 -2.42276 0
M  V30 136 H 18.766 -0.0776479 -2.55682 0
M  V30 137 H 18.41 0.120058 -5.07758 0
M  V30 138 H 18.34 1.89268 -4.91412 0
M  V30 139 H 20.831 0.973846 -3.65136 0
M  V30 140 H 21.144 1.38081 -7.60364 0
M  V30 141 H 19.489 1.24863 -6.83692 0
M  V30 142 H 22.68 1.12469 -4.54388 0
M  V30 143 H 22.853 1.31049 -6.3461 0
M  V30 144 N 16.2591 1.48442 0.529413 0
M  V30 145 C 17.6701 1.5002 1.11134 0
M  V30 146 C 18.0211 0.27031 1.94329 0
M  V30 147 O 17.1461 -0.622507 2.07253 0
M  V30 148 C 17.7411 2.71834 2.02217 0
M  V30 149 C 16.3001 2.76283 2.55627 0
M  V30 150 C 15.4471 2.43542 1.326 0
M  V30 151 H 18.3981 1.5555 0.314641 0
M  V30 152 H 18.4191 2.50384 2.8651 0
M  V30 153 H 17.9311 3.61331 1.41639 0
M  V30 154 H 16.0321 1.90995 3.19924 0
M  V30 155 H 16.1451 3.77725 2.94721 0
M  V30 156 H 14.5091 1.94709 1.64196 0
M  V30 157 H 15.2921 3.3528 0.737734 0
M  V30 158 N 17.7372 -0.778329 1.37039 0
M  V30 159 C 18.9852 -1.53361 1.31623 0
M  V30 160 C 19.3062 -1.94739 -0.100831 0
M  V30 161 O 18.5762 -1.65797 -1.04347 0
M  V30 162 H 17.1562 -0.568794 0.484234 0
M  V30 163 H 19.8182 -0.926742 1.71457 0
M  V30 164 H 18.9142 -2.43606 1.95096 0
M  V30 165 N 19.2153 -1.21501 -1.00376 0
M  V30 166 C 20.1453 -0.999478 -2.11028 0
M  V30 167 C 21.1263 0.0759671 -1.6993 0
M  V30 168 O 22.3113 -0.0841106 -1.94018 0
M  V30 169 C 19.4413 -0.564709 -3.42678 0
M  V30 170 C 18.3953 -1.58486 -3.97576 0
M  V30 171 C 17.7213 -1.00628 -5.25146 0
M  V30 172 C 19.0213 -2.97204 -4.29496 0
M  V30 173 H 20.7153 -1.92495 -2.29317 0
M  V30 174 H 18.2613 -0.92693 -1.102 0
M  V30 175 H 20.2143 -0.401091 -4.19487 0
M  V30 176 H 18.9383 0.396411 -3.24185 0
M  V30 177 H 17.5973 -1.73606 -3.22888 0
M  V30 178 H 17.2453 -0.0368439 -5.02987 0
M  V30 179 H 16.9453 -1.68771 -5.62841 0
M  V30 180 H 18.4693 -0.854015 -6.04598 0
M  V30 181 H 19.8833 -2.8552 -4.97143 0
M  V30 182 H 18.2803 -3.62372 -4.78338 0
M  V30 183 H 19.3503 -3.47956 -3.3772 0
M  V30 184 N 20.6934 1.19889 -1.02296 0
M  V30 185 C 21.6234 2.25141 -0.619174 0
M  V30 186 C 22.6044 1.66051 0.368915 0
M  V30 187 O 23.7894 1.92546 0.252941 0
M  V30 188 C 20.9194 3.4728 0.0368783 0
M  V30 189 C 19.8734 4.19005 -0.872865 0
M  V30 190 C 19.1994 5.34637 -0.0822402 0
M  V30 191 C 20.4994 4.74452 -2.18387 0
M  V30 192 H 22.1934 2.59171 -1.49903 0
M  V30 193 H 19.7394 1.24579 -0.722222 0
M  V30 194 H 21.6924 4.20098 0.330958 0
M  V30 195 H 20.4164 3.12433 0.95149 0
M  V30 196 H 19.0754 3.48061 -1.15105 0
M  V30 197 H 18.7234 4.96034 0.83422 0
M  V30 198 H 18.4234 5.83557 -0.688149 0
M  V30 199 H 19.9474 6.10255 0.205238 0
M  V30 200 H 21.3614 5.39055 -1.95172 0
M  V30 201 H 19.7584 5.33834 -2.74119 0
M  V30 202 H 20.8284 3.92844 -2.84257 0
M  V30 203 N 22.1715 0.800033 1.35784 0
M  V30 204 C 23.4185 0.377342 1.98953 0
M  V30 205 C 23.7465 -1.05378 1.6348 0
M  V30 206 O 23.0015 -1.74459 0.886707 0
M  V30 207 C 23.3005 0.500276 3.53881 0
M  V30 208 C 22.9665 1.89375 4.09204 0
M  V30 209 C 21.6285 2.27499 4.24025 0
M  V30 210 C 23.9805 2.8057 4.39238 0
M  V30 211 C 21.3085 3.562 4.66195 0
M  V30 212 C 23.6605 4.0871 4.82844 0
M  V30 213 C 22.3245 4.46843 4.95871 0
M  V30 214 H 21.5945 0.138079 0.728021 0
M  V30 215 H 24.2415 1.01955 1.62103 0
M  V30 216 H 22.5465 -0.225405 3.91151 0
M  V30 217 H 24.2435 0.154097 4.00704 0
M  V30 218 H 20.8335 1.58753 3.98115 0
M  V30 219 H 25.0175 2.52367 4.27346 0
M  V30 220 H 20.2735 3.85602 4.74469 0
M  V30 221 H 24.4475 4.79481 5.05046 0
M  V30 222 H 22.0745 5.46623 5.28306 0
M  V30 223 N 23.6496 -1.47581 0.552962 0
M  V30 224 C 24.5796 -2.32762 -0.185451 0
M  V30 225 C 25.5606 -1.43527 -0.912905 0
M  V30 226 O 26.7456 -1.72388 -0.894201 0
M  V30 227 C 23.8756 -3.25219 -1.21859 0
M  V30 228 C 22.8296 -4.23661 -0.607864 0
M  V30 229 C 22.1556 -5.05413 -1.74533 0
M  V30 230 C 23.4556 -5.20481 0.435582 0
M  V30 231 H 25.1496 -2.94749 0.525684 0
M  V30 232 H 22.6956 -1.41738 0.254251 0
M  V30 233 H 24.6486 -3.8365 -1.7433 0
M  V30 234 H 23.3726 -2.61279 -1.95961 0
M  V30 235 H 22.0316 -3.66451 -0.104489 0
M  V30 236 H 21.6796 -4.3788 -2.47529 0
M  V30 237 H 21.3796 -5.72059 -1.34249 0
M  V30 238 H 22.9036 -5.66701 -2.27338 0
M  V30 239 H 24.3176 -5.733 -0.00290157 0
M  V30 240 H 22.7146 -5.95305 0.757067 0
M  V30 241 H 23.7846 -4.66217 1.33303 0
M  V30 242 N 25.1277 -0.289203 -1.54924 0
M  V30 243 C 26.3757 0.322879 -1.99504 0
M  V30 244 C 26.6967 1.55313 -1.1791 0
M  V30 245 O 25.9667 1.94001 -0.272097 0
M  V30 246 H 24.5467 0.122291 -0.736922 0
M  V30 247 H 27.2087 -0.397802 -1.90797 0
M  V30 248 H 26.3047 0.603061 -3.06218 0
M  V30 249 N 26.6058 1.57591 -0.0167156 0
M  V30 250 C 27.5358 2.12496 0.967858 0
M  V30 251 C 28.5168 1.03807 1.34752 0
M  V30 252 O 29.7018 1.31577 1.42833 0
M  V30 253 C 26.8318 2.64194 2.25431 0
M  V30 254 C 25.7858 3.77559 2.01576 0
M  V30 255 C 25.1118 4.15636 3.36379 0
M  V30 256 C 26.4118 5.04151 1.36489 0
M  V30 257 H 28.1058 2.95013 0.510643 0
M  V30 258 H 25.6518 1.41915 0.244181 0
M  V30 259 H 27.6048 3.01236 2.94678 0
M  V30 260 H 26.3288 1.78821 2.73296 0
M  V30 261 H 24.9878 3.40937 1.34751 0
M  V30 262 H 24.6358 3.27263 3.81979 0
M  V30 263 H 24.3358 4.92022 3.21229 0
M  V30 264 H 25.8598 4.5525 4.06915 0
M  V30 265 H 27.2738 5.38857 1.95718 0
M  V30 266 H 25.6708 5.85453 1.31776 0
M  V30 267 H 26.7408 4.83733 0.336219 0
M  V30 268 N 28.0839 -0.256276 1.55502 0
M  V30 269 C 29.0139 -1.32102 1.92539 0
M  V30 270 C 29.9949 -1.50684 0.789194 0
M  V30 271 O 31.1799 -1.63449 1.04872 0
M  V30 272 C 28.3099 -2.67752 2.21192 0
M  V30 273 C 27.2639 -2.63878 3.36975 0
M  V30 274 C 26.5899 -4.03236 3.51147 0
M  V30 275 C 27.8899 -2.21682 4.72921 0
M  V30 276 H 29.5839 -1.01351 2.81724 0
M  V30 277 H 27.1299 -0.486105 1.35547 0
M  V30 278 H 29.0829 -3.42365 2.45691 0
M  V30 279 H 27.8069 -3.0012 1.28824 0
M  V30 280 H 26.4659 -1.91722 3.12471 0
M  V30 281 H 26.1139 -4.32854 2.56216 0
M  V30 282 H 25.8139 -4.01535 4.29003 0
M  V30 283 H 27.3379 -4.79563 3.77957 0
M  V30 284 H 28.7519 -2.86023 4.96854 0
M  V30 285 H 27.1489 -2.3111 5.53812 0
M  V30 286 H 28.2189 -1.16833 4.70615 0
M  V30 287 N 29.562 -1.4872 -0.521534 0
M  V30 288 C 30.492 -1.66771 -1.63431 0
M  V30 289 C 31.473 -0.516499 -1.62069 0
M  V30 290 O 32.658 -0.750013 -1.79132 0
M  V30 291 C 29.788 -1.71515 -3.01993 0
M  V30 292 C 28.742 -2.86222 -3.18216 0
M  V30 293 C 28.068 -2.76061 -4.57924 0
M  V30 294 C 29.368 -4.27419 -3.00184 0
M  V30 295 H 31.062 -2.59932 -1.48579 0
M  V30 296 H 28.608 -1.25089 -0.713358 0
M  V30 297 H 30.561 -1.82731 -3.7972 0
M  V30 298 H 29.285 -0.749393 -3.17886 0
M  V30 299 H 27.944 -2.74575 -2.42908 0
M  V30 300 H 27.592 -1.77437 -4.70665 0
M  V30 301 H 27.292 -3.53037 -4.69722 0
M  V30 302 H 28.816 -2.89256 -5.37739 0
M  V30 303 H 30.23 -4.39855 -3.67697 0
M  V30 304 H 28.627 -5.05458 -3.2347 0
M  V30 305 H 29.697 -4.43293 -1.96518 0
M  V30 306 N 31.0401 0.771051 -1.3745 0
M  V30 307 C 31.9701 1.89827 -1.3597 0
M  V30 308 C 32.9511 1.68562 -0.228216 0
M  V30 309 O 34.1361 1.8941 -0.428675 0
M  V30 310 C 31.2661 3.2712 -1.16662 0
M  V30 311 C 30.2201 3.6295 -2.2683 0
M  V30 312 C 29.5461 4.98791 -1.92644 0
M  V30 313 C 30.8461 3.69627 -3.69017 0
M  V30 314 H 32.5401 1.91323 -2.30295 0
M  V30 315 H 30.0861 0.919082 -1.10855 0
M  V30 316 H 32.0391 4.05615 -1.14256 0
M  V30 317 H 30.7631 3.26059 -0.187926 0
M  V30 318 H 29.4221 2.86763 -2.28392 0
M  V30 319 H 29.0701 4.94271 -0.933021 0
M  V30 320 H 28.7701 5.23733 -2.66416 0
M  V30 321 H 30.2941 5.79685 -1.91826 0
M  V30 322 H 31.7081 4.38273 -3.69581 0
M  V30 323 H 30.1051 4.06067 -4.41848 0
M  V30 324 H 31.1751 2.70273 -4.02592 0
M  V30 325 N 32.5182 1.22032 0.997298 0
M  V30 326 C 33.9292 1.0397 1.55071 0
M  V30 327 C 34.2802 -0.398192 1.92117 0
M  V30 328 O 33.4052 -1.28254 1.74298 0
M  V30 329 C 34.0002 1.88109 2.81781 0
M  V30 330 C 32.5592 1.74357 3.33581 0
M  V30 331 C 31.7062 1.84846 2.06706 0
M  V30 332 H 34.6572 1.35941 0.818883 0
M  V30 333 H 34.6782 1.39589 3.53971 0
M  V30 334 H 34.1902 2.92754 2.54787 0
M  V30 335 H 32.2912 0.72427 3.65493 0
M  V30 336 H 32.4042 2.56772 4.04481 0
M  V30 337 H 30.7682 1.28238 2.20062 0
M  V30 338 H 31.5512 2.91014 1.82114 0
M  V30 339 N 33.9963 -1.19345 1.0293 0
M  V30 340 C 34.9263 -2.2481 0.631105 0
M  V30 341 C 35.9073 -1.66245 -0.360104 0
M  V30 342 O 37.0923 -1.92677 -0.242726 0
M  V30 343 C 34.2223 -3.47295 -0.0184607 0
M  V30 344 C 33.1763 -4.18536 0.895073 0
M  V30 345 C 32.5023 -5.34586 0.110592 0
M  V30 346 C 33.8023 -4.73287 2.209 0
M  V30 347 H 35.4963 -2.58372 1.51275 0
M  V30 348 H 33.0423 -1.24194 0.728818 0
M  V30 349 H 34.9953 -4.20268 -0.308675 0
M  V30 350 H 33.7193 -3.12933 -0.934907 0
M  V30 351 H 32.3783 -3.47446 1.16949 0
M  V30 352 H 32.0263 -4.96469 -0.807902 0
M  V30 353 H 31.7263 -5.83183 0.719087 0
M  V30 354 H 33.2503 -6.10355 -0.172871 0
M  V30 355 H 34.6643 -5.38013 1.98028 0
M  V30 356 H 33.0613 -5.32373 2.76946 0
M  V30 357 H 34.1313 -3.91331 2.86336 0
M  V30 358 N 35.4744 -0.807222 -1.35358 0
M  V30 359 C 36.7204 -0.388463 -1.99045 0
M  V30 360 C 37.0534 1.04184 -1.63888 0
M  V30 361 O 36.3284 1.72292 -0.902535 0
M  V30 362 C 36.6114 -0.572783 -3.55515 0
M  V30 363 C 36.4644 -2.04807 -4.00468 0
M  V30 364 C 37.7834 0.00114064 -4.401 0
M  V30 365 H 34.9024 -0.142619 -0.723069 0
M  V30 366 H 37.5444 -1.01687 -1.60498 0
M  V30 367 H 35.6944 -0.0378425 -3.88482 0
M  V30 368 H 37.3664 -2.64544 -3.77908 0
M  V30 369 H 35.6094 -2.54427 -3.51353 0
M  V30 370 H 36.2804 -2.12792 -5.09337 0
M  V30 371 H 38.7564 -0.455716 -4.13597 0
M  V30 372 H 37.6324 -0.157737 -5.48673 0
M  V30 373 H 37.8934 1.09488 -4.28328 0
M  V30 374 N 36.9525 1.47285 -0.560781 0
M  V30 375 C 38.1985 2.02764 -0.0381184 0
M  V30 376 C 38.5315 1.43384 1.30976 0
M  V30 377 O 37.8065 0.590733 1.85312 0
M  V30 378 C 38.0895 3.60064 0.0511427 0
M  V30 379 C 37.9425 4.2987 -1.32408 0
M  V30 380 C 39.2615 4.33439 0.762795 0
M  V30 381 H 36.3805 0.736841 -0.0153264 0
M  V30 382 H 39.0225 1.75675 -0.723759 0
M  V30 383 H 37.1725 3.83274 0.635065 0
M  V30 384 H 38.8445 4.17989 -1.95148 0
M  V30 385 H 37.0875 3.90085 -1.8978 0
M  V30 386 H 37.7585 5.38478 -1.21431 0
M  V30 387 H 40.2345 4.15243 0.266965 0
M  V30 388 H 39.1105 5.43124 0.794221 0
M  V30 389 H 39.3715 4.02915 1.81966 0
M  V30 390 N 38.4306 0.297415 1.54768 0
M  V30 391 C 39.3936 -0.567375 2.22066 0
M  V30 392 C 40.3936 -1.06409 1.20556 0
M  V30 393 O 41.5836 -0.960691 1.45315 0
M  V30 394 C 38.7156 -1.78517 2.90421 0
M  V30 395 H 39.9086 0.0205534 2.99893 0
M  V30 396 H 37.4616 0.0482163 1.56226 0
M  V30 397 H 38.1966 -2.41303 2.16664 0
M  V30 398 H 37.9816 -1.43669 3.64831 0
M  V30 399 H 39.4716 -2.39964 3.41771 0
M  V30 400 N 39.9087 -1.5758 0.0250728 0
M  V30 401 C 41.1557 -1.91633 -0.654444 0
M  V30 402 C 41.4837 -0.901103 -1.72367 0
M  V30 403 O 40.7387 0.0905647 -1.9549 0
M  V30 404 C 41.0377 -3.32421 -1.31268 0
M  V30 405 C 40.7037 -4.49344 -0.374223 0
M  V30 406 C 39.3657 -4.8106 -0.115911 0
M  V30 407 C 41.7177 -5.20498 0.270432 0
M  V30 408 C 39.0457 -5.8129 0.79493 0
M  V30 409 C 41.3977 -6.21699 1.1693 0
M  V30 410 C 40.0617 -6.51859 1.43655 0
M  V30 411 H 39.3317 -0.701236 -0.239478 0
M  V30 412 H 41.9787 -1.91307 0.0859734 0
M  V30 413 H 40.2837 -3.28989 -2.12775 0
M  V30 414 H 41.9807 -3.56038 -1.84494 0
M  V30 415 H 38.5707 -4.24579 -0.58573 0
M  V30 416 H 42.7547 -4.96229 0.0839194 0
M  V30 417 H 38.0107 -6.03005 1.00973 0
M  V30 418 H 42.1847 -6.75955 1.67504 0
M  V30 419 H 39.8117 -7.2934 2.144 0
M  V30 420 N 41.3868 0.248026 -1.55636 0
M  V30 421 C 42.3498 1.29044 -1.89421 0
M  V30 422 C 43.3498 1.41134 -0.770581 0
M  V30 423 O 44.5398 1.39854 -1.03858 0
M  V30 424 C 41.6718 2.66831 -2.12165 0
M  V30 425 H 42.8648 1.00305 -2.82629 0
M  V30 426 H 40.4178 0.487265 -1.48511 0
M  V30 427 H 41.1528 3.00711 -1.21422 0
M  V30 428 H 40.9378 2.59438 -2.93997 0
M  V30 429 H 42.4278 3.42103 -2.3949 0
M  V30 430 N 42.8649 1.48995 0.513639 0
M  V30 431 C 44.0899 1.61792 1.29762 0
M  V30 432 C 44.5149 0.284475 1.85936 0
M  V30 433 O 43.8729 -0.746185 1.65232 0
M  V30 434 C 43.9209 2.67993 2.41272 0
M  V30 435 O 43.0249 2.26287 3.44772 0
M  V30 436 H 42.3659 0.541963 0.38363 0
M  V30 437 H 44.8959 1.95097 0.616307 0
M  V30 438 H 44.9059 2.89772 2.87221 0
M  V30 439 H 43.5809 3.64791 1.9975 0
M  V30 440 H 42.1579 2.14788 3.04829 0
M  V30 441 N 44.343 -0.763751 1.37857 0
M  V30 442 C 45.306 -1.85889 1.34081 0
M  V30 443 C 46.306 -1.58949 0.243277 0
M  V30 444 O 47.496 -1.66882 0.499589 0
M  V30 445 C 44.628 -3.23176 1.08489 0
M  V30 446 H 45.821 -1.90648 2.31502 0
M  V30 447 H 43.374 -0.964367 1.23003 0
M  V30 448 H 44.109 -3.24091 0.116318 0
M  V30 449 H 43.894 -3.44124 1.8794 0
M  V30 450 H 45.384 -4.03254 1.08517 0
M  V30 451 N 45.8211 -1.22559 -0.990812 0
M  V30 452 C 46.7311 -1.01394 -2.11557 0
M  V30 453 C 47.7471 0.0383962 -1.73958 0
M  V30 454 O 48.9231 -0.154787 -2.00804 0
M  V30 455 C 45.9881 -0.596569 -3.41529 0
M  V30 456 C 45.0491 -1.72276 -3.93217 0
M  V30 457 C 44.2821 -1.32521 -5.16985 0
M  V30 458 O 44.5051 -0.204909 -5.70032 0
M  V30 459 O 43.4391 -2.14247 -5.62478 0
M  V30 460 H 47.2651 -1.95633 -2.32296 0
M  V30 461 H 44.8501 -1.01172 -1.0993 0
M  V30 462 H 46.7321 -0.374263 -4.19735 0
M  V30 463 H 45.4071 0.316939 -3.22145 0
M  V30 464 H 44.3141 -1.99961 -3.16174 0
M  V30 465 H 45.6471 -2.61421 -4.17037 0
M  V30 466 N 47.2992 1.18797 -1.03562 0
M  V30 467 C 48.2622 2.20464 -0.626769 0
M  V30 468 C 49.2622 1.57721 0.313173 0
M  V30 469 O 50.4522 1.73917 0.0992615 0
M  V30 470 C 47.5842 3.40802 0.0818498 0
M  V30 471 H 48.7772 2.58149 -1.5264 0
M  V30 472 H 46.3302 1.32593 -0.827578 0
M  V30 473 H 47.0652 3.08642 0.995518 0
M  V30 474 H 46.8502 3.8758 -0.593652 0
M  V30 475 H 48.3402 4.16092 0.354584 0
M  V30 476 N 48.7773 0.814389 1.34928 0
M  V30 477 C 49.6873 0.231978 2.3345 0
M  V30 478 C 50.7033 -0.629139 1.62228 0
M  V30 479 O 51.8793 -0.539052 1.94052 0
M  V30 480 C 48.9443 -0.603482 3.41407 0
M  V30 481 C 48.0053 0.279037 4.28392 0
M  V30 482 C 47.2383 -0.516643 5.31193 0
M  V30 483 O 47.4613 -1.75068 5.4287 0
M  V30 484 O 46.3953 0.0965652 6.01823 0
M  V30 485 H 50.2213 1.04721 2.85074 0
M  V30 486 H 47.8063 0.576343 1.37836 0
M  V30 487 H 49.6883 -1.07908 4.0735 0
M  V30 488 H 48.3633 -1.39618 2.92042 0
M  V30 489 H 47.2703 0.801948 3.65403 0
M  V30 490 H 48.6033 1.03588 4.81176 0
M  V30 491 N 50.2554 -1.46986 0.568584 0
M  V30 492 C 51.1654 -2.33942 -0.17555 0
M  V30 493 C 52.1814 -1.48891 -0.90041 0
M  V30 494 O 53.3574 -1.81794 -0.86676 0
M  V30 495 C 50.4224 -3.25811 -1.18524 0
M  V30 496 C 49.4834 -4.26757 -0.466582 0
M  V30 497 C 48.7164 -5.14236 -1.42817 0
M  V30 498 O 48.9394 -5.04379 -2.66379 0
M  V30 499 O 47.8734 -5.94412 -0.946453 0
M  V30 500 H 51.6994 -2.98896 0.538036 0
M  V30 501 H 49.2844 -1.4573 0.329097 0
M  V30 502 H 51.1664 -3.82527 -1.76779 0
M  V30 503 H 49.8414 -2.63471 -1.88055 0
M  V30 504 H 48.7484 -3.73769 0.157451 0
M  V30 505 H 50.0814 -4.91843 0.187485 0
M  V30 506 N 51.7335 -0.305618 -1.54608 0
M  V30 507 C 53.0105 0.355652 -1.92339 0
M  V30 508 C 53.3905 1.71324 -1.23335 0
M  V30 509 O 52.7385 2.25473 -0.370702 0
M  V30 510 C 52.9485 0.46572 -3.45879 0
M  V30 511 C 54.2965 0.734426 -4.182 0
M  V30 512 O 55.3205 0.54935 -3.51938 0
M  V30 513 O 54.1795 1.09024 -5.35515 0
M  V30 514 H 51.2735 0.199666 -0.802535 0
M  V30 515 H 53.8195 -0.354017 -1.65966 0
M  V30 516 H 52.5915 -0.488461 -3.88239 0
M  V30 517 H 52.2145 1.22367 -3.78301 0
M  V30 518 N 53.2116 1.57565 -0.0334293 0
M  V30 519 C 54.4596 1.91598 0.642999 0
M  V30 520 C 54.7806 0.910847 1.7242 0
M  V30 521 O 54.0506 -0.0469931 1.95844 0
M  V30 522 H 52.6306 0.707228 0.240496 0
M  V30 523 H 55.2926 1.94726 -0.0822488 0
M  V30 524 H 54.3886 2.92336 1.09298 0
M  V30 525 N 54.6897 -0.239769 1.55765 0
M  V30 526 C 55.9667 -0.990056 1.68693 0
M  V30 527 C 56.3467 -2.03107 0.5754 0
M  V30 528 O 55.6947 -2.24604 -0.42017 0
M  V30 529 C 55.9047 -1.61696 3.09282 0
M  V30 530 C 57.2527 -2.11613 3.6811 0
M  V30 531 O 58.2767 -1.71624 3.12127 0
M  V30 532 O 57.1357 -2.85057 4.66267 0
M  V30 533 H 54.2297 -0.461299 0.686391 0
M  V30 534 H 56.7757 -0.232991 1.68093 0
M  V30 535 H 55.5477 -0.864357 3.81634 0
M  V30 536 H 55.1707 -2.44005 3.13923 0
M  V30 537 N 56.1678 -1.49265 -0.50573 0
M  V30 538 C 57.0978 -1.68495 -1.61653 0
M  V30 539 C 58.0788 -0.53366 -1.61512 0
M  V30 540 O 59.2638 -0.76897 -1.78327 0
M  V30 541 C 56.3938 -1.74709 -3.00157 0
M  V30 542 C 55.3478 -2.89581 -3.15162 0
M  V30 543 C 54.6738 -2.80903 -4.5497 0
M  V30 544 C 55.9738 -4.30578 -2.95634 0
M  V30 545 H 57.6678 -2.61493 -1.45814 0
M  V30 546 H 55.2138 -1.25838 -0.70005 0
M  V30 547 H 57.1668 -1.86748 -3.77761 0
M  V30 548 H 55.8908 -0.783067 -3.17074 0
M  V30 549 H 54.5498 -2.77136 -2.39982 0
M  V30 550 H 54.1978 -1.82419 -4.68756 0
M  V30 551 H 53.8978 -3.57999 -4.65951 0
M  V30 552 H 55.4218 -2.94944 -5.34641 0
M  V30 553 H 56.8358 -4.4373 -3.63011 0
M  V30 554 H 55.2328 -5.0886 -3.18091 0
M  V30 555 H 56.3028 -4.45352 -1.91806 0
M  V30 556 N 57.6459 0.756429 -1.3826 0
M  V30 557 C 58.5779 1.87971 -1.31147 0
M  V30 558 C 59.5909 1.61248 -0.224239 0
M  V30 559 O 60.7799 1.71881 -0.481581 0
M  V30 560 C 57.8799 3.23545 -1.00857 0
M  V30 561 C 57.0529 3.77794 -2.20432 0
M  V30 562 C 56.1119 4.91877 -1.86931 0
M  V30 563 O 55.1379 5.06659 -2.59395 0
M  V30 564 N 56.3399 5.74643 -0.822568 0
M  V30 565 H 59.1049 1.94585 -2.2794 0
M  V30 566 H 56.6659 0.936234 -1.32084 0
M  V30 567 H 58.6579 3.97403 -0.765021 0
M  V30 568 H 57.2279 3.12335 -0.128687 0
M  V30 569 H 56.4479 2.95534 -2.6087 0
M  V30 570 H 57.7359 4.10771 -3.00241 0
M  V30 571 H 57.1339 5.65266 -0.221575 0
M  V30 572 H 55.6909 6.48661 -0.638899 0
M  V30 573 N 59.124 1.23083 0.984299 0
M  V30 574 C 60.364 1.07226 1.74017 0
M  V30 575 C 60.728 -0.384766 1.88105 0
M  V30 576 O 61.929 -0.664411 2.60459 0
M  V30 577 C 60.2 1.77348 3.10294 0
M  V30 578 S 61.759 1.77014 4.01512 0
M  V30 579 H 58.577 0.383819 0.598502 0
M  V30 580 H 61.179 1.56158 1.17622 0
M  V30 581 H 59.883 2.82506 2.97689 0
M  V30 582 H 59.414 1.28682 3.71759 0
M  V30 583 H 61.429 0.825956 4.89277 0
M  V30 584 N 60.6021 -1.18246 1.0419 0
M  V30 585 C 61.5321 -2.24127 0.654914 0
M  V30 586 C 62.5131 -1.66617 -0.342451 0
M  V30 587 O 63.6981 -1.92924 -0.222277 0
M  V30 588 C 60.8281 -3.47295 0.0183757 0
M  V30 589 C 59.7821 -4.17563 0.939414 0
M  V30 590 C 59.1081 -5.34438 0.167286 0
M  V30 591 C 60.4081 -4.70917 2.25908 0
M  V30 592 H 62.1021 -2.56753 1.54007 0
M  V30 593 H 59.6481 -1.23414 0.74195 0
M  V30 594 H 61.6011 -4.20572 -0.264082 0
M  V30 595 H 60.3251 -3.13907 -0.901664 0
M  V30 596 H 58.9841 -3.46186 1.20628 0
M  V30 597 H 58.6321 -4.97298 -0.7552 0
M  V30 598 H 58.3321 -5.82388 0.780901 0
M  V30 599 H 59.8561 -6.10504 -0.108125 0
M  V30 600 H 61.2701 -5.35882 2.03724 0
M  V30 601 H 59.6671 -5.29406 2.82577 0
M  V30 602 H 60.7371 -3.88272 2.9047 0
M  V30 603 N 62.0802 -0.821533 -1.34494 0
M  V30 604 C 63.3202 -0.414785 -2.00147 0
M  V30 605 C 63.6842 1.00299 -1.6372 0
M  V30 606 O 64.8852 1.51255 -2.22206 0
M  V30 607 C 63.1562 -0.609403 -3.52166 0
M  V30 608 S 64.7152 -0.295297 -4.37805 0
M  V30 609 H 61.5332 -0.15679 -0.693497 0
M  V30 610 H 64.1352 -1.06705 -1.63812 0
M  V30 611 H 62.8392 -1.64096 -3.76166 0
M  V30 612 H 62.3702 0.0576414 -3.93358 0
M  V30 613 H 64.3852 0.891531 -4.88125 0
M  V30 614 N 63.5583 1.46682 -0.576371 0
M  V30 615 C 64.8043 2.02712 -0.0596221 0
M  V30 616 C 65.1373 1.44765 1.29448 0
M  V30 617 O 64.4123 0.610355 1.84675 0
M  V30 618 C 64.6953 3.60098 0.0129503 0
M  V30 619 C 64.5483 4.28441 -1.3696 0
M  V30 620 C 65.8673 4.34224 0.71678 0
M  V30 621 H 62.9863 0.736637 -0.0231407 0
M  V30 622 H 65.6283 1.74898 -0.742351 0
M  V30 623 H 63.7783 3.83926 0.594378 0
M  V30 624 H 65.4503 4.15896 -1.9957 0
M  V30 625 H 63.6933 3.8805 -1.93907 0
M  V30 626 H 64.3643 5.3716 -1.27135 0
M  V30 627 H 66.8403 4.15503 0.222908 0
M  V30 628 H 65.7163 5.43936 0.73657 0
M  V30 629 H 65.9773 4.04823 1.77682 0
M  V30 630 N 65.0364 0.313813 1.54444 0
M  V30 631 C 65.9834 -0.55655 2.23989 0
M  V30 632 C 66.9534 -1.11943 1.22711 0
M  V30 633 O 68.1384 -1.16158 1.51367 0
M  V30 634 C 65.2784 -1.71635 2.99392 0
M  V30 635 C 64.3914 -1.18364 4.15468 0
M  V30 636 C 63.5264 -2.30834 4.78424 0
M  V30 637 C 62.5654 -1.74762 5.86622 0
M  V30 638 N 61.7024 -2.80855 6.43479 0
M  V30 639 H 66.5424 0.0430893 2.97969 0
M  V30 640 H 64.0794 0.0330359 1.47063 0
M  V30 641 H 66.0374 -2.39868 3.41349 0
M  V30 642 H 64.6674 -2.28742 2.27765 0
M  V30 643 H 63.7194 -0.393163 3.78363 0
M  V30 644 H 65.0314 -0.733262 4.93381 0
M  V30 645 H 64.1854 -3.0699 5.23299 0
M  V30 646 H 62.9244 -2.79204 3.99871 0
M  V30 647 H 61.9294 -0.970995 5.41158 0
M  V30 648 H 63.1544 -1.2728 6.67066 0
M  V30 649 H 61.1004 -3.28535 5.67804 0
M  V30 650 H 61.0174 -2.40351 7.16776 0
M  V30 651 H 62.2854 -3.5687 6.93011 0
M  V30 652 N 66.5145 -1.57545 0.0417849 0
M  V30 653 C 67.7425 -1.96624 -0.643928 0
M  V30 654 C 68.1575 -0.918897 -1.64929 0
M  V30 655 O 67.5145 0.0979323 -1.82237 0
M  V30 656 C 67.5655 -3.35781 -1.33914 0
M  V30 657 O 67.2865 -4.365 -0.374048 0
M  V30 658 C 68.7875 -3.89566 -2.1155 0
M  V30 659 H 66.0075 -0.647316 -0.176702 0
M  V30 660 H 68.5515 -2.04229 0.105304 0
M  V30 661 H 66.7065 -3.29357 -2.03968 0
M  V30 662 H 67.1205 -5.17248 -0.869179 0
M  V30 663 H 68.5945 -4.89242 -2.55628 0
M  V30 664 H 69.0715 -3.24488 -2.9598 0
M  V30 665 H 69.6775 -3.99298 -1.46427 0
M  V30 666 N 67.9926 0.231505 -1.5589 0
M  V30 667 C 69.2206 0.974505 -1.82513 0
M  V30 668 C 69.6356 1.78344 -0.619591 0
M  V30 669 O 68.9926 1.77792 0.411848 0
M  V30 670 C 69.0436 1.90007 -3.07538 0
M  V30 671 O 68.7646 1.12385 -4.2344 0
M  V30 672 C 70.2656 2.75779 -3.47075 0
M  V30 673 H 67.4856 0.286065 -0.606966 0
M  V30 674 H 70.0296 0.249739 -2.02969 0
M  V30 675 H 68.1846 2.57891 -2.89086 0
M  V30 676 H 68.5986 1.75125 -4.944 0
M  V30 677 H 70.0726 3.36443 -4.37619 0
M  V30 678 H 70.5496 3.47672 -2.68367 0
M  V30 679 H 71.1556 2.13323 -3.67931 0
M  V30 680 N 69.4707 1.49531 0.497807 0
M  V30 681 C 70.6957 1.63159 1.28039 0
M  V30 682 C 71.1207 0.30418 1.85624 0
M  V30 683 O 70.4787 -0.728618 1.66015 0
M  V30 684 C 70.5267 2.70537 2.38416 0
M  V30 685 O 69.6307 2.29931 3.42353 0
M  V30 686 H 68.9717 0.546001 0.377861 0
M  V30 687 H 71.5017 1.9574 0.59558 0
M  V30 688 H 71.5117 2.92802 2.84132 0
M  V30 689 H 70.1867 3.6689 1.95869 0
M  V30 690 H 68.7637 2.18009 3.02533 0
M  V30 691 N 70.9488 -0.749086 1.3866 0
M  V30 692 C 71.8808 -1.87273 1.32142 0
M  V30 693 C 72.8938 -1.61127 0.232787 0
M  V30 694 O 74.0828 -1.71623 0.49069 0
M  V30 695 C 71.1828 -3.23005 1.02571 0
M  V30 696 C 70.3558 -3.7662 2.22433 0
M  V30 697 C 69.4148 -4.90879 1.89537 0
M  V30 698 O 68.4408 -5.05276 2.62078 0
M  V30 699 N 69.6428 -5.74198 0.853031 0
M  V30 700 H 72.4078 -1.93373 2.28969 0
M  V30 701 H 69.9688 -0.929216 1.32579 0
M  V30 702 H 71.9608 -3.96992 0.786085 0
M  V30 703 H 70.5308 -3.12262 0.145249 0
M  V30 704 H 69.7508 -2.94147 2.62434 0
M  V30 705 H 71.0388 -4.09173 3.02415 0
M  V30 706 H 70.4368 -5.6514 0.25155 0
M  V30 707 H 68.9938 -6.48313 0.67329 0
M  V30 708 N 72.4269 -1.23603 -0.977757 0
M  V30 709 C 73.6729 -1.07129 -1.72195 0
M  V30 710 C 74.0059 0.390501 -1.90233 0
M  V30 711 O 73.2809 1.28902 -1.45653 0
M  V30 712 C 73.5639 -1.80031 -3.11867 0
M  V30 713 C 73.4169 -3.33899 -3.01383 0
M  V30 714 C 74.7359 -1.56492 -4.11337 0
M  V30 715 H 71.8549 -0.390571 -0.624999 0
M  V30 716 H 74.4969 -1.52142 -1.13811 0
M  V30 717 H 72.6469 -1.41768 -3.6171 0
M  V30 718 H 74.3189 -3.81699 -2.59043 0
M  V30 719 H 72.5619 -3.62796 -2.37827 0
M  V30 720 H 73.2329 -3.801 -4.00285 0
M  V30 721 H 75.7089 -1.89757 -3.70313 0
M  V30 722 H 74.5849 -2.09973 -5.07151 0
M  V30 723 H 74.8459 -0.500874 -4.39254 0
M  V30 724 N 73.905 1.17692 -1.04816 0
M  V30 725 C 75.321 1.39863 -0.768794 0
M  V30 726 C 75.521 1.91118 0.638451 0
M  V30 727 O 74.577 2.10036 1.40146 0
M  V30 728 C 75.89 2.39274 -1.82122 0
M  V30 729 C 77.438 2.52987 -1.843 0
M  V30 730 C 77.913 3.55669 -2.88555 0
M  V30 731 N 79.404 3.63183 -2.87493 0
M  V30 732 C 80.139 4.42381 -3.64811 0
M  V30 733 N 79.635 5.25125 -4.51903 0
M  V30 734 N 81.428 4.37217 -3.53267 0
M  V30 735 H 73.579 0.82752 -1.95617 0
M  V30 736 H 75.842 0.426123 -0.846831 0
M  V30 737 H 75.548 2.08678 -2.83102 0
M  V30 738 H 75.422 3.38725 -1.65967 0
M  V30 739 H 77.809 2.82896 -0.839869 0
M  V30 740 H 77.89 1.53623 -2.04532 0
M  V30 741 H 77.534 3.26499 -3.89051 0
M  V30 742 H 77.464 4.54728 -2.65575 0
M  V30 743 H 79.955 3.04103 -2.24343 0
M  V30 744 H 80.268 5.82728 -5.07591 0
M  V30 745 H 78.613 5.24519 -4.55966 0
M  V30 746 H 81.804 3.71626 -2.84625 0
M  V30 747 H 81.977 4.98696 -4.13771 0
M  V30 748 N 75.3831 0.828654 1.34056 0
M  V30 749 C 76.7941 0.477534 1.8049 0
M  V30 750 C 77.1451 -1.00258 1.6865 0
M  V30 751 O 76.2701 -1.78057 1.22982 0
M  V30 752 C 76.8651 0.860018 3.27703 0
M  V30 753 C 75.4241 0.561185 3.72193 0
M  V30 754 C 74.5711 1.07385 2.55663 0
M  V30 755 H 77.5221 1.0183 1.21722 0
M  V30 756 H 77.5431 0.166038 3.80138 0
M  V30 757 H 77.0551 1.93731 3.36288 0
M  V30 758 H 75.1561 -0.506465 3.69142 0
M  V30 759 H 75.2691 1.10926 4.66082 0
M  V30 760 H 73.6331 0.495149 2.49841 0
M  V30 761 H 74.4161 2.15771 2.67016 0
M  V30 762 N 76.8612 -1.46375 0.584142 0
M  V30 763 C 78.2772 -1.57694 0.245929 0
M  V30 764 C 78.4772 -1.57903 -1.25175 0
M  V30 765 O 77.5332 -1.49676 -2.03355 0
M  V30 766 C 78.8462 -2.87028 0.896402 0
M  V30 767 C 80.3942 -3.00662 0.870127 0
M  V30 768 C 80.8692 -4.32734 1.50017 0
M  V30 769 N 82.3602 -4.39436 1.46458 0
M  V30 770 C 83.0952 -5.40248 1.92144 0
M  V30 771 N 82.5912 -6.47726 2.4581 0
M  V30 772 N 84.3842 -5.31459 1.83052 0
M  V30 773 H 76.5352 -1.44483 1.55687 0
M  V30 774 H 78.7982 -0.689291 0.650831 0
M  V30 775 H 78.5042 -2.9269 1.95002 0
M  V30 776 H 78.3782 -3.75014 0.405486 0
M  V30 777 H 80.7652 -2.94581 -0.174871 0
M  V30 778 H 80.8462 -2.14148 1.39908 0
M  V30 779 H 80.4902 -4.39573 2.54437 0
M  V30 780 H 80.4202 -5.18025 0.946432 0
M  V30 781 H 82.9112 -3.62367 1.07231 0
M  V30 782 H 83.2242 -7.20863 2.78525 0
M  V30 783 H 81.5692 -6.48542 2.49836 0
M  V30 784 H 84.7602 -4.46396 1.40883 0
M  V30 785 H 84.9332 -6.09881 2.18973 0
M  V30 786 N 78.3393 -0.321999 -1.54275 0
M  V30 787 C 79.2893 0.560185 -2.21011 0
M  V30 788 C 80.2733 1.08283 -1.19011 0
M  V30 789 O 81.4653 1.02011 -1.44647 0
M  V30 790 C 78.5943 1.72137 -2.97025 0
M  V30 791 C 77.6803 1.21369 -4.06363 0
M  V30 792 N 78.0713 0.425566 -5.04007 0
M  V30 793 C 76.3693 1.49255 -4.20284 0
M  V30 794 C 77.0703 0.152601 -5.815 0
M  V30 795 N 76.0463 0.738294 -5.38563 0
M  V30 796 H 79.8483 -0.049265 -2.93859 0
M  V30 797 H 77.3623 -0.127779 -1.61897 0
M  V30 798 H 79.3593 2.36512 -3.43319 0
M  V30 799 H 78.0193 2.33431 -2.25699 0
M  V30 800 H 79.0303 0.068551 -5.17855 0
M  V30 801 H 75.7073 2.11145 -3.60172 0
M  V30 802 H 77.0973 -0.481764 -6.70171 0
M  V30 803 N 79.8174 1.5752 -0.0501392 0
M  V30 804 C 81.0664 1.91827 0.623328 0
M  V30 805 C 81.3794 0.930222 1.72065 0
M  V30 806 O 82.5854 1.1653 2.4522 0
M  V30 807 C 81.0414 3.40692 1.16003 0
M  V30 808 C 80.6494 4.479 0.0948811 0
M  V30 809 C 82.3934 3.84034 1.80881 0
M  V30 810 C 80.3004 5.87879 0.644411 0
M  V30 811 H 79.2304 0.715918 0.236596 0
M  V30 812 H 81.8814 1.83115 -0.118861 0
M  V30 813 H 80.2634 3.44405 1.9545 0
M  V30 814 H 81.4374 4.55775 -0.678675 0
M  V30 815 H 79.7524 4.13892 -0.45637 0
M  V30 816 H 82.3494 4.85984 2.22988 0
M  V30 817 H 82.6924 3.20225 2.6601 0
M  V30 818 H 83.2254 3.82833 1.0809 0
M  V30 819 H 79.9644 6.55282 -0.169229 0
M  V30 820 H 79.4844 5.83567 1.38598 0
M  V30 821 H 81.1634 6.37098 1.12763 0
M  V30 822 N 81.2955 -0.223234 1.56011 0
M  V30 823 C 82.5235 -0.964812 1.83027 0
M  V30 824 C 82.9385 -1.78013 0.62904 0
M  V30 825 O 82.2955 -1.78008 -0.402414 0
M  V30 826 C 82.3465 -1.88373 3.08542 0
M  V30 827 O 82.0675 -1.10137 4.2403 0
M  V30 828 C 83.5685 -2.73934 3.48533 0
M  V30 829 H 80.7885 -0.282842 0.608475 0
M  V30 830 H 83.3325 -0.238971 2.03099 0
M  V30 831 H 81.4875 -2.56354 2.9045 0
M  V30 832 H 81.9015 -1.72501 4.95322 0
M  V30 833 H 83.3755 -3.34117 4.39397 0
M  V30 834 H 83.8525 -3.46244 2.70207 0
M  V30 835 H 84.4585 -2.11369 3.69057 0
M  V30 836 N 82.7736 -1.49793 -0.48987 0
M  V30 837 C 83.9986 -1.63836 -1.27172 0
M  V30 838 C 84.4236 -0.31402 -1.8546 0
M  V30 839 O 83.7816 0.719803 -1.66399 0
M  V30 840 C 83.8296 -2.71797 -2.36978 0
M  V30 841 O 82.9336 -2.31744 -3.41128 0
M  V30 842 H 82.2746 -0.547997 -0.37496 0
M  V30 843 H 84.8046 -1.96053 -0.585191 0
M  V30 844 H 84.8146 -2.94305 -2.82575 0
M  V30 845 H 83.4896 -3.67923 -1.93921 0
M  V30 846 H 82.0666 -2.1961 -3.01373 0
M  V30 847 N 84.2517 0.741722 -1.39055 0
M  V30 848 C 85.1817 1.869 -1.39966 0
M  V30 849 C 86.1627 1.6804 -0.26392 0
M  V30 850 O 87.3477 1.88458 -0.468755 0
M  V30 851 C 84.4777 3.24572 -1.23574 0
M  V30 852 C 83.4317 3.58056 -2.34477 0
M  V30 853 C 82.7577 4.94593 -2.0318 0
M  V30 854 C 84.0577 3.61716 -3.76774 0
M  V30 855 H 85.7517 1.86395 -2.34302 0
M  V30 856 H 83.2977 0.895361 -1.1278 0
M  V30 857 H 85.2507 4.031 -1.22834 0
M  V30 858 H 83.9747 3.25587 -0.257045 0
M  V30 859 H 82.6337 2.81854 -2.34423 0
M  V30 860 H 82.2817 4.92181 -1.03765 0
M  V30 861 H 81.9817 5.17964 -2.77465 0
M  V30 862 H 83.5057 5.75486 -2.04079 0
M  V30 863 H 84.9197 4.30335 -3.78794 0
M  V30 864 H 83.3167 3.96603 -4.50362 0
M  V30 865 H 84.3867 2.61672 -4.08235 0
M  V30 866 N 85.7298 1.2412 0.971189 0
M  V30 867 C 86.6398 1.04747 2.09917 0
M  V30 868 C 87.6558 -0.0107162 1.73997 0
M  V30 869 O 88.8318 0.186714 2.00533 0
M  V30 870 C 85.8968 0.650828 3.40537 0
M  V30 871 C 84.9578 1.7851 3.90426 0
M  V30 872 C 84.1908 1.40729 5.14812 0
M  V30 873 O 84.4138 0.29557 5.69634 0
M  V30 874 O 83.3478 2.23168 5.58999 0
M  V30 875 H 87.1738 1.99304 2.29154 0
M  V30 876 H 84.7588 1.02908 1.08307 0
M  V30 877 H 86.6408 0.440992 4.19086 0
M  V30 878 H 85.3158 -0.265649 3.22608 0
M  V30 879 H 84.2228 2.04966 3.12953 0
M  V30 880 H 85.5558 2.68023 4.12825 0
M  V30 881 N 87.2079 -1.17134 1.05439 0
M  V30 882 C 88.4539 -1.87733 0.767077 0
M  V30 883 C 88.7869 -1.8098 -0.704253 0
M  V30 884 O 88.0619 -1.21951 -1.5152 0
M  V30 885 C 88.3449 -3.37659 1.25133 0
M  V30 886 C 88.1979 -3.53149 2.78578 0
M  V30 887 C 89.5169 -4.31768 0.852324 0
M  V30 888 H 86.6359 -0.681687 0.280129 0
M  V30 889 H 89.2779 -1.37732 1.30881 0
M  V30 890 H 87.4279 -3.80373 0.790469 0
M  V30 891 H 89.0999 -3.19434 3.32806 0
M  V30 892 H 87.3429 -2.95345 3.17732 0
M  V30 893 H 88.0139 -4.58403 3.07523 0
M  V30 894 H 90.4899 -3.96909 1.24911 0
M  V30 895 H 89.3659 -5.35199 1.21873 0
M  V30 896 H 89.6269 -4.41429 -0.243485 0
M  V30 897 N 88.686 -0.835752 -1.33615 0
M  V30 898 C 89.935 -0.426289 -1.97144 0
M  V30 899 C 90.248 1.01912 -1.66953 0
M  V30 900 O 91.454 1.53311 -2.24072 0
M  V30 901 C 89.91 -0.711321 -3.52801 0
M  V30 902 C 89.518 -2.1712 -3.91871 0
M  V30 903 C 91.262 -0.368654 -4.22896 0
M  V30 904 C 89.169 -2.40044 -5.40493 0
M  V30 905 H 88.099 -0.15567 -0.737755 0
M  V30 906 H 90.75 -1.0239 -1.52278 0
M  V30 907 H 89.132 -0.0433766 -3.95976 0
M  V30 908 H 90.306 -2.87936 -3.59763 0
M  V30 909 H 88.621 -2.47654 -3.34749 0
M  V30 910 H 91.218 -0.517601 -5.32189 0
M  V30 911 H 91.561 0.688078 -4.10574 0
M  V30 912 H 92.094 -0.991702 -3.8524 0
M  V30 913 H 88.833 -3.44271 -5.57815 0
M  V30 914 H 88.353 -1.73785 -5.74072 0
M  V30 915 H 90.032 -2.23042 -6.0734 0
M  V30 916 N 90.1641 1.46063 -0.591896 0
M  V30 917 C 91.1111 2.30399 0.136069 0
M  V30 918 C 92.0811 1.41169 0.875238 0
M  V30 919 O 93.2661 1.70112 0.86409 0
M  V30 920 C 90.4061 3.25804 1.13781 0
M  V30 921 C 89.5191 4.30134 0.401137 0
M  V30 922 C 88.6541 5.12659 1.39121 0
M  V30 923 C 87.6931 6.0873 0.641462 0
M  V30 924 N 86.8301 6.8409 1.58004 0
M  V30 925 H 91.6701 2.92118 -0.589144 0
M  V30 926 H 89.2071 1.43959 -0.302342 0
M  V30 927 H 91.1651 3.79569 1.73156 0
M  V30 928 H 89.7951 2.65872 1.83062 0
M  V30 929 H 88.8471 3.79152 -0.307826 0
M  V30 930 H 90.1591 4.98458 -0.184565 0
M  V30 931 H 89.3131 5.70747 2.05749 0
M  V30 932 H 88.0521 4.44316 2.01084 0
M  V30 933 H 87.0571 5.49786 -0.0385419 0
M  V30 934 H 88.2821 6.79095 0.0270945 0
M  V30 935 H 86.2281 6.18449 2.18761 0
M  V30 936 H 86.1451 7.48709 1.04738 0
M  V30 937 H 87.4131 7.4673 2.23639 0
M  V30 938 N 91.6422 0.330177 1.54103 0
M  V30 939 C 92.6052 -0.520144 2.2322 0
M  V30 940 C 93.6052 -1.03828 1.22786 0
M  V30 941 O 94.7952 -0.929652 1.4732 0
M  V30 942 C 91.9272 -1.72317 2.94142 0
M  V30 943 H 93.1202 0.0841605 2.99782 0
M  V30 944 H 90.6732 0.0813433 1.56088 0
M  V30 945 H 91.4082 -2.36653 2.21734 0
M  V30 946 H 91.1932 -1.35898 3.67796 0
M  V30 947 H 92.6832 -2.3266 3.46784 0
M  V30 948 N 93.1203 -1.57491 0.0584922 0
M  V30 949 C 94.3683 -1.92597 -0.612436 0
M  V30 950 C 94.6893 -0.938162 -1.70949 0
M  V30 951 O 93.9593 0.0158301 -1.95894 0
M  V30 952 H 92.5393 -0.710964 -0.229214 0
M  V30 953 H 95.2013 -1.94571 0.113218 0
M  V30 954 H 94.2973 -2.94038 -1.04633 0
M  V30 955 N 94.5984 0.214957 -1.56127 0
M  V30 956 C 96.0094 0.781386 -1.69562 0
M  V30 957 C 96.3604 1.84707 -0.66165 0
M  V30 958 O 95.4854 2.156 0.185927 0
M  V30 959 C 96.0804 1.42411 -3.07416 0
M  V30 960 C 94.6394 1.93786 -3.22683 0
M  V30 961 C 93.7864 0.800438 -2.65496 0
M  V30 962 H 96.7374 -0.00980633 -1.58697 0
M  V30 963 H 96.7584 2.29309 -3.0364 0
M  V30 964 H 96.2704 0.64826 -3.82648 0
M  V30 965 H 94.3714 2.74152 -2.52332 0
M  V30 966 H 94.4844 2.1133 -4.29973 0
M  V30 967 H 92.8484 1.2095 -2.2415 0
M  V30 968 H 93.6314 0.0371471 -3.4328 0
M  V30 969 N 96.0765 1.50051 0.48192 0
M  V30 970 C 97.0265 1.64512 1.5786 0
M  V30 971 C 98.0105 0.500073 1.52932 0
M  V30 972 O 99.2025 0.753964 1.60139 0
M  V30 973 C 96.3315 1.73263 2.9637 0
M  V30 974 C 95.4175 2.93409 3.06222 0
M  V30 975 N 95.8085 4.17236 2.85915 0
M  V30 976 C 94.1065 2.91742 3.37346 0
M  V30 977 C 94.8075 4.981 3.00451 0
M  V30 978 N 93.7835 4.3184 3.30174 0
M  V30 979 H 97.5855 2.57955 1.40842 0
M  V30 980 H 95.0995 1.47086 0.688439 0
M  V30 981 H 97.0965 1.81724 3.75209 0
M  V30 982 H 95.7565 0.809711 3.14442 0
M  V30 983 H 96.7675 4.46909 2.6171 0
M  V30 984 H 93.4445 2.08907 3.61475 0
M  V30 985 H 94.8345 6.06532 2.89082 0
M  V30 986 N 97.5546 -0.734337 1.39446 0
M  V30 987 C 98.7946 -1.50655 1.38139 0
M  V30 988 C 99.1586 -1.91986 -0.0228701 0
M  V30 989 O 100.36 -2.68318 -0.160947 0
M  V30 990 C 98.6306 -2.71251 2.32718 0
M  V30 991 S 100.19 -3.60892 2.49605 0
M  V30 992 H 97.0076 -0.515315 0.489869 0
M  V30 993 H 99.6096 -0.860392 1.75549 0
M  V30 994 H 98.3136 -2.39027 3.33608 0
M  V30 995 H 97.8446 -3.40795 1.96526 0
M  V30 996 H 99.8596 -4.64899 1.73446 0
M  V30 997 N 99.0327 -1.24633 -0.964593 0
M  V30 998 C 100.444 -1.08045 -1.5226 0
M  V30 999 C 100.795 0.347116 -1.93105 0
M  V30 1000 O 99.9197 1.23588 -1.77637 0
M  V30 1001 C 100.515 -1.95514 -2.76695 0
M  V30 1002 C 99.0737 -1.8314 -3.28841 0
M  V30 1003 C 98.2207 -1.90262 -2.01732 0
M  V30 1004 H 101.172 -1.38064 -0.782553 0
M  V30 1005 H 101.193 -1.48925 -3.50145 0
M  V30 1006 H 100.705 -2.99407 -2.46936 0
M  V30 1007 H 98.8057 -0.82092 -3.63444 0
M  V30 1008 H 98.9187 -2.67406 -3.97531 0
M  V30 1009 H 97.2827 -1.34027 -2.16584 0
M  V30 1010 H 98.0657 -2.9574 -1.74334 0
M  V30 1011 N 100.511 1.16574 -1.06058 0
M  V30 1012 C 101.739 1.90952 -0.796552 0
M  V30 1013 C 102.154 1.77302 0.648808 0
M  V30 1014 O 101.511 1.11605 1.44397 0
M  V30 1015 C 101.562 3.41736 -1.17894 0
M  V30 1016 O 101.283 3.54975 -2.56758 0
M  V30 1017 C 102.784 4.33169 -0.942308 0
M  V30 1018 H 100.004 0.605594 -0.288959 0
M  V30 1019 H 102.548 1.47777 -1.41358 0
M  V30 1020 H 100.703 3.82623 -0.606491 0
M  V30 1021 H 101.117 4.4846 -2.72 0
M  V30 1022 H 102.591 5.37439 -1.25952 0
M  V30 1023 H 103.068 4.3903 0.122078 0
M  V30 1024 H 103.674 3.98007 -1.49902 0
M  V30 1025 N 101.989 0.842826 1.3317 0
M  V30 1026 C 102.952 0.284065 2.27433 0
M  V30 1027 C 103.952 -0.54948 1.5112 0
M  V30 1028 O 105.142 -0.362699 1.70382 0
M  V30 1029 C 102.274 -0.599384 3.35589 0
M  V30 1030 H 103.467 1.11589 2.78366 0
M  V30 1031 H 101.02 0.616221 1.4364 0
M  V30 1032 H 101.755 -1.45349 2.89904 0
M  V30 1033 H 101.54 -0.00291266 3.921 0
M  V30 1034 H 103.03 -0.983488 4.05854 0
M  V30 1035 N 103.467 -1.45747 0.599634 0
M  V30 1036 C 104.399 -2.28628 -0.161879 0
M  V30 1037 C 105.412 -1.39494 -0.839367 0
M  V30 1038 O 106.601 -1.63941 -0.706089 0
M  V30 1039 C 103.701 -3.15014 -1.24976 0
M  V30 1040 C 102.874 -4.32378 -0.660935 0
M  V30 1041 C 101.933 -5.00033 -1.63869 0
M  V30 1042 O 100.959 -5.57085 -1.1681 0
M  V30 1043 N 102.161 -4.98589 -2.97303 0
M  V30 1044 H 104.926 -2.94624 0.549265 0
M  V30 1045 H 102.487 -1.55847 0.438565 0
M  V30 1046 H 104.479 -3.5714 -1.9035 0
M  V30 1047 H 103.049 -2.5098 -1.86354 0
M  V30 1048 H 102.269 -3.9383 0.170688 0
M  V30 1049 H 103.557 -5.08197 -0.247619 0
M  V30 1050 H 102.955 -4.53514 -3.38145 0
M  V30 1051 H 101.512 -5.44603 -3.58121 0
M  V30 1052 N 104.945 -0.338344 -1.53925 0
M  V30 1053 C 105.875 0.51328 -2.27789 0
M  V30 1054 C 106.856 1.107 -1.29149 0
M  V30 1055 O 108.041 1.12937 -1.57984 0
M  V30 1056 C 105.171 1.66697 -3.04679 0
M  V30 1057 C 104.125 1.20183 -4.1078 0
M  V30 1058 C 103.451 2.44363 -4.75595 0
M  V30 1059 C 104.751 0.30605 -5.21403 0
M  V30 1060 H 106.445 -0.102883 -2.99223 0
M  V30 1061 H 103.991 -0.0509219 -1.4391 0
M  V30 1062 H 105.944 2.26915 -3.55088 0
M  V30 1063 H 104.668 2.30995 -2.30887 0
M  V30 1064 H 103.327 0.622499 -3.61276 0
M  V30 1065 H 102.975 3.07057 -3.98403 0
M  V30 1066 H 102.675 2.13925 -5.47275 0
M  V30 1067 H 104.199 3.05317 -5.28786 0
M  V30 1068 H 105.613 0.814929 -5.67478 0
M  V30 1069 H 104.01 0.0937929 -6.00027 0
M  V30 1070 H 105.08 -0.65921 -4.80398 0
M  V30 1071 N 106.423 1.57458 -0.0668435 0
M  V30 1072 C 107.672 1.92477 0.602947 0
M  V30 1073 C 107.985 0.948419 1.71068 0
M  V30 1074 O 109.191 1.19124 2.43971 0
M  V30 1075 C 107.647 3.41903 1.12383 0
M  V30 1076 C 107.255 4.47975 0.04737 0
M  V30 1077 C 108.999 3.85931 1.76797 0
M  V30 1078 C 106.906 5.88529 0.582022 0
M  V30 1079 H 105.836 0.718387 0.22899 0
M  V30 1080 H 108.487 1.82978 -0.138276 0
M  V30 1081 H 106.869 3.46459 1.91787 0
M  V30 1082 H 108.043 4.55029 -0.726978 0
M  V30 1083 H 106.358 4.13384 -0.500243 0
M  V30 1084 H 108.955 4.88322 2.17821 0
M  V30 1085 H 109.298 3.23029 2.62599 0
M  V30 1086 H 109.831 3.83958 1.04024 0
M  V30 1087 H 106.57 6.55065 -0.238721 0
M  V30 1088 H 106.09 5.85004 1.324 0
M  V30 1089 H 107.769 6.38258 1.05999 0
M  V30 1090 N 107.901 -0.206675 1.56239 0
M  V30 1091 C 108.864 -1.23976 1.92776 0
M  V30 1092 C 109.864 -1.39041 0.807729 0
M  V30 1093 O 111.054 -1.37051 1.0753 0
M  V30 1094 C 108.186 -2.61112 2.19165 0
M  V30 1095 H 109.379 -0.927764 2.85189 0
M  V30 1096 H 106.932 -0.447718 1.4975 0
M  V30 1097 H 107.667 -2.97386 1.29352 0
M  V30 1098 H 107.452 -2.51552 3.00772 0
M  V30 1099 H 108.942 -3.35633 2.48476 0
M  V30 1100 N 109.379 -1.50304 -0.473955 0
M  V30 1101 C 110.607 -1.64902 -1.24959 0
M  V30 1102 C 111.022 -0.331198 -1.85872 0
M  V30 1103 O 110.379 0.68652 -1.69095 0
M  V30 1104 C 110.43 -2.73803 -2.36038 0
M  V30 1105 O 110.151 -4.00477 -1.77624 0
M  V30 1106 C 111.652 -2.99349 -3.26964 0
M  V30 1107 H 108.872 -0.554383 -0.378022 0
M  V30 1108 H 111.416 -1.9651 -0.566054 0
M  V30 1109 H 109.571 -2.44898 -3.00173 0
M  V30 1110 H 109.985 -4.60678 -2.5075 0
M  V30 1111 H 111.459 -3.79217 -4.01121 0
M  V30 1112 H 111.936 -2.10307 -3.85574 0
M  V30 1113 H 112.542 -3.29774 -2.68569 0
M  V30 1114 N 110.857 0.726932 -1.39834 0
M  V30 1115 C 111.787 1.85405 -1.41941 0
M  V30 1116 C 112.768 1.67751 -0.281728 0
M  V30 1117 O 113.953 1.8795 -0.488717 0
M  V30 1118 C 111.083 3.23243 -1.2701 0
M  V30 1119 C 110.037 3.55549 -2.38262 0
M  V30 1120 C 109.363 4.9241 -2.08415 0
M  V30 1121 C 110.663 3.577 -3.80589 0
M  V30 1122 H 112.357 1.83899 -2.36266 0
M  V30 1123 H 109.903 0.883349 -1.13723 0
M  V30 1124 H 111.856 4.01775 -1.27103 0
M  V30 1125 H 110.58 3.25296 -0.291564 0
M  V30 1126 H 109.239 2.79351 -2.37399 0
M  V30 1127 H 108.887 4.91052 -1.0898 0
M  V30 1128 H 108.587 5.14992 -2.82943 0
M  V30 1129 H 110.111 5.73289 -2.10171 0
M  V30 1130 H 111.525 4.26293 -3.83337 0
M  V30 1131 H 109.922 3.91804 -4.54543 0
M  V30 1132 H 110.992 2.57328 -4.10987 0
M  V30 1133 N 112.336 1.25143 0.95797 0
M  V30 1134 C 113.283 1.05235 2.05412 0
M  V30 1135 C 114.253 -0.0374561 1.66058 0
M  V30 1136 O 115.438 0.119073 1.90428 0
M  V30 1137 C 112.578 0.673589 3.38462 0
M  V30 1138 C 111.691 1.8379 3.90954 0
M  V30 1139 C 110.826 1.40381 5.12315 0
M  V30 1140 C 109.865 2.53746 5.57027 0
M  V30 1141 N 109.002 2.11136 6.69601 0
M  V30 1142 H 113.842 1.99048 2.21774 0
M  V30 1143 H 111.379 0.991277 1.08683 0
M  V30 1144 H 113.337 0.434964 4.14926 0
M  V30 1145 H 111.967 -0.227554 3.21997 0
M  V30 1146 H 111.019 2.18992 3.11041 0
M  V30 1147 H 112.331 2.68937 4.20089 0
M  V30 1148 H 111.485 1.12464 5.96185 0
M  V30 1149 H 110.224 0.523015 4.84887 0
M  V30 1150 H 109.229 2.82412 4.71724 0
M  V30 1151 H 110.454 3.42398 5.86464 0
M  V30 1152 H 108.4 1.25468 6.4389 0
M  V30 1153 H 108.317 2.89832 6.98236 0
M  V30 1154 H 109.585 1.86385 7.56889 0
M  V30 1155 N 113.814 -1.1601 1.06675 0
M  V30 1156 C 114.762 -2.22586 0.675157 0
M  V30 1157 C 115.756 -1.66525 -0.310766 0
M  V30 1158 O 116.962 -1.79145 -0.175215 0
M  V30 1159 H 113.337 -0.724855 0.200223 0
M  V30 1160 H 115.308 -2.52899 1.58381 0
M  V30 1161 C 114.057 -3.47604 0.0817162 0
M  V30 1162 H 113.38 -3.91058 0.831484 0
M  V30 1163 H 114.82 -4.23718 -0.154708 0
M  V30 1164 C 113.279 -3.15718 -1.17576 0
M  V30 1165 O 113.809 -3.31878 -2.26318 0
M  V30 1166 N 112.015 -2.69816 -1.07923 0
M  V30 1167 H 111.562 -2.56866 -0.194293 0
M  V30 1168 H 111.52 -2.48855 -1.92141 0
M  V30 1169 N 115.292 -0.849877 -1.32721 0
M  V30 1170 C 116.54 -0.450032 -1.97026 0
M  V30 1171 C 116.861 0.996604 -1.67609 0
M  V30 1172 O 116.131 1.6958 -0.980786 0
M  V30 1173 H 114.711 -0.163426 -0.728904 0
M  V30 1174 H 117.373 -1.08526 -1.6189 0
M  V30 1175 H 116.469 -0.591146 -3.0645 0
M  V30 1176 N 116.77 1.45427 -0.607355 0
M  V30 1177 C 118.186 1.57283 -0.270985 0
M  V30 1178 C 118.386 1.59875 1.22647 0
M  V30 1179 O 117.442 1.52893 2.00948 0
M  V30 1180 C 118.755 2.85566 -0.941952 0
M  V30 1181 C 120.303 2.9924 -0.917849 0
M  V30 1182 C 120.778 4.30293 -1.56882 0
M  V30 1183 N 122.269 4.37051 -1.5343 0
M  V30 1184 C 123.004 5.37123 -2.00715 0
M  V30 1185 N 122.5 6.43734 -2.56084 0
M  V30 1186 N 124.293 5.28479 -1.91484 0
M  V30 1187 H 116.444 1.41988 -1.57966 0
M  V30 1188 H 118.707 0.67885 -0.661715 0
M  V30 1189 H 118.413 2.8955 -1.99633 0
M  V30 1190 H 118.287 3.74322 -0.465096 0
M  V30 1191 H 120.674 2.94822 0.127984 0
M  V30 1192 H 120.755 2.11895 -1.43297 0
M  V30 1193 H 120.399 4.35469 -2.61398 0
M  V30 1194 H 120.329 5.16454 -1.02873 0
M  V30 1195 H 122.82 3.60615 -1.12982 0
M  V30 1196 H 123.133 7.16341 -2.89958 0
M  V30 1197 H 121.478 6.44485 -2.60122 0
M  V30 1198 H 124.669 4.44098 -1.47967 0
M  V30 1199 H 124.842 6.0632 -2.28648 0
M  V30 1200 N 118.248 0.346503 1.53744 0
M  V30 1201 C 119.195 -0.508914 2.25119 0
M  V30 1202 C 120.165 -1.09315 1.25058 0
M  V30 1203 O 121.35 -1.12921 1.53797 0
M  V30 1204 C 118.49 -1.65246 3.02965 0
M  V30 1205 C 117.603 -1.09525 4.17886 0
M  V30 1206 C 116.738 -2.20634 4.83212 0
M  V30 1207 C 115.777 -1.62279 5.90196 0
M  V30 1208 N 114.914 -2.67143 6.49291 0
M  V30 1209 H 119.754 0.106283 2.9781 0
M  V30 1210 H 117.291 0.0642227 1.4696 0
M  V30 1211 H 119.249 -2.32574 3.4636 0
M  V30 1212 H 117.879 -2.2386 2.32565 0
M  V30 1213 H 116.931 -0.312818 3.79112 0
M  V30 1214 H 118.243 -0.628444 4.94825 0
M  V30 1215 H 117.397 -2.95821 5.29693 0
M  V30 1216 H 116.136 -2.70659 4.05703 0
M  V30 1217 H 115.141 -0.855989 5.43096 0
M  V30 1218 H 116.366 -1.13102 6.69615 0
M  V30 1219 H 114.312 -3.16417 5.74645 0
M  V30 1220 H 114.229 -2.25093 7.21713 0
M  V30 1221 H 115.497 -3.4209 7.00425 0
M  V30 1222 N 119.726 -1.57421 0.075193 0
M  V30 1223 C 120.975 -1.92794 -0.592731 0
M  V30 1224 C 121.288 -0.957478 -1.70563 0
M  V30 1225 O 122.494 -1.20417 -2.43335 0
M  V30 1226 C 120.95 -3.42495 -1.10569 0
M  V30 1227 C 120.558 -4.47994 -0.0236121 0
M  V30 1228 C 122.302 -3.86864 -1.74748 0
M  V30 1229 C 120.209 -5.88829 -0.550803 0
M  V30 1230 H 119.139 -0.719591 -0.225177 0
M  V30 1231 H 121.79 -1.82902 0.147978 0
M  V30 1232 H 120.172 -3.47471 -1.89947 0
M  V30 1233 H 121.346 -4.54637 0.751099 0
M  V30 1234 H 119.661 -4.13113 0.522159 0
M  V30 1235 H 122.258 -4.8947 -2.15229 0
M  V30 1236 H 122.601 -3.24417 -2.60882 0
M  V30 1237 H 123.134 -3.84504 -1.01986 0
M  V30 1238 H 119.873 -6.54929 0.273457 0
M  V30 1239 H 119.393 -5.85698 -1.29296 0
M  V30 1240 H 121.072 -6.38811 -1.02613 0
M  V30 1241 N 121.204 0.198386 -1.56346 0
M  V30 1242 C 122.444 0.92609 -1.82217 0
M  V30 1243 C 122.808 1.80584 -0.652195 0
M  V30 1244 O 124.009 2.56907 -0.790716 0
M  V30 1245 C 122.28 1.72354 -3.13096 0
M  V30 1246 S 123.839 2.50371 -3.6036 0
M  V30 1247 H 120.657 0.310677 -0.639532 0
M  V30 1248 H 123.259 0.189755 -1.94577 0
M  V30 1249 H 121.963 1.0678 -3.96265 0
M  V30 1250 H 121.494 2.50175 -3.03605 0
M  V30 1251 H 123.509 3.74488 -3.25535 0
M  V30 1252 N 122.682 1.50554 0.465978 0
M  V30 1253 C 123.612 1.72722 1.57128 0
M  V30 1254 C 124.593 0.576294 1.6004 0
M  V30 1255 O 125.778 0.81598 1.76225 0
M  V30 1256 C 122.908 1.82605 2.95419 0
M  V30 1257 C 121.862 2.97835 3.07373 0
M  V30 1258 C 121.188 2.92867 4.47363 0
M  V30 1259 C 122.488 4.38265 2.84114 0
M  V30 1260 H 124.182 2.65267 1.38829 0
M  V30 1261 H 121.728 1.2765 0.666441 0
M  V30 1262 H 123.681 1.96698 3.72677 0
M  V30 1263 H 122.405 0.866858 3.14886 0
M  V30 1264 H 121.064 2.83401 2.3255 0
M  V30 1265 H 120.712 1.94783 4.63755 0
M  V30 1266 H 120.412 3.70227 4.56296 0
M  V30 1267 H 121.936 3.09015 5.26633 0
M  V30 1268 H 123.35 4.53198 3.51118 0
M  V30 1269 H 121.747 5.17115 3.04487 0
M  V30 1270 H 122.817 4.50281 1.7993 0
M  V30 1271 N 124.16 -0.719506 1.40217 0
M  V30 1272 C 125.437 -1.47221 1.28784 0
M  V30 1273 C 125.817 -2.10883 -0.0956067 0
M  V30 1274 O 125.165 -1.99833 -1.10811 0
M  V30 1275 C 125.375 -2.5111 2.42373 0
M  V30 1276 C 126.723 -3.17053 2.82423 0
M  V30 1277 O 127.747 -2.61429 2.41937 0
M  V30 1278 O 126.606 -4.17742 3.52355 0
M  V30 1279 H 123.7 -0.654491 0.50554 0
M  V30 1280 H 126.246 -0.752014 1.52128 0
M  V30 1281 H 125.018 -2.02556 3.34793 0
M  V30 1282 H 124.641 -3.3067 2.20778 0
M  V30 1283 N 125.638 -1.25649 -0.95132 0
M  V30 1284 C 126.568 -1.08808 -2.06599 0
M  V30 1285 C 127.549 0.00382547 -1.701 0
M  V30 1286 O 128.734 -0.166325 -1.93486 0
M  V30 1287 C 125.864 -0.709542 -3.39975 0
M  V30 1288 C 124.818 -1.75206 -3.90496 0
M  V30 1289 C 124.144 -1.22811 -5.20405 0
M  V30 1290 C 125.444 -3.15153 -4.16504 0
M  V30 1291 H 127.138 -2.02048 -2.20946 0
M  V30 1292 H 124.684 -0.972835 -1.06169 0
M  V30 1293 H 126.637 -0.578649 -4.17408 0
M  V30 1294 H 125.361 0.258556 -3.25575 0
M  V30 1295 H 124.02 -1.87145 -3.15234 0
M  V30 1296 H 123.668 -0.250145 -5.02378 0
M  V30 1297 H 123.368 -1.92492 -5.55176 0
M  V30 1298 H 124.892 -1.10968 -6.00432 0
M  V30 1299 H 126.306 -3.06349 -4.84586 0
M  V30 1300 H 124.703 -3.82333 -4.62538 0
M  V30 1301 H 125.773 -3.61966 -3.22658 0
M  V30 1302 N 127.117 1.15442 -1.07289 0
M  V30 1303 C 128.049 2.19773 -0.650585 0
M  V30 1304 C 129.062 1.60076 0.296572 0
M  V30 1305 O 130.251 1.78293 0.0859905 0
M  V30 1306 C 127.351 3.38838 0.0650398 0
M  V30 1307 C 126.524 4.2808 -0.898141 0
M  V30 1308 C 125.583 5.2574 -0.219926 0
M  V30 1309 O 124.609 5.62654 -0.860773 0
M  V30 1310 N 125.811 5.71205 1.03466 0
M  V30 1311 H 128.576 2.56622 -1.54808 0
M  V30 1312 H 126.137 1.30551 -0.957494 0
M  V30 1313 H 128.129 4.01222 0.529415 0
M  V30 1314 H 126.699 3.00409 0.864466 0
M  V30 1315 H 125.919 3.62804 -1.54165 0
M  V30 1316 H 127.207 4.84577 -1.5512 0
M  V30 1317 H 126.605 5.43325 1.57526 0
M  V30 1318 H 125.162 6.35633 1.44272 0
M  V30 1319 N 128.595 0.856903 1.32268 0
M  V30 1320 C 129.558 0.308171 2.27119 0
M  V30 1321 C 130.558 -0.533421 1.51695 0
M  V30 1322 O 131.748 -0.344607 1.70757 0
M  V30 1323 C 128.88 -0.563757 3.36206 0
M  V30 1324 H 130.073 1.14535 2.77167 0
M  V30 1325 H 127.626 0.631421 1.42978 0
M  V30 1326 H 128.361 -1.42266 2.91429 0
M  V30 1327 H 128.146 0.0386749 3.92081 0
M  V30 1328 H 129.636 -0.940386 4.06874 0
M  V30 1329 N 130.073 -1.45103 0.615059 0
M  V30 1330 C 131.484 -1.85654 0.197383 0
M  V30 1331 C 131.835 -1.51433 -1.24749 0
M  V30 1332 O 130.96 -0.944608 -1.94695 0
M  V30 1333 C 131.555 -3.36972 0.351448 0
M  V30 1334 C 130.114 -3.76398 -0.011593 0
M  V30 1335 C 129.261 -2.69024 0.672394 0
M  V30 1336 H 132.212 -1.35797 0.821263 0
M  V30 1337 H 132.233 -3.78239 -0.414227 0
M  V30 1338 H 131.745 -3.61847 1.40314 0
M  V30 1339 H 129.846 -3.5714 -1.06217 0
M  V30 1340 H 129.959 -4.77532 0.387265 0
M  V30 1341 H 128.323 -2.54465 0.109284 0
M  V30 1342 H 129.106 -2.96735 1.72636 0
M  V30 1343 N 131.551 -0.354651 -1.53558 0
M  V30 1344 C 132.481 0.489091 -2.2832 0
M  V30 1345 C 133.462 1.09324 -1.30316 0
M  V30 1346 O 134.647 1.11255 -1.59173 0
M  V30 1347 C 131.777 1.63456 -3.0643 0
M  V30 1348 C 130.731 1.1582 -4.12031 0
M  V30 1349 C 130.057 2.39305 -4.7816 0
M  V30 1350 C 131.357 0.250731 -5.21698 0
M  V30 1351 H 133.051 -0.134614 -2.99097 0
M  V30 1352 H 130.597 -0.0661826 -1.43848 0
M  V30 1353 H 132.55 2.23136 -3.57475 0
M  V30 1354 H 131.274 2.28533 -2.33325 0
M  V30 1355 H 129.933 0.584146 -3.61916 0
M  V30 1356 H 129.581 3.02814 -4.01637 0
M  V30 1357 H 129.281 2.08109 -5.49513 0
M  V30 1358 H 130.805 2.99691 -5.31994 0
M  V30 1359 H 132.219 0.754695 -5.68311 0
M  V30 1360 H 130.616 0.0301468 -6.00092 0
M  V30 1361 H 131.686 -0.710125 -4.79672 0
M  V30 1362 N 133.029 1.57378 -0.0835403 0
M  V30 1363 C 134.259 1.97975 0.590713 0
M  V30 1364 C 134.667 0.961083 1.62972 0
M  V30 1365 O 134.01 -0.0590879 1.83605 0
M  V30 1366 C 134.072 3.34915 1.3066 0
M  V30 1367 C 133.736 4.55069 0.419698 0
M  V30 1368 C 134.733 5.18868 -0.32749 0
M  V30 1369 C 132.418 5.0114 0.341137 0
M  V30 1370 C 134.412 6.27098 -1.14134 0
M  V30 1371 C 132.099 6.0924 -0.476374 0
M  V30 1372 C 133.097 6.72083 -1.21627 0
M  V30 1373 O 132.785 7.781 -2.02028 0
M  V30 1374 H 132.517 0.655818 0.163947 0
M  V30 1375 H 135.071 2.04807 -0.156021 0
M  V30 1376 H 133.301 3.24733 2.09966 0
M  V30 1377 H 134.99 3.60037 1.87424 0
M  V30 1378 H 135.756 4.84211 -0.276459 0
M  V30 1379 H 131.635 4.51996 0.90668 0
M  V30 1380 H 135.179 6.7608 -1.71935 0
M  V30 1381 H 131.076 6.43329 -0.528927 0
M  V30 1382 H 131.844 7.95034 -1.94586 0
M  V30 1383 N 134.507 -0.190092 1.56449 0
M  V30 1384 C 135.454 -1.23557 1.94942 0
M  V30 1385 C 136.424 -1.44972 0.810696 0
M  V30 1386 O 137.609 -1.58023 1.06927 0
M  V30 1387 C 134.749 -2.57416 2.2985 0
M  V30 1388 C 133.862 -2.43537 3.5681 0
M  V30 1389 C 132.997 -3.70134 3.81017 0
M  V30 1390 C 132.036 -3.51109 5.01387 0
M  V30 1391 N 131.173 -4.6973 5.21822 0
M  V30 1392 H 136.013 -0.900304 2.84075 0
M  V30 1393 H 133.55 -0.43318 1.40577 0
M  V30 1394 H 135.508 -3.35409 2.48106 0
M  V30 1395 H 134.138 -2.88975 1.43852 0
M  V30 1396 H 133.19 -1.56816 3.46573 0
M  V30 1397 H 134.502 -2.25415 4.4496 0
M  V30 1398 H 133.656 -4.56566 3.9954 0
M  V30 1399 H 132.395 -3.91215 2.91207 0
M  V30 1400 H 131.4 -2.63063 4.82782 0
M  V30 1401 H 132.625 -3.31468 5.9271 0
M  V30 1402 H 130.571 -4.91065 4.34961 0
M  V30 1403 H 130.488 -4.54452 6.0416 0
M  V30 1404 H 131.756 -5.57499 5.44808 0
M  V30 1405 N 135.985 -1.50799 -0.457987 0
M  V30 1406 C 136.932 -1.70617 -1.5543 0
M  V30 1407 C 137.902 -0.547562 -1.56815 0
M  V30 1408 O 139.087 -0.779647 -1.74144 0
M  V30 1409 C 136.227 -1.81831 -2.93311 0
M  V30 1410 C 135.34 -3.09278 -3.01615 0
M  V30 1411 C 134.475 -3.11209 -4.30491 0
M  V30 1412 C 133.514 -4.33055 -4.32585 0
M  V30 1413 N 132.651 -4.32652 -5.52952 0
M  V30 1414 H 137.491 -2.64207 -1.37836 0
M  V30 1415 H 135.028 -1.30959 -0.669937 0
M  V30 1416 H 136.986 -1.86314 -3.73287 0
M  V30 1417 H 135.616 -0.916685 -3.0951 0
M  V30 1418 H 134.668 -3.14203 -2.1443 0
M  V30 1419 H 135.98 -3.99233 -2.99022 0
M  V30 1420 H 135.134 -3.14494 -5.18824 0
M  V30 1421 H 133.873 -2.19106 -4.35711 0
M  V30 1422 H 132.878 -4.29969 -3.42647 0
M  V30 1423 H 134.103 -5.264 -4.29046 0
M  V30 1424 H 132.049 -3.43409 -5.58933 0
M  V30 1425 H 131.966 -5.16392 -5.52155 0
M  V30 1426 H 133.234 -4.40101 -6.43375 0
M  V30 1427 N 137.463 0.71206 -1.40597 0
M  V30 1428 C 138.712 1.46754 -1.38369 0
M  V30 1429 C 139.025 1.95598 0.0097839 0
M  V30 1430 O 140.231 2.71059 0.154677 0
M  V30 1431 C 138.687 2.65289 -2.43207 0
M  V30 1432 C 138.295 2.23301 -3.88382 0
M  V30 1433 C 140.039 3.43008 -2.50091 0
M  V30 1434 C 137.946 3.38696 -4.84808 0
M  V30 1435 H 136.876 0.55118 -0.514506 0
M  V30 1436 H 139.527 0.774616 -1.66349 0
M  V30 1437 H 137.909 3.36769 -2.08332 0
M  V30 1438 H 139.083 1.59218 -4.32419 0
M  V30 1439 H 137.398 1.58618 -3.85006 0
M  V30 1440 H 139.995 4.28881 -3.1932 0
M  V30 1441 H 140.338 3.87065 -1.53253 0
M  V30 1442 H 140.871 2.78574 -2.83974 0
M  V30 1443 H 137.61 2.99668 -5.82992 0
M  V30 1444 H 137.13 4.01683 -4.45433 0
M  V30 1445 H 138.809 4.04712 -5.04794 0
M  V30 1446 N 138.941 1.26152 0.944643 0
M  V30 1447 C 140.19 1.10883 1.68487 0
M  V30 1448 C 140.503 -0.348153 1.92477 0
M  V30 1449 O 141.709 -0.621459 2.64292 0
M  V30 1450 C 140.165 1.93624 3.03377 0
M  V30 1451 C 139.773 3.43875 2.87148 0
M  V30 1452 C 141.517 1.86954 3.81115 0
M  V30 1453 C 139.424 4.18875 4.1749 0
M  V30 1454 H 138.354 0.41135 0.631907 0
M  V30 1455 H 141.005 1.50433 1.05082 0
M  V30 1456 H 139.387 1.46904 3.67743 0
M  V30 1457 H 140.561 3.98338 2.31653 0
M  V30 1458 H 138.876 3.51744 2.22856 0
M  V30 1459 H 141.473 2.40275 4.77673 0
M  V30 1460 H 141.816 0.839518 4.07747 0
M  V30 1461 H 142.349 2.31477 3.23517 0
M  V30 1462 H 139.088 5.22332 3.96043 0
M  V30 1463 H 138.608 3.69193 4.72712 0
M  V30 1464 H 140.287 4.27134 4.85968 0
M  V30 1465 N 140.419 -1.14872 1.07899 0
M  V30 1466 C 141.366 -2.19791 0.704319 0
M  V30 1467 C 142.336 -1.63238 -0.306987 0
M  V30 1468 O 143.521 -1.8983 -0.192171 0
M  V30 1469 C 140.661 -3.44911 0.114244 0
M  V30 1470 C 139.774 -4.15637 1.1777 0
M  V30 1471 C 138.909 -5.28324 0.552037 0
M  V30 1472 C 137.948 -5.90875 1.59789 0
M  V30 1473 N 137.085 -6.95022 0.994404 0
M  V30 1474 H 141.925 -2.5119 1.60336 0
M  V30 1475 H 139.462 -1.23356 0.801352 0
M  V30 1476 H 141.42 -4.16477 -0.245544 0
M  V30 1477 H 140.05 -3.14011 -0.74813 0
M  V30 1478 H 139.102 -3.42512 1.65499 0
M  V30 1479 H 140.414 -4.5823 1.97046 0
M  V30 1480 H 139.568 -6.06538 0.1402 0
M  V30 1481 H 138.307 -4.86939 -0.272431 0
M  V30 1482 H 137.312 -5.11369 2.01945 0
M  V30 1483 H 138.537 -6.34337 2.42474 0
M  V30 1484 H 136.483 -6.55722 0.190939 0
M  V30 1485 H 136.4 -7.36073 1.72432 0
M  V30 1486 H 137.668 -7.77123 0.608253 0
M  V30 1487 N 141.898 -0.863906 -1.31812 0
M  V30 1488 C 142.845 -0.313303 -2.28664 0
M  V30 1489 C 143.815 0.584868 -1.55462 0
M  V30 1490 O 145 0.517805 -1.83639 0
M  V30 1491 C 142.14 0.48441 -3.41683 0
M  V30 1492 C 141.253 -0.440594 -4.29747 0
M  V30 1493 C 140.388 0.370652 -5.29905 0
M  V30 1494 C 139.427 -0.551164 -6.09613 0
M  V30 1495 N 138.564 0.223462 -7.01744 0
M  V30 1496 H 143.404 -1.14444 -2.75148 0
M  V30 1497 H 140.941 -0.575769 -1.35364 0
M  V30 1498 H 142.899 0.962627 -4.05943 0
M  V30 1499 H 141.529 1.28029 -2.96325 0
M  V30 1500 H 140.581 -1.03724 -3.65986 0
M  V30 1501 H 141.893 -1.14767 -4.85417 0
M  V30 1502 H 141.047 0.911638 -5.99812 0
M  V30 1503 H 139.786 1.11105 -4.74876 0
M  V30 1504 H 138.791 -1.10396 -5.38603 0
M  V30 1505 H 140.016 -1.29032 -6.66729 0
M  V30 1506 H 137.962 0.946787 -6.49132 0
M  V30 1507 H 137.879 -0.424399 -7.54808 0
M  V30 1508 H 139.147 0.745876 -7.75923 0
M  V30 1509 N 143.376 1.44774 -0.622745 0
M  V30 1510 C 144.306 2.33382 0.0741861 0
M  V30 1511 C 145.287 1.47719 0.843387 0
M  V30 1512 O 146.472 1.76458 0.810934 0
M  V30 1513 C 143.602 3.30663 1.06204 0
M  V30 1514 C 142.556 4.26079 0.405037 0
M  V30 1515 C 141.882 5.13165 1.5022 0
M  V30 1516 C 143.182 5.1781 -0.683414 0
M  V30 1517 H 144.876 2.91905 -0.665713 0
M  V30 1518 H 142.422 1.40363 -0.321587 0
M  V30 1519 H 144.375 3.9153 1.55827 0
M  V30 1520 H 143.099 2.70331 1.83272 0
M  V30 1521 H 141.758 3.66532 -0.0704683 0
M  V30 1522 H 141.406 4.49191 2.26355 0
M  V30 1523 H 141.106 5.77812 1.06803 0
M  V30 1524 H 142.63 5.76902 2.00041 0
M  V30 1525 H 144.044 5.72661 -0.270631 0
M  V30 1526 H 142.441 5.91015 -1.04023 0
M  V30 1527 H 143.511 4.59326 -1.55395 0
M  V30 1528 N 144.854 0.36279 1.53368 0
M  V30 1529 C 145.784 -0.476976 2.28576 0
M  V30 1530 C 146.765 -1.08631 1.30894 0
M  V30 1531 O 147.95 -1.10409 1.59761 0
M  V30 1532 C 145.08 -1.61828 3.07293 0
M  V30 1533 C 144.034 -1.13633 4.1264 0
M  V30 1534 C 143.36 -2.36766 4.79423 0
M  V30 1535 C 144.66 -0.223061 5.21823 0
M  V30 1536 H 146.354 0.150474 2.99022 0
M  V30 1537 H 143.9 0.0738103 1.43811 0
M  V30 1538 H 145.853 -2.21237 3.58653 0
M  V30 1539 H 144.577 -2.27292 2.34533 0
M  V30 1540 H 143.236 -0.564945 3.62221 0
M  V30 1541 H 142.884 -3.0068 4.03238 0
M  V30 1542 H 142.584 -2.05192 5.50609 0
M  V30 1543 H 144.108 -2.96865 5.33576 0
M  V30 1544 H 145.522 -0.724545 5.68703 0
M  V30 1545 H 143.919 0.001678 6.001 0
M  V30 1546 H 144.989 0.735553 4.79289 0
M  V30 1547 N 146.332 -1.57332 0.0918853 0
M  V30 1548 C 147.242 -2.17368 -0.882505 0
M  V30 1549 C 148.258 -1.14226 -1.31257 0
M  V30 1550 O 149.434 -1.46582 -1.38115 0
M  V30 1551 C 146.499 -2.73962 -2.12476 0
M  V30 1552 C 145.56 -3.92048 -1.7492 0
M  V30 1553 C 144.793 -4.45933 -2.93223 0
M  V30 1554 O 145.016 -3.98764 -4.07852 0
M  V30 1555 O 143.95 -5.36999 -2.71875 0
M  V30 1556 H 147.776 -3.01031 -0.40172 0
M  V30 1557 H 145.361 -1.48813 -0.132291 0
M  V30 1558 H 147.243 -3.10147 -2.85283 0
M  V30 1559 H 145.918 -1.93347 -2.59613 0
M  V30 1560 H 144.825 -3.6068 -0.993025 0
M  V30 1561 H 146.158 -4.74017 -1.32548 0
M  V30 1562 N 147.81 0.181792 -1.56548 0
M  V30 1563 C 149.035 0.920019 -1.85877 0
M  V30 1564 C 149.46 1.75494 -0.677021 0
M  V30 1565 O 148.818 1.77399 0.374056 0
M  V30 1566 C 148.866 1.78112 -3.13542 0
M  V30 1567 O 147.97 2.88152 -2.95029 0
M  V30 1568 H 147.311 0.258334 -0.611686 0
M  V30 1569 H 149.841 0.183092 -2.03779 0
M  V30 1570 H 149.851 2.18314 -3.44678 0
M  V30 1571 H 148.526 1.16777 -3.99169 0
M  V30 1572 H 147.103 2.51609 -2.75222 0
M  V30 1573 O 149.327 1.58157 0.326881 0
M  V30 1574 H 150.018 1.6734 0.975558 0
M  V30 END ATOM
M  V30 BEGIN BOND
M  V30 END BOND
M  V30 END CTAB
M  END
$$$$
