drugbank_target|P02774 Vitamin D-binding protein (DB11094)
 OpenBabel12092119483D

  0  0  0     0  0            999 V3000
M  V30 BEGIN CTAB
M  V30 COUNTS 7378 7447 0 0 0
M  V30 BEGIN ATOM
M  V30 1 H -0.908 1.98254 -0.117106 0
M  V30 2 N 0 1.576 0 0
M  V30 3 C 0.933 2.03868 1.02534 0
M  V30 4 C 1.911 0.928543 1.3348 0
M  V30 5 O 3.095 1.19667 1.45644 0
M  V30 6 C 0.222 2.43627 2.35294 0
M  V30 7 C -0.732 3.65373 2.2001 0
M  V30 8 S 0.101 5.13292 1.52614 0
M  V30 9 C 1.257 5.56322 2.86805 0
M  V30 10 H 1.49 2.90518 0.631377 0
M  V30 11 H -0.977 1.52953 0.210867 0
M  V30 12 H 0.981 2.67203 3.11629 0
M  V30 13 H -0.358 1.57376 2.7183 0
M  V30 14 H -1.165 3.90944 3.18086 0
M  V30 15 H -1.563 3.418 1.51819 0
M  V30 16 H 0.729 5.58782 3.83104 0
M  V30 17 H 1.672 6.56266 2.65933 0
M  V30 18 H 2.08 4.83886 2.90714 0
M  V30 19 N 1.4781 -0.272755 1.55222 0
M  V30 20 C 2.4251 -1.33716 1.88119 0
M  V30 21 C 3.3951 -1.49066 0.73271 0
M  V30 22 O 4.5801 -1.63469 0.984002 0
M  V30 23 C 1.7201 -2.69238 2.15882 0
M  V30 24 C 0.8331 -2.62108 3.43399 0
M  V30 25 C -0.0319 -3.89811 3.60861 0
M  V30 26 C -0.9929 -3.77193 4.8207 0
M  V30 27 N -1.8559 -4.9673 4.96189 0
M  V30 28 H 2.9841 -1.04962 2.78903 0
M  V30 29 H 0.5211 -0.507088 1.38083 0
M  V30 30 H 2.4791 -3.48089 2.29978 0
M  V30 31 H 1.1091 -2.96194 1.28331 0
M  V30 32 H 0.1611 -1.74967 3.37773 0
M  V30 33 H 1.4731 -2.48685 4.32386 0
M  V30 34 H 0.6271 -4.77103 3.74777 0
M  V30 35 H -0.6339 -4.06102 2.7006 0
M  V30 36 H -1.6289 -2.88284 4.68159 0
M  V30 37 H -0.4039 -3.62421 5.74307 0
M  V30 38 H -2.4579 -5.13431 4.08319 0
M  V30 39 H -2.5409 -4.85839 5.79221 0
M  V30 40 H -1.2729 -5.85594 5.1449 0
M  V30 41 N 2.9562 -1.48159 -0.537278 0
M  V30 42 C 4.3722 -1.34118 -0.865129 0
M  V30 43 C 4.5722 -0.346678 -1.98495 0
M  V30 44 O 3.6282 0.234715 -2.51407 0
M  V30 45 C 4.9412 -2.73963 -1.23954 0
M  V30 46 C 6.4892 -2.82397 -1.34984 0
M  V30 47 C 6.9642 -4.22928 -1.75772 0
M  V30 48 N 8.4552 -4.25566 -1.82887 0
M  V30 49 C 9.1902 -5.31235 -2.15817 0
M  V30 50 N 8.6862 -6.47189 -2.47222 0
M  V30 51 N 10.4792 -5.18624 -2.16761 0
M  V30 52 H 2.6302 -2.1144 0.201715 0
M  V30 53 H 4.8932 -0.947598 0.0275949 0
M  V30 54 H 4.5992 -3.48264 -0.490381 0
M  V30 55 H 4.4732 -3.0702 -2.19132 0
M  V30 56 H 6.8602 -2.08356 -2.08978 0
M  V30 57 H 6.9412 -2.5297 -0.379448 0
M  V30 58 H 6.5852 -4.97482 -1.02341 0
M  V30 59 H 6.5152 -4.49794 -2.73848 0
M  V30 60 H 9.0062 -3.41924 -1.60924 0
M  V30 61 H 9.3192 -7.23564 -2.71433 0
M  V30 62 H 7.6642 -6.50476 -2.44757 0
M  V30 63 H 10.8552 -4.27056 -1.91679 0
M  V30 64 H 11.0282 -6.01078 -2.42093 0
M  V30 65 N 4.4343 0.785586 -1.36625 0
M  V30 66 C 5.6803 1.54591 -1.31261 0
M  V30 67 C 6.0133 1.93906 0.106823 0
M  V30 68 O 5.2883 1.63007 1.06108 0
M  V30 69 C 5.5713 2.82038 -2.23889 0
M  V30 70 C 5.4243 2.49066 -3.74548 0
M  V30 71 C 6.7433 3.83887 -2.15217 0
M  V30 72 H 3.8623 0.560846 -0.478143 0
M  V30 73 H 6.5043 0.902278 -1.67209 0
M  V30 74 H 4.6543 3.36961 -1.93363 0
M  V30 75 H 6.3263 2.00164 -4.15611 0
M  V30 76 H 4.5693 1.81954 -3.93796 0
M  V30 77 H 5.2403 3.40109 -4.34776 0
M  V30 78 H 7.7163 3.38421 -2.42096 0
M  V30 79 H 6.5923 4.70806 -2.82193 0
M  V30 80 H 6.8533 4.27131 -1.14068 0
M  V30 81 N 5.9124 1.20967 1.01018 0
M  V30 82 C 6.8424 0.988272 2.11555 0
M  V30 83 C 7.8234 -0.0849778 1.69888 0
M  V30 84 O 9.0084 0.0738202 1.9406 0
M  V30 85 C 6.1384 0.546528 3.42973 0
M  V30 86 C 5.0924 1.56375 3.9841 0
M  V30 87 C 4.4184 0.97842 5.25672 0
M  V30 88 C 5.7184 2.94922 4.31066 0
M  V30 89 H 7.4124 1.91276 2.30334 0
M  V30 90 H 4.9584 0.921073 1.1069 0
M  V30 91 H 6.9114 0.378839 4.19694 0
M  V30 92 H 5.6354 -0.413598 3.23971 0
M  V30 93 H 4.2944 1.71891 3.23804 0
M  V30 94 H 3.9424 0.0101688 5.02999 0
M  V30 95 H 3.6424 1.65784 5.63728 0
M  V30 96 H 5.1664 0.821939 6.05043 0
M  V30 97 H 6.5804 2.8288 4.9865 0
M  V30 98 H 4.9774 3.5983 4.80253 0
M  V30 99 H 6.0474 3.4616 3.39561 0
M  V30 100 N 7.3905 -1.2043 1.01659 0
M  V30 101 C 8.6365 -1.90079 0.706963 0
M  V30 102 C 8.9695 -1.78648 -0.761474 0
M  V30 103 O 8.2445 -1.17069 -1.55323 0
M  V30 104 C 8.5275 -3.41469 1.14327 0
M  V30 105 C 8.3805 -3.61833 2.67201 0
M  V30 106 C 9.6995 -4.34261 0.714529 0
M  V30 107 H 6.8185 -0.690254 0.2583 0
M  V30 108 H 9.4605 -1.41826 1.26433 0
M  V30 109 H 7.6105 -3.82696 0.669056 0
M  V30 110 H 9.2825 -3.2986 3.22475 0
M  V30 111 H 7.5255 -3.05304 3.08175 0
M  V30 112 H 8.1965 -4.67955 2.92783 0
M  V30 113 H 10.6725 -4.00682 1.12221 0
M  V30 114 H 9.5485 -5.38806 1.04784 0
M  V30 115 H 9.8095 -4.40431 -0.383799 0
M  V30 116 N 8.8686 -0.792821 -1.36206 0
M  V30 117 C 9.7986 -0.207853 -2.32573 0
M  V30 118 C 10.7796 0.659055 -1.56813 0
M  V30 119 O 11.9646 0.592176 -1.84951 0
M  V30 120 C 9.0946 0.655449 -3.41059 0
M  V30 121 C 8.0486 -0.111842 -4.27854 0
M  V30 122 C 7.3746 0.872274 -5.27537 0
M  V30 123 C 8.6746 -1.30299 -5.05786 0
M  V30 124 H 10.3686 -1.01294 -2.81744 0
M  V30 125 H 7.9146 -0.48854 -1.3546 0
M  V30 126 H 9.8676 1.07464 -4.07467 0
M  V30 127 H 8.5916 1.49328 -2.90463 0
M  V30 128 H 7.2506 -0.512053 -3.63006 0
M  V30 129 H 6.8986 1.70523 -4.73214 0
M  V30 130 H 6.5986 0.363291 -5.86476 0
M  V30 131 H 8.1226 1.28996 -5.96818 0
M  V30 132 H 9.5366 -0.959379 -5.65216 0
M  V30 133 H 7.9336 -1.7455 -5.74154 0
M  V30 134 H 9.0036 -2.09663 -4.37229 0
M  V30 135 N 10.3467 1.47872 -0.545128 0
M  V30 136 C 11.2767 2.32661 0.197793 0
M  V30 137 C 12.2577 1.43041 0.920504 0
M  V30 138 O 13.4427 1.71912 0.90333 0
M  V30 139 C 10.5727 3.24569 1.23582 0
M  V30 140 C 9.5267 4.23333 0.630323 0
M  V30 141 C 8.8527 5.0448 1.77211 0
M  V30 142 C 10.1527 5.20704 -0.407974 0
M  V30 143 H 11.8467 2.95024 -0.510045 0
M  V30 144 H 9.3927 1.4187 -0.246731 0
M  V30 145 H 11.3457 3.8272 1.76362 0
M  V30 146 H 10.0697 2.60236 1.97344 0
M  V30 147 H 8.7287 3.6639 0.123922 0
M  V30 148 H 8.3767 4.36561 2.49847 0
M  V30 149 H 8.0767 5.71339 1.37281 0
M  V30 150 H 9.6007 5.65487 2.3034 0
M  V30 151 H 11.0147 5.7329 0.033305 0
M  V30 152 H 9.4117 5.95699 -0.725486 0
M  V30 153 H 10.4817 4.66917 -1.30828 0
M  V30 154 N 11.8248 0.280983 1.55075 0
M  V30 155 C 12.7548 -0.597469 2.25727 0
M  V30 156 C 13.7358 -1.15417 1.24952 0
M  V30 157 O 14.9208 -1.18722 1.53684 0
M  V30 158 C 12.0508 -1.7789 2.98283 0
M  V30 159 C 11.0048 -1.35347 4.06036 0
M  V30 160 C 10.3308 -2.61846 4.66198 0
M  V30 161 C 11.6308 -0.499354 5.19907 0
M  V30 162 H 13.3248 -0.00824265 2.99399 0
M  V30 163 H 10.8708 -0.0025244 1.44 0
M  V30 164 H 12.8238 -2.39937 3.46422 0
M  V30 165 H 11.5478 -2.39405 2.22155 0
M  V30 166 H 10.2068 -0.756156 3.58717 0
M  V30 167 H 9.8548 -3.21632 3.86732 0
M  V30 168 H 9.5548 -2.3409 5.38958 0
M  V30 169 H 11.0788 -3.24732 5.1709 0
M  V30 170 H 12.4928 -1.02498 5.64063 0
M  V30 171 H 10.8898 -0.316424 5.99265 0
M  V30 172 H 11.9598 0.480459 4.82514 0
M  V30 173 N 13.3029 -1.57598 0.00835791 0
M  V30 174 C 14.2659 -2.07884 -0.965242 0
M  V30 175 C 15.2659 -0.989825 -1.26725 0
M  V30 176 O 16.4559 -1.25218 -1.21104 0
M  V30 177 C 13.5879 -2.52731 -2.28779 0
M  V30 178 H 14.7809 -2.95178 -0.530112 0
M  V30 179 H 12.3339 -1.54458 -0.239283 0
M  V30 180 H 13.0689 -1.68705 -2.76964 0
M  V30 181 H 12.8539 -3.32272 -2.08177 0
M  V30 182 H 14.3439 -2.91933 -2.98605 0
M  V30 183 N 14.781 0.264519 -1.55364 0
M  V30 184 C 16.027 0.99646 -1.76631 0
M  V30 185 C 16.36 1.85632 -0.570478 0
M  V30 186 O 15.635 1.89647 0.43175 0
M  V30 187 C 15.918 1.87187 -3.07625 0
M  V30 188 C 15.771 1.04138 -4.37579 0
M  V30 189 C 17.09 2.85749 -3.34717 0
M  V30 190 H 14.209 0.360841 -0.642622 0
M  V30 191 H 16.851 0.268218 -1.88097 0
M  V30 192 H 15.001 2.49279 -2.9798 0
M  V30 193 H 16.673 0.440517 -4.59192 0
M  V30 194 H 14.916 0.345115 -4.32425 0
M  V30 195 H 15.587 1.68729 -5.2558 0
M  V30 196 H 18.063 2.33793 -3.4421 0
M  V30 197 H 16.939 3.44136 -4.27623 0
M  V30 198 H 17.2 3.61311 -2.54768 0
M  V30 199 N 16.2591 1.48442 0.529413 0
M  V30 200 C 17.2221 1.62524 1.61612 0
M  V30 201 C 18.2221 0.498509 1.52877 0
M  V30 202 O 19.4121 0.76431 1.56537 0
M  V30 203 C 16.5441 1.59597 3.01233 0
M  V30 204 H 17.7371 2.59423 1.50465 0
M  V30 205 H 15.2901 1.37047 0.751514 0
M  V30 206 H 16.0251 0.641781 3.17886 0
M  V30 207 H 15.8101 2.41397 3.08982 0
M  V30 208 H 17.3001 1.72646 3.80241 0
M  V30 209 N 17.7372 -0.778329 1.37039 0
M  V30 210 C 18.9842 -1.53665 1.31884 0
M  V30 211 C 19.3122 -1.9425 -0.0986303 0
M  V30 212 O 18.5672 -1.63832 -1.07041 0
M  V30 213 C 18.8662 -2.81845 2.19768 0
M  V30 214 C 18.5322 -2.60345 3.68146 0
M  V30 215 C 17.1942 -2.5419 4.08584 0
M  V30 216 C 19.5462 -2.40923 4.62175 0
M  V30 217 C 16.8742 -2.26594 5.41177 0
M  V30 218 C 19.2262 -2.14852 5.94997 0
M  V30 219 C 17.8902 -2.07137 6.34547 0
M  V30 220 H 17.1602 -0.562299 0.482598 0
M  V30 221 H 19.8072 -0.897069 1.69189 0
M  V30 222 H 18.1122 -3.50328 1.75436 0
M  V30 223 H 19.8092 -3.39692 2.13097 0
M  V30 224 H 16.3992 -2.65996 3.36072 0
M  V30 225 H 20.5832 -2.44673 4.31797 0
M  V30 226 H 15.8392 -2.19111 5.70789 0
M  V30 227 H 20.0132 -1.98822 6.67415 0
M  V30 228 H 17.6402 -1.85518 7.37216 0
M  V30 229 N 19.2153 -1.21501 -1.00376 0
M  V30 230 C 20.4633 -1.03095 -1.73827 0
M  V30 231 C 20.7843 0.436341 -1.90055 0
M  V30 232 O 20.0543 1.31466 -1.45236 0
M  V30 233 H 18.6343 -0.378487 -0.644016 0
M  V30 234 H 21.2963 -1.52831 -1.20949 0
M  V30 235 H 20.3923 -1.49991 -2.73695 0
M  V30 236 N 20.6934 1.19889 -1.02296 0
M  V30 237 C 21.6434 2.20777 -0.56934 0
M  V30 238 C 22.6274 1.56379 0.378741 0
M  V30 239 O 23.8194 1.75859 0.200673 0
M  V30 240 C 20.9484 3.43196 0.0845077 0
M  V30 241 C 20.0344 4.14749 -0.88566 0
M  V30 242 N 20.4254 4.62584 -2.04573 0
M  V30 243 C 18.7234 4.40347 -0.707835 0
M  V30 244 C 19.4244 5.17466 -2.65714 0
M  V30 245 N 18.4004 5.0791 -1.93723 0
M  V30 246 H 22.2024 2.55434 -1.45365 0
M  V30 247 H 19.7164 1.35897 -0.88915 0
M  V30 248 H 21.7134 4.14707 0.427067 0
M  V30 249 H 20.3734 3.10042 0.964574 0
M  V30 250 H 21.3844 4.57597 -2.4254 0
M  V30 251 H 18.0614 4.17317 0.12364 0
M  V30 252 H 19.4514 5.64808 -3.63925 0
M  V30 253 N 22.1715 0.800033 1.35784 0
M  V30 254 C 23.1345 0.211565 2.28221 0
M  V30 255 C 24.1345 -0.59728 1.49296 0
M  V30 256 O 25.3245 -0.416721 1.69142 0
M  V30 257 C 22.4565 -0.705846 3.33513 0
M  V30 258 H 23.6495 1.02677 2.81776 0
M  V30 259 H 21.2025 0.570211 1.45528 0
M  V30 260 H 21.9375 -1.54498 2.85133 0
M  V30 261 H 21.7225 -0.127655 3.91892 0
M  V30 262 H 23.2125 -1.11211 4.02519 0
M  V30 263 N 23.6496 -1.47581 0.552962 0
M  V30 264 C 24.5796 -2.32762 -0.185451 0
M  V30 265 C 25.5606 -1.43527 -0.912905 0
M  V30 266 O 26.7456 -1.72388 -0.894201 0
M  V30 267 C 23.8756 -3.25219 -1.21859 0
M  V30 268 C 22.8296 -4.23661 -0.607864 0
M  V30 269 C 22.1556 -5.05413 -1.74533 0
M  V30 270 C 23.4556 -5.20481 0.435582 0
M  V30 271 H 25.1496 -2.94749 0.525684 0
M  V30 272 H 22.6956 -1.41738 0.254251 0
M  V30 273 H 24.6486 -3.8365 -1.7433 0
M  V30 274 H 23.3726 -2.61279 -1.95961 0
M  V30 275 H 22.0316 -3.66451 -0.104489 0
M  V30 276 H 21.6796 -4.3788 -2.47529 0
M  V30 277 H 21.3796 -5.72059 -1.34249 0
M  V30 278 H 22.9036 -5.66701 -2.27338 0
M  V30 279 H 24.3176 -5.733 -0.00290157 0
M  V30 280 H 22.7146 -5.95305 0.757067 0
M  V30 281 H 23.7846 -4.66217 1.33303 0
M  V30 282 N 25.1277 -0.289203 -1.54924 0
M  V30 283 C 26.0377 0.601863 -2.26748 0
M  V30 284 C 27.0537 1.15834 -1.2984 0
M  V30 285 O 28.2297 1.18564 -1.62802 0
M  V30 286 C 25.2947 1.76299 -2.98529 0
M  V30 287 C 24.3557 1.24178 -4.10948 0
M  V30 288 C 23.5887 2.34757 -4.79296 0
M  V30 289 O 23.8117 3.54411 -4.46933 0
M  V30 290 O 22.7457 2.02115 -5.66951 0
M  V30 291 H 26.5717 0.0195879 -3.03694 0
M  V30 292 H 24.1567 -0.0560868 -1.49295 0
M  V30 293 H 26.0387 2.43973 -3.43592 0
M  V30 294 H 24.7137 2.33209 -2.24488 0
M  V30 295 H 23.6207 0.531104 -3.70311 0
M  V30 296 H 24.9537 0.718252 -4.86931 0
M  V30 297 N 26.6058 1.57591 -0.0167156 0
M  V30 298 C 28.0218 1.55946 0.339557 0
M  V30 299 C 28.2218 1.02109 1.73713 0
M  V30 300 O 27.2778 0.662303 2.43659 0
M  V30 301 C 28.5908 3.00037 0.199499 0
M  V30 302 C 30.1388 3.11805 0.273193 0
M  V30 303 C 30.6138 4.57713 0.162068 0
M  V30 304 N 32.1048 4.6268 0.219444 0
M  V30 305 C 32.8398 5.73185 0.157054 0
M  V30 306 N 32.3358 6.92786 0.0442936 0
M  V30 307 N 34.1288 5.61707 0.21014 0
M  V30 308 H 26.2798 1.90921 -0.930758 0
M  V30 309 H 28.5428 0.877674 -0.358319 0
M  V30 310 H 28.2488 3.4333 -0.76273 0
M  V30 311 H 28.1228 3.64387 0.974786 0
M  V30 312 H 30.5098 2.68433 1.22587 0
M  V30 313 H 30.5908 2.50201 -0.532256 0
M  V30 314 H 30.2348 5.01763 -0.78714 0
M  V30 315 H 30.1648 5.17283 0.986222 0
M  V30 316 H 32.6558 3.76649 0.307246 0
M  V30 317 H 32.9688 7.728 0.00304069 0
M  V30 318 H 31.3138 6.94999 0.00968457 0
M  V30 319 H 34.5048 4.6716 0.296546 0
M  V30 320 H 34.6778 6.47807 0.158054 0
M  V30 321 N 28.0839 -0.256276 1.55502 0
M  V30 322 C 29.3319 -0.983672 1.76545 0
M  V30 323 C 29.6529 -1.86206 0.578982 0
M  V30 324 O 28.9229 -1.91656 -0.405577 0
M  V30 325 H 27.5029 -0.366191 0.651086 0
M  V30 326 H 30.1649 -0.276479 1.92929 0
M  V30 327 H 29.2609 -1.61087 2.67315 0
M  V30 328 N 29.562 -1.4872 -0.521534 0
M  V30 329 C 30.978 -1.35028 -0.850855 0
M  V30 330 C 31.178 -0.367712 -1.98116 0
M  V30 331 O 30.234 0.208037 -2.51642 0
M  V30 332 C 31.547 -2.75263 -1.21041 0
M  V30 333 C 33.095 -2.83813 -1.31981 0
M  V30 334 C 33.57 -4.24769 -1.71276 0
M  V30 335 N 35.061 -4.27482 -1.78363 0
M  V30 336 C 35.796 -5.33494 -2.1017 0
M  V30 337 N 35.292 -6.49775 -2.40343 0
M  V30 338 N 37.085 -5.20894 -2.11248 0
M  V30 339 H 29.236 -2.11214 0.22413 0
M  V30 340 H 31.499 -0.947252 0.0376439 0
M  V30 341 H 31.205 -3.48765 -0.453415 0
M  V30 342 H 31.079 -3.09327 -2.15863 0
M  V30 343 H 33.466 -2.10561 -2.06756 0
M  V30 344 H 33.547 -2.53358 -0.352596 0
M  V30 345 H 33.191 -4.9854 -0.970588 0
M  V30 346 H 33.121 -4.52673 -2.69062 0
M  V30 347 H 35.612 -3.43611 -1.57288 0
M  V30 348 H 35.925 -7.26402 -2.63743 0
M  V30 349 H 34.27 -6.53035 -2.37844 0
M  V30 350 H 37.461 -4.29065 -1.87139 0
M  V30 351 H 37.634 -6.03612 -2.35704 0
M  V30 352 N 31.0401 0.771051 -1.3745 0
M  V30 353 C 32.3171 1.519 -1.23231 0
M  V30 354 C 32.6971 2.10383 0.173809 0
M  V30 355 O 32.0451 1.95583 1.18151 0
M  V30 356 C 32.2551 2.59933 -2.32886 0
M  V30 357 C 33.6031 3.27316 -2.70461 0
M  V30 358 O 34.6271 2.70228 -2.32068 0
M  V30 359 O 33.4861 4.30531 -3.36608 0
M  V30 360 H 30.5801 0.672803 -0.480901 0
M  V30 361 H 33.1261 0.807957 -1.49232 0
M  V30 362 H 31.8981 2.14842 -3.27045 0
M  V30 363 H 31.5211 3.38637 -2.08353 0
M  V30 364 N 32.5182 1.22032 0.997298 0
M  V30 365 C 33.7482 1.06686 1.76923 0
M  V30 366 C 34.1562 -0.385838 1.85224 0
M  V30 367 O 33.4992 -1.27929 1.31833 0
M  V30 368 C 33.5612 1.59802 3.22031 0
M  V30 369 C 33.2252 3.08362 3.37286 0
M  V30 370 C 34.2222 4.05835 3.24952 0
M  V30 371 C 31.9072 3.47727 3.6248 0
M  V30 372 C 33.9012 5.4066 3.37588 0
M  V30 373 C 31.5882 4.82701 3.74757 0
M  V30 374 C 32.5862 5.78977 3.62319 0
M  V30 375 O 32.2742 7.11502 3.74193 0
M  V30 376 H 32.0062 0.374767 0.562606 0
M  V30 377 H 34.5602 1.61991 1.26286 0
M  V30 378 H 32.7902 0.989003 3.73839 0
M  V30 379 H 34.4792 1.40184 3.80924 0
M  V30 380 H 35.2452 3.76766 3.05405 0
M  V30 381 H 31.1242 2.73317 3.7124 0
M  V30 382 H 34.6682 6.15788 3.27796 0
M  V30 383 H 30.5652 5.11453 3.9381 0
M  V30 384 H 31.3332 7.19019 3.91093 0
M  V30 385 N 33.9963 -1.19345 1.0293 0
M  V30 386 C 34.9063 -2.26245 0.620515 0
M  V30 387 C 35.9223 -1.70486 -0.347928 0
M  V30 388 O 37.0983 -2.00347 -0.205704 0
M  V30 389 C 34.1633 -3.46693 -0.0218957 0
M  V30 390 C 33.2243 -4.17632 0.994102 0
M  V30 391 C 32.4573 -5.32329 0.382253 0
M  V30 392 O 32.6803 -5.64552 -0.814676 0
M  V30 393 O 31.6143 -5.91664 1.10531 0
M  V30 394 H 35.4403 -2.63453 1.51083 0
M  V30 395 H 33.0253 -1.26207 0.799513 0
M  V30 396 H 34.9073 -4.19683 -0.380072 0
M  V30 397 H 33.5823 -3.11333 -0.886209 0
M  V30 398 H 32.4893 -3.4676 1.40387 0
M  V30 399 H 33.8223 -4.56964 1.8288 0
M  V30 400 N 35.4744 -0.807222 -1.35358 0
M  V30 401 C 36.4214 -0.216037 -2.29787 0
M  V30 402 C 37.3914 0.650278 -1.52842 0
M  V30 403 O 38.5764 0.595227 -1.81278 0
M  V30 404 C 35.7164 0.628893 -3.39321 0
M  V30 405 C 34.8294 -0.257927 -4.31229 0
M  V30 406 C 33.9644 0.595069 -5.27856 0
M  V30 407 C 33.0034 -0.292111 -6.11403 0
M  V30 408 N 32.1404 0.520895 -7.00165 0
M  V30 409 H 36.9804 -1.02671 -2.79755 0
M  V30 410 H 34.5174 -0.517839 -1.37684 0
M  V30 411 H 36.4754 1.13393 -4.01494 0
M  V30 412 H 35.1054 1.40482 -2.90628 0
M  V30 413 H 34.1574 -0.881076 -3.70056 0
M  V30 414 H 35.4694 -0.940759 -4.89848 0
M  V30 415 H 34.6234 1.16522 -5.95405 0
M  V30 416 H 33.3624 1.31146 -4.69736 0
M  V30 417 H 32.3674 -0.874525 -5.428 0
M  V30 418 H 33.5924 -1.00638 -6.71602 0
M  V30 419 H 31.5384 1.22125 -6.44532 0
M  V30 420 H 31.4554 -0.103877 -7.55929 0
M  V30 421 H 32.7234 1.0743 -7.72062 0
M  V30 422 N 36.9525 1.47285 -0.560781 0
M  V30 423 C 37.9005 2.31756 0.197942 0
M  V30 424 C 38.8945 1.43146 0.905854 0
M  V30 425 O 40.1005 1.59891 0.826733 0
M  V30 426 H 36.4755 0.747438 0.0827049 0
M  V30 427 H 38.4465 2.9359 -0.533629 0
M  V30 428 C 37.1955 3.25874 1.21249 0
M  V30 429 H 36.5185 3.94023 0.67719 0
M  V30 430 H 37.9585 3.87803 1.71419 0
M  V30 431 C 36.4175 2.49651 2.26221 0
M  V30 432 O 36.9475 2.24355 3.33208 0
M  V30 433 N 35.1535 2.10597 2.00243 0
M  V30 434 H 34.7005 2.31369 1.13252 0
M  V30 435 H 34.6585 1.59913 2.70694 0
M  V30 436 N 38.4306 0.297415 1.54768 0
M  V30 437 C 39.3776 -0.580276 2.23386 0
M  V30 438 C 40.3476 -1.13238 1.21517 0
M  V30 439 O 41.5326 -1.17757 1.50126 0
M  V30 440 C 38.6726 -1.74801 2.97555 0
M  V30 441 C 37.7856 -1.22764 4.1419 0
M  V30 442 C 36.9206 -2.35895 4.75949 0
M  V30 443 C 35.9596 -1.80974 5.84735 0
M  V30 444 N 35.0966 -2.87664 6.40464 0
M  V30 445 H 39.9366 0.0114833 2.97998 0
M  V30 446 H 37.4736 0.0174361 1.4709 0
M  V30 447 H 39.4316 -2.43475 3.38786 0
M  V30 448 H 38.0616 -2.31145 2.25326 0
M  V30 449 H 37.1136 -0.433271 3.77924 0
M  V30 450 H 38.4256 -0.785551 4.92575 0
M  V30 451 H 37.5796 -3.12523 5.20014 0
M  V30 452 H 36.3186 -2.83429 3.96887 0
M  V30 453 H 35.3236 -1.02834 5.40097 0
M  V30 454 H 36.5486 -1.34348 6.65678 0
M  V30 455 H 34.4946 -3.34538 5.64287 0
M  V30 456 H 34.4116 -2.4794 7.14186 0
M  V30 457 H 35.6796 -3.642 6.89187 0
M  V30 458 N 39.9087 -1.5758 0.0250728 0
M  V30 459 C 41.1547 -1.91917 -0.655413 0
M  V30 460 C 41.4877 -0.901433 -1.72011 0
M  V30 461 O 40.7627 0.0764069 -1.9435 0
M  V30 462 C 41.0457 -3.36751 -1.27558 0
M  V30 463 C 40.8987 -4.49258 -0.220719 0
M  V30 464 C 42.2177 -3.81469 -2.19475 0
M  V30 465 H 39.3367 -0.697925 -0.23679 0
M  V30 466 H 41.9787 -1.89825 0.0815036 0
M  V30 467 H 40.1287 -3.38664 -1.90365 0
M  V30 468 H 41.8007 -4.59478 0.409601 0
M  V30 469 H 40.0437 -4.31415 0.454264 0
M  V30 470 H 40.7147 -5.47618 -0.694175 0
M  V30 471 H 43.1907 -3.81266 -1.66659 0
M  V30 472 H 42.0667 -4.83512 -2.59822 0
M  V30 473 H 42.3277 -3.16744 -3.08424 0
M  V30 474 N 41.3868 0.248026 -1.55636 0
M  V30 475 C 42.6268 0.983592 -1.79178 0
M  V30 476 C 42.9908 1.82567 -0.594414 0
M  V30 477 O 44.1918 2.59292 -0.708583 0
M  V30 478 C 42.4628 1.82228 -3.07454 0
M  V30 479 S 44.0218 2.61709 -3.52213 0
M  V30 480 H 40.8398 0.330866 -0.629324 0
M  V30 481 H 43.4418 0.251562 -1.93875 0
M  V30 482 H 42.1458 1.19333 -3.92668 0
M  V30 483 H 41.6768 2.59708 -2.95492 0
M  V30 484 H 43.6918 3.84655 -3.13457 0
M  V30 485 N 42.8649 1.48995 0.513639 0
M  V30 486 C 43.8119 1.6473 1.61656 0
M  V30 487 C 44.7819 0.488984 1.58739 0
M  V30 488 O 45.9669 0.714478 1.76918 0
M  V30 489 C 43.1069 1.7082 2.99858 0
M  V30 490 C 42.2199 2.9787 3.12885 0
M  V30 491 C 41.3549 2.95017 4.41744 0
M  V30 492 C 40.3939 4.16702 4.48359 0
M  V30 493 N 39.5309 4.11832 5.68629 0
M  V30 494 H 44.3709 2.58909 1.47547 0
M  V30 495 H 41.9079 1.28382 0.71808 0
M  V30 496 H 43.8659 1.72331 3.79944 0
M  V30 497 H 42.4959 0.801181 3.12699 0
M  V30 498 H 41.5479 3.06029 2.25944 0
M  V30 499 H 42.8599 3.8786 3.13633 0
M  V30 500 H 42.0139 2.95021 5.30139 0
M  V30 501 H 40.7529 2.02784 4.43542 0
M  V30 502 H 39.7579 4.16955 3.58369 0
M  V30 503 H 40.9829 5.10113 4.48287 0
M  V30 504 H 38.9289 3.22428 5.71293 0
M  V30 505 H 38.8459 4.95543 5.7094 0
M  V30 506 H 40.1139 4.1592 6.59266 0
M  V30 507 N 44.343 -0.763751 1.37857 0
M  V30 508 C 45.253 -1.90817 1.36478 0
M  V30 509 C 46.269 -1.71997 0.263248 0
M  V30 510 O 47.445 -1.95095 0.499979 0
M  V30 511 C 44.51 -3.2605 1.17864 0
M  V30 512 C 43.571 -3.57467 2.3773 0
M  V30 513 C 42.804 -4.86249 2.19995 0
M  V30 514 O 43.027 -5.57884 1.18836 0
M  V30 515 O 41.961 -5.16911 3.08361 0
M  V30 516 H 45.787 -1.94933 2.32884 0
M  V30 517 H 43.372 -0.907619 1.1867 0
M  V30 518 H 45.254 -4.06924 1.09504 0
M  V30 519 H 43.929 -3.22769 0.245372 0
M  V30 520 H 42.836 -2.76796 2.51664 0
M  V30 521 H 44.169 -3.655 3.29652 0
M  V30 522 N 45.8211 -1.22559 -0.990812 0
M  V30 523 C 47.0681 -1.05141 -1.73065 0
M  V30 524 C 47.3961 0.413191 -1.9006 0
M  V30 525 O 46.6511 1.32257 -1.44245 0
M  V30 526 C 46.9501 -1.71011 -3.13831 0
M  V30 527 C 46.6161 -3.20911 -3.16745 0
M  V30 528 C 45.2781 -3.61812 -3.17247 0
M  V30 529 C 47.6301 -4.16846 -3.12872 0
M  V30 530 C 44.9581 -4.97127 -3.1158 0
M  V30 531 C 47.3101 -5.5214 -3.08746 0
M  V30 532 C 45.9741 -5.92419 -3.07565 0
M  V30 533 H 45.2441 -0.384738 -0.633291 0
M  V30 534 H 47.8911 -1.5235 -1.16025 0
M  V30 535 H 46.1961 -1.16133 -3.74193 0
M  V30 536 H 47.8931 -1.55023 -3.69823 0
M  V30 537 H 44.4831 -2.88344 -3.17105 0
M  V30 538 H 48.6671 -3.86263 -3.11632 0
M  V30 539 H 43.9231 -5.27562 -3.09012 0
M  V30 540 H 48.0971 -6.26201 -3.04705 0
M  V30 541 H 45.7241 -6.97236 -3.02929 0
M  V30 542 N 47.2992 1.18797 -1.03562 0
M  V30 543 C 48.5242 1.9314 -0.755764 0
M  V30 544 C 48.9492 1.7537 0.68022 0
M  V30 545 O 48.3072 1.06046 1.47051 0
M  V30 546 C 48.3552 3.42747 -1.12058 0
M  V30 547 O 47.4592 4.11683 -0.243124 0
M  V30 548 H 46.8002 0.602724 -0.278604 0
M  V30 549 H 49.3302 1.50678 -1.3841 0
M  V30 550 H 49.3402 3.93437 -1.08035 0
M  V30 551 H 48.0152 3.55002 -2.16672 0
M  V30 552 H 46.5922 3.71323 -0.342539 0
M  V30 553 N 48.7773 0.814389 1.34928 0
M  V30 554 C 49.7273 0.202752 2.27097 0
M  V30 555 C 50.7113 -0.62799 1.48139 0
M  V30 556 O 51.9033 -0.483969 1.70255 0
M  V30 557 C 49.0323 -0.64146 3.37254 0
M  V30 558 C 48.1183 0.19944 4.23631 0
M  V30 559 N 48.5093 1.26628 4.89693 0
M  V30 560 C 46.8073 -0.0176433 4.45997 0
M  V30 561 C 47.5083 1.78031 5.53787 0
M  V30 562 N 46.4843 1.08553 5.32651 0
M  V30 563 H 50.2863 1.01893 2.75672 0
M  V30 564 H 47.8003 0.656332 1.48546 0
M  V30 565 H 49.7973 -1.09575 4.02243 0
M  V30 566 H 48.4573 -1.4559 2.9023 0
M  V30 567 H 49.4683 1.64901 4.90946 0
M  V30 568 H 46.1453 -0.800601 4.09752 0
M  V30 569 H 47.5353 2.67236 6.16469 0
M  V30 570 N 50.2554 -1.46986 0.568584 0
M  V30 571 C 51.1854 -2.32946 -0.160753 0
M  V30 572 C 52.1664 -1.44487 -0.897631 0
M  V30 573 O 53.3514 -1.73327 -0.875867 0
M  V30 574 C 50.4814 -3.26494 -1.18403 0
M  V30 575 C 49.4354 -4.24282 -0.562895 0
M  V30 576 C 48.7614 -5.07236 -1.69163 0
M  V30 577 C 50.0614 -5.19989 0.490761 0
M  V30 578 H 51.7554 -2.94175 0.556916 0
M  V30 579 H 49.3014 -1.4146 0.26927 0
M  V30 580 H 51.2544 -3.85477 -1.70251 0
M  V30 581 H 49.9784 -2.63343 -1.93179 0
M  V30 582 H 48.6374 -3.66541 -0.0656164 0
M  V30 583 H 48.2854 -4.4048 -2.42871 0
M  V30 584 H 47.9854 -5.7345 -1.28174 0
M  V30 585 H 49.5094 -5.6908 -2.21314 0
M  V30 586 H 50.9234 -5.73271 0.0579047 0
M  V30 587 H 49.3204 -5.94469 0.820165 0
M  V30 588 H 50.3904 -4.64777 1.3824 0
M  V30 589 N 51.7335 -0.305618 -1.54608 0
M  V30 590 C 52.9815 0.301701 -1.99835 0
M  V30 591 C 53.3025 1.54054 -1.19551 0
M  V30 592 O 52.5725 1.93702 -0.292658 0
M  V30 593 H 51.1525 0.114468 -0.738178 0
M  V30 594 H 53.8145 -0.418016 -1.90364 0
M  V30 595 H 52.9105 0.570548 -3.06841 0
M  V30 596 N 53.2116 1.57565 -0.0334293 0
M  V30 597 C 54.1586 2.10478 0.946981 0
M  V30 598 C 55.1286 1.00787 1.32027 0
M  V30 599 O 56.3136 1.28232 1.41284 0
M  V30 600 C 53.4536 2.63994 2.22263 0
M  V30 601 C 52.5666 3.87709 1.90541 0
M  V30 602 C 51.7016 4.29604 3.12433 0
M  V30 603 C 50.7406 5.46065 2.76549 0
M  V30 604 N 49.8776 5.83096 3.9108 0
M  V30 605 H 54.7176 2.93963 0.488846 0
M  V30 606 H 52.2546 1.45296 0.22969 0
M  V30 607 H 54.2126 2.93114 2.96884 0
M  V30 608 H 52.8426 1.83333 2.65685 0
M  V30 609 H 51.8946 3.65291 1.06144 0
M  V30 610 H 53.2066 4.72403 1.60116 0
M  V30 611 H 52.3606 4.60182 3.9537 0
M  V30 612 H 51.0996 3.43685 3.46023 0
M  V30 613 H 50.1046 5.15176 1.92026 0
M  V30 614 H 51.3296 6.33685 2.44171 0
M  V30 615 H 49.2756 5.00132 4.24504 0
M  V30 616 H 49.1926 6.6244 3.64293 0
M  V30 617 H 50.4606 6.18282 4.74708 0
M  V30 618 N 54.6897 -0.239769 1.55765 0
M  V30 619 C 55.5997 -1.31831 1.94056 0
M  V30 620 C 56.6157 -1.52275 0.841925 0
M  V30 621 O 57.7917 -1.65759 1.14394 0
M  V30 622 C 54.8567 -2.65156 2.23368 0
M  V30 623 C 53.9177 -2.53173 3.46701 0
M  V30 624 C 53.1507 -3.8014 3.74606 0
M  V30 625 O 53.3737 -4.82343 3.04469 0
M  V30 626 O 52.3077 -3.78344 4.68123 0
M  V30 627 H 56.1337 -1.02347 2.85935 0
M  V30 628 H 53.7187 -0.441123 1.42739 0
M  V30 629 H 55.6007 -3.43929 2.43497 0
M  V30 630 H 54.2757 -2.94358 1.34666 0
M  V30 631 H 53.1827 -1.72662 3.31871 0
M  V30 632 H 54.5157 -2.28915 4.35728 0
M  V30 633 N 56.1678 -1.49265 -0.50573 0
M  V30 634 C 57.4448 -1.49012 -1.26707 0
M  V30 635 C 57.8248 -0.215205 -2.1 0
M  V30 636 O 57.1728 0.802547 -2.13943 0
M  V30 637 C 57.3828 -2.7663 -2.12783 0
M  V30 638 C 58.7308 -3.25932 -2.72127 0
M  V30 639 O 59.7548 -2.77715 -2.23054 0
M  V30 640 O 58.6138 -4.09897 -3.61451 0
M  V30 641 H 55.7078 -0.596197 -0.57313 0
M  V30 642 H 58.2538 -1.61524 -0.52039 0
M  V30 643 H 57.0258 -3.60916 -1.5118 0
M  V30 644 H 56.6488 -2.66956 -2.94653 0
M  V30 645 N 57.6459 0.756429 -1.3826 0
M  V30 646 C 58.8929 1.51547 -1.34312 0
M  V30 647 C 59.2209 1.94382 0.0677144 0
M  V30 648 O 58.4759 1.65514 1.04421 0
M  V30 649 C 58.7749 2.78313 -2.24224 0
M  V30 650 C 58.4409 2.54455 -3.72241 0
M  V30 651 C 57.1029 2.47657 -4.12576 0
M  V30 652 C 59.4549 2.3354 -4.65949 0
M  V30 653 C 56.7829 2.17956 -5.44713 0
M  V30 654 C 59.1349 2.05359 -5.9834 0
M  V30 655 C 57.7989 1.97016 -6.37762 0
M  V30 656 H 57.0689 0.55455 -0.491482 0
M  V30 657 H 59.7159 0.870039 -1.70595 0
M  V30 658 H 58.0209 3.47492 -1.80987 0
M  V30 659 H 59.7179 3.36259 -2.18474 0
M  V30 660 H 56.3079 2.60616 -3.40261 0
M  V30 661 H 60.4919 2.37772 -4.35635 0
M  V30 662 H 55.7479 2.10003 -5.74203 0
M  V30 663 H 59.9219 1.88179 -6.70494 0
M  V30 664 H 57.5489 1.73766 -7.40074 0
M  V30 665 N 59.124 1.23083 0.984299 0
M  V30 666 C 60.352 1.08714 1.76037 0
M  V30 667 C 60.767 -0.361691 1.85303 0
M  V30 668 O 60.124 -1.25034 1.32939 0
M  V30 669 C 60.175 1.70206 3.18923 0
M  V30 670 O 59.896 3.09423 3.10144 0
M  V30 671 C 61.397 1.61227 4.12941 0
M  V30 672 H 58.617 0.380664 0.552572 0
M  V30 673 H 61.161 1.62853 1.23689 0
M  V30 674 H 59.316 1.20109 3.6831 0
M  V30 675 H 59.73 3.39188 4.00065 0
M  V30 676 H 61.204 2.08962 5.10919 0
M  V30 677 H 61.681 0.570375 4.35481 0
M  V30 678 H 62.287 2.10671 3.69456 0
M  V30 679 N 60.6021 -1.18246 1.0419 0
M  V30 680 C 61.8271 -1.92736 0.765996 0
M  V30 681 C 62.2521 -1.75728 -0.67091 0
M  V30 682 O 61.6101 -1.06825 -1.46486 0
M  V30 683 C 61.6581 -3.42148 1.13875 0
M  V30 684 O 60.7621 -4.11548 0.264954 0
M  V30 685 H 60.1031 -0.601238 0.281797 0
M  V30 686 H 62.6331 -1.49942 1.39207 0
M  V30 687 H 62.6431 -3.92858 1.1012 0
M  V30 688 H 61.3181 -3.53848 2.18551 0
M  V30 689 H 59.8951 -3.71137 0.362226 0
M  V30 690 N 62.0802 -0.821533 -1.34494 0
M  V30 691 C 63.0102 -0.257138 -2.3208 0
M  V30 692 C 63.9912 0.625645 -1.58176 0
M  V30 693 O 65.1762 0.552811 -1.86166 0
M  V30 694 C 62.3062 0.582958 -3.42372 0
M  V30 695 C 61.2602 -0.202571 -4.2752 0
M  V30 696 C 60.5862 0.760179 -5.29269 0
M  V30 697 C 61.8862 -1.40998 -5.02908 0
M  V30 698 H 63.5802 -1.07247 -2.79532 0
M  V30 699 H 61.1262 -0.517163 -1.34393 0
M  V30 700 H 63.0792 0.987972 -4.09655 0
M  V30 701 H 61.8032 1.43133 -2.93565 0
M  V30 702 H 60.4622 -0.588936 -3.61838 0
M  V30 703 H 60.1102 1.60447 -4.76724 0
M  V30 704 H 59.8102 0.238809 -5.87115 0
M  V30 705 H 61.3342 1.16308 -5.9942 0
M  V30 706 H 62.7482 -1.07905 -5.63054 0
M  V30 707 H 61.1452 -1.86689 -5.70322 0
M  V30 708 H 62.2152 -2.1889 -4.32684 0
M  V30 709 N 63.5583 1.46682 -0.576371 0
M  V30 710 C 64.7833 2.07304 -0.0630475 0
M  V30 711 C 65.2083 1.42329 1.2298 0
M  V30 712 O 64.5663 0.504865 1.74129 0
M  V30 713 C 64.6143 3.60472 0.095895 0
M  V30 714 O 63.7183 3.95927 1.15394 0
M  V30 715 H 63.0593 0.661288 -0.0599463 0
M  V30 716 H 65.5893 1.88417 -0.797511 0
M  V30 717 H 65.5993 4.06865 0.304071 0
M  V30 718 H 64.2743 4.07157 -0.84828 0
M  V30 719 H 62.8513 3.61252 0.924724 0
M  V30 720 N 65.0364 0.313813 1.54444 0
M  V30 721 C 65.9664 -0.549454 2.26943 0
M  V30 722 C 66.9474 -1.12741 1.27372 0
M  V30 723 O 68.1324 -1.15436 1.56167 0
M  V30 724 C 65.2624 -1.71523 3.01989 0
M  V30 725 C 64.2164 -1.26703 4.08816 0
M  V30 726 C 63.5424 -2.51898 4.71647 0
M  V30 727 C 64.8424 -0.388962 5.2085 0
M  V30 728 H 66.5364 0.0552661 2.99349 0
M  V30 729 H 64.0824 0.0280207 1.43973 0
M  V30 730 H 66.0354 -2.32535 3.51433 0
M  V30 731 H 64.7594 -2.34639 2.27183 0
M  V30 732 H 63.4184 -0.679896 3.6024 0
M  V30 733 H 63.0664 -3.13356 3.93468 0
M  V30 734 H 62.7664 -2.22605 5.43802 0
M  V30 735 H 64.2904 -3.1369 5.23861 0
M  V30 736 H 65.7044 -0.905107 5.6611 0
M  V30 737 H 64.1014 -0.18924 5.99802 0
M  V30 738 H 65.1714 0.582699 4.81386 0
M  V30 739 N 66.5145 -1.57545 0.0417849 0
M  V30 740 C 67.7605 -1.92601 -0.635021 0
M  V30 741 C 68.0935 -0.919627 -1.71045 0
M  V30 742 O 67.3685 0.0557892 -1.9442 0
M  V30 743 C 67.6515 -3.38085 -1.23979 0
M  V30 744 C 67.5045 -4.49467 -0.173057 0
M  V30 745 C 68.8235 -3.83776 -2.15416 0
M  V30 746 H 65.9425 -0.700397 -0.229374 0
M  V30 747 H 68.5845 -1.89728 0.101633 0
M  V30 748 H 66.7345 -3.40664 -1.86762 0
M  V30 749 H 68.4065 -4.59018 0.458312 0
M  V30 750 H 66.6495 -4.30909 0.499996 0
M  V30 751 H 67.3205 -5.48323 -0.636054 0
M  V30 752 H 69.7965 -3.83013 -1.62605 0
M  V30 753 H 68.6725 -4.8624 -2.54679 0
M  V30 754 H 68.9335 -3.19998 -3.05047 0
M  V30 755 N 67.9926 0.231505 -1.5589 0
M  V30 756 C 68.9226 1.29022 -1.94617 0
M  V30 757 C 69.9036 1.4941 -0.813067 0
M  V30 758 O 71.0886 1.6176 -1.07459 0
M  V30 759 C 68.2186 2.64199 -2.25424 0
M  V30 760 C 67.1726 2.58484 -3.41131 0
M  V30 761 C 66.4986 3.97599 -3.57518 0
M  V30 762 C 67.7986 2.1413 -4.76388 0
M  V30 763 H 69.4926 0.968563 -2.83301 0
M  V30 764 H 67.0386 0.464479 -1.36303 0
M  V30 765 H 68.9916 3.38413 -2.51107 0
M  V30 766 H 67.7156 2.98032 -1.33583 0
M  V30 767 H 66.3746 1.86727 -3.15481 0
M  V30 768 H 66.0226 4.28723 -2.6307 0
M  V30 769 H 65.7226 3.94659 -4.35337 0
M  V30 770 H 67.2466 4.7349 -3.85538 0
M  V30 771 H 68.6606 2.78083 -5.01341 0
M  V30 772 H 67.0576 2.2227 -5.57419 0
M  V30 773 H 68.1276 1.09331 -4.72414 0
M  V30 774 N 69.4707 1.49531 0.497807 0
M  V30 775 C 70.7007 1.62657 1.27382 0
M  V30 776 C 71.1087 0.298488 1.86831 0
M  V30 777 O 70.4517 -0.72647 1.68725 0
M  V30 778 C 70.5137 2.6393 2.44093 0
M  V30 779 C 70.1777 4.08195 2.05489 0
M  V30 780 C 71.1747 4.949 1.59279 0
M  V30 781 C 68.8597 4.53948 2.15026 0
M  V30 782 C 70.8537 6.25397 1.23113 0
M  V30 783 C 68.5407 5.84458 1.78473 0
M  V30 784 C 69.5387 6.70006 1.32591 0
M  V30 785 O 69.2267 7.98083 0.965327 0
M  V30 786 H 68.9587 0.550429 0.392434 0
M  V30 787 H 71.5127 1.96325 0.603801 0
M  V30 788 H 69.7427 2.25449 3.14181 0
M  V30 789 H 71.4317 2.66552 3.06113 0
M  V30 790 H 72.1977 4.60779 1.51354 0
M  V30 791 H 68.0767 3.87525 2.4969 0
M  V30 792 H 71.6207 6.92125 0.872299 0
M  V30 793 H 67.5177 6.18107 1.86048 0
M  V30 794 H 68.2857 8.11122 1.09652 0
M  V30 795 N 70.9488 -0.749086 1.3866 0
M  V30 796 C 72.1738 -1.54344 1.38538 0
M  V30 797 C 72.5988 -1.88088 -0.0216655 0
M  V30 798 O 71.9568 -1.50899 -1.00494 0
M  V30 799 C 72.0048 -2.8164 2.25192 0
M  V30 800 O 71.1088 -3.7698 1.67212 0
M  V30 801 H 70.4498 -0.466654 0.472367 0
M  V30 802 H 72.9798 -0.925355 1.82478 0
M  V30 803 H 72.9898 -3.30519 2.3921 0
M  V30 804 H 71.6648 -2.56411 3.27454 0
M  V30 805 H 70.2418 -3.35699 1.6236 0
M  V30 806 N 72.4269 -1.23603 -0.977757 0
M  V30 807 C 73.8429 -0.999251 -1.24447 0
M  V30 808 C 74.0429 0.298053 -1.99283 0
M  V30 809 O 73.0989 1.01681 -2.31122 0
M  V30 810 C 74.4119 -2.20784 -2.04144 0
M  V30 811 C 75.9599 -2.25303 -2.17273 0
M  V30 812 C 76.4349 -3.45755 -3.00362 0
M  V30 813 N 77.9259 -3.4601 -3.07947 0
M  V30 814 C 78.6609 -4.35868 -3.72568 0
M  V30 815 N 78.1569 -5.35966 -4.38991 0
M  V30 816 N 79.9499 -4.23605 -3.6948 0
M  V30 817 H 72.1009 -2.06986 -0.476483 0
M  V30 818 H 74.3639 -0.907801 -0.273134 0
M  V30 819 H 74.0699 -3.14945 -1.56533 0
M  V30 820 H 73.9439 -2.22085 -3.04891 0
M  V30 821 H 76.3309 -1.3168 -2.64092 0
M  V30 822 H 76.4119 -2.28033 -1.15907 0
M  V30 823 H 76.0559 -4.39687 -2.5424 0
M  V30 824 H 75.9859 -3.40266 -4.01904 0
M  V30 825 H 78.4769 -2.73588 -2.60688 0
M  V30 826 H 78.7899 -6.00783 -4.86086 0
M  V30 827 H 77.1349 -5.39863 -4.37691 0
M  V30 828 H 80.3259 -3.44647 -3.16759 0
M  V30 829 H 80.4989 -4.93836 -4.1956 0
M  V30 830 N 73.905 1.17692 -1.04816 0
M  V30 831 C 74.852 2.21581 -0.645797 0
M  V30 832 C 75.822 1.62367 0.350159 0
M  V30 833 O 77.007 1.89254 0.242433 0
M  V30 834 C 74.147 3.45092 -0.0227568 0
M  V30 835 C 73.26 4.18613 -1.06709 0
M  V30 836 C 72.395 5.29602 -0.411767 0
M  V30 837 C 71.434 5.94904 -1.44067 0
M  V30 838 N 70.571 6.97414 -0.809781 0
M  V30 839 H 75.411 2.55353 -1.5362 0
M  V30 840 H 72.948 1.25438 -0.768364 0
M  V30 841 H 74.906 4.15679 0.35588 0
M  V30 842 H 73.536 3.11917 0.831122 0
M  V30 843 H 72.588 3.46779 -1.5636 0
M  V30 844 H 73.9 4.63293 -1.84827 0
M  V30 845 H 73.054 6.06696 0.0206623 0
M  V30 846 H 71.793 4.86045 0.401438 0
M  V30 847 H 70.798 5.16544 -1.88316 0
M  V30 848 H 72.023 6.40542 -2.25571 0
M  V30 849 H 69.969 6.55998 -0.0170186 0
M  V30 850 H 69.886 7.40386 -1.52856 0
M  V30 851 H 71.154 7.78463 -0.401999 0
M  V30 852 N 75.3831 0.828654 1.34056 0
M  V30 853 C 76.6301 0.419458 1.98108 0
M  V30 854 C 76.9581 -1.01886 1.65679 0
M  V30 855 O 76.2131 -1.72539 0.923512 0
M  V30 856 C 76.5121 0.575226 3.52741 0
M  V30 857 C 76.1781 1.98012 4.05095 0
M  V30 858 C 74.8401 2.36442 4.19104 0
M  V30 859 C 77.1921 2.89824 4.33188 0
M  V30 860 C 74.5201 3.66009 4.58535 0
M  V30 861 C 76.8721 4.1886 4.74066 0
M  V30 862 C 75.5361 4.5726 4.86281 0
M  V30 863 H 74.8061 0.153491 0.724929 0
M  V30 864 H 77.4531 1.05371 1.59904 0
M  V30 865 H 75.7581 -0.142385 3.91541 0
M  V30 866 H 77.4551 0.239057 4.00287 0
M  V30 867 H 74.0451 1.67162 3.94658 0
M  V30 868 H 78.2291 2.61375 4.21897 0
M  V30 869 H 73.4851 3.95579 4.66184 0
M  V30 870 H 77.6591 4.90086 4.94761 0
M  V30 871 H 75.2861 5.57707 5.16592 0
M  V30 872 N 76.8612 -1.46375 0.584142 0
M  V30 873 C 78.2722 -1.86031 0.157959 0
M  V30 874 C 78.6232 -1.48753 -1.27933 0
M  V30 875 O 77.7482 -0.903098 -1.96655 0
M  V30 876 C 78.3432 -3.37642 0.279892 0
M  V30 877 C 76.9022 -3.76289 -0.09143 0
M  V30 878 C 76.0492 -2.7039 0.615178 0
M  V30 879 H 79.0002 -1.37509 0.792274 0
M  V30 880 H 79.0212 -3.77275 -0.494364 0
M  V30 881 H 78.5332 -3.64742 1.32607 0
M  V30 882 H 76.6342 -3.54806 -1.13769 0
M  V30 883 H 76.7472 -4.78246 0.285886 0
M  V30 884 H 75.1112 -2.5464 0.0552833 0
M  V30 885 H 75.8942 -3.0033 1.66303 0
M  V30 886 N 78.3393 -0.321999 -1.54275 0
M  V30 887 C 79.5643 0.285791 -2.05422 0
M  V30 888 C 79.9893 1.45124 -1.19669 0
M  V30 889 O 79.3473 1.80132 -0.205441 0
M  V30 890 C 79.3953 0.69956 -3.53749 0
M  V30 891 O 78.4993 1.8021 -3.70942 0
M  V30 892 H 77.8403 0.0518962 -0.661969 0
M  V30 893 H 80.3703 -0.469954 -1.9913 0
M  V30 894 H 80.3803 0.982649 -3.9599 0
M  V30 895 H 79.0553 -0.152864 -4.15619 0
M  V30 896 H 77.6323 1.51794 -3.40607 0
M  V30 897 N 79.8174 1.5752 -0.0501392 0
M  V30 898 C 81.0654 1.9227 0.622642 0
M  V30 899 C 81.3864 0.929083 1.71444 0
M  V30 900 O 80.6564 -0.0262186 1.95882 0
M  V30 901 H 79.2364 0.709739 0.232981 0
M  V30 902 H 81.8984 1.94628 -0.102898 0
M  V30 903 H 80.9944 2.93479 1.06191 0
M  V30 904 N 81.2955 -0.223234 1.56011 0
M  V30 905 C 82.5235 -0.964812 1.83027 0
M  V30 906 C 82.9385 -1.78013 0.62904 0
M  V30 907 O 82.2955 -1.78008 -0.402414 0
M  V30 908 C 82.3465 -1.88373 3.08542 0
M  V30 909 O 82.0675 -1.10137 4.2403 0
M  V30 910 C 83.5685 -2.73934 3.48533 0
M  V30 911 H 80.7885 -0.282842 0.608475 0
M  V30 912 H 83.3325 -0.238971 2.03099 0
M  V30 913 H 81.4875 -2.56354 2.9045 0
M  V30 914 H 81.9015 -1.72501 4.95322 0
M  V30 915 H 83.3755 -3.34117 4.39397 0
M  V30 916 H 83.8525 -3.46244 2.70207 0
M  V30 917 H 84.4585 -2.11369 3.69057 0
M  V30 918 N 82.7736 -1.49793 -0.48987 0
M  V30 919 C 84.0206 -1.59841 -1.24327 0
M  V30 920 C 84.3486 -0.290135 -1.92324 0
M  V30 921 O 83.6036 0.722749 -1.81865 0
M  V30 922 C 83.9026 -2.71488 -2.32441 0
M  V30 923 C 83.5686 -4.12614 -1.81826 0
M  V30 924 C 82.2306 -4.51017 -1.67742 0
M  V30 925 C 84.5826 -5.00892 -1.4407 0
M  V30 926 C 81.9106 -5.75459 -1.14297 0
M  V30 927 C 84.2626 -6.25863 -0.920742 0
M  V30 928 C 82.9266 -6.63086 -0.766383 0
M  V30 929 H 82.1966 -0.584899 -0.454944 0
M  V30 930 H 84.8436 -1.83663 -0.542215 0
M  V30 931 H 83.1486 -2.4168 -3.0838 0
M  V30 932 H 84.8456 -2.76469 -2.90458 0
M  V30 933 H 81.4356 -3.82307 -1.93751 0
M  V30 934 H 85.6196 -4.7187 -1.53794 0
M  V30 935 H 80.8756 -6.02989 -1.01068 0
M  V30 936 H 85.0496 -6.9364 -0.619448 0
M  V30 937 H 82.6766 -7.59393 -0.350083 0
M  V30 938 N 84.2517 0.741722 -1.39055 0
M  V30 939 C 85.1617 1.88621 -1.39496 0
M  V30 940 C 86.1777 1.71557 -0.290578 0
M  V30 941 O 87.3537 1.94275 -0.530954 0
M  V30 942 C 84.4187 3.24134 -1.23037 0
M  V30 943 C 83.4797 3.5364 -2.43387 0
M  V30 944 C 82.7127 4.82687 -2.27703 0
M  V30 945 O 82.9357 5.55922 -1.27696 0
M  V30 946 O 81.8697 5.1194 -3.16545 0
M  V30 947 H 85.6957 1.91203 -2.35956 0
M  V30 948 H 83.2807 0.888625 -1.20099 0
M  V30 949 H 85.1627 4.0513 -1.15964 0
M  V30 950 H 83.8377 3.22337 -0.296691 0
M  V30 951 H 82.7447 2.72758 -2.56035 0
M  V30 952 H 84.0777 3.60209 -3.35425 0
M  V30 953 N 85.7298 1.2412 0.971189 0
M  V30 954 C 86.6618 0.988349 2.06795 0
M  V30 955 C 87.6748 -0.0409541 1.62748 0
M  V30 956 O 88.8638 0.195673 1.77424 0
M  V30 957 C 85.9638 0.469023 3.35639 0
M  V30 958 C 85.1368 1.56065 4.08611 0
M  V30 959 C 84.1958 1.04458 5.15728 0
M  V30 960 O 83.2218 1.73553 5.42096 0
M  V30 961 N 84.4238 -0.122817 5.8037 0
M  V30 962 H 87.1888 1.93265 2.29061 0
M  V30 963 H 84.7498 1.15102 1.13856 0
M  V30 964 H 86.7418 0.108613 4.04554 0
M  V30 965 H 85.3118 -0.380919 3.1027 0
M  V30 966 H 84.5318 2.09341 3.34021 0
M  V30 967 H 85.8198 2.29449 4.54126 0
M  V30 968 H 85.2178 -0.700563 5.61345 0
M  V30 969 H 83.7748 -0.424404 6.50417 0
M  V30 970 N 87.2079 -1.17134 1.05439 0
M  V30 971 C 88.4539 -1.87733 0.767077 0
M  V30 972 C 88.7869 -1.8098 -0.704253 0
M  V30 973 O 88.0619 -1.21951 -1.5152 0
M  V30 974 C 88.3449 -3.37659 1.25133 0
M  V30 975 C 88.1979 -3.53149 2.78578 0
M  V30 976 C 89.5169 -4.31768 0.852324 0
M  V30 977 H 86.6359 -0.681687 0.280129 0
M  V30 978 H 89.2779 -1.37732 1.30881 0
M  V30 979 H 87.4279 -3.80373 0.790469 0
M  V30 980 H 89.0999 -3.19434 3.32806 0
M  V30 981 H 87.3429 -2.95345 3.17732 0
M  V30 982 H 88.0139 -4.58403 3.07523 0
M  V30 983 H 90.4899 -3.96909 1.24911 0
M  V30 984 H 89.3659 -5.35199 1.21873 0
M  V30 985 H 89.6269 -4.41429 -0.243485 0
M  V30 986 N 88.686 -0.835752 -1.33615 0
M  V30 987 C 89.911 -0.442389 -2.02627 0
M  V30 988 C 90.336 0.947735 -1.62479 0
M  V30 989 O 89.694 1.61907 -0.815826 0
M  V30 990 C 89.742 -0.567216 -3.56111 0
M  V30 991 O 88.846 0.407799 -4.10379 0
M  V30 992 H 88.187 -0.180278 -0.639059 0
M  V30 993 H 90.717 -1.12972 -1.70583 0
M  V30 994 H 90.727 -0.447708 -4.05536 0
M  V30 995 H 89.402 -1.58103 -3.84677 0
M  V30 996 H 87.979 0.246107 -3.72087 0
M  V30 997 N 90.1641 1.46063 -0.591896 0
M  V30 998 C 91.0961 2.28539 0.174001 0
M  V30 999 C 92.1091 1.39047 0.846753 0
M  V30 1000 O 93.2981 1.63564 0.714774 0
M  V30 1001 C 90.3981 3.14347 1.26645 0
M  V30 1002 C 89.5711 4.32021 0.683856 0
M  V30 1003 C 88.6301 4.99157 1.66518 0
M  V30 1004 O 87.6561 5.56458 1.19763 0
M  V30 1005 N 88.8581 4.97005 2.99943 0
M  V30 1006 H 91.6231 2.94911 -0.533633 0
M  V30 1007 H 89.1841 1.56077 -0.430294 0
M  V30 1008 H 91.1761 3.56125 1.92242 0
M  V30 1009 H 89.7461 2.49988 1.87682 0
M  V30 1010 H 88.9661 3.93915 -0.1498 0
M  V30 1011 H 90.2541 5.08059 0.274567 0
M  V30 1012 H 89.6521 4.51714 3.40545 0
M  V30 1013 H 88.2091 5.42696 3.61004 0
M  V30 1014 N 91.6422 0.330177 1.54103 0
M  V30 1015 C 92.5722 -0.525353 2.27513 0
M  V30 1016 C 93.5532 -1.11383 1.2856 0
M  V30 1017 O 94.7382 -1.13773 1.57383 0
M  V30 1018 C 91.8682 -1.6831 3.03791 0
M  V30 1019 C 90.8222 -1.2236 4.10137 0
M  V30 1020 C 90.1482 -2.46882 4.74293 0
M  V30 1021 C 91.4482 -0.333697 5.21233 0
M  V30 1022 H 93.1422 0.087013 2.99274 0
M  V30 1023 H 90.6882 0.0432893 1.43935 0
M  V30 1024 H 92.6412 -2.28795 3.5388 0
M  V30 1025 H 91.3652 -2.32216 2.29659 0
M  V30 1026 H 90.0242 -0.64165 3.60941 0
M  V30 1027 H 89.6722 -3.09165 3.96769 0
M  V30 1028 H 89.3722 -2.16825 5.46133 0
M  V30 1029 H 90.8962 -3.08117 5.27159 0
M  V30 1030 H 92.3102 -0.845013 5.67038 0
M  V30 1031 H 90.7072 -0.125612 5.99969 0
M  V30 1032 H 91.7772 0.633724 4.80741 0
M  V30 1033 N 93.1203 -1.57491 0.0584922 0
M  V30 1034 C 94.3663 -1.93264 -0.614558 0
M  V30 1035 C 94.6993 -0.937717 -1.7006 0
M  V30 1036 O 93.9743 0.0351652 -1.94468 0
M  V30 1037 C 94.2573 -3.3938 -1.20386 0
M  V30 1038 C 94.1103 -4.49625 -0.125375 0
M  V30 1039 C 95.4293 -3.86039 -2.11334 0
M  V30 1040 H 92.5483 -0.702791 -0.221933 0
M  V30 1041 H 95.1903 -1.8961 0.12175 0
M  V30 1042 H 93.3403 -3.42626 -1.83139 0
M  V30 1043 H 95.0123 -4.58506 0.506971 0
M  V30 1044 H 93.2553 -4.30354 0.545672 0
M  V30 1045 H 93.9263 -5.48967 -0.577861 0
M  V30 1046 H 96.4023 -3.84716 -1.58534 0
M  V30 1047 H 95.2783 -4.88914 -2.49507 0
M  V30 1048 H 95.5393 -3.23215 -3.01636 0
M  V30 1049 N 94.5984 0.214957 -1.56127 0
M  V30 1050 C 95.5454 1.26642 -1.92952 0
M  V30 1051 C 96.5154 1.46244 -0.78753 0
M  V30 1052 O 97.7004 1.59704 -1.04399 0
M  V30 1053 C 94.8404 2.6104 -2.25726 0
M  V30 1054 C 93.9534 2.49183 -3.52891 0
M  V30 1055 C 93.0884 3.76149 -3.7508 0
M  V30 1056 C 92.1274 3.59041 -4.95738 0
M  V30 1057 N 91.2644 4.77972 -5.14283 0
M  V30 1058 H 96.1044 0.945384 -2.82607 0
M  V30 1059 H 93.6414 0.455489 -1.3987 0
M  V30 1060 H 95.5994 3.39313 -2.42739 0
M  V30 1061 H 94.2294 2.91227 -1.39236 0
M  V30 1062 H 93.2814 1.6231 -3.44034 0
M  V30 1063 H 94.5934 2.32466 -4.41318 0
M  V30 1064 H 93.7474 4.62865 -3.92226 0
M  V30 1065 H 92.4864 3.95799 -2.84947 0
M  V30 1066 H 91.4914 2.7071 -4.78535 0
M  V30 1067 H 92.7164 3.40856 -5.87362 0
M  V30 1068 H 90.6624 4.97923 -4.27093 0
M  V30 1069 H 90.5794 4.64006 -5.96853 0
M  V30 1070 H 91.8474 5.66096 -5.35869 0
M  V30 1071 N 96.0765 1.50051 0.48192 0
M  V30 1072 C 96.9865 1.7089 1.60728 0
M  V30 1073 C 98.0025 0.591788 1.63627 0
M  V30 1074 O 99.1785 0.868817 1.81696 0
M  V30 1075 C 96.2435 1.78855 2.97005 0
M  V30 1076 C 95.3045 3.02537 3.04581 0
M  V30 1077 C 94.5375 3.10112 4.34357 0
M  V30 1078 O 94.7605 2.24765 5.24249 0
M  V30 1079 O 93.6945 4.02747 4.47301 0
M  V30 1080 H 97.5205 2.66264 1.46072 0
M  V30 1081 H 95.1055 1.34018 0.660264 0
M  V30 1082 H 96.9875 1.86336 3.77964 0
M  V30 1083 H 95.6625 0.866628 3.11883 0
M  V30 1084 H 94.5695 3.00563 2.22739 0
M  V30 1085 H 95.9025 3.94272 2.94636 0
M  V30 1086 N 97.5546 -0.734337 1.39446 0
M  V30 1087 C 98.8006 -1.49613 1.36908 0
M  V30 1088 C 99.1336 -1.94169 -0.0347829 0
M  V30 1089 O 98.4086 -1.66833 -0.999847 0
M  V30 1090 C 98.6916 -2.73534 2.34203 0
M  V30 1091 C 98.5446 -2.34993 3.83534 0
M  V30 1092 C 99.8636 -3.75635 2.29317 0
M  V30 1093 H 96.9826 -0.542714 0.498629 0
M  V30 1094 H 99.6246 -0.839597 1.70443 0
M  V30 1095 H 97.7746 -3.29553 2.05736 0
M  V30 1096 H 99.4466 -1.84601 4.22753 0
M  V30 1097 H 97.6896 -1.67213 4.00278 0
M  V30 1098 H 98.3606 -3.23738 4.47099 0
M  V30 1099 H 100.837 -3.29203 2.54489 0
M  V30 1100 H 99.7126 -4.60008 2.99472 0
M  V30 1101 H 99.9736 -4.22603 1.29842 0
M  V30 1102 N 99.0327 -1.24633 -0.964593 0
M  V30 1103 C 100.279 -1.08949 -1.71049 0
M  V30 1104 C 100.612 0.370302 -1.90637 0
M  V30 1105 O 99.8867 1.27349 -1.47011 0
M  V30 1106 C 100.17 -1.83329 -3.0994 0
M  V30 1107 C 100.023 -3.37077 -2.97824 0
M  V30 1108 C 101.342 -1.60846 -4.09654 0
M  V30 1109 H 98.4607 -0.397178 -0.620821 0
M  V30 1110 H 101.103 -1.5334 -1.12191 0
M  V30 1111 H 99.2527 -1.45597 -3.60186 0
M  V30 1112 H 100.925 -3.84425 -2.5498 0
M  V30 1113 H 99.1677 -3.65298 -2.33965 0
M  V30 1114 H 99.8387 -3.84324 -3.96231 0
M  V30 1115 H 102.315 -1.93674 -3.68279 0
M  V30 1116 H 101.191 -2.1534 -5.04896 0
M  V30 1117 H 101.452 -0.547434 -4.38698 0
M  V30 1118 N 100.511 1.16574 -1.06058 0
M  V30 1119 C 101.736 1.91493 -0.796562 0
M  V30 1120 C 102.161 1.76773 0.642868 0
M  V30 1121 O 101.519 1.09142 1.44768 0
M  V30 1122 C 101.567 3.40293 -1.19303 0
M  V30 1123 O 100.671 4.11074 -0.330394 0
M  V30 1124 H 100.012 0.596678 -0.291326 0
M  V30 1125 H 102.542 1.47708 -1.41575 0
M  V30 1126 H 102.552 3.91057 -1.16356 0
M  V30 1127 H 101.227 3.50326 -2.24153 0
M  V30 1128 H 99.8038 3.70513 -0.421225 0
M  V30 1129 N 101.989 0.842826 1.3317 0
M  V30 1130 C 102.919 0.294028 2.31641 0
M  V30 1131 C 103.9 -0.600401 1.59151 0
M  V30 1132 O 105.085 -0.523124 1.87022 0
M  V30 1133 C 102.215 -0.528416 3.43257 0
M  V30 1134 C 101.169 0.27056 4.27144 0
M  V30 1135 C 100.495 -0.675881 5.30411 0
M  V30 1136 C 101.795 1.48981 5.00602 0
M  V30 1137 H 103.489 1.11681 2.77791 0
M  V30 1138 H 101.035 0.538478 1.33553 0
M  V30 1139 H 102.988 -0.922674 4.11175 0
M  V30 1140 H 101.712 -1.38445 2.95805 0
M  V30 1141 H 100.371 0.646427 3.60856 0
M  V30 1142 H 100.019 -1.52842 4.79216 0
M  V30 1143 H 99.7189 -0.145374 5.8742 0
M  V30 1144 H 101.243 -1.06757 6.01195 0
M  V30 1145 H 102.657 1.16849 5.61266 0
M  V30 1146 H 101.054 1.95739 5.6728 0
M  V30 1147 H 102.124 2.25746 4.29147 0
M  V30 1148 N 103.467 -1.45747 0.599634 0
M  V30 1149 C 104.695 -2.06668 0.0978551 0
M  V30 1150 C 105.11 -1.44562 -1.21439 0
M  V30 1151 O 104.467 -0.556923 -1.73795 0
M  V30 1152 C 104.518 -3.61456 -0.0567044 0
M  V30 1153 O 104.239 -4.21242 1.20361 0
M  V30 1154 C 105.74 -4.39345 -0.590869 0
M  V30 1155 H 102.96 -0.667825 0.0651943 0
M  V30 1156 H 105.504 -1.87115 0.82511 0
M  V30 1157 H 103.659 -3.80378 -0.734251 0
M  V30 1158 H 104.073 -5.14323 1.02821 0
M  V30 1159 H 105.547 -5.48182 -0.648131 0
M  V30 1160 H 106.024 -4.08568 -1.61147 0
M  V30 1161 H 106.63 -4.25268 0.0523679 0
M  V30 1162 N 104.945 -0.338344 -1.53925 0
M  V30 1163 C 105.855 0.529421 -2.28548 0
M  V30 1164 C 106.871 1.11645 -1.3346 0
M  V30 1165 O 108.047 1.13325 -1.66492 0
M  V30 1166 C 105.112 1.66713 -3.03987 0
M  V30 1167 C 104.173 1.11041 -4.14691 0
M  V30 1168 C 103.406 2.19389 -4.86522 0
M  V30 1169 O 103.629 3.40013 -4.57982 0
M  V30 1170 O 102.563 1.83976 -5.73094 0
M  V30 1171 H 106.389 -0.0770399 -3.03602 0
M  V30 1172 H 103.974 -0.103555 -1.49041 0
M  V30 1173 H 105.856 2.32918 -3.5118 0
M  V30 1174 H 104.531 2.25949 -2.31794 0
M  V30 1175 H 103.438 0.413024 -3.71813 0
M  V30 1176 H 104.771 0.562975 -4.8897 0
M  V30 1177 N 106.423 1.57458 -0.0668435 0
M  V30 1178 C 107.386 2.11323 0.887422 0
M  V30 1179 C 108.386 1.03618 1.22964 0
M  V30 1180 O 109.576 1.29626 1.16373 0
M  V30 1181 C 106.708 2.61048 2.19242 0
M  V30 1182 H 107.901 2.96942 0.420194 0
M  V30 1183 H 105.454 1.55239 0.181793 0
M  V30 1184 H 106.189 1.78868 2.70512 0
M  V30 1185 H 105.974 3.39769 1.95702 0
M  V30 1186 H 107.464 3.02814 2.87565 0
M  V30 1187 N 107.901 -0.206675 1.56239 0
M  V30 1188 C 109.141 -0.93574 1.81723 0
M  V30 1189 C 109.505 -1.80927 0.642609 0
M  V30 1190 O 110.706 -2.57323 0.777081 0
M  V30 1191 C 108.977 -1.74012 3.12177 0
M  V30 1192 S 110.536 -2.52279 3.59028 0
M  V30 1193 H 107.354 -0.314065 0.637875 0
M  V30 1194 H 109.956 -0.200071 1.94474 0
M  V30 1195 H 108.66 -1.0888 3.95693 0
M  V30 1196 H 108.191 -2.51782 3.02274 0
M  V30 1197 H 110.206 -3.76209 3.23545 0
M  V30 1198 N 109.379 -1.50304 -0.473955 0
M  V30 1199 C 110.619 -1.62786 -1.23612 0
M  V30 1200 C 110.983 -0.319786 -1.89318 0
M  V30 1201 O 112.184 -0.320012 -2.66888 0
M  V30 1202 C 110.455 -2.77351 -2.25414 0
M  V30 1203 S 112.014 -3.09948 -3.10608 0
M  V30 1204 H 108.832 -0.573895 -0.419721 0
M  V30 1205 H 111.434 -1.88076 -0.533623 0
M  V30 1206 H 110.138 -3.70879 -1.75719 0
M  V30 1207 H 109.669 -2.54137 -3.00296 0
M  V30 1208 H 111.684 -2.53553 -4.26527 0
M  V30 1209 N 110.857 0.726932 -1.39834 0
M  V30 1210 C 111.82 1.82269 -1.38962 0
M  V30 1211 C 112.82 1.58248 -0.285334 0
M  V30 1212 O 114.01 1.65499 -0.54366 0
M  V30 1213 C 111.142 3.20186 -1.17019 0
M  V30 1214 H 112.335 1.84443 -2.36476 0
M  V30 1215 H 109.888 0.931416 -1.25516 0
M  V30 1216 H 110.623 3.23669 -0.202204 0
M  V30 1217 H 110.408 3.3902 -1.96998 0
M  V30 1218 H 111.898 4.00235 -1.1917 0
M  V30 1219 N 112.336 1.25143 0.95797 0
M  V30 1220 C 113.246 1.06968 2.08794 0
M  V30 1221 C 114.262 0.00773911 1.73998 0
M  V30 1222 O 115.438 0.207972 2.00323 0
M  V30 1223 C 112.503 0.68691 3.39827 0
M  V30 1224 C 111.564 1.82641 3.88511 0
M  V30 1225 C 110.797 1.46181 5.1329 0
M  V30 1226 O 111.02 0.355971 5.69288 0
M  V30 1227 O 109.954 2.29085 5.566 0
M  V30 1228 H 113.78 2.01723 2.27027 0
M  V30 1229 H 111.365 1.04051 1.07209 0
M  V30 1230 H 113.247 0.485417 4.18595 0
M  V30 1231 H 111.922 -0.231417 3.22872 0
M  V30 1232 H 110.829 2.08274 3.10762 0
M  V30 1233 H 112.162 2.72386 4.09959 0
M  V30 1234 N 113.814 -1.1601 1.06675 0
M  V30 1235 C 115.062 -1.86264 0.784229 0
M  V30 1236 C 115.383 -1.82328 -0.691488 0
M  V30 1237 O 114.653 -1.25947 -1.50047 0
M  V30 1238 H 113.233 -0.689621 0.28711 0
M  V30 1239 H 115.895 -1.40664 1.34906 0
M  V30 1240 H 114.991 -2.91595 1.11259 0
M  V30 1241 N 115.292 -0.849877 -1.32721 0
M  V30 1242 C 116.255 -0.296122 -2.27279 0
M  V30 1243 C 117.255 0.541458 -1.5141 0
M  V30 1244 O 118.445 0.353658 -1.70572 0
M  V30 1245 C 115.577 0.581579 -3.35902 0
M  V30 1246 H 116.77 -1.13064 -2.77771 0
M  V30 1247 H 114.323 -0.62383 -1.43311 0
M  V30 1248 H 115.058 1.43809 -2.9067 0
M  V30 1249 H 114.843 -0.0178814 -3.92096 0
M  V30 1250 H 116.333 0.961951 -4.0637 0
M  V30 1251 N 116.77 1.45427 -0.607355 0
M  V30 1252 C 118.047 1.9557 -0.0344566 0
M  V30 1253 C 118.427 1.54979 1.43334 0
M  V30 1254 O 117.775 0.812241 2.13576 0
M  V30 1255 C 117.985 3.48226 -0.232321 0
M  V30 1256 C 119.333 4.2445 -0.113001 0
M  V30 1257 O 120.357 3.55829 -0.162431 0
M  V30 1258 O 119.216 5.465 0.00209442 0
M  V30 1259 H 116.31 0.826222 0.0358667 0
M  V30 1260 H 118.856 1.55594 -0.6774 0
M  V30 1261 H 117.628 3.70739 -1.25174 0
M  V30 1262 H 117.251 3.95092 0.445896 0
M  V30 1263 N 118.248 0.346503 1.53744 0
M  V30 1264 C 119.659 -0.136779 1.86198 0
M  V30 1265 C 120.01 -1.49749 1.26766 0
M  V30 1266 O 119.135 -2.08417 0.582355 0
M  V30 1267 C 119.73 -0.254966 3.37839 0
M  V30 1268 C 118.289 -0.682482 3.70161 0
M  V30 1269 C 117.436 0.181981 2.76702 0
M  V30 1270 H 120.387 0.565994 1.48264 0
M  V30 1271 H 120.408 -1.08195 3.64793 0
M  V30 1272 H 119.92 0.735526 3.81066 0
M  V30 1273 H 118.021 -1.68189 3.3248 0
M  V30 1274 H 118.134 -0.470326 4.76786 0
M  V30 1275 H 116.498 -0.34615 2.52337 0
M  V30 1276 H 117.281 1.16966 3.2276 0
M  V30 1277 N 119.726 -1.57421 0.075193 0
M  V30 1278 C 121.003 -1.85029 -0.634329 0
M  V30 1279 C 121.383 -0.968305 -1.87582 0
M  V30 1280 O 120.731 -0.0354749 -2.28472 0
M  V30 1281 C 120.941 -3.35286 -0.968742 0
M  V30 1282 C 122.289 -4.02875 -1.34077 0
M  V30 1283 O 123.313 -3.40051 -1.06037 0
M  V30 1284 O 122.172 -5.13691 -1.86506 0
M  V30 1285 H 119.266 -0.7645 -0.315387 0
M  V30 1286 H 121.812 -1.69366 0.106382 0
M  V30 1287 H 120.584 -3.91203 -0.0871376 0
M  V30 1288 H 120.207 -3.56223 -1.7661 0
M  V30 1289 N 121.204 0.198386 -1.56346 0
M  V30 1290 C 122.444 0.92609 -1.82217 0
M  V30 1291 C 122.808 1.80584 -0.652195 0
M  V30 1292 O 124.009 2.56907 -0.790716 0
M  V30 1293 C 122.28 1.72354 -3.13096 0
M  V30 1294 S 123.839 2.50371 -3.6036 0
M  V30 1295 H 120.657 0.310677 -0.639532 0
M  V30 1296 H 123.259 0.189755 -1.94577 0
M  V30 1297 H 121.963 1.0678 -3.96265 0
M  V30 1298 H 121.494 2.50175 -3.03605 0
M  V30 1299 H 123.509 3.74488 -3.25535 0
M  V30 1300 N 122.682 1.50554 0.465978 0
M  V30 1301 C 123.912 1.65323 1.23903 0
M  V30 1302 C 124.32 0.338051 1.86155 0
M  V30 1303 O 123.663 -0.690518 1.70228 0
M  V30 1304 C 123.725 2.69048 2.3844 0
M  V30 1305 C 123.389 4.12462 1.96784 0
M  V30 1306 C 124.386 4.98168 1.48745 0
M  V30 1307 C 122.071 4.58407 2.05349 0
M  V30 1308 C 124.065 6.27868 1.0982 0
M  V30 1309 C 121.752 5.88112 1.66035 0
M  V30 1310 C 122.75 6.72668 1.18349 0
M  V30 1311 O 122.438 7.99951 0.795825 0
M  V30 1312 H 122.17 0.558629 0.38067 0
M  V30 1313 H 124.724 1.97561 0.562022 0
M  V30 1314 H 122.954 2.32062 3.09328 0
M  V30 1315 H 124.643 2.72985 3.0039 0
M  V30 1316 H 125.409 4.63885 1.41546 0
M  V30 1317 H 121.288 3.92735 2.41414 0
M  V30 1318 H 124.832 6.93819 0.725293 0
M  V30 1319 H 120.729 6.21914 1.72895 0
M  V30 1320 H 121.497 8.13265 0.924222 0
M  V30 1321 N 124.16 -0.719506 1.40217 0
M  V30 1322 C 125.437 -1.47221 1.28784 0
M  V30 1323 C 125.817 -2.10883 -0.0956067 0
M  V30 1324 O 125.165 -1.99833 -1.10811 0
M  V30 1325 C 125.375 -2.5111 2.42373 0
M  V30 1326 C 126.723 -3.17053 2.82423 0
M  V30 1327 O 127.747 -2.61429 2.41937 0
M  V30 1328 O 126.606 -4.17742 3.52355 0
M  V30 1329 H 123.7 -0.654491 0.50554 0
M  V30 1330 H 126.246 -0.752014 1.52128 0
M  V30 1331 H 125.018 -2.02556 3.34793 0
M  V30 1332 H 124.641 -3.3067 2.20778 0
M  V30 1333 N 125.638 -1.25649 -0.95132 0
M  V30 1334 C 126.866 -1.13343 -1.73092 0
M  V30 1335 C 127.281 0.312434 -1.86197 0
M  V30 1336 O 126.638 1.21465 -1.36207 0
M  V30 1337 C 126.689 -1.78602 -3.14299 0
M  V30 1338 O 126.41 -3.17537 -3.01831 0
M  V30 1339 C 127.911 -1.72119 -4.08522 0
M  V30 1340 H 125.131 -0.395181 -0.542285 0
M  V30 1341 H 127.675 -1.66076 -1.19328 0
M  V30 1342 H 125.83 -1.29832 -3.64996 0
M  V30 1343 H 126.244 -3.49676 -3.90931 0
M  V30 1344 H 127.718 -2.22435 -5.052 0
M  V30 1345 H 128.195 -0.685635 -4.33815 0
M  V30 1346 H 128.801 -2.20393 -3.63741 0
M  V30 1347 N 127.117 1.15442 -1.07289 0
M  V30 1348 C 128.533 1.38201 -0.798288 0
M  V30 1349 C 128.733 1.92429 0.597769 0
M  V30 1350 O 127.789 2.12962 1.3566 0
M  V30 1351 C 129.102 2.35357 -1.87156 0
M  V30 1352 C 130.65 2.49021 -1.89624 0
M  V30 1353 C 131.125 3.49468 -2.96034 0
M  V30 1354 N 132.616 3.57003 -2.95132 0
M  V30 1355 C 133.351 4.34543 -3.74112 0
M  V30 1356 N 132.847 5.15421 -4.6294 0
M  V30 1357 N 134.64 4.29625 -3.62462 0
M  V30 1358 H 126.791 0.78584 -1.97328 0
M  V30 1359 H 129.054 0.408065 -0.855679 0
M  V30 1360 H 128.76 2.02626 -2.87464 0
M  V30 1361 H 128.634 3.35129 -1.73114 0
M  V30 1362 H 131.021 2.81051 -0.899687 0
M  V30 1363 H 131.102 1.4925 -2.07745 0
M  V30 1364 H 130.746 3.18173 -3.95889 0
M  V30 1365 H 130.676 4.48992 -2.75161 0
M  V30 1366 H 133.167 2.99276 -2.30743 0
M  V30 1367 H 133.48 5.7183 -5.19837 0
M  V30 1368 H 131.825 5.14729 -4.66989 0
M  V30 1369 H 135.016 3.65505 -2.92444 0
M  V30 1370 H 135.189 4.89807 -4.24256 0
M  V30 1371 N 128.595 0.856903 1.32268 0
M  V30 1372 C 129.823 0.475439 2.01363 0
M  V30 1373 C 130.238 -0.928486 1.64392 0
M  V30 1374 O 129.595 -1.60624 0.866387 0
M  V30 1375 C 129.646 0.607545 3.56358 0
M  V30 1376 O 129.367 1.95617 3.92002 0
M  V30 1377 C 130.868 0.225382 4.42727 0
M  V30 1378 H 128.088 0.186636 0.644521 0
M  V30 1379 H 130.632 1.15446 1.68797 0
M  V30 1380 H 128.787 -0.0237719 3.87393 0
M  V30 1381 H 129.201 1.95455 4.86721 0
M  V30 1382 H 130.675 0.368813 5.50767 0
M  V30 1383 H 131.152 -0.834369 4.31202 0
M  V30 1384 H 131.758 0.831864 4.17085 0
M  V30 1385 N 130.073 -1.45103 0.615059 0
M  V30 1386 C 131.298 -2.07064 0.117988 0
M  V30 1387 C 131.723 -1.4554 -1.19163 0
M  V30 1388 O 131.081 -0.550855 -1.72729 0
M  V30 1389 C 131.129 -3.606 -0.000288387 0
M  V30 1390 O 130.233 -3.98847 -1.04856 0
M  V30 1391 H 129.574 -0.659467 0.0774581 0
M  V30 1392 H 132.104 -1.86236 0.847186 0
M  V30 1393 H 132.114 -4.07529 -0.196091 0
M  V30 1394 H 130.789 -4.04765 0.955932 0
M  V30 1395 H 129.366 -3.63577 -0.828619 0
M  V30 1396 N 131.551 -0.354651 -1.53558 0
M  V30 1397 C 132.514 0.484566 -2.24019 0
M  V30 1398 C 133.514 1.01861 -1.24422 0
M  V30 1399 O 134.704 0.906097 -1.4878 0
M  V30 1400 C 131.836 1.67615 -2.96847 0
M  V30 1401 H 133.029 -0.131843 -2.9961 0
M  V30 1402 H 130.582 -0.106165 -1.55939 0
M  V30 1403 H 131.317 2.33095 -2.25471 0
M  V30 1404 H 131.102 1.30029 -3.69912 0
M  V30 1405 H 132.592 2.27114 -3.50441 0
M  V30 1406 N 133.029 1.57378 -0.0835403 0
M  V30 1407 C 133.959 2.1641 0.87686 0
M  V30 1408 C 134.94 1.09429 1.30228 0
M  V30 1409 O 136.125 1.37516 1.37124 0
M  V30 1410 C 133.255 2.73517 2.14022 0
M  V30 1411 C 132.209 3.85769 1.85381 0
M  V30 1412 C 131.535 4.29529 3.18448 0
M  V30 1413 C 132.835 5.09486 1.14984 0
M  V30 1414 H 134.529 2.96914 0.385059 0
M  V30 1415 H 132.075 1.42823 0.18377 0
M  V30 1416 H 134.028 3.13463 2.81636 0
M  V30 1417 H 132.752 1.90252 2.65465 0
M  V30 1418 H 131.411 3.46345 1.20169 0
M  V30 1419 H 131.059 3.43169 3.67755 0
M  V30 1420 H 130.759 5.05204 3.00071 0
M  V30 1421 H 132.283 4.72099 3.8724 0
M  V30 1422 H 133.697 5.46674 1.72687 0
M  V30 1423 H 132.094 5.90515 1.06826 0
M  V30 1424 H 133.164 4.84724 0.130749 0
M  V30 1425 N 134.507 -0.190092 1.56449 0
M  V30 1426 C 135.732 -0.929864 1.85387 0
M  V30 1427 C 136.157 -1.7585 0.667704 0
M  V30 1428 O 135.515 -1.77198 -0.383459 0
M  V30 1429 C 135.563 -1.79773 3.12593 0
M  V30 1430 O 134.667 -2.89713 2.93496 0
M  V30 1431 H 134.008 -0.261574 0.610307 0
M  V30 1432 H 136.538 -0.193896 2.03679 0
M  V30 1433 H 136.548 -2.20139 3.43515 0
M  V30 1434 H 135.223 -1.18892 3.98544 0
M  V30 1435 H 133.8 -2.53065 2.73884 0
M  V30 1436 N 135.985 -1.50799 -0.457987 0
M  V30 1437 C 136.948 -1.7005 -1.53674 0
M  V30 1438 C 137.948 -0.570881 -1.50325 0
M  V30 1439 O 139.138 -0.838126 -1.52712 0
M  V30 1440 C 136.27 -1.73788 -2.93276 0
M  V30 1441 H 137.463 -2.66306 -1.37917 0
M  V30 1442 H 135.016 -1.40477 -0.685271 0
M  V30 1443 H 135.751 -0.792717 -3.14462 0
M  V30 1444 H 135.536 -2.55864 -2.97113 0
M  V30 1445 H 137.026 -1.90591 -3.71571 0
M  V30 1446 N 137.463 0.71206 -1.40597 0
M  V30 1447 C 138.41 1.82613 -1.41142 0
M  V30 1448 C 139.38 1.63925 -0.267903 0
M  V30 1449 O 140.565 1.85009 -0.466495 0
M  V30 1450 C 137.705 3.20354 -1.28324 0
M  V30 1451 C 136.818 3.50589 -2.52411 0
M  V30 1452 C 135.953 4.77855 -2.32009 0
M  V30 1453 C 134.992 5.01005 -3.51654 0
M  V30 1454 N 134.129 6.19487 -3.30425 0
M  V30 1455 H 138.969 1.81482 -2.36365 0
M  V30 1456 H 136.506 0.886475 -1.17388 0
M  V30 1457 H 138.464 3.99899 -1.18899 0
M  V30 1458 H 137.094 3.20705 -0.367189 0
M  V30 1459 H 136.146 2.65573 -2.72351 0
M  V30 1460 H 137.458 3.63604 -3.41458 0
M  V30 1461 H 136.612 5.65424 -2.19956 0
M  V30 1462 H 135.351 4.67056 -1.40392 0
M  V30 1463 H 134.356 4.1189 -3.64179 0
M  V30 1464 H 135.581 5.13674 -4.44202 0
M  V30 1465 H 133.527 6.09932 -2.41494 0
M  V30 1466 H 133.444 6.33194 -4.13039 0
M  V30 1467 H 134.712 7.09834 -3.22113 0
M  V30 1468 N 138.941 1.26152 0.944643 0
M  V30 1469 C 140.166 1.14363 1.7302 0
M  V30 1470 C 140.591 -0.29772 1.85729 0
M  V30 1471 O 139.949 -1.2157 1.34501 0
M  V30 1472 C 139.997 1.81378 3.11664 0
M  V30 1473 O 139.101 1.10022 3.97453 0
M  V30 1474 H 138.442 0.398694 0.53098 0
M  V30 1475 H 140.972 1.66906 1.18337 0
M  V30 1476 H 140.982 1.88064 3.62072 0
M  V30 1477 H 139.657 2.86237 3.0173 0
M  V30 1478 H 138.234 1.11287 3.55907 0
M  V30 1479 N 140.419 -1.14872 1.07899 0
M  V30 1480 C 141.659 -1.8745 0.814965 0
M  V30 1481 C 142.023 -1.80758 -0.64733 0
M  V30 1482 O 143.224 -2.48422 -1.02664 0
M  V30 1483 C 141.495 -3.32286 1.31607 0
M  V30 1484 S 143.054 -4.22537 1.18357 0
M  V30 1485 H 139.872 -0.646833 0.295174 0
M  V30 1486 H 142.474 -1.38555 1.37923 0
M  V30 1487 H 141.178 -3.34703 2.37491 0
M  V30 1488 H 140.709 -3.86238 0.747261 0
M  V30 1489 H 142.724 -4.96044 0.124586 0
M  V30 1490 N 141.898 -0.863906 -1.31812 0
M  V30 1491 C 142.808 -0.318461 -2.32428 0
M  V30 1492 C 143.824 0.568496 -1.64451 0
M  V30 1493 O 145 0.46666 -1.95919 0
M  V30 1494 C 142.065 0.476355 -3.43412 0
M  V30 1495 C 141.126 -0.43784 -4.27061 0
M  V30 1496 C 140.359 0.319138 -5.32745 0
M  V30 1497 O 140.582 1.54799 -5.48993 0
M  V30 1498 O 139.516 -0.319861 -6.01049 0
M  V30 1499 H 143.342 -1.15229 -2.80991 0
M  V30 1500 H 140.927 -0.627103 -1.35602 0
M  V30 1501 H 142.809 0.927156 -4.11074 0
M  V30 1502 H 141.484 1.28683 -2.97022 0
M  V30 1503 H 140.391 -0.937013 -3.62175 0
M  V30 1504 H 141.724 -1.21375 -4.77 0
M  V30 1505 N 143.376 1.44774 -0.622745 0
M  V30 1506 C 144.601 2.06999 -0.128968 0
M  V30 1507 C 145.026 1.4617 1.1839 0
M  V30 1508 O 144.384 0.560007 1.72434 0
M  V30 1509 C 144.432 3.60595 -0.0188351 0
M  V30 1510 O 143.536 3.99398 1.02739 0
M  V30 1511 H 142.877 0.659047 -0.0809544 0
M  V30 1512 H 145.407 1.85784 -0.85705 0
M  V30 1513 H 145.417 4.07627 0.174476 0
M  V30 1514 H 144.092 4.04252 -0.977384 0
M  V30 1515 H 142.669 3.64011 0.809326 0
M  V30 1516 N 144.854 0.36279 1.53368 0
M  V30 1517 C 145.802 -0.500155 2.27159 0
M  V30 1518 C 146.796 -1.08575 1.3003 0
M  V30 1519 O 148.002 -1.02927 1.47668 0
M  V30 1520 H 144.377 -0.180009 0.730138 0
M  V30 1521 H 146.348 0.14401 2.98052 0
M  V30 1522 C 145.097 -1.62937 3.07159 0
M  V30 1523 H 144.42 -1.18806 3.8174 0
M  V30 1524 H 145.86 -2.20795 3.61975 0
M  V30 1525 C 144.319 -2.57007 2.17829 0
M  V30 1526 O 144.849 -3.59752 1.78721 0
M  V30 1527 N 143.055 -2.26131 1.82518 0
M  V30 1528 H 142.602 -1.42616 2.14519 0
M  V30 1529 H 142.56 -2.89327 1.23034 0
M  V30 1530 N 146.332 -1.57332 0.0918853 0
M  V30 1531 C 147.557 -1.98995 -0.584442 0
M  V30 1532 C 147.982 -0.970528 -1.61128 0
M  V30 1533 O 147.34 0.0613904 -1.81196 0
M  V30 1534 C 147.388 -3.39636 -1.21161 0
M  V30 1535 O 146.492 -3.40447 -2.32744 0
M  V30 1536 H 145.833 -0.647165 -0.148572 0
M  V30 1537 H 148.363 -2.03873 0.172347 0
M  V30 1538 H 148.373 -3.7726 -1.55367 0
M  V30 1539 H 147.048 -4.13356 -0.459313 0
M  V30 1540 H 145.625 -3.14614 -2.0018 0
M  V30 1541 N 147.81 0.181792 -1.56548 0
M  V30 1542 C 149.221 0.745244 -1.71181 0
M  V30 1543 C 149.572 1.83262 -0.70068 0
M  V30 1544 O 148.697 2.15946 0.140154 0
M  V30 1545 C 149.292 1.35859 -3.10367 0
M  V30 1546 C 147.851 1.86898 -3.2672 0
M  V30 1547 C 146.998 0.743942 -2.67134 0
M  V30 1548 H 149.949 -0.0434661 -1.5864 0
M  V30 1549 H 149.97 2.22817 -3.08436 0
M  V30 1550 H 149.482 0.566948 -3.83937 0
M  V30 1551 H 147.583 2.68738 -2.5809 0
M  V30 1552 H 147.696 2.02162 -4.34359 0
M  V30 1553 H 146.06 1.16169 -2.26665 0
M  V30 1554 H 146.843 -0.035676 -3.43281 0
M  V30 1555 N 149.288 1.51039 0.449983 0
M  V30 1556 C 150.535 1.63081 1.20045 0
M  V30 1557 C 150.863 0.341024 1.91487 0
M  V30 1558 O 150.118 -0.674276 1.83717 0
M  V30 1559 C 150.417 2.77556 2.25161 0
M  V30 1560 C 150.083 4.17289 1.70823 0
M  V30 1561 C 148.745 4.55305 1.55725 0
M  V30 1562 C 151.097 5.04536 1.3074 0
M  V30 1563 C 148.425 5.78287 0.989999 0
M  V30 1564 C 150.777 6.28085 0.754482 0
M  V30 1565 C 149.441 6.64885 0.590308 0
M  V30 1566 H 148.711 0.596755 0.439277 0
M  V30 1567 H 151.358 1.85037 0.49333 0
M  V30 1568 H 149.663 2.49771 3.01863 0
M  V30 1569 H 151.36 2.84073 2.83026 0
M  V30 1570 H 147.95 3.8731 1.83546 0
M  V30 1571 H 152.134 4.75782 1.41229 0
M  V30 1572 H 147.39 6.05456 0.850451 0
M  V30 1573 H 151.564 6.95038 0.435324 0
M  V30 1574 H 149.191 7.60055 0.14862 0
M  V30 1575 N 150.766 -0.704594 1.40972 0
M  V30 1576 C 152.177 -1.28418 1.3552 0
M  V30 1577 C 152.528 -1.96171 0.0339434 0
M  V30 1578 O 151.653 -1.98231 -0.867944 0
M  V30 1579 C 152.248 -2.33528 2.45459 0
M  V30 1580 C 150.807 -2.87085 2.43433 0
M  V30 1581 C 149.954 -1.61007 2.2577 0
M  V30 1582 H 152.905 -0.499963 1.50619 0
M  V30 1583 H 152.926 -3.14619 2.13998 0
M  V30 1584 H 152.438 -1.84187 3.41609 0
M  V30 1585 H 150.539 -3.40626 1.51013 0
M  V30 1586 H 150.652 -3.3813 3.39419 0
M  V30 1587 H 149.016 -1.86482 1.73483 0
M  V30 1588 H 149.799 -1.13675 3.23933 0
M  V30 1589 N 152.244 -1.26651 -0.937939 0
M  V30 1590 C 153.49 -1.12553 -1.687 0
M  V30 1591 C 153.823 0.329782 -1.91379 0
M  V30 1592 O 153.098 1.24202 -1.4968 0
M  V30 1593 C 153.381 -1.89862 -3.05981 0
M  V30 1594 C 153.234 -3.43318 -2.90607 0
M  V30 1595 C 154.553 -1.69499 -4.0615 0
M  V30 1596 H 151.672 -0.410257 -0.612257 0
M  V30 1597 H 154.314 -1.55685 -1.08913 0
M  V30 1598 H 152.464 -1.53204 -3.57017 0
M  V30 1599 H 154.136 -3.89747 -2.46769 0
M  V30 1600 H 152.379 -3.70179 -2.26164 0
M  V30 1601 H 153.05 -3.92642 -3.8799 0
M  V30 1602 H 155.526 -2.01442 -3.64088 0
M  V30 1603 H 154.402 -2.26002 -5.00214 0
M  V30 1604 H 154.663 -0.640365 -4.37438 0
M  V30 1605 N 153.722 1.14298 -1.08507 0
M  V30 1606 C 154.672 2.17449 -0.685569 0
M  V30 1607 C 155.656 1.58167 0.295315 0
M  V30 1608 O 156.848 1.76675 0.107172 0
M  V30 1609 C 153.977 3.43161 -0.0975318 0
M  V30 1610 C 153.063 4.09471 -1.10426 0
M  V30 1611 N 153.454 4.51089 -2.28806 0
M  V30 1612 C 151.752 4.35976 -0.940258 0
M  V30 1613 C 152.453 5.02654 -2.9277 0
M  V30 1614 N 151.429 4.96927 -2.20374 0
M  V30 1615 H 155.231 2.47369 -1.587 0
M  V30 1616 H 152.745 1.30992 -0.959936 0
M  V30 1617 H 154.742 4.16388 0.20664 0
M  V30 1618 H 153.402 3.14719 0.798872 0
M  V30 1619 H 154.413 4.44097 -2.66455 0
M  V30 1620 H 151.09 4.17386 -0.0977441 0
M  V30 1621 H 152.48 5.44723 -3.93352 0
M  V30 1622 N 155.201 0.870884 1.31352 0
M  V30 1623 C 156.612 0.534714 1.78879 0
M  V30 1624 C 156.963 -0.948423 1.71754 0
M  V30 1625 O 156.088 -1.74055 1.28584 0
M  V30 1626 C 156.683 0.963839 3.24801 0
M  V30 1627 C 155.242 0.679311 3.70219 0
M  V30 1628 C 154.389 1.15465 2.52117 0
M  V30 1629 H 157.34 1.05651 1.18421 0
M  V30 1630 H 157.361 0.286892 3.79417 0
M  V30 1631 H 156.873 2.04332 3.29955 0
M  V30 1632 H 154.974 -0.388769 3.70566 0
M  V30 1633 H 155.087 1.25698 4.62317 0
M  V30 1634 H 153.451 0.574383 2.48139 0
M  V30 1635 H 154.234 2.24157 2.60016 0
M  V30 1636 N 156.679 -1.44442 0.630414 0
M  V30 1637 C 157.927 -2.01653 0.134351 0
M  V30 1638 C 158.248 -1.49836 -1.24796 0
M  V30 1639 O 157.518 -0.701684 -1.82902 0
M  V30 1640 H 156.098 -0.74554 0.0466769 0
M  V30 1641 H 158.76 -1.76952 0.816955 0
M  V30 1642 H 157.856 -3.11935 0.101498 0
M  V30 1643 N 158.157 -0.370918 -1.53173 0
M  V30 1644 C 159.385 0.217704 -2.05751 0
M  V30 1645 C 159.8 1.42018 -1.24404 0
M  V30 1646 O 159.157 1.80245 -0.286033 0
M  V30 1647 C 159.208 0.605954 -3.56385 0
M  V30 1648 O 158.929 -0.548734 -4.3465 0
M  V30 1649 C 160.43 1.2524 -4.25241 0
M  V30 1650 H 157.65 0.0371659 -0.66997 0
M  V30 1651 H 160.194 -0.530832 -1.9749 0
M  V30 1652 H 158.349 1.3044 -3.6478 0
M  V30 1653 H 158.763 -0.23376 -5.23979 0
M  V30 1654 H 160.237 1.47458 -5.3194 0
M  V30 1655 H 160.714 2.2143 -3.79296 0
M  V30 1656 H 161.32 0.595233 -4.21114 0
M  V30 1657 N 159.635 1.57281 -0.100228 0
M  V30 1658 C 160.598 2.13158 0.842398 0
M  V30 1659 C 161.598 1.06202 1.20738 0
M  V30 1660 O 162.788 1.32066 1.13597 0
M  V30 1661 C 159.92 2.65639 2.13655 0
M  V30 1662 H 161.113 2.97766 0.357114 0
M  V30 1663 H 158.666 1.5559 0.148823 0
M  V30 1664 H 159.401 1.84566 2.66657 0
M  V30 1665 H 159.186 3.43844 1.88451 0
M  V30 1666 H 160.676 3.08846 2.81077 0
M  V30 1667 N 161.113 -0.173488 1.56642 0
M  V30 1668 C 162.023 -1.23482 1.99473 0
M  V30 1669 C 163.039 -1.48567 0.905752 0
M  V30 1670 O 164.215 -1.60758 1.21321 0
M  V30 1671 C 161.28 -2.55444 2.34413 0
M  V30 1672 C 160.341 -2.38241 3.57127 0
M  V30 1673 C 159.574 -3.63909 3.90392 0
M  V30 1674 O 159.797 -4.68996 3.24653 0
M  V30 1675 O 158.731 -3.58149 4.83749 0
M  V30 1676 H 162.557 -0.901279 2.90018 0
M  V30 1677 H 160.142 -0.380185 1.44482 0
M  V30 1678 H 162.024 -3.33292 2.57865 0
M  V30 1679 H 160.699 -2.88382 1.4703 0
M  V30 1680 H 159.606 -1.58431 3.38896 0
M  V30 1681 H 160.939 -2.10228 4.45045 0
M  V30 1682 N 162.591 -1.51276 -0.441967 0
M  V30 1683 C 163.831 -1.65372 -1.20132 0
M  V30 1684 C 164.195 -0.359871 -1.88597 0
M  V30 1685 O 165.396 -0.376551 -2.66149 0
M  V30 1686 C 163.667 -2.8207 -2.1948 0
M  V30 1687 S 165.226 -3.16467 -3.03964 0
M  V30 1688 H 162.044 -0.582669 -0.407453 0
M  V30 1689 H 164.646 -1.89166 -0.493609 0
M  V30 1690 H 163.35 -3.74523 -1.67812 0
M  V30 1691 H 162.881 -2.6045 -2.94838 0
M  V30 1692 H 164.896 -2.62543 -4.21053 0
M  V30 1693 N 164.069 0.697108 -1.41344 0
M  V30 1694 C 165.309 1.46939 -1.42085 0
M  V30 1695 C 165.673 1.9198 -0.0280397 0
M  V30 1696 O 166.874 2.6865 0.0897504 0
M  V30 1697 C 165.145 2.64985 -2.39828 0
M  V30 1698 S 166.704 3.54147 -2.59085 0
M  V30 1699 H 163.522 0.502146 -0.503359 0
M  V30 1700 H 166.124 0.813546 -1.77769 0
M  V30 1701 H 164.828 2.30098 -3.39828 0
M  V30 1702 H 164.359 3.35464 -2.05493 0
M  V30 1703 H 166.374 4.60137 -1.85711 0
M  V30 1704 N 165.547 1.27147 0.931209 0
M  V30 1705 C 166.775 1.16082 1.71267 0
M  V30 1706 C 167.19 -0.282772 1.8667 0
M  V30 1707 O 166.547 -1.19283 1.38122 0
M  V30 1708 C 166.598 1.8358 3.11417 0
M  V30 1709 O 166.319 3.22299 2.96741 0
M  V30 1710 C 167.82 1.78597 4.05732 0
M  V30 1711 H 165.04 0.403758 0.535929 0
M  V30 1712 H 167.584 1.67953 1.16671 0
M  V30 1713 H 165.739 1.35623 3.62885 0
M  V30 1714 H 166.153 3.55851 3.85319 0
M  V30 1715 H 167.627 2.30444 5.01597 0
M  V30 1716 H 168.104 0.754564 4.3267 0
M  V30 1717 H 168.71 2.26152 3.60188 0
M  V30 1718 N 167.025 -1.13721 1.09112 0
M  V30 1719 C 167.972 -2.19031 0.727591 0
M  V30 1720 C 168.942 -1.63555 -0.289656 0
M  V30 1721 O 170.127 -1.90023 -0.172026 0
M  V30 1722 C 167.267 -3.4477 0.15082 0
M  V30 1723 C 166.38 -4.14365 1.22172 0
M  V30 1724 C 165.515 -5.27709 0.608042 0
M  V30 1725 C 164.554 -5.89147 1.66047 0
M  V30 1726 N 163.691 -6.93929 1.06806 0
M  V30 1727 H 168.531 -2.49475 1.62991 0
M  V30 1728 H 166.068 -1.22499 0.81439 0
M  V30 1729 H 168.026 -4.16714 -0.201358 0
M  V30 1730 H 166.656 -3.14787 -0.714783 0
M  V30 1731 H 165.708 -3.40737 1.69122 0
M  V30 1732 H 167.02 -4.56114 2.01895 0
M  V30 1733 H 166.174 -6.06355 0.204523 0
M  V30 1734 H 164.913 -4.872 -0.220769 0
M  V30 1735 H 163.918 -5.09198 2.07357 0
M  V30 1736 H 165.143 -6.31729 2.49189 0
M  V30 1737 H 163.089 -6.55483 0.260476 0
M  V30 1738 H 163.006 -7.34202 1.8023 0
M  V30 1739 H 164.274 -7.76434 0.690644 0
M  V30 1740 N 168.503 -0.877838 -1.30888 0
M  V30 1741 C 169.413 -0.343096 -2.32078 0
M  V30 1742 C 170.429 0.551022 -1.65045 0
M  V30 1743 O 171.605 0.445854 -1.96403 0
M  V30 1744 C 168.67 0.439905 -3.43898 0
M  V30 1745 C 167.731 -0.483111 -4.26573 0
M  V30 1746 C 166.964 0.262616 -5.33053 0
M  V30 1747 O 167.187 1.48967 -5.50604 0
M  V30 1748 O 166.121 -0.383593 -6.00676 0
M  V30 1749 H 169.947 -1.18203 -2.79753 0
M  V30 1750 H 167.532 -0.64145 -1.34929 0
M  V30 1751 H 169.414 0.883504 -4.12034 0
M  V30 1752 H 168.089 1.25526 -2.98371 0
M  V30 1753 H 166.996 -0.975374 -3.61161 0
M  V30 1754 H 168.329 -1.26427 -4.75686 0
M  V30 1755 N 169.982 1.44106 -0.638065 0
M  V30 1756 C 171.23 2.01579 -0.145043 0
M  V30 1757 C 171.551 1.50496 1.24 0
M  V30 1758 O 170.821 0.711374 1.82527 0
M  V30 1759 H 169.401 0.745282 -0.05063 0
M  V30 1760 H 172.063 1.76516 -0.826327 0
M  V30 1761 H 171.159 3.11877 -0.118039 0
M  V30 1762 N 171.46 0.379036 1.52974 0
M  V30 1763 C 172.39 -0.452706 2.29069 0
M  V30 1764 C 173.371 -1.07237 1.32039 0
M  V30 1765 O 174.556 -1.08708 1.60923 0
M  V30 1766 C 171.686 -1.5856 3.08992 0
M  V30 1767 C 170.64 -1.0925 4.13822 0
M  V30 1768 C 169.966 -2.31668 4.81907 0
M  V30 1769 C 171.266 -0.167702 5.22031 0
M  V30 1770 H 172.96 0.182181 2.98845 0
M  V30 1771 H 170.506 0.0890592 1.43724 0
M  V30 1772 H 172.459 -2.1742 3.6098 0
M  V30 1773 H 171.183 -2.24792 2.36931 0
M  V30 1774 H 169.842 -0.526494 3.628 0
M  V30 1775 H 169.49 -2.96386 4.06404 0
M  V30 1776 H 169.19 -1.9934 5.52754 0
M  V30 1777 H 170.714 -2.91189 5.36695 0
M  V30 1778 H 172.128 -0.664186 5.6944 0
M  V30 1779 H 170.525 0.0653265 6.00064 0
M  V30 1780 H 171.595 0.786347 4.78482 0
M  V30 1781 N 172.938 -1.57226 0.108567 0
M  V30 1782 C 173.848 -2.18292 -0.859401 0
M  V30 1783 C 174.864 -1.15612 -1.30038 0
M  V30 1784 O 176.04 -1.48039 -1.36552 0
M  V30 1785 C 173.105 -2.762 -2.09558 0
M  V30 1786 C 172.166 -3.93881 -1.70752 0
M  V30 1787 C 171.399 -4.49018 -2.88477 0
M  V30 1788 O 171.622 -4.03068 -4.036 0
M  V30 1789 O 170.556 -5.39852 -2.66164 0
M  V30 1790 H 174.382 -3.01441 -0.369769 0
M  V30 1791 H 171.967 -1.48945 -0.1165 0
M  V30 1792 H 173.849 -3.13156 -2.81978 0
M  V30 1793 H 172.524 -1.96089 -2.57548 0
M  V30 1794 H 171.431 -3.61713 -0.954714 0
M  V30 1795 H 172.764 -4.75396 -1.27513 0
M  V30 1796 N 174.416 0.165178 -1.56732 0
M  V30 1797 C 175.832 0.517174 -1.50988 0
M  V30 1798 C 176.032 1.84331 -0.813894 0
M  V30 1799 O 175.088 2.49672 -0.37682 0
M  V30 1800 C 176.401 0.544261 -2.95733 0
M  V30 1801 C 177.949 0.631039 -3.06573 0
M  V30 1802 C 178.424 0.68896 -4.52788 0
M  V30 1803 N 179.915 0.751683 -4.5706 0
M  V30 1804 C 180.65 0.817177 -5.67547 0
M  V30 1805 N 180.146 0.843129 -6.8765 0
M  V30 1806 N 181.939 0.856668 -5.55534 0
M  V30 1807 H 174.09 -0.704318 -2.00382 0
M  V30 1808 H 176.353 -0.254687 -0.913148 0
M  V30 1809 H 176.059 -0.361607 -3.49836 0
M  V30 1810 H 175.933 1.3886 -3.5071 0
M  V30 1811 H 178.32 1.52733 -2.52501 0
M  V30 1812 H 178.401 -0.240095 -2.54671 0
M  V30 1813 H 178.045 -0.2031 -5.07494 0
M  V30 1814 H 177.975 1.57633 -5.02454 0
M  V30 1815 H 180.466 0.739661 -3.70591 0
M  V30 1816 H 180.779 0.894448 -7.67606 0
M  V30 1817 H 179.124 0.811304 -6.90248 0
M  V30 1818 H 182.315 0.833437 -4.60621 0
M  V30 1819 H 182.488 0.904247 -6.4166 0
M  V30 1820 N 175.894 1.51508 0.433938 0
M  V30 1821 C 176.841 1.73068 1.52696 0
M  V30 1822 C 177.811 0.572441 1.55924 0
M  V30 1823 O 178.996 0.807253 1.72882 0
M  V30 1824 C 176.136 1.86474 2.90381 0
M  V30 1825 C 175.249 3.14037 2.96656 0
M  V30 1826 C 174.384 3.18019 4.25485 0
M  V30 1827 C 173.423 4.39882 4.2564 0
M  V30 1828 N 172.56 4.41394 5.45999 0
M  V30 1829 H 177.4 2.66366 1.33615 0
M  V30 1830 H 174.937 1.32008 0.649018 0
M  V30 1831 H 176.895 1.92229 3.70275 0
M  V30 1832 H 175.525 0.965809 3.08013 0
M  V30 1833 H 174.577 3.17575 2.09404 0
M  V30 1834 H 175.889 4.0394 2.92633 0
M  V30 1835 H 175.043 3.22708 5.13755 0
M  V30 1836 H 173.782 2.2601 4.3217 0
M  V30 1837 H 172.787 4.35366 3.35763 0
M  V30 1838 H 174.012 5.33159 4.20617 0
M  V30 1839 H 171.958 3.52258 5.53399 0
M  V30 1840 H 171.875 5.25111 5.4387 0
M  V30 1841 H 173.143 4.50281 6.36292 0
M  V30 1842 N 177.372 -0.689602 1.41712 0
M  V30 1843 C 178.302 -1.81577 1.46806 0
M  V30 1844 C 179.283 -1.66945 0.326105 0
M  V30 1845 O 180.468 -1.86588 0.538377 0
M  V30 1846 C 177.598 -3.19762 1.35535 0
M  V30 1847 C 176.552 -3.49107 2.47605 0
M  V30 1848 C 175.878 -4.86711 2.21397 0
M  V30 1849 C 177.178 -3.47483 3.89939 0
M  V30 1850 H 178.872 -1.7757 2.41058 0
M  V30 1851 H 176.418 -0.852887 1.16025 0
M  V30 1852 H 178.371 -3.98263 1.3771 0
M  V30 1853 H 177.095 -3.24409 0.377708 0
M  V30 1854 H 175.754 -2.72959 2.44722 0
M  V30 1855 H 175.402 -4.8799 1.21961 0
M  V30 1856 H 175.102 -5.0731 2.96497 0
M  V30 1857 H 176.626 -5.67515 2.25297 0
M  V30 1858 H 178.04 -4.1598 3.94505 0
M  V30 1859 H 176.437 -3.79615 4.64771 0
M  V30 1860 H 177.507 -2.46341 4.17665 0
M  V30 1861 N 178.85 -1.27639 -0.924453 0
M  V30 1862 C 180.09 -1.15407 -1.68703 0
M  V30 1863 C 180.454 0.294581 -1.89727 0
M  V30 1864 O 181.655 0.539385 -2.63333 0
M  V30 1865 C 179.926 -1.9195 -3.0148 0
M  V30 1866 S 181.485 -1.95969 -3.92609 0
M  V30 1867 H 178.303 -0.411937 -0.579507 0
M  V30 1868 H 180.905 -1.61592 -1.10038 0
M  V30 1869 H 179.609 -2.96387 -2.83871 0
M  V30 1870 H 179.14 -1.46272 -3.65196 0
M  V30 1871 H 181.155 -1.05846 -4.84779 0
M  V30 1872 N 180.328 1.1314 -1.09713 0
M  V30 1873 C 181.261 2.17735 -0.683137 0
M  V30 1874 C 182.239 1.59582 0.311841 0
M  V30 1875 O 183.423 1.87298 0.212514 0
M  V30 1876 C 180.55 3.38699 -0.00684324 0
M  V30 1877 C 179.596 4.1546 -0.964102 0
M  V30 1878 S 180.429 4.74733 -2.47767 0
M  V30 1879 C 181.585 5.9904 -1.81387 0
M  V30 1880 H 181.818 2.52515 -1.56918 0
M  V30 1881 H 179.351 1.24484 -0.913404 0
M  V30 1882 H 181.309 4.08765 0.377044 0
M  V30 1883 H 179.97 3.02214 0.85589 0
M  V30 1884 H 179.163 5.02093 -0.43803 0
M  V30 1885 H 178.765 3.51066 -1.28953 0
M  V30 1886 H 181.057 6.67846 -1.13967 0
M  V30 1887 H 182 6.56261 -2.65947 0
M  V30 1888 H 182.408 5.4976 -1.28155 0
M  V30 1889 N 181.806 0.884767 1.30421 0
M  V30 1890 C 182.769 0.356277 2.26414 0
M  V30 1891 C 183.769 -0.501124 1.52792 0
M  V30 1892 O 184.959 -0.30831 1.7145 0
M  V30 1893 C 182.091 -0.492316 3.37326 0
M  V30 1894 H 183.284 1.20389 2.74675 0
M  V30 1895 H 180.837 0.661607 1.41607 0
M  V30 1896 H 181.572 -1.36052 2.94381 0
M  V30 1897 H 181.357 0.121832 3.91911 0
M  V30 1898 H 182.847 -0.853871 4.08777 0
M  V30 1899 N 183.284 -1.43765 0.645699 0
M  V30 1900 C 184.247 -2.29163 -0.0409488 0
M  V30 1901 C 185.247 -1.41813 -0.757996 0
M  V30 1902 O 186.437 -1.63527 -0.600382 0
M  V30 1903 C 183.569 -3.23716 -1.06869 0
M  V30 1904 H 184.762 -2.91366 0.710345 0
M  V30 1905 H 182.315 -1.5092 0.406547 0
M  V30 1906 H 183.05 -2.66393 -1.84947 0
M  V30 1907 H 182.835 -3.88105 -0.558277 0
M  V30 1908 H 184.325 -3.87831 -1.54845 0
M  V30 1909 N 184.763 -0.387143 -1.52771 0
M  V30 1910 C 185.693 0.440551 -2.29306 0
M  V30 1911 C 186.674 1.06535 -1.32606 0
M  V30 1912 O 187.859 1.07853 -1.61497 0
M  V30 1913 C 184.989 1.56919 -3.09829 0
M  V30 1914 C 183.943 1.07054 -4.14395 0
M  V30 1915 C 183.269 2.29109 -4.83129 0
M  V30 1916 C 184.569 0.140015 -5.22112 0
M  V30 1917 H 186.263 -0.198026 -2.98744 0
M  V30 1918 H 183.809 -0.09668 -1.43675 0
M  V30 1919 H 185.762 2.15503 -3.62128 0
M  V30 1920 H 184.486 2.23532 -2.3812 0
M  V30 1921 H 183.145 0.507247 -3.63074 0
M  V30 1922 H 182.793 2.94227 -4.0797 0
M  V30 1923 H 182.493 1.96406 -5.53804 0
M  V30 1924 H 184.017 2.88339 -5.38231 0
M  V30 1925 H 185.431 0.633978 -5.69784 0
M  V30 1926 H 183.828 -0.0971485 -6.00021 0
M  V30 1927 H 184.898 -0.811711 -4.78058 0
M  V30 1928 N 186.241 1.57166 -0.116904 0
M  V30 1929 C 187.188 2.15202 0.83408 0
M  V30 1930 C 188.158 1.07644 1.26499 0
M  V30 1931 O 189.343 1.35541 1.34288 0
M  V30 1932 C 186.483 2.75405 2.07957 0
M  V30 1933 C 185.596 3.97264 1.69721 0
M  V30 1934 C 184.731 4.45561 2.89221 0
M  V30 1935 C 183.77 5.59956 2.47215 0
M  V30 1936 N 182.907 6.03006 3.59622 0
M  V30 1937 H 187.747 2.96141 0.332335 0
M  V30 1938 H 185.284 1.46309 0.152349 0
M  V30 1939 H 187.242 3.08439 2.80929 0
M  V30 1940 H 185.872 1.97159 2.55594 0
M  V30 1941 H 184.924 3.70404 0.866316 0
M  V30 1942 H 186.236 4.80226 1.34849 0
M  V30 1943 H 185.39 4.80493 3.7042 0
M  V30 1944 H 184.129 3.61544 3.27318 0
M  V30 1945 H 183.134 5.2463 1.64448 0
M  V30 1946 H 184.359 6.45738 2.10238 0
M  V30 1947 H 182.305 5.21931 3.97396 0
M  V30 1948 H 182.222 6.80819 3.28667 0
M  V30 1949 H 183.49 6.42576 4.41267 0
M  V30 1950 N 187.719 -0.156864 1.56817 0
M  V30 1951 C 188.669 -1.19891 1.93934 0
M  V30 1952 C 189.653 -1.39061 0.809372 0
M  V30 1953 O 190.845 -1.40789 1.07273 0
M  V30 1954 C 187.974 -2.53493 2.31508 0
M  V30 1955 C 187.06 -2.37957 3.51052 0
M  V30 1956 N 187.451 -1.92158 4.67877 0
M  V30 1957 C 185.749 -2.68739 3.55943 0
M  V30 1958 C 186.45 -1.8943 5.49992 0
M  V30 1959 N 185.426 -2.32375 4.91429 0
M  V30 1960 H 189.228 -0.836746 2.81737 0
M  V30 1961 H 186.742 -0.365012 1.58245 0
M  V30 1962 H 188.739 -3.28811 2.56299 0
M  V30 1963 H 187.399 -2.905 1.45051 0
M  V30 1964 H 188.41 -1.62274 4.91821 0
M  V30 1965 H 185.087 -3.09687 2.80001 0
M  V30 1966 H 186.477 -1.55596 6.53636 0
M  V30 1967 N 189.197 -1.51736 -0.425897 0
M  V30 1968 C 190.129 -1.70083 -1.53638 0
M  V30 1969 C 191.142 -0.581349 -1.52066 0
M  V30 1970 O 192.331 -0.856017 -1.56635 0
M  V30 1971 C 189.431 -1.71078 -2.9255 0
M  V30 1972 C 188.604 -2.99795 -3.185 0
M  V30 1973 C 187.663 -2.92825 -4.37196 0
M  V30 1974 O 186.689 -3.66756 -4.35291 0
M  V30 1975 N 187.891 -2.0946 -5.41393 0
M  V30 1976 H 190.656 -2.65882 -1.383 0
M  V30 1977 H 188.217 -1.49765 -0.614988 0
M  V30 1978 H 190.209 -1.63969 -3.69995 0
M  V30 1979 H 188.779 -0.828242 -3.01428 0
M  V30 1980 H 187.999 -3.20684 -2.2925 0
M  V30 1981 H 189.287 -3.84977 -3.32671 0
M  V30 1982 H 188.685 -1.48792 -5.45781 0
M  V30 1983 H 187.242 -2.08221 -6.17647 0
M  V30 1984 N 190.675 0.682077 -1.42076 0
M  V30 1985 C 192.086 1.26246 -1.37546 0
M  V30 1986 C 192.437 1.96092 -0.0651481 0
M  V30 1987 O 191.562 1.99587 0.836297 0
M  V30 1988 C 192.157 2.29594 -2.49143 0
M  V30 1989 C 190.716 2.83175 -2.47969 0
M  V30 1990 C 189.863 1.57395 -2.28303 0
M  V30 1991 H 192.814 0.475937 -1.51395 0
M  V30 1992 H 192.835 3.11175 -2.18976 0
M  V30 1993 H 192.347 1.78729 -3.44496 0
M  V30 1994 H 190.448 3.3818 -1.56413 0
M  V30 1995 H 190.561 3.32687 -3.44755 0
M  V30 1996 H 188.925 1.83699 -1.76428 0
M  V30 1997 H 189.708 1.08507 -3.25701 0
M  V30 1998 N 192.153 1.28127 0.917671 0
M  V30 1999 C 193.085 1.07517 2.02417 0
M  V30 2000 C 194.098 0.0281099 1.62776 0
M  V30 2001 O 195.287 0.270748 1.76435 0
M  V30 2002 C 192.387 0.610957 3.33347 0
M  V30 2003 C 191.56 1.73255 4.01624 0
M  V30 2004 C 190.619 1.26238 5.10833 0
M  V30 2005 O 189.645 1.96389 5.34247 0
M  V30 2006 N 190.847 0.123448 5.80369 0
M  V30 2007 H 193.612 2.02806 2.20658 0
M  V30 2008 H 191.173 1.19827 1.08871 0
M  V30 2009 H 193.165 0.280101 4.0373 0
M  V30 2010 H 191.735 -0.24898 3.11607 0
M  V30 2011 H 190.955 2.23319 3.24842 0
M  V30 2012 H 192.243 2.48503 4.43986 0
M  V30 2013 H 191.641 -0.461847 5.63812 0
M  V30 2014 H 190.198 -0.148158 6.51632 0
M  V30 2015 N 193.631 -1.12557 1.10312 0
M  V30 2016 C 194.541 -2.21841 0.763142 0
M  V30 2017 C 195.557 -1.72354 -0.238801 0
M  V30 2018 O 196.733 -2.01249 -0.0778746 0
M  V30 2019 C 193.798 -3.46131 0.198632 0
M  V30 2020 C 192.859 -4.10464 1.25769 0
M  V30 2021 C 192.092 -5.28821 0.72002 0
M  V30 2022 O 192.315 -5.6859 -0.453993 0
M  V30 2023 O 191.249 -5.83437 1.47935 0
M  V30 2024 H 195.075 -2.53312 1.67532 0
M  V30 2025 H 192.66 -1.20867 0.878157 0
M  V30 2026 H 194.542 -4.2125 -0.112401 0
M  V30 2027 H 193.217 -3.16338 -0.686419 0
M  V30 2028 H 192.124 -3.3713 1.62156 0
M  V30 2029 H 193.457 -4.44408 2.11571 0
M  V30 2030 N 195.109 -0.891671 -1.2995 0
M  V30 2031 C 196.356 -0.513501 -1.95881 0
M  V30 2032 C 196.684 0.938655 -1.70351 0
M  V30 2033 O 195.939 1.67936 -1.00478 0
M  V30 2034 C 196.238 -0.742868 -3.49594 0
M  V30 2035 C 195.904 -2.17114 -3.95186 0
M  V30 2036 C 194.566 -2.56169 -4.07346 0
M  V30 2037 C 196.918 -3.10162 -4.18866 0
M  V30 2038 C 194.246 -3.87469 -4.4055 0
M  V30 2039 C 196.598 -4.41001 -4.53542 0
M  V30 2040 C 195.262 -4.79941 -4.63911 0
M  V30 2041 H 194.532 -0.187903 -0.71678 0
M  V30 2042 H 197.179 -1.1288 -1.54694 0
M  V30 2043 H 195.484 -0.044586 -3.91775 0
M  V30 2044 H 197.181 -0.429767 -3.9869 0
M  V30 2045 H 193.771 -1.85801 -3.86233 0
M  V30 2046 H 197.955 -2.81206 -4.08946 0
M  V30 2047 H 193.211 -4.17371 -4.46779 0
M  V30 2048 H 197.385 -5.13133 -4.70815 0
M  V30 2049 H 195.012 -5.81719 -4.89395 0
M  V30 2050 N 196.587 1.43421 -0.653314 0
M  V30 2051 C 197.998 1.85065 -0.246537 0
M  V30 2052 C 198.349 1.54688 1.2069 0
M  V30 2053 O 197.474 0.995896 1.92122 0
M  V30 2054 C 198.069 3.35922 -0.440666 0
M  V30 2055 C 196.628 3.76297 -0.0882064 0
M  V30 2056 C 195.775 2.67147 -0.743484 0
M  V30 2057 H 198.726 1.33572 -0.856979 0
M  V30 2058 H 198.747 3.79204 0.313798 0
M  V30 2059 H 198.259 3.58 -1.49858 0
M  V30 2060 H 196.36 3.5983 0.96711 0
M  V30 2061 H 196.473 4.76338 -0.513738 0
M  V30 2062 H 194.837 2.54086 -0.176712 0
M  V30 2063 H 195.62 2.92053 -1.80443 0
M  V30 2064 N 198.065 0.39524 1.52563 0
M  V30 2065 C 199.293 -0.184943 2.06072 0
M  V30 2066 C 199.708 -1.40021 1.26647 0
M  V30 2067 O 199.065 -1.79767 0.314672 0
M  V30 2068 C 199.116 -0.549179 3.57304 0
M  V30 2069 O 198.837 0.617813 4.33722 0
M  V30 2070 C 200.338 -1.18459 4.2718 0
M  V30 2071 H 197.558 -0.0265025 0.670476 0
M  V30 2072 H 200.102 0.562184 1.96621 0
M  V30 2073 H 198.257 -1.2462 3.66809 0
M  V30 2074 H 198.671 0.317091 5.23541 0
M  V30 2075 H 200.145 -1.38976 5.34219 0
M  V30 2076 H 200.622 -2.15368 3.82771 0
M  V30 2077 H 201.228 -0.528163 4.22008 0
M  V30 2078 N 199.544 -1.57102 0.125237 0
M  V30 2079 C 200.774 -1.99472 -0.538015 0
M  V30 2080 C 201.182 -1.00395 -1.60366 0
M  V30 2081 O 200.525 0.0103875 -1.83697 0
M  V30 2082 C 200.587 -3.38262 -1.21734 0
M  V30 2083 C 200.251 -4.56021 -0.298897 0
M  V30 2084 C 201.248 -5.17817 0.464943 0
M  V30 2085 C 198.933 -5.01869 -0.208149 0
M  V30 2086 C 200.927 -6.23852 1.3072 0
M  V30 2087 C 198.614 -6.07763 0.637736 0
M  V30 2088 C 199.612 -6.68622 1.39403 0
M  V30 2089 O 199.3 -7.7247 2.22586 0
M  V30 2090 H 199.032 -0.659934 -0.146501 0
M  V30 2091 H 201.586 -2.04321 0.210267 0
M  V30 2092 H 199.816 -3.30185 -2.01282 0
M  V30 2093 H 201.505 -3.6488 -1.77813 0
M  V30 2094 H 202.271 -4.83308 0.404741 0
M  V30 2095 H 198.15 -4.54241 -0.786522 0
M  V30 2096 H 201.694 -6.71284 1.898 0
M  V30 2097 H 197.591 -6.41701 0.699309 0
M  V30 2098 H 198.359 -7.89595 2.15596 0
M  V30 2099 N 201.022 0.148545 -1.56898 0
M  V30 2100 C 202.268 0.862694 -1.83536 0
M  V30 2101 C 202.601 1.80889 -0.706604 0
M  V30 2102 O 201.876 1.92328 0.289885 0
M  V30 2103 C 202.159 1.63853 -3.20662 0
M  V30 2104 C 202.012 0.713925 -4.44098 0
M  V30 2105 C 203.331 2.60133 -3.54991 0
M  V30 2106 H 200.45 0.312179 -0.667618 0
M  V30 2107 H 203.092 0.127953 -1.89569 0
M  V30 2108 H 201.242 2.26489 -3.1565 0
M  V30 2109 H 202.914 0.098686 -4.61194 0
M  V30 2110 H 201.157 0.0234019 -4.33794 0
M  V30 2111 H 201.828 1.29278 -5.36648 0
M  V30 2112 H 204.304 2.07616 -3.60603 0
M  V30 2113 H 203.18 3.11468 -4.51972 0
M  V30 2114 H 203.441 3.41417 -2.80868 0
M  V30 2115 N 202.5 1.5196 0.417844 0
M  V30 2116 C 203.41 1.77554 1.53336 0
M  V30 2117 C 204.426 0.660655 1.6097 0
M  V30 2118 O 205.602 0.945099 1.77848 0
M  V30 2119 C 202.667 1.91291 2.89152 0
M  V30 2120 C 201.728 3.15183 2.91475 0
M  V30 2121 C 200.961 3.28256 4.20813 0
M  V30 2122 O 201.184 2.46798 5.14244 0
M  V30 2123 O 200.118 4.21356 4.29817 0
M  V30 2124 H 203.944 2.7222 1.34647 0
M  V30 2125 H 201.529 1.36698 0.602828 0
M  V30 2126 H 203.411 2.02199 3.69721 0
M  V30 2127 H 202.086 0.998129 3.07927 0
M  V30 2128 H 200.993 3.09739 2.09791 0
M  V30 2129 H 202.326 4.06414 2.77648 0
M  V30 2130 N 203.978 -0.674533 1.42435 0
M  V30 2131 C 205.389 -1.25514 1.38214 0
M  V30 2132 C 205.74 -1.96055 0.0755464 0
M  V30 2133 O 204.865 -2.00028 -0.8257 0
M  V30 2134 C 205.46 -2.28269 2.50357 0
M  V30 2135 C 204.019 -2.81856 2.49467 0
M  V30 2136 C 203.166 -1.56182 2.29134 0
M  V30 2137 H 206.117 -0.467902 1.51646 0
M  V30 2138 H 206.138 -3.10009 2.20624 0
M  V30 2139 H 205.65 -1.769 3.45439 0
M  V30 2140 H 203.751 -3.37346 1.58204 0
M  V30 2141 H 203.864 -3.30854 3.46515 0
M  V30 2142 H 202.228 -1.82761 1.774 0
M  V30 2143 H 203.011 -1.06778 3.26272 0
M  V30 2144 N 205.456 -1.28612 -0.910864 0
M  V30 2145 C 206.684 -1.18792 -1.69399 0
M  V30 2146 C 207.099 0.253039 -1.87097 0
M  V30 2147 O 206.456 1.17071 -1.40003 0
M  V30 2148 C 206.507 -1.88511 -3.08457 0
M  V30 2149 O 206.228 -3.26979 -2.91576 0
M  V30 2150 C 207.729 -1.85029 -4.02839 0
M  V30 2151 H 204.949 -0.412233 -0.529438 0
M  V30 2152 H 207.493 -1.69788 -1.13984 0
M  V30 2153 H 205.648 -1.41379 -3.60681 0
M  V30 2154 H 206.062 -3.61936 -3.79608 0
M  V30 2155 H 207.536 -2.38395 -4.97867 0
M  V30 2156 H 208.013 -0.823303 -4.31414 0
M  V30 2157 H 208.619 -2.31853 -3.56545 0
M  V30 2158 N 206.934 1.1197 -1.10907 0
M  V30 2159 C 207.882 2.19927 -0.757303 0
M  V30 2160 C 208.876 1.67564 0.248747 0
M  V30 2161 O 210.082 1.79672 0.108605 0
M  V30 2162 H 206.457 0.716925 -0.226987 0
M  V30 2163 H 208.428 2.46847 -1.67658 0
M  V30 2164 C 207.177 3.47061 -0.210671 0
M  V30 2165 H 206.5 3.87703 -0.976049 0
M  V30 2166 H 207.94 4.24 -0.0026584 0
M  V30 2167 C 206.399 3.19864 1.05777 0
M  V30 2168 O 206.929 3.40049 2.13845 0
M  V30 2169 N 205.135 2.73636 0.978349 0
M  V30 2170 H 204.682 2.5741 0.0988246 0
M  V30 2171 H 204.64 2.55815 1.82773 0
M  V30 2172 N 208.412 0.89855 1.29475 0
M  V30 2173 C 209.689 0.443416 1.90508 0
M  V30 2174 C 210.069 -1.07685 1.81569 0
M  V30 2175 O 209.417 -1.9182 1.24166 0
M  V30 2176 C 209.627 0.956708 3.35631 0
M  V30 2177 C 210.975 0.999728 4.12663 0
M  V30 2178 O 211.999 0.904299 3.4453 0
M  V30 2179 O 210.858 1.14289 5.34416 0
M  V30 2180 H 207.952 0.138025 0.815401 0
M  V30 2181 H 210.498 0.98834 1.37949 0
M  V30 2182 H 209.27 2.00067 3.36287 0
M  V30 2183 H 208.893 0.391728 3.95666 0
M  V30 2184 N 209.89 -1.43072 0.660911 0
M  V30 2185 C 210.8 -2.34585 -0.0264163 0
M  V30 2186 C 211.816 -1.54316 -0.803898 0
M  V30 2187 O 212.992 -1.86939 -0.749391 0
M  V30 2188 C 210.057 -3.32689 -0.975639 0
M  V30 2189 C 209.118 -4.2886 -0.194236 0
M  V30 2190 C 208.351 -5.22278 -1.09825 0
M  V30 2191 O 208.574 -5.20299 -2.33763 0
M  V30 2192 O 207.508 -5.99228 -0.566513 0
M  V30 2193 H 211.334 -2.94869 0.727034 0
M  V30 2194 H 208.919 -1.43342 0.42111 0
M  V30 2195 H 210.801 -3.92995 -1.52094 0
M  V30 2196 H 209.476 -2.74898 -1.70918 0
M  V30 2197 H 208.383 -3.72011 0.394835 0
M  V30 2198 H 209.716 -4.89655 0.499899 0
M  V30 2199 N 211.368 -0.403325 -1.52352 0
M  V30 2200 C 212.617 0.175668 -2.00934 0
M  V30 2201 C 212.93 1.46718 -1.29356 0
M  V30 2202 O 214.136 2.12708 -1.68724 0
M  V30 2203 C 212.592 0.363612 -3.58058 0
M  V30 2204 C 212.2 -0.915472 -4.38547 0
M  V30 2205 C 213.944 0.89821 -4.14888 0
M  V30 2206 C 211.851 -0.695035 -5.87302 0
M  V30 2207 H 210.781 0.0694234 -0.750797 0
M  V30 2208 H 213.432 -0.527879 -1.75743 0
M  V30 2209 H 211.814 1.12935 -3.79555 0
M  V30 2210 H 212.988 -1.68691 -4.28812 0
M  V30 2211 H 211.303 -1.37606 -3.93006 0
M  V30 2212 H 213.9 1.07907 -5.23699 0
M  V30 2213 H 214.243 1.87126 -3.71873 0
M  V30 2214 H 214.776 0.191681 -3.97338 0
M  V30 2215 H 211.515 -1.63948 -6.34666 0
M  V30 2216 H 211.035 0.0372116 -5.99788 0
M  V30 2217 H 212.714 -0.33497 -6.46132 0
M  V30 2218 N 212.846 1.57033 -0.133567 0
M  V30 2219 C 214.086 1.97575 0.523789 0
M  V30 2220 C 214.45 1.01605 1.62912 0
M  V30 2221 O 215.651 1.3114 2.3464 0
M  V30 2222 C 213.922 3.42256 1.02935 0
M  V30 2223 S 215.481 4.04817 1.69319 0
M  V30 2224 H 212.299 0.690427 0.169799 0
M  V30 2225 H 214.901 1.94234 -0.222101 0
M  V30 2226 H 213.605 4.09842 0.213917 0
M  V30 2227 H 213.136 3.4928 1.81017 0
M  V30 2228 H 215.151 3.96767 2.97977 0
M  V30 2229 N 214.325 -0.140222 1.56975 0
M  V30 2230 C 215.235 -1.19223 2.02047 0
M  V30 2231 C 216.251 -1.46612 0.937062 0
M  V30 2232 O 217.427 -1.58148 1.24704 0
M  V30 2233 C 214.492 -2.50414 2.39778 0
M  V30 2234 C 213.553 -2.30612 3.621 0
M  V30 2235 C 212.786 -3.55547 3.98023 0
M  V30 2236 O 213.009 -4.62004 3.34528 0
M  V30 2237 O 211.943 -3.47808 4.91237 0
M  V30 2238 H 215.769 -0.839559 2.91865 0
M  V30 2239 H 213.354 -0.349453 1.45256 0
M  V30 2240 H 215.236 -3.27747 2.64877 0
M  V30 2241 H 213.911 -2.85198 1.53114 0
M  V30 2242 H 212.818 -1.51207 3.4218 0
M  V30 2243 H 214.151 -2.00741 4.49404 0
M  V30 2244 N 215.803 -1.52179 -0.40978 0
M  V30 2245 C 216.766 -1.74853 -1.48186 0
M  V30 2246 C 217.766 -0.618417 -1.48433 0
M  V30 2247 O 218.956 -0.886286 -1.49969 0
M  V30 2248 C 216.088 -1.8303 -2.87598 0
M  V30 2249 H 217.281 -2.70559 -1.29374 0
M  V30 2250 H 214.834 -1.42586 -0.640233 0
M  V30 2251 H 215.569 -0.89236 -3.11781 0
M  V30 2252 H 215.354 -2.65187 -2.88822 0
M  V30 2253 H 216.844 -2.02316 -3.65319 0
M  V30 2254 N 217.281 0.66697 -1.42791 0
M  V30 2255 C 218.528 1.42699 -1.43678 0
M  V30 2256 C 218.856 1.94419 -0.0560425 0
M  V30 2257 O 218.111 1.7182 0.936831 0
M  V30 2258 C 218.41 2.6349 -2.4147 0
M  V30 2259 C 218.076 2.30267 -3.8767 0
M  V30 2260 C 216.738 2.20918 -4.27491 0
M  V30 2261 C 219.09 2.03435 -4.79858 0
M  V30 2262 C 216.418 1.82873 -5.57471 0
M  V30 2263 C 218.77 1.66892 -6.10188 0
M  V30 2264 C 217.434 1.56058 -6.49001 0
M  V30 2265 H 216.704 0.522171 -0.525755 0
M  V30 2266 H 219.351 0.759785 -1.75783 0
M  V30 2267 H 217.656 3.35279 -2.0272 0
M  V30 2268 H 219.353 3.21684 -2.39417 0
M  V30 2269 H 215.943 2.38449 -3.56146 0
M  V30 2270 H 220.127 2.09586 -4.49875 0
M  V30 2271 H 215.383 1.7306 -5.86396 0
M  V30 2272 H 219.557 1.45157 -6.81104 0
M  V30 2273 H 217.184 1.26348 -7.49627 0
M  V30 2274 N 218.759 1.29093 0.90403 0
M  V30 2275 C 220.175 1.07011 1.1841 0
M  V30 2276 C 220.375 -0.181358 2.00682 0
M  V30 2277 O 219.431 -0.880331 2.36657 0
M  V30 2278 C 220.744 2.32311 1.90924 0
M  V30 2279 C 222.292 2.37587 2.03768 0
M  V30 2280 C 222.767 3.62679 2.79693 0
M  V30 2281 N 224.258 3.63376 2.87249 0
M  V30 2282 C 224.993 4.56848 3.46522 0
M  V30 2283 N 224.489 5.60648 4.06996 0
M  V30 2284 N 226.282 4.44426 3.44154 0
M  V30 2285 H 218.433 2.09412 0.354993 0
M  V30 2286 H 220.696 0.922181 0.219742 0
M  V30 2287 H 220.402 3.23536 1.37905 0
M  V30 2288 H 220.276 2.39483 2.91424 0
M  V30 2289 H 222.663 1.46853 2.55965 0
M  V30 2290 H 222.744 2.34403 1.02415 0
M  V30 2291 H 222.388 4.53762 2.28173 0
M  V30 2292 H 222.318 3.63119 3.81381 0
M  V30 2293 H 224.809 2.88321 2.44293 0
M  V30 2294 H 225.122 6.28101 4.50232 0
M  V30 2295 H 223.467 5.64463 4.05471 0
M  V30 2296 H 226.658 3.62529 2.96126 0
M  V30 2297 H 226.831 5.17457 3.90054 0
M  V30 2298 N 220.237 -1.11381 1.11499 0
M  V30 2299 C 221.184 -2.17439 0.773887 0
M  V30 2300 C 222.154 -1.64132 -0.254899 0
M  V30 2301 O 223.339 -1.90345 -0.13168 0
M  V30 2302 C 220.479 -3.44373 0.223917 0
M  V30 2303 C 219.592 -4.1168 1.30934 0
M  V30 2304 C 218.727 -5.263 0.71984 0
M  V30 2305 C 217.766 -5.85493 1.78507 0
M  V30 2306 N 216.903 -6.91507 1.21502 0
M  V30 2307 H 221.743 -2.45962 1.68246 0
M  V30 2308 H 219.28 -1.20744 0.840191 0
M  V30 2309 H 221.238 -4.17047 -0.112921 0
M  V30 2310 H 219.868 -3.16232 -0.647851 0
M  V30 2311 H 218.92 -3.37073 1.76312 0
M  V30 2312 H 220.232 -4.51729 2.11524 0
M  V30 2313 H 219.386 -6.05785 0.333094 0
M  V30 2314 H 218.125 -4.87559 -0.117377 0
M  V30 2315 H 217.13 -5.04686 2.18111 0
M  V30 2316 H 218.355 -6.26301 2.62533 0
M  V30 2317 H 216.301 -6.54783 0.399455 0
M  V30 2318 H 216.218 -7.30214 1.95763 0
M  V30 2319 H 217.486 -7.74795 0.855181 0
M  V30 2320 N 221.715 -0.905404 -1.28997 0
M  V30 2321 C 222.992 -0.453513 -1.9027 0
M  V30 2322 C 223.372 1.06721 -1.82137 0
M  V30 2323 O 222.72 1.91159 -1.25182 0
M  V30 2324 C 222.93 -0.974494 -3.35119 0
M  V30 2325 C 224.278 -1.0216 -4.12127 0
M  V30 2326 O 225.302 -0.922557 -3.44046 0
M  V30 2327 O 224.161 -1.17121 -5.33802 0
M  V30 2328 H 221.255 -0.142347 -0.814657 0
M  V30 2329 H 223.801 -0.995642 -1.37423 0
M  V30 2330 H 222.573 -2.01848 -3.35221 0
M  V30 2331 H 222.196 -0.412706 -3.95452 0
M  V30 2332 N 223.193 1.4272 -0.668489 0
M  V30 2333 C 224.604 1.84793 -0.266151 0
M  V30 2334 C 224.955 1.55959 1.19043 0
M  V30 2335 O 224.08 1.01622 1.91055 0
M  V30 2336 C 224.675 3.35436 -0.476271 0
M  V30 2337 C 223.234 3.76182 -0.128113 0
M  V30 2338 C 222.381 2.66344 -0.771777 0
M  V30 2339 H 225.332 1.32656 -0.871098 0
M  V30 2340 H 225.353 3.79515 0.273561 0
M  V30 2341 H 224.865 3.5639 -1.53647 0
M  V30 2342 H 222.966 3.60836 0.928891 0
M  V30 2343 H 223.079 4.75766 -0.564231 0
M  V30 2344 H 221.443 2.53885 -0.203652 0
M  V30 2345 H 222.226 2.90123 -1.83531 0
M  V30 2346 N 224.671 0.411399 1.52136 0
M  V30 2347 C 225.618 -0.412975 2.27075 0
M  V30 2348 C 226.588 -1.03912 1.29582 0
M  V30 2349 O 227.773 -1.06296 1.58448 0
M  V30 2350 C 224.913 -1.52247 3.09701 0
M  V30 2351 C 224.026 -0.917021 4.22155 0
M  V30 2352 C 223.161 -1.9994 4.92135 0
M  V30 2353 C 222.2 -1.37101 5.96548 0
M  V30 2354 N 221.337 -2.39364 6.60038 0
M  V30 2355 H 226.177 0.232499 2.97092 0
M  V30 2356 H 223.714 0.126496 1.46555 0
M  V30 2357 H 225.672 -2.17674 3.55913 0
M  V30 2358 H 224.302 -2.13794 2.41851 0
M  V30 2359 H 223.354 -0.151742 3.80097 0
M  V30 2360 H 224.666 -0.418006 4.97045 0
M  V30 2361 H 223.82 -2.73088 5.41763 0
M  V30 2362 H 222.559 -2.53208 4.16818 0
M  V30 2363 H 221.564 -0.624873 5.46237 0
M  V30 2364 H 222.789 -0.845998 6.7381 0
M  V30 2365 H 220.735 -2.91759 5.87548 0
M  V30 2366 H 220.652 -1.9428 7.3061 0
M  V30 2367 H 221.92 -3.12074 7.14304 0
M  V30 2368 N 226.149 -1.5696 0.141893 0
M  V30 2369 C 227.059 -2.20066 -0.812905 0
M  V30 2370 C 228.075 -1.18344 -1.27557 0
M  V30 2371 O 229.251 -1.50902 -1.33381 0
M  V30 2372 C 226.316 -2.80583 -2.03652 0
M  V30 2373 C 225.377 -3.97414 -1.62359 0
M  V30 2374 C 224.61 -4.55036 -2.78887 0
M  V30 2375 O 224.833 -4.11538 -3.94959 0
M  V30 2376 O 223.767 -5.45376 -2.54653 0
M  V30 2377 H 227.593 -3.02157 -0.305746 0
M  V30 2378 H 225.178 -1.49159 -0.0848799 0
M  V30 2379 H 227.06 -3.19067 -2.75272 0
M  V30 2380 H 225.735 -2.01508 -2.5333 0
M  V30 2381 H 224.642 -3.63656 -0.877775 0
M  V30 2382 H 225.975 -4.77994 -1.17401 0
M  V30 2383 N 227.627 0.131896 -1.57047 0
M  V30 2384 C 228.857 0.855219 -1.88068 0
M  V30 2385 C 229.265 1.74557 -0.729817 0
M  V30 2386 O 228.608 1.81083 0.308962 0
M  V30 2387 C 228.67 1.75119 -3.13964 0
M  V30 2388 C 228.334 1.03646 -4.45091 0
M  V30 2389 C 229.331 0.383276 -5.18485 0
M  V30 2390 C 227.016 1.02148 -4.91804 0
M  V30 2391 C 229.01 -0.275347 -6.36805 0
M  V30 2392 C 226.697 0.359047 -6.10044 0
M  V30 2393 C 227.695 -0.288222 -6.82392 0
M  V30 2394 O 227.383 -0.94011 -7.98384 0
M  V30 2395 H 227.115 0.251864 -0.627328 0
M  V30 2396 H 229.669 0.124782 -2.05021 0
M  V30 2397 H 227.899 2.52295 -2.9306 0
M  V30 2398 H 229.588 2.3478 -3.31109 0
M  V30 2399 H 230.354 0.386562 -4.83457 0
M  V30 2400 H 226.233 1.5147 -4.35405 0
M  V30 2401 H 229.777 -0.781148 -6.93213 0
M  V30 2402 H 225.674 0.35348 -6.44531 0
M  V30 2403 H 226.442 -0.84329 -8.14144 0
M  V30 2404 N 229.106 1.52395 0.401703 0
M  V30 2405 C 230.069 1.75636 1.47257 0
M  V30 2406 C 231.069 0.62628 1.48103 0
M  V30 2407 O 232.259 0.894227 1.49497 0
M  V30 2408 C 229.391 1.84553 2.86624 0
M  V30 2409 H 230.584 2.71241 1.27938 0
M  V30 2410 H 228.137 1.42923 0.632662 0
M  V30 2411 H 228.872 0.908882 3.11303 0
M  V30 2412 H 228.657 2.66715 2.87412 0
M  V30 2413 H 230.147 2.04251 3.64241 0
M  V30 2414 N 230.584 -0.659388 1.43143 0
M  V30 2415 C 231.532 -1.79374 1.4808 0
M  V30 2416 C 232.526 -1.65639 0.354988 0
M  V30 2417 O 233.732 -1.7206 0.528704 0
M  V30 2418 H 230.107 -0.591705 0.4641 0
M  V30 2419 H 232.078 -1.72329 2.43609 0
M  V30 2420 C 230.827 -3.17606 1.41499 0
M  V30 2421 H 230.15 -3.28809 2.27431 0
M  V30 2422 H 231.59 -3.96951 1.49015 0
M  V30 2423 C 230.049 -3.36642 0.131765 0
M  V30 2424 O 230.579 -3.93461 -0.809386 0
M  V30 2425 N 228.785 -2.90567 0.0439396 0
M  V30 2426 H 228.332 -2.44513 0.810619 0
M  V30 2427 H 228.29 -3.03681 -0.813969 0
M  V30 2428 N 232.062 -1.29571 -0.897171 0
M  V30 2429 C 232.994 -1.10724 -2.00681 0
M  V30 2430 C 234.007 -0.0540026 -1.6271 0
M  V30 2431 O 235.196 -0.298783 -1.75982 0
M  V30 2432 C 232.296 -0.663912 -3.32333 0
M  V30 2433 C 231.469 -1.79622 -3.98816 0
M  V30 2434 C 230.528 -1.34349 -5.0876 0
M  V30 2435 O 229.554 -2.04864 -5.31055 0
M  V30 2436 N 230.756 -0.215764 -5.80099 0
M  V30 2437 H 233.521 -2.06291 -2.17403 0
M  V30 2438 H 231.082 -1.21544 -1.06951 0
M  V30 2439 H 233.074 -0.344295 -4.03233 0
M  V30 2440 H 231.644 0.199375 -3.11964 0
M  V30 2441 H 230.864 -2.28459 -3.21248 0
M  V30 2442 H 232.152 -2.55535 -4.39976 0
M  V30 2443 H 231.55 0.372091 -5.64475 0
M  V30 2444 H 230.107 0.0444707 -6.51785 0
M  V30 2445 N 233.54 1.10788 -1.12088 0
M  V30 2446 C 234.787 1.82671 -0.873931 0
M  V30 2447 C 235.115 1.85004 0.600311 0
M  V30 2448 O 234.37 1.30365 1.45957 0
M  V30 2449 C 234.669 3.29294 -1.38926 0
M  V30 2450 C 234.335 3.47113 -2.87791 0
M  V30 2451 C 232.997 3.51684 -3.28439 0
M  V30 2452 C 235.349 3.52808 -3.83635 0
M  V30 2453 C 232.677 3.59513 -4.63646 0
M  V30 2454 C 235.029 3.62169 -5.18668 0
M  V30 2455 C 233.693 3.65003 -5.58864 0
M  V30 2456 H 232.963 0.668441 -0.319794 0
M  V30 2457 H 235.61 1.30613 -1.40045 0
M  V30 2458 H 233.915 3.83894 -0.783122 0
M  V30 2459 H 235.612 3.83416 -1.17443 0
M  V30 2460 H 232.202 3.4423 -2.5535 0
M  V30 2461 H 236.386 3.4853 -3.53328 0
M  V30 2462 H 231.642 3.59987 -4.94185 0
M  V30 2463 H 235.816 3.6552 -5.92763 0
M  V30 2464 H 233.443 3.70822 -6.63623 0
M  V30 2465 N 235.018 0.912232 1.28515 0
M  V30 2466 C 235.951 0.343928 2.25593 0
M  V30 2467 C 236.929 -0.550994 1.5298 0
M  V30 2468 O 238.113 -0.494991 1.81885 0
M  V30 2469 C 235.24 -0.508525 3.34861 0
M  V30 2470 C 234.286 0.320808 4.25292 0
M  V30 2471 S 235.119 1.72658 5.06902 0
M  V30 2472 C 236.275 0.881394 6.19663 0
M  V30 2473 H 236.508 1.16674 2.73449 0
M  V30 2474 H 234.041 0.713384 1.36931 0
M  V30 2475 H 235.999 -0.994539 3.9827 0
M  V30 2476 H 234.66 -1.30571 2.85675 0
M  V30 2477 H 233.853 -0.330941 5.02912 0
M  V30 2478 H 233.455 0.74042 3.66598 0
M  V30 2479 H 235.747 0.110359 6.7741 0
M  V30 2480 H 236.69 1.63009 6.89082 0
M  V30 2481 H 237.098 0.430239 5.62858 0
M  V30 2482 N 236.496 -1.42363 0.676048 0
M  V30 2483 C 237.742 -2.02336 0.207809 0
M  V30 2484 C 238.097 -1.52506 -1.17302 0
M  V30 2485 O 237.39 -0.718048 -1.77636 0
M  V30 2486 C 237.584 -3.56929 0.183431 0
M  V30 2487 C 237.413 -4.21762 1.56036 0
M  V30 2488 C 236.183 -4.56881 2.15842 0
M  V30 2489 C 238.381 -4.49267 2.50327 0
M  V30 2490 N 236.363 -5.069 3.46303 0
M  V30 2491 C 237.734 -5.00851 3.65443 0
M  V30 2492 C 239.789 -4.31257 2.48841 0
M  V30 2493 C 238.492 -5.36317 4.79329 0
M  V30 2494 C 240.518 -4.678 3.61824 0
M  V30 2495 C 239.88 -5.19537 4.75668 0
M  V30 2496 H 235.979 -0.772583 0.120993 0
M  V30 2497 H 238.563 -1.73203 0.889306 0
M  V30 2498 H 236.734 -3.85576 -0.467483 0
M  V30 2499 H 238.466 -4.03603 -0.297808 0
M  V30 2500 H 235.221 -4.4268 1.68319 0
M  V30 2501 H 235.645 -5.36338 4.13123 0
M  V30 2502 H 240.287 -3.90511 1.62051 0
M  V30 2503 H 238.005 -5.75995 5.66794 0
M  V30 2504 H 241.591 -4.55541 3.61903 0
M  V30 2505 H 240.471 -5.47287 5.61646 0
M  V30 2506 N 237.974 -0.419461 -1.51915 0
M  V30 2507 C 238.884 0.407528 -2.31033 0
M  V30 2508 C 239.9 1.04413 -1.3919 0
M  V30 2509 O 241.076 1.0434 -1.72265 0
M  V30 2510 C 238.141 1.50365 -3.12396 0
M  V30 2511 C 237.202 0.889029 -4.19994 0
M  V30 2512 C 236.435 1.93291 -4.97468 0
M  V30 2513 O 236.658 3.15259 -4.75361 0
M  V30 2514 O 235.592 1.53339 -5.8204 0
M  V30 2515 H 239.418 -0.237865 -3.02767 0
M  V30 2516 H 237.003 -0.182413 -1.48282 0
M  V30 2517 H 238.885 2.13975 -3.63032 0
M  V30 2518 H 237.56 2.13345 -2.43445 0
M  V30 2519 H 236.467 0.215353 -3.7348 0
M  V30 2520 H 237.8 0.302991 -4.91267 0
M  V30 2521 N 239.452 1.56882 -0.150215 0
M  V30 2522 C 240.682 2.00302 0.506213 0
M  V30 2523 C 241.09 1.02934 1.58749 0
M  V30 2524 O 240.433 0.0188384 1.8369 0
M  V30 2525 C 240.495 3.40156 1.16337 0
M  V30 2526 C 240.159 4.56439 0.226311 0
M  V30 2527 C 241.156 5.17012 -0.547265 0
M  V30 2528 C 238.841 5.02136 0.128279 0
M  V30 2529 C 240.835 6.21693 -1.40629 0
M  V30 2530 C 238.522 6.06672 -0.734345 0
M  V30 2531 C 239.52 6.6632 -1.50023 0
M  V30 2532 O 239.208 7.68831 -2.34848 0
M  V30 2533 H 238.94 0.662182 0.135984 0
M  V30 2534 H 241.494 2.03961 -0.242746 0
M  V30 2535 H 239.724 3.33346 1.96004 0
M  V30 2536 H 241.413 3.67663 1.71985 0
M  V30 2537 H 242.179 4.82603 -0.48158 0
M  V30 2538 H 238.058 4.55435 0.714157 0
M  V30 2539 H 241.602 6.68179 -2.00455 0
M  V30 2540 H 237.499 6.40507 -0.801309 0
M  V30 2541 H 238.267 7.86065 -2.28131 0
M  V30 2542 N 240.93 -0.123565 1.57115 0
M  V30 2543 C 242.155 -0.850398 1.89164 0
M  V30 2544 C 242.58 -1.7286 0.741688 0
M  V30 2545 O 241.938 -1.78665 -0.307958 0
M  V30 2546 C 241.986 -1.66353 3.19936 0
M  V30 2547 O 241.09 -2.77004 3.0552 0
M  V30 2548 H 240.431 -0.235454 0.620852 0
M  V30 2549 H 242.961 -0.107335 2.04318 0
M  V30 2550 H 242.971 -2.05372 3.52543 0
M  V30 2551 H 241.646 -1.01881 4.03228 0
M  V30 2552 H 240.223 -2.41221 2.84371 0
M  V30 2553 N 242.408 -1.52605 -0.393616 0
M  V30 2554 C 243.636 -1.71294 -1.16043 0
M  V30 2555 C 244.051 -0.429259 -1.83855 0
M  V30 2556 O 243.408 0.595921 -1.72496 0
M  V30 2557 C 243.459 -2.8593 -2.21193 0
M  V30 2558 O 243.18 -4.09329 -1.56146 0
M  V30 2559 C 244.681 -3.16259 -3.10636 0
M  V30 2560 H 241.901 -0.573641 -0.348104 0
M  V30 2561 H 244.445 -1.99234 -0.461092 0
M  V30 2562 H 242.6 -2.60465 -2.86769 0
M  V30 2563 H 243.014 -4.73323 -2.25978 0
M  V30 2564 H 244.488 -3.99946 -3.80456 0
M  V30 2565 H 244.965 -2.3045 -3.73884 0
M  V30 2566 H 245.571 -3.43547 -2.50711 0
M  V30 2567 N 243.887 0.651787 -1.4349 0
M  V30 2568 C 244.835 1.78586 -1.49029 0
M  V30 2569 C 245.829 1.65448 -0.363767 0
M  V30 2570 O 247.035 1.71777 -0.537821 0
M  V30 2571 H 243.41 0.589236 -0.467231 0
M  V30 2572 H 245.381 1.71035 -2.44519 0
M  V30 2573 C 244.13 3.16851 -1.43181 0
M  V30 2574 H 243.453 3.27598 -2.29171 0
M  V30 2575 H 244.893 3.96156 -1.51118 0
M  V30 2576 C 243.352 3.36568 -0.149616 0
M  V30 2577 O 243.882 3.93885 0.788509 0
M  V30 2578 N 242.088 2.90539 -0.0593484 0
M  V30 2579 H 241.635 2.4408 -0.823575 0
M  V30 2580 H 241.593 3.04108 0.797853 0
M  V30 2581 N 245.365 1.30045 0.890287 0
M  V30 2582 C 246.595 1.21296 1.67245 0
M  V30 2583 C 247.003 -0.227471 1.87828 0
M  V30 2584 O 246.346 -1.16296 1.422 0
M  V30 2585 C 246.408 1.86519 3.07329 0
M  V30 2586 C 246.072 3.35837 3.09939 0
M  V30 2587 C 247.069 4.31915 2.89389 0
M  V30 2588 C 244.754 3.77196 3.31706 0
M  V30 2589 C 246.748 5.67325 2.90552 0
M  V30 2590 C 244.435 5.12725 3.32499 0
M  V30 2591 C 245.433 6.076 3.11947 0
M  V30 2592 O 245.121 7.40655 3.12547 0
M  V30 2593 H 244.853 0.4211 0.528821 0
M  V30 2594 H 247.407 1.72111 1.12103 0
M  V30 2595 H 245.637 1.30228 3.64112 0
M  V30 2596 H 247.326 1.71963 3.67673 0
M  V30 2597 H 248.092 4.01294 2.72375 0
M  V30 2598 H 243.971 3.03796 3.4674 0
M  V30 2599 H 247.515 6.41354 2.74429 0
M  V30 2600 H 243.412 5.42988 3.49047 0
M  V30 2601 H 244.18 7.49577 3.28749 0
M  V30 2602 N 246.843 -1.10192 1.12674 0
M  V30 2603 C 248.091 -1.81845 0.881861 0
M  V30 2604 C 248.412 -1.85737 -0.593867 0
M  V30 2605 O 247.682 -1.33724 -1.4316 0
M  V30 2606 H 246.262 -0.673432 0.323261 0
M  V30 2607 H 248.924 -1.33316 1.42172 0
M  V30 2608 H 248.02 -2.85288 1.2656 0
M  V30 2609 N 248.321 -0.919034 -1.28029 0
M  V30 2610 C 249.253 -0.368762 -2.26214 0
M  V30 2611 C 250.266 0.495716 -1.55069 0
M  V30 2612 O 251.455 0.30974 -1.75792 0
M  V30 2613 C 248.555 0.491049 -3.35324 0
M  V30 2614 C 247.728 -0.352133 -4.3598 0
M  V30 2615 C 246.787 0.443622 -5.24327 0
M  V30 2616 O 245.813 -0.14566 -5.69014 0
M  V30 2617 N 247.015 1.74545 -5.53637 0
M  V30 2618 H 249.78 -1.21273 -2.74068 0
M  V30 2619 H 247.341 -0.785541 -1.41566 0
M  V30 2620 H 249.333 1.03026 -3.91366 0
M  V30 2621 H 247.903 1.23574 -2.87138 0
M  V30 2622 H 247.123 -1.07269 -3.79324 0
M  V30 2623 H 248.411 -0.928883 -5.00249 0
M  V30 2624 H 247.809 2.24666 -5.19174 0
M  V30 2625 H 246.366 2.23138 -6.12416 0
M  V30 2626 N 249.799 1.42003 -0.683588 0
M  V30 2627 C 250.762 2.29191 -0.0198243 0
M  V30 2628 C 251.762 1.43773 0.72013 0
M  V30 2629 O 252.952 1.65061 0.556815 0
M  V30 2630 C 250.084 3.26435 0.982487 0
M  V30 2631 H 251.277 2.8938 -0.787345 0
M  V30 2632 H 248.83 1.49789 -0.446418 0
M  V30 2633 H 249.565 2.71203 1.77819 0
M  V30 2634 H 249.35 3.89449 0.455182 0
M  V30 2635 H 250.84 3.918 1.44508 0
M  V30 2636 N 251.277 0.427512 1.51691 0
M  V30 2637 C 252.688 -0.0378867 1.86662 0
M  V30 2638 C 253.039 -1.42819 1.34525 0
M  V30 2639 O 252.164 -2.05037 0.692014 0
M  V30 2640 C 252.759 -0.0755266 3.38716 0
M  V30 2641 C 251.318 -0.485309 3.73258 0
M  V30 2642 C 250.465 0.328399 2.75349 0
M  V30 2643 H 253.416 0.64379 1.45055 0
M  V30 2644 H 253.437 -0.887056 3.70016 0
M  V30 2645 H 252.949 0.936487 3.76632 0
M  V30 2646 H 251.05 -1.50329 3.40928 0
M  V30 2647 H 251.163 -0.21693 4.78609 0
M  V30 2648 H 249.527 -0.211905 2.53817 0
M  V30 2649 H 250.31 1.3391 3.16106 0
M  V30 2650 N 252.755 -1.56801 0.158532 0
M  V30 2651 C 253.685 -2.20347 -0.772609 0
M  V30 2652 C 254.666 -1.15518 -1.24859 0
M  V30 2653 O 255.851 -1.43902 -1.30406 0
M  V30 2654 C 252.981 -2.83417 -2.00729 0
M  V30 2655 C 251.935 -3.94174 -1.66765 0
M  V30 2656 C 251.261 -4.44233 -2.97592 0
M  V30 2657 C 252.561 -5.14392 -0.905447 0
M  V30 2658 H 254.255 -2.98413 -0.242959 0
M  V30 2659 H 251.801 -1.43537 -0.115419 0
M  V30 2660 H 253.754 -3.26543 -2.6636 0
M  V30 2661 H 252.478 -2.02701 -2.56086 0
M  V30 2662 H 251.137 -3.51684 -1.03508 0
M  V30 2663 H 250.785 -3.60325 -3.50963 0
M  V30 2664 H 250.485 -5.18945 -2.75626 0
M  V30 2665 H 252.009 -4.90037 -3.64274 0
M  V30 2666 H 253.423 -5.5429 -1.46408 0
M  V30 2667 H 251.82 -5.9494 -0.7853 0
M  V30 2668 H 252.89 -4.84795 0.100668 0
M  V30 2669 N 254.233 0.115231 -1.57178 0
M  V30 2670 C 255.458 0.840354 -1.89612 0
M  V30 2671 C 255.883 1.72464 -0.750845 0
M  V30 2672 O 255.241 1.78826 0.298478 0
M  V30 2673 C 255.289 1.64654 -3.20814 0
M  V30 2674 O 254.393 2.7538 -3.06985 0
M  V30 2675 H 253.734 0.232158 -0.622092 0
M  V30 2676 H 256.264 0.0964977 -2.04372 0
M  V30 2677 H 256.274 2.03499 -3.53627 0
M  V30 2678 H 254.949 0.997416 -4.03763 0
M  V30 2679 H 253.526 2.3971 -2.85646 0
M  V30 2680 N 255.711 1.52812 0.385517 0
M  V30 2681 C 256.641 1.80808 1.47752 0
M  V30 2682 C 257.622 0.660318 1.5676 0
M  V30 2683 O 258.807 0.908246 1.71652 0
M  V30 2684 C 255.937 1.98008 2.85324 0
M  V30 2685 C 254.891 3.13709 2.91154 0
M  V30 2686 C 254.217 3.16169 4.31209 0
M  V30 2687 C 255.517 4.52709 2.60483 0
M  V30 2688 H 257.211 2.72253 1.24573 0
M  V30 2689 H 254.757 1.31003 0.597839 0
M  V30 2690 H 256.71 2.16176 3.61726 0
M  V30 2691 H 255.434 1.03255 3.09848 0
M  V30 2692 H 254.093 2.95329 2.17201 0
M  V30 2693 H 253.741 2.19092 4.52778 0
M  V30 2694 H 253.441 3.93894 4.36029 0
M  V30 2695 H 254.965 3.36496 5.09512 0
M  V30 2696 H 256.379 4.71173 3.26602 0
M  V30 2697 H 254.776 5.32528 2.76648 0
M  V30 2698 H 255.846 4.59186 1.55809 0
M  V30 2699 N 257.189 -0.644168 1.43834 0
M  V30 2700 C 258.119 -1.76814 1.52509 0
M  V30 2701 C 259.1 -1.65823 0.379052 0
M  V30 2702 O 260.285 -1.84781 0.597466 0
M  V30 2703 C 257.415 -3.15288 1.4564 0
M  V30 2704 C 256.369 -3.41053 2.58586 0
M  V30 2705 C 255.695 -4.79421 2.36769 0
M  V30 2706 C 256.995 -3.34902 4.00797 0
M  V30 2707 H 258.689 -1.69812 2.46586 0
M  V30 2708 H 256.235 -0.815542 1.1868 0
M  V30 2709 H 258.188 -3.93681 1.50311 0
M  V30 2710 H 256.912 -3.23043 0.480725 0
M  V30 2711 H 255.571 -2.65035 2.53282 0
M  V30 2712 H 255.219 -4.83863 1.37424 0
M  V30 2713 H 254.919 -4.9762 3.12487 0
M  V30 2714 H 256.443 -5.6006 2.43238 0
M  V30 2715 H 257.857 -4.03218 4.07539 0
M  V30 2716 H 256.254 -3.64637 4.76613 0
M  V30 2717 H 257.324 -2.32928 4.25291 0
M  V30 2718 N 258.668 -1.30515 -0.883378 0
M  V30 2719 C 259.914 -1.19607 -1.63774 0
M  V30 2720 C 260.247 0.248314 -1.92606 0
M  V30 2721 O 259.522 1.17742 -1.54813 0
M  V30 2722 C 259.805 -2.02669 -2.97653 0
M  V30 2723 C 259.658 -3.55335 -2.75784 0
M  V30 2724 C 260.977 -1.86573 -3.98596 0
M  V30 2725 H 258.096 -0.435856 -0.594305 0
M  V30 2726 H 260.738 -1.60165 -1.02212 0
M  V30 2727 H 258.888 -1.68208 -3.50197 0
M  V30 2728 H 260.56 -3.99863 -2.30016 0
M  V30 2729 H 258.803 -3.79438 -2.1026 0
M  V30 2730 H 259.474 -4.08745 -3.70988 0
M  V30 2731 H 261.95 -2.16703 -3.55217 0
M  V30 2732 H 260.826 -2.47014 -4.90179 0
M  V30 2733 H 261.087 -0.825321 -4.34328 0
M  V30 2734 N 260.146 1.09593 -1.13257 0
M  V30 2735 C 261.371 1.8604 -0.916732 0
M  V30 2736 C 261.796 1.80504 0.529146 0
M  V30 2737 O 261.154 1.18127 1.37534 0
M  V30 2738 C 261.202 3.32017 -1.40703 0
M  V30 2739 O 260.306 4.08141 -0.591153 0
M  V30 2740 H 259.647 0.576943 -0.328683 0
M  V30 2741 H 262.177 1.38405 -1.50682 0
M  V30 2742 H 262.187 3.82865 -1.4099 0
M  V30 2743 H 260.862 3.35361 -2.45979 0
M  V30 2744 H 259.439 3.67084 -0.656005 0
M  V30 2745 N 261.624 0.925811 1.2754 0
M  V30 2746 C 262.854 0.580666 1.98272 0
M  V30 2747 C 263.262 -0.845207 1.69272 0
M  V30 2748 O 262.605 -1.57306 0.948707 0
M  V30 2749 C 262.667 0.724418 3.52126 0
M  V30 2750 C 262.331 2.12206 4.04744 0
M  V30 2751 C 263.328 3.09604 4.17662 0
M  V30 2752 C 261.013 2.4385 4.39138 0
M  V30 2753 C 263.007 4.36755 4.64246 0
M  V30 2754 C 260.694 3.71237 4.85414 0
M  V30 2755 C 261.692 4.67503 4.97926 0
M  V30 2756 O 261.38 5.92624 5.43187 0
M  V30 2757 H 261.112 0.218987 0.639547 0
M  V30 2758 H 263.666 1.24452 1.63404 0
M  V30 2759 H 261.896 0.0034663 3.867 0
M  V30 2760 H 263.585 0.384607 4.04074 0
M  V30 2761 H 264.351 2.86478 3.91351 0
M  V30 2762 H 260.23 1.69665 4.28643 0
M  V30 2763 H 263.774 5.11898 4.73927 0
M  V30 2764 H 259.671 3.94182 5.11166 0
M  V30 2765 H 260.439 5.95585 5.61445 0
M  V30 2766 N 263.102 -1.41638 0.69111 0
M  V30 2767 C 264.33 -2.05628 0.22909 0
M  V30 2768 C 264.745 -1.51992 -1.11999 0
M  V30 2769 O 264.102 -0.666322 -1.69901 0
M  V30 2770 C 264.153 -3.61084 0.173283 0
M  V30 2771 O 263.874 -4.12735 1.46907 0
M  V30 2772 C 265.375 -4.42213 -0.310266 0
M  V30 2773 H 262.595 -0.662327 0.107534 0
M  V30 2774 H 265.139 -1.81489 0.942438 0
M  V30 2775 H 263.294 -3.84278 -0.490858 0
M  V30 2776 H 263.708 -5.06743 1.35322 0
M  V30 2777 H 265.182 -5.51194 -0.298196 0
M  V30 2778 H 265.659 -4.1799 -1.34838 0
M  V30 2779 H 266.265 -4.24074 0.322716 0
M  V30 2780 N 264.58 -0.43555 -1.51462 0
M  V30 2781 C 265.527 0.376797 -2.27703 0
M  V30 2782 C 266.497 1.01838 -1.31219 0
M  V30 2783 O 267.682 1.03762 -1.60119 0
M  V30 2784 C 264.822 1.47301 -3.12084 0
M  V30 2785 C 263.935 0.849744 -4.2356 0
M  V30 2786 C 263.07 1.92086 -4.95254 0
M  V30 2787 C 262.109 1.27593 -5.98654 0
M  V30 2788 N 261.246 2.28833 -6.63762 0
M  V30 2789 H 266.086 -0.279734 -2.96684 0
M  V30 2790 H 263.623 -0.149795 -1.46335 0
M  V30 2791 H 265.581 2.11984 -3.59331 0
M  V30 2792 H 264.211 2.0992 -2.45221 0
M  V30 2793 H 263.263 0.0912529 -3.80291 0
M  V30 2794 H 264.575 0.338878 -4.97648 0
M  V30 2795 H 263.729 2.64435 -5.46039 0
M  V30 2796 H 262.468 2.46545 -4.20793 0
M  V30 2797 H 261.473 0.537893 -5.47162 0
M  V30 2798 H 262.698 0.738693 -6.7507 0
M  V30 2799 H 260.644 2.82375 -5.92115 0
M  V30 2800 H 260.561 1.82632 -7.33608 0
M  V30 2801 H 261.829 3.00671 -7.19178 0
M  V30 2802 N 266.058 1.56714 -0.166846 0
M  V30 2803 C 267.283 2.01557 0.488833 0
M  V30 2804 C 267.708 1.0463 1.56314 0
M  V30 2805 O 267.066 0.0251304 1.81283 0
M  V30 2806 C 267.114 3.4503 1.04818 0
M  V30 2807 O 266.218 3.51163 2.16236 0
M  V30 2808 H 265.559 0.653516 0.117526 0
M  V30 2809 H 268.089 2.02818 -0.269421 0
M  V30 2810 H 268.099 3.84243 1.37191 0
M  V30 2811 H 266.774 4.15077 0.261572 0
M  V30 2812 H 265.351 3.23807 1.84942 0
M  V30 2813 N 267.536 -0.106894 1.57237 0
M  V30 2814 C 268.766 -0.825191 1.89405 0
M  V30 2815 C 269.174 -1.73374 0.757496 0
M  V30 2816 O 268.517 -1.81552 -0.280115 0
M  V30 2817 C 268.579 -1.70102 3.1671 0
M  V30 2818 C 268.243 -0.965523 4.46684 0
M  V30 2819 C 269.24 -0.300741 5.19029 0
M  V30 2820 C 266.925 -0.943105 4.93367 0
M  V30 2821 C 268.919 0.376622 6.36286 0
M  V30 2822 C 266.606 -0.261949 6.10538 0
M  V30 2823 C 267.604 0.396748 6.81847 0
M  V30 2824 O 267.292 1.06701 7.96787 0
M  V30 2825 H 267.024 -0.241852 0.631255 0
M  V30 2826 H 269.578 -0.0921491 2.05193 0
M  V30 2827 H 267.808 -2.47601 2.97036 0
M  V30 2828 H 269.497 -2.29483 3.34802 0
M  V30 2829 H 270.263 -0.309599 4.84011 0
M  V30 2830 H 266.142 -1.44524 4.3776 0
M  V30 2831 H 269.686 0.891334 6.91882 0
M  V30 2832 H 265.583 -0.250896 6.45012 0
M  V30 2833 H 266.351 0.972707 8.127 0
M  V30 2834 N 269.014 -1.53014 -0.377408 0
M  V30 2835 C 269.944 -1.81589 -1.46791 0
M  V30 2836 C 270.925 -0.668622 -1.56408 0
M  V30 2837 O 272.11 -0.917337 -1.71168 0
M  V30 2838 C 269.24 -1.99519 -2.8427 0
M  V30 2839 C 268.194 -3.15249 -2.89486 0
M  V30 2840 C 267.52 -3.18451 -4.29527 0
M  V30 2841 C 268.82 -4.54084 -2.58079 0
M  V30 2842 H 270.514 -2.7291 -1.23127 0
M  V30 2843 H 268.06 -1.31319 -0.590883 0
M  V30 2844 H 270.013 -2.18092 -3.60575 0
M  V30 2845 H 268.737 -1.04897 -3.09296 0
M  V30 2846 H 267.396 -2.96477 -2.15631 0
M  V30 2847 H 267.044 -2.2149 -4.5161 0
M  V30 2848 H 266.744 -3.962 -4.33934 0
M  V30 2849 H 268.268 -3.39193 -5.07721 0
M  V30 2850 H 269.682 -4.72899 -3.24098 0
M  V30 2851 H 268.079 -5.33987 -2.7382 0
M  V30 2852 H 269.149 -4.60006 -1.53372 0
M  V30 2853 N 270.492 0.636531 -1.44174 0
M  V30 2854 C 271.717 1.42847 -1.50364 0
M  V30 2855 C 272.142 1.87665 -0.127867 0
M  V30 2856 O 271.5 1.58408 0.88185 0
M  V30 2857 C 271.548 2.62854 -2.4686 0
M  V30 2858 O 270.652 3.62501 -1.9664 0
M  V30 2859 H 269.993 0.427642 -0.507955 0
M  V30 2860 H 272.523 0.777422 -1.89255 0
M  V30 2861 H 272.533 3.10465 -2.64718 0
M  V30 2862 H 271.208 2.29578 -3.46795 0
M  V30 2863 H 269.785 3.21735 -1.88523 0
M  V30 2864 N 271.97 1.30982 0.876444 0
M  V30 2865 C 272.903 1.12414 1.98591 0
M  V30 2866 C 273.881 0.0294078 1.62573 0
M  V30 2867 O 275.065 0.184598 1.87594 0
M  V30 2868 C 272.192 0.716276 3.3104 0
M  V30 2869 C 271.238 1.81311 3.86042 0
M  V30 2870 S 272.071 3.41727 4.1229 0
M  V30 2871 C 273.227 3.02863 5.47745 0
M  V30 2872 H 273.46 2.06338 2.14037 0
M  V30 2873 H 270.993 1.15393 1.02586 0
M  V30 2874 H 272.951 0.487697 4.07593 0
M  V30 2875 H 271.612 -0.203749 3.13438 0
M  V30 2876 H 270.805 1.48021 4.81774 0
M  V30 2877 H 270.407 1.99641 3.16259 0
M  V30 2878 H 272.699 2.51353 6.29148 0
M  V30 2879 H 273.642 3.97533 5.8598 0
M  V30 2880 H 274.05 2.40487 5.10711 0
M  V30 2881 N 273.449 -1.08991 1.13837 0
M  V30 2882 C 274.695 -1.81526 0.90422 0
M  V30 2883 C 275.028 -1.85706 -0.568066 0
M  V30 2884 O 274.303 -1.32855 -1.42056 0
M  V30 2885 C 274.586 -3.27447 1.49835 0
M  V30 2886 C 274.439 -3.31512 3.04006 0
M  V30 2887 C 275.758 -4.24256 1.17025 0
M  V30 2888 H 272.877 -0.659029 0.329923 0
M  V30 2889 H 275.519 -1.27644 1.40737 0
M  V30 2890 H 273.669 -3.73462 1.07044 0
M  V30 2891 H 275.341 -2.93867 3.55584 0
M  V30 2892 H 273.584 -2.70963 3.38765 0
M  V30 2893 H 274.255 -4.34329 3.40679 0
M  V30 2894 H 276.731 -3.86549 1.54009 0
M  V30 2895 H 275.607 -5.24684 1.61237 0
M  V30 2896 H 275.868 -4.42019 0.0846274 0
M  V30 2897 N 274.927 -0.932562 -1.27047 0
M  V30 2898 C 276.175 -0.574422 -1.93765 0
M  V30 2899 C 276.496 0.887993 -1.73608 0
M  V30 2900 O 275.766 1.62999 -1.08665 0
M  V30 2901 H 274.346 -0.209451 -0.717035 0
M  V30 2902 H 277.008 -1.18601 -1.5466 0
M  V30 2903 H 276.104 -0.784841 -3.02071 0
M  V30 2904 N 276.405 1.4127 -0.698611 0
M  V30 2905 C 277.63 2.06024 -0.238512 0
M  V30 2906 C 278.055 1.5224 1.10475 0
M  V30 2907 O 277.413 0.650623 1.69223 0
M  V30 2908 C 277.461 3.59988 -0.209952 0
M  V30 2909 O 276.565 4.04282 0.814235 0
M  V30 2910 H 275.906 0.653829 -0.115775 0
M  V30 2911 H 278.436 1.8098 -0.954326 0
M  V30 2912 H 278.446 4.07979 -0.0418436 0
M  V30 2913 H 277.121 3.98503 -1.1903 0
M  V30 2914 H 275.698 3.6779 0.615234 0
M  V30 2915 N 277.883 0.443576 1.51229 0
M  V30 2916 C 279.123 -0.119889 2.04048 0
M  V30 2917 C 279.487 -1.39418 1.32009 0
M  V30 2918 O 280.688 -2.03829 1.75235 0
M  V30 2919 C 278.959 -0.327233 3.55899 0
M  V30 2920 S 280.518 -0.853208 4.30425 0
M  V30 2921 H 277.336 -0.028921 0.710412 0
M  V30 2922 H 279.938 0.604413 1.85922 0
M  V30 2923 H 278.642 0.606445 4.05895 0
M  V30 2924 H 278.173 -1.07844 3.7833 0
M  V30 2925 H 280.188 -2.13005 4.48155 0
M  V30 2926 N 279.361 -1.56624 0.175154 0
M  V30 2927 C 280.601 -1.98894 -0.471221 0
M  V30 2928 C 280.965 -1.05889 -1.60161 0
M  V30 2929 O 282.166 -1.37315 -2.3108 0
M  V30 2930 C 280.437 -3.44865 -0.938241 0
M  V30 2931 S 281.996 -4.09164 -1.58526 0
M  V30 2932 H 278.814 -0.694686 -0.151434 0
M  V30 2933 H 281.416 -1.93577 0.27352 0
M  V30 2934 H 280.12 -4.10265 -0.10518 0
M  V30 2935 H 279.651 -3.53956 -1.71693 0
M  V30 2936 H 281.666 -4.04528 -2.87352 0
M  V30 2937 N 280.839 0.0985539 -1.57292 0
M  V30 2938 C 282.067 0.816318 -1.90115 0
M  V30 2939 C 282.482 1.72451 -0.768509 0
M  V30 2940 O 281.839 1.80643 0.259687 0
M  V30 2941 C 281.89 1.63259 -3.22535 0
M  V30 2942 O 281.611 0.760934 -4.31441 0
M  V30 2943 C 283.112 2.45372 -3.69199 0
M  V30 2944 H 280.332 0.233595 -0.629027 0
M  V30 2945 H 282.876 0.0768229 -2.04356 0
M  V30 2946 H 281.031 2.32463 -3.09903 0
M  V30 2947 H 281.445 1.32595 -5.07463 0
M  V30 2948 H 282.919 2.98144 -4.64558 0
M  V30 2949 H 283.396 3.23677 -2.96867 0
M  V30 2950 H 284.002 1.81373 -3.84687 0
M  V30 2951 N 282.317 1.53212 0.369288 0
M  V30 2952 C 283.542 1.73423 1.1375 0
M  V30 2953 C 283.967 0.460404 1.82378 0
M  V30 2954 O 283.325 -0.585298 1.71592 0
M  V30 2955 C 283.373 2.89769 2.1463 0
M  V30 2956 O 282.477 2.58119 3.21634 0
M  V30 2957 H 281.818 0.576061 0.330227 0
M  V30 2958 H 284.348 2.00083 0.427547 0
M  V30 2959 H 284.358 3.15829 2.58294 0
M  V30 2960 H 283.033 3.8217 1.64071 0
M  V30 2961 H 281.61 2.42864 2.82969 0
M  V30 2962 N 283.795 -0.628877 1.44509 0
M  V30 2963 C 284.758 -1.72263 1.51188 0
M  V30 2964 C 285.758 -1.55907 0.39367 0
M  V30 2965 O 286.948 -1.61361 0.656377 0
M  V30 2966 C 284.08 -3.11365 1.38798 0
M  V30 2967 H 285.273 -1.67714 2.4862 0
M  V30 2968 H 282.826 -0.842737 1.31634 0
M  V30 2969 H 283.561 -3.21507 0.424693 0
M  V30 2970 H 283.346 -3.24644 2.19884 0
M  V30 2971 H 284.836 -3.91075 1.46458 0
M  V30 2972 N 285.273 -1.31445 -0.869486 0
M  V30 2973 C 286.498 -1.24256 -1.66058 0
M  V30 2974 C 286.923 0.188928 -1.87149 0
M  V30 2975 O 286.281 1.13522 -1.4136 0
M  V30 2976 C 286.329 -1.9924 -3.00559 0
M  V30 2977 O 285.433 -1.33007 -3.90362 0
M  V30 2978 H 284.774 -0.428973 -0.506831 0
M  V30 2979 H 287.304 -1.73521 -1.08404 0
M  V30 2980 H 287.314 -2.08854 -3.50491 0
M  V30 2981 H 285.989 -3.03342 -2.84528 0
M  V30 2982 H 284.566 -1.31848 -3.48813 0
M  V30 2983 N 286.751 1.08385 -1.14413 0
M  V30 2984 C 288.162 1.62258 -0.923535 0
M  V30 2985 C 288.513 1.88691 0.537595 0
M  V30 2986 O 287.638 1.64454 1.40655 0
M  V30 2987 C 288.233 2.94781 -1.67002 0
M  V30 2988 C 286.792 3.45437 -1.495 0
M  V30 2989 C 285.939 2.19668 -1.69238 0
M  V30 2990 H 288.89 0.916086 -1.2959 0
M  V30 2991 H 288.911 3.63229 -1.13334 0
M  V30 2992 H 288.423 2.7551 -2.73342 0
M  V30 2993 H 286.524 3.6981 -0.455097 0
M  V30 2994 H 286.637 4.22173 -2.2651 0
M  V30 2995 H 285.001 2.28849 -1.11804 0
M  V30 2996 H 285.784 2.02905 -2.7692 0
M  V30 2997 N 288.23 0.939286 1.26551 0
M  V30 2998 C 289.458 0.602536 1.97932 0
M  V30 2999 C 289.873 -0.82206 1.69964 0
M  V30 3000 O 289.23 -1.54789 0.966784 0
M  V30 3001 C 289.281 0.832946 3.51773 0
M  V30 3002 O 289.002 2.20151 3.78768 0
M  V30 3003 C 290.503 0.506483 4.40397 0
M  V30 3004 H 287.723 0.227248 0.631347 0
M  V30 3005 H 290.267 1.25948 1.61113 0
M  V30 3006 H 288.422 0.222644 3.8676 0
M  V30 3007 H 288.836 2.26013 4.73306 0
M  V30 3008 H 290.31 0.718333 5.47306 0
M  V30 3009 H 290.787 -0.558451 4.35635 0
M  V30 3010 H 291.393 1.09543 4.10951 0
M  V30 3011 N 289.708 -1.40897 0.706093 0
M  V30 3012 C 290.954 -2.01352 0.241889 0
M  V30 3013 C 291.287 -1.55832 -1.15888 0
M  V30 3014 O 290.562 -0.774145 -1.7843 0
M  V30 3015 C 290.845 -3.58752 0.311311 0
M  V30 3016 C 290.698 -4.1437 1.74978 0
M  V30 3017 C 292.017 -4.38914 -0.322922 0
M  V30 3018 H 289.136 -0.731562 0.0893687 0
M  V30 3019 H 291.778 -1.67504 0.896802 0
M  V30 3020 H 289.928 -3.87718 -0.246302 0
M  V30 3021 H 291.6 -3.96239 2.36205 0
M  V30 3022 H 289.843 -3.69016 2.28057 0
M  V30 3023 H 290.514 -5.23532 1.74981 0
M  V30 3024 H 292.99 -4.15822 0.152089 0
M  V30 3025 H 291.866 -5.48358 -0.243855 0
M  V30 3026 H 292.127 -4.19176 -1.40513 0
M  V30 3027 N 291.186 -0.45159 -1.50991 0
M  V30 3028 C 292.426 0.109066 -2.04109 0
M  V30 3029 C 292.79 1.38716 -1.32747 0
M  V30 3030 O 293.991 2.02896 -1.76314 0
M  V30 3031 C 292.262 0.308354 -3.56067 0
M  V30 3032 S 293.821 0.830369 -4.30872 0
M  V30 3033 H 290.639 0.0251531 -0.710555 0
M  V30 3034 H 293.241 -0.614264 -1.85599 0
M  V30 3035 H 291.945 -0.627962 -4.05567 0
M  V30 3036 H 291.476 1.05836 -3.78896 0
M  V30 3037 H 293.491 2.10626 -4.49279 0
M  V30 3038 N 292.664 1.56529 -0.183458 0
M  V30 3039 C 293.911 1.97244 0.458357 0
M  V30 3040 C 294.239 1.06992 1.62428 0
M  V30 3041 O 293.494 0.106542 1.9541 0
M  V30 3042 C 293.793 3.43939 0.971637 0
M  V30 3043 C 293.459 4.5083 -0.0796784 0
M  V30 3044 C 292.121 4.79786 -0.368584 0
M  V30 3045 C 294.473 5.15138 -0.792638 0
M  V30 3046 C 291.801 5.70345 -1.37563 0
M  V30 3047 C 294.153 6.06784 -1.78875 0
M  V30 3048 C 292.817 6.34102 -2.08497 0
M  V30 3049 H 292.087 0.721768 0.167725 0
M  V30 3050 H 294.734 1.89472 -0.277976 0
M  V30 3051 H 293.039 3.48724 1.78602 0
M  V30 3052 H 294.736 3.72791 1.47744 0
M  V30 3053 H 291.326 4.28317 0.155668 0
M  V30 3054 H 295.51 4.92868 -0.582659 0
M  V30 3055 H 290.766 5.89789 -1.61118 0
M  V30 3056 H 294.94 6.55677 -2.3465 0
M  V30 3057 H 292.567 7.04074 -2.86678 0
M  V30 3058 N 294.142 -0.090211 1.57342 0
M  V30 3059 C 295.072 -1.10976 2.05443 0
M  V30 3060 C 296.053 -1.41482 0.944284 0
M  V30 3061 O 297.238 -1.51428 1.21586 0
M  V30 3062 C 294.368 -2.42831 2.48295 0
M  V30 3063 C 293.322 -2.26721 3.63018 0
M  V30 3064 C 292.648 -3.63796 3.91863 0
M  V30 3065 C 293.948 -1.7037 4.93732 0
M  V30 3066 H 295.642 -0.709564 2.9087 0
M  V30 3067 H 293.188 -0.339874 1.39932 0
M  V30 3068 H 295.141 -3.14431 2.80555 0
M  V30 3069 H 293.865 -2.84795 1.59873 0
M  V30 3070 H 292.524 -1.57565 3.31012 0
M  V30 3071 H 292.172 -4.03297 3.00601 0
M  V30 3072 H 291.872 -3.53861 4.69101 0
M  V30 3073 H 293.396 -4.36855 4.26603 0
M  V30 3074 H 294.81 -2.31816 5.24342 0
M  V30 3075 H 293.207 -1.71181 5.75167 0
M  V30 3076 H 294.277 -0.663542 4.80339 0
M  V30 3077 N 295.62 -1.53406 -0.361157 0
M  V30 3078 C 296.567 -1.80156 -1.44265 0
M  V30 3079 C 297.537 -0.646183 -1.53015 0
M  V30 3080 O 298.722 -0.888818 -1.68833 0
M  V30 3081 C 295.862 -2.00116 -2.81154 0
M  V30 3082 C 294.975 -3.27833 -2.81335 0
M  V30 3083 C 294.11 -3.37957 -4.09828 0
M  V30 3084 C 293.149 -4.59689 -4.04168 0
M  V30 3085 N 292.286 -4.66942 -5.24318 0
M  V30 3086 H 297.126 -2.72438 -1.20754 0
M  V30 3087 H 294.663 -1.34954 -0.585296 0
M  V30 3088 H 296.621 -2.09677 -3.60682 0
M  V30 3089 H 295.251 -1.11167 -3.03054 0
M  V30 3090 H 294.303 -3.27204 -1.94014 0
M  V30 3091 H 295.615 -4.17442 -2.73027 0
M  V30 3092 H 294.769 -3.46853 -4.97773 0
M  V30 3093 H 293.508 -2.46372 -4.20894 0
M  V30 3094 H 292.513 -4.50889 -3.14609 0
M  V30 3095 H 293.738 -5.5262 -3.947 0
M  V30 3096 H 291.684 -3.7826 -5.35962 0
M  V30 3097 H 291.601 -5.50462 -5.18197 0
M  V30 3098 H 292.869 -4.80127 -6.14084 0
M  V30 3099 N 297.098 0.621204 -1.44841 0
M  V30 3100 C 298.008 1.7612 -1.5498 0
M  V30 3101 C 299.024 1.68477 -0.434927 0
M  V30 3102 O 300.2 1.89076 -0.693693 0
M  V30 3103 C 297.265 3.1254 -1.50065 0
M  V30 3104 C 296.326 3.31741 -2.72482 0
M  V30 3105 C 295.559 4.61653 -2.67792 0
M  V30 3106 O 295.782 5.431 -1.74352 0
M  V30 3107 O 294.716 4.83271 -3.58794 0
M  V30 3108 H 298.542 1.70518 -2.51311 0
M  V30 3109 H 296.127 0.783643 -1.27198 0
M  V30 3110 H 298.009 3.93844 -1.49882 0
M  V30 3111 H 296.684 3.18663 -0.568806 0
M  V30 3112 H 295.591 2.50077 -2.7823 0
M  V30 3113 H 296.924 3.30486 -3.64746 0
M  V30 3114 N 298.576 1.31904 0.862503 0
M  V30 3115 C 299.992 1.10724 1.14945 0
M  V30 3116 C 300.192 -0.117421 2.01158 0
M  V30 3117 O 299.248 -0.804595 2.39338 0
M  V30 3118 C 300.561 2.38267 1.83437 0
M  V30 3119 C 302.109 2.43949 1.96106 0
M  V30 3120 C 302.584 3.71394 2.68013 0
M  V30 3121 N 304.075 3.72331 2.75543 0
M  V30 3122 C 304.81 4.67641 3.31812 0
M  V30 3123 N 304.306 5.73313 3.88953 0
M  V30 3124 N 306.099 4.5515 3.29841 0
M  V30 3125 H 298.25 2.10436 0.288191 0
M  V30 3126 H 300.513 0.928705 0.190292 0
M  V30 3127 H 300.219 3.27759 1.27542 0
M  V30 3128 H 300.093 2.48633 2.83657 0
M  V30 3129 H 302.48 1.54922 2.51164 0
M  V30 3130 H 302.561 2.37543 0.949059 0
M  V30 3131 H 302.205 4.60791 2.13621 0
M  V30 3132 H 302.135 3.75069 3.69636 0
M  V30 3133 H 304.626 2.95947 2.34997 0
M  V30 3134 H 304.939 6.42107 4.30022 0
M  V30 3135 H 303.284 5.77077 3.87308 0
M  V30 3136 H 306.475 3.71766 2.84443 0
M  V30 3137 H 306.648 5.29604 3.73394 0
M  V30 3138 N 300.054 -1.07777 1.14986 0
M  V30 3139 C 300.984 -2.16865 0.865557 0
M  V30 3140 C 301.965 -1.69123 -0.182083 0
M  V30 3141 O 303.15 -1.94164 -0.0373815 0
M  V30 3142 C 300.28 -3.45539 0.349313 0
M  V30 3143 C 299.234 -4.06708 1.33313 0
M  V30 3144 C 298.56 -5.30411 0.675918 0
M  V30 3145 C 299.86 -4.47241 2.69764 0
M  V30 3146 H 301.554 -2.40905 1.77778 0
M  V30 3147 H 299.1 -1.15781 0.856203 0
M  V30 3148 H 301.053 -4.21174 0.137983 0
M  V30 3149 H 299.777 -3.21072 -0.598362 0
M  V30 3150 H 298.436 -3.33112 1.53075 0
M  V30 3151 H 298.084 -5.02232 -0.277767 0
M  V30 3152 H 297.784 -5.72293 1.33244 0
M  V30 3153 H 299.308 -6.08755 0.474262 0
M  V30 3154 H 300.722 -5.14025 2.53873 0
M  V30 3155 H 299.119 -5.00062 3.3175 0
M  V30 3156 H 300.189 -3.58818 3.26156 0
M  V30 3157 N 301.532 -0.945985 -1.26051 0
M  V30 3158 C 302.464 -0.416662 -2.25381 0
M  V30 3159 C 303.477 0.462712 -1.56086 0
M  V30 3160 O 304.666 0.272383 -1.7641 0
M  V30 3161 C 301.766 0.419812 -3.3629 0
M  V30 3162 C 300.939 -0.444531 -4.35135 0
M  V30 3163 C 299.998 0.332305 -5.2515 0
M  V30 3164 O 299.024 -0.266324 -5.68577 0
M  V30 3165 N 300.226 1.62763 -5.57215 0
M  V30 3166 H 302.991 -1.27059 -2.71433 0
M  V30 3167 H 300.552 -0.815392 -1.39868 0
M  V30 3168 H 302.544 0.947013 -3.93464 0
M  V30 3169 H 301.114 1.17456 -2.89694 0
M  V30 3170 H 300.334 -1.15291 -3.76964 0
M  V30 3171 H 301.622 -1.03478 -4.98166 0
M  V30 3172 H 301.02 2.13603 -5.23823 0
M  V30 3173 H 299.577 2.10097 -6.17011 0
M  V30 3174 N 303.011 1.40521 -0.713556 0
M  V30 3175 C 303.941 2.33381 -0.0743864 0
M  V30 3176 C 304.922 1.52784 0.747735 0
M  V30 3177 O 306.107 1.81258 0.697071 0
M  V30 3178 C 303.237 3.36748 0.849598 0
M  V30 3179 C 302.191 4.27793 0.133247 0
M  V30 3180 C 301.517 5.21679 1.17281 0
M  V30 3181 C 302.817 5.12415 -1.01134 0
M  V30 3182 H 304.511 2.87081 -0.850007 0
M  V30 3183 H 302.057 1.38034 -0.410201 0
M  V30 3184 H 304.01 4.00648 1.30612 0
M  V30 3185 H 302.734 2.81439 1.65709 0
M  V30 3186 H 301.393 3.65342 -0.303426 0
M  V30 3187 H 301.041 4.62677 1.9733 0
M  V30 3188 H 300.741 5.83435 0.698397 0
M  V30 3189 H 302.265 5.88456 1.62947 0
M  V30 3190 H 303.679 5.69781 -0.634274 0
M  V30 3191 H 302.076 5.83203 -1.41399 0
M  V30 3192 H 303.146 4.48514 -1.84292 0
M  V30 3193 N 304.489 0.459591 1.5075 0
M  V30 3194 C 305.436 -0.340524 2.28274 0
M  V30 3195 C 306.406 -0.997371 1.32822 0
M  V30 3196 O 307.591 -1.01202 1.61749 0
M  V30 3197 C 304.731 -1.42317 3.14388 0
M  V30 3198 C 303.844 -0.782251 4.24859 0
M  V30 3199 C 302.979 -1.84182 4.98247 0
M  V30 3200 C 302.018 -1.18053 6.00608 0
M  V30 3201 N 301.155 -2.18244 6.67319 0
M  V30 3202 H 305.995 0.326899 2.96202 0
M  V30 3203 H 303.532 0.173057 1.46078 0
M  V30 3204 H 305.49 -2.06241 3.62658 0
M  V30 3205 H 304.12 -2.05992 2.4853 0
M  V30 3206 H 303.172 -0.0307404 3.80388 0
M  V30 3207 H 304.484 -0.259663 4.98124 0
M  V30 3208 H 303.638 -2.55714 5.50177 0
M  V30 3209 H 302.377 -2.39819 4.24662 0
M  V30 3210 H 301.382 -0.450776 5.47949 0
M  V30 3211 H 302.607 -0.631202 6.7616 0
M  V30 3212 H 300.553 -2.72919 5.96533 0
M  V30 3213 H 300.47 -1.70938 7.36421 0
M  V30 3214 H 301.738 -2.89191 7.23871 0
M  V30 3215 N 305.967 -1.56429 0.191757 0
M  V30 3216 C 306.917 -2.15548 -0.743184 0
M  V30 3217 C 307.901 -1.09531 -1.17863 0
M  V30 3218 O 309.093 -1.35602 -1.13759 0
M  V30 3219 C 306.222 -2.81577 -1.96391 0
M  V30 3220 C 305.308 -3.9478 -1.54951 0
M  V30 3221 N 305.699 -4.98677 -0.845876 0
M  V30 3222 C 303.997 -4.06319 -1.83905 0
M  V30 3223 C 304.698 -5.78183 -0.638724 0
M  V30 3224 N 303.674 -5.30495 -1.18643 0
M  V30 3225 H 307.476 -2.9324 -0.196839 0
M  V30 3226 H 304.99 -1.62398 -0.0081603 0
M  V30 3227 H 306.987 -3.22321 -2.64415 0
M  V30 3228 H 305.647 -2.05371 -2.51501 0
M  V30 3229 H 306.658 -5.15464 -0.501704 0
M  V30 3230 H 303.335 -3.41238 -2.40548 0
M  V30 3231 H 304.725 -6.71851 -0.0807929 0
M  V30 3232 N 307.445 0.0818655 -1.57387 0
M  V30 3233 C 308.375 1.09885 -2.06028 0
M  V30 3234 C 309.356 1.4098 -0.951774 0
M  V30 3235 O 310.541 1.50781 -1.22387 0
M  V30 3236 C 307.671 2.4151 -2.4958 0
M  V30 3237 C 306.625 2.24792 -3.64215 0
M  V30 3238 C 305.951 3.61712 -3.93787 0
M  V30 3239 C 307.251 1.67749 -4.94629 0
M  V30 3240 H 308.945 0.694128 -2.91243 0
M  V30 3241 H 306.491 0.332448 -1.4011 0
M  V30 3242 H 308.444 3.12939 -2.82219 0
M  V30 3243 H 307.168 2.83943 -1.61381 0
M  V30 3244 H 305.827 1.55807 -3.31843 0
M  V30 3245 H 305.475 4.01697 -3.02735 0
M  V30 3246 H 305.175 3.51368 -4.70971 0
M  V30 3247 H 306.699 4.34587 -4.28913 0
M  V30 3248 H 308.113 2.29032 -5.25564 0
M  V30 3249 H 306.51 1.68128 -5.76067 0
M  V30 3250 H 307.58 0.638059 -4.80684 0
M  V30 3251 N 308.923 1.53595 0.353017 0
M  V30 3252 C 310.148 1.7462 1.11904 0
M  V30 3253 C 310.573 0.479721 1.8188 0
M  V30 3254 O 309.931 -0.567066 1.72204 0
M  V30 3255 C 309.979 2.92029 2.11545 0
M  V30 3256 O 309.083 2.61516 3.18878 0
M  V30 3257 H 308.424 0.579531 0.324099 0
M  V30 3258 H 310.954 2.00525 0.406301 0
M  V30 3259 H 310.964 3.18551 2.5493 0
M  V30 3260 H 309.639 3.83888 1.60008 0
M  V30 3261 H 308.216 2.45852 2.80377 0
M  V30 3262 N 310.401 -0.613514 1.45168 0
M  V30 3263 C 311.331 -1.7354 1.56225 0
M  V30 3264 C 312.312 -1.64981 0.41414 0
M  V30 3265 O 313.497 -1.83472 0.636526 0
M  V30 3266 C 310.627 -3.12128 1.52295 0
M  V30 3267 C 309.581 -3.35491 2.65762 0
M  V30 3268 C 308.907 -4.74291 2.46885 0
M  V30 3269 C 310.207 -3.26325 4.0781 0
M  V30 3270 H 311.901 -1.64543 2.50132 0
M  V30 3271 H 309.447 -0.790185 1.20383 0
M  V30 3272 H 311.4 -3.90404 1.58628 0
M  V30 3273 H 310.124 -3.2195 0.549139 0
M  V30 3274 H 308.783 -2.59603 2.58847 0
M  V30 3275 H 308.431 -4.80839 1.47657 0
M  V30 3276 H 308.131 -4.9088 3.22972 0
M  V30 3277 H 309.655 -5.54775 2.55063 0
M  V30 3278 H 311.069 -3.94483 4.16 0
M  V30 3279 H 309.466 -3.54445 4.8424 0
M  V30 3280 H 310.536 -2.23855 4.30136 0
M  V30 3281 N 311.879 -1.3236 -0.855495 0
M  V30 3282 C 312.809 -1.23833 -1.97958 0
M  V30 3283 C 313.79 -0.122361 -1.69659 0
M  V30 3284 O 314.975 -0.30939 -1.9172 0
M  V30 3285 C 312.105 -0.959772 -3.33775 0
M  V30 3286 C 311.059 -2.03689 -3.76424 0
M  V30 3287 C 310.385 -1.61075 -5.09862 0
M  V30 3288 C 311.685 -3.4518 -3.9198 0
M  V30 3289 H 313.379 -2.1788 -2.0535 0
M  V30 3290 H 310.925 -1.04891 -0.986605 0
M  V30 3291 H 312.878 -0.886678 -4.11966 0
M  V30 3292 H 311.602 0.0163404 -3.26596 0
M  V30 3293 H 310.261 -2.10012 -3.00484 0
M  V30 3294 H 309.909 -0.622107 -4.99138 0
M  V30 3295 H 309.609 -2.33143 -5.39368 0
M  V30 3296 H 311.133 -1.55201 -5.90546 0
M  V30 3297 H 312.547 -3.4145 -4.60526 0
M  V30 3298 H 310.944 -4.1559 -4.32903 0
M  V30 3299 H 312.014 -3.84903 -2.94919 0
M  V30 3300 N 313.357 1.07166 -1.15556 0
M  V30 3301 C 314.585 1.83514 -0.955519 0
M  V30 3302 C 315 1.82163 0.49621 0
M  V30 3303 O 314.357 1.23441 1.34419 0
M  V30 3304 C 314.408 3.30515 -1.46432 0
M  V30 3305 O 314.129 3.31937 -2.85918 0
M  V30 3306 C 315.63 4.23625 -1.30603 0
M  V30 3307 H 312.85 0.578926 -0.339244 0
M  V30 3308 H 315.394 1.35265 -1.53374 0
M  V30 3309 H 313.549 3.76106 -0.928584 0
M  V30 3310 H 313.963 4.23794 -3.09029 0
M  V30 3311 H 315.437 5.24831 -1.71047 0
M  V30 3312 H 315.914 4.38485 -0.250441 0
M  V30 3313 H 316.52 3.83871 -1.83094 0
M  V30 3314 N 314.835 0.952656 1.25548 0
M  V30 3315 C 316.063 0.623496 1.97282 0
M  V30 3316 C 316.478 -0.803987 1.70826 0
M  V30 3317 O 315.835 -1.53755 0.983147 0
M  V30 3318 C 315.886 0.870209 3.5087 0
M  V30 3319 O 315.607 2.24156 3.76412 0
M  V30 3320 C 317.108 0.553164 4.39835 0
M  V30 3321 H 314.328 0.233931 0.628902 0
M  V30 3322 H 316.872 1.27649 1.59768 0
M  V30 3323 H 315.027 0.263652 3.86502 0
M  V30 3324 H 315.441 2.31021 4.70882 0
M  V30 3325 H 316.915 0.776342 5.46513 0
M  V30 3326 H 317.392 -0.512215 4.36203 0
M  V30 3327 H 317.998 1.13896 4.09766 0
M  V30 3328 N 316.313 -1.40141 0.720998 0
M  V30 3329 C 317.243 -2.33339 0.0867621 0
M  V30 3330 C 318.224 -1.53178 -0.739622 0
M  V30 3331 O 319.409 -1.81625 -0.687449 0
M  V30 3332 C 316.539 -3.37194 -0.831728 0
M  V30 3333 C 315.493 -4.27857 -0.110558 0
M  V30 3334 C 314.819 -5.22294 -1.14513 0
M  V30 3335 C 316.119 -5.11872 1.0385 0
M  V30 3336 H 317.813 -2.86626 0.865219 0
M  V30 3337 H 315.359 -1.37814 0.417516 0
M  V30 3338 H 317.312 -4.01335 -1.28485 0
M  V30 3339 H 316.036 -2.82314 -1.64214 0
M  V30 3340 H 314.695 -3.65176 0.322797 0
M  V30 3341 H 314.343 -4.63717 -1.94874 0
M  V30 3342 H 314.043 -5.83797 -0.667446 0
M  V30 3343 H 315.567 -5.89312 -1.59824 0
M  V30 3344 H 316.981 -5.69436 0.664482 0
M  V30 3345 H 315.378 -5.82445 1.4449 0
M  V30 3346 H 316.448 -4.4753 1.86668 0
M  V30 3347 N 317.792 -0.46758 -1.50504 0
M  V30 3348 C 319.017 0.0886943 -2.0721 0
M  V30 3349 C 319.442 1.33057 -1.32956 0
M  V30 3350 O 318.8 1.77354 -0.376197 0
M  V30 3351 C 318.848 0.359202 -3.58806 0
M  V30 3352 O 317.952 1.44034 -3.8643 0
M  V30 3353 H 317.293 -0.0114349 -0.663902 0
M  V30 3354 H 319.823 -0.657613 -1.93744 0
M  V30 3355 H 319.833 0.600742 -4.03553 0
M  V30 3356 H 318.508 -0.548311 -4.1227 0
M  V30 3357 H 317.085 1.18638 -3.53524 0
M  V30 3358 N 319.27 1.56325 -0.20005 0
M  V30 3359 C 320.218 2.20666 0.735482 0
M  V30 3360 C 321.212 1.17934 1.21605 0
M  V30 3361 O 322.418 1.36068 1.17837 0
M  V30 3362 H 318.793 0.70725 0.255542 0
M  V30 3363 H 320.764 2.9792 0.169166 0
M  V30 3364 C 319.513 2.88391 1.94232 0
M  V30 3365 H 318.836 3.67185 1.58161 0
M  V30 3366 H 320.276 3.3684 2.57517 0
M  V30 3367 C 318.735 1.89692 2.78421 0
M  V30 3368 O 319.265 1.40032 3.76502 0
M  V30 3369 N 317.471 1.57813 2.44015 0
M  V30 3370 H 317.018 1.9839 1.64314 0
M  V30 3371 H 316.976 0.920325 3.00628 0
M  V30 3372 N 320.748 -0.0735177 1.57428 0
M  V30 3373 C 322.164 -0.428264 1.53747 0
M  V30 3374 C 322.364 -1.79272 0.91998 0
M  V30 3375 O 321.42 -2.47051 0.521745 0
M  V30 3376 C 322.733 -0.370914 2.98404 0
M  V30 3377 C 324.281 -0.451224 3.0973 0
M  V30 3378 C 324.756 -0.4238 4.56035 0
M  V30 3379 N 326.247 -0.483925 4.60665 0
M  V30 3380 C 326.982 -0.484891 5.71346 0
M  V30 3381 N 326.478 -0.440775 6.91396 0
M  V30 3382 N 328.271 -0.531319 5.59583 0
M  V30 3383 H 320.422 0.819949 1.95935 0
M  V30 3384 H 322.685 0.307493 0.896745 0
M  V30 3385 H 322.391 0.564956 3.47133 0
M  V30 3386 H 322.265 -1.18176 3.5821 0
M  V30 3387 H 324.652 -1.37752 2.60976 0
M  V30 3388 H 324.733 0.388167 2.52838 0
M  V30 3389 H 324.377 0.498638 5.05446 0
M  V30 3390 H 324.307 -1.2807 5.10789 0
M  V30 3391 H 326.798 -0.522338 3.74273 0
M  V30 3392 H 327.111 -0.44539 7.71515 0
M  V30 3393 H 325.456 -0.40749 6.93804 0
M  V30 3394 H 328.647 -0.563464 4.64696 0
M  V30 3395 H 328.82 -0.528603 6.4584 0
M  V30 3396 N 322.226 -1.5378 -0.344866 0
M  V30 3397 C 323.472 -1.71216 -1.08687 0
M  V30 3398 C 323.805 -0.473281 -1.88345 0
M  V30 3399 O 323.08 0.52968 -1.87149 0
M  V30 3400 C 323.363 -2.97486 -2.02914 0
M  V30 3401 C 323.216 -4.31579 -1.26727 0
M  V30 3402 C 324.535 -3.19422 -3.0275 0
M  V30 3403 H 321.654 -0.62301 -0.393735 0
M  V30 3404 H 324.296 -1.8645 -0.365563 0
M  V30 3405 H 322.446 -2.84629 -2.64421 0
M  V30 3406 H 324.118 -4.56284 -0.67845 0
M  V30 3407 H 322.361 -4.30049 -0.569273 0
M  V30 3408 H 323.032 -5.16106 -1.95803 0
M  V30 3409 H 325.508 -3.316 -2.51357 0
M  V30 3410 H 324.384 -4.09169 -3.65885 0
M  V30 3411 H 324.645 -2.35656 -3.74057 0
M  V30 3412 N 323.704 0.605807 -1.45491 0
M  V30 3413 C 324.944 1.37606 -1.51142 0
M  V30 3414 C 325.308 1.91413 -0.150075 0
M  V30 3415 O 326.509 2.68677 -0.0812828 0
M  V30 3416 C 324.78 2.49197 -2.56195 0
M  V30 3417 S 326.339 3.36953 -2.81083 0
M  V30 3418 H 323.157 0.469118 -0.534275 0
M  V30 3419 H 325.759 0.698845 -1.82583 0
M  V30 3420 H 324.463 2.0802 -3.53773 0
M  V30 3421 H 323.994 3.21717 -2.26411 0
M  V30 3422 H 326.009 4.47395 -2.14598 0
M  V30 3423 N 325.182 1.32811 0.848464 0
M  V30 3424 C 326.407 1.26882 1.6406 0
M  V30 3425 C 326.832 -0.15913 1.87426 0
M  V30 3426 O 326.19 -1.11258 1.43148 0
M  V30 3427 C 326.238 2.03997 2.97351 0
M  V30 3428 O 325.342 1.39201 3.88197 0
M  V30 3429 H 324.683 0.436982 0.499943 0
M  V30 3430 H 327.213 1.75224 1.0563 0
M  V30 3431 H 327.223 2.14403 3.47124 0
M  V30 3432 H 325.898 3.0783 2.79666 0
M  V30 3433 H 324.475 1.37381 3.46671 0
M  V30 3434 N 326.66 -1.06551 1.16123 0
M  V30 3435 C 327.592 -2.13908 0.823171 0
M  V30 3436 C 328.605 -1.61926 -0.16843 0
M  V30 3437 O 329.794 -1.78412 0.055962 0
M  V30 3438 C 326.894 -3.38283 0.204424 0
M  V30 3439 C 326.067 -4.19589 1.23548 0
M  V30 3440 C 325.126 -5.2233 0.637011 0
M  V30 3441 O 324.152 -5.54034 1.30516 0
M  V30 3442 N 325.354 -5.77621 -0.577474 0
M  V30 3443 H 328.119 -2.43508 1.74711 0
M  V30 3444 H 325.68 -1.2253 1.05821 0
M  V30 3445 H 327.672 -4.0416 -0.208909 0
M  V30 3446 H 326.242 -3.06329 -0.623012 0
M  V30 3447 H 325.462 -3.49406 1.82507 0
M  V30 3448 H 326.75 -4.70718 1.93137 0
M  V30 3449 H 326.148 -5.54125 -1.13853 0
M  V30 3450 H 324.705 -6.45087 -0.933053 0
M  V30 3451 N 328.138 -0.959301 -1.25041 0
M  V30 3452 C 329.368 -0.63303 -1.96663 0
M  V30 3453 C 329.776 0.800031 -1.71453 0
M  V30 3454 O 329.119 1.54736 -0.99008 0
M  V30 3455 C 329.181 -0.817523 -3.50081 0
M  V30 3456 C 328.845 -2.22863 -3.98975 0
M  V30 3457 C 329.842 -3.20569 -4.09306 0
M  V30 3458 C 327.527 -2.55407 -4.32519 0
M  V30 3459 C 329.521 -4.4891 -4.52503 0
M  V30 3460 C 327.208 -3.83976 -4.754 0
M  V30 3461 C 328.206 -4.8054 -4.85356 0
M  V30 3462 O 327.894 -6.06817 -5.27284 0
M  V30 3463 H 327.626 -0.235866 -0.633516 0
M  V30 3464 H 330.18 -1.2874 -1.60047 0
M  V30 3465 H 328.41 -0.105992 -3.86555 0
M  V30 3466 H 330.099 -0.491604 -4.02912 0
M  V30 3467 H 330.865 -2.96753 -3.83618 0
M  V30 3468 H 326.744 -1.8097 -4.23994 0
M  V30 3469 H 330.288 -5.24283 -4.60188 0
M  V30 3470 H 326.185 -4.07596 -5.00535 0
M  V30 3471 H 326.953 -6.10262 -5.45457 0
M  V30 3472 N 329.616 1.39756 -0.72842 0
M  V30 3473 C 330.579 2.29012 -0.0927297 0
M  V30 3474 C 331.579 1.45992 0.674025 0
M  V30 3475 O 332.769 1.66749 0.50402 0
M  V30 3476 C 329.901 3.29396 0.878137 0
M  V30 3477 H 331.094 2.86729 -0.879011 0
M  V30 3478 H 328.647 1.48293 -0.493847 0
M  V30 3479 H 329.382 2.76722 1.69101 0
M  V30 3480 H 329.167 3.907 0.331051 0
M  V30 3481 H 330.657 3.96199 1.3197 0
M  V30 3482 N 331.094 0.475555 1.50254 0
M  V30 3483 C 332.057 -0.305016 2.27161 0
M  V30 3484 C 333.057 -0.916519 1.32123 0
M  V30 3485 O 334.247 -0.785003 1.5551 0
M  V30 3486 C 331.379 -1.43496 3.09227 0
M  V30 3487 H 332.572 0.369511 2.97615 0
M  V30 3488 H 330.125 0.229747 1.54602 0
M  V30 3489 H 330.86 -2.14441 2.43281 0
M  V30 3490 H 330.645 -1.00223 3.79075 0
M  V30 3491 H 332.135 -1.98548 3.67381 0
M  V30 3492 N 332.573 -1.56217 0.208337 0
M  V30 3493 C 333.803 -2.02043 -0.431523 0
M  V30 3494 C 334.211 -1.08755 -1.54819 0
M  V30 3495 O 333.554 -0.0870009 -1.83494 0
M  V30 3496 C 333.616 -3.44239 -1.03633 0
M  V30 3497 C 333.28 -4.56965 -0.0567502 0
M  V30 3498 C 334.277 -5.14624 0.738773 0
M  V30 3499 C 331.962 -5.02266 0.0581736 0
M  V30 3500 C 333.956 -6.16045 1.63605 0
M  V30 3501 C 331.643 -6.03528 0.959001 0
M  V30 3502 C 332.641 -6.60293 1.7465 0
M  V30 3503 O 332.329 -7.59586 2.6322 0
M  V30 3504 H 332.061 -0.666772 -0.111313 0
M  V30 3505 H 334.615 -2.02919 0.318277 0
M  V30 3506 H 332.845 -3.40391 -1.83497 0
M  V30 3507 H 334.534 -3.73793 -1.58221 0
M  V30 3508 H 335.3 -4.80483 0.660364 0
M  V30 3509 H 331.179 -4.57771 -0.544633 0
M  V30 3510 H 334.723 -6.60279 2.25116 0
M  V30 3511 H 330.62 -6.37092 1.03848 0
M  V30 3512 H 331.388 -7.77057 2.57148 0
M  V30 3513 N 334.051 0.0651679 -1.57465 0
M  V30 3514 C 335.299 0.761555 -1.87202 0
M  V30 3515 C 335.62 1.77778 -0.801243 0
M  V30 3516 O 334.89 1.95166 0.16937 0
M  V30 3517 H 333.47 0.284251 -0.690804 0
M  V30 3518 H 336.132 0.0396827 -1.9486 0
M  V30 3519 H 335.228 1.27365 -2.84929 0
M  V30 3520 N 335.529 1.53961 0.336706 0
M  V30 3521 C 336.439 1.85432 1.43708 0
M  V30 3522 C 337.455 0.745053 1.57242 0
M  V30 3523 O 338.631 1.03804 1.72588 0
M  V30 3524 C 335.696 2.06349 2.78605 0
M  V30 3525 C 334.757 3.30191 2.74358 0
M  V30 3526 C 333.99 3.50101 4.02822 0
M  V30 3527 O 334.213 2.7371 5.00439 0
M  V30 3528 O 333.147 4.43547 4.06878 0
M  V30 3529 H 336.973 2.78975 1.20028 0
M  V30 3530 H 334.558 1.39701 0.52952 0
M  V30 3531 H 336.44 2.21513 3.58483 0
M  V30 3532 H 335.115 1.15995 3.02203 0
M  V30 3533 H 334.022 3.20425 1.93078 0
M  V30 3534 H 335.355 4.2056 2.55715 0
M  V30 3535 N 337.007 -0.598083 1.45811 0
M  V30 3536 C 337.954 -1.7082 1.55207 0
M  V30 3537 C 338.924 -1.61278 0.39732 0
M  V30 3538 O 340.109 -1.80717 0.612038 0
M  V30 3539 C 337.249 -3.09144 1.53376 0
M  V30 3540 C 336.362 -3.29423 2.79472 0
M  V30 3541 C 335.497 -4.57907 2.69248 0
M  V30 3542 C 334.536 -4.71476 3.90354 0
M  V30 3543 N 333.673 -5.9127 3.78608 0
M  V30 3544 H 338.513 -1.62125 2.50039 0
M  V30 3545 H 336.05 -0.790389 1.24062 0
M  V30 3546 H 338.008 -3.89186 1.50301 0
M  V30 3547 H 336.638 -3.16773 0.620876 0
M  V30 3548 H 335.69 -2.43091 2.92594 0
M  V30 3549 H 337.002 -3.3532 3.69272 0
M  V30 3550 H 336.156 -5.46157 2.64192 0
M  V30 3551 H 334.895 -4.54423 1.77063 0
M  V30 3552 H 333.9 -3.81648 3.95759 0
M  V30 3553 H 335.125 -4.76751 4.83617 0
M  V30 3554 H 333.071 -5.88813 2.89199 0
M  V30 3555 H 332.988 -5.98369 4.6205 0
M  V30 3556 H 334.256 -6.81992 3.77501 0
M  V30 3557 N 338.485 -1.33259 -0.841409 0
M  V30 3558 C 339.432 -1.23302 -1.95103 0
M  V30 3559 C 340.402 -0.112204 -1.65721 0
M  V30 3560 O 341.587 -0.290038 -1.88583 0
M  V30 3561 C 338.727 -0.975583 -3.31023 0
M  V30 3562 C 337.84 -2.18243 -3.72819 0
M  V30 3563 C 336.975 -1.85936 -4.97595 0
M  V30 3564 C 336.014 -3.02866 -5.3192 0
M  V30 3565 N 335.151 -2.70565 -6.47873 0
M  V30 3566 H 339.991 -2.18207 -2.02952 0
M  V30 3567 H 337.528 -1.0851 -0.993173 0
M  V30 3568 H 339.486 -0.80677 -4.09325 0
M  V30 3569 H 338.116 -0.0632755 -3.22738 0
M  V30 3570 H 337.168 -2.46107 -2.90061 0
M  V30 3571 H 338.48 -3.05666 -3.94169 0
M  V30 3572 H 337.634 -1.65684 -5.83638 0
M  V30 3573 H 336.373 -0.957452 -4.78209 0
M  V30 3574 H 335.378 -3.23736 -4.44382 0
M  V30 3575 H 336.603 -3.93809 -5.53255 0
M  V30 3576 H 334.549 -1.8293 -6.29978 0
M  V30 3577 H 334.466 -3.51519 -6.69306 0
M  V30 3578 H 335.734 -2.53774 -7.37034 0
M  V30 3579 N 339.963 1.05934 -1.16686 0
M  V30 3580 C 341.188 1.83029 -0.975455 0
M  V30 3581 C 341.613 1.82096 0.471452 0
M  V30 3582 O 340.971 1.22443 1.33706 0
M  V30 3583 C 341.019 3.27372 -1.51195 0
M  V30 3584 O 340.123 4.06054 -0.720701 0
M  V30 3585 H 339.464 0.566194 -0.346872 0
M  V30 3586 H 341.994 1.33541 -1.55009 0
M  V30 3587 H 342.004 3.78186 -1.53099 0
M  V30 3588 H 340.679 3.27366 -2.56523 0
M  V30 3589 H 339.256 3.64812 -0.772458 0
M  V30 3590 N 341.441 0.965919 1.2453 0
M  V30 3591 C 342.857 0.67216 1.44756 0
M  V30 3592 C 343.057 -0.766609 1.86347 0
M  V30 3593 O 342.113 -1.5407 2.00047 0
M  V30 3594 C 343.426 1.65473 2.51076 0
M  V30 3595 C 344.974 1.66716 2.64905 0
M  V30 3596 C 345.449 2.63766 3.74421 0
M  V30 3597 N 346.94 2.62198 3.81846 0
M  V30 3598 C 347.675 3.33966 4.66106 0
M  V30 3599 N 347.171 4.15245 5.54566 0
M  V30 3600 N 348.964 3.22799 4.60171 0
M  V30 3601 H 341.115 1.89553 0.958293 0
M  V30 3602 H 343.378 0.815979 0.482579 0
M  V30 3603 H 343.084 2.68296 2.27399 0
M  V30 3604 H 342.958 1.4261 3.49202 0
M  V30 3605 H 345.345 0.646057 2.87941 0
M  V30 3606 H 345.426 1.93642 1.67142 0
M  V30 3607 H 345.07 3.6601 3.52135 0
M  V30 3608 H 345 2.34121 4.71694 0
M  V30 3609 H 347.491 2.032 3.18619 0
M  V30 3610 H 347.804 4.66898 6.15814 0
M  V30 3611 H 346.149 4.1934 5.54237 0
M  V30 3612 H 349.34 2.58764 3.90075 0
M  V30 3613 H 349.513 3.78994 5.25612 0
M  V30 3614 N 342.919 -1.39368 0.735821 0
M  V30 3615 C 343.849 -2.33234 0.111506 0
M  V30 3616 C 344.83 -1.53954 -0.723334 0
M  V30 3617 O 346.015 -1.82344 -0.668147 0
M  V30 3618 C 343.145 -3.38057 -0.795917 0
M  V30 3619 C 342.099 -4.2795 -0.065172 0
M  V30 3620 C 341.425 -5.23479 -1.08967 0
M  V30 3621 C 342.725 -5.10741 1.09273 0
M  V30 3622 H 344.419 -2.85692 0.895571 0
M  V30 3623 H 341.965 -1.37364 0.432109 0
M  V30 3624 H 343.918 -4.02675 -1.24221 0
M  V30 3625 H 342.642 -2.8404 -1.61211 0
M  V30 3626 H 341.301 -3.64813 0.361511 0
M  V30 3627 H 340.949 -4.65758 -1.89944 0
M  V30 3628 H 340.649 -5.84472 -0.605489 0
M  V30 3629 H 342.173 -5.90974 -1.53565 0
M  V30 3630 H 343.587 -5.68699 0.724841 0
M  V30 3631 H 341.984 -5.8088 1.50659 0
M  V30 3632 H 343.054 -4.45525 1.91404 0
M  V30 3633 N 344.397 -0.483516 -1.5 0
M  V30 3634 C 345.622 0.0667119 -2.07293 0
M  V30 3635 C 346.047 1.3164 -1.3436 0
M  V30 3636 O 345.405 1.76945 -0.394987 0
M  V30 3637 C 345.453 0.321126 -3.59167 0
M  V30 3638 O 344.557 1.39927 -3.87936 0
M  V30 3639 H 343.898 -0.0184758 -0.663743 0
M  V30 3640 H 346.428 -0.678125 -1.93035 0
M  V30 3641 H 346.438 0.557906 -4.04168 0
M  V30 3642 H 345.113 -0.592007 -4.11665 0
M  V30 3643 H 343.69 1.14882 -3.54763 0
M  V30 3644 N 345.875 1.56104 -0.216619 0
M  V30 3645 C 346.823 2.21434 0.712036 0
M  V30 3646 C 347.817 1.19218 1.20348 0
M  V30 3647 O 349.023 1.3731 1.16387 0
M  V30 3648 H 345.398 0.70992 0.248026 0
M  V30 3649 H 347.369 2.98083 0.137558 0
M  V30 3650 C 346.118 2.90434 1.91163 0
M  V30 3651 H 345.441 3.68842 1.54258 0
M  V30 3652 H 346.881 3.39552 2.5393 0
M  V30 3653 C 345.34 1.92635 2.76394 0
M  V30 3654 O 345.87 1.44017 3.74996 0
M  V30 3655 N 344.076 1.60392 2.42328 0
M  V30 3656 H 343.623 2.00122 1.622 0
M  V30 3657 H 343.581 0.952159 2.99635 0
M  V30 3658 N 347.353 -0.0568162 1.57498 0
M  V30 3659 C 348.283 -1.06593 2.0775 0
M  V30 3660 C 349.264 -1.39448 0.974082 0
M  V30 3661 O 350.449 -1.48815 1.24771 0
M  V30 3662 C 347.579 -2.37509 2.5339 0
M  V30 3663 C 346.533 -2.1897 3.67745 0
M  V30 3664 C 345.859 -3.55402 3.99492 0
M  V30 3665 C 347.159 -1.59859 4.97235 0
M  V30 3666 H 348.853 -0.647706 2.9231 0
M  V30 3667 H 346.399 -0.310116 1.40621 0
M  V30 3668 H 348.352 -3.08409 2.87162 0
M  V30 3669 H 347.076 -2.8134 1.65878 0
M  V30 3670 H 345.735 -1.50508 3.3428 0
M  V30 3671 H 345.383 -3.9683 3.09088 0
M  V30 3672 H 345.083 -3.43831 4.76502 0
M  V30 3673 H 346.607 -4.27708 4.35773 0
M  V30 3674 H 348.021 -2.20642 5.29141 0
M  V30 3675 H 346.418 -1.58942 5.78669 0
M  V30 3676 H 347.488 -0.561506 4.81638 0
M  V30 3677 N 348.832 -1.54138 -0.328536 0
M  V30 3678 C 350.081 -1.71318 -1.06456 0
M  V30 3679 C 350.394 -0.491109 -1.89334 0
M  V30 3680 O 351.6 -0.54416 -2.65991 0
M  V30 3681 C 350.056 -3.03 -1.94214 0
M  V30 3682 C 349.664 -4.32595 -1.16471 0
M  V30 3683 C 351.408 -3.29544 -2.67583 0
M  V30 3684 C 349.315 -5.55341 -2.03347 0
M  V30 3685 H 348.245 -0.638429 -0.401155 0
M  V30 3686 H 350.896 -1.80633 -0.323106 0
M  V30 3687 H 349.278 -2.87579 -2.72239 0
M  V30 3688 H 350.452 -4.58766 -0.432525 0
M  V30 3689 H 348.767 -4.12777 -0.548063 0
M  V30 3690 H 351.364 -4.18444 -3.3288 0
M  V30 3691 H 351.707 -2.47206 -3.34955 0
M  V30 3692 H 352.24 -3.45809 -1.96623 0
M  V30 3693 H 348.979 -6.40268 -1.40491 0
M  V30 3694 H 348.499 -5.33397 -2.74313 0
M  V30 3695 H 350.178 -5.91557 -2.62049 0
M  V30 3696 N 350.31 0.590341 -1.46126 0
M  V30 3697 C 351.257 1.69994 -1.56111 0
M  V30 3698 C 352.227 1.61065 -0.405867 0
M  V30 3699 O 353.412 1.8039 -0.621613 0
M  V30 3700 C 350.552 3.08326 -1.55013 0
M  V30 3701 C 349.665 3.27936 -2.81215 0
M  V30 3702 C 348.8 4.56473 -2.71673 0
M  V30 3703 C 347.839 4.694 -3.92849 0
M  V30 3704 N 346.976 5.89254 -3.81738 0
M  V30 3705 H 351.816 1.60797 -2.50895 0
M  V30 3706 H 349.353 0.783799 -1.24479 0
M  V30 3707 H 351.311 3.88383 -1.52362 0
M  V30 3708 H 349.941 3.16439 -0.637667 0
M  V30 3709 H 348.993 2.41536 -2.93879 0
M  V30 3710 H 350.305 3.33357 -3.71045 0
M  V30 3711 H 349.459 5.44748 -2.67085 0
M  V30 3712 H 348.198 4.53477 -1.7947 0
M  V30 3713 H 347.203 3.79544 -3.97777 0
M  V30 3714 H 348.428 4.7418 -4.86138 0
M  V30 3715 H 346.374 5.87271 -2.92317 0
M  V30 3716 H 346.291 5.95911 -4.65217 0
M  V30 3717 H 347.559 6.79981 -3.81112 0
M  V30 3718 N 351.788 1.33704 0.83433 0
M  V30 3719 C 352.718 1.26967 1.95963 0
M  V30 3720 C 353.699 0.149337 1.69443 0
M  V30 3721 O 354.884 0.339852 1.91203 0
M  V30 3722 C 352.014 1.01275 3.32206 0
M  V30 3723 C 350.968 2.09652 3.73136 0
M  V30 3724 C 350.294 1.69166 5.07235 0
M  V30 3725 C 351.594 3.51372 3.86439 0
M  V30 3726 H 353.288 2.2112 2.01857 0
M  V30 3727 H 350.834 1.06447 0.969793 0
M  V30 3728 H 352.787 0.952106 4.10503 0
M  V30 3729 H 351.511 0.0356203 3.26581 0
M  V30 3730 H 350.17 2.14766 2.97104 0
M  V30 3731 H 349.818 0.701437 4.98085 0
M  V30 3732 H 349.518 2.41694 5.35591 0
M  V30 3733 H 351.042 1.64576 5.88003 0
M  V30 3734 H 352.456 3.48734 4.55036 0
M  V30 3735 H 350.853 4.22425 4.26236 0
M  V30 3736 H 351.923 3.89546 2.88759 0
M  V30 3737 N 353.266 -1.05314 1.17247 0
M  V30 3738 C 354.229 -2.112 0.890357 0
M  V30 3739 C 355.229 -1.60359 -0.118943 0
M  V30 3740 O 356.419 -1.73833 0.113086 0
M  V30 3741 C 353.551 -3.39266 0.333422 0
M  V30 3742 H 354.744 -2.37659 1.82916 0
M  V30 3743 H 352.297 -1.21538 0.982758 0
M  V30 3744 H 353.032 -3.18462 -0.612587 0
M  V30 3745 H 352.817 -3.77477 1.06082 0
M  V30 3746 H 354.307 -4.17315 0.154322 0
M  V30 3747 N 354.744 -0.972509 -1.24016 0
M  V30 3748 C 355.676 -0.464375 -2.24446 0
M  V30 3749 C 356.689 0.4295 -1.57032 0
M  V30 3750 O 357.878 0.234902 -1.76948 0
M  V30 3751 C 354.978 0.348385 -3.37105 0
M  V30 3752 C 354.151 -0.53673 -4.34094 0
M  V30 3753 C 353.21 0.220838 -5.25736 0
M  V30 3754 O 352.236 -0.386867 -5.67884 0
M  V30 3755 N 353.438 1.50907 -5.60542 0
M  V30 3756 H 356.203 -1.32788 -2.68677 0
M  V30 3757 H 353.764 -0.844877 -1.38107 0
M  V30 3758 H 355.756 0.863341 -3.95384 0
M  V30 3759 H 354.326 1.11285 -2.92121 0
M  V30 3760 H 353.546 -1.23261 -3.74433 0
M  V30 3761 H 354.834 -1.14022 -4.95859 0
M  V30 3762 H 354.232 2.02444 -5.28236 0
M  V30 3763 H 352.789 1.96962 -6.21329 0
M  V30 3764 N 356.222 1.38976 -0.743202 0
M  V30 3765 C 357.169 2.30544 -0.10861 0
M  V30 3766 C 358.139 1.49642 0.720869 0
M  V30 3767 O 359.324 1.78304 0.679142 0
M  V30 3768 C 356.464 3.36018 0.786496 0
M  V30 3769 C 355.577 4.31963 -0.0564849 0
M  V30 3770 C 354.712 5.24506 0.840657 0
M  V30 3771 C 353.751 6.121 -0.00658363 0
M  V30 3772 N 352.888 6.96973 0.846943 0
M  V30 3773 H 357.728 2.8424 -0.895088 0
M  V30 3774 H 355.265 1.3995 -0.453048 0
M  V30 3775 H 357.223 3.95768 1.31999 0
M  V30 3776 H 355.853 2.83758 1.53887 0
M  V30 3777 H 354.905 3.73763 -0.707492 0
M  V30 3778 H 356.217 4.93703 -0.711229 0
M  V30 3779 H 355.371 5.89322 1.4417 0
M  V30 3780 H 354.11 4.63107 1.52916 0
M  V30 3781 H 353.115 5.46289 -0.620366 0
M  V30 3782 H 354.34 6.75565 -0.691992 0
M  V30 3783 H 352.286 6.38133 1.52059 0
M  V30 3784 H 352.203 7.5559 0.248864 0
M  V30 3785 H 353.471 7.6621 1.43328 0
M  V30 3786 N 357.7 0.491464 1.49741 0
M  V30 3787 C 358.946 -0.0565092 2.02721 0
M  V30 3788 C 359.279 -1.37522 1.37118 0
M  V30 3789 O 358.554 -1.87866 0.503645 0
M  V30 3790 C 358.837 -0.219051 3.59433 0
M  V30 3791 C 358.69 1.12211 4.35579 0
M  V30 3792 C 360.009 -0.964157 4.29409 0
M  V30 3793 H 357.128 -0.0190627 0.736753 0
M  V30 3794 H 359.77 0.641021 1.7886 0
M  V30 3795 H 357.92 -0.813165 3.79895 0
M  V30 3796 H 359.592 1.75437 4.26637 0
M  V30 3797 H 357.835 1.71377 3.98513 0
M  V30 3798 H 358.506 0.961794 5.43556 0
M  V30 3799 H 360.982 -0.460378 4.13545 0
M  V30 3800 H 359.858 -1.04671 5.38828 0
M  V30 3801 H 360.119 -2.00563 3.93988 0
M  V30 3802 N 359.178 -1.55987 0.224894 0
M  V30 3803 C 360.589 -1.84553 -0.282345 0
M  V30 3804 C 360.94 -1.14634 -1.59227 0
M  V30 3805 O 360.065 -0.417155 -2.12341 0
M  V30 3806 C 360.66 -3.348 -0.519062 0
M  V30 3807 C 359.219 -3.63671 -0.970604 0
M  V30 3808 C 358.366 -2.77277 -0.0355261 0
M  V30 3809 H 361.317 -1.52245 0.448006 0
M  V30 3810 H 361.338 -3.55187 -1.36463 0
M  V30 3811 H 360.85 -3.8566 0.43449 0
M  V30 3812 H 358.951 -3.1827 -1.9374 0
M  V30 3813 H 359.064 -4.71631 -0.842698 0
M  V30 3814 H 357.428 -2.48846 -0.542927 0
M  V30 3815 H 358.211 -3.30937 0.913003 0
M  V30 3816 N 360.656 0.0484629 -1.57525 0
M  V30 3817 C 361.884 0.755421 -1.92616 0
M  V30 3818 C 362.299 1.69919 -0.822984 0
M  V30 3819 O 361.656 1.81378 0.202085 0
M  V30 3820 C 361.707 1.52915 -3.27566 0
M  V30 3821 O 361.428 0.62329 -4.33644 0
M  V30 3822 C 362.929 2.33502 -3.76818 0
M  V30 3823 H 360.149 0.213465 -0.63614 0
M  V30 3824 H 362.693 0.0117698 -2.04497 0
M  V30 3825 H 360.848 2.22486 -3.17142 0
M  V30 3826 H 361.262 1.16383 -5.11425 0
M  V30 3827 H 362.736 2.83214 -4.73808 0
M  V30 3828 H 363.213 3.14068 -3.07014 0
M  V30 3829 H 363.819 1.69043 -3.90262 0
M  V30 3830 N 362.134 1.5431 0.320358 0
M  V30 3831 C 363.097 1.83195 1.3774 0
M  V30 3832 C 364.097 0.703906 1.44575 0
M  V30 3833 O 365.287 0.972214 1.44546 0
M  V30 3834 C 362.419 1.99487 2.76438 0
M  V30 3835 H 363.612 2.77642 1.1338 0
M  V30 3836 H 361.165 1.46076 0.556012 0
M  V30 3837 H 361.9 1.07262 3.06048 0
M  V30 3838 H 361.685 2.81575 2.7287 0
M  V30 3839 H 363.175 2.23271 3.52902 0
M  V30 3840 N 363.613 -0.582584 1.46437 0
M  V30 3841 C 364.89 -1.34276 1.4223 0
M  V30 3842 C 365.27 -2.10835 0.10583 0
M  V30 3843 O 364.618 -2.09485 -0.912596 0
M  V30 3844 C 364.828 -2.26865 2.65204 0
M  V30 3845 C 366.176 -2.88691 3.11356 0
M  V30 3846 O 367.2 -2.37178 2.65753 0
M  V30 3847 O 366.059 -3.82255 3.90568 0
M  V30 3848 H 363.153 -0.603326 0.565621 0
M  V30 3849 H 365.699 -0.603591 1.58603 0
M  V30 3850 H 364.471 -1.69724 3.52576 0
M  V30 3851 H 364.094 -3.08122 2.5129 0
M  V30 3852 N 365.091 -1.34144 -0.827227 0
M  V30 3853 C 366.021 -1.28005 -1.95287 0
M  V30 3854 C 367.002 -0.158321 -1.69362 0
M  V30 3855 O 368.187 -0.349987 -1.9102 0
M  V30 3856 C 365.317 -1.03036 -3.31664 0
M  V30 3857 C 364.271 -2.11628 -3.72019 0
M  V30 3858 C 363.597 -1.71854 -5.0633 0
M  V30 3859 C 364.897 -3.53417 -3.8457 0
M  V30 3860 H 366.591 -2.22187 -2.00682 0
M  V30 3861 H 364.137 -1.0696 -0.964135 0
M  V30 3862 H 366.09 -0.973863 -4.09993 0
M  V30 3863 H 364.814 -0.0529391 -3.26557 0
M  V30 3864 H 363.473 -2.16339 -2.95961 0
M  V30 3865 H 363.121 -0.727841 -4.97706 0
M  V30 3866 H 362.821 -2.44531 -5.34302 0
M  V30 3867 H 364.345 -1.67692 -5.87122 0
M  V30 3868 H 365.759 -3.51142 -4.5318 0
M  V30 3869 H 364.156 -4.24679 -4.2399 0
M  V30 3870 H 365.226 -3.91072 -2.86689 0
M  V30 3871 N 366.569 1.04691 -1.17803 0
M  V30 3872 C 367.479 2.16057 -0.914151 0
M  V30 3873 C 368.495 1.73589 0.119503 0
M  V30 3874 O 369.671 2.01308 -0.0609468 0
M  V30 3875 C 366.736 3.4394 -0.436603 0
M  V30 3876 C 365.797 4.00825 -1.53746 0
M  V30 3877 C 365.03 5.22604 -1.0826 0
M  V30 3878 O 365.253 5.70367 0.0612244 0
M  V30 3879 O 364.187 5.7186 -1.87775 0
M  V30 3880 H 368.013 2.41169 -1.84584 0
M  V30 3881 H 365.598 1.1453 -0.959334 0
M  V30 3882 H 367.48 4.21024 -0.178057 0
M  V30 3883 H 366.155 3.20316 0.466869 0
M  V30 3884 H 365.062 3.25158 -1.84995 0
M  V30 3885 H 366.395 4.28778 -2.41683 0
M  V30 3886 N 368.047 0.979072 1.23499 0
M  V30 3887 C 369.324 0.563674 1.87302 0
M  V30 3888 C 369.704 -0.959199 1.88049 0
M  V30 3889 O 369.052 -1.83535 1.36114 0
M  V30 3890 C 369.262 1.16822 3.28867 0
M  V30 3891 C 370.61 1.26014 4.0547 0
M  V30 3892 O 371.634 1.12158 3.38082 0
M  V30 3893 O 370.493 1.48044 5.26066 0
M  V30 3894 H 367.587 0.189602 0.804972 0
M  V30 3895 H 370.133 1.07407 1.31384 0
M  V30 3896 H 368.905 2.21049 3.22883 0
M  V30 3897 H 368.528 0.642564 3.92373 0
M  V30 3898 N 369.525 -1.3858 0.750561 0
M  V30 3899 C 370.771 -2.00481 0.305825 0
M  V30 3900 C 371.104 -1.5944 -1.10872 0
M  V30 3901 O 370.379 -0.83052 -1.75877 0
M  V30 3902 C 370.662 -3.5758 0.425287 0
M  V30 3903 C 370.515 -4.08594 1.88072 0
M  V30 3904 C 371.834 -4.39719 -0.183122 0
M  V30 3905 H 368.953 -0.728348 0.112598 0
M  V30 3906 H 371.595 -1.64566 0.949638 0
M  V30 3907 H 369.745 -3.88306 -0.122828 0
M  V30 3908 H 371.417 -3.88523 2.48691 0
M  V30 3909 H 369.66 -3.61574 2.39681 0
M  V30 3910 H 370.331 -5.177 1.91548 0
M  V30 3911 H 372.807 -4.15128 0.284303 0
M  V30 3912 H 371.683 -5.48856 -0.0692757 0
M  V30 3913 H 371.944 -4.23434 -1.27106 0
M  V30 3914 N 371.003 -0.499398 -1.49478 0
M  V30 3915 C 371.933 0.269244 -2.31943 0
M  V30 3916 C 372.914 0.964054 -1.40143 0
M  V30 3917 O 374.099 0.955767 -1.69052 0
M  V30 3918 C 371.229 1.33504 -3.20615 0
M  V30 3919 C 370.183 0.760202 -4.21195 0
M  V30 3920 C 369.509 1.9264 -4.98792 0
M  V30 3921 C 370.809 -0.247661 -5.21712 0
M  V30 3922 H 372.503 -0.419082 -2.96452 0
M  V30 3923 H 370.049 -0.202988 -1.42562 0
M  V30 3924 H 372.002 1.88048 -3.77115 0
M  V30 3925 H 370.726 2.05253 -2.54045 0
M  V30 3926 H 369.385 0.23653 -3.65836 0
M  V30 3927 H 369.033 2.63154 -4.28671 0
M  V30 3928 H 368.733 1.54785 -5.66847 0
M  V30 3929 H 370.257 2.4762 -5.58137 0
M  V30 3930 H 371.671 0.209579 -5.72917 0
M  V30 3931 H 370.068 -0.541962 -5.97648 0
M  V30 3932 H 371.138 -1.16409 -4.7072 0
M  V30 3933 N 372.481 1.55866 -0.233164 0
M  V30 3934 C 373.892 1.847 0.272554 0
M  V30 3935 C 374.243 1.15477 1.58617 0
M  V30 3936 O 373.368 0.42841 2.12117 0
M  V30 3937 C 373.963 3.35071 0.501299 0
M  V30 3938 C 372.522 3.6418 0.951304 0
M  V30 3939 C 371.669 2.77292 0.0208209 0
M  V30 3940 H 374.62 1.52005 -0.456074 0
M  V30 3941 H 374.641 3.55906 1.34577 0
M  V30 3942 H 374.153 3.85424 -0.454936 0
M  V30 3943 H 372.254 3.19293 1.92049 0
M  V30 3944 H 372.367 4.72071 0.817675 0
M  V30 3945 H 370.731 2.49131 0.529723 0
M  V30 3946 H 371.514 3.30448 -0.93054 0
M  V30 3947 N 373.959 -0.0401083 1.57549 0
M  V30 3948 C 374.889 -1.04384 2.08869 0
M  V30 3949 C 375.87 -1.38407 0.988817 0
M  V30 3950 O 377.055 -1.47483 1.26342 0
M  V30 3951 C 374.185 -2.34808 2.55895 0
M  V30 3952 C 373.139 -2.15057 3.70047 0
M  V30 3953 C 372.465 -3.51145 4.03239 0
M  V30 3954 C 373.765 -1.54576 4.98902 0
M  V30 3955 H 375.459 -0.616666 2.92981 0
M  V30 3956 H 373.005 -0.295184 1.40942 0
M  V30 3957 H 374.958 -3.05346 2.90417 0
M  V30 3958 H 373.682 -2.79565 1.68853 0
M  V30 3959 H 372.341 -1.46954 3.35857 0
M  V30 3960 H 371.989 -3.93529 3.13279 0
M  V30 3961 H 371.689 -3.38758 4.80122 0
M  V30 3962 H 373.213 -4.23062 4.40285 0
M  V30 3963 H 374.627 -2.15017 5.31451 0
M  V30 3964 H 373.024 -1.52796 5.80322 0
M  V30 3965 H 374.094 -0.51039 4.82206 0
M  V30 3966 N 375.437 -1.54477 -0.31217 0
M  V30 3967 C 376.4 -1.83923 -1.36766 0
M  V30 3968 C 377.4 -0.711563 -1.44199 0
M  V30 3969 O 378.59 -0.979866 -1.44029 0
M  V30 3970 C 375.722 -2.0095 -2.75376 0
M  V30 3971 H 376.915 -2.78239 -1.11906 0
M  V30 3972 H 374.468 -1.46369 -0.548257 0
M  V30 3973 H 375.203 -1.08883 -3.05475 0
M  V30 3974 H 374.988 -2.83018 -2.71373 0
M  V30 3975 H 376.478 -2.2514 -3.51713 0
M  V30 3976 N 376.915 0.57481 -1.46744 0
M  V30 3977 C 377.825 1.711 -1.60505 0
M  V30 3978 C 378.841 1.67008 -0.488307 0
M  V30 3979 O 380.017 1.86774 -0.753495 0
M  V30 3980 C 377.082 3.07608 -1.59932 0
M  V30 3981 C 376.143 3.22904 -2.82898 0
M  V30 3982 C 375.376 4.529 -2.82343 0
M  V30 3983 O 375.599 5.37278 -1.91542 0
M  V30 3984 O 374.533 4.71611 -3.73987 0
M  V30 3985 H 378.359 1.62436 -2.56609 0
M  V30 3986 H 375.944 0.742779 -1.29627 0
M  V30 3987 H 377.826 3.88877 -1.62336 0
M  V30 3988 H 376.501 3.16692 -0.669898 0
M  V30 3989 H 375.408 2.41099 -2.86046 0
M  V30 3990 H 376.741 3.18715 -3.75076 0
M  V30 3991 N 378.394 1.34581 0.820102 0
M  V30 3992 C 379.671 1.17675 1.56244 0
M  V30 3993 C 380.051 -0.249541 2.0962 0
M  V30 3994 O 379.399 -1.25125 1.91196 0
M  V30 3995 C 379.609 2.23364 2.6816 0
M  V30 3996 C 380.957 2.58485 3.36854 0
M  V30 3997 O 381.981 2.22175 2.78418 0
M  V30 3998 O 380.84 3.20868 4.42386 0
M  V30 3999 H 377.934 0.456333 0.689702 0
M  V30 4000 H 380.48 1.46222 0.861231 0
M  V30 4001 H 379.252 3.19087 2.26493 0
M  V30 4002 H 378.875 1.96009 3.45928 0
M  V30 4003 N 379.872 -1.04064 1.18357 0
M  V30 4004 C 381.121 -1.76662 0.973313 0
M  V30 4005 C 381.434 -1.89154 -0.497991 0
M  V30 4006 O 382.64 -2.58606 -0.826762 0
M  V30 4007 C 381.096 -3.17624 1.69242 0
M  V30 4008 C 380.704 -3.13225 3.20303 0
M  V30 4009 C 382.448 -3.946 1.56497 0
M  V30 4010 C 380.355 -4.49046 3.84853 0
M  V30 4011 H 379.285 -0.662214 0.36054 0
M  V30 4012 H 381.936 -1.16553 1.41731 0
M  V30 4013 H 380.318 -3.78129 1.1762 0
M  V30 4014 H 381.492 -2.62172 3.78949 0
M  V30 4015 H 379.807 -2.49749 3.33189 0
M  V30 4016 H 382.404 -4.95042 2.02084 0
M  V30 4017 H 382.747 -4.13074 0.517243 0
M  V30 4018 H 383.28 -3.4067 2.05399 0
M  V30 4019 H 380.019 -4.35777 4.89672 0
M  V30 4020 H 379.539 -5.00203 3.30994 0
M  V30 4021 H 381.218 -5.17961 3.87718 0
M  V30 4022 N 381.35 -0.985608 -1.22978 0
M  V30 4023 C 382.578 -0.675582 -1.95559 0
M  V30 4024 C 382.993 0.758413 -1.72897 0
M  V30 4025 O 382.35 1.51094 -1.02357 0
M  V30 4026 C 382.401 -0.96293 -3.48439 0
M  V30 4027 O 382.122 -2.34057 -3.70336 0
M  V30 4028 C 383.623 -0.669585 -4.38214 0
M  V30 4029 H 380.843 -0.250523 -0.622478 0
M  V30 4030 H 383.387 -1.3184 -1.56328 0
M  V30 4031 H 381.542 -0.366033 -3.85667 0
M  V30 4032 H 381.956 -2.43424 -4.64591 0
M  V30 4033 H 383.43 -0.920967 -5.44263 0
M  V30 4034 H 383.907 0.396383 -4.37408 0
M  V30 4035 H 384.513 -1.2472 -4.06602 0
M  V30 4036 N 382.828 1.3818 -0.7579 0
M  V30 4037 C 383.776 2.32277 -0.122482 0
M  V30 4038 C 384.77 1.54238 0.700505 0
M  V30 4039 O 385.976 1.69737 0.599119 0
M  V30 4040 H 382.351 0.751712 -0.0208143 0
M  V30 4041 H 384.322 2.83469 -0.932099 0
M  V30 4042 C 383.071 3.39447 0.753076 0
M  V30 4043 H 382.394 3.99591 0.129184 0
M  V30 4044 H 383.834 4.07684 1.16489 0
M  V30 4045 C 382.293 2.78375 1.8976 0
M  V30 4046 O 382.823 2.68025 2.99208 0
M  V30 4047 N 381.029 2.36121 1.69397 0
M  V30 4048 H 380.576 2.4474 0.803762 0
M  V30 4049 H 380.534 1.95602 2.46145 0
M  V30 4050 N 384.306 0.507319 1.49211 0
M  V30 4051 C 385.555 -0.0368315 2.01666 0
M  V30 4052 C 385.868 -1.37459 1.39156 0
M  V30 4053 O 387.074 -2.00579 1.82976 0
M  V30 4054 C 385.53 -0.116089 3.59713 0
M  V30 4055 C 385.138 1.2154 4.31198 0
M  V30 4056 C 386.882 -0.610268 4.2009 0
M  V30 4057 C 384.789 1.09796 5.81119 0
M  V30 4058 H 383.719 -0.0175376 0.753796 0
M  V30 4059 H 386.37 0.647691 1.71689 0
M  V30 4060 H 384.752 -0.8652 3.86433 0
M  V30 4061 H 385.926 1.9783 4.16173 0
M  V30 4062 H 384.241 1.64352 3.82593 0
M  V30 4063 H 386.838 -0.715742 5.29888 0
M  V30 4064 H 387.181 -1.61064 3.8388 0
M  V30 4065 H 387.714 0.0824916 3.97714 0
M  V30 4066 H 384.453 2.0728 6.21864 0
M  V30 4067 H 383.973 0.376058 5.9862 0
M  V30 4068 H 385.652 0.779281 6.4229 0
M  V30 4069 N 385.784 -1.5574 0.241426 0
M  V30 4070 C 386.714 -2.24133 -0.654722 0
M  V30 4071 C 387.695 -1.21974 -1.1856 0
M  V30 4072 O 388.88 -1.50612 -1.22595 0
M  V30 4073 C 386.01 -2.93659 -1.85423 0
M  V30 4074 C 384.964 -4.0246 -1.45636 0
M  V30 4075 C 384.29 -4.59383 -2.73626 0
M  V30 4076 C 385.59 -5.18468 -0.631506 0
M  V30 4077 H 387.284 -2.99281 -0.0844353 0
M  V30 4078 H 384.83 -1.43947 -0.0391707 0
M  V30 4079 H 386.783 -3.40203 -2.48676 0
M  V30 4080 H 385.507 -2.15991 -2.44981 0
M  V30 4081 H 384.166 -3.56676 -0.847202 0
M  V30 4082 H 383.814 -3.78422 -3.3137 0
M  V30 4083 H 383.514 -5.32826 -2.4773 0
M  V30 4084 H 385.038 -5.08658 -3.37786 0
M  V30 4085 H 386.452 -5.61272 -1.1682 0
M  V30 4086 H 384.849 -5.98266 -0.468831 0
M  V30 4087 H 385.919 -4.8358 0.357506 0
M  V30 4088 N 387.262 0.0317525 -1.57568 0
M  V30 4089 C 388.487 0.738664 -1.938 0
M  V30 4090 C 388.912 1.68242 -0.841208 0
M  V30 4091 O 388.27 1.80157 0.203267 0
M  V30 4092 C 388.318 1.47417 -3.29091 0
M  V30 4093 O 387.422 2.5872 -3.2115 0
M  V30 4094 H 386.763 0.198856 -0.633524 0
M  V30 4095 H 389.293 -0.0119713 -2.04596 0
M  V30 4096 H 389.303 1.84468 -3.63917 0
M  V30 4097 H 387.978 0.781988 -4.08482 0
M  V30 4098 H 386.555 2.24231 -2.97951 0
M  V30 4099 N 388.74 1.54641 0.303973 0
M  V30 4100 C 389.687 1.85386 1.37479 0
M  V30 4101 C 390.657 0.702528 1.50512 0
M  V30 4102 O 391.842 0.950867 1.65418 0
M  V30 4103 C 388.982 2.10413 2.73533 0
M  V30 4104 C 388.095 3.38049 2.68974 0
M  V30 4105 C 387.23 3.52934 3.97002 0
M  V30 4106 C 386.269 4.74373 3.86829 0
M  V30 4107 N 385.406 4.8608 5.06627 0
M  V30 4108 H 390.246 2.76732 1.1056 0
M  V30 4109 H 387.783 1.37034 0.534805 0
M  V30 4110 H 389.741 2.22919 3.52652 0
M  V30 4111 H 388.371 1.22338 2.98719 0
M  V30 4112 H 387.423 3.3418 1.81736 0
M  V30 4113 H 388.735 4.27288 2.57346 0
M  V30 4114 H 387.889 3.65088 4.84557 0
M  V30 4115 H 386.628 2.61824 4.1146 0
M  V30 4116 H 385.633 4.62255 2.97658 0
M  V30 4117 H 386.858 5.66888 3.73918 0
M  V30 4118 H 384.804 3.97891 5.21554 0
M  V30 4119 H 384.721 5.69315 4.9741 0
M  V30 4120 H 385.989 5.02587 5.95841 0
M  V30 4121 N 390.218 -0.567019 1.47046 0
M  V30 4122 C 391.458 -1.3355 1.54738 0
M  V30 4123 C 391.822 -1.90947 0.200772 0
M  V30 4124 O 393.023 -2.68367 0.152489 0
M  V30 4125 C 391.294 -2.42317 2.62712 0
M  V30 4126 S 392.853 -3.29383 2.89918 0
M  V30 4127 H 389.671 -0.454788 0.546525 0
M  V30 4128 H 392.273 -0.650191 1.84371 0
M  V30 4129 H 390.977 -1.98568 3.59164 0
M  V30 4130 H 390.508 -3.15601 2.34861 0
M  V30 4131 H 392.523 -4.41548 2.26384 0
M  V30 4132 N 391.696 -1.35014 -0.812953 0
M  V30 4133 C 392.936 -1.29289 -1.58315 0
M  V30 4134 C 393.3 0.132727 -1.91541 0
M  V30 4135 O 394.501 0.314269 -2.66957 0
M  V30 4136 C 392.772 -2.1681 -2.84127 0
M  V30 4137 S 394.331 -2.28538 -3.74588 0
M  V30 4138 H 391.149 -0.459569 -0.542511 0
M  V30 4139 H 393.751 -1.70336 -0.959467 0
M  V30 4140 H 392.455 -3.19379 -2.57731 0
M  V30 4141 H 391.986 -1.76697 -3.51485 0
M  V30 4142 H 394.001 -1.4655 -4.74065 0
M  V30 4143 N 393.175 1.03435 -1.18907 0
M  V30 4144 C 394.085 2.15075 -0.937015 0
M  V30 4145 C 395.101 1.73706 0.101085 0
M  V30 4146 O 396.277 2.01232 -0.0822948 0
M  V30 4147 C 393.342 3.43458 -0.473057 0
M  V30 4148 C 392.403 3.99172 -1.57989 0
M  V30 4149 C 391.636 5.21427 -1.13797 0
M  V30 4150 O 391.859 5.704 0.000725941 0
M  V30 4151 O 390.793 5.69837 -1.9383 0
M  V30 4152 H 394.619 2.39198 -1.87131 0
M  V30 4153 H 392.204 1.13506 -0.971427 0
M  V30 4154 H 394.086 4.20811 -0.222702 0
M  V30 4155 H 392.761 3.20793 0.432869 0
M  V30 4156 H 391.668 3.23178 -1.88433 0
M  V30 4157 H 393.001 4.2619 -2.46217 0
M  V30 4158 N 394.653 0.992116 1.22453 0
M  V30 4159 C 395.878 0.685644 1.95739 0
M  V30 4160 C 396.303 -0.743 1.72804 0
M  V30 4161 O 395.661 -1.50778 1.00676 0
M  V30 4162 C 395.709 0.996293 3.46564 0
M  V30 4163 O 394.813 0.0945512 4.12292 0
M  V30 4164 H 394.154 0.256694 0.612376 0
M  V30 4165 H 396.684 1.32888 1.5557 0
M  V30 4166 H 396.694 0.93781 3.97076 0
M  V30 4167 H 395.369 2.03733 3.62582 0
M  V30 4168 H 393.946 0.208451 3.72317 0
M  V30 4169 N 396.131 -1.37776 0.765217 0
M  V30 4170 C 397.094 -2.28686 0.153416 0
M  V30 4171 C 398.094 -1.47727 -0.635081 0
M  V30 4172 O 399.284 -1.68027 -0.459632 0
M  V30 4173 C 396.416 -3.31608 -0.790495 0
M  V30 4174 H 397.609 -2.84297 0.954723 0
M  V30 4175 H 395.162 -1.46932 0.53299 0
M  V30 4176 H 395.897 -2.81109 -1.61705 0
M  V30 4177 H 395.682 -3.9144 -0.227348 0
M  V30 4178 H 397.172 -3.99559 -1.21419 0
M  V30 4179 N 397.609 -0.515225 -1.4894 0
M  V30 4180 C 398.834 0.022727 -2.07388 0
M  V30 4181 C 399.259 1.2876 -1.37122 0
M  V30 4182 O 398.617 1.76067 -0.432431 0
M  V30 4183 C 398.665 0.244869 -3.59768 0
M  V30 4184 O 397.769 1.31667 -3.90817 0
M  V30 4185 H 397.11 -0.0325506 -0.663202 0
M  V30 4186 H 399.64 -0.718918 -1.91553 0
M  V30 4187 H 399.65 0.47205 -4.0526 0
M  V30 4188 H 398.325 -0.679194 -4.10317 0
M  V30 4189 H 396.902 1.07331 -3.5712 0
M  V30 4190 N 399.087 1.5561 -0.249682 0
M  V30 4191 C 399.997 2.25143 0.659375 0
M  V30 4192 C 401.013 1.2685 1.19101 0
M  V30 4193 O 402.189 1.59732 1.22669 0
M  V30 4194 C 399.254 2.93945 1.8384 0
M  V30 4195 C 398.315 4.07655 1.34596 0
M  V30 4196 C 397.548 4.73167 2.46878 0
M  V30 4197 O 397.771 4.37768 3.65671 0
M  V30 4198 O 396.705 5.61623 2.16478 0
M  V30 4199 H 400.531 3.03545 0.0968698 0
M  V30 4200 H 398.116 1.49389 -0.018074 0
M  V30 4201 H 399.998 3.37271 2.52638 0
M  V30 4202 H 398.673 2.18481 2.38847 0
M  V30 4203 H 397.58 3.68839 0.625174 0
M  V30 4204 H 398.913 4.84946 0.841941 0
M  V30 4205 N 400.565 -0.0233959 1.57583 0
M  V30 4206 C 401.842 -0.748794 1.807 0
M  V30 4207 C 402.222 -1.9327 0.849106 0
M  V30 4208 O 401.57 -2.28247 -0.107468 0
M  V30 4209 C 401.78 -1.17651 3.28571 0
M  V30 4210 C 403.128 -1.59008 3.93702 0
M  V30 4211 O 404.152 -1.27094 3.32755 0
M  V30 4212 O 403.011 -2.18264 5.01022 0
M  V30 4213 H 400.105 -0.362578 0.743281 0
M  V30 4214 H 402.651 0.000261958 1.697 0
M  V30 4215 H 401.423 -0.331603 3.89892 0
M  V30 4216 H 401.046 -1.98541 3.44481 0
M  V30 4217 N 402.043 -1.548 -0.295768 0
M  V30 4218 C 403.283 -1.76069 -1.03823 0
M  V30 4219 C 403.647 -0.537992 -1.84309 0
M  V30 4220 O 404.848 -0.628514 -2.61349 0
M  V30 4221 C 403.119 -3.01705 -1.91596 0
M  V30 4222 S 404.678 -3.43998 -2.72416 0
M  V30 4223 H 401.496 -0.618852 -0.350062 0
M  V30 4224 H 404.098 -1.93009 -0.31106 0
M  V30 4225 H 402.802 -3.88812 -1.31351 0
M  V30 4226 H 402.333 -2.87366 -2.68671 0
M  V30 4227 H 404.348 -3.0148 -3.94112 0
M  V30 4228 N 403.521 0.559213 -1.47345 0
M  V30 4229 C 404.454 1.68201 -1.5422 0
M  V30 4230 C 405.432 1.57742 -0.394497 0
M  V30 4231 O 406.616 1.78628 -0.60201 0
M  V30 4232 C 403.743 3.0643 -1.44285 0
M  V30 4233 C 402.789 3.3534 -2.63532 0
M  V30 4234 S 403.622 3.24816 -4.25741 0
M  V30 4235 C 404.778 4.65542 -4.18355 0
M  V30 4236 H 405.011 1.62114 -2.49211 0
M  V30 4237 H 402.544 0.739871 -1.35519 0
M  V30 4238 H 404.502 3.86164 -1.3924 0
M  V30 4239 H 403.163 3.09984 -0.506816 0
M  V30 4240 H 402.356 4.36107 -2.52639 0
M  V30 4241 H 401.958 2.63221 -2.65689 0
M  V30 4242 H 404.25 5.56449 -3.86485 0
M  V30 4243 H 405.193 4.81493 -5.19202 0
M  V30 4244 H 405.601 4.43495 -3.49246 0
M  V30 4245 N 404.999 1.35443 0.805782 0
M  V30 4246 C 405.962 1.28301 1.89925 0
M  V30 4247 C 406.962 0.194285 1.59622 0
M  V30 4248 O 408.152 0.448036 1.6834 0
M  V30 4249 C 405.284 0.984997 3.2636 0
M  V30 4250 H 406.477 2.2553 1.97677 0
M  V30 4251 H 404.03 1.19979 1.00173 0
M  V30 4252 H 404.765 0.016603 3.24296 0
M  V30 4253 H 404.55 1.77269 3.4974 0
M  V30 4254 H 406.04 0.960651 4.064 0
M  V30 4255 N 406.477 -1.02803 1.19454 0
M  V30 4256 C 407.424 -2.11099 0.933046 0
M  V30 4257 C 408.394 -1.65571 -0.132447 0
M  V30 4258 O 409.579 -1.90797 0.00987576 0
M  V30 4259 C 406.719 -3.41763 0.478747 0
M  V30 4260 C 405.832 -4.00833 1.6111 0
M  V30 4261 C 404.967 -5.19511 1.10825 0
M  V30 4262 C 404.006 -5.70639 2.21445 0
M  V30 4263 N 403.143 -6.80589 1.72461 0
M  V30 4264 H 407.983 -2.32804 1.86028 0
M  V30 4265 H 405.52 -1.14179 0.927441 0
M  V30 4266 H 407.478 -4.16736 0.196745 0
M  V30 4267 H 406.108 -3.20166 -0.411493 0
M  V30 4268 H 405.16 -3.23066 2.00829 0
M  V30 4269 H 406.472 -4.34794 2.4445 0
M  V30 4270 H 405.626 -6.01645 0.781533 0
M  V30 4271 H 404.365 -4.87086 0.244606 0
M  V30 4272 H 403.37 -4.87116 2.54947 0
M  V30 4273 H 404.595 -6.05102 3.08267 0
M  V30 4274 H 402.541 -6.50016 0.884056 0
M  V30 4275 H 402.458 -7.13681 2.49389 0
M  V30 4276 H 403.726 -7.66317 1.42755 0
M  V30 4277 N 407.956 -0.998596 -1.21925 0
M  V30 4278 C 408.866 -0.562736 -2.27751 0
M  V30 4279 C 409.882 0.391203 -1.69545 0
M  V30 4280 O 411.058 0.256625 -1.99758 0
M  V30 4281 C 408.123 0.11012 -3.46525 0
M  V30 4282 C 407.184 -0.887495 -4.20026 0
M  V30 4283 C 406.417 -0.246654 -5.3313 0
M  V30 4284 O 406.64 0.958088 -5.62296 0
M  V30 4285 O 405.574 -0.954374 -5.94286 0
M  V30 4286 H 409.4 -1.44329 -2.67213 0
M  V30 4287 H 406.985 -0.767135 -1.28201 0
M  V30 4288 H 408.867 0.486756 -4.18579 0
M  V30 4289 H 407.542 0.965154 -3.08976 0
M  V30 4290 H 406.449 -1.31517 -3.5022 0
M  V30 4291 H 407.782 -1.71191 -4.6147 0
M  V30 4292 N 409.434 1.37368 -0.772513 0
M  V30 4293 C 410.364 2.32856 -0.173304 0
M  V30 4294 C 411.345 1.55818 0.682262 0
M  V30 4295 O 412.53 1.84052 0.619566 0
M  V30 4296 C 409.66 3.40048 0.706007 0
M  V30 4297 C 408.614 4.27973 -0.0483144 0
M  V30 4298 C 407.94 5.26184 0.950491 0
M  V30 4299 C 409.24 5.07665 -1.22776 0
M  V30 4300 H 410.934 2.83217 -0.971002 0
M  V30 4301 H 408.48 1.3617 -0.468377 0
M  V30 4302 H 410.433 4.05827 1.13501 0
M  V30 4303 H 409.157 2.88214 1.53623 0
M  V30 4304 H 407.816 3.63726 -0.458107 0
M  V30 4305 H 407.464 4.7063 1.77529 0
M  V30 4306 H 407.164 5.85872 0.450314 0
M  V30 4307 H 408.688 5.94838 1.37842 0
M  V30 4308 H 410.102 5.66578 -0.875366 0
M  V30 4309 H 408.499 5.76681 -1.66007 0
M  V30 4310 H 409.569 4.40294 -2.03149 0
M  V30 4311 N 410.912 0.523116 1.48665 0
M  V30 4312 C 412.323 0.0808997 1.86525 0
M  V30 4313 C 412.674 -1.33975 1.43336 0
M  V30 4314 O 411.799 -2.00221 0.821009 0
M  V30 4315 C 412.394 0.140037 3.3851 0
M  V30 4316 C 410.953 -0.246948 3.75589 0
M  V30 4317 C 410.1 0.502845 2.72703 0
M  V30 4318 H 413.051 0.734736 1.40667 0
M  V30 4319 H 413.072 -0.649945 3.74908 0
M  V30 4320 H 412.584 1.17412 3.69914 0
M  V30 4321 H 410.685 -1.28343 3.49798 0
M  V30 4322 H 410.798 0.0878859 4.79019 0
M  V30 4323 H 409.162 -0.0500581 2.54651 0
M  V30 4324 H 409.945 1.53743 3.0695 0
M  V30 4325 N 412.39 -1.55475 0.257931 0
M  V30 4326 C 413.3 -2.2549 -0.647425 0
M  V30 4327 C 414.316 -1.2748 -1.18427 0
M  V30 4328 O 415.492 -1.6038 -1.2182 0
M  V30 4329 C 412.557 -2.94916 -1.82278 0
M  V30 4330 C 411.618 -4.08363 -1.32432 0
M  V30 4331 C 410.851 -4.74469 -2.44366 0
M  V30 4332 O 411.074 -4.39701 -3.63344 0
M  V30 4333 O 410.008 -5.62763 -2.13497 0
M  V30 4334 H 413.834 -3.03593 -0.0807707 0
M  V30 4335 H 411.419 -1.49377 0.0259962 0
M  V30 4336 H 413.301 -3.38606 -2.50846 0
M  V30 4337 H 411.976 -2.19744 -2.37685 0
M  V30 4338 H 410.883 -3.69166 -0.605605 0
M  V30 4339 H 412.216 -4.85385 -0.816211 0
M  V30 4340 N 413.868 0.0150385 -1.57593 0
M  V30 4341 C 414.818 1.01943 -2.0394 0
M  V30 4342 C 415.802 1.31209 -0.931286 0
M  V30 4343 O 416.994 1.30559 -1.19513 0
M  V30 4344 C 414.123 2.31621 -2.53391 0
M  V30 4345 C 413.209 2.05384 -3.7105 0
M  V30 4346 N 413.6 1.49253 -4.83278 0
M  V30 4347 C 411.898 2.35601 -3.78693 0
M  V30 4348 C 412.599 1.39143 -5.64813 0
M  V30 4349 N 411.575 1.87187 -5.10355 0
M  V30 4350 H 415.377 0.57969 -2.88126 0
M  V30 4351 H 412.891 0.221056 -1.60888 0
M  V30 4352 H 414.888 3.044 -2.84862 0
M  V30 4353 H 413.548 2.76261 -1.70616 0
M  V30 4354 H 414.559 1.17334 -5.04433 0
M  V30 4355 H 411.236 2.8322 -3.06746 0
M  V30 4356 H 412.626 0.961153 -6.6499 0
M  V30 4357 N 415.346 1.54954 0.287554 0
M  V30 4358 C 416.574 1.78881 1.03967 0
M  V30 4359 C 416.989 0.554894 1.80462 0
M  V30 4360 O 416.346 -0.475676 1.76192 0
M  V30 4361 C 416.397 3.00488 2.0097 0
M  V30 4362 O 416.118 4.19113 1.27577 0
M  V30 4363 C 417.619 3.36907 2.88112 0
M  V30 4364 H 414.839 0.596259 0.307761 0
M  V30 4365 H 417.383 2.01937 0.322749 0
M  V30 4366 H 415.538 2.79601 2.68145 0
M  V30 4367 H 415.952 4.87765 1.92835 0
M  V30 4368 H 417.426 4.25205 3.52001 0
M  V30 4369 H 417.903 2.55659 3.57121 0
M  V30 4370 H 418.509 3.60001 2.26449 0
M  V30 4371 N 416.824 -0.551391 1.4764 0
M  V30 4372 C 418.07 -1.31024 1.54792 0
M  V30 4373 C 418.403 -1.9304 0.211967 0
M  V30 4374 O 417.678 -1.78175 -0.77999 0
M  V30 4375 C 417.961 -2.41593 2.67029 0
M  V30 4376 C 417.814 -1.84408 4.10261 0
M  V30 4377 C 419.133 -3.43488 2.75143 0
M  V30 4378 H 416.252 -0.475031 0.563485 0
M  V30 4379 H 418.894 -0.616454 1.79722 0
M  V30 4380 H 417.044 -3.00772 2.45904 0
M  V30 4381 H 418.716 -1.29445 4.42766 0
M  V30 4382 H 416.959 -1.15051 4.18265 0
M  V30 4383 H 417.63 -2.64367 4.84576 0
M  V30 4384 H 420.106 -2.94236 2.94218 0
M  V30 4385 H 418.982 -4.18274 3.55441 0
M  V30 4386 H 419.243 -4.02703 1.82435 0
M  V30 4387 N 418.302 -1.35869 -0.798587 0
M  V30 4388 C 419.249 -1.29446 -1.91082 0
M  V30 4389 C 420.219 -0.16487 -1.6528 0
M  V30 4390 O 421.404 -0.349888 -1.87564 0
M  V30 4391 C 418.544 -1.0804 -3.27752 0
M  V30 4392 C 417.657 -2.29993 -3.65687 0
M  V30 4393 C 416.792 -2.01673 -4.91428 0
M  V30 4394 C 415.831 -3.19636 -5.22015 0
M  V30 4395 N 414.968 -2.91039 -6.38937 0
M  V30 4396 H 419.808 -2.24553 -1.95907 0
M  V30 4397 H 417.345 -1.11615 -0.958148 0
M  V30 4398 H 419.303 -0.936586 -4.06551 0
M  V30 4399 H 417.933 -0.16592 -3.22373 0
M  V30 4400 H 416.985 -2.55211 -2.82085 0
M  V30 4401 H 418.297 -3.18052 -3.84245 0
M  V30 4402 H 417.451 -1.84168 -5.78072 0
M  V30 4403 H 416.19 -1.10911 -4.74921 0
M  V30 4404 H 415.195 -3.37709 -4.33858 0
M  V30 4405 H 416.42 -4.11211 -5.40447 0
M  V30 4406 H 414.366 -2.0288 -6.2384 0
M  V30 4407 H 414.283 -3.72635 -6.57784 0
M  V30 4408 H 415.551 -2.77093 -7.28587 0
M  V30 4409 N 419.78 1.02168 -1.19998 0
M  V30 4410 C 420.71 2.12488 -0.96804 0
M  V30 4411 C 421.691 1.69799 0.101185 0
M  V30 4412 O 422.876 1.94121 -0.0552993 0
M  V30 4413 C 420.006 3.43479 -0.513776 0
M  V30 4414 C 418.96 3.99884 -1.52566 0
M  V30 4415 C 418.286 5.26582 -0.928214 0
M  V30 4416 C 419.586 4.33861 -2.90795 0
M  V30 4417 H 421.28 2.32149 -1.89069 0
M  V30 4418 H 418.826 1.11564 -0.910468 0
M  V30 4419 H 420.779 4.20036 -0.338774 0
M  V30 4420 H 419.503 3.23561 0.444493 0
M  V30 4421 H 418.162 3.25429 -1.68794 0
M  V30 4422 H 417.81 5.02986 0.0378289 0
M  V30 4423 H 417.51 5.65284 -1.60397 0
M  V30 4424 H 419.034 6.05799 -0.764167 0
M  V30 4425 H 420.448 5.01327 -2.78109 0
M  V30 4426 H 418.845 4.83664 -3.55231 0
M  V30 4427 H 419.915 3.42848 -3.42904 0
M  V30 4428 N 421.258 1.00505 1.21394 0
M  V30 4429 C 422.498 0.696149 1.9218 0
M  V30 4430 C 422.862 -0.759099 1.76357 0
M  V30 4431 O 424.063 -1.17998 2.41516 0
M  V30 4432 C 422.334 1.10571 3.39866 0
M  V30 4433 S 423.893 0.91702 4.29111 0
M  V30 4434 H 420.711 0.254147 0.664026 0
M  V30 4435 H 423.313 1.28988 1.46909 0
M  V30 4436 H 422.017 2.16096 3.489 0
M  V30 4437 H 421.548 0.504268 3.90155 0
M  V30 4438 H 423.563 -0.185855 4.95852 0
M  V30 4439 N 422.737 -1.36956 0.779787 0
M  V30 4440 C 424.014 -1.93697 0.272156 0
M  V30 4441 C 424.394 -1.71267 -1.23413 0
M  V30 4442 O 423.742 -1.06607 -2.02107 0
M  V30 4443 C 423.952 -3.42812 0.654291 0
M  V30 4444 C 425.3 -4.19921 0.628602 0
M  V30 4445 O 426.324 -3.51209 0.594172 0
M  V30 4446 O 425.183 -5.42465 0.662864 0
M  V30 4447 H 422.277 -0.824447 0.0649286 0
M  V30 4448 H 424.823 -1.46196 0.861682 0
M  V30 4449 H 423.595 -3.52754 1.69353 0
M  V30 4450 H 423.218 -3.97582 0.0381369 0
M  V30 4451 N 424.215 -0.530993 -1.48385 0
M  V30 4452 C 425.163 0.244595 -2.3131 0
M  V30 4453 C 426.157 0.93451 -1.41291 0
M  V30 4454 O 427.363 0.85878 -1.58193 0
M  V30 4455 H 423.738 0.0977472 -0.74562 0
M  V30 4456 H 425.709 -0.474369 -2.94605 0
M  V30 4457 C 424.458 1.2779 -3.23365 0
M  V30 4458 H 423.781 0.756439 -3.92579 0
M  V30 4459 H 425.221 1.79198 -3.84271 0
M  V30 4460 C 423.68 2.31205 -2.45042 0
M  V30 4461 O 424.21 3.37661 -2.17596 0
M  V30 4462 N 422.416 2.04446 -2.0652 0
M  V30 4463 H 421.963 1.17891 -2.2904 0
M  V30 4464 H 421.921 2.73861 -1.54427 0
M  V30 4465 N 425.693 1.55336 -0.266172 0
M  V30 4466 C 426.623 2.25146 0.618981 0
M  V30 4467 C 427.604 1.23845 1.16604 0
M  V30 4468 O 428.789 1.52544 1.20183 0
M  V30 4469 C 425.919 2.96572 1.80728 0
M  V30 4470 C 424.873 4.04726 1.39215 0
M  V30 4471 C 424.199 4.63678 2.66283 0
M  V30 4472 C 425.499 5.19407 0.548942 0
M  V30 4473 H 427.193 2.99377 0.0368116 0
M  V30 4474 H 424.739 1.43991 0.0162651 0
M  V30 4475 H 426.692 3.44116 2.43232 0
M  V30 4476 H 425.416 2.19861 2.41514 0
M  V30 4477 H 424.075 3.57979 0.790351 0
M  V30 4478 H 423.723 3.83646 3.25308 0
M  V30 4479 H 423.423 5.367 2.39222 0
M  V30 4480 H 424.947 5.13967 3.29651 0
M  V30 4481 H 426.361 5.63059 1.07876 0
M  V30 4482 H 424.758 5.98936 0.373593 0
M  V30 4483 H 425.828 4.8295 -0.434394 0
M  V30 4484 N 427.171 -0.0066808 1.57599 0
M  V30 4485 C 428.396 -0.707738 1.94951 0
M  V30 4486 C 428.821 -1.66882 0.867868 0
M  V30 4487 O 428.179 -1.80457 -0.17458 0
M  V30 4488 C 428.227 -1.42162 3.31394 0
M  V30 4489 O 427.331 -2.53578 3.25226 0
M  V30 4490 H 426.672 -0.188752 0.636607 0
M  V30 4491 H 429.202 0.0445193 2.04552 0
M  V30 4492 H 429.212 -1.78655 3.66806 0
M  V30 4493 H 427.887 -0.716903 4.09675 0
M  V30 4494 H 426.464 -2.19463 3.01481 0
M  V30 4495 N 428.649 -1.55105 -0.279332 0
M  V30 4496 C 429.877 -1.7943 -1.03017 0
M  V30 4497 C 430.292 -0.564456 -1.80165 0
M  V30 4498 O 429.649 0.466326 -1.76442 0
M  V30 4499 C 429.7 -3.0155 -1.99374 0
M  V30 4500 O 429.421 -4.19784 -1.25352 0
M  V30 4501 C 430.922 -3.3843 -2.86321 0
M  V30 4502 H 428.142 -0.597882 -0.304594 0
M  V30 4503 H 430.686 -2.02105 -0.312035 0
M  V30 4504 H 428.841 -2.81019 -2.66659 0
M  V30 4505 H 429.255 -4.88781 -1.90246 0
M  V30 4506 H 430.729 -4.27066 -3.49741 0
M  V30 4507 H 431.206 -2.57549 -3.5576 0
M  V30 4508 H 431.812 -3.61197 -2.24536 0
M  V30 4509 N 430.127 0.543554 -1.4793 0
M  V30 4510 C 431.074 1.64942 -1.6144 0
M  V30 4511 C 432.044 1.59692 -0.456903 0
M  V30 4512 O 433.229 1.78321 -0.678688 0
M  V30 4513 C 430.369 3.03238 -1.64744 0
M  V30 4514 C 429.482 3.18823 -2.91506 0
M  V30 4515 C 428.617 4.47599 -2.86057 0
M  V30 4516 C 427.656 4.56664 -4.07584 0
M  V30 4517 N 426.793 5.76811 -4.00292 0
M  V30 4518 H 431.633 1.52733 -2.55884 0
M  V30 4519 H 429.17 0.7438 -1.2691 0
M  V30 4520 H 431.128 3.83339 -1.64641 0
M  V30 4521 H 429.758 3.1425 -0.738017 0
M  V30 4522 H 428.81 2.32064 -3.01414 0
M  V30 4523 H 430.122 3.21384 -3.81463 0
M  V30 4524 H 429.276 5.35975 -2.84281 0
M  V30 4525 H 428.015 4.47538 -1.93807 0
M  V30 4526 H 427.02 3.66697 -4.09651 0
M  V30 4527 H 428.245 4.58474 -5.00978 0
M  V30 4528 H 426.191 5.77673 -3.10853 0
M  V30 4529 H 426.108 5.80808 -4.8394 0
M  V30 4530 H 427.376 6.67512 -4.02553 0
M  V30 4531 N 431.605 1.3629 0.791371 0
M  V30 4532 C 432.553 1.30514 1.92533 0
M  V30 4533 C 433.547 0.197285 1.68247 0
M  V30 4534 O 434.753 0.364176 1.76278 0
M  V30 4535 H 431.128 0.406263 0.632815 0
M  V30 4536 H 433.099 2.26282 1.94523 0
M  V30 4537 C 431.848 1.10933 3.29529 0
M  V30 4538 H 431.171 1.95427 3.48781 0
M  V30 4539 H 432.611 1.10937 4.0923 0
M  V30 4540 C 431.07 -0.186123 3.36385 0
M  V30 4541 O 431.6 -1.17664 3.84081 0
M  V30 4542 N 429.806 -0.230128 2.89687 0
M  V30 4543 H 429.353 0.576545 2.51065 0
M  V30 4544 H 429.311 -1.09658 2.94657 0
M  V30 4545 N 433.083 -1.0153 1.20538 0
M  V30 4546 C 434.308 -1.79283 1.04271 0
M  V30 4547 C 434.733 -1.8372 -0.403544 0
M  V30 4548 O 434.091 -1.27321 -1.2907 0
M  V30 4549 C 434.139 -3.21535 1.63241 0
M  V30 4550 O 433.243 -4.03099 0.870908 0
M  V30 4551 H 432.584 -0.55293 0.367647 0
M  V30 4552 H 435.114 -1.27696 1.59859 0
M  V30 4553 H 435.124 -3.72243 1.6703 0
M  V30 4554 H 433.799 -3.1762 2.68497 0
M  V30 4555 H 432.376 -3.61693 0.907323 0
M  V30 4556 N 434.561 -1.01147 -1.20859 0
M  V30 4557 C 435.508 -0.577354 -2.23462 0
M  V30 4558 C 436.478 0.399922 -1.61214 0
M  V30 4559 O 437.663 0.300515 -1.88419 0
M  V30 4560 C 434.803 0.083372 -3.44999 0
M  V30 4561 C 433.916 -0.937856 -4.21697 0
M  V30 4562 C 433.051 -0.248717 -5.30617 0
M  V30 4563 C 432.09 -1.25705 -5.99053 0
M  V30 4564 N 431.227 -0.594939 -6.99575 0
M  V30 4565 H 436.067 -1.45695 -2.59956 0
M  V30 4566 H 433.604 -0.729428 -1.27741 0
M  V30 4567 H 435.562 0.483535 -4.14388 0
M  V30 4568 H 434.192 0.926645 -3.09214 0
M  V30 4569 H 433.244 -1.45622 -3.51423 0
M  V30 4570 H 434.556 -1.70493 -4.68757 0
M  V30 4571 H 433.71 0.207215 -6.06346 0
M  V30 4572 H 432.449 0.55071 -4.84581 0
M  V30 4573 H 431.454 -1.72343 -5.2209 0
M  V30 4574 H 432.679 -2.05767 -6.47176 0
M  V30 4575 H 430.625 0.184713 -6.5574 0
M  V30 4576 H 430.542 -1.30017 -7.44736 0
M  V30 4577 H 431.81 -0.162427 -7.79331 0
M  V30 4578 N 436.039 1.36541 -0.78704 0
M  V30 4579 C 437.286 1.99304 -0.358341 0
M  V30 4580 C 437.614 1.62467 1.06933 0
M  V30 4581 O 436.869 0.870019 1.75297 0
M  V30 4582 C 437.168 3.54343 -0.466485 0
M  V30 4583 C 436.834 4.10993 -1.85461 0
M  V30 4584 C 435.496 4.26177 -2.23443 0
M  V30 4585 C 437.848 4.41895 -2.76366 0
M  V30 4586 C 435.176 4.69573 -3.51736 0
M  V30 4587 C 437.528 4.86722 -4.04084 0
M  V30 4588 C 436.192 5.00112 -4.42091 0
M  V30 4589 H 435.462 0.729306 -0.131126 0
M  V30 4590 H 438.109 1.63068 -1.00404 0
M  V30 4591 H 436.414 3.90918 0.262719 0
M  V30 4592 H 438.111 4.00833 -0.115854 0
M  V30 4593 H 434.701 3.99612 -1.54946 0
M  V30 4594 H 438.885 4.29735 -2.48277 0
M  V30 4595 H 434.141 4.78127 -3.81057 0
M  V30 4596 H 438.315 5.09598 -4.7464 0
M  V30 4597 H 435.942 5.33498 -5.41557 0
M  V30 4598 N 437.518 0.538854 1.48102 0
M  V30 4599 C 438.428 -0.222648 2.33541 0
M  V30 4600 C 439.444 -0.930225 1.47047 0
M  V30 4601 O 440.62 -0.903211 1.80011 0
M  V30 4602 C 437.685 -1.25064 3.23357 0
M  V30 4603 C 436.746 -0.552469 4.2573 0
M  V30 4604 C 435.979 -1.53149 5.11254 0
M  V30 4605 O 436.202 -2.76487 4.9891 0
M  V30 4606 O 435.136 -1.06602 5.92385 0
M  V30 4607 H 438.962 0.477707 2.99919 0
M  V30 4608 H 436.547 0.299669 1.46364 0
M  V30 4609 H 438.429 -1.8445 3.78888 0
M  V30 4610 H 437.104 -1.93325 2.59629 0
M  V30 4611 H 436.011 0.082114 3.7401 0
M  V30 4612 H 437.344 0.0883526 4.92121 0
M  V30 4613 N 438.996 -1.55193 0.274407 0
M  V30 4614 C 440.273 -1.91584 -0.394331 0
M  V30 4615 C 440.653 -1.19858 -1.73774 0
M  V30 4616 O 440.001 -0.3252 -2.26174 0
M  V30 4617 C 440.211 -3.4487 -0.535311 0
M  V30 4618 C 441.559 -4.16636 -0.818534 0
M  V30 4619 O 442.583 -3.5076 -0.620146 0
M  V30 4620 O 441.442 -5.33209 -1.19792 0
M  V30 4621 H 438.536 -0.798349 -0.215794 0
M  V30 4622 H 441.082 -1.66646 0.320507 0
M  V30 4623 H 439.854 -3.89145 0.410141 0
M  V30 4624 H 439.477 -3.75759 -1.29964 0
M  V30 4625 N 440.474 -0.00167713 -1.576 0
M  V30 4626 C 441.714 0.687302 -1.92498 0
M  V30 4627 C 442.078 1.70844 -0.876144 0
M  V30 4628 O 443.279 2.44792 -1.11043 0
M  V30 4629 C 441.55 1.31217 -3.32441 0
M  V30 4630 S 443.109 2.02604 -3.89226 0
M  V30 4631 H 439.927 0.226985 -0.673794 0
M  V30 4632 H 442.529 -0.0587666 -1.95412 0
M  V30 4633 H 441.233 0.556164 -4.06614 0
M  V30 4634 H 440.764 2.09613 -3.32905 0
M  V30 4635 H 442.779 3.30137 -3.70438 0
M  V30 4636 N 441.952 1.55251 0.271103 0
M  V30 4637 C 443.192 1.77698 1.01008 0
M  V30 4638 C 443.556 0.567246 1.83429 0
M  V30 4639 O 444.757 0.670013 2.60316 0
M  V30 4640 C 443.028 3.04715 1.86772 0
M  V30 4641 S 444.587 3.48289 2.66909 0
M  V30 4642 H 441.405 0.624343 0.340172 0
M  V30 4643 H 444.007 1.9348 0.280315 0
M  V30 4644 H 442.711 3.90853 1.25149 0
M  V30 4645 H 442.242 2.91604 2.64066 0
M  V30 4646 H 444.257 3.07712 3.89266 0
M  V30 4647 N 443.43 -0.535701 1.48216 0
M  V30 4648 C 444.362 -1.65662 1.58394 0
M  V30 4649 C 445.375 -1.5591 0.468607 0
M  V30 4650 O 446.564 -1.62475 0.7392 0
M  V30 4651 C 443.664 -3.04276 1.4923 0
M  V30 4652 C 442.837 -3.39567 2.75705 0
M  V30 4653 C 441.896 -4.57436 2.60075 0
M  V30 4654 O 440.922 -4.60942 3.33948 0
M  V30 4655 N 442.124 -5.55259 1.69315 0
M  V30 4656 H 444.889 -1.5737 2.55058 0
M  V30 4657 H 442.45 -0.722845 1.44867 0
M  V30 4658 H 444.442 -3.80994 1.36477 0
M  V30 4659 H 443.012 -3.06677 0.605632 0
M  V30 4660 H 442.232 -2.52083 3.03064 0
M  V30 4661 H 443.52 -3.59929 3.59623 0
M  V30 4662 H 442.918 -5.552 1.08489 0
M  V30 4663 H 441.475 -6.31218 1.62504 0
M  V30 4664 N 444.908 -1.36708 -0.784132 0
M  V30 4665 C 445.818 -1.3363 -1.92822 0
M  V30 4666 C 446.834 -0.237686 -1.72369 0
M  V30 4667 O 448.01 -0.470962 -1.95816 0
M  V30 4668 C 445.075 -1.13011 -3.27764 0
M  V30 4669 C 444.136 -2.32397 -3.60957 0
M  V30 4670 C 443.369 -2.12752 -4.89461 0
M  V30 4671 O 443.592 -1.10541 -5.59586 0
M  V30 4672 O 442.526 -3.00653 -5.21432 0
M  V30 4673 H 446.352 -2.29964 -1.98369 0
M  V30 4674 H 443.937 -1.1731 -0.925136 0
M  V30 4675 H 445.819 -1.03451 -4.08504 0
M  V30 4676 H 444.494 -0.19743 -3.23097 0
M  V30 4677 H 443.401 -2.47527 -2.80502 0
M  V30 4678 H 444.734 -3.2419 -3.70354 0
M  V30 4679 N 446.386 1.0089 -1.21074 0
M  V30 4680 C 447.333 2.09588 -0.966512 0
M  V30 4681 C 448.303 1.65761 0.106089 0
M  V30 4682 O 449.488 1.90758 -0.0402287 0
M  V30 4683 C 446.628 3.40958 -0.533058 0
M  V30 4684 C 445.741 3.9822 -1.67467 0
M  V30 4685 C 444.876 5.17682 -1.19076 0
M  V30 4686 C 443.915 5.67043 -2.30496 0
M  V30 4687 N 443.052 6.77759 -1.83267 0
M  V30 4688 H 447.892 2.29815 -1.89708 0
M  V30 4689 H 445.429 1.12689 -0.945489 0
M  V30 4690 H 447.387 4.1637 -0.263019 0
M  V30 4691 H 446.017 3.20781 0.360505 0
M  V30 4692 H 445.069 3.1983 -2.05944 0
M  V30 4693 H 446.381 4.3085 -2.51336 0
M  V30 4694 H 445.535 6.00326 -0.877151 0
M  V30 4695 H 444.274 4.86635 -0.322066 0
M  V30 4696 H 443.279 4.82999 -2.62664 0
M  V30 4697 H 444.504 6.00121 -3.17855 0
M  V30 4698 H 442.45 6.48527 -0.987356 0
M  V30 4699 H 442.367 7.09624 -2.60711 0
M  V30 4700 H 443.635 7.63949 -1.54928 0
M  V30 4701 N 447.864 1.01787 1.20321 0
M  V30 4702 C 449.092 0.727194 1.937 0
M  V30 4703 C 449.507 -0.712305 1.74848 0
M  V30 4704 O 448.864 -1.48327 1.06327 0
M  V30 4705 C 448.915 1.05497 3.45764 0
M  V30 4706 O 448.636 2.43794 3.64 0
M  V30 4707 C 450.137 0.785534 4.36285 0
M  V30 4708 H 447.357 0.266939 0.615617 0
M  V30 4709 H 449.901 1.35939 1.52777 0
M  V30 4710 H 448.056 0.468158 3.84561 0
M  V30 4711 H 448.47 2.55656 4.57974 0
M  V30 4712 H 449.944 1.06495 5.4163 0
M  V30 4713 H 450.421 -0.280273 4.38305 0
M  V30 4714 H 451.027 1.35456 4.03152 0
M  V30 4715 N 449.342 -1.36122 0.79427 0
M  V30 4716 C 450.305 -2.28309 0.201889 0
M  V30 4717 C 451.305 -1.49041 -0.603603 0
M  V30 4718 O 452.495 -1.68964 -0.423888 0
M  V30 4719 C 449.627 -3.3321 -0.719978 0
M  V30 4720 H 450.82 -2.82208 1.01481 0
M  V30 4721 H 448.373 -1.45768 0.564037 0
M  V30 4722 H 449.108 -2.84475 -1.55706 0
M  V30 4723 H 448.893 -3.91835 -0.144266 0
M  V30 4724 H 450.383 -4.02044 -1.12916 0
M  V30 4725 N 450.82 -0.546701 -1.47814 0
M  V30 4726 C 451.753 0.254472 -2.26777 0
M  V30 4727 C 452.731 0.929809 -1.33392 0
M  V30 4728 O 453.915 0.950889 -1.62759 0
M  V30 4729 C 451.042 1.36171 -3.10121 0
M  V30 4730 C 450.088 0.796038 -4.19005 0
M  V30 4731 S 450.921 -0.349191 -5.3436 0
M  V30 4732 C 452.077 0.760122 -6.21267 0
M  V30 4733 H 452.31 -0.415612 -2.94381 0
M  V30 4734 H 449.843 -0.332809 -1.5077 0
M  V30 4735 H 451.801 1.99588 -3.58713 0
M  V30 4736 H 450.462 2.00359 -2.41899 0
M  V30 4737 H 449.655 1.62719 -4.7701 0
M  V30 4738 H 449.257 0.238246 -3.7324 0
M  V30 4739 H 451.549 1.65479 -6.5698 0
M  V30 4740 H 452.492 0.217673 -7.07765 0
M  V30 4741 H 452.9 1.04806 -5.54685 0
M  V30 4742 N 452.299 1.55045 -0.282633 0
M  V30 4743 C 453.576 1.9179 0.384166 0
M  V30 4744 C 453.956 1.20778 1.73136 0
M  V30 4745 O 453.304 0.33719 2.25998 0
M  V30 4746 C 453.514 3.45149 0.517014 0
M  V30 4747 C 454.862 4.17064 0.796427 0
M  V30 4748 O 455.886 3.51084 0.601535 0
M  V30 4749 O 454.745 5.33837 1.16962 0
M  V30 4750 H 451.839 0.799483 0.211558 0
M  V30 4751 H 454.385 1.66474 -0.32934 0
M  V30 4752 H 453.157 3.88922 -0.430772 0
M  V30 4753 H 452.78 3.76443 1.2797 0
M  V30 4754 N 453.777 0.010035 1.57597 0
M  V30 4755 C 455.023 -0.673697 1.91283 0
M  V30 4756 C 455.356 -1.72863 0.884979 0
M  V30 4757 O 454.631 -1.94268 -0.0949487 0
M  V30 4758 C 454.914 -1.30766 3.35518 0
M  V30 4759 C 454.767 -0.263578 4.49027 0
M  V30 4760 C 456.086 -2.23105 3.79358 0
M  V30 4761 H 453.205 -0.243439 0.695634 0
M  V30 4762 H 455.847 0.0633864 1.89894 0
M  V30 4763 H 453.997 -1.93588 3.36832 0
M  V30 4764 H 455.669 0.365738 4.59848 0
M  V30 4765 H 453.912 0.413077 4.31829 0
M  V30 4766 H 454.583 -0.746398 5.4693 0
M  V30 4767 H 457.059 -1.70289 3.79659 0
M  V30 4768 H 455.935 -2.64424 4.81011 0
M  V30 4769 H 456.196 -3.11433 3.13787 0
M  V30 4770 N 455.255 -1.55392 -0.262866 0
M  V30 4771 C 456.502 -1.76476 -0.993109 0
M  V30 4772 C 456.83 -0.571479 -1.85915 0
M  V30 4773 O 456.085 0.445733 -1.90556 0
M  V30 4774 C 456.384 -3.02889 -1.89718 0
M  V30 4775 C 456.05 -4.34974 -1.18781 0
M  V30 4776 C 454.712 -4.7087 -0.991699 0
M  V30 4777 C 457.064 -5.16695 -0.683798 0
M  V30 4778 C 454.392 -5.86036 -0.279024 0
M  V30 4779 C 456.744 -6.32598 0.0153327 0
M  V30 4780 C 455.408 -6.67127 0.223062 0
M  V30 4781 H 454.678 -0.64577 -0.363404 0
M  V30 4782 H 457.325 -1.89664 -0.264525 0
M  V30 4783 H 455.63 -2.84644 -2.6923 0
M  V30 4784 H 457.327 -3.16399 -2.46359 0
M  V30 4785 H 453.917 -4.06765 -1.35058 0
M  V30 4786 H 458.101 -4.8943 -0.8229 0
M  V30 4787 H 453.357 -6.11306 -0.107456 0
M  V30 4788 H 457.531 -6.95171 0.413584 0
M  V30 4789 H 455.158 -7.56216 0.777265 0
M  V30 4790 N 456.733 0.527833 -1.48498 0
M  V30 4791 C 457.979 1.28545 -1.56857 0
M  V30 4792 C 458.312 1.92678 -0.242651 0
M  V30 4793 O 457.587 1.79394 0.751545 0
M  V30 4794 C 457.87 2.37314 -2.70839 0
M  V30 4795 C 457.723 1.77858 -4.13142 0
M  V30 4796 C 459.042 3.39068 -2.80573 0
M  V30 4797 H 456.161 0.466006 -0.570971 0
M  V30 4798 H 458.803 0.587784 -1.8068 0
M  V30 4799 H 456.953 2.96821 -2.50658 0
M  V30 4800 H 458.625 1.22385 -4.44769 0
M  V30 4801 H 456.868 1.08383 -4.20042 0
M  V30 4802 H 457.539 2.56624 -4.88721 0
M  V30 4803 H 460.015 2.89518 -2.98862 0
M  V30 4804 H 458.891 4.12566 -3.6205 0
M  V30 4805 H 459.152 3.9975 -1.88818 0
M  V30 4806 N 458.211 1.37122 0.776871 0
M  V30 4807 C 459.451 1.33441 1.54831 0
M  V30 4808 C 459.815 -0.0818963 1.91825 0
M  V30 4809 O 461.016 -0.24338 2.67696 0
M  V30 4810 C 459.287 2.24267 2.78279 0
M  V30 4811 S 460.846 2.38389 3.68397 0
M  V30 4812 H 457.664 0.473791 0.530135 0
M  V30 4813 H 460.266 1.7282 0.913968 0
M  V30 4814 H 458.97 3.261 2.49173 0
M  V30 4815 H 458.501 1.85953 3.46677 0
M  V30 4816 H 460.516 1.59068 4.70013 0
M  V30 4817 N 459.689 -1.00246 1.21608 0
M  V30 4818 C 460.917 -1.77631 1.06089 0
M  V30 4819 C 461.332 -1.84746 -0.38916 0
M  V30 4820 O 460.689 -1.31068 -1.26994 0
M  V30 4821 C 460.74 -3.21415 1.65453 0
M  V30 4822 O 460.461 -3.14703 3.04785 0
M  V30 4823 C 461.962 -4.15289 1.55079 0
M  V30 4824 H 459.182 -0.558162 0.37242 0
M  V30 4825 H 461.726 -1.26093 1.60999 0
M  V30 4826 H 459.881 -3.70053 1.14629 0
M  V30 4827 H 460.295 -4.05056 3.33212 0
M  V30 4828 H 461.769 -5.13965 2.01355 0
M  V30 4829 H 462.246 -4.36279 0.505665 0
M  V30 4830 H 462.852 -3.72543 2.05163 0
M  V30 4831 N 461.167 -1.02423 -1.1978 0
M  V30 4832 C 462.397 -0.736387 -1.93031 0
M  V30 4833 C 462.805 0.708023 -1.75453 0
M  V30 4834 O 462.148 1.4927 -1.07071 0
M  V30 4835 C 462.21 -1.00194 -3.45255 0
M  V30 4836 C 461.874 -2.43698 -3.86601 0
M  V30 4837 C 462.871 -3.41814 -3.91738 0
M  V30 4838 C 460.556 -2.77975 -4.18372 0
M  V30 4839 C 462.55 -4.72265 -4.28071 0
M  V30 4840 C 460.237 -4.08636 -4.54378 0
M  V30 4841 C 461.235 -5.05592 -4.59201 0
M  V30 4842 O 460.923 -6.33914 -4.94376 0
M  V30 4843 H 460.655 -0.269116 -0.620123 0
M  V30 4844 H 463.209 -1.37043 -1.52998 0
M  V30 4845 H 461.439 -0.310747 -3.85449 0
M  V30 4846 H 463.128 -0.704488 -3.9974 0
M  V30 4847 H 463.894 -3.16671 -3.67348 0
M  V30 4848 H 459.773 -2.0319 -4.13805 0
M  V30 4849 H 463.317 -5.4794 -4.3175 0
M  V30 4850 H 459.214 -4.33556 -4.78226 0
M  V30 4851 H 459.982 -6.38317 -5.12341 0
M  V30 4852 N 462.645 1.35699 -0.801477 0
M  V30 4853 C 463.892 1.98913 -0.379459 0
M  V30 4854 C 464.22 1.63592 1.05204 0
M  V30 4855 O 463.475 0.888563 1.74365 0
M  V30 4856 C 463.774 3.53828 -0.504041 0
M  V30 4857 C 463.44 4.09002 -1.8981 0
M  V30 4858 C 462.102 4.23783 -2.27951 0
M  V30 4859 C 464.454 4.38939 -2.81038 0
M  V30 4860 C 461.782 4.65816 -3.56696 0
M  V30 4861 C 464.134 4.82409 -4.09224 0
M  V30 4862 C 462.798 4.95395 -4.4737 0
M  V30 4863 H 462.068 0.727874 -0.138854 0
M  V30 4864 H 464.715 1.61994 -1.02128 0
M  V30 4865 H 463.02 3.91175 0.221242 0
M  V30 4866 H 464.717 4.00687 -0.158361 0
M  V30 4867 H 461.307 3.97946 -1.59176 0
M  V30 4868 H 465.491 4.27077 -2.52821 0
M  V30 4869 H 460.747 4.74059 -3.86106 0
M  V30 4870 H 464.921 5.04535 -4.80018 0
M  V30 4871 H 462.548 5.27724 -5.47185 0
M  V30 4872 N 464.123 0.554532 1.47522 0
M  V30 4873 C 465.056 -0.242442 2.26908 0
M  V30 4874 C 466.034 -0.922722 1.33883 0
M  V30 4875 O 467.218 -0.942244 1.63261 0
M  V30 4876 C 464.345 -1.34525 3.10839 0
M  V30 4877 C 463.391 -0.773805 4.19422 0
M  V30 4878 S 464.224 0.377525 5.34168 0
M  V30 4879 C 465.38 -0.727164 6.21662 0
M  V30 4880 H 465.613 0.431218 2.94156 0
M  V30 4881 H 463.146 0.3408 1.50592 0
M  V30 4882 H 465.104 -1.97683 3.59766 0
M  V30 4883 H 463.765 -1.99073 2.42958 0
M  V30 4884 H 462.958 -1.60187 4.77866 0
M  V30 4885 H 462.56 -0.218448 3.73361 0
M  V30 4886 H 464.852 -1.61992 6.57849 0
M  V30 4887 H 465.795 -0.180135 7.07871 0
M  V30 4888 H 466.203 -1.01863 5.55233 0
M  V30 4889 N 465.601 -1.54893 0.290851 0
M  V30 4890 C 467.012 -1.85584 -0.203816 0
M  V30 4891 C 467.363 -1.21285 -1.54222 0
M  V30 4892 O 466.488 -0.506841 -2.10381 0
M  V30 4893 C 467.083 -3.367 -0.376595 0
M  V30 4894 C 465.642 -3.6746 -0.815485 0
M  V30 4895 C 464.789 -2.77178 0.0821087 0
M  V30 4896 H 467.74 -1.50208 0.512175 0
M  V30 4897 H 467.761 -3.60656 -1.21275 0
M  V30 4898 H 467.273 -3.8347 0.59767 0
M  V30 4899 H 465.374 -3.26201 -1.80066 0
M  V30 4900 H 465.487 -4.7478 -0.641905 0
M  V30 4901 H 463.851 -2.50925 -0.436895 0
M  V30 4902 H 464.634 -3.26767 1.05254 0
M  V30 4903 N 467.08 -0.0183926 -1.57589 0
M  V30 4904 C 468.043 0.951986 -2.08494 0
M  V30 4905 C 469.043 1.26092 -0.997874 0
M  V30 4906 O 470.233 1.20304 -1.25987 0
M  V30 4907 C 467.365 2.27165 -2.54182 0
M  V30 4908 H 468.558 0.511307 -2.95509 0
M  V30 4909 H 466.111 0.229444 -1.54607 0
M  V30 4910 H 466.846 2.75884 -1.70465 0
M  V30 4911 H 466.631 2.06057 -3.33591 0
M  V30 4912 H 468.121 2.9674 -2.93828 0
M  V30 4913 N 468.558 1.5553 0.254621 0
M  V30 4914 C 469.521 1.88872 1.29846 0
M  V30 4915 C 470.521 0.764591 1.41459 0
M  V30 4916 O 471.711 1.03265 1.40293 0
M  V30 4917 C 468.843 2.11032 2.67728 0
M  V30 4918 H 470.036 2.82201 1.01502 0
M  V30 4919 H 467.589 1.48303 0.493556 0
M  V30 4920 H 468.324 1.20146 3.01223 0
M  V30 4921 H 468.109 2.92895 2.60682 0
M  V30 4922 H 469.599 2.38038 3.43115 0
M  V30 4923 N 470.036 -0.519951 1.48776 0
M  V30 4924 C 470.968 -1.63973 1.60142 0
M  V30 4925 C 471.981 -1.55404 0.485117 0
M  V30 4926 O 473.17 -1.61682 0.756391 0
M  V30 4927 C 470.27 -3.02676 1.52449 0
M  V30 4928 C 469.443 -3.36624 2.79291 0
M  V30 4929 C 468.502 -4.54652 2.64912 0
M  V30 4930 O 467.528 -4.57374 3.38818 0
M  V30 4931 N 468.73 -5.53432 1.75195 0
M  V30 4932 H 471.495 -1.54656 2.56713 0
M  V30 4933 H 469.056 -0.707439 1.45626 0
M  V30 4934 H 471.048 -3.79525 1.4051 0
M  V30 4935 H 469.618 -3.06018 0.638125 0
M  V30 4936 H 468.838 -2.48855 3.0572 0
M  V30 4937 H 470.126 -3.56094 3.6342 0
M  V30 4938 H 469.524 -5.54018 1.14371 0
M  V30 4939 H 468.081 -6.29459 1.69189 0
M  V30 4940 N 471.514 -1.37532 -0.769588 0
M  V30 4941 C 472.444 -1.36172 -1.89682 0
M  V30 4942 C 473.425 -0.23001 -1.68538 0
M  V30 4943 O 474.61 -0.43069 -1.89364 0
M  V30 4944 C 471.74 -1.1701 -3.26995 0
M  V30 4945 C 470.694 -2.27216 -3.62708 0
M  V30 4946 C 470.02 -1.93174 -4.98586 0
M  V30 4947 C 471.32 -3.6941 -3.69234 0
M  V30 4948 H 473.014 -2.30499 -1.91078 0
M  V30 4949 H 470.56 -1.10953 -0.917902 0
M  V30 4950 H 472.513 -1.14688 -4.05493 0
M  V30 4951 H 471.237 -0.191395 -3.26039 0
M  V30 4952 H 469.896 -2.28697 -2.86519 0
M  V30 4953 H 469.544 -0.938281 -4.94171 0
M  V30 4954 H 469.244 -2.66973 -5.23449 0
M  V30 4955 H 470.768 -1.92443 -5.79481 0
M  V30 4956 H 472.182 -3.70047 -4.37879 0
M  V30 4957 H 470.579 -4.4228 -4.05597 0
M  V30 4958 H 471.649 -4.0288 -2.69844 0
M  V30 4959 N 472.992 0.995999 -1.22138 0
M  V30 4960 C 474.403 1.54961 -1.04135 0
M  V30 4961 C 474.754 1.92159 0.396147 0
M  V30 4962 O 473.879 1.74435 1.28069 0
M  V30 4963 C 474.474 2.81581 -1.88408 0
M  V30 4964 C 473.033 3.33396 -1.74712 0
M  V30 4965 C 472.18 2.06509 -1.85066 0
M  V30 4966 H 475.131 0.817436 -1.36028 0
M  V30 4967 H 475.152 3.53822 -1.39966 0
M  V30 4968 H 474.664 2.54476 -2.93025 0
M  V30 4969 H 472.765 3.65416 -0.728159 0
M  V30 4970 H 472.878 4.04208 -2.57202 0
M  V30 4971 H 471.242 2.19925 -1.28472 0
M  V30 4972 H 472.025 1.81804 -2.91208 0
M  V30 4973 N 474.47 1.03057 1.19235 0
M  V30 4974 C 475.38 0.622922 2.26179 0
M  V30 4975 C 476.396 -0.346113 1.70523 0
M  V30 4976 O 477.572 -0.203572 2.00369 0
M  V30 4977 C 474.637 -0.0182063 3.46695 0
M  V30 4978 C 473.698 0.998546 4.17526 0
M  V30 4979 C 472.931 0.387917 5.32288 0
M  V30 4980 O 473.154 -0.808668 5.64639 0
M  V30 4981 O 472.088 1.1116 5.91546 0
M  V30 4982 H 475.914 1.51363 2.63292 0
M  V30 4983 H 473.499 0.800856 1.26122 0
M  V30 4984 H 475.381 -0.375606 4.19723 0
M  V30 4985 H 474.056 -0.882895 3.11427 0
M  V30 4986 H 472.963 1.40756 3.4661 0
M  V30 4987 H 474.296 1.83366 4.56769 0
M  V30 4988 N 475.948 -1.35272 0.808662 0
M  V30 4989 C 476.878 -2.32315 0.234981 0
M  V30 4990 C 477.859 -1.57572 -0.64071 0
M  V30 4991 O 479.044 -1.8563 -0.570551 0
M  V30 4992 C 476.174 -3.41801 -0.615601 0
M  V30 4993 C 475.128 -4.27694 0.161767 0
M  V30 4994 C 474.454 -5.28519 -0.810649 0
M  V30 4995 C 475.754 -5.04231 1.36193 0
M  V30 4996 H 477.448 -2.80543 1.04575 0
M  V30 4997 H 474.994 -1.3488 0.504315 0
M  V30 4998 H 476.947 -4.08693 -1.02702 0
M  V30 4999 H 475.671 -2.92186 -1.45928 0
M  V30 5000 H 474.33 -3.62384 0.554382 0
M  V30 5001 H 473.978 -4.75171 -1.64988 0
M  V30 5002 H 473.678 -5.8686 -0.294822 0
M  V30 5003 H 475.202 -5.98283 -1.22023 0
M  V30 5004 H 476.616 -5.64058 1.02528 0
M  V30 5005 H 475.013 -5.72077 1.81239 0
M  V30 5006 H 476.083 -4.34753 2.14751 0
M  V30 5007 N 477.426 -0.562348 -1.47226 0
M  V30 5008 C 478.837 -0.130325 -1.86245 0
M  V30 5009 C 479.188 1.30128 -1.46838 0
M  V30 5010 O 478.313 1.97974 -0.873805 0
M  V30 5011 C 478.908 -0.229738 -3.3802 0
M  V30 5012 C 477.467 0.14728 -3.76112 0
M  V30 5013 C 476.614 -0.574971 -2.71274 0
M  V30 5014 H 479.565 -0.771773 -1.3867 0
M  V30 5015 H 479.586 0.550316 -3.76499 0
M  V30 5016 H 479.098 -1.27178 -3.66671 0
M  V30 5017 H 477.199 1.19023 -3.53078 0
M  V30 5018 H 477.312 -0.214858 -4.78618 0
M  V30 5019 H 475.676 -0.0174756 -2.54694 0
M  V30 5020 H 476.459 -1.61827 -3.02766 0
M  V30 5021 N 478.904 1.54736 -0.299062 0
M  V30 5022 C 480.181 1.92187 0.363802 0
M  V30 5023 C 480.561 1.22607 1.71845 0
M  V30 5024 O 479.909 0.361141 2.25628 0
M  V30 5025 C 480.119 3.45678 0.480377 0
M  V30 5026 C 481.467 4.17885 0.752147 0
M  V30 5027 O 482.491 3.51702 0.564264 0
M  V30 5028 O 481.35 5.35048 1.11294 0
M  V30 5029 H 478.444 0.801681 0.203066 0
M  V30 5030 H 480.99 1.66115 -0.346978 0
M  V30 5031 H 479.762 3.88443 -0.471999 0
M  V30 5032 H 479.385 3.77779 1.2397 0
M  V30 5033 N 480.382 0.0267497 1.57577 0
M  V30 5034 C 481.628 -0.653371 1.91987 0
M  V30 5035 C 481.961 -1.71915 0.903263 0
M  V30 5036 O 481.236 -1.94358 -0.0743387 0
M  V30 5037 C 481.519 -1.272 3.36886 0
M  V30 5038 C 481.372 -0.215938 4.49281 0
M  V30 5039 C 482.691 -2.19069 3.81703 0
M  V30 5040 H 479.81 -0.236047 0.698177 0
M  V30 5041 H 482.452 0.0835236 1.89816 0
M  V30 5042 H 480.602 -1.90005 3.38866 0
M  V30 5043 H 482.274 0.41449 4.59434 0
M  V30 5044 H 480.517 0.458855 4.31366 0
M  V30 5045 H 481.188 -0.688347 5.47691 0
M  V30 5046 H 483.664 -1.66253 3.81444 0
M  V30 5047 H 482.54 -2.59307 4.83788 0
M  V30 5048 H 482.801 -3.08087 3.17072 0
M  V30 5049 N 481.861 -1.55662 -0.24637 0
M  V30 5050 C 482.771 -1.93495 -1.32653 0
M  V30 5051 C 483.787 -0.835462 -1.5263 0
M  V30 5052 O 484.963 -1.1369 -1.66242 0
M  V30 5053 C 482.028 -2.22242 -2.66101 0
M  V30 5054 C 481.089 -3.45625 -2.54641 0
M  V30 5055 C 480.322 -3.72991 -3.81724 0
M  V30 5056 O 480.545 -3.02421 -4.8363 0
M  V30 5057 O 479.479 -4.66515 -3.80325 0
M  V30 5058 H 483.305 -2.85498 -1.03559 0
M  V30 5059 H 480.89 -1.42551 -0.44717 0
M  V30 5060 H 482.772 -2.42037 -3.44958 0
M  V30 5061 H 481.447 -1.33417 -2.94926 0
M  V30 5062 H 480.354 -3.31136 -1.74067 0
M  V30 5063 H 481.687 -4.34754 -2.3076 0
M  V30 5064 N 483.339 0.512053 -1.4905 0
M  V30 5065 C 484.269 1.62365 -1.67809 0
M  V30 5066 C 485.25 1.61737 -0.526809 0
M  V30 5067 O 486.435 1.78651 -0.761404 0
M  V30 5068 C 483.565 3.00895 -1.73435 0
M  V30 5069 C 482.519 3.16387 -2.88242 0
M  V30 5070 C 481.845 4.56157 -2.78971 0
M  V30 5071 C 483.145 2.97457 -4.29321 0
M  V30 5072 H 484.839 1.46921 -2.60873 0
M  V30 5073 H 482.385 0.705379 -1.2554 0
M  V30 5074 H 484.338 3.78549 -1.85145 0
M  V30 5075 H 483.062 3.17403 -0.769619 0
M  V30 5076 H 481.721 2.41155 -2.76116 0
M  V30 5077 H 481.369 4.69525 -1.8043 0
M  V30 5078 H 481.069 4.67465 -3.5602 0
M  V30 5079 H 482.593 5.35886 -2.92675 0
M  V30 5080 H 484.007 3.64888 -4.42187 0
M  V30 5081 H 482.404 3.20245 -5.07507 0
M  V30 5082 H 483.474 1.93692 -4.44535 0
M  V30 5083 N 484.817 1.37938 0.762283 0
M  V30 5084 C 486.228 1.30094 1.33912 0
M  V30 5085 C 486.579 -0.0472026 1.96143 0
M  V30 5086 O 485.704 -0.94917 1.94473 0
M  V30 5087 C 486.299 2.35592 2.43478 0
M  V30 5088 C 484.858 2.31353 2.96905 0
M  V30 5089 C 484.005 2.18919 1.70205 0
M  V30 5090 H 486.956 1.48423 0.561816 0
M  V30 5091 H 486.977 2.00806 3.23199 0
M  V30 5092 H 486.489 3.33701 1.98155 0
M  V30 5093 H 484.59 1.36799 3.46579 0
M  V30 5094 H 484.703 3.25147 3.51875 0
M  V30 5095 H 483.067 1.65624 1.93496 0
M  V30 5096 H 483.85 3.18956 1.26973 0
M  V30 5097 N 486.295 -0.989507 1.22664 0
M  V30 5098 C 487.523 -1.76496 1.07967 0
M  V30 5099 C 487.938 -1.85148 -0.369543 0
M  V30 5100 O 487.295 -1.32408 -1.25596 0
M  V30 5101 C 487.346 -3.19642 1.68853 0
M  V30 5102 O 487.067 -3.11453 3.08105 0
M  V30 5103 C 488.568 -4.13621 1.59475 0
M  V30 5104 H 485.788 -0.55418 0.378319 0
M  V30 5105 H 488.332 -1.24378 1.62328 0
M  V30 5106 H 486.487 -3.68816 1.18547 0
M  V30 5107 H 486.901 -4.01499 3.37489 0
M  V30 5108 H 488.375 -5.11801 2.06795 0
M  V30 5109 H 488.852 -4.35718 0.55191 0
M  V30 5110 H 489.458 -3.70346 2.09103 0
M  V30 5111 N 487.773 -1.03688 -1.18687 0
M  V30 5112 C 488.721 -0.618292 -2.24232 0
M  V30 5113 C 489.715 0.353045 -1.6568 0
M  V30 5114 O 490.921 0.220749 -1.78641 0
M  V30 5115 H 487.296 -0.181711 -0.729716 0
M  V30 5116 H 489.267 -1.51893 -2.56848 0
M  V30 5117 C 488.016 0.00677342 -3.47699 0
M  V30 5118 H 487.339 -0.731692 -3.93047 0
M  V30 5119 H 488.779 0.262492 -4.23187 0
M  V30 5120 C 487.238 1.25572 -3.12623 0
M  V30 5121 O 487.768 2.34691 -3.26011 0
M  V30 5122 N 485.974 1.14755 -2.66982 0
M  V30 5123 H 485.521 0.259601 -2.56289 0
M  V30 5124 H 485.479 1.98412 -2.43885 0
M  V30 5125 N 489.251 1.34841 -0.815825 0
M  V30 5126 C 490.198 2.29644 -0.230664 0
M  V30 5127 C 491.168 1.53253 0.640533 0
M  V30 5128 O 492.353 1.81653 0.583672 0
M  V30 5129 C 489.493 3.39715 0.607275 0
M  V30 5130 C 488.606 4.31056 -0.28538 0
M  V30 5131 C 487.741 5.28225 0.561446 0
M  V30 5132 C 486.78 6.11204 -0.331035 0
M  V30 5133 N 485.917 7.00483 0.476302 0
M  V30 5134 H 490.757 2.79095 -1.0445 0
M  V30 5135 H 488.294 1.37351 -0.526595 0
M  V30 5136 H 490.252 4.02208 1.10835 0
M  V30 5137 H 488.882 2.91517 1.38629 0
M  V30 5138 H 487.934 3.69487 -0.904621 0
M  V30 5139 H 489.246 4.89239 -0.97193 0
M  V30 5140 H 488.4 5.96135 1.12728 0
M  V30 5141 H 487.139 4.70562 1.28153 0
M  V30 5142 H 486.144 5.42232 -0.909069 0
M  V30 5143 H 487.369 6.70947 -1.04912 0
M  V30 5144 H 485.315 6.45296 1.18019 0
M  V30 5145 H 485.232 7.55847 -0.152008 0
M  V30 5146 H 486.5 7.7273 1.02512 0
M  V30 5147 N 490.729 0.570148 1.46925 0
M  V30 5148 C 492.006 -0.0153259 1.95594 0
M  V30 5149 C 492.386 -1.47232 1.51281 0
M  V30 5150 O 491.734 -2.15574 0.757624 0
M  V30 5151 C 491.944 0.143624 3.48704 0
M  V30 5152 C 493.292 0.00494484 4.246 0
M  V30 5153 O 494.316 0.0718214 3.56128 0
M  V30 5154 O 493.175 -0.141175 5.46318 0
M  V30 5155 H 490.269 -0.0568819 0.825041 0
M  V30 5156 H 492.815 0.637583 1.57267 0
M  V30 5157 H 491.587 1.15699 3.73804 0
M  V30 5158 H 491.21 -0.5463 3.93829 0
M  V30 5159 N 492.207 -1.54576 0.307264 0
M  V30 5160 C 493.453 -2.0056 -0.300612 0
M  V30 5161 C 493.786 -1.1953 -1.53057 0
M  V30 5162 O 493.061 -0.27337 -1.92569 0
M  V30 5163 C 493.344 -3.54167 -0.650987 0
M  V30 5164 C 493.197 -4.45933 0.588539 0
M  V30 5165 C 494.516 -4.14645 -1.47506 0
M  V30 5166 H 491.635 -0.729075 -0.107788 0
M  V30 5167 H 494.277 -1.85286 0.420606 0
M  V30 5168 H 492.427 -3.67313 -1.26544 0
M  V30 5169 H 494.099 -4.44683 1.22697 0
M  V30 5170 H 492.342 -4.16274 1.22058 0
M  V30 5171 H 493.013 -5.51189 0.299153 0
M  V30 5172 H 495.489 -4.04973 -0.955821 0
M  V30 5173 H 494.365 -5.22269 -1.68899 0
M  V30 5174 H 494.626 -3.66921 -2.4662 0
M  V30 5175 N 493.685 -0.035106 -1.57561 0
M  V30 5176 C 494.925 0.646316 -1.93913 0
M  V30 5177 C 495.289 1.68947 -0.912185 0
M  V30 5178 O 496.49 2.42381 -1.1621 0
M  V30 5179 C 494.761 1.24136 -3.35149 0
M  V30 5180 S 496.32 1.94302 -3.93436 0
M  V30 5181 H 493.138 0.212642 -0.678457 0
M  V30 5182 H 495.74 -0.100203 -1.95243 0
M  V30 5183 H 494.444 0.46979 -4.07702 0
M  V30 5184 H 493.975 2.02505 -3.37276 0
M  V30 5185 H 495.99 3.22205 -3.77357 0
M  V30 5186 N 495.163 1.55791 0.238111 0
M  V30 5187 C 496.44 1.68798 0.98826 0
M  V30 5188 C 496.82 0.577562 2.03045 0
M  V30 5189 O 496.168 -0.41778 2.24648 0
M  V30 5190 C 496.378 3.09454 1.61367 0
M  V30 5191 C 497.726 3.68335 2.11221 0
M  V30 5192 O 498.75 3.1231 1.71292 0
M  V30 5193 O 497.609 4.6657 2.84561 0
M  V30 5194 H 494.703 0.686881 0.460568 0
M  V30 5195 H 497.249 1.68118 0.231202 0
M  V30 5196 H 496.021 3.81726 0.860295 0
M  V30 5197 H 495.644 3.14182 2.4367 0
M  V30 5198 N 496.642 -0.504142 1.49319 0
M  V30 5199 C 498.053 -1.08572 1.51885 0
M  V30 5200 C 498.404 -1.93842 0.303255 0
M  V30 5201 O 497.529 -2.0828 -0.58724 0
M  V30 5202 C 498.124 -1.97574 2.75227 0
M  V30 5203 C 496.683 -2.509 2.80581 0
M  V30 5204 C 495.83 -1.28447 2.45757 0
M  V30 5205 H 498.781 -0.288194 1.56061 0
M  V30 5206 H 498.802 -2.82219 2.55211 0
M  V30 5207 H 498.314 -1.35486 3.63683 0
M  V30 5208 H 496.415 -3.16636 1.96398 0
M  V30 5209 H 496.528 -2.88268 3.82673 0
M  V30 5210 H 494.892 -1.60868 1.97468 0
M  V30 5211 H 495.675 -0.68072 3.36483 0
M  V30 5212 N 498.12 -1.38341 -0.754957 0
M  V30 5213 C 499.368 -1.34208 -1.51105 0
M  V30 5214 C 499.689 0.0677634 -1.94882 0
M  V30 5215 O 498.959 1.01517 -1.67544 0
M  V30 5216 H 497.539 -0.493819 -0.560493 0
M  V30 5217 H 500.201 -1.73005 -0.897507 0
M  V30 5218 H 499.297 -1.99203 -2.4026 0
M  V30 5219 N 499.598 0.982988 -1.23187 0
M  V30 5220 C 500.546 2.09616 -1.00817 0
M  V30 5221 C 501.54 1.6932 0.0519995 0
M  V30 5222 O 502.746 1.79715 -0.101284 0
M  V30 5223 H 499.121 0.685628 -0.308899 0
M  V30 5224 H 501.092 2.25652 -1.95253 0
M  V30 5225 C 499.841 3.42249 -0.613243 0
M  V30 5226 H 499.164 3.73705 -1.42073 0
M  V30 5227 H 500.604 4.21086 -0.496208 0
M  V30 5228 C 499.063 3.30002 0.678233 0
M  V30 5229 O 499.593 3.6263 1.72807 0
M  V30 5230 N 497.799 2.83164 0.653165 0
M  V30 5231 H 497.346 2.56811 -0.201492 0
M  V30 5232 H 497.304 2.75352 1.51752 0
M  V30 5233 N 501.076 1.04316 1.18135 0
M  V30 5234 C 502.304 0.768117 1.92113 0
M  V30 5235 C 502.719 -0.675057 1.76319 0
M  V30 5236 O 502.076 -1.46038 1.09449 0
M  V30 5237 C 502.127 1.12808 3.43448 0
M  V30 5238 O 501.848 2.5146 3.58747 0
M  V30 5239 C 503.349 0.8779 4.3452 0
M  V30 5240 H 500.569 0.279937 0.609817 0
M  V30 5241 H 503.113 1.39149 1.49859 0
M  V30 5242 H 501.268 0.549623 3.83481 0
M  V30 5243 H 501.682 2.65313 4.52448 0
M  V30 5244 H 503.156 1.17959 5.39249 0
M  V30 5245 H 503.633 -0.187239 4.38801 0
M  V30 5246 H 504.239 1.43977 4.00188 0
M  V30 5247 N 502.554 -1.34406 0.822964 0
M  V30 5248 C 503.501 -2.29519 0.24284 0
M  V30 5249 C 504.471 -1.5359 -0.632397 0
M  V30 5250 O 505.656 -1.8196 -0.57403 0
M  V30 5251 C 502.796 -3.40032 -0.58925 0
M  V30 5252 C 501.909 -4.30899 0.308236 0
M  V30 5253 C 501.044 -5.28515 -0.533425 0
M  V30 5254 C 500.083 -6.1102 0.363444 0
M  V30 5255 N 499.22 -7.00725 -0.439147 0
M  V30 5256 H 504.06 -2.78537 1.05929 0
M  V30 5257 H 501.597 -1.3707 0.533872 0
M  V30 5258 H 503.555 -4.0279 -1.087 0
M  V30 5259 H 502.185 -2.92248 -1.37081 0
M  V30 5260 H 501.237 -3.69002 0.924203 0
M  V30 5261 H 502.549 -4.88717 0.997862 0
M  V30 5262 H 501.703 -5.96725 -1.09565 0
M  V30 5263 H 500.442 -4.71235 -1.25656 0
M  V30 5264 H 499.447 -5.41743 0.937812 0
M  V30 5265 H 500.672 -6.70381 1.08469 0
M  V30 5266 H 498.618 -6.45913 -1.14595 0
M  V30 5267 H 498.535 -7.55756 0.19209 0
M  V30 5268 H 499.803 -7.73263 -0.984124 0
M  V30 5269 N 504.032 -0.577932 -1.46621 0
M  V30 5270 C 505.278 -0.0617793 -2.02706 0
M  V30 5271 C 505.611 1.29294 -1.44903 0
M  V30 5272 O 504.886 1.8461 -0.61232 0
M  V30 5273 C 505.169 0.00911824 -3.60099 0
M  V30 5274 C 505.022 -1.37416 -4.28295 0
M  V30 5275 C 506.341 0.712159 -4.343 0
M  V30 5276 H 503.46 -0.0239246 -0.736612 0
M  V30 5277 H 506.102 -0.744211 -1.74818 0
M  V30 5278 H 504.252 0.590292 -3.83989 0
M  V30 5279 H 505.924 -2.00013 -4.15683 0
M  V30 5280 H 504.167 -1.94319 -3.87843 0
M  V30 5281 H 504.838 -1.27707 -5.37024 0
M  V30 5282 H 507.314 0.218486 -4.15526 0
M  V30 5283 H 506.19 0.730782 -5.44014 0
M  V30 5284 H 506.451 1.77251 -4.05012 0
M  V30 5285 N 505.51 1.54411 -0.315457 0
M  V30 5286 C 506.443 2.20265 0.596522 0
M  V30 5287 C 507.421 1.17693 1.12192 0
M  V30 5288 O 508.605 1.46397 1.18744 0
M  V30 5289 C 505.732 2.85794 1.81767 0
M  V30 5290 C 504.778 4.02017 1.42424 0
M  V30 5291 S 505.611 5.33452 0.467836 0
M  V30 5292 C 506.767 6.02471 1.69645 0
M  V30 5293 H 507 2.97277 0.0370896 0
M  V30 5294 H 504.533 1.54079 -0.0995562 0
M  V30 5295 H 506.491 3.24172 2.51839 0
M  V30 5296 H 505.152 2.08601 2.34828 0
M  V30 5297 H 504.345 4.46701 2.33396 0
M  V30 5298 H 503.947 3.65271 0.803311 0
M  V30 5299 H 506.239 6.24157 2.63504 0
M  V30 5300 H 507.182 6.96215 1.29192 0
M  V30 5301 H 507.59 5.32284 1.87974 0
M  V30 5302 N 506.988 0.0434614 1.5754 0
M  V30 5303 C 508.265 -0.671479 1.83713 0
M  V30 5304 C 508.645 -1.89495 0.930315 0
M  V30 5305 O 507.993 -2.28498 -0.0105639 0
M  V30 5306 C 508.203 -1.0361 3.33266 0
M  V30 5307 C 509.551 -1.42167 4.00092 0
M  V30 5308 O 510.575 -1.12866 3.37846 0
M  V30 5309 O 509.434 -1.96817 5.09829 0
M  V30 5310 H 506.528 -0.330726 0.75799 0
M  V30 5311 H 509.074 0.0722373 1.69546 0
M  V30 5312 H 507.846 -0.165938 3.90948 0
M  V30 5313 H 507.469 -1.83751 3.52592 0
M  V30 5314 N 508.466 -1.55915 -0.229846 0
M  V30 5315 C 509.413 -1.91734 -1.28478 0
M  V30 5316 C 510.383 -0.773539 -1.46988 0
M  V30 5317 O 511.568 -1.02871 -1.60693 0
M  V30 5318 C 508.708 -2.23224 -2.63182 0
M  V30 5319 C 507.821 -3.50497 -2.52539 0
M  V30 5320 C 506.956 -3.71474 -3.79711 0
M  V30 5321 C 505.995 -4.92289 -3.63755 0
M  V30 5322 N 505.132 -5.09698 -4.82858 0
M  V30 5323 H 509.972 -2.81692 -0.972308 0
M  V30 5324 H 507.509 -1.39429 -0.468815 0
M  V30 5325 H 509.467 -2.3949 -3.41614 0
M  V30 5326 H 508.097 -1.36451 -2.92542 0
M  V30 5327 H 507.149 -3.4247 -1.65585 0
M  V30 5328 H 508.461 -4.39079 -2.36666 0
M  V30 5329 H 507.615 -3.87791 -4.66586 0
M  V30 5330 H 506.354 -2.81157 -3.985 0
M  V30 5331 H 505.359 -4.7593 -2.75264 0
M  V30 5332 H 506.584 -5.84083 -3.46445 0
M  V30 5333 H 504.53 -4.22322 -5.01976 0
M  V30 5334 H 504.447 -5.92399 -4.69681 0
M  V30 5335 H 505.715 -5.30443 -5.71183 0
M  V30 5336 N 509.944 0.496216 -1.49584 0
M  V30 5337 C 511.174 1.27209 -1.62793 0
M  V30 5338 C 511.582 1.86799 -0.300476 0
M  V30 5339 O 510.925 1.68802 0.724674 0
M  V30 5340 C 510.987 2.43812 -2.64189 0
M  V30 5341 C 510.651 2.05055 -4.08414 0
M  V30 5342 C 511.648 1.58752 -4.9507 0
M  V30 5343 C 509.333 2.14543 -4.54177 0
M  V30 5344 C 511.327 1.22448 -6.25528 0
M  V30 5345 C 509.014 1.77851 -5.84647 0
M  V30 5346 C 510.012 1.31878 -6.70147 0
M  V30 5347 O 509.7 0.956834 -7.98185 0
M  V30 5348 H 509.432 0.391848 -0.550846 0
M  V30 5349 H 511.986 0.601712 -1.96389 0
M  V30 5350 H 510.216 3.13941 -2.25783 0
M  V30 5351 H 511.905 3.05829 -2.66877 0
M  V30 5352 H 512.671 1.50863 -4.60939 0
M  V30 5353 H 508.55 2.49277 -3.87791 0
M  V30 5354 H 512.094 0.864933 -6.92217 0
M  V30 5355 H 507.991 1.8539 -6.18305 0
M  V30 5356 H 508.759 1.08789 -8.11238 0
M  V30 5357 N 511.423 1.38739 0.74761 0
M  V30 5358 C 512.651 1.38521 1.53686 0
M  V30 5359 C 513.066 -0.0235129 1.88785 0
M  V30 5360 O 512.423 -0.991662 1.53207 0
M  V30 5361 C 512.474 2.24641 2.83229 0
M  V30 5362 O 512.195 3.60026 2.49625 0
M  V30 5363 C 513.696 2.32669 3.77333 0
M  V30 5364 H 510.916 0.473589 0.475347 0
M  V30 5365 H 513.46 1.82395 0.924786 0
M  V30 5366 H 511.615 1.84213 3.40799 0
M  V30 5367 H 512.029 4.05435 3.3275 0
M  V30 5368 H 513.503 2.97201 4.65162 0
M  V30 5369 H 513.98 1.3421 4.18192 0
M  V30 5370 H 514.586 2.73512 3.25685 0
M  V30 5371 N 512.901 -0.976442 1.23707 0
M  V30 5372 C 514.148 -1.71827 1.07153 0
M  V30 5373 C 514.476 -1.9053 -0.390982 0
M  V30 5374 O 513.731 -1.45779 -1.30564 0
M  V30 5375 C 514.03 -3.11814 1.74662 0
M  V30 5376 C 513.696 -3.12978 3.24585 0
M  V30 5377 C 512.358 -3.13003 3.6549 0
M  V30 5378 C 514.71 -3.07986 4.20469 0
M  V30 5379 C 512.038 -3.05757 5.00729 0
M  V30 5380 C 514.39 -3.02282 5.55705 0
M  V30 5381 C 513.054 -3.00631 5.95968 0
M  V30 5382 H 512.324 -0.628758 0.392102 0
M  V30 5383 H 514.971 -1.14239 1.53693 0
M  V30 5384 H 513.276 -3.72812 1.20492 0
M  V30 5385 H 514.973 -3.67989 1.59328 0
M  V30 5386 H 511.563 -3.13718 2.92026 0
M  V30 5387 H 515.747 -3.07103 3.89874 0
M  V30 5388 H 511.003 -3.02834 5.31132 0
M  V30 5389 H 515.177 -2.97376 6.29714 0
M  V30 5390 H 512.804 -2.94771 7.00724 0
M  V30 5391 N 514.379 -1.04941 -1.1758 0
M  V30 5392 C 515.289 -0.658826 -2.25159 0
M  V30 5393 C 516.305 0.318941 -1.71052 0
M  V30 5394 O 517.481 0.171669 -2.00667 0
M  V30 5395 C 514.546 -0.0369522 -3.4668 0
M  V30 5396 C 513.607 -1.06484 -4.15884 0
M  V30 5397 C 512.84 -0.472551 -5.31604 0
M  V30 5398 O 513.063 0.718736 -5.65854 0
M  V30 5399 O 511.997 -1.20557 -5.89703 0
M  V30 5400 H 515.823 -1.55533 -2.60851 0
M  V30 5401 H 513.408 -0.820819 -1.24832 0
M  V30 5402 H 515.29 0.308784 -4.20267 0
M  V30 5403 H 513.965 0.833238 -3.12792 0
M  V30 5404 H 512.872 -1.46253 -3.44327 0
M  V30 5405 H 514.205 -1.9061 -4.53794 0
M  V30 5406 N 515.857 1.33968 -0.830081 0
M  V30 5407 C 516.787 2.31911 -0.271911 0
M  V30 5408 C 517.768 1.58571 0.61556 0
M  V30 5409 O 518.953 1.86514 0.540946 0
M  V30 5410 C 516.083 3.42737 0.561146 0
M  V30 5411 C 515.037 4.27383 -0.229789 0
M  V30 5412 C 514.363 5.29742 0.726463 0
M  V30 5413 C 515.663 5.02 -1.44197 0
M  V30 5414 H 517.357 2.78844 -1.09025 0
M  V30 5415 H 514.903 1.34061 -0.52571 0
M  V30 5416 H 516.856 4.10276 0.961867 0
M  V30 5417 H 515.58 2.94471 1.41261 0
M  V30 5418 H 514.239 3.61456 -0.611964 0
M  V30 5419 H 513.887 4.77736 1.57408 0
M  V30 5420 H 513.587 5.87255 0.20142 0
M  V30 5421 H 515.111 6.00149 1.12489 0
M  V30 5422 H 516.525 5.62355 -1.11488 0
M  V30 5423 H 514.922 5.69122 -1.90317 0
M  V30 5424 H 515.992 4.31281 -2.2164 0
M  V30 5425 N 517.335 0.585699 1.46312 0
M  V30 5426 C 518.56 0.0762461 2.0726 0
M  V30 5427 C 518.985 -1.22071 1.43109 0
M  V30 5428 O 518.343 -1.73804 0.515942 0
M  V30 5429 C 518.391 -0.0729404 3.60526 0
M  V30 5430 O 517.495 -1.1287 3.96654 0
M  V30 5431 H 516.836 0.0641558 0.660893 0
M  V30 5432 H 519.366 0.809492 1.87905 0
M  V30 5433 H 519.376 -0.278158 4.07051 0
M  V30 5434 H 518.051 0.874188 4.06609 0
M  V30 5435 H 516.628 -0.901703 3.61834 0
M  V30 5436 N 518.813 -1.54241 0.323641 0
M  V30 5437 C 520.229 -1.59574 -0.0290018 0
M  V30 5438 C 520.429 -1.34017 -1.50472 0
M  V30 5439 O 519.485 -1.12464 -2.26071 0
M  V30 5440 C 520.798 -2.98169 0.389295 0
M  V30 5441 C 522.346 -3.11148 0.339958 0
M  V30 5442 C 522.821 -4.5209 0.733418 0
M  V30 5443 N 524.312 -4.5808 0.686827 0
M  V30 5444 C 525.047 -5.65248 0.963464 0
M  V30 5445 N 524.543 -6.80355 1.30724 0
M  V30 5446 N 526.336 -5.55025 0.88902 0
M  V30 5447 H 518.487 -1.6911 1.28512 0
M  V30 5448 H 520.75 -0.790972 0.522558 0
M  V30 5449 H 520.456 -3.21871 1.41746 0
M  V30 5450 H 520.33 -3.76399 -0.245657 0
M  V30 5451 H 522.717 -2.87182 -0.679002 0
M  V30 5452 H 522.798 -2.35023 1.00985 0
M  V30 5453 H 522.442 -4.76788 1.75029 0
M  V30 5454 H 522.372 -5.26584 0.0412189 0
M  V30 5455 H 524.863 -3.75411 0.43298 0
M  V30 5456 H 525.176 -7.58029 1.5037 0
M  V30 5457 H 523.521 -6.81851 1.3455 0
M  V30 5458 H 526.712 -4.63977 0.619939 0
M  V30 5459 H 526.885 -6.38458 1.10797 0
M  V30 5460 N 520.291 -0.0518155 -1.57515 0
M  V30 5461 C 521.707 0.304735 -1.56664 0
M  V30 5462 C 521.907 1.71395 -1.05953 0
M  V30 5463 O 520.963 2.42123 -0.716414 0
M  V30 5464 C 522.276 0.132614 -3.00407 0
M  V30 5465 C 523.824 0.20367 -3.12337 0
M  V30 5466 C 524.299 0.0600706 -4.57961 0
M  V30 5467 N 525.79 0.116326 -4.63054 0
M  V30 5468 C 526.525 0.0293363 -5.73392 0
M  V30 5469 N 526.021 -0.110038 -6.92713 0
M  V30 5470 N 527.814 0.0849651 -5.62036 0
M  V30 5471 H 519.965 -0.973056 -1.888 0
M  V30 5472 H 522.228 -0.377781 -0.869474 0
M  V30 5473 H 521.934 -0.839019 -3.41546 0
M  V30 5474 H 521.808 0.893376 -3.66468 0
M  V30 5475 H 524.195 1.16578 -2.71097 0
M  V30 5476 H 524.276 -0.587857 -2.48954 0
M  V30 5477 H 523.92 -0.898715 -4.99886 0
M  V30 5478 H 523.85 0.87075 -5.19351 0
M  V30 5479 H 526.341 0.22327 -3.7724 0
M  V30 5480 H 526.654 -0.169104 -7.72615 0
M  V30 5481 H 524.999 -0.145132 -6.94848 0
M  V30 5482 H 528.19 0.192411 -4.67704 0
M  V30 5483 H 528.363 0.0137131 -6.47999 0
M  V30 5484 N 521.769 1.56035 0.221574 0
M  V30 5485 C 522.997 1.8313 0.962864 0
M  V30 5486 C 523.412 0.630934 1.77946 0
M  V30 5487 O 522.769 -0.400519 1.78051 0
M  V30 5488 C 522.82 3.08742 1.88045 0
M  V30 5489 O 522.541 4.24147 1.09686 0
M  V30 5490 C 524.042 3.48824 2.73563 0
M  V30 5491 H 521.262 0.608775 0.282194 0
M  V30 5492 H 523.806 2.03124 0.23681 0
M  V30 5493 H 521.961 2.90723 2.56045 0
M  V30 5494 H 522.375 4.95505 1.71974 0
M  V30 5495 H 523.849 4.39752 3.3365 0
M  V30 5496 H 524.326 2.70575 3.45956 0
M  V30 5497 H 524.932 3.69282 2.10976 0
M  V30 5498 N 523.247 -0.488276 1.49845 0
M  V30 5499 C 524.197 -1.58556 1.63842 0
M  V30 5500 C 525.181 -1.53142 0.493586 0
M  V30 5501 O 526.373 -1.60457 0.747169 0
M  V30 5502 C 523.502 -2.97101 1.72005 0
M  V30 5503 C 522.588 -3.07463 2.92108 0
M  V30 5504 N 522.979 -2.87681 4.16021 0
M  V30 5505 C 521.277 -3.3858 2.90309 0
M  V30 5506 C 521.978 -3.0256 4.96822 0
M  V30 5507 N 520.954 -3.32002 4.30437 0
M  V30 5508 H 524.756 -1.41935 2.57355 0
M  V30 5509 H 522.27 -0.694668 1.46793 0
M  V30 5510 H 524.267 -3.75976 1.80132 0
M  V30 5511 H 522.927 -3.14782 0.796375 0
M  V30 5512 H 523.938 -2.63603 4.45796 0
M  V30 5513 H 520.615 -3.62357 2.07372 0
M  V30 5514 H 522.005 -2.9165 6.05301 0
M  V30 5515 N 524.725 -1.39134 -0.740242 0
M  V30 5516 C 525.655 -1.40165 -1.86751 0
M  V30 5517 C 526.636 -0.265708 -1.68012 0
M  V30 5518 O 527.821 -0.47076 -1.88408 0
M  V30 5519 C 524.951 -1.2392 -3.2444 0
M  V30 5520 C 523.905 -2.34858 -3.57807 0
M  V30 5521 C 523.231 -2.03707 -4.94376 0
M  V30 5522 C 524.531 -3.77159 -3.61315 0
M  V30 5523 H 526.225 -2.345 -1.86145 0
M  V30 5524 H 523.771 -1.12875 -0.89416 0
M  V30 5525 H 525.724 -1.23263 -4.02969 0
M  V30 5526 H 524.448 -0.26051 -3.25559 0
M  V30 5527 H 523.107 -2.34723 -2.81604 0
M  V30 5528 H 522.755 -1.04289 -4.9207 0
M  V30 5529 H 522.455 -2.78016 -5.17669 0
M  V30 5530 H 523.979 -2.04691 -5.75268 0
M  V30 5531 H 525.393 -3.79252 -4.29931 0
M  V30 5532 H 523.79 -4.50784 -3.96124 0
M  V30 5533 H 524.86 -4.08513 -2.61238 0
M  V30 5534 N 526.204 0.969867 -1.24223 0
M  V30 5535 C 527.615 1.52717 -1.07399 0
M  V30 5536 C 527.966 1.92956 0.355298 0
M  V30 5537 O 527.091 1.77112 1.2434 0
M  V30 5538 C 527.686 2.77521 -1.94339 0
M  V30 5539 C 526.245 3.29615 -1.81744 0
M  V30 5540 C 525.392 2.02537 -1.89405 0
M  V30 5541 H 528.343 0.788399 -1.37732 0
M  V30 5542 H 528.364 3.50773 -1.47439 0
M  V30 5543 H 527.876 2.48203 -2.98357 0
M  V30 5544 H 525.977 3.63789 -0.805505 0
M  V30 5545 H 526.09 3.98661 -2.65718 0
M  V30 5546 H 524.454 2.17151 -1.33108 0
M  V30 5547 H 525.237 1.75587 -2.94999 0
M  V30 5548 N 527.682 1.05563 1.17022 0
M  V30 5549 C 528.592 0.670758 2.24807 0
M  V30 5550 C 529.608 -0.309865 1.71219 0
M  V30 5551 O 530.784 -0.161025 2.00755 0
M  V30 5552 C 527.849 0.055337 3.46656 0
M  V30 5553 C 526.91 1.08688 4.15314 0
M  V30 5554 C 526.143 0.500736 5.31346 0
M  V30 5555 O 526.366 -0.688718 5.66227 0
M  V30 5556 O 525.3 1.23683 5.89055 0
M  V30 5557 H 529.126 1.56914 2.60023 0
M  V30 5558 H 526.711 0.827428 1.24395 0
M  V30 5559 H 528.593 -0.286492 4.20425 0
M  V30 5560 H 527.268 -0.816638 3.13229 0
M  V30 5561 H 526.175 1.48077 3.43546 0
M  V30 5562 H 527.508 1.93014 4.52777 0
M  V30 5563 N 529.16 -1.33526 0.837174 0
M  V30 5564 C 530.406 -1.9813 0.432704 0
M  V30 5565 C 530.739 -1.66168 -1.00508 0
M  V30 5566 O 530.014 -0.94069 -1.70239 0
M  V30 5567 C 530.297 -3.54151 0.651834 0
M  V30 5568 C 530.15 -3.95806 2.13676 0
M  V30 5569 C 531.469 -4.39993 0.0968937 0
M  V30 5570 H 528.588 -0.719713 0.15869 0
M  V30 5571 H 531.23 -1.58193 1.05237 0
M  V30 5572 H 529.38 -3.88301 0.124369 0
M  V30 5573 H 531.052 -3.71921 2.72896 0
M  V30 5574 H 529.295 -3.45599 2.62191 0
M  V30 5575 H 529.966 -5.0447 2.24084 0
M  V30 5576 H 532.442 -4.12479 0.547733 0
M  V30 5577 H 531.318 -5.48186 0.279917 0
M  V30 5578 H 531.579 -4.3066 -0.9992 0
M  V30 5579 N 530.638 -0.59345 -1.46 0
M  V30 5580 C 531.885 -0.0831523 -2.02329 0
M  V30 5581 C 532.213 1.28093 -1.46364 0
M  V30 5582 O 531.468 1.85526 -0.622793 0
M  V30 5583 C 531.767 0.021178 -3.57394 0
M  V30 5584 C 531.433 -1.27671 -4.32448 0
M  V30 5585 C 530.095 -1.63227 -4.5267 0
M  V30 5586 C 532.447 -2.13511 -4.7546 0
M  V30 5587 C 529.775 -2.84401 -5.1316 0
M  V30 5588 C 532.127 -3.33922 -5.37289 0
M  V30 5589 C 530.791 -3.69747 -5.55737 0
M  V30 5590 H 530.061 -0.0304276 -0.740375 0
M  V30 5591 H 532.708 -0.772239 -1.75239 0
M  V30 5592 H 531.013 0.793454 -3.83682 0
M  V30 5593 H 532.71 0.431942 -3.98667 0
M  V30 5594 H 529.3 -0.989937 -4.17011 0
M  V30 5595 H 533.484 -1.87344 -4.59582 0
M  V30 5596 H 528.74 -3.12282 -5.25633 0
M  V30 5597 H 532.914 -4.00698 -5.69574 0
M  V30 5598 H 530.541 -4.6373 -6.02377 0
M  V30 5599 N 532.116 1.54067 -0.331816 0
M  V30 5600 C 533.046 2.27569 0.522932 0
M  V30 5601 C 534.027 1.28679 1.11247 0
M  V30 5602 O 535.212 1.57504 1.13605 0
M  V30 5603 C 532.342 3.0397 1.67987 0
M  V30 5604 C 531.296 4.10267 1.21924 0
M  V30 5605 C 530.622 4.74555 2.46377 0
M  V30 5606 C 531.922 5.21268 0.32815 0
M  V30 5607 H 533.616 2.99264 -0.0901977 0
M  V30 5608 H 531.162 1.4393 -0.044821 0
M  V30 5609 H 533.115 3.54123 2.28418 0
M  V30 5610 H 531.839 2.29906 2.31971 0
M  V30 5611 H 530.498 3.61009 0.637809 0
M  V30 5612 H 530.146 3.97098 3.08743 0
M  V30 5613 H 529.846 5.46363 2.16243 0
M  V30 5614 H 531.37 5.27487 3.07555 0
M  V30 5615 H 532.784 5.67128 0.838978 0
M  V30 5616 H 531.181 5.99982 0.119228 0
M  V30 5617 H 532.251 4.80673 -0.638839 0
M  V30 5618 N 533.594 0.0601682 1.57485 0
M  V30 5619 C 534.819 -0.624416 1.97777 0
M  V30 5620 C 535.244 -1.63051 0.937867 0
M  V30 5621 O 534.602 -1.81036 -0.0978845 0
M  V30 5622 C 534.65 -1.27979 3.37126 0
M  V30 5623 O 533.754 -2.39556 3.35688 0
M  V30 5624 H 533.095 -0.161581 0.64404 0
M  V30 5625 H 535.625 0.131237 2.04179 0
M  V30 5626 H 535.635 -1.62937 3.74053 0
M  V30 5627 H 534.31 -0.542501 4.12347 0
M  V30 5628 H 532.887 -2.06478 3.10517 0
M  V30 5629 N 535.072 -1.5615 -0.213296 0
M  V30 5630 C 536.019 -1.93086 -1.26437 0
M  V30 5631 C 536.989 -0.789086 -1.4616 0
M  V30 5632 O 538.174 -1.04569 -1.59593 0
M  V30 5633 C 535.314 -2.26003 -2.608 0
M  V30 5634 C 534.427 -3.53156 -2.48807 0
M  V30 5635 C 533.562 -3.7548 -3.7575 0
M  V30 5636 C 532.601 -4.96119 -3.58514 0
M  V30 5637 N 531.738 -5.14791 -4.77425 0
M  V30 5638 H 536.578 -2.82707 -0.942376 0
M  V30 5639 H 534.115 -1.39919 -0.454001 0
M  V30 5640 H 536.073 -2.431 -3.39055 0
M  V30 5641 H 534.703 -1.39546 -2.91079 0
M  V30 5642 H 533.755 -3.44207 -1.61944 0
M  V30 5643 H 535.067 -4.41565 -2.31996 0
M  V30 5644 H 534.221 -3.92718 -4.62447 0
M  V30 5645 H 532.96 -2.85368 -3.95495 0
M  V30 5646 H 531.965 -4.78823 -2.70201 0
M  V30 5647 H 533.19 -5.87724 -3.40231 0
M  V30 5648 H 531.136 -4.27623 -4.97468 0
M  V30 5649 H 531.053 -5.97347 -4.63371 0
M  V30 5650 H 532.321 -5.36471 -5.65525 0
M  V30 5651 N 536.55 0.480323 -1.50102 0
M  V30 5652 C 537.796 1.23489 -1.60867 0
M  V30 5653 C 538.129 1.91809 -0.303827 0
M  V30 5654 O 537.404 1.81694 0.694092 0
M  V30 5655 C 537.687 2.28578 -2.78252 0
M  V30 5656 C 537.54 1.64624 -4.18592 0
M  V30 5657 C 538.859 3.2997 -2.91218 0
M  V30 5658 H 535.978 0.447605 -0.585507 0
M  V30 5659 H 538.62 0.530005 -1.82458 0
M  V30 5660 H 536.77 2.88697 -2.59974 0
M  V30 5661 H 538.442 1.08173 -4.48438 0
M  V30 5662 H 536.685 0.949645 -4.23278 0
M  V30 5663 H 537.356 2.40946 -4.96638 0
M  V30 5664 H 539.832 2.79864 -3.07921 0
M  V30 5665 H 538.708 4.00839 -3.74993 0
M  V30 5666 H 538.969 3.93541 -2.0144 0
M  V30 5667 N 538.028 1.39524 0.732853 0
M  V30 5668 C 538.958 1.41153 1.86005 0
M  V30 5669 C 539.939 0.274614 1.67869 0
M  V30 5670 O 541.124 0.480745 1.88155 0
M  V30 5671 C 538.254 1.25638 3.23778 0
M  V30 5672 C 537.208 2.36752 3.56556 0
M  V30 5673 C 536.534 2.06326 4.93289 0
M  V30 5674 C 537.834 3.79069 3.5931 0
M  V30 5675 H 539.528 2.35484 1.84899 0
M  V30 5676 H 537.074 1.13348 0.888162 0
M  V30 5677 H 539.027 1.25398 4.0231 0
M  V30 5678 H 537.751 0.277772 3.25417 0
M  V30 5679 H 536.41 2.36213 2.80355 0
M  V30 5680 H 536.058 1.06897 4.9151 0
M  V30 5681 H 535.758 2.80757 5.16187 0
M  V30 5682 H 537.282 2.07739 5.74175 0
M  V30 5683 H 538.696 3.81526 4.27914 0
M  V30 5684 H 537.093 4.52878 3.93728 0
M  V30 5685 H 538.163 4.09893 2.59068 0
M  V30 5686 N 539.506 -0.963266 1.24736 0
M  V30 5687 C 540.416 -2.09246 1.06082 0
M  V30 5688 C 541.432 -1.74 0.000363101 0
M  V30 5689 O 542.608 -2.0041 0.199479 0
M  V30 5690 C 539.673 -3.40115 0.672498 0
M  V30 5691 C 538.734 -3.89282 1.80993 0
M  V30 5692 C 537.967 -5.13905 1.44004 0
M  V30 5693 O 538.19 -5.69434 0.331835 0
M  V30 5694 O 537.124 -5.57566 2.26723 0
M  V30 5695 H 540.95 -2.27881 2.00759 0
M  V30 5696 H 538.535 -1.07649 1.03595 0
M  V30 5697 H 540.417 -4.18797 0.467668 0
M  V30 5698 H 539.092 -3.22771 -0.245102 0
M  V30 5699 H 537.999 -3.11642 2.06955 0
M  V30 5700 H 539.332 -4.1111 2.70646 0
M  V30 5701 N 540.985 -1.06182 -1.16461 0
M  V30 5702 C 542.396 -0.802426 -1.68576 0
M  V30 5703 C 542.747 0.67412 -1.84255 0
M  V30 5704 O 541.872 1.52303 -1.5373 0
M  V30 5705 C 542.467 -1.45002 -3.06202 0
M  V30 5706 C 541.026 -1.23843 -3.55443 0
M  V30 5707 C 540.173 -1.52724 -2.31454 0
M  V30 5708 H 543.124 -1.22545 -1.00839 0
M  V30 5709 H 543.145 -0.864731 -3.70544 0
M  V30 5710 H 542.657 -2.52466 -2.94759 0
M  V30 5711 H 540.758 -0.183487 -3.72148 0
M  V30 5712 H 540.871 -1.95036 -4.37604 0
M  V30 5713 H 539.235 -0.947726 -2.36411 0
M  V30 5714 H 540.018 -2.61343 -2.22609 0
M  V30 5715 N 542.463 1.3308 -0.844243 0
M  V30 5716 C 543.691 2.01808 -0.456203 0
M  V30 5717 C 544.106 1.63498 0.944131 0
M  V30 5718 O 543.463 0.85102 1.61443 0
M  V30 5719 C 543.514 3.56922 -0.573513 0
M  V30 5720 O 543.235 3.93851 -1.91868 0
M  V30 5721 C 544.736 4.42922 -0.183125 0
M  V30 5722 H 541.956 0.646273 -0.180477 0
M  V30 5723 H 544.5 1.69891 -1.1383 0
M  V30 5724 H 542.655 3.87352 0.0607367 0
M  V30 5725 H 543.069 4.88564 -1.90802 0
M  V30 5726 H 544.543 5.51093 -0.316241 0
M  V30 5727 H 545.02 4.30386 0.875477 0
M  V30 5728 H 545.626 4.1786 -0.792027 0
M  V30 5729 N 543.941 0.601185 1.45683 0
M  V30 5730 C 544.871 -0.108824 2.33246 0
M  V30 5731 C 545.852 -0.865223 1.46451 0
M  V30 5732 O 547.037 -0.83704 1.75235 0
M  V30 5733 C 544.167 -1.11101 3.2905 0
M  V30 5734 C 543.121 -0.468244 4.25431 0
M  V30 5735 C 542.447 -1.57822 5.10878 0
M  V30 5736 C 543.747 0.606469 5.18767 0
M  V30 5737 H 545.441 0.622306 2.92861 0
M  V30 5738 H 542.987 0.300714 1.40825 0
M  V30 5739 H 544.94 -1.61622 3.89174 0
M  V30 5740 H 543.664 -1.87265 2.67581 0
M  V30 5741 H 542.323 0.0160484 3.66596 0
M  V30 5742 H 541.971 -2.32998 4.45781 0
M  V30 5743 H 541.671 -1.15369 5.76163 0
M  V30 5744 H 543.195 -2.08583 5.73869 0
M  V30 5745 H 544.609 0.185589 5.73 0
M  V30 5746 H 543.006 0.952381 5.92494 0
M  V30 5747 H 544.076 1.48559 4.61582 0
M  V30 5748 N 545.419 -1.53889 0.339982 0
M  V30 5749 C 546.366 -2.24902 -0.518452 0
M  V30 5750 C 547.336 -1.24593 -1.09844 0
M  V30 5751 O 548.521 -1.53317 -1.13572 0
M  V30 5752 C 545.661 -3.02262 -1.66529 0
M  V30 5753 C 544.774 -4.17418 -1.11295 0
M  V30 5754 C 543.909 -4.82273 -2.2268 0
M  V30 5755 C 542.948 -5.89503 -1.6478 0
M  V30 5756 N 542.085 -6.48153 -2.69893 0
M  V30 5757 H 546.925 -2.97853 0.0936579 0
M  V30 5758 H 544.462 -1.46986 0.0579924 0
M  V30 5759 H 546.42 -3.45371 -2.3404 0
M  V30 5760 H 545.05 -2.31614 -2.24844 0
M  V30 5761 H 544.102 -3.78976 -0.328886 0
M  V30 5762 H 545.414 -4.94554 -0.649414 0
M  V30 5763 H 544.568 -5.28435 -2.98063 0
M  V30 5764 H 543.307 -4.04552 -2.72376 0
M  V30 5765 H 542.312 -5.42728 -0.879004 0
M  V30 5766 H 543.537 -6.6913 -1.1594 0
M  V30 5767 H 541.483 -5.73298 -3.1885 0
M  V30 5768 H 541.4 -7.20752 -2.28151 0
M  V30 5769 H 542.668 -6.98968 -3.45056 0
M  V30 5770 N 546.897 -0.0685191 -1.57451 0
M  V30 5771 C 548.122 0.613919 -1.98106 0
M  V30 5772 C 548.547 1.62551 -0.946501 0
M  V30 5773 O 547.905 1.81085 0.0882824 0
M  V30 5774 C 547.953 1.26189 -3.378 0
M  V30 5775 O 547.057 2.37773 -3.36954 0
M  V30 5776 H 546.398 0.158163 -0.644888 0
M  V30 5777 H 548.928 -0.142063 -2.04106 0
M  V30 5778 H 548.938 1.60951 -3.74912 0
M  V30 5779 H 547.613 0.520625 -4.12629 0
M  V30 5780 H 546.19 2.04829 -3.11608 0
M  V30 5781 N 548.375 1.56261 0.205012 0
M  V30 5782 C 549.305 1.96779 1.257 0
M  V30 5783 C 550.286 0.838309 1.48008 0
M  V30 5784 O 551.471 1.10189 1.59913 0
M  V30 5785 C 548.601 2.29876 2.60335 0
M  V30 5786 C 547.555 3.45469 2.52656 0
M  V30 5787 C 546.881 3.64215 3.91473 0
M  V30 5788 C 548.181 4.79954 2.06014 0
M  V30 5789 H 549.875 2.84904 0.920338 0
M  V30 5790 H 547.421 1.37072 0.441277 0
M  V30 5791 H 549.374 2.56814 3.34102 0
M  V30 5792 H 548.098 1.38622 2.95722 0
M  V30 5793 H 546.757 3.18605 1.81345 0
M  V30 5794 H 546.405 2.70309 4.24196 0
M  V30 5795 H 546.105 4.41973 3.87213 0
M  V30 5796 H 547.629 3.93519 4.66878 0
M  V30 5797 H 549.043 5.05989 2.69533 0
M  V30 5798 H 547.44 5.61111 2.12777 0
M  V30 5799 H 548.51 4.74201 1.01297 0
M  V30 5800 N 549.853 -0.472356 1.50355 0
M  V30 5801 C 551.101 -1.22211 1.60962 0
M  V30 5802 C 551.422 -1.92497 0.311439 0
M  V30 5803 O 550.692 -1.8405 -0.671002 0
M  V30 5804 H 549.272 -0.454092 0.593135 0
M  V30 5805 H 551.934 -0.544977 1.87126 0
M  V30 5806 H 551.03 -1.9707 2.42012 0
M  V30 5807 N 551.331 -1.39911 -0.725443 0
M  V30 5808 C 552.241 -1.41688 -1.8698 0
M  V30 5809 C 553.257 -0.310579 -1.71206 0
M  V30 5810 O 554.433 -0.55359 -1.93642 0
M  V30 5811 C 551.498 -1.26811 -3.22676 0
M  V30 5812 C 550.559 -2.47497 -3.50776 0
M  V30 5813 C 549.792 -2.3332 -4.79997 0
M  V30 5814 O 550.015 -1.34175 -5.54394 0
M  V30 5815 O 548.949 -3.22498 -5.08211 0
M  V30 5816 H 552.775 -2.38171 -1.88436 0
M  V30 5817 H 550.36 -1.21128 -0.874548 0
M  V30 5818 H 552.242 -1.20684 -4.03749 0
M  V30 5819 H 550.917 -0.334289 -3.21969 0
M  V30 5820 H 549.824 -2.59201 -2.69751 0
M  V30 5821 H 551.157 -3.39606 -3.5627 0
M  V30 5822 N 552.809 0.956637 -1.25245 0
M  V30 5823 C 554.049 1.71585 -1.11076 0
M  V30 5824 C 554.413 1.88916 0.34277 0
M  V30 5825 O 555.614 2.61875 0.606227 0
M  V30 5826 C 553.885 3.06267 -1.84215 0
M  V30 5827 S 555.444 3.97469 -1.85914 0
M  V30 5828 H 552.262 0.589803 -0.397055 0
M  V30 5829 H 554.864 1.14114 -1.58739 0
M  V30 5830 H 553.568 2.91322 -2.89067 0
M  V30 5831 H 553.099 3.688 -1.36931 0
M  V30 5832 H 555.114 4.87316 -0.93474 0
M  V30 5833 N 554.287 1.06798 1.15896 0
M  V30 5834 C 555.527 0.797041 1.8822 0
M  V30 5835 C 555.891 -0.664549 1.80133 0
M  V30 5836 O 557.092 -1.0503 2.47431 0
M  V30 5837 C 555.363 1.28431 3.33527 0
M  V30 5838 S 556.922 1.14319 4.23647 0
M  V30 5839 H 553.74 0.288988 0.649621 0
M  V30 5840 H 556.342 1.36594 1.39865 0
M  V30 5841 H 555.046 2.34286 3.36954 0
M  V30 5842 H 554.577 0.710371 3.86933 0
M  V30 5843 H 556.592 0.0772467 4.9614 0
M  V30 5844 N 555.766 -1.3263 0.851289 0
M  V30 5845 C 557.043 -1.91982 0.374448 0
M  V30 5846 C 557.423 -1.77568 -1.14161 0
M  V30 5847 O 556.771 -1.1717 -1.96172 0
M  V30 5848 C 556.981 -3.38862 0.835088 0
M  V30 5849 C 558.329 -4.15999 0.850309 0
M  V30 5850 O 559.353 -3.47566 0.779505 0
M  V30 5851 O 558.212 -5.38189 0.949481 0
M  V30 5852 H 555.306 -0.819846 0.10854 0
M  V30 5853 H 557.852 -1.41422 0.937966 0
M  V30 5854 H 556.624 -3.43281 1.87814 0
M  V30 5855 H 556.247 -3.96821 0.248833 0
M  V30 5856 N 557.244 -0.608902 -1.45362 0
M  V30 5857 C 558.49 -0.104762 -2.02529 0
M  V30 5858 C 558.823 1.26191 -1.47613 0
M  V30 5859 O 558.098 1.8327 -0.65134 0
M  V30 5860 C 558.381 -0.0672661 -3.60037 0
M  V30 5861 C 558.234 -1.4647 -4.25284 0
M  V30 5862 C 559.553 0.619877 -4.35713 0
M  V30 5863 H 556.672 -0.0395438 -0.735938 0
M  V30 5864 H 559.314 -0.781126 -1.73201 0
M  V30 5865 H 557.464 0.50871 -3.85155 0
M  V30 5866 H 559.136 -2.08785 -4.11347 0
M  V30 5867 H 557.379 -2.02502 -3.83634 0
M  V30 5868 H 558.05 -1.39069 -5.34195 0
M  V30 5869 H 560.526 0.130297 -4.15896 0
M  V30 5870 H 559.402 0.615224 -5.45441 0
M  V30 5871 H 559.663 1.68621 -4.0868 0
M  V30 5872 N 558.722 1.53707 -0.348139 0
M  V30 5873 C 559.632 2.28881 0.514857 0
M  V30 5874 C 560.648 1.34168 1.10793 0
M  V30 5875 O 561.824 1.6721 1.12262 0
M  V30 5876 C 558.889 3.05042 1.64774 0
M  V30 5877 C 557.95 4.15389 1.08398 0
M  V30 5878 C 557.183 4.87909 2.16287 0
M  V30 5879 O 557.406 4.60137 3.3709 0
M  V30 5880 O 556.34 5.74254 1.80323 0
M  V30 5881 H 560.166 3.03547 -0.0963699 0
M  V30 5882 H 557.751 1.48972 -0.113043 0
M  V30 5883 H 559.633 3.52656 2.30677 0
M  V30 5884 H 558.308 2.33228 2.24469 0
M  V30 5885 H 557.215 3.72068 0.389341 0
M  V30 5886 H 558.548 4.89318 0.531829 0
M  V30 5887 N 560.2 0.0768682 1.57412 0
M  V30 5888 C 561.477 -0.632359 1.85096 0
M  V30 5889 C 561.857 -1.87479 0.9703 0
M  V30 5890 O 561.205 -2.28469 0.0379062 0
M  V30 5891 C 561.415 -0.965174 3.35388 0
M  V30 5892 C 562.763 -1.33648 4.03018 0
M  V30 5893 O 563.787 -1.05675 3.40164 0
M  V30 5894 O 562.646 -1.85959 5.13889 0
M  V30 5895 H 559.74 -0.314574 0.764835 0
M  V30 5896 H 562.286 0.108184 1.69355 0
M  V30 5897 H 561.058 -0.0829745 3.91212 0
M  V30 5898 H 560.681 -1.76231 3.5641 0
M  V30 5899 N 561.678 -1.56367 -0.196722 0
M  V30 5900 C 562.903 -1.84991 -0.937714 0
M  V30 5901 C 563.328 -0.660244 -1.76132 0
M  V30 5902 O 562.686 0.390967 -1.77034 0
M  V30 5903 C 562.734 -3.11828 -1.81096 0
M  V30 5904 O 561.838 -2.92266 -2.90955 0
M  V30 5905 H 561.179 -0.609193 -0.264159 0
M  V30 5906 H 563.709 -2.03595 -0.202529 0
M  V30 5907 H 563.719 -3.42579 -2.21594 0
M  V30 5908 H 562.394 -3.98037 -1.2058 0
M  V30 5909 H 560.971 -2.72809 -2.54224 0
M  V30 5910 N 563.156 0.464375 -1.50603 0
M  V30 5911 C 564.384 1.23907 -1.65695 0
M  V30 5912 C 564.799 1.85658 -0.343027 0
M  V30 5913 O 564.156 1.69529 0.675739 0
M  V30 5914 C 564.207 2.3429 -2.75301 0
M  V30 5915 O 563.928 1.7507 -4.01599 0
M  V30 5916 C 565.429 3.25051 -3.01424 0
M  V30 5917 H 562.649 0.374485 -0.556778 0
M  V30 5918 H 565.193 0.55353 -1.96866 0
M  V30 5919 H 563.348 2.98607 -2.46804 0
M  V30 5920 H 563.762 2.47812 -4.62266 0
M  V30 5921 H 565.236 3.98699 -3.81763 0
M  V30 5922 H 565.713 3.84227 -2.12758 0
M  V30 5923 H 566.319 2.66463 -3.31477 0
M  V30 5924 N 564.634 1.40294 0.718013 0
M  V30 5925 C 565.862 1.4175 1.50714 0
M  V30 5926 C 566.277 0.0165366 1.88793 0
M  V30 5927 O 565.634 -0.958942 1.55276 0
M  V30 5928 C 565.685 2.30598 2.784 0
M  V30 5929 O 565.406 3.6524 2.41932 0
M  V30 5930 C 566.907 2.4062 3.72313 0
M  V30 5931 H 564.127 0.483565 0.465194 0
M  V30 5932 H 566.671 1.84316 0.885889 0
M  V30 5933 H 564.826 1.91401 3.36815 0
M  V30 5934 H 565.24 4.12402 3.24076 0
M  V30 5935 H 566.714 3.07001 4.58753 0
M  V30 5936 H 567.191 1.4305 4.15251 0
M  V30 5937 H 567.797 2.80359 3.19811 0
M  V30 5938 N 566.112 -0.949982 1.2575 0
M  V30 5939 C 567.352 -1.70994 1.11984 0
M  V30 5940 C 567.716 -1.89095 -0.332746 0
M  V30 5941 O 568.917 -2.62192 -0.592331 0
M  V30 5942 C 567.188 -3.05286 1.85837 0
M  V30 5943 S 568.747 -3.96477 1.88019 0
M  V30 5944 H 565.565 -0.587689 0.400178 0
M  V30 5945 H 568.167 -1.13271 1.59342 0
M  V30 5946 H 566.871 -2.89785 2.90608 0
M  V30 5947 H 566.402 -3.68069 1.38885 0
M  V30 5948 H 568.417 -4.86814 0.96057 0
M  V30 5949 N 567.59 -1.07411 -1.15328 0
M  V30 5950 C 568.837 -0.797649 -1.86128 0
M  V30 5951 C 569.165 0.676298 -1.82364 0
M  V30 5952 O 568.42 1.51223 -1.24218 0
M  V30 5953 C 568.719 -1.25191 -3.34757 0
M  V30 5954 C 568.385 -2.73191 -3.58716 0
M  V30 5955 C 567.047 -3.13616 -3.64964 0
M  V30 5956 C 569.399 -3.68718 -3.6837 0
M  V30 5957 C 566.727 -4.48383 -3.78377 0
M  V30 5958 C 569.079 -5.03248 -3.83306 0
M  V30 5959 C 567.743 -5.43293 -3.878 0
M  V30 5960 H 567.013 -0.29188 -0.681092 0
M  V30 5961 H 569.66 -1.34524 -1.36292 0
M  V30 5962 H 567.965 -0.623712 -3.86804 0
M  V30 5963 H 569.662 -1.01489 -3.87945 0
M  V30 5964 H 566.252 -2.40898 -3.54494 0
M  V30 5965 H 570.436 -3.38614 -3.62842 0
M  V30 5966 H 565.692 -4.78877 -3.80114 0
M  V30 5967 H 569.866 -5.77142 -3.89718 0
M  V30 5968 H 567.493 -6.47721 -3.97946 0
M  V30 5969 N 569.068 1.32177 -0.85831 0
M  V30 5970 C 570.016 2.30729 -0.294442 0
M  V30 5971 C 571.01 1.59009 0.584165 0
M  V30 5972 O 572.216 1.73713 0.471562 0
M  V30 5973 H 568.591 0.748097 -0.0765171 0
M  V30 5974 H 570.562 2.75774 -1.1398 0
M  V30 5975 C 569.311 3.44098 0.499208 0
M  V30 5976 H 568.634 3.99449 -0.167579 0
M  V30 5977 H 570.074 4.15202 0.859273 0
M  V30 5978 C 568.533 2.91684 1.68588 0
M  V30 5979 O 569.063 2.89481 2.78503 0
M  V30 5980 N 567.269 2.48036 1.51415 0
M  V30 5981 H 566.816 2.50027 0.620006 0
M  V30 5982 H 566.774 2.13322 2.30957 0
M  V30 5983 N 570.547 0.616602 1.45037 0
M  V30 5984 C 571.51 -0.0871112 2.29034 0
M  V30 5985 C 572.51 -0.786414 1.40258 0
M  V30 5986 O 573.7 -0.633207 1.62284 0
M  V30 5987 C 570.832 -1.13369 3.21497 0
M  V30 5988 H 572.025 0.651497 2.92738 0
M  V30 5989 H 569.578 0.376058 1.51709 0
M  V30 5990 H 570.313 -1.90277 2.62612 0
M  V30 5991 H 570.098 -0.636358 3.86902 0
M  V30 5992 H 571.588 -1.62627 3.84633 0
M  V30 5993 N 572.025 -1.5352 0.356285 0
M  V30 5994 C 572.972 -2.25439 -0.494569 0
M  V30 5995 C 573.942 -1.25752 -1.08516 0
M  V30 5996 O 575.127 -1.54513 -1.1194 0
M  V30 5997 C 572.267 -3.04011 -1.63313 0
M  V30 5998 C 571.38 -4.18574 -1.06862 0
M  V30 5999 C 570.515 -4.84607 -2.17552 0
M  V30 6000 C 569.554 -5.91218 -1.58518 0
M  V30 6001 N 568.691 -6.50979 -2.63003 0
M  V30 6002 H 573.531 -2.97737 0.125244 0
M  V30 6003 H 571.068 -1.46916 0.0735789 0
M  V30 6004 H 573.026 -3.47834 -2.30363 0
M  V30 6005 H 571.656 -2.33986 -2.22374 0
M  V30 6006 H 570.708 -3.79303 -0.288672 0
M  V30 6007 H 572.02 -4.95215 -0.596924 0
M  V30 6008 H 571.174 -5.31566 -2.92442 0
M  V30 6009 H 569.913 -4.07418 -2.6807 0
M  V30 6010 H 568.918 -5.4363 -0.821391 0
M  V30 6011 H 570.143 -6.70322 -1.08836 0
M  V30 6012 H 568.089 -5.76648 -3.12751 0
M  V30 6013 H 568.006 -7.23131 -2.20493 0
M  V30 6014 H 569.274 -7.02589 -3.37623 0
M  V30 6015 N 573.503 -0.0852151 -1.57369 0
M  V30 6016 C 574.751 0.579658 -1.93609 0
M  V30 6017 C 575.072 1.69332 -0.967043 0
M  V30 6018 O 574.342 1.95892 -0.0174215 0
M  V30 6019 H 572.922 0.217113 -0.714752 0
M  V30 6020 H 575.584 -0.146226 -1.94351 0
M  V30 6021 H 574.68 0.996276 -2.95771 0
M  V30 6022 N 574.981 1.5647 0.188427 0
M  V30 6023 C 576.392 1.70864 0.752494 0
M  V30 6024 C 576.743 0.692905 1.83557 0
M  V30 6025 O 575.868 -0.149307 2.15884 0
M  V30 6026 C 576.463 3.09789 1.37173 0
M  V30 6027 C 575.022 3.25925 1.88281 0
M  V30 6028 C 574.169 2.66817 0.755259 0
M  V30 6029 H 577.12 1.58657 -0.0367408 0
M  V30 6030 H 577.141 3.07489 2.24122 0
M  V30 6031 H 576.653 3.83693 0.583219 0
M  V30 6032 H 574.754 2.56948 2.6983 0
M  V30 6033 H 574.867 4.33498 2.04001 0
M  V30 6034 H 573.231 2.2617 1.17128 0
M  V30 6035 H 574.014 3.43294 -0.0211237 0
M  V30 6036 N 576.459 -0.456382 1.50847 0
M  V30 6037 C 577.389 -1.56025 1.73719 0
M  V30 6038 C 578.37 -1.5967 0.586473 0
M  V30 6039 O 579.555 -1.75702 0.827185 0
M  V30 6040 C 576.685 -2.94251 1.84483 0
M  V30 6041 C 575.639 -3.05471 2.99786 0
M  V30 6042 C 574.965 -4.45489 2.95709 0
M  V30 6043 C 576.265 -2.81318 4.40065 0
M  V30 6044 H 577.959 -1.37138 2.66146 0
M  V30 6045 H 575.505 -0.658299 1.28072 0
M  V30 6046 H 577.458 -3.71417 1.99067 0
M  V30 6047 H 576.182 -3.14328 0.886891 0
M  V30 6048 H 574.841 -2.30741 2.84876 0
M  V30 6049 H 574.489 -4.62505 1.97732 0
M  V30 6050 H 574.189 -4.53929 3.73125 0
M  V30 6051 H 575.713 -5.24655 3.12362 0
M  V30 6052 H 577.127 -3.48226 4.55425 0
M  V30 6053 H 575.524 -3.01188 5.19043 0
M  V30 6054 H 576.594 -1.7706 4.51418 0
M  V30 6055 N 577.937 -1.40673 -0.710563 0
M  V30 6056 C 578.867 -1.44095 -1.83736 0
M  V30 6057 C 579.848 -0.301286 -1.67411 0
M  V30 6058 O 581.033 -0.510618 -1.87367 0
M  V30 6059 C 578.163 -1.30773 -3.21738 0
M  V30 6060 C 577.117 -2.42395 -3.52745 0
M  V30 6061 C 576.443 -2.14147 -4.89944 0
M  V30 6062 C 577.743 -3.84738 -3.53234 0
M  V30 6063 H 579.437 -2.38396 -1.81129 0
M  V30 6064 H 576.983 -1.14746 -0.870017 0
M  V30 6065 H 578.936 -1.31783 -4.00264 0
M  V30 6066 H 577.66 -0.329507 -3.24934 0
M  V30 6067 H 576.319 -2.40643 -2.76562 0
M  V30 6068 H 575.967 -1.14703 -4.89747 0
M  V30 6069 H 575.667 -2.88934 -5.11655 0
M  V30 6070 H 577.191 -2.16848 -5.70797 0
M  V30 6071 H 578.605 -3.88286 -4.2179 0
M  V30 6072 H 577.002 -4.59085 -3.86473 0
M  V30 6073 H 578.072 -4.13962 -2.52514 0
M  V30 6074 N 579.415 0.9433 -1.26252 0
M  V30 6075 C 580.362 2.0417 -1.07625 0
M  V30 6076 C 581.332 1.6609 0.0180738 0
M  V30 6077 O 582.517 1.90276 -0.141289 0
M  V30 6078 C 579.657 3.37653 -0.713043 0
M  V30 6079 C 578.77 3.88783 -1.8834 0
M  V30 6080 C 577.905 5.10642 -1.4635 0
M  V30 6081 C 576.944 5.54028 -2.60229 0
M  V30 6082 N 576.081 6.67092 -2.18936 0
M  V30 6083 H 580.921 2.19436 -2.01623 0
M  V30 6084 H 578.458 1.07519 -1.00389 0
M  V30 6085 H 580.416 4.14391 -0.483358 0
M  V30 6086 H 579.046 3.22241 0.18996 0
M  V30 6087 H 578.098 3.08464 -2.22608 0
M  V30 6088 H 579.41 4.16922 -2.73821 0
M  V30 6089 H 578.564 5.94832 -1.19414 0
M  V30 6090 H 577.303 4.84244 -0.579568 0
M  V30 6091 H 576.308 4.68396 -2.87898 0
M  V30 6092 H 577.533 5.82429 -3.49219 0
M  V30 6093 H 575.479 6.42381 -1.32974 0
M  V30 6094 H 575.396 6.94806 -2.97961 0
M  V30 6095 H 576.664 7.54662 -1.95206 0
M  V30 6096 N 580.893 1.08022 1.14757 0
M  V30 6097 C 581.84 0.706657 2.19716 0
M  V30 6098 C 582.81 -0.30525 1.63271 0
M  V30 6099 O 583.995 -0.19015 1.8985 0
M  V30 6100 C 581.135 0.117914 3.44898 0
M  V30 6101 C 580.248 1.18212 4.15512 0
M  V30 6102 C 579.383 0.557659 5.28265 0
M  V30 6103 C 578.422 1.60418 5.90705 0
M  V30 6104 N 577.559 1.0018 6.94916 0
M  V30 6105 H 582.399 1.60603 2.51019 0
M  V30 6106 H 579.936 0.802664 1.23271 0
M  V30 6107 H 581.894 -0.241112 4.16503 0
M  V30 6108 H 580.524 -0.744788 3.1409 0
M  V30 6109 H 579.576 1.65863 3.42335 0
M  V30 6110 H 580.888 1.97533 4.5802 0
M  V30 6111 H 580.042 0.146654 6.06523 0
M  V30 6112 H 578.781 -0.267249 4.86967 0
M  V30 6113 H 577.786 2.02489 5.11154 0
M  V30 6114 H 579.011 2.43149 6.34078 0
M  V30 6115 H 576.957 0.197917 6.55701 0
M  V30 6116 H 576.874 1.73216 7.35889 0
M  V30 6117 H 578.142 0.616523 7.77058 0
M  V30 6118 N 582.371 -1.3172 0.865308 0
M  V30 6119 C 583.281 -2.32394 0.320935 0
M  V30 6120 C 584.297 -1.64511 -0.566746 0
M  V30 6121 O 585.473 -1.95969 -0.464575 0
M  V30 6122 C 582.538 -3.43462 -0.472701 0
M  V30 6123 C 581.599 -4.27015 0.442385 0
M  V30 6124 C 580.832 -5.32779 -0.313469 0
M  V30 6125 O 581.055 -5.49158 -1.54214 0
M  V30 6126 O 579.989 -6.01015 0.326257 0
M  V30 6127 H 583.815 -2.80868 1.15528 0
M  V30 6128 H 581.4 -1.35535 0.628545 0
M  V30 6129 H 583.282 -4.11172 -0.922781 0
M  V30 6130 H 581.957 -2.97159 -1.28367 0
M  V30 6131 H 580.864 -3.62075 0.940866 0
M  V30 6132 H 582.197 -4.76871 1.21882 0
M  V30 6133 N 583.85 -0.624285 -1.44708 0
M  V30 6134 C 584.779 0.0717025 -2.3339 0
M  V30 6135 C 585.76 0.841814 -1.47809 0
M  V30 6136 O 586.946 0.809056 -1.76544 0
M  V30 6137 C 584.076 1.05852 -3.30776 0
M  V30 6138 C 583.029 0.400503 -4.26122 0
M  V30 6139 C 582.356 1.49674 -5.13324 0
M  V30 6140 C 583.656 -0.688924 -5.17737 0
M  V30 6141 H 585.35 -0.668819 -2.91834 0
M  V30 6142 H 582.896 -0.32308 -1.40329 0
M  V30 6143 H 584.849 1.5541 -3.91696 0
M  V30 6144 H 583.572 1.82984 -2.70526 0
M  V30 6145 H 582.231 -0.0743687 -3.66525 0
M  V30 6146 H 581.88 2.25877 -4.49431 0
M  V30 6147 H 581.58 1.06188 -5.77926 0
M  V30 6148 H 583.104 1.99427 -5.77115 0
M  V30 6149 H 584.518 -0.276724 -5.72632 0
M  V30 6150 H 582.915 -1.04652 -5.90904 0
M  V30 6151 H 583.985 -1.55884 -4.5916 0
M  V30 6152 N 585.328 1.53329 -0.364422 0
M  V30 6153 C 586.553 2.06132 0.229033 0
M  V30 6154 C 586.978 1.23625 1.41769 0
M  V30 6155 O 586.336 0.255038 1.79497 0
M  V30 6156 C 586.384 3.55544 0.60174 0
M  V30 6157 O 585.488 3.75771 1.69912 0
M  V30 6158 H 584.829 0.663148 0.0336213 0
M  V30 6159 H 587.359 1.97758 -0.524689 0
M  V30 6160 H 587.369 3.98549 0.873073 0
M  V30 6161 H 586.044 4.15039 -0.267421 0
M  V30 6162 H 584.621 3.44663 1.42343 0
M  V30 6163 N 586.806 0.0935595 1.57322 0
M  V30 6164 C 588.031 -0.582324 1.99057 0
M  V30 6165 C 588.456 -1.61025 0.972242 0
M  V30 6166 O 587.814 -1.81202 -0.0594622 0
M  V30 6167 C 587.862 -1.20799 3.39765 0
M  V30 6168 O 586.966 -2.32382 3.40694 0
M  V30 6169 H 586.307 -0.147884 0.647323 0
M  V30 6170 H 588.837 0.174516 2.03854 0
M  V30 6171 H 588.847 -1.54966 3.77425 0
M  V30 6172 H 587.522 -0.454914 4.13405 0
M  V30 6173 H 586.099 -1.99845 3.14827 0
M  V30 6174 N 588.284 -1.56567 -0.180126 0
M  V30 6175 C 589.531 -1.81492 -0.898167 0
M  V30 6176 C 589.859 -0.669225 -1.82624 0
M  V30 6177 O 589.114 0.344096 -1.92651 0
M  V30 6178 C 589.413 -3.1252 -1.73395 0
M  V30 6179 C 589.079 -4.40658 -0.955567 0
M  V30 6180 C 587.741 -4.75465 -0.740707 0
M  V30 6181 C 590.093 -5.19593 -0.408948 0
M  V30 6182 C 587.421 -5.86691 0.0320128 0
M  V30 6183 C 589.773 -6.31627 0.350638 0
M  V30 6184 C 588.437 -6.65007 0.576378 0
M  V30 6185 H 587.707 -0.664125 -0.328662 0
M  V30 6186 H 590.354 -1.908 -0.163616 0
M  V30 6187 H 588.659 -2.98515 -2.53763 0
M  V30 6188 H 590.356 -3.29013 -2.29241 0
M  V30 6189 H 586.946 -4.13352 -1.13306 0
M  V30 6190 H 591.13 -4.93104 -0.562307 0
M  V30 6191 H 586.386 -6.11016 0.216735 0
M  V30 6192 H 590.56 -6.92001 0.781497 0
M  V30 6193 H 588.187 -7.51033 1.17703 0
M  V30 6194 N 589.762 0.448376 -1.51087 0
M  V30 6195 C 591.011 1.19561 -1.62444 0
M  V30 6196 C 591.324 1.92602 -0.341151 0
M  V30 6197 O 592.53 2.69439 -0.333936 0
M  V30 6198 C 590.986 2.17373 -2.8684 0
M  V30 6199 C 590.594 1.5003 -4.22131 0
M  V30 6200 C 592.338 2.92597 -3.0755 0
M  V30 6201 C 590.245 2.46262 -5.37689 0
M  V30 6202 H 589.175 0.449975 -0.605011 0
M  V30 6203 H 591.826 0.463735 -1.77544 0
M  V30 6204 H 590.208 2.93948 -2.65349 0
M  V30 6205 H 591.382 0.790886 -4.53962 0
M  V30 6206 H 589.697 0.870011 -4.0721 0
M  V30 6207 H 592.294 3.64663 -3.91056 0
M  V30 6208 H 592.637 3.53306 -2.20183 0
M  V30 6209 H 593.17 2.23131 -3.29329 0
M  V30 6210 H 589.909 1.90258 -6.27281 0
M  V30 6211 H 589.429 3.15289 -5.10248 0
M  V30 6212 H 591.108 3.07623 -5.6919 0
M  V30 6213 N 591.24 1.41047 0.703093 0
M  V30 6214 C 592.517 1.30493 1.45708 0
M  V30 6215 C 592.897 -0.0709892 2.10981 0
M  V30 6216 O 592.245 -1.08471 2.01113 0
M  V30 6217 C 592.455 2.45287 2.48265 0
M  V30 6218 C 593.803 2.86104 3.13735 0
M  V30 6219 O 594.827 2.44971 2.58587 0
M  V30 6220 O 593.686 3.57206 4.13601 0
M  V30 6221 H 590.78 0.513144 0.648546 0
M  V30 6222 H 593.326 1.52995 0.734208 0
M  V30 6223 H 592.098 3.37135 1.98635 0
M  V30 6224 H 591.721 2.24622 3.28071 0
M  V30 6225 N 592.718 -0.936591 1.26751 0
M  V30 6226 C 593.665 -2.03597 1.08706 0
M  V30 6227 C 594.635 -1.66097 -0.00926542 0
M  V30 6228 O 595.82 -1.90199 0.151377 0
M  V30 6229 C 592.96 -3.3727 0.73094 0
M  V30 6230 C 592.073 -3.87778 1.90399 0
M  V30 6231 C 591.208 -5.09859 1.49056 0
M  V30 6232 C 590.247 -5.5264 2.63164 0
M  V30 6233 N 589.384 -6.65921 2.22471 0
M  V30 6234 H 594.224 -2.18364 2.02784 0
M  V30 6235 H 591.761 -1.06985 1.00958 0
M  V30 6236 H 593.719 -4.14128 0.505328 0
M  V30 6237 H 592.349 -3.22337 -0.172868 0
M  V30 6238 H 591.401 -3.07279 2.2424 0
M  V30 6239 H 592.713 -4.15464 2.76028 0
M  V30 6240 H 591.867 -5.9419 1.22567 0
M  V30 6241 H 590.606 -4.8393 0.60524 0
M  V30 6242 H 589.611 -4.66863 2.90377 0
M  V30 6243 H 590.836 -5.80568 3.52303 0
M  V30 6244 H 588.782 -6.41667 1.36379 0
M  V30 6245 H 588.699 -6.93216 3.01641 0
M  V30 6246 H 589.967 -7.53616 1.99205 0
M  V30 6247 N 594.196 -1.08629 -1.14182 0
M  V30 6248 C 595.444 -0.815731 -1.84906 0
M  V30 6249 C 595.765 0.660441 -1.83475 0
M  V30 6250 O 595.035 1.47888 -1.28476 0
M  V30 6251 H 593.615 -0.298773 -0.684648 0
M  V30 6252 H 596.277 -1.37274 -1.38354 0
M  V30 6253 H 595.373 -1.16193 -2.89665 0
M  V30 6254 N 595.674 1.31259 -0.872281 0
M  V30 6255 C 596.606 2.27396 -0.28697 0
M  V30 6256 C 597.619 1.53181 0.551297 0
M  V30 6257 O 598.808 1.74561 0.372914 0
M  V30 6258 C 595.908 3.33335 0.611617 0
M  V30 6259 C 595.081 4.36966 -0.194729 0
M  V30 6260 C 594.14 5.22387 0.632358 0
M  V30 6261 O 593.166 5.69169 0.0595691 0
M  V30 6262 N 594.368 5.46985 1.94391 0
M  V30 6263 H 597.133 2.78261 -1.11314 0
M  V30 6264 H 594.694 1.44306 -0.733994 0
M  V30 6265 H 596.686 3.87398 1.17068 0
M  V30 6266 H 595.256 2.82496 1.33846 0
M  V30 6267 H 594.476 3.82945 -0.935241 0
M  V30 6268 H 595.764 5.03273 -0.747935 0
M  V30 6269 H 595.162 5.10737 2.43237 0
M  V30 6270 H 593.719 6.03973 2.45071 0
M  V30 6271 N 597.152 0.631951 1.44375 0
M  V30 6272 C 598.062 -0.073674 2.34484 0
M  V30 6273 C 599.078 -0.834825 1.52665 0
M  V30 6274 O 600.254 -0.786902 1.85391 0
M  V30 6275 C 597.319 -1.04247 3.30656 0
M  V30 6276 C 596.38 -0.280602 4.28382 0
M  V30 6277 C 595.613 -1.20325 5.19959 0
M  V30 6278 O 595.836 -2.44199 5.15484 0
M  V30 6279 O 594.77 -0.687128 5.97965 0
M  V30 6280 H 598.596 0.667477 2.96274 0
M  V30 6281 H 596.181 0.392144 1.44162 0
M  V30 6282 H 598.063 -1.59981 3.89851 0
M  V30 6283 H 596.738 -1.76422 2.71398 0
M  V30 6284 H 595.645 0.319804 3.72731 0
M  V30 6285 H 596.978 0.401144 4.90563 0
M  V30 6286 N 598.631 -1.53133 0.372548 0
M  V30 6287 C 599.561 -2.28876 -0.462412 0
M  V30 6288 C 600.542 -1.31583 -1.07796 0
M  V30 6289 O 601.727 -1.60461 -1.09389 0
M  V30 6290 C 598.857 -3.08317 -1.59868 0
M  V30 6291 C 597.811 -4.13355 -1.11003 0
M  V30 6292 C 597.137 -4.8092 -2.33708 0
M  V30 6293 C 598.437 -5.21955 -0.18983 0
M  V30 6294 H 600.131 -2.9892 0.169511 0
M  V30 6295 H 597.677 -1.43761 0.0829658 0
M  V30 6296 H 599.63 -3.60055 -2.18949 0
M  V30 6297 H 598.354 -2.35976 -2.25794 0
M  V30 6298 H 597.013 -3.62573 -0.541869 0
M  V30 6299 H 596.661 -4.05144 -2.98106 0
M  V30 6300 H 596.361 -5.51904 -2.01682 0
M  V30 6301 H 597.885 -5.35455 -2.93462 0
M  V30 6302 H 599.299 -5.69153 -0.688319 0
M  V30 6303 H 597.696 -6.00087 0.0398887 0
M  V30 6304 H 598.766 -4.78811 0.766057 0
M  V30 6305 N 600.109 -0.101901 -1.5727 0
M  V30 6306 C 601.349 0.563489 -1.96479 0
M  V30 6307 C 601.713 1.64926 -0.983021 0
M  V30 6308 O 602.914 2.37234 -1.26386 0
M  V30 6309 C 601.185 1.09809 -3.40113 0
M  V30 6310 S 602.744 1.7744 -4.01323 0
M  V30 6311 H 599.562 0.183675 -0.686866 0
M  V30 6312 H 602.164 -0.182922 -1.94642 0
M  V30 6313 H 600.868 0.296447 -4.09328 0
M  V30 6314 H 600.399 1.88018 -3.45562 0
M  V30 6315 H 602.414 3.0591 -3.90683 0
M  V30 6316 N 601.587 1.56661 0.17182 0
M  V30 6317 C 602.55 1.9549 1.19651 0
M  V30 6318 C 603.55 0.838501 1.37207 0
M  V30 6319 O 604.74 1.10556 1.34622 0
M  V30 6320 C 601.872 2.24927 2.56166 0
M  V30 6321 H 603.065 2.87184 0.864007 0
M  V30 6322 H 600.618 1.50711 0.41425 0
M  V30 6323 H 601.353 1.35944 2.94431 0
M  V30 6324 H 601.138 3.06301 2.4479 0
M  V30 6325 H 602.628 2.55891 3.30014 0
M  V30 6326 N 603.065 -0.440357 1.51323 0
M  V30 6327 C 604.342 -1.20109 1.5438 0
M  V30 6328 C 604.722 -2.08866 0.306303 0
M  V30 6329 O 604.07 -2.1723 -0.708773 0
M  V30 6330 C 604.28 -2.00555 2.8562 0
M  V30 6331 C 605.628 -2.577 3.37455 0
M  V30 6332 O 606.652 -2.10769 2.8715 0
M  V30 6333 O 605.511 -3.43289 4.25224 0
M  V30 6334 H 602.605 -0.546668 0.620551 0
M  V30 6335 H 605.151 -0.449672 1.63634 0
M  V30 6336 H 603.923 -1.35346 3.67147 0
M  V30 6337 H 603.546 -2.82768 2.79514 0
M  V30 6338 N 604.543 -1.41418 -0.695603 0
M  V30 6339 C 605.773 -1.43921 -1.48224 0
M  V30 6340 C 606.181 -0.0428855 -1.89151 0
M  V30 6341 O 605.524 0.948138 -1.5734 0
M  V30 6342 C 605.586 -2.28466 -2.77567 0
M  V30 6343 C 605.25 -3.76629 -2.58844 0
M  V30 6344 C 606.247 -4.6879 -2.24793 0
M  V30 6345 C 603.932 -4.2067 -2.74485 0
M  V30 6346 C 605.926 -6.02981 -2.06622 0
M  V30 6347 C 603.613 -5.54926 -2.55931 0
M  V30 6348 C 604.611 -6.45897 -2.2205 0
M  V30 6349 O 604.299 -7.77675 -2.03657 0
M  V30 6350 H 604.031 -0.492252 -0.463318 0
M  V30 6351 H 606.585 -1.86347 -0.863952 0
M  V30 6352 H 604.815 -1.80853 -3.41802 0
M  V30 6353 H 606.504 -2.2267 -3.39371 0
M  V30 6354 H 607.27 -4.36055 -2.12323 0
M  V30 6355 H 603.149 -3.50167 -2.9984 0
M  V30 6356 H 606.693 -6.73951 -1.80099 0
M  V30 6357 H 602.59 -5.8724 -2.67991 0
M  V30 6358 H 603.358 -7.88819 -2.1842 0
M  V30 6359 N 606.021 0.929856 -1.27246 0
M  V30 6360 C 607.246 1.71674 -1.16374 0
M  V30 6361 C 607.671 1.86064 0.276024 0
M  V30 6362 O 607.029 1.3591 1.19992 0
M  V30 6363 C 607.077 3.09526 -1.85003 0
M  V30 6364 O 606.181 3.96142 -1.14653 0
M  V30 6365 H 605.522 0.52629 -0.404863 0
M  V30 6366 H 608.052 1.16381 -1.68276 0
M  V30 6367 H 608.062 3.59852 -1.92276 0
M  V30 6368 H 606.737 2.98369 -2.89739 0
M  V30 6369 H 605.314 3.54584 -1.15433 0
M  V30 6370 N 607.499 1.09233 1.13605 0
M  V30 6371 C 608.409 0.741939 2.22559 0
M  V30 6372 C 609.425 -0.255236 1.72118 0
M  V30 6373 O 610.601 -0.0970747 2.01166 0
M  V30 6374 C 607.666 0.165595 3.46304 0
M  V30 6375 C 606.727 1.21846 4.11645 0
M  V30 6376 C 605.96 0.669526 5.29484 0
M  V30 6377 O 606.183 -0.508228 5.68131 0
M  V30 6378 O 605.117 1.42361 5.84822 0
M  V30 6379 H 608.943 1.65107 2.54899 0
M  V30 6380 H 606.528 0.866584 1.21699 0
M  V30 6381 H 608.41 -0.152592 4.21124 0
M  V30 6382 H 607.085 -0.716573 3.15669 0
M  V30 6383 H 605.992 1.58931 3.38662 0
M  V30 6384 H 607.325 2.07321 4.46407 0
M  V30 6385 N 608.977 -1.30795 0.87923 0
M  V30 6386 C 609.925 -2.30231 0.331112 0
M  V30 6387 C 610.919 -1.59918 -0.558794 0
M  V30 6388 O 612.125 -1.74441 -0.443866 0
M  V30 6389 H 608.5 -0.746785 0.088409 0
M  V30 6390 H 610.471 -2.73925 1.18353 0
M  V30 6391 C 609.22 -3.44848 -0.444401 0
M  V30 6392 H 608.543 -3.99131 0.231106 0
M  V30 6393 H 609.983 -4.16516 -0.793109 0
M  V30 6394 C 608.442 -2.94329 -1.63926 0
M  V30 6395 O 608.972 -2.93875 -2.73862 0
M  V30 6396 N 607.178 -2.50413 -1.4745 0
M  V30 6397 H 606.725 -2.50982 -0.58015 0
M  V30 6398 H 606.683 -2.16969 -2.27534 0
M  V30 6399 N 610.455 -0.639598 -1.44038 0
M  V30 6400 C 611.683 -0.154811 -2.0632 0
M  V30 6401 C 612.098 1.17406 -1.47856 0
M  V30 6402 O 611.455 1.72193 -0.604638 0
M  V30 6403 C 611.506 -0.0429958 -3.61474 0
M  V30 6404 O 611.227 -1.31932 -4.17763 0
M  V30 6405 C 612.728 0.469486 -4.40807 0
M  V30 6406 H 609.948 -0.0835862 -0.665773 0
M  V30 6407 H 612.492 -0.876397 -1.84769 0
M  V30 6408 H 610.647 0.629075 -3.82258 0
M  V30 6409 H 611.061 -1.16965 -5.11292 0
M  V30 6410 H 612.535 0.496712 -5.49761 0
M  V30 6411 H 613.012 1.49819 -4.12857 0
M  V30 6412 H 613.618 -0.169624 -4.24962 0
M  V30 6413 N 611.933 1.52934 -0.380664 0
M  V30 6414 C 613.18 2.01467 0.204278 0
M  V30 6415 C 613.508 1.26744 1.47533 0
M  V30 6416 O 612.763 0.353723 1.92477 0
M  V30 6417 C 613.062 3.5349 0.527199 0
M  V30 6418 C 612.728 4.46171 -0.651295 0
M  V30 6419 C 611.39 4.71227 -0.974619 0
M  V30 6420 C 613.742 5.00909 -1.44012 0
M  V30 6421 C 611.07 5.4827 -2.08847 0
M  V30 6422 C 613.422 5.7917 -2.5445 0
M  V30 6423 C 612.086 6.02507 -2.87301 0
M  V30 6424 H 611.356 0.73722 0.0747504 0
M  V30 6425 H 614.003 1.84411 -0.516234 0
M  V30 6426 H 612.308 3.68574 1.32892 0
M  V30 6427 H 614.005 3.88529 0.992283 0
M  V30 6428 H 610.595 4.26829 -0.389276 0
M  V30 6429 H 614.779 4.81485 -1.20357 0
M  V30 6430 H 610.035 5.64567 -2.34679 0
M  V30 6431 H 614.209 6.20588 -3.1598 0
M  V30 6432 H 611.836 6.61989 -3.7373 0
M  V30 6433 N 613.412 0.11024 1.57214 0
M  V30 6434 C 614.64 -0.557834 1.99238 0
M  V30 6435 C 615.055 -1.60778 0.989734 0
M  V30 6436 O 614.412 -1.82491 -0.0186092 0
M  V30 6437 C 614.463 -1.19189 3.41286 0
M  V30 6438 O 614.184 -0.183919 4.37714 0
M  V30 6439 C 615.685 -1.94413 3.98395 0
M  V30 6440 H 612.905 -0.148392 0.654386 0
M  V30 6441 H 615.449 0.193996 2.03578 0
M  V30 6442 H 613.604 -1.89456 3.37913 0
M  V30 6443 H 614.018 -0.643475 5.20538 0
M  V30 6444 H 615.492 -2.34116 4.99894 0
M  V30 6445 H 615.969 -2.81592 3.3705 0
M  V30 6446 H 616.575 -1.28928 4.05287 0
M  V30 6447 N 614.89 -1.56749 -0.16351 0
M  V30 6448 C 615.8 -2.00255 -1.2221 0
M  V30 6449 C 616.816 -0.915194 -1.47987 0
M  V30 6450 O 617.992 -1.22342 -1.59982 0
M  V30 6451 C 615.057 -2.36035 -2.53946 0
M  V30 6452 C 614.118 -3.58637 -2.35962 0
M  V30 6453 C 613.351 -3.92701 -3.61416 0
M  V30 6454 O 613.574 -3.27632 -4.66919 0
M  V30 6455 O 612.508 -4.86019 -3.55062 0
M  V30 6456 H 616.334 -2.90586 -0.882794 0
M  V30 6457 H 613.919 -1.44721 -0.370978 0
M  V30 6458 H 615.801 -2.59982 -3.31643 0
M  V30 6459 H 614.476 -1.48863 -2.8744 0
M  V30 6460 H 613.383 -3.39898 -1.5627 0
M  V30 6461 H 614.716 -4.46374 -2.0739 0
M  V30 6462 N 616.368 0.432326 -1.51554 0
M  V30 6463 C 617.598 1.2019 -1.68042 0
M  V30 6464 C 618.006 1.85356 -0.379434 0
M  V30 6465 O 617.349 1.71724 0.652427 0
M  V30 6466 C 617.411 2.32387 -2.74292 0
M  V30 6467 C 617.075 1.87548 -4.16743 0
M  V30 6468 C 618.072 1.37611 -5.01357 0
M  V30 6469 C 615.757 1.95087 -4.62868 0
M  V30 6470 C 617.751 0.958069 -6.30159 0
M  V30 6471 C 615.438 1.52894 -5.91664 0
M  V30 6472 C 616.436 1.03336 -6.75137 0
M  V30 6473 O 616.124 0.617435 -8.01525 0
M  V30 6474 H 615.856 0.368132 -0.56697 0
M  V30 6475 H 618.41 0.517875 -1.98764 0
M  V30 6476 H 616.64 3.04082 -2.38895 0
M  V30 6477 H 618.329 2.94235 -2.79608 0
M  V30 6478 H 619.095 1.31178 -4.66923 0
M  V30 6479 H 614.974 2.32606 -3.98015 0
M  V30 6480 H 618.518 0.570562 -6.95263 0
M  V30 6481 H 614.415 1.58999 -6.25611 0
M  V30 6482 H 615.183 0.742835 -8.15122 0
M  V30 6483 N 617.846 1.41785 0.688094 0
M  V30 6484 C 618.793 1.44221 1.80191 0
M  V30 6485 C 619.763 0.295688 1.63447 0
M  V30 6486 O 620.948 0.49783 1.84191 0
M  V30 6487 C 618.088 1.33743 3.1813 0
M  V30 6488 C 617.201 2.58325 3.46254 0
M  V30 6489 C 616.336 2.40086 4.73848 0
M  V30 6490 C 615.375 3.60107 4.94964 0
M  V30 6491 N 614.512 3.40892 6.13789 0
M  V30 6492 H 619.352 2.39411 1.77444 0
M  V30 6493 H 616.889 1.18876 0.866423 0
M  V30 6494 H 618.847 1.25669 3.97823 0
M  V30 6495 H 617.477 0.42157 3.20035 0
M  V30 6496 H 616.529 2.7682 2.60912 0
M  V30 6497 H 617.841 3.4758 3.57756 0
M  V30 6498 H 616.995 2.29522 5.61609 0
M  V30 6499 H 615.734 1.483 4.64606 0
M  V30 6500 H 614.739 3.71118 4.05649 0
M  V30 6501 H 615.964 4.52857 5.06061 0
M  V30 6502 H 613.91 2.51812 6.05745 0
M  V30 6503 H 613.827 4.23727 6.26092 0
M  V30 6504 H 615.095 3.34114 7.04264 0
M  V30 6505 N 619.324 -0.923095 1.27737 0
M  V30 6506 C 620.271 -2.02432 1.1086 0
M  V30 6507 C 621.241 -1.66098 0.00835195 0
M  V30 6508 O 622.426 -1.90027 0.171542 0
M  V30 6509 C 619.566 -3.36476 0.766671 0
M  V30 6510 C 618.679 -3.85737 1.94501 0
M  V30 6511 C 617.814 -5.08249 1.54455 0
M  V30 6512 C 616.853 -5.49818 2.6901 0
M  V30 6513 N 615.99 -6.63524 2.29521 0
M  V30 6514 H 620.83 -2.16201 2.05089 0
M  V30 6515 H 618.367 -1.05909 1.02087 0
M  V30 6516 H 620.325 -4.13569 0.549223 0
M  V30 6517 H 618.955 -3.22502 -0.13867 0
M  V30 6518 H 618.007 -3.04883 2.27487 0
M  V30 6519 H 619.319 -4.12513 2.80419 0
M  V30 6520 H 618.473 -5.92857 1.28862 0
M  V30 6521 H 617.212 -4.83261 0.656534 0
M  V30 6522 H 616.217 -4.63757 2.95313 0
M  V30 6523 H 617.442 -5.76799 3.5844 0
M  V30 6524 H 615.388 -6.40185 1.43177 0
M  V30 6525 H 615.305 -6.89978 3.08977 0
M  V30 6526 H 616.573 -7.51461 2.07187 0
M  V30 6527 N 620.802 -1.09834 -1.13024 0
M  V30 6528 C 621.749 -0.741522 -2.18564 0
M  V30 6529 C 622.719 0.279236 -1.63736 0
M  V30 6530 O 623.904 0.159923 -1.90129 0
M  V30 6531 C 621.044 -0.17277 -3.44667 0
M  V30 6532 C 620.157 -1.24808 -4.13578 0
M  V30 6533 C 619.292 -0.641631 -5.27311 0
M  V30 6534 C 618.331 -1.69795 -5.88078 0
M  V30 6535 N 617.468 -1.11223 -6.93234 0
M  V30 6536 H 622.308 -1.64576 -2.48432 0
M  V30 6537 H 619.845 -0.822174 -1.21978 0
M  V30 6538 H 621.803 0.17482 -4.16834 0
M  V30 6539 H 620.433 0.694725 -3.15235 0
M  V30 6540 H 619.485 -1.71288 -3.39653 0
M  V30 6541 H 620.797 -2.04795 -4.54819 0
M  V30 6542 H 619.951 -0.243128 -6.06213 0
M  V30 6543 H 618.69 0.189742 -4.87331 0
M  V30 6544 H 617.695 -2.10595 -5.07868 0
M  V30 6545 H 618.92 -2.53206 -6.3013 0
M  V30 6546 H 616.866 -0.302208 -6.55304 0
M  V30 6547 H 616.783 -1.84901 -7.3304 0
M  V30 6548 H 618.051 -0.740068 -7.75979 0
M  V30 6549 N 622.28 1.30327 -0.886154 0
M  V30 6550 C 623.21 2.30549 -0.370028 0
M  V30 6551 C 624.191 1.61039 0.547751 0
M  V30 6552 O 625.376 1.8864 0.461353 0
M  V30 6553 C 622.506 3.44808 0.415275 0
M  V30 6554 C 621.46 4.26024 -0.41085 0
M  V30 6555 C 620.786 5.32347 0.501128 0
M  V30 6556 C 622.086 4.95433 -1.65359 0
M  V30 6557 H 623.78 2.73969 -1.20754 0
M  V30 6558 H 621.326 1.3171 -0.582097 0
M  V30 6559 H 623.279 4.13986 0.78699 0
M  V30 6560 H 622.003 3.00197 1.28644 0
M  V30 6561 H 620.662 3.58535 -0.764719 0
M  V30 6562 H 620.31 4.83982 1.37004 0
M  V30 6563 H 620.01 5.87581 -0.0478356 0
M  V30 6564 H 621.534 6.0438 0.869333 0
M  V30 6565 H 622.948 5.5712 -1.35239 0
M  V30 6566 H 621.345 5.60537 -2.14284 0
M  V30 6567 H 622.415 4.21493 -2.39733 0
M  V30 6568 N 623.758 0.647228 1.43697 0
M  V30 6569 C 624.721 -0.0385101 2.29168 0
M  V30 6570 C 625.721 -0.756487 1.41894 0
M  V30 6571 O 626.911 -0.598641 1.63591 0
M  V30 6572 C 624.043 -1.06524 3.23829 0
M  V30 6573 H 625.236 0.713445 2.9129 0
M  V30 6574 H 622.789 0.408153 1.50877 0
M  V30 6575 H 623.524 -1.84664 2.66589 0
M  V30 6576 H 623.309 -0.554147 3.88164 0
M  V30 6577 H 624.799 -1.54432 3.87996 0
M  V30 6578 N 625.236 -1.5273 0.388769 0
M  V30 6579 C 626.146 -2.30165 -0.453993 0
M  V30 6580 C 627.162 -1.37058 -1.07197 0
M  V30 6581 O 628.338 -1.70127 -1.0779 0
M  V30 6582 C 625.403 -3.09303 -1.56628 0
M  V30 6583 C 624.464 -4.18117 -0.973467 0
M  V30 6584 C 623.697 -4.93472 -2.03275 0
M  V30 6585 O 623.92 -4.68913 -3.24772 0
M  V30 6586 O 622.854 -5.78833 -1.65034 0
M  V30 6587 H 626.68 -3.03185 0.176816 0
M  V30 6588 H 624.265 -1.4862 0.152501 0
M  V30 6589 H 626.147 -3.58648 -2.21246 0
M  V30 6590 H 624.822 -2.39098 -2.18206 0
M  V30 6591 H 623.729 -3.7297 -0.290556 0
M  V30 6592 H 625.062 -4.90556 -0.401908 0
M  V30 6593 N 626.714 -0.118576 -1.57153 0
M  V30 6594 C 628.13 0.238014 -1.57815 0
M  V30 6595 C 628.33 1.66747 -1.13127 0
M  V30 6596 O 627.386 2.38867 -0.818462 0
M  V30 6597 C 628.699 0.00508207 -3.007 0
M  V30 6598 C 630.247 0.0710139 -3.12919 0
M  V30 6599 C 630.722 -0.13422 -4.57803 0
M  V30 6600 N 632.213 -0.0801755 -4.63131 0
M  V30 6601 C 632.948 -0.213885 -5.73001 0
M  V30 6602 N 632.444 -0.403742 -6.91623 0
M  V30 6603 N 634.237 -0.15349 -5.6189 0
M  V30 6604 H 626.388 -1.05226 -1.84503 0
M  V30 6605 H 628.651 -0.414318 -0.852669 0
M  V30 6606 H 628.357 -0.983125 -3.3768 0
M  V30 6607 H 628.231 0.73714 -3.69927 0
M  V30 6608 H 630.618 1.04975 -2.75798 0
M  V30 6609 H 630.699 -0.692918 -2.46236 0
M  V30 6610 H 630.343 -1.10992 -4.95624 0
M  V30 6611 H 630.273 0.649692 -5.22577 0
M  V30 6612 H 632.764 0.0630689 -3.77847 0
M  V30 6613 H 633.077 -0.496645 -7.71202 0
M  V30 6614 H 631.422 -0.43971 -6.93608 0
M  V30 6615 H 634.613 -0.00613174 -4.681 0
M  V30 6616 H 634.786 -0.261138 -6.47474 0
M  V30 6617 N 628.193 1.56834 0.155195 0
M  V30 6618 C 629.123 2.00678 1.19376 0
M  V30 6619 C 630.104 0.884973 1.45266 0
M  V30 6620 O 631.289 1.1522 1.56326 0
M  V30 6621 C 628.419 2.38042 2.5289 0
M  V30 6622 C 627.373 3.53332 2.41538 0
M  V30 6623 C 626.699 3.76485 3.79688 0
M  V30 6624 C 627.999 4.86265 1.9064 0
M  V30 6625 H 629.693 2.87688 0.829232 0
M  V30 6626 H 627.239 1.38407 0.397445 0
M  V30 6627 H 629.192 2.67314 3.25763 0
M  V30 6628 H 627.916 1.4796 2.91162 0
M  V30 6629 H 626.575 3.24213 1.71117 0
M  V30 6630 H 626.223 2.83667 4.15382 0
M  V30 6631 H 625.923 4.54068 3.72956 0
M  V30 6632 H 627.447 4.08174 4.54122 0
M  V30 6633 H 628.861 5.14308 2.53299 0
M  V30 6634 H 627.258 5.67597 1.94818 0
M  V30 6635 H 628.328 4.77184 0.861596 0
M  V30 6636 N 629.671 -0.424282 1.51781 0
M  V30 6637 C 630.618 -1.51591 1.74037 0
M  V30 6638 C 631.588 -1.55556 0.582358 0
M  V30 6639 O 632.773 -1.72364 0.818245 0
M  V30 6640 C 629.913 -2.89188 1.8832 0
M  V30 6641 C 629.026 -2.9465 3.1592 0
M  V30 6642 C 628.161 -4.23452 3.20721 0
M  V30 6643 C 627.2 -4.22831 4.42584 0
M  V30 6644 N 626.337 -5.43178 4.44862 0
M  V30 6645 H 631.177 -1.31917 2.67212 0
M  V30 6646 H 628.714 -0.640599 1.32419 0
M  V30 6647 H 630.672 -3.69044 1.94583 0
M  V30 6648 H 629.302 -3.07392 0.985402 0
M  V30 6649 H 628.354 -2.07378 3.18902 0
M  V30 6650 H 629.666 -2.90055 4.05795 0
M  V30 6651 H 628.82 -5.1169 3.25973 0
M  V30 6652 H 627.559 -4.30722 2.28757 0
M  V30 6653 H 626.564 -3.32984 4.37495 0
M  V30 6654 H 627.789 -4.17213 5.35826 0
M  V30 6655 H 625.735 -5.51145 3.55775 0
M  V30 6656 H 625.652 -5.40515 5.28563 0
M  V30 6657 H 626.92 -6.33412 4.54324 0
M  V30 6658 N 631.149 -1.42148 -0.680565 0
M  V30 6659 C 632.112 -1.4488 -1.77602 0
M  V30 6660 C 633.112 -0.337209 -1.57224 0
M  V30 6661 O 634.302 -0.597778 -1.63622 0
M  V30 6662 C 631.434 -1.27483 -3.16166 0
M  V30 6663 H 632.627 -2.42412 -1.76568 0
M  V30 6664 H 630.18 -1.28511 -0.889645 0
M  V30 6665 H 630.915 -0.30851 -3.22829 0
M  V30 6666 H 630.7 -2.08037 -3.3236 0
M  V30 6667 H 632.19 -1.32265 -3.96101 0
M  V30 6668 N 632.627 0.916307 -1.28225 0
M  V30 6669 C 633.574 2.01841 -1.11932 0
M  V30 6670 C 634.544 1.66091 -0.0171604 0
M  V30 6671 O 635.729 1.89934 -0.181617 0
M  V30 6672 C 632.869 3.36065 -0.784504 0
M  V30 6673 C 631.982 3.847 -1.96544 0
M  V30 6674 C 631.117 5.07423 -1.57149 0
M  V30 6675 C 630.156 5.48384 -2.71922 0
M  V30 6676 N 629.293 6.62298 -2.33037 0
M  V30 6677 H 634.133 2.1511 -2.06232 0
M  V30 6678 H 631.67 1.05366 -1.02647 0
M  V30 6679 H 633.628 4.13272 -0.571148 0
M  V30 6680 H 632.258 3.22571 0.121565 0
M  V30 6681 H 631.31 3.03673 -2.291 0
M  V30 6682 H 632.622 4.1102 -2.82603 0
M  V30 6683 H 631.776 5.92165 -1.32004 0
M  V30 6684 H 630.515 4.82906 -0.682153 0
M  V30 6685 H 629.52 4.62184 -2.97768 0
M  V30 6686 H 630.745 5.7489 -3.61494 0
M  V30 6687 H 628.691 6.39416 -1.4657 0
M  V30 6688 H 628.608 6.8833 -3.12631 0
M  V30 6689 H 629.876 7.50352 -2.11169 0
M  V30 6690 N 634.105 1.10431 1.1244 0
M  V30 6691 C 635.035 0.775143 2.20258 0
M  V30 6692 C 636.016 -0.25186 1.68225 0
M  V30 6693 O 637.201 -0.117637 1.93843 0
M  V30 6694 C 634.331 0.206133 3.46688 0
M  V30 6695 C 633.285 1.16382 4.11873 0
M  V30 6696 C 632.611 0.456014 5.32752 0
M  V30 6697 C 633.911 2.5104 4.58013 0
M  V30 6698 H 635.605 1.67665 2.4805 0
M  V30 6699 H 633.151 0.807595 1.19222 0
M  V30 6700 H 635.104 -0.036291 4.21384 0
M  V30 6701 H 633.828 -0.730614 3.18323 0
M  V30 6702 H 632.487 1.39169 3.39157 0
M  V30 6703 H 632.135 -0.485203 5.00654 0
M  V30 6704 H 631.835 1.09466 5.77314 0
M  V30 6705 H 633.359 0.222135 6.10196 0
M  V30 6706 H 634.773 2.32401 5.24083 0
M  V30 6707 H 633.17 3.10789 5.13352 0
M  V30 6708 H 634.24 3.11039 3.71998 0
M  V30 6709 N 635.583 -1.29855 0.893053 0
M  V30 6710 C 636.994 -1.77946 0.564998 0
M  V30 6711 C 637.345 -1.73339 -0.919134 0
M  V30 6712 O 636.47 -1.3152 -1.71847 0
M  V30 6713 C 637.065 -3.23118 1.01883 0
M  V30 6714 C 635.624 -3.69013 0.742051 0
M  V30 6715 C 634.771 -2.50121 1.19727 0
M  V30 6716 H 637.722 -1.16611 1.07646 0
M  V30 6717 H 637.743 -3.78875 0.351249 0
M  V30 6718 H 637.255 -3.26439 2.09903 0
M  V30 6719 H 635.356 -3.71173 -0.325816 0
M  V30 6720 H 635.469 -4.60117 1.33527 0
M  V30 6721 H 633.833 -2.47128 0.616418 0
M  V30 6722 H 634.616 -2.56174 2.28538 0
M  V30 6723 N 637.061 -0.65484 -1.43351 0
M  V30 6724 C 638.338 -0.0987371 -1.95351 0
M  V30 6725 C 638.718 1.38161 -1.59608 0
M  V30 6726 O 638.066 2.10791 -0.882021 0
M  V30 6727 C 638.276 -0.346684 -3.47274 0
M  V30 6728 C 639.624 -0.25249 -4.23849 0
M  V30 6729 O 640.648 -0.279332 -3.55103 0
M  V30 6730 O 639.507 -0.177584 -5.46211 0
M  V30 6731 H 636.601 0.0086829 -0.826954 0
M  V30 6732 H 639.147 -0.728189 -1.53282 0
M  V30 6733 H 637.919 -1.37296 -3.66423 0
M  V30 6734 H 637.542 0.315757 -3.96344 0
M  V30 6735 N 638.539 1.52521 -0.396863 0
M  V30 6736 C 639.502 2.2527 0.422604 0
M  V30 6737 C 640.502 1.27184 0.983913 0
M  V30 6738 O 641.692 1.51222 0.864723 0
M  V30 6739 C 638.824 3.01356 1.59365 0
M  V30 6740 H 640.017 2.99133 -0.214416 0
M  V30 6741 H 637.57 1.55587 -0.149128 0
M  V30 6742 H 638.305 2.31813 2.26789 0
M  V30 6743 H 638.09 3.73357 1.19779 0
M  V30 6744 H 639.58 3.56571 2.17363 0
M  V30 6745 N 640.017 0.126909 1.57088 0
M  V30 6746 C 641.245 -0.53667 1.99819 0
M  V30 6747 C 641.66 -1.5972 1.00673 0
M  V30 6748 O 641.017 -1.825 0.000747365 0
M  V30 6749 C 641.068 -1.15563 3.42531 0
M  V30 6750 O 640.789 -0.137483 4.37884 0
M  V30 6751 C 642.29 -1.90176 4.00435 0
M  V30 6752 H 639.51 -0.141443 0.655923 0
M  V30 6753 H 642.054 0.215578 2.03361 0
M  V30 6754 H 640.209 -1.85861 3.39904 0
M  V30 6755 H 640.623 -0.588229 5.21191 0
M  V30 6756 H 642.097 -2.28801 5.02349 0
M  V30 6757 H 642.574 -2.78002 3.40017 0
M  V30 6758 H 643.18 -1.24623 4.06632 0
M  V30 6759 N 641.495 -1.56914 -0.146875 0
M  V30 6760 C 642.906 -1.72799 -0.706928 0
M  V30 6761 C 643.257 -0.741329 -1.81656 0
M  V30 6762 O 642.382 0.0920162 -2.16204 0
M  V30 6763 C 642.977 -3.13317 -1.28911 0
M  V30 6764 C 641.536 -3.30803 -1.79573 0
M  V30 6765 C 640.683 -2.68725 -0.684252 0
M  V30 6766 H 643.634 -1.58504 0.0787931 0
M  V30 6767 H 643.655 -3.13323 -2.15891 0
M  V30 6768 H 643.167 -3.85104 -0.481284 0
M  V30 6769 H 641.268 -2.64012 -2.62923 0
M  V30 6770 H 641.381 -4.38754 -1.92436 0
M  V30 6771 H 639.745 -2.29196 -1.11091 0
M  V30 6772 H 640.528 -3.43117 0.112134 0
M  V30 6773 N 642.974 0.416227 -1.52004 0
M  V30 6774 C 643.921 1.50666 -1.74838 0
M  V30 6775 C 644.891 1.55245 -0.590599 0
M  V30 6776 O 646.076 1.71928 -0.827374 0
M  V30 6777 C 643.216 2.88185 -1.89851 0
M  V30 6778 C 642.329 2.92971 -3.17478 0
M  V30 6779 C 641.464 4.21745 -3.22962 0
M  V30 6780 C 640.503 4.20478 -4.4482 0
M  V30 6781 N 639.64 5.40811 -4.47736 0
M  V30 6782 H 644.48 1.30498 -2.67907 0
M  V30 6783 H 642.017 0.633568 -1.32757 0
M  V30 6784 H 643.975 3.68007 -1.96537 0
M  V30 6785 H 642.605 3.06865 -1.00169 0
M  V30 6786 H 641.657 2.05684 -3.19997 0
M  V30 6787 H 642.969 2.87899 -4.07328 0
M  V30 6788 H 642.123 5.09954 -3.28682 0
M  V30 6789 H 640.862 4.29503 -2.31038 0
M  V30 6790 H 639.867 3.30659 -4.39254 0
M  V30 6791 H 641.092 4.14366 -5.38031 0
M  V30 6792 H 639.038 5.4925 -3.58692 0
M  V30 6793 H 638.955 5.37705 -5.31422 0
M  V30 6794 H 640.223 6.30993 -4.57676 0
M  V30 6795 N 644.452 1.42507 0.673017 0
M  V30 6796 C 645.362 1.4853 1.81593 0
M  V30 6797 C 646.378 0.373907 1.69935 0
M  V30 6798 O 647.554 0.625078 1.91454 0
M  V30 6799 C 644.619 1.387 3.17747 0
M  V30 6800 C 643.68 2.60346 3.41348 0
M  V30 6801 C 642.913 2.50975 4.71007 0
M  V30 6802 O 643.136 1.54659 5.49033 0
M  V30 6803 O 642.07 3.41138 4.95892 0
M  V30 6804 H 645.896 2.45001 1.79467 0
M  V30 6805 H 643.481 1.2429 0.82899 0
M  V30 6806 H 645.363 1.35586 3.98992 0
M  V30 6807 H 644.038 0.453555 3.20507 0
M  V30 6808 H 642.945 2.69034 2.59945 0
M  V30 6809 H 644.278 3.52595 3.43421 0
M  V30 6810 N 645.93 -0.909495 1.28709 0
M  V30 6811 C 646.86 -2.0291 1.15542 0
M  V30 6812 C 647.841 -1.7002 0.0521017 0
M  V30 6813 O 649.026 -1.92835 0.229849 0
M  V30 6814 C 646.156 -3.37458 0.820935 0
M  V30 6815 C 645.11 -3.84524 1.87949 0
M  V30 6816 C 644.436 -5.16086 1.39854 0
M  V30 6817 C 645.736 -4.05918 3.28676 0
M  V30 6818 H 647.43 -2.14183 2.09203 0
M  V30 6819 H 644.976 -1.02913 1.00722 0
M  V30 6820 H 646.929 -4.1528 0.715571 0
M  V30 6821 H 645.653 -3.26249 -0.151374 0
M  V30 6822 H 644.312 -3.08911 1.97408 0
M  V30 6823 H 643.96 -5.01284 0.41518 0
M  V30 6824 H 643.66 -5.48547 2.1064 0
M  V30 6825 H 645.184 -5.96459 1.30649 0
M  V30 6826 H 646.598 -4.74252 3.22115 0
M  V30 6827 H 644.995 -4.49717 3.97334 0
M  V30 6828 H 646.065 -3.10583 3.72379 0
M  V30 6829 N 647.408 -1.11026 -1.11852 0
M  V30 6830 C 648.371 -0.768006 -2.1595 0
M  V30 6831 C 649.371 0.210538 -1.59416 0
M  V30 6832 O 650.561 -0.0133978 -1.74195 0
M  V30 6833 C 647.693 -0.138678 -3.40618 0
M  V30 6834 H 648.886 -1.69012 -2.4774 0
M  V30 6835 H 646.439 -0.911578 -1.26964 0
M  V30 6836 H 647.174 0.793872 -3.14433 0
M  V30 6837 H 646.959 -0.843012 -3.8293 0
M  V30 6838 H 648.449 0.0848039 -4.17514 0
M  V30 6839 N 648.886 1.2938 -0.899927 0
M  V30 6840 C 649.833 2.27713 -0.376243 0
M  V30 6841 C 650.803 1.57016 0.541774 0
M  V30 6842 O 651.988 1.84997 0.466966 0
M  V30 6843 C 649.128 3.42889 0.39 0
M  V30 6844 C 648.241 4.28369 -0.558938 0
M  V30 6845 C 647.376 5.30726 0.224379 0
M  V30 6846 C 646.415 6.07862 -0.719068 0
M  V30 6847 N 645.552 7.02094 0.0298569 0
M  V30 6848 H 650.392 2.71888 -1.21988 0
M  V30 6849 H 647.929 1.33724 -0.612879 0
M  V30 6850 H 649.887 4.08443 0.850314 0
M  V30 6851 H 648.517 2.99743 1.19809 0
M  V30 6852 H 647.569 3.62986 -1.13777 0
M  V30 6853 H 648.881 4.82068 -1.2811 0
M  V30 6854 H 648.035 6.02098 0.745881 0
M  V30 6855 H 646.774 4.77759 0.979674 0
M  V30 6856 H 645.779 5.35353 -1.25207 0
M  V30 6857 H 647.004 6.62917 -1.4737 0
M  V30 6858 H 644.95 6.51496 0.767415 0
M  V30 6859 H 644.867 7.5335 -0.632391 0
M  V30 6860 H 646.135 7.77685 0.531615 0
M  V30 6861 N 650.364 0.662433 1.43002 0
M  V30 6862 C 651.294 -0.00979809 2.33498 0
M  V30 6863 C 652.275 -0.802329 1.49989 0
M  V30 6864 O 653.46 -0.761964 1.78627 0
M  V30 6865 C 650.59 -0.970446 3.33466 0
M  V30 6866 C 649.544 -0.287383 4.27034 0
M  V30 6867 C 648.87 -1.36012 5.17112 0
M  V30 6868 C 650.17 0.82595 5.15728 0
M  V30 6869 H 651.864 0.745959 2.89958 0
M  V30 6870 H 649.41 0.360172 1.39423 0
M  V30 6871 H 651.363 -1.44971 3.95679 0
M  V30 6872 H 650.087 -1.75748 2.75282 0
M  V30 6873 H 648.746 0.17152 3.66199 0
M  V30 6874 H 648.394 -2.13882 4.55262 0
M  V30 6875 H 648.094 -0.908276 5.80538 0
M  V30 6876 H 649.618 -1.84056 5.82199 0
M  V30 6877 H 651.032 0.42845 5.71697 0
M  V30 6878 H 649.429 1.20282 5.87922 0
M  V30 6879 H 650.499 1.68003 4.54866 0
M  V30 6880 N 651.842 -1.52309 0.404946 0
M  V30 6881 C 653.088 -2.02065 -0.172455 0
M  V30 6882 C 653.421 -1.29022 -1.45145 0
M  V30 6883 O 652.696 -0.395284 -1.90441 0
M  V30 6884 C 652.979 -3.5759 -0.424433 0
M  V30 6885 C 652.832 -4.41287 0.870945 0
M  V30 6886 C 654.151 -4.23186 -1.20837 0
M  V30 6887 H 651.27 -0.734454 -0.0612035 0
M  V30 6888 H 653.912 -1.82236 0.53759 0
M  V30 6889 H 652.062 -3.74617 -1.02929 0
M  V30 6890 H 653.734 -4.3598 1.50729 0
M  V30 6891 H 651.977 -4.07669 1.48284 0
M  V30 6892 H 652.648 -5.48171 0.649083 0
M  V30 6893 H 655.124 -4.10232 -0.696338 0
M  V30 6894 H 654 -5.31953 -1.35343 0
M  V30 6895 H 654.261 -3.81862 -2.22786 0
M  V30 6896 N 653.32 -0.135238 -1.57019 0
M  V30 6897 C 654.268 0.826099 -2.17436 0
M  V30 6898 C 655.262 1.26378 -1.12805 0
M  V30 6899 O 656.468 1.23363 -1.31079 0
M  V30 6900 H 652.843 0.284568 -0.696078 0
M  V30 6901 H 654.814 0.292212 -2.96966 0
M  V30 6902 C 653.563 2.05991 -2.80112 0
M  V30 6903 H 652.886 1.73209 -3.60331 0
M  V30 6904 H 654.326 2.71225 -3.25903 0
M  V30 6905 C 652.785 2.86027 -1.78017 0
M  V30 6906 O 653.315 3.81971 -1.24344 0
M  V30 6907 N 651.521 2.50332 -1.47588 0
M  V30 6908 H 651.068 1.72377 -1.91426 0
M  V30 6909 H 651.026 3.04177 -0.795228 0
M  V30 6910 N 654.798 1.5699 0.138552 0
M  V30 6911 C 655.745 1.98899 1.17081 0
M  V30 6912 C 656.715 0.857922 1.42228 0
M  V30 6913 O 657.9 1.12065 1.54422 0
M  V30 6914 C 655.04 2.38189 2.4972 0
M  V30 6915 C 654.153 3.64624 2.31674 0
M  V30 6916 C 653.288 3.9298 3.57407 0
M  V30 6917 C 652.327 5.1266 3.34435 0
M  V30 6918 N 651.464 5.36983 4.5232 0
M  V30 6919 H 656.304 2.86881 0.80642 0
M  V30 6920 H 653.841 1.41925 0.386727 0
M  V30 6921 H 655.799 2.59 3.2707 0
M  V30 6922 H 654.429 1.53275 2.84089 0
M  V30 6923 H 653.481 3.51542 1.45337 0
M  V30 6924 H 654.793 4.52131 2.10664 0
M  V30 6925 H 653.947 4.14335 4.43183 0
M  V30 6926 H 652.686 3.03912 3.8143 0
M  V30 6927 H 651.691 4.9117 2.47048 0
M  V30 6928 H 652.916 6.03288 3.11802 0
M  V30 6929 H 650.862 4.50871 4.76499 0
M  V30 6930 H 650.779 6.18775 4.34343 0
M  V30 6931 H 652.047 5.62842 5.39285 0
M  V30 6932 N 656.276 -0.40816 1.52223 0
M  V30 6933 C 657.692 -0.74685 1.41047 0
M  V30 6934 C 657.892 -1.94788 0.51573 0
M  V30 6935 O 656.948 -2.52494 -0.0181156 0
M  V30 6936 C 658.261 -0.999878 2.83589 0
M  V30 6937 C 659.809 -1.10253 2.92939 0
M  V30 6938 C 660.284 -1.38832 4.36451 0
M  V30 6939 N 661.775 -1.45694 4.3969 0
M  V30 6940 C 662.51 -1.69435 5.47795 0
M  V30 6941 N 662.006 -1.90774 6.66016 0
M  V30 6942 N 663.799 -1.71458 5.35312 0
M  V30 6943 H 655.95 0.382409 2.08929 0
M  V30 6944 H 658.213 0.108807 0.941735 0
M  V30 6945 H 657.919 -0.189723 3.51188 0
M  V30 6946 H 657.793 -1.91978 3.24691 0
M  V30 6947 H 660.18 -1.90328 2.2552 0
M  V30 6948 H 660.261 -0.160973 2.55293 0
M  V30 6949 H 659.905 -0.592741 5.04429 0
M  V30 6950 H 659.835 -2.34241 4.71634 0
M  V30 6951 H 662.326 -1.3099 3.54472 0
M  V30 6952 H 662.639 -2.08342 7.44186 0
M  V30 6953 H 660.984 -1.88037 6.69079 0
M  V30 6954 H 664.175 -1.54326 4.41929 0
M  V30 6955 H 664.348 -1.89621 6.19635 0
M  V30 6956 N 657.755 -1.42862 -0.66545 0
M  V30 6957 C 658.98 -1.47456 -1.45848 0
M  V30 6958 C 659.405 -0.0900312 -1.87884 0
M  V30 6959 O 658.763 0.913587 -1.56599 0
M  V30 6960 C 658.811 -2.41514 -2.67774 0
M  V30 6961 O 657.915 -1.89296 -3.66389 0
M  V30 6962 H 657.256 -0.499236 -0.437789 0
M  V30 6963 H 659.786 -1.8765 -0.815394 0
M  V30 6964 H 659.796 -2.58409 -3.15735 0
M  V30 6965 H 658.471 -3.42099 -2.36519 0
M  V30 6966 H 657.048 -1.82003 -3.25468 0
M  V30 6967 N 659.233 0.902656 -1.29189 0
M  V30 6968 C 660.51 1.63296 -1.07674 0
M  V30 6969 C 660.89 2.07649 0.380137 0
M  V30 6970 O 660.238 1.82997 1.36837 0
M  V30 6971 C 660.448 2.81603 -2.06158 0
M  V30 6972 C 661.796 3.52359 -2.36914 0
M  V30 6973 O 662.82 2.91767 -2.04329 0
M  V30 6974 O 661.679 4.61586 -2.92576 0
M  V30 6975 H 658.773 0.716889 -0.41231 0
M  V30 6976 H 661.319 0.950984 -1.4055 0
M  V30 6977 H 660.091 2.46004 -3.04299 0
M  V30 6978 H 659.714 3.57508 -1.73993 0
M  V30 6979 N 660.711 1.11618 1.11262 0
M  V30 6980 C 661.958 0.86618 1.8304 0
M  V30 6981 C 662.286 -0.608149 1.84748 0
M  V30 6982 O 661.541 -1.46508 1.29745 0
M  V30 6983 C 661.84 1.37529 3.2988 0
M  V30 6984 C 661.506 2.86317 3.4833 0
M  V30 6985 C 660.168 3.26945 3.53073 0
M  V30 6986 C 662.52 3.82136 3.54431 0
M  V30 6987 C 659.848 4.62117 3.61475 0
M  V30 6988 C 662.2 5.17128 3.64365 0
M  V30 6989 C 660.864 5.57312 3.67369 0
M  V30 6990 H 660.134 0.316958 0.66979 0
M  V30 6991 H 662.781 1.3949 1.31205 0
M  V30 6992 H 661.086 0.766842 3.84222 0
M  V30 6993 H 662.783 1.15817 3.83911 0
M  V30 6994 H 659.373 2.53889 3.45309 0
M  V30 6995 H 663.557 3.51847 3.50025 0
M  V30 6996 H 658.813 4.92655 3.62079 0
M  V30 6997 H 662.987 5.91208 3.68029 0
M  V30 6998 H 660.614 6.62045 3.73632 0
M  V30 6999 N 662.189 -1.289 0.906776 0
M  V30 7000 C 663.152 -2.25777 0.394656 0
M  V30 7001 C 664.152 -1.53621 -0.475119 0
M  V30 7002 O 665.342 -1.71949 -0.279165 0
M  V30 7003 C 662.474 -3.38113 -0.43499 0
M  V30 7004 H 663.667 -2.72592 1.25033 0
M  V30 7005 H 661.22 -1.40463 0.685547 0
M  V30 7006 H 661.955 -2.96648 -1.31036 0
M  V30 7007 H 661.74 -3.91647 0.188334 0
M  V30 7008 H 663.23 -4.10168 -0.784365 0
M  V30 7009 N 663.667 -0.670007 -1.42649 0
M  V30 7010 C 664.892 -0.196955 -2.06463 0
M  V30 7011 C 665.317 1.1352 -1.49983 0
M  V30 7012 O 664.675 1.705 -0.616397 0
M  V30 7013 C 664.723 -0.137381 -3.60338 0
M  V30 7014 O 663.827 0.895523 -4.02559 0
M  V30 7015 H 663.168 -0.102579 -0.656029 0
M  V30 7016 H 665.698 -0.917669 -1.82866 0
M  V30 7017 H 665.708 0.0403625 -4.0798 0
M  V30 7018 H 664.383 -1.10977 -4.0082 0
M  V30 7019 H 662.96 0.689209 -3.66476 0
M  V30 7020 N 665.145 1.52092 -0.413018 0
M  V30 7021 C 666.093 2.28681 0.425199 0
M  V30 7022 C 667.087 1.3353 1.04241 0
M  V30 7023 O 668.293 1.50973 0.980166 0
M  V30 7024 H 664.668 0.735661 0.155906 0
M  V30 7025 H 666.639 2.97418 -0.241926 0
M  V30 7026 C 665.388 3.1235 1.5275 0
M  V30 7027 H 664.711 3.85439 1.06191 0
M  V30 7028 H 666.151 3.69038 2.08774 0
M  V30 7029 C 664.61 2.26161 2.49706 0
M  V30 7030 O 665.14 1.90452 3.53682 0
M  V30 7031 N 663.346 1.89854 2.20008 0
M  V30 7032 H 662.893 2.19092 1.35486 0
M  V30 7033 H 662.851 1.3248 2.85125 0
M  V30 7034 N 666.623 0.143563 1.56945 0
M  V30 7035 C 667.863 -0.511198 1.97904 0
M  V30 7036 C 668.227 -1.62262 1.0264 0
M  V30 7037 O 669.428 -2.338 1.32631 0
M  V30 7038 C 667.699 -1.00753 3.42905 0
M  V30 7039 S 669.258 -1.66737 4.05887 0
M  V30 7040 H 666.076 -0.165399 0.691494 0
M  V30 7041 H 668.678 0.234464 1.94089 0
M  V30 7042 H 667.382 -0.187817 4.0997 0
M  V30 7043 H 666.913 -1.7879 3.50425 0
M  V30 7044 H 668.928 -2.95444 3.98657 0
M  V30 7045 N 668.101 -1.57061 -0.130224 0
M  V30 7046 C 669.341 -1.86071 -0.845993 0
M  V30 7047 C 669.705 -0.73009 -1.77577 0
M  V30 7048 O 670.906 -0.901663 -2.53226 0
M  V30 7049 C 669.177 -3.20293 -1.58579 0
M  V30 7050 S 670.736 -3.70905 -2.34467 0
M  V30 7051 H 667.554 -0.652434 -0.282579 0
M  V30 7052 H 670.156 -1.95218 -0.10498 0
M  V30 7053 H 668.86 -4.00533 -0.894509 0
M  V30 7054 H 668.391 -3.14195 -2.36739 0
M  V30 7055 H 670.406 -3.41509 -3.59981 0
M  V30 7056 N 669.579 0.400081 -1.52437 0
M  V30 7057 C 670.804 1.17221 -1.71096 0
M  V30 7058 C 671.229 1.83269 -0.423565 0
M  V30 7059 O 670.587 1.70378 0.619751 0
M  V30 7060 C 670.635 2.20425 -2.85386 0
M  V30 7061 O 669.739 3.26769 -2.51586 0
M  V30 7062 H 669.08 0.341766 -0.569291 0
M  V30 7063 H 671.61 0.467772 -1.99181 0
M  V30 7064 H 671.62 2.64605 -3.10561 0
M  V30 7065 H 670.295 1.71737 -3.78786 0
M  V30 7066 H 668.872 2.87804 -2.37114 0
M  V30 7067 N 671.057 1.43213 0.657864 0
M  V30 7068 C 672.306 1.43871 1.41365 0
M  V30 7069 C 672.619 0.064898 1.95492 0
M  V30 7070 O 673.825 -0.0510796 2.71452 0
M  V30 7071 C 672.281 2.53158 2.55811 0
M  V30 7072 C 671.889 3.96624 2.08311 0
M  V30 7073 C 673.633 2.63004 3.3321 0
M  V30 7074 C 671.54 4.97385 3.1994 0
M  V30 7075 H 670.47 0.535174 0.531136 0
M  V30 7076 H 673.121 1.69185 0.710543 0
M  V30 7077 H 671.503 2.21037 3.2857 0
M  V30 7078 H 672.677 4.38182 1.42593 0
M  V30 7079 H 670.992 3.90781 1.43804 0
M  V30 7080 H 673.589 3.3546 4.16378 0
M  V30 7081 H 673.932 1.67918 3.80932 0
M  V30 7082 H 674.465 2.94403 2.67529 0
M  V30 7083 H 671.204 5.94007 2.77192 0
M  V30 7084 H 670.724 4.60444 3.84385 0
M  V30 7085 H 672.403 5.19877 3.85145 0
M  V30 7086 N 672.536 -0.895792 1.29666 0
M  V30 7087 C 673.484 -2.02173 1.15017 0
M  V30 7088 C 674.478 -1.69276 0.0647651 0
M  V30 7089 O 675.684 -1.7859 0.224846 0
M  V30 7090 H 672.059 -0.662719 0.355397 0
M  V30 7091 H 674.03 -2.11666 2.10334 0
M  V30 7092 C 672.779 -3.37212 0.847555 0
M  V30 7093 H 672.102 -3.6303 1.67479 0
M  V30 7094 H 673.542 -4.16668 0.785106 0
M  V30 7095 C 672.001 -3.33891 -0.44929 0
M  V30 7096 O 672.531 -3.73673 -1.47415 0
M  V30 7097 N 670.737 -2.86991 -0.456547 0
M  V30 7098 H 670.284 -2.54813 0.377925 0
M  V30 7099 H 670.242 -2.85152 -1.32423 0
M  V30 7100 N 674.014 -1.12206 -1.10668 0
M  V30 7101 C 675.239 -0.898938 -1.86906 0
M  V30 7102 C 675.664 0.546346 -1.79991 0
M  V30 7103 O 675.022 1.38655 -1.1681 0
M  V30 7104 C 675.07 -1.37529 -3.33344 0
M  V30 7105 O 674.174 -0.55218 -4.08687 0
M  V30 7106 H 673.515 -0.323163 -0.580053 0
M  V30 7107 H 676.045 -1.49355 -1.39837 0
M  V30 7108 H 676.055 -1.3733 -3.84193 0
M  V30 7109 H 674.73 -2.42767 -3.37693 0
M  V30 7110 H 673.307 -0.620947 -3.67694 0
M  V30 7111 N 675.492 1.28418 -0.913599 0
M  V30 7112 C 676.903 1.77024 -0.593237 0
M  V30 7113 C 677.254 1.74779 0.891441 0
M  V30 7114 O 676.379 1.34237 1.69733 0
M  V30 7115 C 676.974 3.21456 -1.07011 0
M  V30 7116 C 675.533 3.67786 -0.800664 0
M  V30 7117 C 674.68 2.48185 -1.23691 0
M  V30 7118 H 677.631 1.14883 -1.09487 0
M  V30 7119 H 677.652 3.78269 -0.411481 0
M  V30 7120 H 677.164 3.23058 -2.1507 0
M  V30 7121 H 675.265 3.71644 0.266725 0
M  V30 7122 H 675.378 4.57934 -1.4083 0
M  V30 7123 H 673.742 2.46116 -0.655655 0
M  V30 7124 H 674.525 2.52506 -2.32585 0
M  V30 7125 N 676.97 0.677563 1.42291 0
M  V30 7126 C 678.381 0.277912 1.8462 0
M  V30 7127 C 678.732 -1.18048 1.56714 0
M  V30 7128 O 677.857 -1.90404 1.02836 0
M  V30 7129 C 678.452 0.497619 3.35126 0
M  V30 7130 C 677.011 0.152063 3.76093 0
M  V30 7131 C 676.158 0.78872 2.65847 0
M  V30 7132 H 679.109 0.879527 1.32098 0
M  V30 7133 H 679.13 -0.24939 3.79682 0
M  V30 7134 H 678.642 1.55913 3.55405 0
M  V30 7135 H 676.743 -0.905896 3.6142 0
M  V30 7136 H 676.856 0.594514 4.75397 0
M  V30 7137 H 675.22 0.219813 2.5375 0
M  V30 7138 H 676.003 1.85374 2.88949 0
M  V30 7139 N 678.448 -1.51871 0.421078 0
M  V30 7140 C 679.378 -2.30231 -0.389363 0
M  V30 7141 C 680.359 -1.34946 -1.03555 0
M  V30 7142 O 681.544 -1.63859 -1.04229 0
M  V30 7143 C 678.674 -3.13247 -1.49979 0
M  V30 7144 C 677.628 -4.16677 -0.977966 0
M  V30 7145 C 676.954 -4.88112 -2.1829 0
M  V30 7146 C 678.254 -5.22295 -0.0236775 0
M  V30 7147 H 679.948 -2.98229 0.264524 0
M  V30 7148 H 677.494 -1.43424 0.12866 0
M  V30 7149 H 679.447 -3.66838 -2.07383 0
M  V30 7150 H 678.171 -2.4304 -2.18173 0
M  V30 7151 H 676.83 -3.64114 -0.426245 0
M  V30 7152 H 676.478 -4.14423 -2.85066 0
M  V30 7153 H 676.178 -5.58041 -1.84021 0
M  V30 7154 H 677.702 -5.44521 -2.76278 0
M  V30 7155 H 679.116 -5.71055 -0.506899 0
M  V30 7156 H 677.513 -5.99656 0.230782 0
M  V30 7157 H 678.583 -4.76131 0.917999 0
M  V30 7158 N 679.926 -0.151884 -1.56866 0
M  V30 7159 C 681.156 0.504081 -2.00356 0
M  V30 7160 C 681.564 1.58639 -1.03103 0
M  V30 7161 O 680.907 1.83688 -0.0207931 0
M  V30 7162 C 680.969 1.15975 -3.40279 0
M  V30 7163 C 680.633 0.221453 -4.56463 0
M  V30 7164 C 681.63 -0.552766 -5.16953 0
M  V30 7165 C 679.315 0.122936 -5.0215 0
M  V30 7166 C 681.309 -1.4129 -6.21543 0
M  V30 7167 C 678.996 -0.740801 -6.06593 0
M  V30 7168 C 679.994 -1.50732 -6.6616 0
M  V30 7169 O 679.682 -2.35666 -7.68581 0
M  V30 7170 H 679.414 0.135279 -0.662326 0
M  V30 7171 H 681.968 -0.244916 -2.03935 0
M  V30 7172 H 680.198 1.95649 -3.33554 0
M  V30 7173 H 681.887 1.71594 -3.67846 0
M  V30 7174 H 682.653 -0.486716 -4.82552 0
M  V30 7175 H 678.532 0.70931 -4.5551 0
M  V30 7176 H 682.076 -2.01166 -6.67966 0
M  V30 7177 H 677.973 -0.808125 -6.40421 0
M  V30 7178 H 678.741 -2.28967 -7.85822 0
M  V30 7179 N 681.404 1.57128 0.121893 0
M  V30 7180 C 682.644 1.86517 0.836113 0
M  V30 7181 C 683.008 0.739497 1.77188 0
M  V30 7182 O 684.209 0.91508 2.52744 0
M  V30 7183 C 682.48 3.21129 1.56878 0
M  V30 7184 S 684.039 3.72143 2.32497 0
M  V30 7185 H 680.857 0.653923 0.279115 0
M  V30 7186 H 683.459 1.95271 0.0946254 0
M  V30 7187 H 682.163 4.01002 0.873255 0
M  V30 7188 H 681.694 3.15446 2.35069 0
M  V30 7189 H 683.709 3.43413 3.58164 0
M  V30 7190 N 682.882 -0.391992 1.52647 0
M  V30 7191 C 684.159 -1.15136 1.58123 0
M  V30 7192 C 684.539 -2.07786 0.372597 0
M  V30 7193 O 683.887 -2.19374 -0.639304 0
M  V30 7194 C 684.097 -1.91367 2.91856 0
M  V30 7195 C 685.445 -2.46833 3.45483 0
M  V30 7196 O 686.469 -2.01527 2.9371 0
M  V30 7197 O 685.328 -3.29587 4.3593 0
M  V30 7198 H 682.422 -0.526649 0.637629 0
M  V30 7199 H 684.968 -0.397386 1.64982 0
M  V30 7200 H 683.74 -1.23597 3.71268 0
M  V30 7201 H 683.363 -2.73732 2.88369 0
M  V30 7202 N 684.36 -1.4356 -0.65026 0
M  V30 7203 C 685.585 -1.48995 -1.44275 0
M  V30 7204 C 686.01 -0.109954 -1.87778 0
M  V30 7205 O 685.368 0.896926 -1.57559 0
M  V30 7206 C 685.416 -2.44341 -2.65198 0
M  V30 7207 O 684.52 -1.93172 -3.6436 0
M  V30 7208 H 683.861 -0.503852 -0.432469 0
M  V30 7209 H 686.391 -1.88504 -0.795446 0
M  V30 7210 H 686.401 -2.61743 -3.12977 0
M  V30 7211 H 685.076 -3.44588 -2.32877 0
M  V30 7212 H 683.653 -1.85445 -3.23519 0
M  V30 7213 N 685.838 0.888903 -1.30139 0
M  V30 7214 C 686.748 2.02705 -1.18101 0
M  V30 7215 C 687.764 1.73702 -0.101809 0
M  V30 7216 O 688.94 1.98906 -0.315984 0
M  V30 7217 C 686.005 3.35616 -0.869651 0
M  V30 7218 C 685.066 3.78067 -2.03381 0
M  V30 7219 C 684.299 5.04635 -1.73721 0
M  V30 7220 O 684.522 5.66531 -0.663267 0
M  V30 7221 O 683.456 5.43399 -2.58845 0
M  V30 7222 H 687.282 2.15788 -2.13704 0
M  V30 7223 H 684.867 1.01426 -1.09695 0
M  V30 7224 H 686.749 4.15358 -0.711043 0
M  V30 7225 H 685.424 3.23651 0.0565002 0
M  V30 7226 H 684.331 2.99046 -2.24772 0
M  V30 7227 H 685.664 3.94631 -2.94155 0
M  V30 7228 N 687.317 1.12792 1.10072 0
M  V30 7229 C 688.566 0.880232 1.81479 0
M  V30 7230 C 688.879 -0.595575 1.86312 0
M  V30 7231 O 690.085 -0.959979 2.53962 0
M  V30 7232 C 688.541 1.52514 3.25987 0
M  V30 7233 C 688.149 3.036 3.29441 0
M  V30 7234 C 689.893 1.35788 4.02196 0
M  V30 7235 C 687.8 3.61007 4.68431 0
M  V30 7236 H 686.73 0.325654 0.680048 0
M  V30 7237 H 689.381 1.35485 1.23758 0
M  V30 7238 H 687.763 0.978188 3.83728 0
M  V30 7239 H 688.937 3.64819 2.81502 0
M  V30 7240 H 687.252 3.19765 2.66719 0
M  V30 7241 H 689.849 1.76096 5.0487 0
M  V30 7242 H 690.192 0.301972 4.15203 0
M  V30 7243 H 690.725 1.87426 3.50879 0
M  V30 7244 H 687.464 4.66375 4.60625 0
M  V30 7245 H 686.984 3.04564 5.16721 0
M  V30 7246 H 688.663 3.60289 5.37402 0
M  V30 7247 N 688.795 -1.27931 0.920396 0
M  V30 7248 C 690.072 -1.89728 0.475687 0
M  V30 7249 C 690.452 -1.8337 -1.04588 0
M  V30 7250 O 689.8 -1.27404 -1.89685 0
M  V30 7251 C 690.01 -3.33959 1.01354 0
M  V30 7252 C 691.358 -4.10907 1.06963 0
M  V30 7253 O 692.382 -3.42945 0.962646 0
M  V30 7254 O 691.241 -5.32399 1.23343 0
M  V30 7255 H 688.335 -0.81294 0.151845 0
M  V30 7256 H 690.881 -1.36252 1.01161 0
M  V30 7257 H 689.653 -3.32843 2.05746 0
M  V30 7258 H 689.276 -3.94944 0.458829 0
M  V30 7259 N 690.273 -0.685099 -1.4193 0
M  V30 7260 C 691.236 -0.0222632 -2.29189 0
M  V30 7261 C 692.236 0.7186 -1.4385 0
M  V30 7262 O 693.426 0.555058 -1.6512 0
M  V30 7263 C 690.558 0.979013 -3.2654 0
M  V30 7264 H 691.751 -0.790424 -2.89296 0
M  V30 7265 H 689.304 -0.448012 -1.49742 0
M  V30 7266 H 690.039 1.77531 -2.71392 0
M  V30 7267 H 689.824 0.451037 -3.89497 0
M  V30 7268 H 691.314 1.44091 -3.91954 0
M  V30 7269 N 691.751 1.51645 -0.429126 0
M  V30 7270 C 692.661 2.31288 0.392809 0
M  V30 7271 C 693.677 1.39852 1.03525 0
M  V30 7272 O 694.853 1.72926 1.03241 0
M  V30 7273 C 691.918 3.13347 1.48372 0
M  V30 7274 C 690.979 4.20551 0.862268 0
M  V30 7275 C 690.212 4.98688 1.9012 0
M  V30 7276 O 690.435 4.77359 3.12225 0
M  V30 7277 O 689.369 5.83005 1.4963 0
M  V30 7278 H 693.195 3.02609 -0.257138 0
M  V30 7279 H 690.78 1.48163 -0.191851 0
M  V30 7280 H 692.662 3.64387 2.1166 0
M  V30 7281 H 691.337 2.44799 2.1179 0
M  V30 7282 H 690.244 3.73609 0.191568 0
M  V30 7283 H 691.577 4.91449 0.271704 0
M  V30 7284 N 693.229 0.160201 1.56784 0
M  V30 7285 C 694.159 -0.770264 2.2043 0
M  V30 7286 C 695.14 -1.24736 1.15651 0
M  V30 7287 O 696.325 -1.30253 1.44041 0
M  V30 7288 C 693.455 -2.00427 2.83631 0
M  V30 7289 C 692.409 -1.66345 3.94352 0
M  V30 7290 C 691.735 -2.97119 4.4455 0
M  V30 7291 C 693.035 -0.899972 5.14488 0
M  V30 7292 H 694.729 -0.239783 2.98438 0
M  V30 7293 H 692.275 -0.113891 1.43549 0
M  V30 7294 H 694.228 -2.66012 3.26827 0
M  V30 7295 H 692.952 -2.5587 2.02973 0
M  V30 7296 H 691.611 -1.03133 3.51794 0
M  V30 7297 H 691.259 -3.5058 3.60698 0
M  V30 7298 H 690.959 -2.75073 5.19238 0
M  V30 7299 H 692.483 -3.63753 4.90425 0
M  V30 7300 H 693.897 -1.45818 5.54446 0
M  V30 7301 H 692.294 -0.778968 5.95023 0
M  V30 7302 H 693.364 0.105827 4.84785 0
M  V30 7303 N 694.707 -1.5719 -0.113559 0
M  V30 7304 C 695.654 -2.00736 -1.13901 0
M  V30 7305 C 696.624 -0.88044 -1.40846 0
M  V30 7306 O 697.809 -1.14507 -1.5262 0
M  V30 7307 C 694.949 -2.42132 -2.45899 0
M  V30 7308 C 694.062 -3.68264 -2.25844 0
M  V30 7309 C 693.197 -3.98617 -3.5111 0
M  V30 7310 C 692.236 -5.17915 -3.26236 0
M  V30 7311 N 691.373 -5.44111 -4.4372 0
M  V30 7312 H 696.213 -2.88128 -0.760677 0
M  V30 7313 H 693.75 -1.42523 -0.364099 0
M  V30 7314 H 695.708 -2.6417 -3.22908 0
M  V30 7315 H 694.338 -1.57775 -2.81615 0
M  V30 7316 H 693.39 -3.53809 -1.39726 0
M  V30 7317 H 694.702 -4.55425 -2.03444 0
M  V30 7318 H 693.856 -4.21333 -4.36536 0
M  V30 7319 H 692.595 -3.09942 -3.76546 0
M  V30 7320 H 691.6 -4.95038 -2.39202 0
M  V30 7321 H 692.825 -6.08172 -3.02165 0
M  V30 7322 H 690.771 -4.58394 -4.69266 0
M  V30 7323 H 690.688 -6.25606 -4.24444 0
M  V30 7324 H 691.956 -5.71351 -5.30263 0
M  V30 7325 N 696.185 0.383891 -1.52853 0
M  V30 7326 C 697.133 1.48965 -1.7864 0
M  V30 7327 C 698.127 1.56242 -0.654577 0
M  V30 7328 O 699.333 1.59347 -0.83716 0
M  V30 7329 H 695.708 0.495892 -0.565328 0
M  V30 7330 H 697.679 1.24411 -2.71228 0
M  V30 7331 C 696.428 2.86036 -1.97683 0
M  V30 7332 H 695.751 2.81188 -2.84206 0
M  V30 7333 H 697.191 3.62632 -2.19713 0
M  V30 7334 C 695.65 3.28428 -0.750776 0
M  V30 7335 O 696.18 4.0164 0.0693491 0
M  V30 7336 N 694.386 2.84765 -0.579427 0
M  V30 7337 H 693.933 2.25353 -1.24795 0
M  V30 7338 H 693.891 3.13486 0.239544 0
M  V30 7339 N 697.663 1.43903 0.642637 0
M  V30 7340 C 698.912 1.45362 1.39831 0
M  V30 7341 C 699.225 0.0856289 1.95412 0
M  V30 7342 O 700.431 -0.0222856 2.71491 0
M  V30 7343 C 698.887 2.55857 2.53111 0
M  V30 7344 C 698.495 3.98811 2.04092 0
M  V30 7345 C 700.239 2.66524 3.30402 0
M  V30 7346 C 698.146 5.00751 3.14647 0
M  V30 7347 H 697.076 0.540777 0.52543 0
M  V30 7348 H 699.727 1.69929 0.692559 0
M  V30 7349 H 698.109 2.2451 3.26207 0
M  V30 7350 H 699.283 4.3967 1.37938 0
M  V30 7351 H 697.598 3.92284 1.39651 0
M  V30 7352 H 700.195 3.39858 4.12796 0
M  V30 7353 H 700.538 1.71949 3.79129 0
M  V30 7354 H 701.071 2.97224 2.64392 0
M  V30 7355 H 697.81 5.96914 2.70876 0
M  V30 7356 H 697.33 4.64495 3.79479 0
M  V30 7357 H 699.009 5.23933 3.79609 0
M  V30 7358 N 699.141 -0.881989 1.30609 0
M  V30 7359 C 700.071 -2.00413 1.1982 0
M  V30 7360 C 701.052 -1.69871 0.0881538 0
M  V30 7361 O 702.237 -1.92304 0.2707 0
M  V30 7362 C 699.367 -3.35641 0.89233 0
M  V30 7363 C 698.321 -3.80451 1.96064 0
M  V30 7364 C 697.647 -5.13003 1.5077 0
M  V30 7365 C 698.947 -3.98855 3.37213 0
M  V30 7366 H 700.641 -2.09698 2.13699 0
M  V30 7367 H 698.187 -1.00754 1.02882 0
M  V30 7368 H 700.14 -4.13669 0.803497 0
M  V30 7369 H 698.864 -3.26497 -0.0821381 0
M  V30 7370 H 697.523 -3.04654 2.03916 0
M  V30 7371 H 697.171 -5.0029 0.521417 0
M  V30 7372 H 696.871 -5.43956 2.22229 0
M  V30 7373 H 698.395 -5.93554 1.43271 0
M  V30 7374 H 699.809 -4.67312 3.32103 0
M  V30 7375 H 698.206 -4.41188 4.06784 0
M  V30 7376 H 699.276 -3.02614 3.78883 0
M  V30 7377 O 700.658 -1.25359 -1.0182 0
M  V30 7378 H 701.349 -1.03652 -1.63634 0
M  V30 END ATOM
M  V30 BEGIN BOND
M  V30 END BOND
M  V30 END CTAB
M  END
$$$$
