drugbank_target|P02790 Hemopexin (DB14533; DB14548)
 OpenBabel12092121223D

  0  0  0     0  0            999 V3000
M  V30 BEGIN CTAB
M  V30 COUNTS 7126 7255 0 0 0
M  V30 BEGIN ATOM
M  V30 1 H -0.908 1.98254 -0.117106 0
M  V30 2 N 0 1.576 0 0
M  V30 3 C 0.933 2.03868 1.02534 0
M  V30 4 C 1.911 0.928543 1.3348 0
M  V30 5 O 3.095 1.19667 1.45644 0
M  V30 6 C 0.222 2.43627 2.35294 0
M  V30 7 C -0.732 3.65373 2.2001 0
M  V30 8 S 0.101 5.13292 1.52614 0
M  V30 9 C 1.257 5.56322 2.86805 0
M  V30 10 H 1.49 2.90518 0.631377 0
M  V30 11 H -0.977 1.52953 0.210867 0
M  V30 12 H 0.981 2.67203 3.11629 0
M  V30 13 H -0.358 1.57376 2.7183 0
M  V30 14 H -1.165 3.90944 3.18086 0
M  V30 15 H -1.563 3.418 1.51819 0
M  V30 16 H 0.729 5.58782 3.83104 0
M  V30 17 H 1.672 6.56266 2.65933 0
M  V30 18 H 2.08 4.83886 2.90714 0
M  V30 19 N 1.4781 -0.272755 1.55222 0
M  V30 20 C 2.4411 -1.32041 1.87344 0
M  V30 21 C 3.4411 -1.42342 0.74803 0
M  V30 22 O 4.6311 -1.41488 1.0162 0
M  V30 23 C 1.7631 -2.70173 2.07893 0
M  V30 24 H 2.9561 -1.04789 2.80997 0
M  V30 25 H 0.5091 -0.51083 1.47717 0
M  V30 26 H 1.2441 -3.02605 1.16622 0
M  V30 27 H 1.0291 -2.64082 2.89833 0
M  V30 28 H 2.5191 -3.45869 2.34017 0
M  V30 29 N 2.9562 -1.48159 -0.537278 0
M  V30 30 C 4.3722 -1.34118 -0.865129 0
M  V30 31 C 4.5722 -0.346678 -1.98495 0
M  V30 32 O 3.6282 0.234715 -2.51407 0
M  V30 33 C 4.9412 -2.73963 -1.23954 0
M  V30 34 C 6.4892 -2.82397 -1.34984 0
M  V30 35 C 6.9642 -4.22928 -1.75772 0
M  V30 36 N 8.4552 -4.25566 -1.82887 0
M  V30 37 C 9.1902 -5.31235 -2.15817 0
M  V30 38 N 8.6862 -6.47189 -2.47222 0
M  V30 39 N 10.4792 -5.18624 -2.16761 0
M  V30 40 H 2.6302 -2.1144 0.201715 0
M  V30 41 H 4.8932 -0.947598 0.0275949 0
M  V30 42 H 4.5992 -3.48264 -0.490381 0
M  V30 43 H 4.4732 -3.0702 -2.19132 0
M  V30 44 H 6.8602 -2.08356 -2.08978 0
M  V30 45 H 6.9412 -2.5297 -0.379448 0
M  V30 46 H 6.5852 -4.97482 -1.02341 0
M  V30 47 H 6.5152 -4.49794 -2.73848 0
M  V30 48 H 9.0062 -3.41924 -1.60924 0
M  V30 49 H 9.3192 -7.23564 -2.71433 0
M  V30 50 H 7.6642 -6.50476 -2.44757 0
M  V30 51 H 10.8552 -4.27056 -1.91679 0
M  V30 52 H 11.0282 -6.01078 -2.42093 0
M  V30 53 N 4.4343 0.785586 -1.36625 0
M  V30 54 C 5.6803 1.54591 -1.31261 0
M  V30 55 C 6.0133 1.93906 0.106823 0
M  V30 56 O 5.2883 1.63007 1.06108 0
M  V30 57 C 5.5713 2.82038 -2.23889 0
M  V30 58 C 5.4243 2.49066 -3.74548 0
M  V30 59 C 6.7433 3.83887 -2.15217 0
M  V30 60 H 3.8623 0.560846 -0.478143 0
M  V30 61 H 6.5043 0.902278 -1.67209 0
M  V30 62 H 4.6543 3.36961 -1.93363 0
M  V30 63 H 6.3263 2.00164 -4.15611 0
M  V30 64 H 4.5693 1.81954 -3.93796 0
M  V30 65 H 5.2403 3.40109 -4.34776 0
M  V30 66 H 7.7163 3.38421 -2.42096 0
M  V30 67 H 6.5923 4.70806 -2.82193 0
M  V30 68 H 6.8533 4.27131 -1.14068 0
M  V30 69 N 5.9124 1.20967 1.01018 0
M  V30 70 C 6.8424 0.988272 2.11555 0
M  V30 71 C 7.8234 -0.0849778 1.69888 0
M  V30 72 O 9.0084 0.0738202 1.9406 0
M  V30 73 C 6.1384 0.546528 3.42973 0
M  V30 74 C 5.0924 1.56375 3.9841 0
M  V30 75 C 4.4184 0.97842 5.25672 0
M  V30 76 C 5.7184 2.94922 4.31066 0
M  V30 77 H 7.4124 1.91276 2.30334 0
M  V30 78 H 4.9584 0.921073 1.1069 0
M  V30 79 H 6.9114 0.378839 4.19694 0
M  V30 80 H 5.6354 -0.413598 3.23971 0
M  V30 81 H 4.2944 1.71891 3.23804 0
M  V30 82 H 3.9424 0.0101688 5.02999 0
M  V30 83 H 3.6424 1.65784 5.63728 0
M  V30 84 H 5.1664 0.821939 6.05043 0
M  V30 85 H 6.5804 2.8288 4.9865 0
M  V30 86 H 4.9774 3.5983 4.80253 0
M  V30 87 H 6.0474 3.4616 3.39561 0
M  V30 88 N 7.3905 -1.2043 1.01659 0
M  V30 89 C 8.6385 -1.89423 0.704522 0
M  V30 90 C 8.9595 -1.79231 -0.768197 0
M  V30 91 O 8.2295 -1.1947 -1.55254 0
M  V30 92 H 6.8095 -0.701178 0.257602 0
M  V30 93 H 9.4715 -1.4626 1.28818 0
M  V30 94 H 8.5675 -2.96052 0.987916 0
M  V30 95 N 8.8686 -0.792821 -1.36206 0
M  V30 96 C 9.8316 -0.199459 -2.2833 0
M  V30 97 C 10.8316 0.605189 -1.48977 0
M  V30 98 O 12.0216 0.425685 -1.68919 0
M  V30 99 C 9.1536 0.723523 -3.33134 0
M  V30 100 H 10.3466 -1.01181 -2.82316 0
M  V30 101 H 7.8996 -0.562485 -1.45828 0
M  V30 102 H 8.6346 1.56008 -2.84309 0
M  V30 103 H 8.4196 0.148436 -3.91819 0
M  V30 104 H 9.9096 1.13344 -4.01924 0
M  V30 105 N 10.3467 1.47872 -0.545128 0
M  V30 106 C 11.7577 1.86384 -0.108581 0
M  V30 107 C 12.1087 1.45309 1.31832 0
M  V30 108 O 11.2337 0.850641 1.9898 0
M  V30 109 C 11.8287 3.38265 -0.190274 0
M  V30 110 C 10.3877 3.75914 0.191164 0
M  V30 111 C 9.5347 2.71926 -0.543273 0
M  V30 112 H 12.4857 1.39561 -0.755537 0
M  V30 113 H 12.5067 3.75831 0.594217 0
M  V30 114 H 12.0187 3.6813 -1.2289 0
M  V30 115 H 10.1197 3.51665 1.23136 0
M  V30 116 H 10.2327 4.78836 -0.158987 0
M  V30 117 H 8.5967 2.54697 0.0122495 0
M  V30 118 H 9.3797 3.04634 -1.58282 0
M  V30 119 N 11.8248 0.280983 1.55075 0
M  V30 120 C 13.0708 -0.33461 2.00021 0
M  V30 121 C 13.4038 -1.55063 1.16915 0
M  V30 122 O 12.6788 -1.93006 0.240646 0
M  V30 123 C 12.9618 -0.711007 3.53011 0
M  V30 124 C 12.8148 0.512766 4.46868 0
M  V30 125 C 14.1338 -1.54522 4.12081 0
M  V30 126 H 11.2528 -0.120147 0.727141 0
M  V30 127 H 13.8948 0.389097 1.85973 0
M  V30 128 H 12.0448 -1.32761 3.65112 0
M  V30 129 H 13.7168 1.15131 4.46702 0
M  V30 130 H 11.9598 1.14975 4.18286 0
M  V30 131 H 12.6308 0.205556 5.51617 0
M  V30 132 H 15.1068 -1.02442 4.03293 0
M  V30 133 H 13.9828 -1.77739 5.19327 0
M  V30 134 H 14.2438 -2.52813 3.62682 0
M  V30 135 N 13.3029 -1.57598 0.00835791 0
M  V30 136 C 14.2659 -2.07884 -0.965242 0
M  V30 137 C 15.2659 -0.989825 -1.26725 0
M  V30 138 O 16.4559 -1.25218 -1.21104 0
M  V30 139 C 13.5879 -2.52731 -2.28779 0
M  V30 140 H 14.7809 -2.95178 -0.530112 0
M  V30 141 H 12.3339 -1.54458 -0.239283 0
M  V30 142 H 13.0689 -1.68705 -2.76964 0
M  V30 143 H 12.8539 -3.32272 -2.08177 0
M  V30 144 H 14.3439 -2.91933 -2.98605 0
M  V30 145 N 14.781 0.264519 -1.55364 0
M  V30 146 C 15.711 1.33121 -1.91836 0
M  V30 147 C 16.692 1.51101 -0.781192 0
M  V30 148 O 17.877 1.64003 -1.04003 0
M  V30 149 C 15.007 2.68921 -2.19769 0
M  V30 150 C 13.961 2.65661 -3.35571 0
M  V30 151 C 13.287 4.05093 -3.49004 0
M  V30 152 C 14.587 2.24187 -4.71739 0
M  V30 153 H 16.281 1.02844 -2.81182 0
M  V30 154 H 13.827 0.493286 -1.35287 0
M  V30 155 H 15.78 3.43663 -2.43872 0
M  V30 156 H 14.504 3.00799 -1.27231 0
M  V30 157 H 13.163 1.93377 -3.1145 0
M  V30 158 H 12.811 4.34206 -2.53917 0
M  V30 159 H 12.511 4.03804 -4.26868 0
M  V30 160 H 14.035 4.81561 -3.75408 0
M  V30 161 H 15.449 2.88654 -4.9533 0
M  V30 162 H 13.846 2.34044 -5.52579 0
M  V30 163 H 14.916 1.19327 -4.69988 0
M  V30 164 N 16.2591 1.48442 0.529413 0
M  V30 165 C 17.5071 1.56179 1.28267 0
M  V30 166 C 17.8281 0.237721 1.93546 0
M  V30 167 O 17.0981 -0.740779 1.81354 0
M  V30 168 H 15.6781 0.575367 0.476405 0
M  V30 169 H 18.3401 1.84909 0.61602 0
M  V30 170 H 17.4361 2.34312 2.06165 0
M  V30 171 N 17.7372 -0.778329 1.37039 0
M  V30 172 C 18.6672 -1.90546 1.34962 0
M  V30 173 C 19.6482 -1.68681 0.219274 0
M  V30 174 O 20.8332 -1.89634 0.418624 0
M  V30 175 C 17.9632 -3.27734 1.14925 0
M  V30 176 C 16.9172 -3.64147 2.24902 0
M  V30 177 C 16.2432 -4.99806 1.89996 0
M  V30 178 C 17.5432 -3.71579 3.67051 0
M  V30 179 H 19.2372 -1.92541 2.29277 0
M  V30 180 H 16.7832 -0.924948 1.10366 0
M  V30 181 H 18.7362 -4.06215 1.12104 0
M  V30 182 H 17.4602 -3.26154 0.170631 0
M  V30 183 H 16.1192 -2.8797 2.26868 0
M  V30 184 H 15.7672 -4.94759 0.906796 0
M  V30 185 H 15.4672 -5.25139 2.63634 0
M  V30 186 H 16.9912 -5.80694 1.88749 0
M  V30 187 H 18.4052 -4.40227 3.67251 0
M  V30 188 H 16.8022 -4.08405 4.39688 0
M  V30 189 H 17.8722 -2.72404 4.01154 0
M  V30 190 N 19.2153 -1.21501 -1.00376 0
M  V30 191 C 20.4613 -1.04457 -1.74529 0
M  V30 192 C 20.8163 0.417386 -1.87818 0
M  V30 193 O 20.1093 1.30556 -1.40234 0
M  V30 194 C 20.3033 -1.67673 -3.15627 0
M  V30 195 C 20.1323 -3.19865 -3.16096 0
M  V30 196 C 18.9023 -3.88915 -3.22604 0
M  V30 197 C 21.1003 -4.16936 -3.01112 0
M  V30 198 N 19.0823 -5.28284 -3.12712 0
M  V30 199 C 20.4533 -5.43066 -2.99131 0
M  V30 200 C 22.5083 -4.07968 -2.85423 0
M  V30 201 C 21.2113 -6.6126 -2.83068 0
M  V30 202 C 23.2373 -5.258 -2.70718 0
M  V30 203 C 22.5993 -6.50842 -2.69414 0
M  V30 204 H 18.6983 -0.436584 -0.648782 0
M  V30 205 H 21.2823 -1.53875 -1.19293 0
M  V30 206 H 19.4533 -1.20822 -3.6913 0
M  V30 207 H 21.1853 -1.43824 -3.78281 0
M  V30 208 H 17.9403 -3.39847 -3.2985 0
M  V30 209 H 18.3643 -6.01284 -3.11105 0
M  V30 210 H 23.0063 -3.1209 -2.85236 0
M  V30 211 H 20.7243 -7.57298 -2.82002 0
M  V30 212 H 24.3103 -5.20683 -2.59577 0
M  V30 213 H 23.1903 -7.40485 -2.5817 0
M  V30 214 N 20.6934 1.19889 -1.02296 0
M  V30 215 C 21.9184 1.9393 -0.735237 0
M  V30 216 C 22.3434 1.74639 0.698782 0
M  V30 217 O 21.7014 1.04481 1.48167 0
M  V30 218 C 21.7494 3.43916 -1.08417 0
M  V30 219 O 20.8534 4.11917 -0.199446 0
M  V30 220 H 20.1944 0.605645 -0.272196 0
M  V30 221 H 22.7244 1.52137 -1.36804 0
M  V30 222 H 22.7344 3.9456 -1.03856 0
M  V30 223 H 21.4094 3.5728 -2.12894 0
M  V30 224 H 19.9864 3.71666 -0.303136 0
M  V30 225 N 22.1715 0.800033 1.35784 0
M  V30 226 C 23.1015 0.220184 2.3246 0
M  V30 227 C 24.0825 -0.65073 1.57161 0
M  V30 228 O 25.2675 -0.582359 1.85263 0
M  V30 229 C 22.3975 -0.637353 3.41402 0
M  V30 230 C 21.3515 0.134531 4.27789 0
M  V30 231 C 20.6775 -0.844285 5.27992 0
M  V30 232 C 21.9775 1.32979 5.05088 0
M  V30 233 H 23.6715 1.02787 2.81203 0
M  V30 234 H 21.2175 0.495717 1.35199 0
M  V30 235 H 23.1705 -1.05302 4.08031 0
M  V30 236 H 21.8945 -1.47785 2.91251 0
M  V30 237 H 20.5535 0.531296 3.6273 0
M  V30 238 H 20.2015 -1.68011 4.74111 0
M  V30 239 H 19.9015 -0.332184 5.8666 0
M  V30 240 H 21.4255 -1.2583 5.97494 0
M  V30 241 H 22.8395 0.98934 5.64699 0
M  V30 242 H 21.2365 1.77593 5.7322 0
M  V30 243 H 22.3065 2.11978 4.36111 0
M  V30 244 N 23.6496 -1.47581 0.552962 0
M  V30 245 C 24.8896 -2.04379 0.0296245 0
M  V30 246 C 25.2536 -1.4185 -1.29393 0
M  V30 247 O 26.4546 -1.89669 -1.90471 0
M  V30 248 C 24.7256 -3.57339 -0.0661371 0
M  V30 249 S 26.2846 -4.35511 -0.536213 0
M  V30 250 H 23.1026 -0.710625 0.0230991 0
M  V30 251 H 25.7046 -1.81005 0.738734 0
M  V30 252 H 24.4086 -4.00374 0.901596 0
M  V30 253 H 23.9396 -3.85202 -0.798931 0
M  V30 254 H 25.9546 -4.6253 -1.79668 0
M  V30 255 N 25.1277 -0.289203 -1.54924 0
M  V30 256 C 26.3737 0.316922 -2.00916 0
M  V30 257 C 26.7287 1.52424 -1.17408 0
M  V30 258 O 26.0217 1.90097 -0.239536 0
M  V30 259 C 26.2157 0.736119 -3.49737 0
M  V30 260 C 26.0447 -0.429036 -4.47649 0
M  V30 261 C 24.8147 -0.917311 -4.96904 0
M  V30 262 C 27.0127 -1.27016 -4.98369 0
M  V30 263 N 24.9947 -2.05046 -5.78644 0
M  V30 264 C 26.3657 -2.25097 -5.77695 0
M  V30 265 C 28.4207 -1.30188 -4.80578 0
M  V30 266 C 27.1237 -3.26114 -6.41126 0
M  V30 267 C 29.1497 -2.30057 -5.44819 0
M  V30 268 C 28.5117 -3.2687 -6.23968 0
M  V30 269 H 24.6107 0.0807535 -0.777819 0
M  V30 270 H 27.1947 -0.416434 -1.90194 0
M  V30 271 H 25.3657 1.43867 -3.60773 0
M  V30 272 H 27.0977 1.32078 -3.82541 0
M  V30 273 H 23.8527 -0.494248 -4.71014 0
M  V30 274 H 24.2767 -2.62108 -6.24202 0
M  V30 275 H 28.9187 -0.567163 -4.18979 0
M  V30 276 H 26.6367 -4.00512 -7.01866 0
M  V30 277 H 30.2227 -2.33271 -5.32988 0
M  V30 278 H 29.1027 -4.02883 -6.72796 0
M  V30 279 N 26.6058 1.57591 -0.0167156 0
M  V30 280 C 27.8308 1.9598 0.67872 0
M  V30 281 C 28.2558 0.892546 1.65575 0
M  V30 282 O 27.6138 -0.147772 1.80697 0
M  V30 283 C 27.6618 3.33468 1.37227 0
M  V30 284 O 26.7658 3.28954 2.48722 0
M  V30 285 H 26.1068 0.639339 0.17928 0
M  V30 286 H 28.6368 2.04463 -0.0748802 0
M  V30 287 H 28.6468 3.69417 1.7319 0
M  V30 288 H 27.3218 4.10694 0.656007 0
M  V30 289 H 25.8988 3.04705 2.14963 0
M  V30 290 N 28.0839 -0.256276 1.55502 0
M  V30 291 C 29.0139 -1.32102 1.92539 0
M  V30 292 C 29.9949 -1.50684 0.789194 0
M  V30 293 O 31.1799 -1.63449 1.04872 0
M  V30 294 C 28.3099 -2.67752 2.21192 0
M  V30 295 C 27.2639 -2.63878 3.36975 0
M  V30 296 C 26.5899 -4.03236 3.51147 0
M  V30 297 C 27.8899 -2.21682 4.72921 0
M  V30 298 H 29.5839 -1.01351 2.81724 0
M  V30 299 H 27.1299 -0.486105 1.35547 0
M  V30 300 H 29.0829 -3.42365 2.45691 0
M  V30 301 H 27.8069 -3.0012 1.28824 0
M  V30 302 H 26.4659 -1.91722 3.12471 0
M  V30 303 H 26.1139 -4.32854 2.56216 0
M  V30 304 H 25.8139 -4.01535 4.29003 0
M  V30 305 H 27.3379 -4.79563 3.77957 0
M  V30 306 H 28.7519 -2.86023 4.96854 0
M  V30 307 H 27.1489 -2.3111 5.53812 0
M  V30 308 H 28.2189 -1.16833 4.70615 0
M  V30 309 N 29.562 -1.4872 -0.521534 0
M  V30 310 C 30.525 -1.63379 -1.60748 0
M  V30 311 C 31.525 -0.50661 -1.52611 0
M  V30 312 O 32.715 -0.772601 -1.5613 0
M  V30 313 C 29.847 -1.61192 -3.00383 0
M  V30 314 H 31.04 -2.60217 -1.49087 0
M  V30 315 H 28.593 -1.37444 -0.744235 0
M  V30 316 H 29.328 -0.65863 -3.17541 0
M  V30 317 H 29.113 -2.43032 -3.07698 0
M  V30 318 H 30.603 -1.7466 -3.7932 0
M  V30 319 N 31.0401 0.771051 -1.3745 0
M  V30 320 C 32.2891 1.52491 -1.3202 0
M  V30 321 C 32.6021 1.9538 0.0927347 0
M  V30 322 O 33.8081 2.70159 0.269503 0
M  V30 323 C 32.2641 2.75366 -2.31736 0
M  V30 324 C 31.8721 2.39573 -3.78562 0
M  V30 325 C 33.6161 3.53307 -2.35318 0
M  V30 326 C 31.5231 3.58954 -4.70007 0
M  V30 327 H 30.4531 0.572506 -0.490666 0
M  V30 328 H 33.1041 0.844474 -1.62914 0
M  V30 329 H 31.4861 3.45303 -1.93861 0
M  V30 330 H 32.6601 1.77415 -4.25277 0
M  V30 331 H 30.9751 1.74805 -3.77932 0
M  V30 332 H 33.5721 4.42039 -3.00842 0
M  V30 333 H 33.9151 3.93217 -1.36698 0
M  V30 334 H 34.4481 2.90367 -2.71904 0
M  V30 335 H 31.1871 3.24125 -5.69757 0
M  V30 336 H 30.7071 4.20214 -4.27996 0
M  V30 337 H 32.3861 4.25758 -4.87175 0
M  V30 338 N 32.5182 1.22032 0.997298 0
M  V30 339 C 33.4812 0.987909 2.06816 0
M  V30 340 C 34.4812 -0.0440084 1.6074 0
M  V30 341 O 35.6712 0.194053 1.73116 0
M  V30 342 C 32.8032 0.49132 3.37341 0
M  V30 343 H 33.9962 1.93803 2.28868 0
M  V30 344 H 31.5492 1.03838 1.16822 0
M  V30 345 H 32.2842 -0.463364 3.20973 0
M  V30 346 H 32.0692 1.23575 3.72118 0
M  V30 347 H 33.5592 0.348824 4.16141 0
M  V30 348 N 33.9963 -1.19345 1.0293 0
M  V30 349 C 35.2243 -1.92997 0.745644 0
M  V30 350 C 35.6393 -1.75519 -0.695589 0
M  V30 351 O 34.9963 -1.07737 -1.47306 0
M  V30 352 C 35.0473 -3.44741 1.08792 0
M  V30 353 O 34.7683 -3.61658 2.47256 0
M  V30 354 C 36.2693 -4.35515 0.827129 0
M  V30 355 H 33.4893 -0.613042 0.272801 0
M  V30 356 H 36.0333 -1.51473 1.3739 0
M  V30 357 H 34.1883 -3.84097 0.504832 0
M  V30 358 H 34.6023 -4.55514 2.60015 0
M  V30 359 H 36.0763 -5.40589 1.11658 0
M  V30 360 H 36.5533 -4.38552 -0.238436 0
M  V30 361 H 37.1593 -4.01841 1.39297 0
M  V30 362 N 35.4744 -0.807222 -1.35358 0
M  V30 363 C 36.8854 -0.44876 -1.81226 0
M  V30 364 C 37.2364 1.02929 -1.67033 0
M  V30 365 O 36.3614 1.79991 -1.20133 0
M  V30 366 C 36.9564 -0.807774 -3.2903 0
M  V30 367 C 35.5154 -0.501901 -3.73039 0
M  V30 368 C 34.6624 -1.03304 -2.57339 0
M  V30 369 H 37.6134 -0.998808 -1.23327 0
M  V30 370 H 37.6344 -0.10554 -3.80354 0
M  V30 371 H 37.1464 -1.88357 -3.39328 0
M  V30 372 H 35.2474 0.565128 -3.68289 0
M  V30 373 H 35.3604 -1.03497 -4.67787 0
M  V30 374 H 33.7244 -0.455339 -2.50597 0
M  V30 375 H 34.5074 -2.11496 -2.70415 0
M  V30 376 N 36.9525 1.47285 -0.560781 0
M  V30 377 C 37.8825 2.32857 0.173105 0
M  V30 378 C 38.8635 1.44009 0.905281 0
M  V30 379 O 40.0485 1.7286 0.885046 0
M  V30 380 C 37.1785 3.25861 1.20133 0
M  V30 381 C 36.1325 4.23978 0.585388 0
M  V30 382 C 35.4585 5.06332 1.7185 0
M  V30 383 C 36.7585 5.20242 -0.463178 0
M  V30 384 H 38.4525 2.94466 -0.541307 0
M  V30 385 H 35.9985 1.41601 -0.261764 0
M  V30 386 H 37.9515 3.84569 1.72293 0
M  V30 387 H 36.6755 2.62315 1.94573 0
M  V30 388 H 35.3345 3.66501 0.085054 0
M  V30 389 H 34.9825 4.39186 2.45203 0
M  V30 390 H 34.6825 5.72762 1.31213 0
M  V30 391 H 36.2065 5.67899 2.24329 0
M  V30 392 H 37.6205 5.73293 -0.027502 0
M  V30 393 H 36.0175 5.94896 -0.788627 0
M  V30 394 H 37.0875 4.65504 -1.35773 0
M  V30 395 N 38.4306 0.297415 1.54768 0
M  V30 396 C 39.8416 -0.195947 1.85669 0
M  V30 397 C 40.1926 -1.53707 1.21937 0
M  V30 398 O 39.3176 -2.10164 0.515754 0
M  V30 399 C 39.9126 -0.362318 3.36857 0
M  V30 400 C 38.4716 -0.799901 3.67802 0
M  V30 401 C 37.6186 0.0938578 2.77141 0
M  V30 402 H 40.5696 0.518538 1.4999 0
M  V30 403 H 40.5906 -1.19745 3.61167 0
M  V30 404 H 40.1026 0.613921 3.83214 0
M  V30 405 H 38.2036 -1.78682 3.26961 0
M  V30 406 H 38.3166 -0.621773 4.75048 0
M  V30 407 H 36.6806 -0.426254 2.51108 0
M  V30 408 H 37.4636 1.06639 3.26318 0
M  V30 409 N 39.9087 -1.5758 0.0250728 0
M  V30 410 C 41.3197 -1.79476 -0.514323 0
M  V30 411 C 41.6707 -0.934956 -1.72491 0
M  V30 412 O 40.7957 -0.144245 -2.15919 0
M  V30 413 C 41.3907 -3.25503 -0.939842 0
M  V30 414 C 39.9497 -3.48408 -1.42438 0
M  V30 415 C 39.0967 -2.74583 -0.387201 0
M  V30 416 H 42.0477 -1.567 0.25113 0
M  V30 417 H 42.0687 -3.34992 -1.80445 0
M  V30 418 H 41.5807 -3.88056 -0.0585628 0
M  V30 419 H 39.6817 -2.91103 -2.32572 0
M  V30 420 H 39.7947 -4.57119 -1.43455 0
M  V30 421 H 38.1587 -2.39942 -0.854409 0
M  V30 422 H 38.9417 -3.39849 0.485543 0
M  V30 423 N 41.3868 0.248026 -1.55636 0
M  V30 424 C 42.6148 0.993808 -1.81469 0
M  V30 425 C 43.0298 1.78991 -0.60064 0
M  V30 426 O 42.3868 1.77345 0.430682 0
M  V30 427 C 42.4378 1.93258 -3.05506 0
M  V30 428 O 42.1588 1.16869 -4.22224 0
M  V30 429 C 43.6598 2.79444 -3.4413 0
M  V30 430 H 40.8798 0.292486 -0.603898 0
M  V30 431 H 43.4238 0.271253 -2.02693 0
M  V30 432 H 41.5788 2.60943 -2.86335 0
M  V30 433 H 41.9928 1.80359 -4.92515 0
M  V30 434 H 43.4668 3.41066 -4.34026 0
M  V30 435 H 43.9438 3.50499 -2.64665 0
M  V30 436 H 44.5498 2.17214 -3.65648 0
M  V30 437 N 42.8649 1.48995 0.513639 0
M  V30 438 C 44.0899 1.61792 1.29762 0
M  V30 439 C 44.5149 0.284475 1.85936 0
M  V30 440 O 43.8729 -0.746185 1.65232 0
M  V30 441 C 43.9209 2.67993 2.41272 0
M  V30 442 O 43.0249 2.26287 3.44772 0
M  V30 443 H 42.3659 0.541963 0.38363 0
M  V30 444 H 44.8959 1.95097 0.616307 0
M  V30 445 H 44.9059 2.89772 2.87221 0
M  V30 446 H 43.5809 3.64791 1.9975 0
M  V30 447 H 42.1579 2.14788 3.04829 0
M  V30 448 N 44.343 -0.763751 1.37857 0
M  V30 449 C 45.306 -1.85889 1.34081 0
M  V30 450 C 46.306 -1.58949 0.243277 0
M  V30 451 O 47.496 -1.66882 0.499589 0
M  V30 452 C 44.628 -3.23176 1.08489 0
M  V30 453 H 45.821 -1.90648 2.31502 0
M  V30 454 H 43.374 -0.964367 1.23003 0
M  V30 455 H 44.109 -3.24091 0.116318 0
M  V30 456 H 43.894 -3.44124 1.8794 0
M  V30 457 H 45.384 -4.03254 1.08517 0
M  V30 458 N 45.8211 -1.22559 -0.990812 0
M  V30 459 C 46.7711 -0.964807 -2.0658 0
M  V30 460 C 47.7551 0.0853472 -1.60673 0
M  V30 461 O 48.9471 -0.125443 -1.76555 0
M  V30 462 C 46.0761 -0.546707 -3.38919 0
M  V30 463 C 45.1621 -1.6317 -3.91454 0
M  V30 464 N 45.5531 -2.85985 -4.17189 0
M  V30 465 C 43.8511 -1.50387 -4.19881 0
M  V30 466 C 44.5521 -3.56159 -4.59919 0
M  V30 467 N 43.5281 -2.83637 -4.63736 0
M  V30 468 H 47.3301 -1.89769 -2.24421 0
M  V30 469 H 44.8441 -1.12343 -1.17273 0
M  V30 470 H 46.8411 -0.34119 -4.15502 0
M  V30 471 H 45.5011 0.379254 -3.22478 0
M  V30 472 H 46.5121 -3.22392 -4.05319 0
M  V30 473 H 43.1891 -0.644254 -4.12499 0
M  V30 474 H 44.5791 -4.6139 -4.88435 0
M  V30 475 N 47.2992 1.18797 -1.03562 0
M  V30 476 C 48.5472 1.88278 -0.734569 0
M  V30 477 C 48.8682 1.8043 0.739586 0
M  V30 478 O 48.1382 1.21925 1.53333 0
M  V30 479 H 46.7182 0.696991 -0.268725 0
M  V30 480 H 49.3802 1.44192 -1.31129 0
M  V30 481 H 48.4762 2.94443 -1.03489 0
M  V30 482 N 48.7773 0.814389 1.34928 0
M  V30 483 C 49.7253 0.218424 2.31572 0
M  V30 484 C 50.7193 -0.636128 1.57002 0
M  V30 485 O 51.9253 -0.52842 1.72069 0
M  V30 486 H 48.3003 0.0518799 0.750208 0
M  V30 487 H 50.2713 1.04852 2.79372 0
M  V30 488 C 49.0203 -0.61207 3.4227 0
M  V30 489 H 48.3433 0.0361578 3.99784 0
M  V30 490 H 49.7833 -0.995317 4.12152 0
M  V30 491 C 48.2423 -1.78087 2.85984 0
M  V30 492 O 48.7723 -2.8787 2.80168 0
M  V30 493 N 46.9783 -1.59488 2.42924 0
M  V30 494 H 46.5253 -0.701874 2.47854 0
M  V30 495 H 46.4833 -2.37846 2.05613 0
M  V30 496 N 50.2554 -1.46986 0.568584 0
M  V30 497 C 51.5014 -2.02741 0.0488709 0
M  V30 498 C 51.8344 -1.44077 -1.30214 0
M  V30 499 O 51.1094 -0.600552 -1.84996 0
M  V30 500 C 51.3924 -3.60086 -0.032047 0
M  V30 501 C 51.2454 -4.29162 1.34686 0
M  V30 502 C 52.5644 -4.33838 -0.739798 0
M  V30 503 H 49.6834 -0.736749 0.0192338 0
M  V30 504 H 52.3254 -1.75289 0.733065 0
M  V30 505 H 50.4754 -3.83606 -0.61473 0
M  V30 506 H 52.1474 -4.16948 1.97362 0
M  V30 507 H 50.3904 -3.89073 1.91846 0
M  V30 508 H 51.0614 -5.37826 1.24285 0
M  V30 509 H 53.5374 -4.15378 -0.244939 0
M  V30 510 H 52.4134 -5.43537 -0.765406 0
M  V30 511 H 52.6744 -4.03875 -1.79827 0
M  V30 512 N 51.7335 -0.305618 -1.54608 0
M  V30 513 C 52.6965 0.555591 -2.22364 0
M  V30 514 C 53.6965 1.05768 -1.21119 0
M  V30 515 O 54.8865 0.952972 -1.45822 0
M  V30 516 C 52.0185 1.76974 -2.91364 0
M  V30 517 H 53.2115 -0.0364572 -2.99878 0
M  V30 518 H 50.7645 -0.0565007 -1.56198 0
M  V30 519 H 51.4995 2.40151 -2.17941 0
M  V30 520 H 51.2845 1.41732 -3.65588 0
M  V30 521 H 52.7745 2.38148 -3.43038 0
M  V30 522 N 53.2116 1.57565 -0.0334293 0
M  V30 523 C 54.1216 2.13943 0.962572 0
M  V30 524 C 55.1376 1.09276 1.35406 0
M  V30 525 O 56.3136 1.41355 1.4346 0
M  V30 526 C 53.3786 2.65887 2.22497 0
M  V30 527 C 52.4396 3.85286 1.8935 0
M  V30 528 C 51.6726 4.34743 3.09571 0
M  V30 529 O 51.8956 3.83352 4.22371 0
M  V30 530 O 50.8296 5.26538 2.91618 0
M  V30 531 H 54.6556 2.99333 0.513169 0
M  V30 532 H 52.2406 1.4822 0.18743 0
M  V30 533 H 54.1226 2.99346 2.96598 0
M  V30 534 H 52.7976 1.83578 2.6661 0
M  V30 535 H 51.7046 3.56746 1.1262 0
M  V30 536 H 53.0376 4.68771 1.5005 0
M  V30 537 N 54.6897 -0.239769 1.55765 0
M  V30 538 C 55.9377 -0.964892 1.77579 0
M  V30 539 C 56.2587 -1.85582 0.598699 0
M  V30 540 O 55.5287 -1.92075 -0.385226 0
M  V30 541 H 54.1087 -0.359265 0.654933 0
M  V30 542 H 56.7707 -0.256001 1.93211 0
M  V30 543 H 55.8667 -1.58243 2.69009 0
M  V30 544 N 56.1678 -1.49265 -0.50573 0
M  V30 545 C 57.0778 -1.68312 -1.63427 0
M  V30 546 C 58.0938 -0.565682 -1.64548 0
M  V30 547 O 59.2698 -0.839801 -1.83055 0
M  V30 548 C 56.3348 -1.74107 -2.99813 0
M  V30 549 C 55.3958 -2.97653 -3.09356 0
M  V30 550 C 54.6288 -3.03163 -4.39236 0
M  V30 551 O 54.8518 -2.16396 -5.27758 0
M  V30 552 O 53.7858 -3.9558 -4.53652 0
M  V30 553 H 57.6118 -2.63907 -1.50289 0
M  V30 554 H 55.1968 -1.32951 -0.681502 0
M  V30 555 H 57.0788 -1.803 -3.80881 0
M  V30 556 H 55.7538 -0.816901 -3.13223 0
M  V30 557 H 54.6608 -2.96981 -2.27493 0
M  V30 558 H 55.9938 -3.89535 -3.00871 0
M  V30 559 N 57.6459 0.756429 -1.3826 0
M  V30 560 C 58.8739 1.54565 -1.3754 0
M  V30 561 C 59.2889 1.88767 0.0355331 0
M  V30 562 O 58.6459 1.52572 1.0014 0
M  V30 563 C 58.6969 2.84654 -2.22833 0
M  V30 564 O 58.4179 2.51912 -3.5843 0
M  V30 565 C 59.9189 3.78807 -2.30261 0
M  V30 566 H 57.1389 0.478353 -0.470553 0
M  V30 567 H 59.6829 0.936381 -1.81803 0
M  V30 568 H 57.8379 3.41965 -1.8204 0
M  V30 569 H 58.2519 3.35325 -4.03308 0
M  V30 570 H 59.7259 4.67045 -2.94233 0
M  V30 571 H 60.2029 4.19038 -1.31545 0
M  V30 572 H 60.8089 3.2742 -2.71433 0
M  V30 573 N 59.124 1.23083 0.984299 0
M  V30 574 C 60.071 1.00854 2.07598 0
M  V30 575 C 61.041 -0.0726709 1.65941 0
M  V30 576 O 62.226 0.0786535 1.90638 0
M  V30 577 C 59.366 0.601645 3.39815 0
M  V30 578 C 58.479 1.75456 3.94765 0
M  V30 579 C 57.614 1.29482 5.15177 0
M  V30 580 C 56.653 2.41873 5.62284 0
M  V30 581 N 55.79 1.96885 6.73929 0
M  V30 582 H 60.63 1.943 2.25946 0
M  V30 583 H 58.167 0.968001 1.10762 0
M  V30 584 H 60.125 0.346854 4.15756 0
M  V30 585 H 58.755 -0.295803 3.21442 0
M  V30 586 H 57.807 2.12346 3.15616 0
M  V30 587 H 59.119 2.59965 4.25699 0
M  V30 588 H 58.273 0.997923 5.98437 0
M  V30 589 H 57.012 0.420046 4.85888 0
M  V30 590 H 56.017 2.72342 4.77608 0
M  V30 591 H 57.242 3.29881 5.93595 0
M  V30 592 H 55.188 1.11782 6.46406 0
M  V30 593 H 55.105 2.74956 7.04227 0
M  V30 594 H 56.373 1.70289 7.60672 0
M  V30 595 N 60.6021 -1.18246 1.0419 0
M  V30 596 C 62.0131 -1.69914 0.773698 0
M  V30 597 C 62.3641 -1.83085 -0.705297 0
M  V30 598 O 61.4891 -1.51123 -1.5489 0
M  V30 599 C 62.0841 -3.08619 1.39784 0
M  V30 600 C 60.6431 -3.57494 1.17792 0
M  V30 601 C 59.7901 -2.34013 1.48773 0
M  V30 602 H 62.7411 -1.02904 1.20816 0
M  V30 603 H 62.7621 -3.71958 0.801714 0
M  V30 604 H 62.2741 -2.99001 2.47426 0
M  V30 605 H 60.3751 -3.72406 0.120295 0
M  V30 606 H 60.4881 -4.40852 1.87581 0
M  V30 607 H 58.8521 -2.37986 0.907463 0
M  V30 608 H 59.6351 -2.27013 2.57527 0
M  V30 609 N 62.0802 -0.821533 -1.34494 0
M  V30 610 C 63.3572 -0.33159 -1.92769 0
M  V30 611 C 63.7372 1.18088 -1.74981 0
M  V30 612 O 63.0852 1.98733 -1.12772 0
M  V30 613 C 63.2952 -0.759398 -3.40638 0
M  V30 614 C 64.6432 -0.757433 -4.1779 0
M  V30 615 O 65.6672 -0.70189 -3.49216 0
M  V30 616 O 64.5262 -0.829361 -5.4017 0
M  V30 617 H 61.6202 -0.0902502 -0.822061 0
M  V30 618 H 64.1662 -0.906231 -1.43477 0
M  V30 619 H 62.9382 -1.8012 -3.47379 0
M  V30 620 H 62.5612 -0.160378 -3.97276 0
M  V30 621 N 63.5583 1.46682 -0.576371 0
M  V30 622 C 64.9693 1.86112 -0.148091 0
M  V30 623 C 65.3203 1.48073 1.2872 0
M  V30 624 O 64.4453 0.892656 1.97131 0
M  V30 625 C 65.0403 3.37786 -0.261982 0
M  V30 626 C 63.5993 3.76235 0.111384 0
M  V30 627 C 62.7463 2.70713 -0.60083 0
M  V30 628 H 65.6973 1.37927 -0.78497 0
M  V30 629 H 65.7183 3.77007 0.514364 0
M  V30 630 H 65.2303 3.6544 -1.30671 0
M  V30 631 H 63.3313 3.54198 1.15649 0
M  V30 632 H 63.4443 4.78391 -0.26052 0
M  V30 633 H 61.8083 2.54666 -0.0417783 0
M  V30 634 H 62.5913 3.01208 -1.64708 0
M  V30 635 N 65.0364 0.313813 1.54444 0
M  V30 636 C 66.3134 -0.345447 1.92525 0
M  V30 637 C 66.6934 -1.70667 1.24242 0
M  V30 638 O 66.0414 -2.25273 0.382654 0
M  V30 639 C 66.2514 -0.44737 3.46121 0
M  V30 640 C 67.5994 -0.712238 4.18584 0
M  V30 641 O 68.6234 -0.530678 3.52225 0
M  V30 642 O 67.4824 -1.06183 5.36085 0
M  V30 643 H 64.5764 -0.195407 0.803583 0
M  V30 644 H 67.1224 0.362813 1.65776 0
M  V30 645 H 65.8944 0.509043 3.87975 0
M  V30 646 H 65.5174 -1.20359 3.78945 0
M  V30 647 N 66.5145 -1.57545 0.0417849 0
M  V30 648 C 67.7605 -1.92601 -0.635021 0
M  V30 649 C 68.0935 -0.919627 -1.71045 0
M  V30 650 O 67.3685 0.0557892 -1.9442 0
M  V30 651 C 67.6515 -3.38085 -1.23979 0
M  V30 652 C 67.5045 -4.49467 -0.173057 0
M  V30 653 C 68.8235 -3.83776 -2.15416 0
M  V30 654 H 65.9425 -0.700397 -0.229374 0
M  V30 655 H 68.5845 -1.89728 0.101633 0
M  V30 656 H 66.7345 -3.40664 -1.86762 0
M  V30 657 H 68.4065 -4.59018 0.458312 0
M  V30 658 H 66.6495 -4.30909 0.499996 0
M  V30 659 H 67.3205 -5.48323 -0.636054 0
M  V30 660 H 69.7965 -3.83013 -1.62605 0
M  V30 661 H 68.6725 -4.8624 -2.54679 0
M  V30 662 H 68.9335 -3.19998 -3.05047 0
M  V30 663 N 67.9926 0.231505 -1.5589 0
M  V30 664 C 69.2206 0.974505 -1.82513 0
M  V30 665 C 69.6356 1.78344 -0.619591 0
M  V30 666 O 68.9926 1.77792 0.411848 0
M  V30 667 C 69.0436 1.90007 -3.07538 0
M  V30 668 O 68.7646 1.12385 -4.2344 0
M  V30 669 C 70.2656 2.75779 -3.47075 0
M  V30 670 H 67.4856 0.286065 -0.606966 0
M  V30 671 H 70.0296 0.249739 -2.02969 0
M  V30 672 H 68.1846 2.57891 -2.89086 0
M  V30 673 H 68.5986 1.75125 -4.944 0
M  V30 674 H 70.0726 3.36443 -4.37619 0
M  V30 675 H 70.5496 3.47672 -2.68367 0
M  V30 676 H 71.1556 2.13323 -3.67931 0
M  V30 677 N 69.4707 1.49531 0.497807 0
M  V30 678 C 70.3807 1.69176 1.62532 0
M  V30 679 C 71.3967 0.5744 1.64246 0
M  V30 680 O 72.5727 0.849497 1.82608 0
M  V30 681 C 69.6377 1.75695 2.98885 0
M  V30 682 C 68.6987 2.9929 3.07773 0
M  V30 683 C 67.9317 3.05488 4.37622 0
M  V30 684 O 68.1547 2.19192 5.26603 0
M  V30 685 O 67.0887 3.9798 4.51548 0
M  V30 686 H 70.9147 2.647 1.48887 0
M  V30 687 H 68.4997 1.3331 0.674441 0
M  V30 688 H 70.3817 1.82317 3.79919 0
M  V30 689 H 69.0567 0.8335 3.12785 0
M  V30 690 H 67.9637 2.98183 2.25915 0
M  V30 691 H 69.2967 3.91125 2.98801 0
M  V30 692 N 70.9488 -0.749086 1.3866 0
M  V30 693 C 72.3648 -1.05276 1.19955 0
M  V30 694 C 72.5648 -2.01435 0.05134 0
M  V30 695 O 71.6208 -2.45232 -0.60147 0
M  V30 696 C 72.9338 -1.62853 2.52783 0
M  V30 697 C 74.4818 -1.75002 2.59506 0
M  V30 698 C 74.9568 -2.35991 3.92521 0
M  V30 699 N 76.4478 -2.43416 3.94085 0
M  V30 700 C 77.1828 -2.91511 4.9377 0
M  V30 701 N 76.6788 -3.39608 6.03853 0
M  V30 702 N 78.4718 -2.90592 4.81157 0
M  V30 703 H 70.6228 -0.111066 2.12109 0
M  V30 704 H 72.8858 -0.111901 0.941373 0
M  V30 705 H 72.5918 -0.99664 3.37283 0
M  V30 706 H 72.4658 -2.61854 2.715 0
M  V30 707 H 74.8528 -2.37317 1.75398 0
M  V30 708 H 74.9338 -0.74693 2.44652 0
M  V30 709 H 74.5778 -1.74308 4.77053 0
M  V30 710 H 74.5078 -3.3695 4.04688 0
M  V30 711 H 76.9988 -2.09405 3.14576 0
M  V30 712 H 77.3118 -3.74775 6.75843 0
M  V30 713 H 75.6568 -3.37653 6.07466 0
M  V30 714 H 78.8478 -2.52332 3.94267 0
M  V30 715 H 79.0208 -3.27762 5.58996 0
M  V30 716 N 72.4269 -1.23603 -0.977757 0
M  V30 717 C 73.6669 -1.08148 -1.73446 0
M  V30 718 C 74.0309 0.374785 -1.88307 0
M  V30 719 O 75.2319 0.650588 -2.60808 0
M  V30 720 C 73.5029 -1.78991 -3.0935 0
M  V30 721 S 75.0619 -1.79141 -4.00567 0
M  V30 722 H 71.8799 -0.386987 -0.596458 0
M  V30 723 H 74.4819 -1.5678 -1.16792 0
M  V30 724 H 73.1859 -2.8408 -2.96187 0
M  V30 725 H 72.7169 -1.30651 -3.71071 0
M  V30 726 H 74.7319 -0.851892 -4.88833 0
M  V30 727 N 73.905 1.17692 -1.04816 0
M  V30 728 C 75.13 1.92327 -0.776207 0
M  V30 729 C 75.555 1.76082 0.661581 0
M  V30 730 O 74.913 1.076 1.45917 0
M  V30 731 C 74.961 3.41539 -1.15687 0
M  V30 732 O 74.065 4.11402 -0.286775 0
M  V30 733 H 73.406 0.599735 -0.284981 0
M  V30 734 H 75.936 1.49201 -1.4 0
M  V30 735 H 75.946 3.92269 -1.12202 0
M  V30 736 H 74.621 3.52684 -2.20425 0
M  V30 737 H 73.198 3.70939 -0.381903 0
M  V30 738 N 75.3831 0.828654 1.34056 0
M  V30 739 C 76.6601 0.341809 1.9259 0
M  V30 740 C 77.0401 -1.17158 1.75605 0
M  V30 741 O 76.3881 -1.98132 1.13824 0
M  V30 742 C 76.5981 0.777453 3.4023 0
M  V30 743 C 77.9461 0.779579 4.17382 0
M  V30 744 O 78.9701 0.7204 3.48839 0
M  V30 745 O 77.8291 0.857996 5.39723 0
M  V30 746 H 74.9231 0.0946085 0.821571 0
M  V30 747 H 77.4691 0.913827 1.42994 0
M  V30 748 H 76.2411 1.8196 3.46419 0
M  V30 749 H 75.8641 0.181444 3.97186 0
M  V30 750 N 76.8612 -1.46375 0.584142 0
M  V30 751 C 78.1092 -2.01978 0.0701287 0
M  V30 752 C 78.4302 -1.4579 -1.295 0
M  V30 753 O 77.7002 -0.64314 -1.85042 0
M  V30 754 H 76.2802 -0.746648 0.0229345 0
M  V30 755 H 78.9422 -1.79461 0.760245 0
M  V30 756 H 78.0382 -3.121 0.0022064 0
M  V30 757 N 78.3393 -0.321999 -1.54275 0
M  V30 758 C 79.5853 0.274234 -2.01543 0
M  V30 759 C 79.9403 1.499 -1.20614 0
M  V30 760 O 79.2333 1.89546 -0.279804 0
M  V30 761 C 79.4273 0.661769 -3.5122 0
M  V30 762 C 79.2563 -0.523892 -4.46638 0
M  V30 763 C 78.0263 -1.02251 -4.94846 0
M  V30 764 C 80.2243 -1.37558 -4.95563 0
M  V30 765 N 78.2063 -2.17274 -5.74165 0
M  V30 766 C 79.5773 -2.37301 -5.7279 0
M  V30 767 C 81.6323 -1.40353 -4.77709 0
M  V30 768 C 80.3353 -3.3964 -6.34064 0
M  V30 769 C 82.3613 -2.41562 -5.39817 0
M  V30 770 C 81.7233 -3.40031 -6.16894 0
M  V30 771 H 77.8223 0.0642367 -0.779357 0
M  V30 772 H 80.4063 -0.456683 -1.89268 0
M  V30 773 H 78.5773 1.36182 -3.63743 0
M  V30 774 H 80.3093 1.23934 -3.85256 0
M  V30 775 H 77.0643 -0.594046 -4.6986 0
M  V30 776 H 77.4883 -2.75289 -6.18502 0
M  V30 777 H 82.1303 -0.655907 -4.17681 0
M  V30 778 H 79.8483 -4.15309 -6.93213 0
M  V30 779 H 83.4343 -2.44524 -5.2792 0
M  V30 780 H 82.3143 -4.17063 -6.64099 0
M  V30 781 N 79.8174 1.5752 -0.0501392 0
M  V30 782 C 81.0424 1.97376 0.636997 0
M  V30 783 C 81.4674 0.927466 1.63645 0
M  V30 784 O 80.8254 -0.10941 1.8097 0
M  V30 785 C 80.8734 3.36304 1.30123 0
M  V30 786 O 79.9774 3.34156 2.41689 0
M  V30 787 H 79.3184 0.642998 0.165679 0
M  V30 788 H 81.8484 2.04258 -0.118233 0
M  V30 789 H 81.8584 3.73008 1.65315 0
M  V30 790 H 80.5334 4.11993 0.568746 0
M  V30 791 H 79.1104 3.09196 2.08451 0
M  V30 792 N 81.2955 -0.223234 1.56011 0
M  V30 793 C 82.5425 -0.947875 1.78946 0
M  V30 794 C 82.8705 -1.844 0.618608 0
M  V30 795 O 82.1255 -1.91629 -0.397093 0
M  V30 796 C 82.4245 -1.81948 3.0762 0
M  V30 797 C 82.0905 -1.07672 4.37856 0
M  V30 798 C 80.7525 -0.871544 4.73242 0
M  V30 799 C 83.1045 -0.552081 5.18268 0
M  V30 800 C 80.4325 -0.129791 5.86556 0
M  V30 801 C 82.7845 0.17632 6.32354 0
M  V30 802 C 81.4485 0.39277 6.66343 0
M  V30 803 H 80.7185 -0.346852 0.654809 0
M  V30 804 H 83.3655 -0.216171 1.90276 0
M  V30 805 H 81.6705 -2.61899 2.91404 0
M  V30 806 H 83.3675 -2.38227 3.22566 0
M  V30 807 H 79.9575 -1.24662 4.1007 0
M  V30 808 H 84.1415 -0.698076 4.91366 0
M  V30 809 H 79.3975 0.048153 6.11381 0
M  V30 810 H 83.5715 0.590367 6.93893 0
M  V30 811 H 81.1985 0.969466 7.53993 0
M  V30 812 N 82.7736 -1.49793 -0.48987 0
M  V30 813 C 84.0506 -1.50348 -1.25119 0
M  V30 814 C 84.4306 -0.237466 -2.0976 0
M  V30 815 O 83.7786 0.77981 -2.14782 0
M  V30 816 C 83.9886 -2.78872 -2.09837 0
M  V30 817 C 85.3366 -3.288 -2.68655 0
M  V30 818 O 86.3606 -2.80065 -2.20096 0
M  V30 819 O 85.2196 -4.13707 -3.57083 0
M  V30 820 H 82.3136 -0.602242 -0.566775 0
M  V30 821 H 84.8596 -1.62067 -0.503229 0
M  V30 822 H 83.6316 -3.62499 -1.47343 0
M  V30 823 H 83.2546 -2.70066 -2.91805 0
M  V30 824 N 84.2517 0.741722 -1.39055 0
M  V30 825 C 85.2147 1.83733 -1.37021 0
M  V30 826 C 86.2147 1.58542 -0.268534 0
M  V30 827 O 87.4047 1.66067 -0.526076 0
M  V30 828 C 84.5367 3.2141 -1.13617 0
M  V30 829 H 85.7297 1.86941 -2.34506 0
M  V30 830 H 83.2827 0.944676 -1.24521 0
M  V30 831 H 84.0177 3.23865 -0.167863 0
M  V30 832 H 83.8027 3.4109 -1.93391 0
M  V30 833 H 85.2927 4.01477 -1.14918 0
M  V30 834 N 85.7298 1.2412 0.971189 0
M  V30 835 C 86.9578 1.10575 1.74874 0
M  V30 836 C 87.3728 -0.342017 1.85676 0
M  V30 837 O 86.7298 -1.23617 1.34258 0
M  V30 838 C 86.7808 1.73579 3.171 0
M  V30 839 O 86.5018 3.12695 3.06844 0
M  V30 840 C 88.0028 1.65598 4.11208 0
M  V30 841 H 85.2228 0.386504 0.548503 0
M  V30 842 H 87.7668 1.64156 1.21955 0
M  V30 843 H 85.9218 1.24009 3.67016 0
M  V30 844 H 86.3358 3.43412 3.96445 0
M  V30 845 H 87.8098 2.1437 5.08674 0
M  V30 846 H 88.2868 0.616532 4.34851 0
M  V30 847 H 88.8928 2.14578 3.67201 0
M  V30 848 N 87.2079 -1.17134 1.05439 0
M  V30 849 C 88.4359 -1.91372 0.786414 0
M  V30 850 C 88.8509 -1.76955 -0.658202 0
M  V30 851 O 88.2079 -1.10838 -1.44987 0
M  V30 852 C 88.2589 -3.42356 1.1608 0
M  V30 853 O 87.9799 -3.56332 2.54871 0
M  V30 854 C 89.4809 -4.33663 0.919322 0
M  V30 855 H 86.7009 -0.607118 0.285743 0
M  V30 856 H 89.2449 -1.48525 1.40572 0
M  V30 857 H 87.3999 -3.82939 0.586191 0
M  V30 858 H 87.8139 -4.49896 2.69618 0
M  V30 859 H 89.2879 -5.38099 1.231 0
M  V30 860 H 89.7649 -4.38959 -0.145359 0
M  V30 861 H 90.3709 -3.98796 1.47789 0
M  V30 862 N 88.686 -0.835752 -1.33615 0
M  V30 863 C 89.616 -0.281739 -2.31794 0
M  V30 864 C 90.597 0.608833 -1.58831 0
M  V30 865 O 91.782 0.533035 -1.86741 0
M  V30 866 C 88.912 0.546612 -3.42971 0
M  V30 867 C 87.866 -0.247904 -4.27281 0
M  V30 868 C 87.192 0.704001 -5.30045 0
M  V30 869 C 88.492 -1.46324 -5.01385 0
M  V30 870 H 90.186 -1.10206 -2.78379 0
M  V30 871 H 87.732 -0.531388 -1.33837 0
M  V30 872 H 89.685 0.944467 -4.1068 0
M  V30 873 H 88.409 1.40011 -2.95067 0
M  V30 874 H 87.068 -0.627281 -3.61194 0
M  V30 875 H 86.716 1.55381 -4.78399 0
M  V30 876 H 86.416 0.176524 -5.87335 0
M  V30 877 H 87.94 1.09944 -6.0062 0
M  V30 878 H 89.354 -1.13871 -5.61877 0
M  V30 879 H 87.751 -1.92728 -5.6831 0
M  V30 880 H 88.821 -2.23467 -4.30338 0
M  V30 881 N 90.1641 1.46063 -0.591896 0
M  V30 882 C 91.4411 1.95595 -0.0137119 0
M  V30 883 C 91.8211 1.5345 1.4497 0
M  V30 884 O 91.1691 0.789543 2.14426 0
M  V30 885 C 91.3791 3.48453 -0.195373 0
M  V30 886 C 92.7271 4.24546 -0.0679765 0
M  V30 887 O 93.7511 3.55982 -0.124681 0
M  V30 888 O 92.6101 5.46467 0.0600579 0
M  V30 889 H 89.7041 0.825795 0.0446279 0
M  V30 890 H 92.2501 1.56303 -0.660859 0
M  V30 891 H 91.0221 3.72045 -1.21235 0
M  V30 892 H 90.6451 3.94597 0.487775 0
M  V30 893 N 91.6422 0.330177 1.54103 0
M  V30 894 C 92.9192 -0.325007 1.92881 0
M  V30 895 C 93.2992 -1.6934 1.26045 0
M  V30 896 O 92.6472 -2.24855 0.406526 0
M  V30 897 C 92.8572 -0.410634 3.46576 0
M  V30 898 C 94.2052 -0.667801 4.19316 0
M  V30 899 O 95.2292 -0.49329 3.52768 0
M  V30 900 O 94.0882 -1.00491 5.37181 0
M  V30 901 H 91.1822 -0.186873 0.80561 0
M  V30 902 H 93.7282 0.380376 1.65382 0
M  V30 903 H 92.5002 0.550164 3.87413 0
M  V30 904 H 92.1232 -1.16333 3.802 0
M  V30 905 N 93.1203 -1.57491 0.0584922 0
M  V30 906 C 94.0683 -2.13148 -0.931168 0
M  V30 907 C 95.0623 -1.06507 -1.31729 0
M  V30 908 O 96.2683 -1.24906 -1.29609 0
M  V30 909 H 92.6433 -0.68137 -0.31818 0
M  V30 910 H 94.6143 -2.95187 -0.436707 0
M  V30 911 C 93.3633 -2.69732 -2.19408 0
M  V30 912 H 92.6863 -3.51454 -1.90578 0
M  V30 913 H 94.1263 -3.12287 -2.86798 0
M  V30 914 C 92.5853 -1.63855 -2.94369 0
M  V30 915 O 93.1153 -1.05565 -3.87581 0
M  V30 916 N 91.3213 -1.35202 -2.57233 0
M  V30 917 H 90.8683 -1.82791 -1.81508 0
M  V30 918 H 90.8263 -0.645922 -3.07693 0
M  V30 919 N 94.5984 0.214957 -1.56127 0
M  V30 920 C 95.8464 0.936518 -1.79091 0
M  V30 921 C 96.1674 1.84606 -0.628148 0
M  V30 922 O 95.4374 1.92664 0.35462 0
M  V30 923 H 94.0174 0.3488 -0.660566 0
M  V30 924 H 96.6794 0.22523 -1.93594 0
M  V30 925 H 95.7754 1.53943 -2.71492 0
M  V30 926 N 96.0765 1.50051 0.48192 0
M  V30 927 C 97.3045 1.64237 1.25832 0
M  V30 928 C 97.7195 0.321336 1.86045 0
M  V30 929 O 97.0765 -0.695478 1.68729 0
M  V30 930 C 97.1275 2.72548 2.37487 0
M  V30 931 O 96.8485 3.99529 1.79745 0
M  V30 932 C 98.3495 2.9761 3.28547 0
M  V30 933 H 95.5695 0.55237 0.380957 0
M  V30 934 H 98.1135 1.96207 0.576467 0
M  V30 935 H 96.2685 2.43303 3.01467 0
M  V30 936 H 96.6825 4.59342 2.5319 0
M  V30 937 H 98.1565 3.77084 4.03127 0
M  V30 938 H 98.6335 2.0826 3.86684 0
M  V30 939 H 99.2395 3.28345 2.70314 0
M  V30 940 N 97.5546 -0.734337 1.39446 0
M  V30 941 C 98.4876 -1.85715 1.32609 0
M  V30 942 C 99.4656 -1.6137 0.199636 0
M  V30 943 O 100.65 -1.84626 0.380195 0
M  V30 944 C 97.7766 -3.21709 1.05929 0
M  V30 945 C 96.8226 -3.64913 2.20773 0
M  V30 946 S 97.6556 -3.74203 3.83056 0
M  V30 947 C 98.8116 -5.12986 3.58603 0
M  V30 948 H 99.0446 -1.91232 2.27635 0
M  V30 949 H 96.5776 -0.899263 1.25509 0
M  V30 950 H 98.5356 -4.00236 0.912203 0
M  V30 951 H 97.1966 -3.13848 0.125883 0
M  V30 952 H 96.3896 -4.63606 1.97699 0
M  V30 953 H 95.9916 -2.93593 2.31688 0
M  V30 954 H 98.2836 -5.99339 3.15909 0
M  V30 955 H 99.2266 -5.41088 4.5676 0
M  V30 956 H 99.6346 -4.82694 2.9269 0
M  V30 957 N 99.0327 -1.24633 -0.964593 0
M  V30 958 C 99.9627 -1.06611 -2.07741 0
M  V30 959 C 100.944 0.0218666 -1.70086 0
M  V30 960 O 102.129 -0.145793 -1.93652 0
M  V30 961 C 99.2587 -0.673444 -3.40708 0
M  V30 962 C 98.2127 -1.71054 -3.92332 0
M  V30 963 C 97.5387 -1.17285 -5.21678 0
M  V30 964 C 98.8387 -3.10718 -4.19824 0
M  V30 965 H 100.533 -1.99693 -2.23076 0
M  V30 966 H 98.0787 -0.96152 -1.07195 0
M  V30 967 H 100.032 -0.534345 -4.17998 0
M  V30 968 H 98.7557 0.293073 -3.25282 0
M  V30 969 H 97.4147 -1.83791 -3.17201 0
M  V30 970 H 97.0627 -0.196847 -5.02615 0
M  V30 971 H 96.7627 -1.86592 -5.57187 0
M  V30 972 H 98.2867 -1.04593 -6.01575 0
M  V30 973 H 99.7007 -3.01192 -4.87808 0
M  V30 974 H 98.0977 -3.77406 -4.66567 0
M  V30 975 H 99.1677 -3.58524 -3.26479 0
M  V30 976 N 100.511 1.16574 -1.06058 0
M  V30 977 C 101.758 1.87047 -0.775873 0
M  V30 978 C 102.086 1.81562 0.697534 0
M  V30 979 O 101.341 1.22445 1.52662 0
M  V30 980 C 101.64 3.36195 -1.21275 0
M  V30 981 C 101.306 3.6188 -2.68986 0
M  V30 982 C 99.9678 3.68599 -3.09335 0
M  V30 983 C 102.32 3.72648 -3.64394 0
M  V30 984 C 99.6478 3.83584 -4.43937 0
M  V30 985 C 102 3.89154 -4.98741 0
M  V30 986 C 100.664 3.94114 -5.3873 0
M  V30 987 H 99.9338 0.684452 -0.283912 0
M  V30 988 H 102.581 1.37853 -1.32925 0
M  V30 989 H 100.886 3.87505 -0.578528 0
M  V30 990 H 102.583 3.89103 -0.969542 0
M  V30 991 H 99.1728 3.57281 -2.36744 0
M  V30 992 H 103.357 3.66769 -3.34356 0
M  V30 993 H 98.6128 3.85677 -4.74409 0
M  V30 994 H 102.787 3.96427 -5.72554 0
M  V30 995 H 100.414 4.05478 -6.43033 0
M  V30 996 N 101.989 0.842826 1.3317 0
M  V30 997 C 103.236 0.440447 1.97652 0
M  V30 998 C 103.564 -1.00123 1.6675 0
M  V30 999 O 102.819 -1.7155 0.941761 0
M  V30 1000 C 103.118 0.612607 3.52111 0
M  V30 1001 C 102.784 2.02297 4.02972 0
M  V30 1002 C 101.446 2.40874 4.16573 0
M  V30 1003 C 103.798 2.94402 4.30089 0
M  V30 1004 C 101.126 3.70852 4.54627 0
M  V30 1005 C 103.478 4.23865 4.69597 0
M  V30 1006 C 102.142 4.62392 4.81404 0
M  V30 1007 H 101.412 0.161171 0.72326 0
M  V30 1008 H 104.059 1.07061 1.58777 0
M  V30 1009 H 102.364 -0.100849 3.9167 0
M  V30 1010 H 104.061 0.2815 4.00011 0
M  V30 1011 H 100.651 1.71338 3.92863 0
M  V30 1012 H 104.835 2.65835 4.19101 0
M  V30 1013 H 100.091 4.00501 4.61962 0
M  V30 1014 H 104.265 4.95306 4.89536 0
M  V30 1015 H 101.892 5.63154 5.10648 0
M  V30 1016 N 103.467 -1.45747 0.599634 0
M  V30 1017 C 104.414 -2.30467 -0.123849 0
M  V30 1018 C 105.384 -1.41632 -0.86774 0
M  V30 1019 O 106.569 -1.70568 -0.855056 0
M  V30 1020 C 103.709 -3.26402 -1.12051 0
M  V30 1021 C 102.822 -4.3034 -0.37832 0
M  V30 1022 C 101.957 -5.13389 -1.364 0
M  V30 1023 C 100.996 -6.09061 -0.609171 0
M  V30 1024 N 100.133 -6.84918 -1.54374 0
M  V30 1025 H 104.973 -2.91802 0.604627 0
M  V30 1026 H 102.51 -1.43797 0.309972 0
M  V30 1027 H 104.468 -3.80482 -1.7114 0
M  V30 1028 H 103.098 -2.66839 -1.8165 0
M  V30 1029 H 102.15 -3.78984 0.327929 0
M  V30 1030 H 103.462 -4.98354 0.210997 0
M  V30 1031 H 102.616 -5.7183 -2.02719 0
M  V30 1032 H 101.355 -4.45376 -1.98725 0
M  V30 1033 H 100.36 -5.49758 0.0676979 0
M  V30 1034 H 101.585 -6.79099 0.00891991 0
M  V30 1035 H 99.531 -6.19601 -2.15478 0
M  V30 1036 H 99.448 -7.49254 -1.00766 0
M  V30 1037 H 100.716 -7.47906 -2.19676 0
M  V30 1038 N 104.945 -0.338344 -1.53925 0
M  V30 1039 C 106.193 0.259245 -2.0043 0
M  V30 1040 C 106.514 1.51484 -1.22791 0
M  V30 1041 O 105.784 1.93037 -0.33368 0
M  V30 1042 H 104.364 0.0987845 -0.740439 0
M  V30 1043 H 107.026 -0.458302 -1.89435 0
M  V30 1044 H 106.122 0.505334 -3.07982 0
M  V30 1045 N 106.423 1.57458 -0.0668435 0
M  V30 1046 C 107.333 2.15937 0.916975 0
M  V30 1047 C 108.349 1.12123 1.33058 0
M  V30 1048 O 109.525 1.44366 1.40429 0
M  V30 1049 C 106.59 2.70547 2.16807 0
M  V30 1050 C 105.651 3.89215 1.81135 0
M  V30 1051 C 104.884 4.41211 3.0028 0
M  V30 1052 O 105.107 3.92225 4.14144 0
M  V30 1053 O 104.041 5.32605 2.80384 0
M  V30 1054 H 107.867 3.00354 0.449561 0
M  V30 1055 H 105.452 1.48584 0.155949 0
M  V30 1056 H 107.334 3.0557 2.90181 0
M  V30 1057 H 106.009 1.89192 2.62656 0
M  V30 1058 H 104.916 3.59054 1.05028 0
M  V30 1059 H 106.249 4.71848 1.40073 0
M  V30 1060 N 107.901 -0.206675 1.56239 0
M  V30 1061 C 109.148 -0.928842 1.79941 0
M  V30 1062 C 109.476 -1.83734 0.638131 0
M  V30 1063 O 108.731 -1.92039 -0.376746 0
M  V30 1064 C 109.03 -1.78675 3.09532 0
M  V30 1065 C 108.696 -1.03022 4.38973 0
M  V30 1066 C 107.358 -0.821302 4.74139 0
M  V30 1067 C 109.71 -0.497081 5.18824 0
M  V30 1068 C 107.038 -0.0675719 5.86661 0
M  V30 1069 C 109.39 0.24338 6.32132 0
M  V30 1070 C 108.054 0.463422 6.65889 0
M  V30 1071 H 107.324 -0.339887 0.658451 0
M  V30 1072 H 109.971 -0.195977 1.90495 0
M  V30 1073 H 108.276 -2.58794 2.94165 0
M  V30 1074 H 109.973 -2.34792 3.25075 0
M  V30 1075 H 106.563 -1.20306 4.11369 0
M  V30 1076 H 110.747 -0.645921 4.92079 0
M  V30 1077 H 106.003 0.112995 6.11296 0
M  V30 1078 H 110.177 0.66393 6.93228 0
M  V30 1079 H 107.804 1.04938 7.52922 0
M  V30 1080 N 109.379 -1.50304 -0.473955 0
M  V30 1081 C 110.625 -1.61389 -1.22806 0
M  V30 1082 C 110.958 -0.311955 -1.91678 0
M  V30 1083 O 110.233 0.686384 -1.81986 0
M  V30 1084 C 110.516 -2.79219 -2.27396 0
M  V30 1085 C 110.369 -4.19286 -1.62848 0
M  V30 1086 C 111.688 -2.92614 -3.28732 0
M  V30 1087 H 108.807 -0.587399 -0.445119 0
M  V30 1088 H 111.449 -1.82681 -0.522265 0
M  V30 1089 H 109.599 -2.61195 -2.87592 0
M  V30 1090 H 111.271 -4.48892 -1.06271 0
M  V30 1091 H 109.514 -4.23677 -0.931693 0
M  V30 1092 H 110.185 -4.97655 -2.38838 0
M  V30 1093 H 112.661 -3.09105 -2.78556 0
M  V30 1094 H 111.537 -3.76688 -3.99246 0
M  V30 1095 H 111.798 -2.03107 -3.92683 0
M  V30 1096 N 110.857 0.726932 -1.39834 0
M  V30 1097 C 112.103 1.48771 -1.38704 0
M  V30 1098 C 112.458 1.92394 0.0146387 0
M  V30 1099 O 111.751 1.64474 0.982797 0
M  V30 1100 C 111.945 2.73495 -2.30077 0
M  V30 1101 C 111.774 2.42068 -3.78989 0
M  V30 1102 C 110.544 2.33966 -4.4787 0
M  V30 1103 C 112.742 2.0708 -4.70768 0
M  V30 1104 N 110.724 1.95095 -5.82075 0
M  V30 1105 C 112.095 1.78719 -5.93683 0
M  V30 1106 C 114.15 1.93618 -4.58712 0
M  V30 1107 C 112.853 1.3825 -7.05889 0
M  V30 1108 C 114.879 1.54553 -5.70848 0
M  V30 1109 C 114.241 1.27082 -6.92842 0
M  V30 1110 H 110.34 0.542919 -0.562817 0
M  V30 1111 H 112.924 0.84408 -1.75452 0
M  V30 1112 H 111.095 3.35625 -1.95474 0
M  V30 1113 H 112.827 3.39755 -2.19883 0
M  V30 1114 H 109.582 2.51331 -4.0141 0
M  V30 1115 H 110.006 1.7823 -6.53118 0
M  V30 1116 H 114.648 2.13522 -3.64922 0
M  V30 1117 H 112.366 1.17088 -7.99572 0
M  V30 1118 H 115.952 1.44731 -5.6351 0
M  V30 1119 H 114.832 0.973069 -7.78139 0
M  V30 1120 N 112.336 1.25143 0.95797 0
M  V30 1121 C 113.283 1.05235 2.05412 0
M  V30 1122 C 114.253 -0.0374561 1.66058 0
M  V30 1123 O 115.438 0.119073 1.90428 0
M  V30 1124 C 112.578 0.673589 3.38462 0
M  V30 1125 C 111.691 1.8379 3.90954 0
M  V30 1126 C 110.826 1.40381 5.12315 0
M  V30 1127 C 109.865 2.53746 5.57027 0
M  V30 1128 N 109.002 2.11136 6.69601 0
M  V30 1129 H 113.842 1.99048 2.21774 0
M  V30 1130 H 111.379 0.991277 1.08683 0
M  V30 1131 H 113.337 0.434964 4.14926 0
M  V30 1132 H 111.967 -0.227554 3.21997 0
M  V30 1133 H 111.019 2.18992 3.11041 0
M  V30 1134 H 112.331 2.68937 4.20089 0
M  V30 1135 H 111.485 1.12464 5.96185 0
M  V30 1136 H 110.224 0.523015 4.84887 0
M  V30 1137 H 109.229 2.82412 4.71724 0
M  V30 1138 H 110.454 3.42398 5.86464 0
M  V30 1139 H 108.4 1.25468 6.4389 0
M  V30 1140 H 108.317 2.89832 6.98236 0
M  V30 1141 H 109.585 1.86385 7.56889 0
M  V30 1142 N 113.814 -1.1601 1.06675 0
M  V30 1143 C 115.039 -1.91068 0.806706 0
M  V30 1144 C 115.464 -1.77112 -0.633485 0
M  V30 1145 O 114.822 -1.09908 -1.44187 0
M  V30 1146 C 114.87 -3.39655 1.21106 0
M  V30 1147 O 113.974 -4.10893 0.352189 0
M  V30 1148 H 113.315 -0.595125 0.294486 0
M  V30 1149 H 115.845 -1.46955 1.42356 0
M  V30 1150 H 115.855 -3.90434 1.18428 0
M  V30 1151 H 114.53 -3.49132 2.26008 0
M  V30 1152 H 113.107 -3.70285 0.440868 0
M  V30 1153 N 115.292 -0.849877 -1.32721 0
M  V30 1154 C 116.242 -0.262892 -2.26479 0
M  V30 1155 C 117.226 0.588493 -1.49752 0
M  V30 1156 O 118.418 0.438659 -1.71478 0
M  V30 1157 C 115.547 0.551818 -3.38836 0
M  V30 1158 C 114.633 -0.311689 -4.22953 0
M  V30 1159 N 115.024 -1.39567 -4.86163 0
M  V30 1160 C 113.322 -0.100611 -4.45887 0
M  V30 1161 C 114.023 -1.92651 -5.48872 0
M  V30 1162 N 112.999 -1.22637 -5.29586 0
M  V30 1163 H 116.801 -1.09166 -2.72873 0
M  V30 1164 H 114.315 -0.695486 -1.46754 0
M  V30 1165 H 116.312 0.988713 -4.05006 0
M  V30 1166 H 114.972 1.37844 -2.93988 0
M  V30 1167 H 115.983 -1.77859 -4.86402 0
M  V30 1168 H 112.66 0.691681 -4.11731 0
M  V30 1169 H 114.05 -2.83487 -6.09167 0
M  V30 1170 N 116.77 1.45427 -0.607355 0
M  V30 1171 C 117.717 2.3053 0.111625 0
M  V30 1172 C 118.687 1.4209 0.860216 0
M  V30 1173 O 119.872 1.71019 0.845998 0
M  V30 1174 C 117.012 3.26992 1.10319 0
M  V30 1175 C 116.125 4.30535 0.355493 0
M  V30 1176 C 115.26 5.14105 1.33676 0
M  V30 1177 C 114.299 6.09376 0.576862 0
M  V30 1178 N 113.436 6.85727 1.5074 0
M  V30 1179 H 118.276 2.91477 -0.620093 0
M  V30 1180 H 115.813 1.43631 -0.317594 0
M  V30 1181 H 117.771 3.81385 1.6912 0
M  V30 1182 H 116.401 2.67799 1.80232 0
M  V30 1183 H 115.453 3.78805 -0.348023 0
M  V30 1184 H 116.765 4.98235 -0.237423 0
M  V30 1185 H 115.919 5.72897 1.99684 0
M  V30 1186 H 114.658 4.46423 1.9636 0
M  V30 1187 H 113.663 5.49715 -0.0968519 0
M  V30 1188 H 114.888 6.79085 -0.0449341 0
M  V30 1189 H 112.834 6.20735 2.12189 0
M  V30 1190 H 112.751 7.49778 0.967913 0
M  V30 1191 H 114.019 7.4906 2.15706 0
M  V30 1192 N 118.248 0.346503 1.53744 0
M  V30 1193 C 119.494 -0.242135 2.01954 0
M  V30 1194 C 119.849 -1.47962 1.22984 0
M  V30 1195 O 119.142 -1.89077 0.309924 0
M  V30 1196 C 119.336 -0.605809 3.52228 0
M  V30 1197 C 119.165 0.594882 4.45748 0
M  V30 1198 C 117.935 1.1011 4.93157 0
M  V30 1199 C 120.133 1.45425 4.93311 0
M  V30 1200 N 118.115 2.26381 5.70636 0
M  V30 1201 C 119.486 2.46383 5.68942 0
M  V30 1202 C 121.541 1.47935 4.75415 0
M  V30 1203 C 120.244 3.49684 6.28581 0
M  V30 1204 C 122.27 2.50119 5.35905 0
M  V30 1205 C 121.632 3.49803 6.11406 0
M  V30 1206 H 117.731 -0.0518296 0.780281 0
M  V30 1207 H 120.315 0.486736 1.88518 0
M  V30 1208 H 118.486 -1.30378 3.65864 0
M  V30 1209 H 120.218 -1.17789 3.87179 0
M  V30 1210 H 116.973 0.668721 4.68855 0
M  V30 1211 H 117.397 2.85094 6.14044 0
M  V30 1212 H 122.039 0.722274 4.16585 0
M  V30 1213 H 119.757 4.26285 6.86518 0
M  V30 1214 H 123.343 2.52892 5.23963 0
M  V30 1215 H 122.223 4.27576 6.5738 0
M  V30 1216 N 119.726 -1.57421 0.075193 0
M  V30 1217 C 121.003 -1.85029 -0.634329 0
M  V30 1218 C 121.383 -0.968305 -1.87582 0
M  V30 1219 O 120.731 -0.0354749 -2.28472 0
M  V30 1220 C 120.941 -3.35286 -0.968742 0
M  V30 1221 C 122.289 -4.02875 -1.34077 0
M  V30 1222 O 123.313 -3.40051 -1.06037 0
M  V30 1223 O 122.172 -5.13691 -1.86506 0
M  V30 1224 H 119.266 -0.7645 -0.315387 0
M  V30 1225 H 121.812 -1.69366 0.106382 0
M  V30 1226 H 120.584 -3.91203 -0.0871376 0
M  V30 1227 H 120.207 -3.56223 -1.7661 0
M  V30 1228 N 121.204 0.198386 -1.56346 0
M  V30 1229 C 122.62 0.549085 -1.49857 0
M  V30 1230 C 122.82 1.86016 -0.774611 0
M  V30 1231 O 121.876 2.50416 -0.323776 0
M  V30 1232 C 123.189 0.606868 -2.94512 0
M  V30 1233 C 124.737 0.695925 -3.05165 0
M  V30 1234 C 125.212 0.784848 -4.51225 0
M  V30 1235 N 126.703 0.848463 -4.55363 0
M  V30 1236 C 127.438 0.937378 -5.65686 0
M  V30 1237 N 126.934 0.9888 -6.85707 0
M  V30 1238 N 128.727 0.974312 -5.53592 0
M  V30 1239 H 120.878 -0.661655 -2.01831 0
M  V30 1240 H 123.141 -0.235261 -0.918344 0
M  V30 1241 H 122.847 -0.28732 -3.50524 0
M  V30 1242 H 122.721 1.46268 -3.47686 0
M  V30 1243 H 125.108 1.58055 -2.49204 0
M  V30 1244 H 125.189 -0.186022 -2.55123 0
M  V30 1245 H 124.833 -0.0954072 -5.0781 0
M  V30 1246 H 124.763 1.68255 -4.98997 0
M  V30 1247 H 127.254 0.818103 -3.68938 0
M  V30 1248 H 127.567 1.05707 -7.65536 0
M  V30 1249 H 125.912 0.957534 -6.88372 0
M  V30 1250 H 129.103 0.930954 -4.58749 0
M  V30 1251 H 129.276 1.04015 -6.39597 0
M  V30 1252 N 122.682 1.50554 0.465978 0
M  V30 1253 C 123.592 1.72585 1.58907 0
M  V30 1254 C 124.608 0.60911 1.6299 0
M  V30 1255 O 125.784 0.88804 1.80765 0
M  V30 1256 C 122.849 1.81995 2.95091 0
M  V30 1257 C 121.91 3.05751 3.01355 0
M  V30 1258 C 121.143 3.14702 4.31043 0
M  V30 1259 O 121.366 2.30313 5.21835 0
M  V30 1260 O 120.3 4.07468 4.43005 0
M  V30 1261 H 124.126 2.67799 1.43239 0
M  V30 1262 H 121.711 1.34711 0.646013 0
M  V30 1263 H 123.593 1.90335 3.75966 0
M  V30 1264 H 122.268 0.899659 3.10947 0
M  V30 1265 H 121.175 3.02908 2.19539 0
M  V30 1266 H 122.508 3.97375 2.90437 0
M  V30 1267 N 124.16 -0.719506 1.40217 0
M  V30 1268 C 125.09 -1.8465 1.42922 0
M  V30 1269 C 126.071 -1.67599 0.29062 0
M  V30 1270 O 127.256 -1.87688 0.498677 0
M  V30 1271 C 124.386 -3.22565 1.28722 0
M  V30 1272 C 123.34 -3.54281 2.40144 0
M  V30 1273 C 122.666 -4.91298 2.11023 0
M  V30 1274 C 123.966 -3.55676 3.82481 0
M  V30 1275 H 125.66 -1.82644 2.37237 0
M  V30 1276 H 123.206 -0.877305 1.1419 0
M  V30 1277 H 125.159 -4.01095 1.29232 0
M  V30 1278 H 123.883 -3.25137 0.308811 0
M  V30 1279 H 122.542 -2.78088 2.38877 0
M  V30 1280 H 122.19 -4.90468 1.11582 0
M  V30 1281 H 121.89 -5.13485 2.8567 0
M  V30 1282 H 123.414 -5.72166 2.13209 0
M  V30 1283 H 124.828 -4.24254 3.85592 0
M  V30 1284 H 123.225 -3.89388 4.56614 0
M  V30 1285 H 124.295 -2.55144 4.12346 0
M  V30 1286 N 125.638 -1.25649 -0.95132 0
M  V30 1287 C 126.887 -1.09988 -1.69073 0
M  V30 1288 C 127.2 0.358355 -1.92289 0
M  V30 1289 O 128.406 0.635466 -2.63958 0
M  V30 1290 C 126.862 -1.92012 -3.044 0
M  V30 1291 C 126.47 -3.42347 -2.88968 0
M  V30 1292 C 128.214 -1.8493 -3.82101 0
M  V30 1293 C 126.121 -4.16655 -4.19705 0
M  V30 1294 H 125.051 -0.407993 -0.63408 0
M  V30 1295 H 127.702 -1.49873 -1.05879 0
M  V30 1296 H 126.084 -1.44952 -3.68517 0
M  V30 1297 H 127.258 -3.97104 -2.33762 0
M  V30 1298 H 125.573 -3.50557 -2.24719 0
M  V30 1299 H 128.17 -2.37739 -4.78941 0
M  V30 1300 H 128.513 -0.817883 -4.08187 0
M  V30 1301 H 129.046 -2.29758 -3.2474 0
M  V30 1302 H 125.785 -5.20224 -3.98807 0
M  V30 1303 H 125.305 -3.66681 -4.74663 0
M  V30 1304 H 126.984 -4.24551 -4.88227 0
M  V30 1305 N 127.117 1.15442 -1.07289 0
M  V30 1306 C 128.342 1.90638 -0.816828 0
M  V30 1307 C 128.767 1.77445 0.624083 0
M  V30 1308 O 128.125 1.10671 1.43602 0
M  V30 1309 C 128.173 3.39008 -1.22906 0
M  V30 1310 O 127.277 4.10701 -0.373975 0
M  V30 1311 H 126.618 0.593555 -0.297638 0
M  V30 1312 H 129.148 1.46198 -1.43134 0
M  V30 1313 H 129.158 3.89801 -1.20497 0
M  V30 1314 H 127.833 3.47929 -2.27856 0
M  V30 1315 H 126.41 3.70046 -0.460499 0
M  V30 1316 N 128.595 0.856903 1.32268 0
M  V30 1317 C 129.505 0.306131 2.32594 0
M  V30 1318 C 130.521 -0.577209 1.64147 0
M  V30 1319 O 131.697 -0.477043 1.95669 0
M  V30 1320 C 128.762 -0.494561 3.43154 0
M  V30 1321 C 127.823 0.415186 4.27288 0
M  V30 1322 C 127.056 -0.347387 5.32568 0
M  V30 1323 O 127.279 -1.57708 5.48165 0
M  V30 1324 O 126.213 0.287982 6.01211 0
M  V30 1325 H 130.039 1.13737 2.81598 0
M  V30 1326 H 127.624 0.619902 1.35932 0
M  V30 1327 H 129.506 -0.948944 4.10576 0
M  V30 1328 H 128.181 -1.30257 2.96336 0
M  V30 1329 H 127.088 0.917793 3.62667 0
M  V30 1330 H 128.421 1.18844 4.77637 0
M  V30 1331 N 130.073 -1.45103 0.615059 0
M  V30 1332 C 131.489 -1.57137 0.279322 0
M  V30 1333 C 131.689 -1.60523 -1.21797 0
M  V30 1334 O 130.745 -1.53956 -2.00134 0
M  V30 1335 C 132.058 -2.85062 0.957083 0
M  V30 1336 C 133.606 -2.98749 0.933706 0
M  V30 1337 C 134.081 -4.29455 1.59162 0
M  V30 1338 N 135.572 -4.36231 1.55746 0
M  V30 1339 C 136.307 -5.36051 2.0356 0
M  V30 1340 N 135.803 -6.42367 2.59494 0
M  V30 1341 N 137.596 -5.27456 1.94284 0
M  V30 1342 H 129.747 -1.41148 1.58717 0
M  V30 1343 H 132.01 -0.675331 0.665306 0
M  V30 1344 H 131.716 -2.88488 2.01166 0
M  V30 1345 H 131.59 -3.7407 0.48494 0
M  V30 1346 H 133.977 -2.94886 -0.112347 0
M  V30 1347 H 134.058 -2.11132 1.44419 0
M  V30 1348 H 133.702 -4.34077 2.63704 0
M  V30 1349 H 133.632 -5.15901 1.0561 0
M  V30 1350 H 136.123 -3.60011 1.14893 0
M  V30 1351 H 136.436 -7.14793 2.93752 0
M  V30 1352 H 134.781 -6.43097 2.63537 0
M  V30 1353 H 137.972 -4.43308 1.5032 0
M  V30 1354 H 138.145 -6.05099 2.3186 0
M  V30 1355 N 131.551 -0.354651 -1.53558 0
M  V30 1356 C 132.797 0.231422 -2.02079 0
M  V30 1357 C 133.152 1.47308 -1.23767 0
M  V30 1358 O 132.445 1.8891 -0.319947 0
M  V30 1359 C 132.639 0.587121 -3.52545 0
M  V30 1360 C 132.468 -0.618513 -4.45426 0
M  V30 1361 C 131.238 -1.12724 -4.92566 0
M  V30 1362 C 133.436 -1.48039 -4.92533 0
M  V30 1363 N 131.418 -2.29404 -5.69427 0
M  V30 1364 C 132.789 -2.49397 -5.67628 0
M  V30 1365 C 134.844 -1.50454 -4.74624 0
M  V30 1366 C 133.547 -3.53013 -6.26717 0
M  V30 1367 C 135.573 -2.52958 -5.34571 0
M  V30 1368 C 134.935 -3.5304 -6.09543 0
M  V30 1369 H 131.034 0.0476909 -0.780544 0
M  V30 1370 H 133.618 -0.496727 -1.88257 0
M  V30 1371 H 131.789 1.28436 -3.6655 0
M  V30 1372 H 133.521 1.15734 -3.87799 0
M  V30 1373 H 130.276 -0.693577 -4.68494 0
M  V30 1374 H 130.7 -2.88347 -6.12524 0
M  V30 1375 H 135.342 -0.744356 -4.16196 0
M  V30 1376 H 133.06 -4.2992 -6.84247 0
M  V30 1377 H 136.646 -2.55667 -5.22614 0
M  V30 1378 H 135.526 -4.31056 -6.55103 0
M  V30 1379 N 133.029 1.57378 -0.0835403 0
M  V30 1380 C 133.976 2.13384 0.879539 0
M  V30 1381 C 134.946 1.04936 1.28754 0
M  V30 1382 O 136.131 1.32662 1.37133 0
M  V30 1383 C 133.271 2.70932 2.13752 0
M  V30 1384 C 132.384 3.93575 1.7811 0
M  V30 1385 C 131.519 4.39326 2.98607 0
M  V30 1386 C 130.558 5.54587 2.59037 0
M  V30 1387 N 129.695 5.95243 3.72331 0
M  V30 1388 H 134.535 2.9537 0.395076 0
M  V30 1389 H 132.072 1.45953 0.183349 0
M  V30 1390 H 134.03 3.02411 2.87408 0
M  V30 1391 H 132.66 1.91693 2.59718 0
M  V30 1392 H 131.712 3.68483 0.94469 0
M  V30 1393 H 133.024 4.77258 1.45005 0
M  V30 1394 H 132.178 4.72528 3.80529 0
M  V30 1395 H 130.917 3.5452 3.34913 0
M  V30 1396 H 129.922 5.21024 1.75539 0
M  V30 1397 H 131.147 6.41133 2.23887 0
M  V30 1398 H 129.093 5.13385 4.08378 0
M  V30 1399 H 129.01 6.73694 3.43034 0
M  V30 1400 H 130.278 6.33072 4.54797 0
M  V30 1401 N 134.507 -0.190092 1.56449 0
M  V30 1402 C 135.455 -1.25501 1.95837 0
M  V30 1403 C 136.449 -1.4685 0.844485 0
M  V30 1404 O 137.655 -1.47651 1.02952 0
M  V30 1405 H 134.03 -0.421447 0.622805 0
M  V30 1406 H 136.001 -0.895821 2.84636 0
M  V30 1407 C 134.75 -2.59124 2.31841 0
M  V30 1408 H 134.073 -2.43514 3.17082 0
M  V30 1409 H 135.513 -3.32371 2.6326 0
M  V30 1410 C 133.972 -3.16488 1.15486 0
M  V30 1411 O 134.502 -3.99365 0.432535 0
M  V30 1412 N 132.708 -2.75305 0.930349 0
M  V30 1413 H 132.255 -2.08013 1.51948 0
M  V30 1414 H 132.213 -3.14024 0.153634 0
M  V30 1415 N 135.985 -1.50799 -0.457987 0
M  V30 1416 C 137.232 -1.62442 -1.20908 0
M  V30 1417 C 137.56 -0.330865 -1.91665 0
M  V30 1418 O 136.815 0.68401 -1.83357 0
M  V30 1419 C 137.114 -2.76358 -2.2663 0
M  V30 1420 C 136.78 -4.16378 -1.73033 0
M  V30 1421 C 135.442 -4.54473 -1.58138 0
M  V30 1422 C 137.794 -5.03836 -1.33413 0
M  V30 1423 C 135.122 -5.77754 -1.02065 0
M  V30 1424 C 137.474 -6.27676 -0.78778 0
M  V30 1425 C 136.138 -6.64562 -0.625561 0
M  V30 1426 H 135.408 -0.594417 -0.442435 0
M  V30 1427 H 138.055 -1.84772 -0.503136 0
M  V30 1428 H 136.36 -2.48167 -3.03184 0
M  V30 1429 H 138.057 -2.82568 -2.84528 0
M  V30 1430 H 134.647 -3.86331 -1.85598 0
M  V30 1431 H 138.831 -4.75026 -1.4375 0
M  V30 1432 H 134.087 -6.04997 -0.882547 0
M  V30 1433 H 138.261 -6.94797 -0.472177 0
M  V30 1434 H 135.888 -7.59965 -0.188926 0
M  V30 1435 N 137.463 0.71206 -1.40597 0
M  V30 1436 C 138.874 1.29135 -1.34837 0
M  V30 1437 C 139.225 1.96186 -0.0235395 0
M  V30 1438 O 138.35 1.97768 0.878444 0
M  V30 1439 C 138.945 2.34827 -2.44217 0
M  V30 1440 C 137.504 2.88371 -2.41907 0
M  V30 1441 C 136.651 1.62202 -2.24913 0
M  V30 1442 H 139.602 0.507944 -1.50352 0
M  V30 1443 H 139.623 3.15749 -2.12327 0
M  V30 1444 H 139.135 1.85996 -3.40627 0
M  V30 1445 H 137.236 3.41422 -1.49204 0
M  V30 1446 H 137.349 3.39925 -3.37621 0
M  V30 1447 H 135.713 1.874 -1.72492 0
M  V30 1448 H 136.496 1.15391 -3.23326 0
M  V30 1449 N 138.941 1.26152 0.944643 0
M  V30 1450 C 140.166 1.14363 1.7302 0
M  V30 1451 C 140.591 -0.29772 1.85729 0
M  V30 1452 O 139.949 -1.2157 1.34501 0
M  V30 1453 C 139.997 1.81378 3.11664 0
M  V30 1454 O 139.101 1.10022 3.97453 0
M  V30 1455 H 138.442 0.398694 0.53098 0
M  V30 1456 H 140.972 1.66906 1.18337 0
M  V30 1457 H 140.982 1.88064 3.62072 0
M  V30 1458 H 139.657 2.86237 3.0173 0
M  V30 1459 H 138.234 1.11287 3.55907 0
M  V30 1460 N 140.419 -1.14872 1.07899 0
M  V30 1461 C 141.83 -1.67367 0.827363 0
M  V30 1462 C 142.181 -1.85236 -0.646693 0
M  V30 1463 O 141.306 -1.55974 -1.50004 0
M  V30 1464 C 141.901 -3.04016 1.49532 0
M  V30 1465 C 140.46 -3.53566 1.29106 0
M  V30 1466 C 139.607 -2.29161 1.56143 0
M  V30 1467 H 142.558 -0.990083 1.24028 0
M  V30 1468 H 142.579 -3.69219 0.919643 0
M  V30 1469 H 142.091 -2.90978 2.56814 0
M  V30 1470 H 140.192 -3.71835 0.238713 0
M  V30 1471 H 140.305 -4.34661 2.01511 0
M  V30 1472 H 138.669 -2.34978 0.982717 0
M  V30 1473 H 139.452 -2.18705 2.64619 0
M  V30 1474 N 141.898 -0.863906 -1.31812 0
M  V30 1475 C 143.144 -0.472535 -1.97218 0
M  V30 1476 C 143.477 0.971394 -1.68159 0
M  V30 1477 O 142.752 1.68309 -0.974798 0
M  V30 1478 C 143.035 -0.723054 -3.52766 0
M  V30 1479 C 142.888 -2.21608 -3.91421 0
M  V30 1480 C 144.207 -0.185522 -4.39709 0
M  V30 1481 H 141.326 -0.173158 -0.71637 0
M  V30 1482 H 143.968 -1.08403 -1.56041 0
M  V30 1483 H 142.118 -0.202577 -3.87971 0
M  V30 1484 H 143.79 -2.80334 -3.66347 0
M  V30 1485 H 142.033 -2.691 -3.40246 0
M  V30 1486 H 142.704 -2.34203 -4.99853 0
M  V30 1487 H 145.18 -0.630726 -4.11292 0
M  V30 1488 H 144.056 -0.390306 -5.47511 0
M  V30 1489 H 144.317 0.912229 -4.32586 0
M  V30 1490 N 143.376 1.44774 -0.622745 0
M  V30 1491 C 144.653 1.95522 -0.0551974 0
M  V30 1492 C 145.033 1.5649 1.41683 0
M  V30 1493 O 144.381 0.834848 2.12703 0
M  V30 1494 C 144.591 3.4796 -0.269242 0
M  V30 1495 C 145.939 4.24306 -0.158014 0
M  V30 1496 O 146.963 3.55637 -0.200162 0
M  V30 1497 O 145.822 5.46471 -0.0558693 0
M  V30 1498 H 142.916 0.826556 0.0271015 0
M  V30 1499 H 145.462 1.54866 -0.693864 0
M  V30 1500 H 144.234 3.6939 -1.29099 0
M  V30 1501 H 143.857 3.95543 0.403966 0
M  V30 1502 N 144.854 0.36279 1.53368 0
M  V30 1503 C 145.817 -0.472679 2.24273 0
M  V30 1504 C 146.817 -1.012 1.24961 0
M  V30 1505 O 148.007 -0.898194 1.49259 0
M  V30 1506 C 145.139 -1.66039 2.97731 0
M  V30 1507 H 146.332 0.14773 2.99536 0
M  V30 1508 H 143.885 0.114434 1.55881 0
M  V30 1509 H 144.62 -2.31896 2.26704 0
M  V30 1510 H 144.405 -1.28066 3.70596 0
M  V30 1511 H 145.895 -2.25252 3.51641 0
M  V30 1512 N 146.332 -1.57332 0.0918853 0
M  V30 1513 C 147.295 -2.12708 -0.85369 0
M  V30 1514 C 148.295 -1.05561 -1.213 0
M  V30 1515 O 149.485 -1.31461 -1.14296 0
M  V30 1516 C 146.617 -2.64503 -2.15061 0
M  V30 1517 H 147.81 -2.97573 -0.3729 0
M  V30 1518 H 145.363 -1.55509 -0.157072 0
M  V30 1519 H 146.098 -1.83149 -2.67632 0
M  V30 1520 H 145.883 -3.4284 -1.90272 0
M  V30 1521 H 147.373 -3.07351 -2.82711 0
M  V30 1522 N 147.81 0.181792 -1.56548 0
M  V30 1523 C 149.057 0.900097 -1.81396 0
M  V30 1524 C 149.385 1.82695 -0.667281 0
M  V30 1525 O 148.64 1.92614 0.346146 0
M  V30 1526 C 148.939 1.73728 -3.12335 0
M  V30 1527 C 148.605 0.960255 -4.40556 0
M  V30 1528 C 147.267 0.745766 -4.75386 0
M  V30 1529 C 149.619 0.414477 -5.19549 0
M  V30 1530 C 146.947 -0.0257694 -5.86694 0
M  V30 1531 C 149.299 -0.343916 -6.31664 0
M  V30 1532 C 147.963 -0.569301 -6.65068 0
M  V30 1533 H 147.233 0.329369 -0.663775 0
M  V30 1534 H 149.88 0.165647 -1.90782 0
M  V30 1535 H 148.185 2.54081 -2.98245 0
M  V30 1536 H 149.882 2.29591 -3.28769 0
M  V30 1537 H 146.472 1.13746 -4.13231 0
M  V30 1538 H 150.656 0.567554 -4.93044 0
M  V30 1539 H 145.912 -0.210233 -6.11038 0
M  V30 1540 H 150.086 -0.774133 -6.92084 0
M  V30 1541 H 147.713 -1.16903 -7.51158 0
M  V30 1542 N 149.288 1.51039 0.449983 0
M  V30 1543 C 150.704 1.38934 0.785462 0
M  V30 1544 C 150.904 0.461817 1.96136 0
M  V30 1545 O 149.96 -0.0877389 2.52348 0
M  V30 1546 C 151.273 2.80724 1.0777 0
M  V30 1547 C 152.821 2.89787 1.1829 0
M  V30 1548 C 153.296 4.32457 1.50815 0
M  V30 1549 N 154.787 4.35505 1.57764 0
M  V30 1550 C 155.522 5.42914 1.84477 0
M  V30 1551 N 155.018 6.60502 2.09068 0
M  V30 1552 N 156.811 5.3038 1.86155 0
M  V30 1553 H 148.962 2.09904 -0.324647 0
M  V30 1554 H 151.225 0.944378 -0.0827957 0
M  V30 1555 H 150.931 3.50531 0.286498 0
M  V30 1556 H 150.805 3.19273 2.00859 0
M  V30 1557 H 153.192 2.20186 1.96474 0
M  V30 1558 H 153.273 2.54752 0.231314 0
M  V30 1559 H 152.917 5.02603 0.731622 0
M  V30 1560 H 152.847 4.64995 2.47158 0
M  V30 1561 H 155.338 3.50724 1.40715 0
M  V30 1562 H 155.651 7.38158 2.28785 0
M  V30 1563 H 153.996 6.63639 2.06416 0
M  V30 1564 H 157.187 4.37505 1.66454 0
M  V30 1565 H 157.36 6.1417 2.06637 0
M  V30 1566 N 150.766 -0.704594 1.40972 0
M  V30 1567 C 151.698 -1.82974 1.38033 0
M  V30 1568 C 152.711 -1.60305 0.283931 0
M  V30 1569 O 153.9 -1.69975 0.545042 0
M  V30 1570 C 151 -3.19578 1.12795 0
M  V30 1571 C 150.173 -3.69352 2.34302 0
M  V30 1572 C 149.232 -4.84601 2.05058 0
M  V30 1573 O 148.258 -4.96682 2.7802 0
M  V30 1574 N 149.46 -5.71194 1.03528 0
M  V30 1575 H 152.225 -1.85991 2.35005 0
M  V30 1576 H 149.786 -0.886567 1.35468 0
M  V30 1577 H 151.778 -3.9429 0.911987 0
M  V30 1578 H 150.348 -3.11642 0.24452 0
M  V30 1579 H 149.568 -2.85649 2.71659 0
M  V30 1580 H 150.856 -3.99345 3.1528 0
M  V30 1581 H 150.254 -5.64054 0.431217 0
M  V30 1582 H 148.811 -6.45843 0.879205 0
M  V30 1583 N 152.244 -1.26651 -0.937939 0
M  V30 1584 C 153.492 -1.12165 -1.68118 0
M  V30 1585 C 153.813 0.334983 -1.92101 0
M  V30 1586 O 153.083 1.23583 -1.52 0
M  V30 1587 H 151.663 -0.412093 -0.623048 0
M  V30 1588 H 154.325 -1.59027 -1.12678 0
M  V30 1589 H 153.421 -1.64289 -2.6536 0
M  V30 1590 N 153.722 1.14298 -1.08507 0
M  V30 1591 C 154.672 2.17449 -0.685569 0
M  V30 1592 C 155.656 1.58167 0.295315 0
M  V30 1593 O 156.848 1.76675 0.107172 0
M  V30 1594 C 153.977 3.43161 -0.0975318 0
M  V30 1595 C 153.063 4.09471 -1.10426 0
M  V30 1596 N 153.454 4.51089 -2.28806 0
M  V30 1597 C 151.752 4.35976 -0.940258 0
M  V30 1598 C 152.453 5.02654 -2.9277 0
M  V30 1599 N 151.429 4.96927 -2.20374 0
M  V30 1600 H 155.231 2.47369 -1.587 0
M  V30 1601 H 152.745 1.30992 -0.959936 0
M  V30 1602 H 154.742 4.16388 0.20664 0
M  V30 1603 H 153.402 3.14719 0.798872 0
M  V30 1604 H 154.413 4.44097 -2.66455 0
M  V30 1605 H 151.09 4.17386 -0.0977441 0
M  V30 1606 H 152.48 5.44723 -3.93352 0
M  V30 1607 N 155.201 0.870884 1.31352 0
M  V30 1608 C 156.149 0.316445 2.30437 0
M  V30 1609 C 157.143 -0.568965 1.59559 0
M  V30 1610 O 158.349 -0.454964 1.74155 0
M  V30 1611 H 154.724 0.0836521 0.747333 0
M  V30 1612 H 156.695 1.16606 2.74673 0
M  V30 1613 C 155.444 -0.46635 3.44558 0
M  V30 1614 H 154.767 0.205687 3.99271 0
M  V30 1615 H 156.207 -0.819614 4.16003 0
M  V30 1616 C 154.666 -1.65797 2.9328 0
M  V30 1617 O 155.196 -2.75728 2.92125 0
M  V30 1618 N 153.402 -1.49041 2.4947 0
M  V30 1619 H 152.949 -0.59612 2.50608 0
M  V30 1620 H 152.907 -2.28911 2.15516 0
M  V30 1621 N 156.679 -1.44442 0.630414 0
M  V30 1622 C 157.904 -2.06927 0.139944 0
M  V30 1623 C 158.329 -1.46795 -1.17613 0
M  V30 1624 O 157.687 -0.569144 -1.72135 0
M  V30 1625 C 157.735 -3.6058 0.0379581 0
M  V30 1626 O 156.839 -3.99937 -1.0062 0
M  V30 1627 H 156.18 -0.658608 0.0844483 0
M  V30 1628 H 158.71 -1.85327 0.866891 0
M  V30 1629 H 158.72 -4.07714 -0.152856 0
M  V30 1630 H 157.395 -4.03728 0.998809 0
M  V30 1631 H 155.972 -3.64436 -0.79001 0
M  V30 1632 N 158.157 -0.370918 -1.53173 0
M  V30 1633 C 159.403 0.217423 -2.01631 0
M  V30 1634 C 159.736 1.47983 -1.25756 0
M  V30 1635 O 159.011 1.91274 -0.352764 0
M  V30 1636 C 159.294 0.503982 -3.56556 0
M  V30 1637 C 159.147 -0.77243 -4.43118 0
M  V30 1638 C 160.466 1.30234 -4.20389 0
M  V30 1639 H 157.585 0.0775486 -0.732909 0
M  V30 1640 H 160.227 -0.496863 -1.83388 0
M  V30 1641 H 158.377 1.11248 -3.72231 0
M  V30 1642 H 160.049 -1.4098 -4.39229 0
M  V30 1643 H 158.292 -1.39167 -4.10871 0
M  V30 1644 H 158.963 -0.526815 -5.4948 0
M  V30 1645 H 161.439 0.787546 -4.08579 0
M  V30 1646 H 160.315 1.47158 -5.28806 0
M  V30 1647 H 160.576 2.31237 -3.76805 0
M  V30 1648 N 159.635 1.57281 -0.100228 0
M  V30 1649 C 160.882 1.94537 0.562268 0
M  V30 1650 C 161.21 0.982315 1.67871 0
M  V30 1651 O 160.465 0.00280936 1.957 0
M  V30 1652 C 160.764 3.38305 1.15259 0
M  V30 1653 C 160.43 4.50618 0.159409 0
M  V30 1654 C 159.092 4.81066 -0.113741 0
M  V30 1655 C 161.444 5.18615 -0.518461 0
M  V30 1656 C 158.772 5.76835 -1.07137 0
M  V30 1657 C 161.124 6.15412 -1.46459 0
M  V30 1658 C 159.788 6.44262 -1.74592 0
M  V30 1659 H 159.058 0.711863 0.205748 0
M  V30 1660 H 161.705 1.90679 -0.17715 0
M  V30 1661 H 160.01 3.38766 1.96836 0
M  V30 1662 H 161.707 3.64435 1.67297 0
M  V30 1663 H 158.297 4.2689 0.382491 0
M  V30 1664 H 162.481 4.95264 -0.320581 0
M  V30 1665 H 157.737 5.975 -1.29628 0
M  V30 1666 H 161.911 6.67194 -1.99564 0
M  V30 1667 H 159.538 7.1828 -2.48953 0
M  V30 1668 N 161.113 -0.173488 1.56642 0
M  V30 1669 C 162.043 -1.2171 1.99271 0
M  V30 1670 C 163.024 -1.46289 0.867959 0
M  V30 1671 O 164.209 -1.5766 1.13388 0
M  V30 1672 C 161.339 -2.55651 2.35074 0
M  V30 1673 C 160.293 -2.45645 3.50489 0
M  V30 1674 C 159.619 -3.84056 3.72028 0
M  V30 1675 C 160.919 -1.96302 4.84007 0
M  V30 1676 H 162.613 -0.86275 2.867 0
M  V30 1677 H 160.159 -0.413571 1.37933 0
M  V30 1678 H 162.112 -3.2886 2.63494 0
M  V30 1679 H 160.836 -2.92869 1.44552 0
M  V30 1680 H 159.495 -1.7489 3.22194 0
M  V30 1681 H 159.143 -4.18664 2.788 0
M  V30 1682 H 158.843 -3.7823 4.49684 0
M  V30 1683 H 160.367 -4.58854 4.02846 0
M  V30 1684 H 161.781 -2.59284 5.11317 0
M  V30 1685 H 160.178 -2.01429 5.65284 0
M  V30 1686 H 161.248 -0.917226 4.76146 0
M  V30 1687 N 162.591 -1.51276 -0.441967 0
M  V30 1688 C 163.84 -1.6295 -1.18871 0
M  V30 1689 C 164.153 -0.349312 -1.92456 0
M  V30 1690 O 165.359 -0.345355 -2.69295 0
M  V30 1691 C 163.815 -2.87759 -2.16155 0
M  V30 1692 C 163.423 -4.22764 -1.48239 0
M  V30 1693 C 165.167 -3.08788 -2.91291 0
M  V30 1694 C 163.074 -5.38728 -2.4398 0
M  V30 1695 H 162.004 -0.606913 -0.447406 0
M  V30 1696 H 164.655 -1.77739 -0.456205 0
M  V30 1697 H 163.037 -2.66593 -2.92821 0
M  V30 1698 H 164.211 -4.54293 -0.771635 0
M  V30 1699 H 162.526 -4.07575 -0.852741 0
M  V30 1700 H 165.123 -3.92599 -3.63002 0
M  V30 1701 H 165.466 -2.21679 -3.5237 0
M  V30 1702 H 165.999 -3.30272 -2.21733 0
M  V30 1703 H 162.738 -6.28082 -1.87598 0
M  V30 1704 H 162.258 -5.1158 -3.13123 0
M  V30 1705 H 163.937 -5.70489 -3.05207 0
M  V30 1706 N 164.069 0.697108 -1.41344 0
M  V30 1707 C 165.016 1.81106 -1.43071 0
M  V30 1708 C 165.986 1.63632 -0.285275 0
M  V30 1709 O 167.171 1.84504 -0.486091 0
M  V30 1710 C 164.311 3.18975 -1.31715 0
M  V30 1711 C 163.424 3.47892 -2.56115 0
M  V30 1712 C 162.559 4.75367 -2.37064 0
M  V30 1713 C 161.598 4.97247 -3.56948 0
M  V30 1714 N 160.735 6.15947 -3.36977 0
M  V30 1715 H 165.575 1.78965 -2.38276 0
M  V30 1716 H 163.112 0.873975 -1.18322 0
M  V30 1717 H 165.07 3.98615 -1.23133 0
M  V30 1718 H 163.7 3.20297 -0.401183 0
M  V30 1719 H 162.752 2.62669 -2.75153 0
M  V30 1720 H 164.064 3.59962 -3.45295 0
M  V30 1721 H 163.218 5.63059 -2.25941 0
M  V30 1722 H 161.957 4.65541 -1.45338 0
M  V30 1723 H 160.962 4.08004 -3.68527 0
M  V30 1724 H 162.187 5.08934 -4.49626 0
M  V30 1725 H 160.133 6.07336 -2.47949 0
M  V30 1726 H 160.05 6.28777 -4.19732 0
M  V30 1727 H 161.318 7.06377 -3.29623 0
M  V30 1728 N 165.547 1.27147 0.931209 0
M  V30 1729 C 166.795 1.13055 1.6752 0
M  V30 1730 C 167.116 -0.324791 1.92276 0
M  V30 1731 O 166.386 -1.22775 1.52654 0
M  V30 1732 H 164.966 0.415391 0.620854 0
M  V30 1733 H 167.628 1.59623 1.11833 0
M  V30 1734 H 166.724 1.65694 2.64485 0
M  V30 1735 N 167.025 -1.13721 1.09112 0
M  V30 1736 C 168.302 -1.81155 0.737706 0
M  V30 1737 C 168.682 -1.96253 -0.777683 0
M  V30 1738 O 168.03 -1.52807 -1.69889 0
M  V30 1739 C 168.24 -3.16392 1.47299 0
M  V30 1740 C 169.588 -3.91787 1.63671 0
M  V30 1741 O 170.612 -3.26005 1.43524 0
M  V30 1742 O 169.471 -5.0977 1.96969 0
M  V30 1743 H 166.565 -0.783518 0.26463 0
M  V30 1744 H 169.111 -1.20676 1.19312 0
M  V30 1745 H 167.883 -3.0061 2.50498 0
M  V30 1746 H 167.506 -3.8457 1.00953 0
M  V30 1747 N 168.503 -0.877838 -1.30888 0
M  V30 1748 C 169.45 -0.337538 -2.28318 0
M  V30 1749 C 170.42 0.568346 -1.56074 0
M  V30 1750 O 171.605 0.498298 -1.84178 0
M  V30 1751 C 168.745 0.448142 -3.42178 0
M  V30 1752 C 167.858 -0.48615 -4.29256 0
M  V30 1753 C 166.993 0.314427 -5.30269 0
M  V30 1754 C 166.032 -0.615791 -6.08995 0
M  V30 1755 N 165.169 0.14902 -7.01942 0
M  V30 1756 H 170.009 -1.17356 -2.73919 0
M  V30 1757 H 167.546 -0.590094 -1.34745 0
M  V30 1758 H 169.504 0.919517 -4.06941 0
M  V30 1759 H 168.134 1.24879 -2.97666 0
M  V30 1760 H 167.186 -1.076 -3.64865 0
M  V30 1761 H 168.498 -1.19909 -4.84173 0
M  V30 1762 H 167.652 0.847969 -6.00745 0
M  V30 1763 H 166.391 1.06062 -4.76027 0
M  V30 1764 H 165.396 -1.16102 -5.37401 0
M  V30 1765 H 166.621 -1.36097 -6.65323 0
M  V30 1766 H 164.567 0.877884 -6.50099 0
M  V30 1767 H 164.484 -0.504433 -7.54315 0
M  V30 1768 H 165.752 0.663537 -7.76671 0
M  V30 1769 N 169.982 1.44106 -0.638065 0
M  V30 1770 C 171.228 2.02277 -0.145546 0
M  V30 1771 C 171.561 1.50125 1.23191 0
M  V30 1772 O 170.836 0.688133 1.8192 0
M  V30 1773 C 171.119 3.59829 -0.139791 0
M  V30 1774 C 170.972 4.22247 -1.55008 0
M  V30 1775 C 172.291 4.36873 0.531966 0
M  V30 1776 H 169.41 0.734992 -0.0543632 0
M  V30 1777 H 172.052 1.71592 -0.815863 0
M  V30 1778 H 170.202 3.86102 0.431007 0
M  V30 1779 H 171.874 4.07057 -2.1703 0
M  V30 1780 H 170.117 3.79476 -2.10191 0
M  V30 1781 H 170.788 5.31284 -1.49804 0
M  V30 1782 H 173.264 4.16074 0.0464781 0
M  V30 1783 H 172.14 5.4657 0.505206 0
M  V30 1784 H 172.401 4.11995 1.60352 0
M  V30 1785 N 171.46 0.379036 1.52974 0
M  V30 1786 C 172.706 -0.199244 2.02422 0
M  V30 1787 C 173.061 -1.4532 1.26095 0
M  V30 1788 O 172.354 -1.88377 0.34996 0
M  V30 1789 C 172.548 -0.53096 3.53434 0
M  V30 1790 C 172.377 0.689298 4.44386 0
M  V30 1791 C 171.147 1.20546 4.9071 0
M  V30 1792 C 173.345 1.55856 4.90116 0
M  V30 1793 N 171.327 2.38434 5.65705 0
M  V30 1794 C 172.698 2.58396 5.63588 0
M  V30 1795 C 174.753 1.57986 4.7217 0
M  V30 1796 C 173.456 3.62939 6.21022 0
M  V30 1797 C 175.482 2.6143 5.30479 0
M  V30 1798 C 174.844 3.62693 6.03849 0
M  V30 1799 H 170.943 -0.0352671 0.781204 0
M  V30 1800 H 173.527 0.526614 1.87443 0
M  V30 1801 H 171.698 -1.22588 3.68547 0
M  V30 1802 H 173.43 -1.0955 3.89591 0
M  V30 1803 H 170.185 0.768022 4.67331 0
M  V30 1804 H 170.609 2.98055 6.07859 0
M  V30 1805 H 175.251 0.810475 4.14959 0
M  V30 1806 H 172.969 4.40751 6.77321 0
M  V30 1807 H 176.555 2.63949 5.18481 0
M  V30 1808 H 175.435 4.41424 6.48163 0
M  V30 1809 N 172.938 -1.57226 0.108567 0
M  V30 1810 C 174.184 -1.95121 -0.552761 0
M  V30 1811 C 174.517 -0.991345 -1.66991 0
M  V30 1812 O 173.792 -0.0267211 -1.94482 0
M  V30 1813 C 174.075 -3.43039 -1.09528 0
M  V30 1814 C 173.928 -4.49797 0.0177332 0
M  V30 1815 C 175.247 -3.92567 -1.98945 0
M  V30 1816 H 172.366 -0.709496 -0.199461 0
M  V30 1817 H 175.008 -1.89126 0.182011 0
M  V30 1818 H 173.158 -3.48279 -1.72146 0
M  V30 1819 H 174.83 -4.56661 0.652584 0
M  V30 1820 H 173.073 -4.284 0.682309 0
M  V30 1821 H 173.744 -5.50528 -0.402919 0
M  V30 1822 H 176.22 -3.89565 -1.46214 0
M  V30 1823 H 175.096 -4.96605 -2.33827 0
M  V30 1824 H 175.357 -3.32648 -2.91201 0
M  V30 1825 N 174.416 0.165178 -1.56732 0
M  V30 1826 C 175.646 0.894919 -1.86212 0
M  V30 1827 C 176.054 1.76066 -0.692627 0
M  V30 1828 O 175.397 1.80387 0.347303 0
M  V30 1829 C 175.459 1.8174 -3.10179 0
M  V30 1830 C 175.123 1.13064 -4.42793 0
M  V30 1831 C 176.12 0.493169 -5.17556 0
M  V30 1832 C 173.805 1.12556 -4.89527 0
M  V30 1833 C 175.799 -0.140209 -6.37246 0
M  V30 1834 C 173.486 0.488366 -6.09145 0
M  V30 1835 C 174.484 -0.143411 -6.82849 0
M  V30 1836 O 174.172 -0.77055 -8.00199 0
M  V30 1837 H 173.904 0.265114 -0.621844 0
M  V30 1838 H 176.458 0.168242 -2.0471 0
M  V30 1839 H 174.688 2.58455 -2.87642 0
M  V30 1840 H 176.377 2.4175 -3.26055 0
M  V30 1841 H 177.143 0.489023 -4.82528 0
M  V30 1842 H 173.022 1.60672 -4.32094 0
M  V30 1843 H 176.566 -0.633932 -6.94714 0
M  V30 1844 H 172.463 0.490116 -6.43637 0
M  V30 1845 H 173.231 -0.670408 -8.1575 0
M  V30 1846 N 175.894 1.51508 0.433938 0
M  V30 1847 C 177.305 1.56784 1.01369 0
M  V30 1848 C 177.656 0.393349 1.92217 0
M  V30 1849 O 176.781 -0.489441 2.10792 0
M  V30 1850 C 177.376 2.84144 1.8452 0
M  V30 1851 C 175.935 2.9198 2.37539 0
M  V30 1852 C 175.082 2.51482 1.16843 0
M  V30 1853 H 178.033 1.57236 0.215081 0
M  V30 1854 H 178.054 2.68098 2.70007 0
M  V30 1855 H 177.566 3.69607 1.18373 0
M  V30 1856 H 175.667 2.10955 3.0713 0
M  V30 1857 H 175.78 3.95704 2.70103 0
M  V30 1858 H 174.144 2.04758 1.51481 0
M  V30 1859 H 174.927 3.39293 0.523015 0
M  V30 1860 N 177.372 -0.689602 1.41712 0
M  V30 1861 C 178.783 -1.26973 1.36875 0
M  V30 1862 C 179.134 -1.96124 0.054748 0
M  V30 1863 O 178.259 -1.99141 -0.84687 0
M  V30 1864 C 178.854 -2.30912 2.47922 0
M  V30 1865 C 177.413 -2.84486 2.46464 0
M  V30 1866 C 176.56 -1.58603 2.27465 0
M  V30 1867 H 179.511 -0.48396 1.51141 0
M  V30 1868 H 179.532 -3.12331 2.17323 0
M  V30 1869 H 179.044 -1.80554 3.43543 0
M  V30 1870 H 177.145 -3.39005 1.54617 0
M  V30 1871 H 177.258 -3.34511 3.42986 0
M  V30 1872 H 175.622 -1.84632 1.75451 0
M  V30 1873 H 176.405 -1.10233 3.25121 0
M  V30 1874 N 178.85 -1.27639 -0.924453 0
M  V30 1875 C 179.76 -1.12466 -2.05885 0
M  V30 1876 C 180.776 -0.053869 -1.73917 0
M  V30 1877 O 181.952 -0.261012 -1.99702 0
M  V30 1878 C 179.017 -0.776768 -3.37886 0
M  V30 1879 C 178.078 -1.92878 -3.83532 0
M  V30 1880 C 177.311 -1.59739 -5.09234 0
M  V30 1881 O 177.534 -0.506782 -5.68144 0
M  V30 1882 O 176.468 -2.43761 -5.50331 0
M  V30 1883 H 180.294 -2.07671 -2.21599 0
M  V30 1884 H 177.879 -1.06857 -1.04413 0
M  V30 1885 H 179.761 -0.596229 -4.17161 0
M  V30 1886 H 178.436 0.145732 -3.23372 0
M  V30 1887 H 177.343 -2.1644 -3.0513 0
M  V30 1888 H 178.676 -2.8316 -4.02593 0
M  V30 1889 N 180.328 1.1314 -1.09713 0
M  V30 1890 C 181.275 2.18642 -0.739196 0
M  V30 1891 C 182.245 1.63706 0.280978 0
M  V30 1892 O 183.43 1.90111 0.161946 0
M  V30 1893 C 180.57 3.44685 -0.169102 0
M  V30 1894 C 179.683 4.13711 -1.24367 0
M  V30 1895 C 178.818 5.27379 -0.636019 0
M  V30 1896 C 177.857 5.88259 -1.69169 0
M  V30 1897 N 176.994 6.93352 -1.10485 0
M  V30 1898 H 181.834 2.48607 -1.64312 0
M  V30 1899 H 179.371 1.22066 -0.820875 0
M  V30 1900 H 181.329 4.16815 0.179256 0
M  V30 1901 H 179.959 3.15161 0.698079 0
M  V30 1902 H 179.011 3.39835 -1.70927 0
M  V30 1903 H 180.323 4.55037 -2.04311 0
M  V30 1904 H 179.477 6.06238 -0.236677 0
M  V30 1905 H 178.216 4.8731 0.194928 0
M  V30 1906 H 177.221 5.08092 -2.10055 0
M  V30 1907 H 178.446 6.30399 -2.52536 0
M  V30 1908 H 176.392 6.55335 -0.295234 0
M  V30 1909 H 176.309 7.33236 -1.84121 0
M  V30 1910 H 177.577 7.76057 -0.73181 0
M  V30 1911 N 181.806 0.884767 1.30421 0
M  V30 1912 C 182.753 0.349642 2.28136 0
M  V30 1913 C 183.723 -0.560061 1.56373 0
M  V30 1914 O 184.908 -0.488524 1.8444 0
M  V30 1915 C 182.048 -0.42999 3.42411 0
M  V30 1916 C 181.161 0.508907 4.28992 0
M  V30 1917 C 180.296 -0.286301 5.30428 0
M  V30 1918 C 179.335 0.648079 6.08659 0
M  V30 1919 N 178.472 -0.111792 7.02011 0
M  V30 1920 H 183.312 1.18807 2.73293 0
M  V30 1921 H 180.849 0.597231 1.3443 0
M  V30 1922 H 182.807 -0.897923 4.07423 0
M  V30 1923 H 181.437 -1.23299 2.98324 0
M  V30 1924 H 180.489 1.09533 3.64289 0
M  V30 1925 H 181.801 1.22475 4.8353 0
M  V30 1926 H 180.955 -0.816098 6.01186 0
M  V30 1927 H 179.694 -1.03536 4.76583 0
M  V30 1928 H 178.699 1.18951 5.36778 0
M  V30 1929 H 179.924 1.39623 6.64592 0
M  V30 1930 H 177.87 -0.843395 6.50556 0
M  V30 1931 H 177.787 0.544429 7.54037 0
M  V30 1932 H 179.055 -0.622339 7.77012 0
M  V30 1933 N 183.284 -1.43765 0.645699 0
M  V30 1934 C 184.194 -2.34544 -0.0512957 0
M  V30 1935 C 185.21 -1.53455 -0.82022 0
M  V30 1936 O 186.386 -1.86133 -0.769176 0
M  V30 1937 C 183.451 -3.31636 -1.01087 0
M  V30 1938 C 182.512 -4.2863 -0.239712 0
M  V30 1939 C 181.745 -5.21084 -1.15358 0
M  V30 1940 O 181.968 -5.1779 -2.39269 0
M  V30 1941 O 180.902 -5.98593 -0.630038 0
M  V30 1942 H 184.728 -2.95624 0.695718 0
M  V30 1943 H 182.313 -1.43781 0.405882 0
M  V30 1944 H 184.195 -3.9136 -1.56254 0
M  V30 1945 H 182.87 -2.73069 -1.73824 0
M  V30 1946 H 181.777 -3.72408 0.355356 0
M  V30 1947 H 183.11 -4.90157 0.447936 0
M  V30 1948 N 184.763 -0.387143 -1.52771 0
M  V30 1949 C 185.71 0.449048 -2.26389 0
M  V30 1950 C 186.68 1.05961 -1.27912 0
M  V30 1951 O 187.865 1.08804 -1.56737 0
M  V30 1952 C 185.005 1.57155 -3.0724 0
M  V30 1953 C 184.118 0.984066 -4.20643 0
M  V30 1954 C 183.253 2.07745 -4.88892 0
M  V30 1955 C 182.292 1.46574 -5.94292 0
M  V30 1956 N 181.429 2.49834 -6.56146 0
M  V30 1957 H 186.269 -0.185205 -2.97424 0
M  V30 1958 H 183.806 -0.103164 -1.46738 0
M  V30 1959 H 185.764 2.23309 -3.52405 0
M  V30 1960 H 184.394 2.17615 -2.38419 0
M  V30 1961 H 183.446 0.212193 -3.79808 0
M  V30 1962 H 184.758 0.497029 -4.96318 0
M  V30 1963 H 183.912 2.81673 -5.3735 0
M  V30 1964 H 182.651 2.59807 -4.12737 0
M  V30 1965 H 181.656 0.711696 -5.45174 0
M  V30 1966 H 182.881 0.953088 -6.72379 0
M  V30 1967 H 180.827 3.0107 -5.82832 0
M  V30 1968 H 180.744 2.05879 -7.27427 0
M  V30 1969 H 182.012 3.23399 -7.09249 0
M  V30 1970 N 186.241 1.57166 -0.116904 0
M  V30 1971 C 187.489 1.94737 0.540533 0
M  V30 1972 C 187.81 1.00096 1.67349 0
M  V30 1973 O 187.08 0.0568854 1.95817 0
M  V30 1974 H 185.66 0.718981 0.202669 0
M  V30 1975 H 188.322 1.94017 -0.185353 0
M  V30 1976 H 187.418 2.97719 0.936483 0
M  V30 1977 N 187.719 -0.156864 1.56817 0
M  V30 1978 C 188.949 -0.885031 1.86684 0
M  V30 1979 C 189.357 -1.75696 0.701954 0
M  V30 1980 O 188.7 -1.80569 -0.337732 0
M  V30 1981 C 188.762 -1.80092 3.11138 0
M  V30 1982 C 188.426 -1.10714 4.43386 0
M  V30 1983 C 189.423 -0.465714 5.1781 0
M  V30 1984 C 187.108 -1.09959 4.90117 0
M  V30 1985 C 189.102 0.174002 6.37162 0
M  V30 1986 C 186.789 -0.456055 6.09396 0
M  V30 1987 C 187.787 0.179622 6.82764 0
M  V30 1988 O 187.475 0.812975 7.99779 0
M  V30 1989 H 187.207 -0.261813 0.623242 0
M  V30 1990 H 189.761 -0.157383 2.04796 0
M  V30 1991 H 187.991 -2.56926 2.89009 0
M  V30 1992 H 189.68 -2.40018 3.27332 0
M  V30 1993 H 190.446 -0.463427 4.82781 0
M  V30 1994 H 186.325 -1.58378 4.3294 0
M  V30 1995 H 189.869 0.670765 6.94368 0
M  V30 1996 H 185.766 -0.455975 6.43888 0
M  V30 1997 H 186.534 0.71366 8.15383 0
M  V30 1998 N 189.197 -1.51736 -0.425897 0
M  V30 1999 C 190.608 -1.5732 -1.00536 0
M  V30 2000 C 190.959 -0.403537 -1.92005 0
M  V30 2001 O 190.084 0.478256 -2.11049 0
M  V30 2002 C 190.679 -2.85119 -1.8301 0
M  V30 2003 C 189.238 -2.93236 -2.35987 0
M  V30 2004 C 188.385 -2.52098 -1.15508 0
M  V30 2005 H 191.336 -1.57348 -0.206739 0
M  V30 2006 H 191.357 -2.69526 -2.68581 0
M  V30 2007 H 190.869 -3.7023 -1.16411 0
M  V30 2008 H 188.97 -2.12581 -3.06007 0
M  V30 2009 H 189.083 -3.9713 -2.68001 0
M  V30 2010 H 187.447 -2.05558 -1.50393 0
M  V30 2011 H 188.23 -3.39565 -0.505014 0
M  V30 2012 N 190.675 0.682077 -1.42076 0
M  V30 2013 C 191.622 1.79578 -1.44984 0
M  V30 2014 C 192.592 1.6332 -0.302614 0
M  V30 2015 O 193.777 1.83978 -0.505633 0
M  V30 2016 C 190.917 3.1756 -1.35091 0
M  V30 2017 C 190.03 3.45156 -2.59791 0
M  V30 2018 C 189.165 4.72826 -2.42093 0
M  V30 2019 C 188.204 4.93433 -3.62202 0
M  V30 2020 N 187.341 6.12338 -3.43491 0
M  V30 2021 H 192.181 1.76427 -2.40161 0
M  V30 2022 H 189.718 0.861376 -1.19242 0
M  V30 2023 H 191.676 3.97287 -1.27354 0
M  V30 2024 H 190.306 3.19854 -0.435133 0
M  V30 2025 H 189.358 2.59736 -2.77923 0
M  V30 2026 H 190.67 3.5628 -3.49094 0
M  V30 2027 H 189.824 5.60631 -2.319 0
M  V30 2028 H 188.563 4.63973 -1.50268 0
M  V30 2029 H 187.568 4.04073 -3.72834 0
M  V30 2030 H 188.793 5.04136 -4.54998 0
M  V30 2031 H 186.739 6.04672 -2.54377 0
M  V30 2032 H 186.656 6.2429 -4.26377 0
M  V30 2033 H 187.924 7.02841 -3.37097 0
M  V30 2034 N 192.153 1.28127 0.917671 0
M  V30 2035 C 193.083 1.14248 2.03641 0
M  V30 2036 C 194.064 0.0412748 1.7005 0
M  V30 2037 O 195.249 0.217566 1.92977 0
M  V30 2038 C 192.379 0.799431 3.37974 0
M  V30 2039 C 191.333 1.85497 3.85713 0
M  V30 2040 C 190.659 1.36565 5.16966 0
M  V30 2041 C 191.959 3.26085 4.08002 0
M  V30 2042 H 193.653 2.07835 2.15511 0
M  V30 2043 H 191.199 1.00064 1.03553 0
M  V30 2044 H 193.152 0.689114 4.15727 0
M  V30 2045 H 191.876 -0.172145 3.26146 0
M  V30 2046 H 190.535 1.95437 3.10161 0
M  V30 2047 H 190.183 0.383253 5.01538 0
M  V30 2048 H 189.883 2.07143 5.49878 0
M  V30 2049 H 191.407 1.26848 5.97279 0
M  V30 2050 H 192.821 3.19089 4.76293 0
M  V30 2051 H 191.218 3.94462 4.52238 0
M  V30 2052 H 192.288 3.70394 3.12948 0
M  V30 2053 N 193.631 -1.12557 1.10312 0
M  V30 2054 C 194.561 -2.20341 0.772798 0
M  V30 2055 C 195.542 -1.68198 -0.25365 0
M  V30 2056 O 196.727 -1.93831 -0.119699 0
M  V30 2057 C 193.857 -3.46709 0.202443 0
M  V30 2058 C 192.811 -4.11996 1.15943 0
M  V30 2059 C 192.137 -5.328 0.450345 0
M  V30 2060 C 193.437 -4.5828 2.50552 0
M  V30 2061 H 195.131 -2.48229 1.674 0
M  V30 2062 H 192.677 -1.19308 0.806326 0
M  V30 2063 H 194.63 -4.2138 -0.0407752 0
M  V30 2064 H 193.354 -3.18245 -0.734001 0
M  V30 2065 H 192.013 -3.39305 1.38808 0
M  V30 2066 H 191.661 -5.00602 -0.490531 0
M  V30 2067 H 191.361 -5.7743 1.08851 0
M  V30 2068 H 192.885 -6.10219 0.215642 0
M  V30 2069 H 194.299 -5.2433 2.31843 0
M  V30 2070 H 192.696 -5.13683 3.10242 0
M  V30 2071 H 193.766 -3.72329 3.10643 0
M  V30 2072 N 195.109 -0.891671 -1.2995 0
M  V30 2073 C 196.041 -0.320695 -2.26945 0
M  V30 2074 C 197.054 0.528497 -1.53983 0
M  V30 2075 O 198.243 0.346959 -1.75096 0
M  V30 2076 C 195.343 0.562066 -3.34207 0
M  V30 2077 C 194.516 -0.259576 -4.36629 0
M  V30 2078 C 193.575 0.554739 -5.23268 0
M  V30 2079 O 192.601 -0.0249311 -5.69195 0
M  V30 2080 N 193.803 1.8625 -5.4981 0
M  V30 2081 H 196.568 -1.15432 -2.76578 0
M  V30 2082 H 194.129 -0.755336 -1.432 0
M  V30 2083 H 196.121 1.11304 -3.89093 0
M  V30 2084 H 194.691 1.29637 -2.84452 0
M  V30 2085 H 193.911 -0.991986 -3.81514 0
M  V30 2086 H 195.199 -0.822564 -5.02107 0
M  V30 2087 H 194.597 2.35628 -5.14292 0
M  V30 2088 H 193.154 2.36078 -6.07545 0
M  V30 2089 N 196.587 1.43421 -0.653314 0
M  V30 2090 C 197.864 1.95361 -0.0966581 0
M  V30 2091 C 198.244 1.59461 1.38331 0
M  V30 2092 O 197.592 0.879777 2.10884 0
M  V30 2093 C 197.802 3.47311 -0.342988 0
M  V30 2094 C 199.15 4.23875 -0.24798 0
M  V30 2095 O 200.174 3.55133 -0.275553 0
M  V30 2096 O 199.033 5.4623 -0.171771 0
M  V30 2097 H 196.127 0.826945 0.00956291 0
M  V30 2098 H 198.673 1.5336 -0.726558 0
M  V30 2099 H 197.445 3.66569 -1.36906 0
M  V30 2100 H 197.068 3.9631 0.319975 0
M  V30 2101 N 198.065 0.39524 1.52563 0
M  V30 2102 C 198.975 -0.444232 2.30356 0
M  V30 2103 C 199.991 -1.06615 1.37511 0
M  V30 2104 O 201.167 -1.07067 1.70583 0
M  V30 2105 C 198.232 -1.55315 3.09964 0
M  V30 2106 C 197.293 -0.955734 4.18526 0
M  V30 2107 C 196.526 -2.01181 4.9433 0
M  V30 2108 O 196.749 -3.22781 4.70285 0
M  V30 2109 O 195.683 -1.62579 5.79527 0
M  V30 2110 H 199.509 0.189667 3.03107 0
M  V30 2111 H 197.094 0.1588 1.48554 0
M  V30 2112 H 198.976 -2.19724 3.59582 0
M  V30 2113 H 197.651 -2.17191 2.4002 0
M  V30 2114 H 196.558 -0.274743 3.7309 0
M  V30 2115 H 197.891 -0.381109 4.90722 0
M  V30 2116 N 199.544 -1.57102 0.125237 0
M  V30 2117 C 200.791 -1.95407 -0.531248 0
M  V30 2118 C 201.119 -1.0089 -1.66287 0
M  V30 2119 O 200.374 -0.0339431 -1.95671 0
M  V30 2120 C 200.673 -3.40096 -1.09862 0
M  V30 2121 C 200.339 -4.50815 -0.0876989 0
M  V30 2122 C 199.001 -4.80824 0.19026 0
M  V30 2123 C 201.353 -5.17724 0.600902 0
M  V30 2124 C 198.681 -5.75058 1.163 0
M  V30 2125 C 201.033 -6.13005 1.56231 0
M  V30 2126 C 199.697 -6.41403 1.8482 0
M  V30 2127 H 198.967 -0.715046 -0.194397 0
M  V30 2128 H 201.614 -1.90373 0.207463 0
M  V30 2129 H 199.919 -3.41855 -1.91422 0
M  V30 2130 H 201.616 -3.6705 -1.61478 0
M  V30 2131 H 198.206 -4.27444 -0.314528 0
M  V30 2132 H 202.39 -4.94691 0.399333 0
M  V30 2133 H 197.646 -5.95362 1.39117 0
M  V30 2134 H 201.82 -6.63934 2.10153 0
M  V30 2135 H 199.447 -7.14229 2.60349 0
M  V30 2136 N 201.022 0.148545 -1.56898 0
M  V30 2137 C 202.433 0.708766 -1.72723 0
M  V30 2138 C 202.784 1.81734 -0.739395 0
M  V30 2139 O 201.909 2.16194 0.0943169 0
M  V30 2140 C 202.504 1.29245 -3.13179 0
M  V30 2141 C 201.063 1.79925 -3.30611 0
M  V30 2142 C 200.21 0.687111 -2.68652 0
M  V30 2143 H 203.161 -0.0771063 -1.58513 0
M  V30 2144 H 203.182 2.16224 -3.13093 0
M  V30 2145 H 202.694 0.485382 -3.85053 0
M  V30 2146 H 200.795 2.63203 -2.63732 0
M  V30 2147 H 200.908 1.92903 -4.38549 0
M  V30 2148 H 199.272 1.11335 -2.29078 0
M  V30 2149 H 200.055 -0.108483 -3.43129 0
M  V30 2150 N 202.5 1.5196 0.417844 0
M  V30 2151 C 203.748 1.65263 1.16329 0
M  V30 2152 C 204.069 0.380634 1.91249 0
M  V30 2153 O 203.339 -0.604214 1.86349 0
M  V30 2154 H 201.919 0.60912 0.432414 0
M  V30 2155 H 204.581 1.88969 0.477162 0
M  V30 2156 H 203.677 2.4896 1.88217 0
M  V30 2157 N 203.978 -0.674533 1.42435 0
M  V30 2158 C 205.227 -1.43034 1.42212 0
M  V30 2159 C 205.54 -1.95555 0.0420788 0
M  V30 2160 O 206.746 -2.71374 -0.0827558 0
M  V30 2161 C 205.202 -2.58748 2.50155 0
M  V30 2162 C 204.81 -2.12925 3.94166 0
M  V30 2163 C 206.554 -3.36257 2.59098 0
M  V30 2164 C 204.461 -3.25723 4.93618 0
M  V30 2165 H 203.391 -0.537345 0.528939 0
M  V30 2166 H 206.042 -0.73024 1.68344 0
M  V30 2167 H 204.424 -3.31128 2.17188 0
M  V30 2168 H 205.598 -1.47697 4.36488 0
M  V30 2169 H 203.913 -1.48354 3.89076 0
M  V30 2170 H 206.51 -4.20264 3.30578 0
M  V30 2171 H 206.853 -3.82866 1.63461 0
M  V30 2172 H 207.386 -2.70947 2.9126 0
M  V30 2173 H 204.125 -2.84105 5.90732 0
M  V30 2174 H 203.645 -3.89732 4.55926 0
M  V30 2175 H 205.324 -3.91186 5.15347 0
M  V30 2176 N 205.456 -1.28612 -0.910864 0
M  V30 2177 C 206.867 -1.14406 -1.47541 0
M  V30 2178 C 207.218 0.264901 -1.94403 0
M  V30 2179 O 206.343 1.15942 -1.82719 0
M  V30 2180 C 206.938 -2.07073 -2.68153 0
M  V30 2181 C 205.497 -1.96923 -3.20778 0
M  V30 2182 C 204.644 -1.98646 -1.93481 0
M  V30 2183 H 207.595 -1.41259 -0.723291 0
M  V30 2184 H 207.616 -1.63642 -3.43514 0
M  V30 2185 H 207.128 -3.09611 -2.34015 0
M  V30 2186 H 205.229 -0.97433 -3.59635 0
M  V30 2187 H 205.342 -2.84026 -3.85832 0
M  V30 2188 H 203.706 -1.43093 -2.10705 0
M  V30 2189 H 204.489 -3.02868 -1.61634 0
M  V30 2190 N 206.934 1.1197 -1.10907 0
M  V30 2191 C 208.159 1.87942 -0.877064 0
M  V30 2192 C 208.584 1.79341 0.567314 0
M  V30 2193 O 207.942 1.15184 1.40009 0
M  V30 2194 C 207.99 3.34926 -1.33629 0
M  V30 2195 O 207.094 4.09303 -0.504447 0
M  V30 2196 H 206.435 0.583785 -0.316371 0
M  V30 2197 H 208.965 1.4157 -1.47712 0
M  V30 2198 H 208.975 3.8577 -1.32837 0
M  V30 2199 H 207.65 3.40504 -2.3881 0
M  V30 2200 H 206.227 3.68393 -0.577993 0
M  V30 2201 N 208.412 0.89855 1.29475 0
M  V30 2202 C 209.823 0.572537 1.77705 0
M  V30 2203 C 210.174 -0.911778 1.73727 0
M  V30 2204 O 209.299 -1.71288 1.32247 0
M  V30 2205 C 209.894 1.03252 3.22683 0
M  V30 2206 C 208.453 0.757687 3.68695 0
M  V30 2207 C 207.6 1.20787 2.49612 0
M  V30 2208 H 210.551 1.08139 1.16153 0
M  V30 2209 H 210.572 0.367307 3.78723 0
M  V30 2210 H 210.084 2.11285 3.25546 0
M  V30 2211 H 208.185 -0.310079 3.71308 0
M  V30 2212 H 208.298 1.35476 4.59547 0
M  V30 2213 H 206.662 0.626888 2.46865 0
M  V30 2214 H 207.445 2.29622 2.55203 0
M  V30 2215 N 209.89 -1.43072 0.660911 0
M  V30 2216 C 210.82 -2.33497 -0.0122829 0
M  V30 2217 C 211.801 -1.49903 -0.803925 0
M  V30 2218 O 212.986 -1.78546 -0.763864 0
M  V30 2219 C 210.116 -3.33363 -0.973994 0
M  V30 2220 C 209.07 -4.27003 -0.291928 0
M  V30 2221 C 208.396 -5.16967 -1.36562 0
M  V30 2222 C 209.696 -5.15816 0.820462 0
M  V30 2223 H 211.39 -2.90038 0.742873 0
M  V30 2224 H 208.936 -1.39461 0.358688 0
M  V30 2225 H 210.889 -3.95524 -1.45392 0
M  V30 2226 H 209.613 -2.75095 -1.7604 0
M  V30 2227 H 208.272 -3.66217 0.167623 0
M  V30 2228 H 207.92 -4.55034 -2.14366 0
M  V30 2229 H 207.62 -5.80441 -0.914454 0
M  V30 2230 H 209.144 -5.82003 -1.84675 0
M  V30 2231 H 210.558 -5.71742 0.422366 0
M  V30 2232 H 208.955 -5.8805 1.19656 0
M  V30 2233 H 210.025 -4.55045 1.67518 0
M  V30 2234 N 211.368 -0.403325 -1.52352 0
M  V30 2235 C 212.645 0.232611 -1.94212 0
M  V30 2236 C 213.025 1.63133 -1.33981 0
M  V30 2237 O 212.373 2.22659 -0.513344 0
M  V30 2238 C 212.583 0.244811 -3.4814 0
M  V30 2239 C 213.931 0.46698 -4.22024 0
M  V30 2240 O 214.955 0.324419 -3.5472 0
M  V30 2241 O 213.814 0.74747 -5.41364 0
M  V30 2242 H 210.908 0.148223 -0.813609 0
M  V30 2243 H 213.454 -0.458848 -1.63379 0
M  V30 2244 H 212.226 -0.734378 -3.84347 0
M  V30 2245 H 211.849 0.980611 -3.85318 0
M  V30 2246 N 212.846 1.57033 -0.133567 0
M  V30 2247 C 213.809 2.14897 0.796995 0
M  V30 2248 C 214.809 1.0874 1.18458 0
M  V30 2249 O 215.999 1.34446 1.1077 0
M  V30 2250 C 213.131 2.70112 2.07973 0
M  V30 2251 H 214.324 2.98457 0.293873 0
M  V30 2252 H 211.877 1.55871 0.115787 0
M  V30 2253 H 212.612 1.9018 2.62682 0
M  V30 2254 H 212.397 3.47764 1.81115 0
M  V30 2255 H 213.887 3.14738 2.74462 0
M  V30 2256 N 214.325 -0.140222 1.56975 0
M  V30 2257 C 215.288 -1.15689 1.97861 0
M  V30 2258 C 216.288 -1.3549 0.865974 0
M  V30 2259 O 217.478 -1.32367 1.13246 0
M  V30 2260 C 214.61 -2.51582 2.30042 0
M  V30 2261 H 215.803 -0.805971 2.88867 0
M  V30 2262 H 213.356 -0.383801 1.51515 0
M  V30 2263 H 214.091 -2.91632 1.41849 0
M  V30 2264 H 213.876 -2.38569 3.11171 0
M  V30 2265 H 215.366 -3.24792 2.62488 0
M  V30 2266 N 215.803 -1.52179 -0.40978 0
M  V30 2267 C 217.049 -1.66453 -1.15851 0
M  V30 2268 C 217.382 -0.392972 -1.90182 0
M  V30 2269 O 216.657 0.608579 -1.84734 0
M  V30 2270 C 216.94 -2.88612 -2.15349 0
M  V30 2271 C 216.793 -4.25815 -1.44918 0
M  V30 2272 C 218.112 -3.06294 -3.16026 0
M  V30 2273 H 215.231 -0.60575 -0.419805 0
M  V30 2274 H 217.873 -1.84732 -0.444314 0
M  V30 2275 H 216.023 -2.73158 -2.76255 0
M  V30 2276 H 217.695 -4.52995 -0.871365 0
M  V30 2277 H 215.938 -4.27247 -0.751159 0
M  V30 2278 H 216.609 -5.07337 -2.17516 0
M  V30 2279 H 219.085 -3.20641 -2.65195 0
M  V30 2280 H 217.961 -3.93283 -3.8291 0
M  V30 2281 H 218.222 -2.19579 -3.83715 0
M  V30 2282 N 217.281 0.66697 -1.42791 0
M  V30 2283 C 218.191 1.80962 -1.49299 0
M  V30 2284 C 219.207 1.69775 -0.381108 0
M  V30 2285 O 220.383 1.91188 -0.633188 0
M  V30 2286 C 217.448 3.17156 -1.40045 0
M  V30 2287 C 216.509 3.40242 -2.6179 0
M  V30 2288 C 215.742 4.69939 -2.52969 0
M  V30 2289 O 215.965 5.48372 -1.56985 0
M  V30 2290 O 214.899 4.94441 -3.43237 0
M  V30 2291 H 218.725 1.78427 -2.45759 0
M  V30 2292 H 216.31 0.823713 -1.24641 0
M  V30 2293 H 218.192 3.98413 -1.37276 0
M  V30 2294 H 216.867 3.20312 -0.467138 0
M  V30 2295 H 215.774 2.58802 -2.70134 0
M  V30 2296 H 217.107 3.41923 -3.54047 0
M  V30 2297 N 218.759 1.29093 0.90403 0
M  V30 2298 C 219.999 1.18076 1.66845 0
M  V30 2299 C 220.363 -0.26436 1.90171 0
M  V30 2300 O 221.564 -0.497423 2.64157 0
M  V30 2301 C 219.835 1.96722 2.98388 0
M  V30 2302 S 221.394 2.0219 3.89441 0
M  V30 2303 H 218.212 0.421104 0.572881 0
M  V30 2304 H 220.814 1.63322 1.07453 0
M  V30 2305 H 219.518 3.00866 2.7912 0
M  V30 2306 H 219.049 1.52064 3.62823 0
M  V30 2307 H 221.064 1.13545 4.83034 0
M  V30 2308 N 220.237 -1.11381 1.11499 0
M  V30 2309 C 221.187 -2.15555 0.74298 0
M  V30 2310 C 222.171 -1.58894 -0.253276 0
M  V30 2311 O 223.363 -1.76897 -0.0602918 0
M  V30 2312 C 220.492 -3.42782 0.188481 0
M  V30 2313 C 219.578 -4.064 1.21244 0
M  V30 2314 N 219.969 -4.44864 2.40685 0
M  V30 2315 C 218.267 -4.3333 1.05552 0
M  V30 2316 C 218.968 -4.94715 3.05994 0
M  V30 2317 N 217.944 -4.90909 2.33472 0
M  V30 2318 H 221.746 -2.43074 1.65203 0
M  V30 2319 H 219.26 -1.28401 0.994329 0
M  V30 2320 H 221.257 -4.16789 -0.0961693 0
M  V30 2321 H 219.917 -3.16727 -0.715149 0
M  V30 2322 H 220.928 -4.36876 2.78136 0
M  V30 2323 H 217.605 -4.1698 0.208372 0
M  V30 2324 H 218.995 -5.34103 4.07656 0
M  V30 2325 N 221.715 -0.905404 -1.28997 0
M  V30 2326 C 223.131 -0.60233 -1.47798 0
M  V30 2327 C 223.331 0.854645 -1.82478 0
M  V30 2328 O 222.387 1.63439 -1.92468 0
M  V30 2329 C 223.7 -1.53306 -2.58685 0
M  V30 2330 C 225.248 -1.53887 -2.72558 0
M  V30 2331 C 225.723 -2.45602 -3.86579 0
M  V30 2332 N 227.214 -2.43681 -3.93921 0
M  V30 2333 C 227.949 -3.11347 -4.81509 0
M  V30 2334 N 227.445 -3.88313 -5.73746 0
M  V30 2335 N 229.238 -3.00476 -4.75048 0
M  V30 2336 H 221.389 -1.84765 -1.04764 0
M  V30 2337 H 223.652 -0.792025 -0.520961 0
M  V30 2338 H 223.358 -2.57141 -2.39941 0
M  V30 2339 H 223.232 -1.25787 -3.55609 0
M  V30 2340 H 225.619 -0.507941 -2.90696 0
M  V30 2341 H 225.7 -1.85447 -1.76191 0
M  V30 2342 H 225.344 -3.48792 -3.69197 0
M  V30 2343 H 225.274 -2.11349 -4.82327 0
M  V30 2344 H 227.765 -1.87767 -3.27951 0
M  V30 2345 H 228.078 -4.36985 -6.37389 0
M  V30 2346 H 226.423 -3.92419 -5.73614 0
M  V30 2347 H 229.614 -2.39858 -4.01977 0
M  V30 2348 H 229.787 -3.53485 -5.43095 0
M  V30 2349 N 223.193 1.4272 -0.668489 0
M  V30 2350 C 224.441 2.01226 -0.187769 0
M  V30 2351 C 224.762 1.53092 1.2078 0
M  V30 2352 O 224.032 0.74993 1.80977 0
M  V30 2353 H 222.612 0.744041 -0.0664272 0
M  V30 2354 H 225.274 1.74723 -0.863583 0
M  V30 2355 H 224.37 3.11556 -0.184166 0
M  V30 2356 N 224.671 0.411399 1.52136 0
M  V30 2357 C 225.581 -0.419774 2.30814 0
M  V30 2358 C 226.597 -1.0515 1.38634 0
M  V30 2359 O 227.773 -1.05252 1.71709 0
M  V30 2360 C 224.838 -1.52019 3.11594 0
M  V30 2361 C 223.899 -0.91129 4.19516 0
M  V30 2362 C 223.132 -1.95927 4.96436 0
M  V30 2363 O 223.355 -3.17775 4.73683 0
M  V30 2364 O 222.289 -1.56423 5.81219 0
M  V30 2365 H 226.115 0.221805 3.02889 0
M  V30 2366 H 223.7 0.174547 1.48377 0
M  V30 2367 H 225.582 -2.15898 3.61892 0
M  V30 2368 H 224.257 -2.14633 2.42311 0
M  V30 2369 H 223.164 -0.235157 3.7336 0
M  V30 2370 H 224.497 -0.32904 4.91099 0
M  V30 2371 N 226.149 -1.5696 0.141893 0
M  V30 2372 C 227.389 -1.9785 -0.513304 0
M  V30 2373 C 227.753 -1.02467 -1.62371 0
M  V30 2374 O 228.954 -1.32382 -2.33941 0
M  V30 2375 C 227.225 -3.42797 -1.01118 0
M  V30 2376 S 228.784 -4.05709 -1.67169 0
M  V30 2377 H 225.602 -0.691318 -0.166135 0
M  V30 2378 H 228.204 -1.94114 0.232398 0
M  V30 2379 H 226.908 -4.0995 -0.192179 0
M  V30 2380 H 226.439 -3.50235 -1.79162 0
M  V30 2381 H 228.454 -3.98342 -2.95868 0
M  V30 2382 N 227.627 0.131896 -1.57047 0
M  V30 2383 C 228.559 1.1878 -1.9602 0
M  V30 2384 C 229.572 1.38363 -0.857875 0
M  V30 2385 O 230.761 1.37666 -1.13623 0
M  V30 2386 C 227.861 2.55008 -2.23213 0
M  V30 2387 C 227.034 2.56201 -3.54513 0
M  V30 2388 C 226.093 3.7408 -3.70069 0
M  V30 2389 O 225.119 3.58258 -4.42312 0
M  V30 2390 N 226.321 4.92137 -3.07866 0
M  V30 2391 H 229.086 0.85639 -2.87204 0
M  V30 2392 H 226.647 0.321309 -1.5868 0
M  V30 2393 H 228.639 3.32404 -2.30846 0
M  V30 2394 H 227.209 2.80382 -1.3822 0
M  V30 2395 H 226.429 1.64613 -3.58185 0
M  V30 2396 H 227.717 2.54043 -4.4084 0
M  V30 2397 H 227.115 5.07895 -2.49116 0
M  V30 2398 H 225.672 5.67254 -3.21039 0
M  V30 2399 N 229.106 1.52395 0.401703 0
M  V30 2400 C 230.069 1.75636 1.47257 0
M  V30 2401 C 231.069 0.62628 1.48103 0
M  V30 2402 O 232.259 0.894227 1.49497 0
M  V30 2403 C 229.391 1.84553 2.86624 0
M  V30 2404 H 230.584 2.71241 1.27938 0
M  V30 2405 H 228.137 1.42923 0.632662 0
M  V30 2406 H 228.872 0.908882 3.11303 0
M  V30 2407 H 228.657 2.66715 2.87412 0
M  V30 2408 H 230.147 2.04251 3.64241 0
M  V30 2409 N 230.584 -0.659388 1.43143 0
M  V30 2410 C 231.494 -1.80167 1.50256 0
M  V30 2411 C 232.51 -1.69571 0.390106 0
M  V30 2412 O 233.686 -1.90849 0.643319 0
M  V30 2413 C 230.751 -3.16409 1.41725 0
M  V30 2414 C 229.812 -3.38848 2.63591 0
M  V30 2415 C 229.045 -4.68591 2.55458 0
M  V30 2416 O 229.268 -5.47532 1.59891 0
M  V30 2417 O 228.202 -4.92614 3.45854 0
M  V30 2418 H 232.028 -1.77121 2.46702 0
M  V30 2419 H 229.613 -0.817092 1.25076 0
M  V30 2420 H 231.495 -3.9768 1.39387 0
M  V30 2421 H 230.17 -3.20059 0.484118 0
M  V30 2422 H 229.077 -2.57366 2.71502 0
M  V30 2423 H 230.41 -3.4004 3.55856 0
M  V30 2424 N 232.062 -1.29571 -0.897171 0
M  V30 2425 C 233.31 -1.17456 -1.64464 0
M  V30 2426 C 233.631 0.273698 -1.9307 0
M  V30 2427 O 232.901 1.18684 -1.55855 0
M  V30 2428 H 231.481 -0.431706 -0.609622 0
M  V30 2429 H 234.143 -1.62531 -1.07562 0
M  V30 2430 H 233.239 -1.72648 -2.59998 0
M  V30 2431 N 233.54 1.10788 -1.12088 0
M  V30 2432 C 234.786 1.82942 -0.875226 0
M  V30 2433 C 235.119 1.84779 0.597538 0
M  V30 2434 O 234.394 1.30578 1.44152 0
M  V30 2435 C 234.677 3.29789 -1.44606 0
M  V30 2436 C 234.53 3.36307 -2.98693 0
M  V30 2437 C 235.849 4.26064 -1.10261 0
M  V30 2438 H 232.968 0.664195 -0.319397 0
M  V30 2439 H 235.61 1.29867 -1.38689 0
M  V30 2440 H 233.76 3.75118 -1.01089 0
M  V30 2441 H 235.432 2.99487 -3.50864 0
M  V30 2442 H 233.675 2.76318 -3.34411 0
M  V30 2443 H 234.346 4.39694 -3.33726 0
M  V30 2444 H 236.822 3.88951 -1.4784 0
M  V30 2445 H 235.698 5.27183 -1.52869 0
M  V30 2446 H 235.959 4.42098 -0.0142953 0
M  V30 2447 N 235.018 0.912232 1.28515 0
M  V30 2448 C 235.948 0.416403 2.29757 0
M  V30 2449 C 236.929 -0.515194 1.6211 0
M  V30 2450 O 238.114 -0.423253 1.89532 0
M  V30 2451 C 235.244 -0.34572 3.45575 0
M  V30 2452 C 234.198 0.496599 4.25109 0
M  V30 2453 C 233.524 -0.393771 5.33248 0
M  V30 2454 C 234.824 1.75307 4.92001 0
M  V30 2455 H 236.518 1.26249 2.7148 0
M  V30 2456 H 234.064 0.608515 1.30511 0
M  V30 2457 H 236.017 -0.703422 4.15488 0
M  V30 2458 H 234.741 -1.2257 3.02728 0
M  V30 2459 H 233.4 0.8368 3.56922 0
M  V30 2460 H 233.048 -1.27225 4.86644 0
M  V30 2461 H 232.748 0.166209 5.87365 0
M  V30 2462 H 234.272 -0.747389 6.06009 0
M  V30 2463 H 235.686 1.46437 5.54283 0
M  V30 2464 H 234.083 2.25534 5.56106 0
M  V30 2465 H 235.153 2.48176 4.16577 0
M  V30 2466 N 236.496 -1.42363 0.676048 0
M  V30 2467 C 237.743 -2.01522 0.19883 0
M  V30 2468 C 238.071 -1.53456 -1.19505 0
M  V30 2469 O 237.326 -0.727967 -1.81657 0
M  V30 2470 C 237.625 -3.56929 0.183431 0
M  V30 2471 C 237.291 -4.24431 1.52215 0
M  V30 2472 C 235.953 -4.42585 1.8887 0
M  V30 2473 C 238.305 -4.62459 2.40377 0
M  V30 2474 C 235.633 -4.96039 3.13309 0
M  V30 2475 C 237.985 -5.17294 3.64129 0
M  V30 2476 C 236.649 -5.33661 4.00951 0
M  V30 2477 H 235.919 -0.737419 0.0727571 0
M  V30 2478 H 238.566 -1.70531 0.871281 0
M  V30 2479 H 236.871 -3.87594 -0.572532 0
M  V30 2480 H 238.568 -4.00486 -0.203035 0
M  V30 2481 H 235.158 -4.10661 1.22701 0
M  V30 2482 H 239.342 -4.48105 2.13343 0
M  V30 2483 H 234.598 -5.06896 3.41857 0
M  V30 2484 H 238.772 -5.45704 4.32644 0
M  V30 2485 H 236.399 -5.74845 4.9745 0
M  V30 2486 N 237.974 -0.419461 -1.51915 0
M  V30 2487 C 239.221 0.152939 -2.01922 0
M  V30 2488 C 239.549 1.4426 -1.30458 0
M  V30 2489 O 238.804 1.91514 -0.402593 0
M  V30 2490 C 239.103 0.437067 -3.54717 0
M  V30 2491 C 238.769 -0.764632 -4.44369 0
M  V30 2492 C 237.431 -1.09423 -4.68594 0
M  V30 2493 C 239.783 -1.56713 -4.97082 0
M  V30 2494 C 237.111 -2.22732 -5.42777 0
M  V30 2495 C 239.463 -2.69107 -5.72507 0
M  V30 2496 C 238.127 -3.02541 -5.95 0
M  V30 2497 H 237.397 0.0559644 -0.738884 0
M  V30 2498 H 240.044 -0.562998 -1.83037 0
M  V30 2499 H 238.349 1.23469 -3.71837 0
M  V30 2500 H 240.046 0.893083 -3.90928 0
M  V30 2501 H 236.636 -0.497775 -4.257 0
M  V30 2502 H 240.82 -1.32571 -4.78266 0
M  V30 2503 H 236.076 -2.48971 -5.58411 0
M  V30 2504 H 240.25 -3.31671 -6.12346 0
M  V30 2505 H 237.877 -3.90457 -6.52264 0
M  V30 2506 N 239.452 1.56882 -0.150215 0
M  V30 2507 C 240.384 2.14057 0.819286 0
M  V30 2508 C 241.397 1.09082 1.20851 0
M  V30 2509 O 242.586 1.36347 1.15203 0
M  V30 2510 C 239.686 2.65102 2.11127 0
M  V30 2511 C 238.859 3.94511 1.88891 0
M  V30 2512 C 237.918 4.30834 3.02107 0
M  V30 2513 O 236.944 4.99099 2.73659 0
M  V30 2514 N 238.146 3.90676 4.29363 0
M  V30 2515 H 240.911 2.97871 0.330618 0
M  V30 2516 H 238.472 1.61866 0.0332538 0
M  V30 2517 H 240.464 2.86411 2.85921 0
M  V30 2518 H 239.034 1.85994 2.51247 0
M  V30 2519 H 238.254 3.81795 0.981152 0
M  V30 2520 H 239.542 4.7907 1.71376 0
M  V30 2521 H 238.94 3.35677 4.55343 0
M  V30 2522 H 237.497 4.1703 5.00928 0
M  V30 2523 N 240.93 -0.123565 1.57115 0
M  V30 2524 C 242.178 -0.83051 1.84247 0
M  V30 2525 C 242.499 -1.80629 0.73471 0
M  V30 2526 O 241.769 -1.94403 -0.241688 0
M  V30 2527 H 240.349 -0.309694 0.679778 0
M  V30 2528 H 243.011 -0.111976 1.94578 0
M  V30 2529 H 242.107 -1.37852 2.80006 0
M  V30 2530 N 242.408 -1.52605 -0.393616 0
M  V30 2531 C 243.685 -1.58001 -1.15304 0
M  V30 2532 C 244.065 -0.370385 -2.07825 0
M  V30 2533 O 243.413 0.641638 -2.19306 0
M  V30 2534 C 243.623 -2.91652 -1.91677 0
M  V30 2535 C 244.971 -3.4522 -2.47201 0
M  V30 2536 O 245.995 -2.93495 -2.01839 0
M  V30 2537 O 244.854 -4.35579 -3.3005 0
M  V30 2538 H 241.948 -0.637068 -0.527327 0
M  V30 2539 H 244.494 -1.64939 -0.399141 0
M  V30 2540 H 243.266 -3.71136 -1.23992 0
M  V30 2541 H 242.889 -2.88077 -2.74039 0
M  V30 2542 N 243.887 0.651787 -1.4349 0
M  V30 2543 C 245.303 0.96762 -1.26922 0
M  V30 2544 C 245.503 2.00602 -0.189982 0
M  V30 2545 O 244.559 2.48793 0.431107 0
M  V30 2546 C 245.872 1.45052 -2.63401 0
M  V30 2547 C 247.42 1.5671 -2.70945 0
M  V30 2548 C 247.895 2.0839 -4.07845 0
M  V30 2549 N 249.386 2.1569 -4.09917 0
M  V30 2550 C 250.121 2.56804 -5.12679 0
M  V30 2551 N 249.617 2.97203 -6.25813 0
M  V30 2552 N 251.41 2.56756 -5.00033 0
M  V30 2553 H 243.561 -0.0353158 -2.12371 0
M  V30 2554 H 245.824 0.0467858 -0.946845 0
M  V30 2555 H 245.53 0.761926 -3.43348 0
M  V30 2556 H 245.404 2.42529 -2.88894 0
M  V30 2557 H 247.791 2.2467 -1.9133 0
M  V30 2558 H 247.872 0.57662 -2.49216 0
M  V30 2559 H 247.516 1.41031 -4.87927 0
M  V30 2560 H 247.446 3.08271 -4.26938 0
M  V30 2561 H 249.937 1.87237 -3.28254 0
M  V30 2562 H 250.25 3.27328 -7.00055 0
M  V30 2563 H 248.595 2.95004 -6.29283 0
M  V30 2564 H 251.786 2.24572 -4.10713 0
M  V30 2565 H 251.959 2.88475 -5.80247 0
M  V30 2566 N 245.365 1.30045 0.890287 0
M  V30 2567 C 246.275 1.17885 2.02831 0
M  V30 2568 C 247.291 0.0999609 1.73713 0
M  V30 2569 O 248.467 0.313867 1.98939 0
M  V30 2570 C 245.532 0.866079 3.35708 0
M  V30 2571 C 244.593 2.02979 3.78283 0
M  V30 2572 C 243.826 1.73184 5.0482 0
M  V30 2573 O 244.049 0.657237 5.66601 0
M  V30 2574 O 242.983 2.58267 5.43674 0
M  V30 2575 H 246.809 2.13474 2.16015 0
M  V30 2576 H 244.394 1.09587 1.01543 0
M  V30 2577 H 246.276 0.706623 4.15433 0
M  V30 2578 H 244.951 -0.0599443 3.23644 0
M  V30 2579 H 243.858 2.24454 2.99285 0
M  V30 2580 H 245.191 2.93734 3.94944 0
M  V30 2581 N 246.843 -1.10192 1.12674 0
M  V30 2582 C 248.089 -1.82658 0.894847 0
M  V30 2583 C 248.444 -1.83666 -0.573107 0
M  V30 2584 O 247.737 -1.28816 -1.41835 0
M  V30 2585 C 247.931 -3.28552 1.4067 0
M  V30 2586 C 247.76 -3.41756 2.92289 0
M  V30 2587 C 246.53 -3.54021 3.60551 0
M  V30 2588 C 248.728 -3.34949 3.90274 0
M  V30 2589 N 246.71 -3.55827 5.0026 0
M  V30 2590 C 248.081 -3.43531 5.16127 0
M  V30 2591 C 250.136 -3.18565 3.8265 0
M  V30 2592 C 248.839 -3.37416 6.3525 0
M  V30 2593 C 250.865 -3.13772 5.01299 0
M  V30 2594 C 250.227 -3.22938 6.26012 0
M  V30 2595 H 246.326 -0.683044 0.380756 0
M  V30 2596 H 248.91 -1.31752 1.43351 0
M  V30 2597 H 247.081 -3.77946 0.895055 0
M  V30 2598 H 248.813 -3.88991 1.11661 0
M  V30 2599 H 245.568 -3.57135 3.1105 0
M  V30 2600 H 245.992 -3.60335 5.73138 0
M  V30 2601 H 250.634 -3.10354 2.87124 0
M  V30 2602 H 248.352 -3.44391 7.3104 0
M  V30 2603 H 251.938 -3.02242 4.97133 0
M  V30 2604 H 250.818 -3.19235 7.16281 0
M  V30 2605 N 248.321 -0.919034 -1.28029 0
M  V30 2606 C 249.568 -0.554934 -1.94748 0
M  V30 2607 C 249.896 0.90231 -1.72304 0
M  V30 2608 O 249.151 1.65767 -1.04018 0
M  V30 2609 C 249.45 -0.816855 -3.4794 0
M  V30 2610 C 249.116 -2.25448 -3.90492 0
M  V30 2611 C 247.778 -2.64752 -4.01821 0
M  V30 2612 C 250.13 -3.18977 -4.12193 0
M  V30 2613 C 247.458 -3.96727 -4.32232 0
M  V30 2614 C 249.81 -4.50523 -4.44086 0
M  V30 2615 C 248.474 -4.89673 -4.53626 0
M  V30 2616 H 247.744 -0.203065 -0.712633 0
M  V30 2617 H 250.391 -1.16136 -1.52265 0
M  V30 2618 H 248.696 -0.127677 -3.91592 0
M  V30 2619 H 250.393 -0.514238 -3.97689 0
M  V30 2620 H 246.983 -1.93952 -3.82205 0
M  V30 2621 H 251.167 -2.89817 -4.02889 0
M  V30 2622 H 246.423 -4.26754 -4.37825 0
M  V30 2623 H 250.597 -5.23005 -4.59825 0
M  V30 2624 H 248.224 -5.91969 -4.76946 0
M  V30 2625 N 249.799 1.42003 -0.683588 0
M  V30 2626 C 251.045 2.02223 -0.218536 0
M  V30 2627 C 251.4 1.53126 1.16492 0
M  V30 2628 O 250.693 0.727459 1.77253 0
M  V30 2629 C 250.887 3.56827 -0.202357 0
M  V30 2630 C 250.716 4.20928 -1.5827 0
M  V30 2631 C 249.486 4.5573 -2.18262 0
M  V30 2632 C 251.684 4.47933 -2.52706 0
M  V30 2633 N 249.666 5.05056 -3.48986 0
M  V30 2634 C 251.037 4.98906 -3.68094 0
M  V30 2635 C 253.092 4.29931 -2.51125 0
M  V30 2636 C 251.795 5.33768 -4.82166 0
M  V30 2637 C 253.821 4.65875 -3.643 0
M  V30 2638 C 253.183 5.17008 -4.78417 0
M  V30 2639 H 249.282 0.771931 -0.125088 0
M  V30 2640 H 251.866 1.72729 -0.898479 0
M  V30 2641 H 250.037 3.85819 0.447029 0
M  V30 2642 H 251.769 4.03755 0.276399 0
M  V30 2643 H 248.524 4.41781 -1.70665 0
M  V30 2644 H 248.948 5.34139 -4.15962 0
M  V30 2645 H 253.59 3.89647 -1.6412 0
M  V30 2646 H 251.308 5.72981 -5.6984 0
M  V30 2647 H 254.894 4.53615 -3.64314 0
M  V30 2648 H 253.774 5.44301 -5.64541 0
M  V30 2649 N 251.277 0.427512 1.51691 0
M  V30 2650 C 252.554 -0.201684 1.94557 0
M  V30 2651 C 252.934 -1.60981 1.36559 0
M  V30 2652 O 252.282 -2.21814 0.548702 0
M  V30 2653 C 252.492 -0.189394 3.48486 0
M  V30 2654 C 253.84 -0.39978 4.22714 0
M  V30 2655 O 254.864 -0.267945 3.55191 0
M  V30 2656 O 253.723 -0.661249 5.42485 0
M  V30 2657 H 250.817 -0.135261 0.815864 0
M  V30 2658 H 253.363 0.484782 1.62628 0
M  V30 2659 H 252.135 0.795431 3.8313 0
M  V30 2660 H 251.758 -0.919187 3.86829 0
M  V30 2661 N 252.755 -1.56801 0.158532 0
M  V30 2662 C 253.685 -2.20347 -0.772609 0
M  V30 2663 C 254.666 -1.15518 -1.24859 0
M  V30 2664 O 255.851 -1.43902 -1.30406 0
M  V30 2665 C 252.981 -2.83417 -2.00729 0
M  V30 2666 C 251.935 -3.94174 -1.66765 0
M  V30 2667 C 251.261 -4.44233 -2.97592 0
M  V30 2668 C 252.561 -5.14392 -0.905447 0
M  V30 2669 H 254.255 -2.98413 -0.242959 0
M  V30 2670 H 251.801 -1.43537 -0.115419 0
M  V30 2671 H 253.754 -3.26543 -2.6636 0
M  V30 2672 H 252.478 -2.02701 -2.56086 0
M  V30 2673 H 251.137 -3.51684 -1.03508 0
M  V30 2674 H 250.785 -3.60325 -3.50963 0
M  V30 2675 H 250.485 -5.18945 -2.75626 0
M  V30 2676 H 252.009 -4.90037 -3.64274 0
M  V30 2677 H 253.423 -5.5429 -1.46408 0
M  V30 2678 H 251.82 -5.9494 -0.7853 0
M  V30 2679 H 252.89 -4.84795 0.100668 0
M  V30 2680 N 254.233 0.115231 -1.57178 0
M  V30 2681 C 255.196 1.12526 -1.99676 0
M  V30 2682 C 256.196 1.34095 -0.88742 0
M  V30 2683 O 257.386 1.30548 -1.15337 0
M  V30 2684 C 254.518 2.4789 -2.34015 0
M  V30 2685 H 255.711 0.759912 -2.90113 0
M  V30 2686 H 253.264 0.359648 -1.52106 0
M  V30 2687 H 253.999 2.89339 -1.4647 0
M  V30 2688 H 253.784 2.33588 -3.14927 0
M  V30 2689 H 255.274 3.20575 -2.67622 0
M  V30 2690 N 255.711 1.52812 0.385517 0
M  V30 2691 C 256.939 1.71907 1.15133 0
M  V30 2692 C 257.354 0.439004 1.83625 0
M  V30 2693 O 256.711 -0.586765 1.7281 0
M  V30 2694 C 256.762 2.87099 2.19673 0
M  V30 2695 O 256.483 4.10151 1.53973 0
M  V30 2696 C 257.984 3.17902 3.08955 0
M  V30 2697 H 255.204 0.575479 0.345057 0
M  V30 2698 H 257.748 1.99476 0.45052 0
M  V30 2699 H 255.903 2.61982 2.85384 0
M  V30 2700 H 256.317 4.74514 2.23465 0
M  V30 2701 H 257.791 4.01959 3.7833 0
M  V30 2702 H 258.268 2.3243 3.72657 0
M  V30 2703 H 258.874 3.44871 2.48885 0
M  V30 2704 N 257.189 -0.644168 1.43834 0
M  V30 2705 C 258.437 -1.40117 1.45642 0
M  V30 2706 C 258.758 -1.94814 0.0852413 0
M  V30 2707 O 258.028 -1.74988 -0.880688 0
M  V30 2708 H 256.608 -0.52005 0.536243 0
M  V30 2709 H 259.27 -0.7591 1.7951 0
M  V30 2710 H 258.366 -2.23902 2.17427 0
M  V30 2711 N 258.668 -1.30515 -0.883378 0
M  V30 2712 C 259.896 -1.22359 -1.66841 0
M  V30 2713 C 260.311 0.213296 -1.87591 0
M  V30 2714 O 259.668 1.14075 -1.42454 0
M  V30 2715 C 259.719 -1.95011 -3.04389 0
M  V30 2716 O 259.44 -3.3309 -2.84575 0
M  V30 2717 C 260.941 -1.93532 -3.98824 0
M  V30 2718 H 258.161 -0.423371 -0.520575 0
M  V30 2719 H 260.705 -1.72167 -1.10357 0
M  V30 2720 H 258.86 -1.48997 -3.57601 0
M  V30 2721 H 259.274 -3.69907 -3.71846 0
M  V30 2722 H 260.748 -2.48902 -4.92699 0
M  V30 2723 H 261.225 -0.914627 -4.29571 0
M  V30 2724 H 261.831 -2.39364 -3.51547 0
M  V30 2725 N 260.146 1.09593 -1.13257 0
M  V30 2726 C 261.079 2.15451 -0.752061 0
M  V30 2727 C 262.057 1.60493 0.260913 0
M  V30 2728 O 263.241 1.8788 0.152819 0
M  V30 2729 C 260.368 3.38506 -0.114594 0
M  V30 2730 C 259.414 4.12183 -1.09579 0
M  V30 2731 S 260.247 4.6661 -2.62745 0
M  V30 2732 C 261.403 5.92966 -2.00354 0
M  V30 2733 H 261.636 2.47395 -1.64872 0
M  V30 2734 H 259.169 1.21515 -0.952545 0
M  V30 2735 H 261.127 4.09757 0.246808 0
M  V30 2736 H 259.788 3.04784 0.759309 0
M  V30 2737 H 258.981 5.00445 -0.597545 0
M  V30 2738 H 258.583 3.46785 -1.40057 0
M  V30 2739 H 260.875 6.63882 -1.35156 0
M  V30 2740 H 261.818 6.47467 -2.86691 0
M  V30 2741 H 262.226 5.45405 -1.4558 0
M  V30 2742 N 261.624 0.925811 1.2754 0
M  V30 2743 C 262.571 0.422045 2.26908 0
M  V30 2744 C 263.541 -0.510029 1.58076 0
M  V30 2745 O 264.726 -0.429599 1.85901 0
M  V30 2746 C 261.866 -0.320837 3.43605 0
M  V30 2747 C 260.979 0.64513 4.27156 0
M  V30 2748 C 260.114 -0.117405 5.3107 0
M  V30 2749 C 259.153 0.841391 6.0629 0
M  V30 2750 N 258.29 0.111604 7.02011 0
M  V30 2751 H 263.13 1.27441 2.69375 0
M  V30 2752 H 260.667 0.639697 1.32462 0
M  V30 2753 H 262.625 -0.76785 4.10073 0
M  V30 2754 H 261.255 -1.13745 3.02096 0
M  V30 2755 H 260.307 1.21067 3.6062 0
M  V30 2756 H 261.619 1.37797 4.79389 0
M  V30 2757 H 260.773 -0.624422 6.03478 0
M  V30 2758 H 259.512 -0.883219 4.79636 0
M  V30 2759 H 258.517 1.35967 5.32722 0
M  V30 2760 H 259.742 1.60696 6.59813 0
M  V30 2761 H 257.688 -0.635999 6.5291 0
M  V30 2762 H 257.605 0.784044 7.51923 0
M  V30 2763 H 258.873 -0.374823 7.78598 0
M  V30 2764 N 263.102 -1.41638 0.69111 0
M  V30 2765 C 264.012 -2.34588 0.0233487 0
M  V30 2766 C 265.028 -1.55987 -0.770984 0
M  V30 2767 O 266.204 -1.88486 -0.709569 0
M  V30 2768 C 263.269 -3.34684 -0.904851 0
M  V30 2769 C 262.33 -4.29176 -0.103225 0
M  V30 2770 C 261.563 -5.2449 -0.987216 0
M  V30 2771 O 261.786 -5.2514 -2.22674 0
M  V30 2772 O 260.72 -6.00295 -0.439281 0
M  V30 2773 H 264.546 -2.93261 0.789416 0
M  V30 2774 H 262.131 -1.42417 0.45142 0
M  V30 2775 H 264.013 -3.96133 -1.43724 0
M  V30 2776 H 262.688 -2.78461 -1.65049 0
M  V30 2777 H 261.595 -3.71089 0.473655 0
M  V30 2778 H 262.928 -4.88484 0.60365 0
M  V30 2779 N 264.58 -0.43555 -1.51462 0
M  V30 2780 C 265.996 -0.0877501 -1.59359 0
M  V30 2781 C 266.196 1.4027 -1.4466 0
M  V30 2782 O 265.252 2.17243 -1.28693 0
M  V30 2783 C 266.565 -0.606264 -2.94525 0
M  V30 2784 C 268.113 -0.566548 -3.0783 0
M  V30 2785 C 268.588 -1.06201 -4.45517 0
M  V30 2786 N 270.079 -1.01992 -4.51832 0
M  V30 2787 C 270.814 -1.37417 -5.5669 0
M  V30 2788 N 270.31 -1.80119 -6.68976 0
M  V30 2789 N 272.103 -1.29245 -5.47039 0
M  V30 2790 H 264.254 -1.40533 -1.59261 0
M  V30 2791 H 266.517 -0.578992 -0.750648 0
M  V30 2792 H 266.223 -1.64901 -3.10645 0
M  V30 2793 H 266.097 -0.0302097 -3.77188 0
M  V30 2794 H 268.484 0.467208 -2.91378 0
M  V30 2795 H 268.565 -1.17898 -2.2701 0
M  V30 2796 H 268.209 -2.09422 -4.62715 0
M  V30 2797 H 268.139 -0.426127 -5.24873 0
M  V30 2798 H 270.63 -0.706308 -3.71241 0
M  V30 2799 H 270.943 -2.05392 -7.45006 0
M  V30 2800 H 269.288 -1.84044 -6.70189 0
M  V30 2801 H 272.479 -0.957522 -4.58202 0
M  V30 2802 H 272.652 -1.57182 -6.28648 0
M  V30 2803 N 266.058 1.56714 -0.166846 0
M  V30 2804 C 267.283 2.01557 0.488833 0
M  V30 2805 C 267.708 1.0463 1.56314 0
M  V30 2806 O 267.066 0.0251304 1.81283 0
M  V30 2807 C 267.114 3.4503 1.04818 0
M  V30 2808 O 266.218 3.51163 2.16236 0
M  V30 2809 H 265.559 0.653516 0.117526 0
M  V30 2810 H 268.089 2.02818 -0.269421 0
M  V30 2811 H 268.099 3.84243 1.37191 0
M  V30 2812 H 266.774 4.15077 0.261572 0
M  V30 2813 H 265.351 3.23807 1.84942 0
M  V30 2814 N 267.536 -0.106894 1.57237 0
M  V30 2815 C 268.782 -0.808678 1.86633 0
M  V30 2816 C 269.137 -1.76917 0.756178 0
M  V30 2817 O 268.43 -1.90055 -0.242834 0
M  V30 2818 C 268.624 -1.58628 3.20268 0
M  V30 2819 C 268.453 -0.702592 4.44178 0
M  V30 2820 C 267.223 -0.352808 5.04067 0
M  V30 2821 C 269.421 -0.0148031 5.14298 0
M  V30 2822 N 267.403 0.540279 6.11518 0
M  V30 2823 C 268.774 0.736809 6.15606 0
M  V30 2824 C 270.829 0.0603524 4.97863 0
M  V30 2825 C 269.532 1.55654 7.02257 0
M  V30 2826 C 271.558 0.866942 5.85011 0
M  V30 2827 C 270.92 1.60671 6.85831 0
M  V30 2828 H 267.019 -0.27246 0.733001 0
M  V30 2829 H 269.603 -0.0717858 1.94568 0
M  V30 2830 H 267.774 -2.29413 3.13408 0
M  V30 2831 H 269.506 -2.23434 3.3743 0
M  V30 2832 H 266.261 -0.697802 4.68431 0
M  V30 2833 H 266.685 0.979029 6.69884 0
M  V30 2834 H 271.327 -0.497236 4.19866 0
M  V30 2835 H 269.045 2.12524 7.79653 0
M  V30 2836 H 272.631 0.927612 5.74358 0
M  V30 2837 H 271.511 2.2208 7.52097 0
M  V30 2838 N 269.014 -1.53014 -0.377408 0
M  V30 2839 C 270.425 -1.60438 -0.954798 0
M  V30 2840 C 270.776 -0.464418 -1.90624 0
M  V30 2841 O 269.901 0.41087 -2.12464 0
M  V30 2842 C 270.496 -2.90797 -1.73847 0
M  V30 2843 C 269.055 -3.00595 -2.26538 0
M  V30 2844 C 268.202 -2.55645 -1.07429 0
M  V30 2845 H 271.153 -1.57926 -0.156575 0
M  V30 2846 H 271.174 -2.77935 -2.5987 0
M  V30 2847 H 270.686 -3.73746 -1.04574 0
M  V30 2848 H 268.787 -2.22208 -2.99089 0
M  V30 2849 H 268.9 -4.05456 -2.5523 0
M  V30 2850 H 267.264 -2.10239 -1.43777 0
M  V30 2851 H 268.047 -3.41 -0.396728 0
M  V30 2852 N 270.492 0.636531 -1.44174 0
M  V30 2853 C 271.455 1.73063 -1.50273 0
M  V30 2854 C 272.455 1.56113 -0.385397 0
M  V30 2855 O 273.645 1.61707 -0.64781 0
M  V30 2856 C 270.777 3.12096 -1.37145 0
M  V30 2857 H 271.97 1.69031 -2.47727 0
M  V30 2858 H 269.523 0.849706 -1.31186 0
M  V30 2859 H 270.258 3.21728 -0.407636 0
M  V30 2860 H 270.043 3.25805 -2.18159 0
M  V30 2861 H 271.533 3.91846 -1.44382 0
M  V30 2862 N 271.97 1.30982 0.876444 0
M  V30 2863 C 273.216 1.20474 1.63138 0
M  V30 2864 C 273.549 -0.238096 1.92735 0
M  V30 2865 O 272.824 -1.1692 1.55435 0
M  V30 2866 C 273.107 2.04244 2.96574 0
M  V30 2867 C 272.96 3.56793 2.73896 0
M  V30 2868 C 274.279 1.88684 3.97601 0
M  V30 2869 H 271.398 0.439001 0.591985 0
M  V30 2870 H 274.04 1.60704 1.01361 0
M  V30 2871 H 272.19 1.70063 3.493 0
M  V30 2872 H 273.862 4.01077 2.27892 0
M  V30 2873 H 272.105 3.80548 2.08245 0
M  V30 2874 H 272.776 4.10706 3.68815 0
M  V30 2875 H 275.252 2.18584 3.54062 0
M  V30 2876 H 274.128 2.4961 4.88862 0
M  V30 2877 H 274.389 0.848343 4.33884 0
M  V30 2878 N 273.449 -1.08991 1.13837 0
M  V30 2879 C 274.697 -1.80899 0.901098 0
M  V30 2880 C 275.018 -1.86356 -0.574134 0
M  V30 2881 O 274.288 -1.35235 -1.41733 0
M  V30 2882 H 272.868 -0.669966 0.330386 0
M  V30 2883 H 275.53 -1.318 1.43578 0
M  V30 2884 H 274.626 -2.83929 1.29578 0
M  V30 2885 N 274.927 -0.932562 -1.27047 0
M  V30 2886 C 275.875 -0.42603 -2.28665 0
M  V30 2887 C 276.869 0.49219 -1.62092 0
M  V30 2888 O 278.075 0.371355 -1.76128 0
M  V30 2889 H 274.45 -0.119213 -0.742491 0
M  V30 2890 H 276.421 -1.29579 -2.68797 0
M  V30 2891 C 275.17 0.301426 -3.46391 0
M  V30 2892 H 274.493 -0.39595 -3.97834 0
M  V30 2893 H 275.933 0.6202 -4.1944 0
M  V30 2894 C 274.392 1.51616 -3.00856 0
M  V30 2895 O 274.922 2.61476 -3.04948 0
M  V30 2896 N 273.128 1.36969 -2.56296 0
M  V30 2897 H 272.675 0.475873 -2.53166 0
M  V30 2898 H 272.633 2.18368 -2.26192 0
M  V30 2899 N 276.405 1.4127 -0.698611 0
M  V30 2900 C 277.645 2.03044 -0.235062 0
M  V30 2901 C 278.009 1.54146 1.14468 0
M  V30 2902 O 279.21 2.07867 1.70425 0
M  V30 2903 C 277.481 3.56192 -0.293651 0
M  V30 2904 S 279.04 4.38696 0.0954053 0
M  V30 2905 H 275.858 0.704697 -0.0944648 0
M  V30 2906 H 278.46 1.72656 -0.917064 0
M  V30 2907 H 277.164 3.89274 -1.29977 0
M  V30 2908 H 276.695 3.91285 0.407397 0
M  V30 2909 H 278.71 4.78257 1.3223 0
M  V30 2910 N 277.883 0.443576 1.51229 0
M  V30 2911 C 279.108 -0.121648 2.07043 0
M  V30 2912 C 279.533 -1.35156 1.30823 0
M  V30 2913 O 278.891 -1.7793 0.347934 0
M  V30 2914 C 278.939 -0.41624 3.5819 0
M  V30 2915 O 278.043 -1.50163 3.8409 0
M  V30 2916 H 277.384 0.000871367 0.663999 0
M  V30 2917 H 279.914 0.626706 1.94765 0
M  V30 2918 H 279.924 -0.664867 4.02546 0
M  V30 2919 H 278.599 0.482653 4.1309 0
M  V30 2920 H 277.176 -1.24248 3.51592 0
M  V30 2921 N 279.361 -1.56624 0.175154 0
M  V30 2922 C 280.586 -2.01813 -0.478137 0
M  V30 2923 C 281.011 -1.05457 -1.55757 0
M  V30 2924 O 280.369 -0.0347439 -1.81267 0
M  V30 2925 C 280.417 -3.45581 -1.02987 0
M  V30 2926 O 279.521 -3.52305 -2.14371 0
M  V30 2927 H 278.862 -0.65413 -0.114059 0
M  V30 2928 H 281.392 -2.02673 0.280173 0
M  V30 2929 H 281.402 -3.84965 -1.35151 0
M  V30 2930 H 280.077 -4.1521 -0.239556 0
M  V30 2931 H 278.654 -3.24783 -1.83222 0
M  V30 2932 N 280.839 0.0985539 -1.57292 0
M  V30 2933 C 281.802 1.10402 -2.00858 0
M  V30 2934 C 282.802 1.33146 -0.901593 0
M  V30 2935 O 283.992 1.29318 -1.16716 0
M  V30 2936 C 281.124 2.45394 -2.36632 0
M  V30 2937 H 282.317 0.729099 -2.90902 0
M  V30 2938 H 279.87 0.343495 -1.52479 0
M  V30 2939 H 280.605 2.87769 -1.49531 0
M  V30 2940 H 280.39 2.30235 -3.17387 0
M  V30 2941 H 281.88 3.17718 -2.71007 0
M  V30 2942 N 282.317 1.53212 0.369288 0
M  V30 2943 C 283.247 1.82365 1.45826 0
M  V30 2944 C 284.228 0.676907 1.56051 0
M  V30 2945 O 285.413 0.926401 1.70679 0
M  V30 2946 C 282.543 2.01023 2.83208 0
M  V30 2947 C 281.497 3.1678 2.8781 0
M  V30 2948 C 280.823 3.20724 4.27832 0
M  V30 2949 C 282.123 4.55447 2.55667 0
M  V30 2950 H 283.817 2.73559 1.21678 0
M  V30 2951 H 281.363 1.3163 0.583911 0
M  V30 2952 H 283.316 2.20001 3.59413 0
M  V30 2953 H 282.04 1.06536 3.08736 0
M  V30 2954 H 280.699 2.97616 2.14056 0
M  V30 2955 H 280.347 2.23882 4.50429 0
M  V30 2956 H 280.047 3.98496 4.31827 0
M  V30 2957 H 281.571 3.41881 5.05915 0
M  V30 2958 H 282.985 4.74611 3.21586 0
M  V30 2959 H 281.382 5.35432 2.70984 0
M  V30 2960 H 282.452 4.60812 1.5093 0
M  V30 2961 N 283.795 -0.628877 1.44509 0
M  V30 2962 C 285.211 -0.947305 1.28446 0
M  V30 2963 C 285.411 -2.00275 0.221872 0
M  V30 2964 O 284.467 -2.49447 -0.391471 0
M  V30 2965 C 285.78 -1.40843 2.65676 0
M  V30 2966 C 287.328 -1.52379 2.73404 0
M  V30 2967 C 287.803 -2.01875 4.11109 0
M  V30 2968 N 289.294 -2.09142 4.13296 0
M  V30 2969 C 290.029 -2.48615 5.16699 0
M  V30 2970 N 289.525 -2.87209 6.30462 0
M  V30 2971 N 291.318 -2.48768 5.04054 0
M  V30 2972 H 283.469 0.0690977 2.12288 0
M  V30 2973 H 285.732 -0.0317164 0.947469 0
M  V30 2974 H 285.438 -0.707206 3.44516 0
M  V30 2975 H 285.312 -2.37902 2.92716 0
M  V30 2976 H 287.699 -2.21598 1.9488 0
M  V30 2977 H 287.78 -0.536898 2.50102 0
M  V30 2978 H 287.424 -1.3325 4.90109 0
M  V30 2979 H 287.354 -3.0144 4.31789 0
M  V30 2980 H 289.845 -1.81991 3.31191 0
M  V30 2981 H 290.158 -3.16149 7.05174 0
M  V30 2982 H 288.503 -2.84955 6.33897 0
M  V30 2983 H 291.694 -2.18009 4.14234 0
M  V30 2984 H 291.867 -2.79207 5.84763 0
M  V30 2985 N 285.273 -1.31445 -0.869486 0
M  V30 2986 C 286.519 -1.22347 -1.62489 0
M  V30 2987 C 286.874 0.216204 -1.91181 0
M  V30 2988 O 286.167 1.14977 -1.53268 0
M  V30 2989 C 286.361 -2.00145 -2.96102 0
M  V30 2990 C 286.19 -3.51531 -2.80456 0
M  V30 2991 C 284.96 -4.20882 -2.79618 0
M  V30 2992 C 287.158 -4.46471 -2.5528 0
M  V30 2993 N 285.14 -5.58421 -2.55027 0
M  V30 2994 C 286.511 -5.71682 -2.39957 0
M  V30 2995 C 288.566 -4.35892 -2.40629 0
M  V30 2996 C 287.269 -6.87511 -2.11472 0
M  V30 2997 C 289.295 -5.51505 -2.13532 0
M  V30 2998 C 288.657 -6.75707 -1.98998 0
M  V30 2999 H 284.756 -0.502815 -0.598917 0
M  V30 3000 H 287.34 -1.65639 -1.02332 0
M  V30 3001 H 285.511 -1.59221 -3.54264 0
M  V30 3002 H 287.243 -1.83063 -3.60929 0
M  V30 3003 H 283.998 -3.72857 -2.92018 0
M  V30 3004 H 284.422 -6.30841 -2.45701 0
M  V30 3005 H 289.064 -3.40533 -2.50593 0
M  V30 3006 H 286.782 -7.82897 -2.00245 0
M  V30 3007 H 290.368 -5.45238 -2.02995 0
M  V30 3008 H 289.248 -7.63655 -1.78326 0
M  V30 3009 N 286.751 1.08385 -1.14413 0
M  V30 3010 C 287.681 2.17321 -0.854044 0
M  V30 3011 C 288.662 1.69024 0.191049 0
M  V30 3012 O 289.847 1.94141 0.0476779 0
M  V30 3013 C 286.977 3.45719 -0.330983 0
M  V30 3014 C 285.931 4.07409 -1.31155 0
M  V30 3015 C 285.257 5.30762 -0.64778 0
M  V30 3016 C 286.557 4.48665 -2.67388 0
M  V30 3017 H 288.251 2.41845 -1.76498 0
M  V30 3018 H 285.797 1.16233 -0.850051 0
M  V30 3019 H 287.75 4.21241 -0.115645 0
M  V30 3020 H 286.474 3.2075 0.615381 0
M  V30 3021 H 285.133 3.33919 -1.51306 0
M  V30 3022 H 284.781 5.02078 0.304398 0
M  V30 3023 H 284.481 5.72992 -1.30207 0
M  V30 3024 H 286.005 6.08998 -0.441972 0
M  V30 3025 H 287.419 5.15364 -2.51143 0
M  V30 3026 H 285.816 5.01814 -3.29093 0
M  V30 3027 H 286.886 3.60543 -3.24248 0
M  V30 3028 N 288.23 0.939286 1.26551 0
M  V30 3029 C 289.478 0.58469 1.93457 0
M  V30 3030 C 289.799 -0.878774 1.74076 0
M  V30 3031 O 289.069 -1.62421 1.09528 0
M  V30 3032 H 287.649 0.21325 0.715914 0
M  V30 3033 H 290.311 1.1942 1.54029 0
M  V30 3034 H 289.407 0.800849 3.0165 0
M  V30 3035 N 289.708 -1.40897 0.706093 0
M  V30 3036 C 291.124 -1.55042 0.37869 0
M  V30 3037 C 291.324 -1.67944 -1.11342 0
M  V30 3038 O 290.38 -1.66372 -1.89938 0
M  V30 3039 C 291.693 -2.78398 1.13643 0
M  V30 3040 C 293.241 -2.92206 1.12181 0
M  V30 3041 C 293.716 -4.18463 1.86152 0
M  V30 3042 N 295.207 -4.25443 1.83173 0
M  V30 3043 C 295.942 -5.2202 2.37239 0
M  V30 3044 N 295.438 -6.24563 2.99821 0
M  V30 3045 N 297.231 -5.14033 2.27435 0
M  V30 3046 H 289.382 -1.30769 1.67372 0
M  V30 3047 H 291.645 -0.631653 0.706907 0
M  V30 3048 H 291.351 -2.7511 2.19106 0
M  V30 3049 H 291.225 -3.70228 0.721853 0
M  V30 3050 H 293.612 -2.95004 0.0754171 0
M  V30 3051 H 293.693 -2.01521 1.57554 0
M  V30 3052 H 293.337 -4.16427 2.90776 0
M  V30 3053 H 293.267 -5.08141 1.38206 0
M  V30 3054 H 295.758 -3.51976 1.37556 0
M  V30 3055 H 296.071 -6.94665 3.38616 0
M  V30 3056 H 294.416 -6.25035 3.03902 0
M  V30 3057 H 297.607 -4.3285 1.78208 0
M  V30 3058 H 297.78 -5.89129 2.69873 0
M  V30 3059 N 291.186 -0.45159 -1.50991 0
M  V30 3060 C 292.416 0.108177 -2.06317 0
M  V30 3061 C 292.824 1.35774 -1.31765 0
M  V30 3062 O 292.167 1.79838 -0.374694 0
M  V30 3063 C 292.229 0.481659 -3.56259 0
M  V30 3064 C 291.893 -0.663114 -4.52163 0
M  V30 3065 C 292.89 -1.53947 -4.96585 0
M  V30 3066 C 290.575 -0.8479 -4.95092 0
M  V30 3067 C 292.569 -2.58518 -5.82621 0
M  V30 3068 C 290.256 -1.89686 -5.80915 0
M  V30 3069 C 291.254 -2.76388 -6.24579 0
M  V30 3070 O 290.942 -3.79482 -7.08695 0
M  V30 3071 H 290.674 0.00499183 -0.675982 0
M  V30 3072 H 293.228 -0.633659 -1.95381 0
M  V30 3073 H 291.458 1.27641 -3.65027 0
M  V30 3074 H 293.147 0.974233 -3.94035 0
M  V30 3075 H 293.913 -1.4083 -4.64103 0
M  V30 3076 H 289.792 -0.18258 -4.60638 0
M  V30 3077 H 293.336 -3.26224 -6.16623 0
M  V30 3078 H 289.233 -2.02817 -6.12809 0
M  V30 3079 H 290.001 -3.76234 -7.26905 0
M  V30 3080 N 292.664 1.56529 -0.183458 0
M  V30 3081 C 293.894 2.01331 0.463612 0
M  V30 3082 C 294.302 1.06278 1.5653 0
M  V30 3083 O 293.645 0.0577976 1.83609 0
M  V30 3084 C 293.707 3.42547 1.09096 0
M  V30 3085 C 293.371 4.56817 0.129442 0
M  V30 3086 C 294.368 5.15734 -0.656807 0
M  V30 3087 C 292.053 5.02295 0.02174 0
M  V30 3088 C 294.047 6.1857 -1.53784 0
M  V30 3089 C 291.734 6.04978 -0.862864 0
M  V30 3090 C 292.732 6.62988 -1.64123 0
M  V30 3091 O 292.42 7.63677 -2.51103 0
M  V30 3092 H 292.152 0.664917 0.121907 0
M  V30 3093 H 294.706 2.034 -0.285954 0
M  V30 3094 H 292.936 3.37428 1.88889 0
M  V30 3095 H 294.625 3.71228 1.64148 0
M  V30 3096 H 295.391 4.81473 -0.583839 0
M  V30 3097 H 291.27 4.56847 0.617392 0
M  V30 3098 H 294.814 6.63777 -2.14583 0
M  V30 3099 H 290.711 6.38663 -0.93699 0
M  V30 3100 H 291.479 7.81049 -2.44753 0
M  V30 3101 N 294.142 -0.090211 1.57342 0
M  V30 3102 C 295.382 -0.798365 1.88163 0
M  V30 3103 C 295.746 -1.75662 0.775046 0
M  V30 3104 O 296.947 -2.50849 0.965816 0
M  V30 3105 C 295.218 -1.50376 3.24225 0
M  V30 3106 S 296.777 -2.24952 3.76752 0
M  V30 3107 H 293.595 -0.265883 0.659414 0
M  V30 3108 H 296.197 -0.055264 1.95422 0
M  V30 3109 H 294.901 -0.792286 4.0268 0
M  V30 3110 H 294.432 -2.28666 3.20118 0
M  V30 3111 H 296.447 -3.51173 3.5056 0
M  V30 3112 N 295.62 -1.53406 -0.361157 0
M  V30 3113 C 296.867 -1.69802 -1.10333 0
M  V30 3114 C 297.195 -0.452087 -1.89173 0
M  V30 3115 O 296.45 0.566017 -1.87336 0
M  V30 3116 C 296.749 -2.90211 -2.08596 0
M  V30 3117 C 296.415 -4.26539 -1.46203 0
M  V30 3118 C 295.077 -4.6361 -1.28915 0
M  V30 3119 C 297.429 -5.113 -1.01101 0
M  V30 3120 C 294.757 -5.83075 -0.651157 0
M  V30 3121 C 297.109 -6.31415 -0.387007 0
M  V30 3122 C 295.773 -6.67195 -0.201657 0
M  V30 3123 H 295.043 -0.621351 -0.403737 0
M  V30 3124 H 297.69 -1.87598 -0.384609 0
M  V30 3125 H 295.995 -2.66946 -2.86788 0
M  V30 3126 H 297.692 -3.00091 -2.65982 0
M  V30 3127 H 294.282 -3.97352 -1.60653 0
M  V30 3128 H 298.466 -4.83206 -1.13249 0
M  V30 3129 H 293.722 -6.09385 -0.496006 0
M  V30 3130 H 297.896 -6.96394 -0.0293563 0
M  V30 3131 H 295.523 -7.59628 0.294766 0
M  V30 3132 N 297.098 0.621204 -1.44841 0
M  V30 3133 C 298.03 1.74615 -1.48466 0
M  V30 3134 C 299.043 1.58377 -0.37691 0
M  V30 3135 O 300.232 1.66508 -0.643215 0
M  V30 3136 C 297.332 3.12459 -1.31236 0
M  V30 3137 C 296.505 3.55064 -2.55438 0
M  V30 3138 C 295.564 4.71821 -2.32963 0
M  V30 3139 O 294.59 4.79628 -3.06505 0
M  V30 3140 N 295.792 5.64186 -1.36654 0
M  V30 3141 H 298.557 1.71973 -2.45449 0
M  V30 3142 H 296.118 0.806077 -1.40407 0
M  V30 3143 H 298.11 3.88302 -1.14032 0
M  V30 3144 H 296.68 3.09686 -0.4258 0
M  V30 3145 H 295.9 2.69324 -2.87851 0
M  V30 3146 H 297.188 3.80284 -3.38026 0
M  V30 3147 H 296.586 5.6058 -0.759344 0
M  V30 3148 H 295.143 6.39618 -1.25425 0
M  V30 3149 N 298.576 1.31904 0.862503 0
M  V30 3150 C 299.824 1.21776 1.61292 0
M  V30 3151 C 300.145 -0.222413 1.93727 0
M  V30 3152 O 299.415 -1.1451 1.58947 0
M  V30 3153 H 297.995 0.447717 0.597962 0
M  V30 3154 H 300.657 1.65326 1.03215 0
M  V30 3155 H 299.753 1.7948 2.5533 0
M  V30 3156 N 300.054 -1.07777 1.14986 0
M  V30 3157 C 301.002 -2.16964 0.838406 0
M  V30 3158 C 301.996 -1.68372 -0.186386 0
M  V30 3159 O 303.202 -1.79951 -0.0418465 0
M  V30 3160 H 299.577 -0.708006 0.253439 0
M  V30 3161 H 301.548 -2.40454 1.76704 0
M  V30 3162 C 300.297 -3.4604 0.339335 0
M  V30 3163 H 299.62 -3.83813 1.11927 0
M  V30 3164 H 301.06 -4.23698 0.160021 0
M  V30 3165 C 299.519 -3.23569 -0.938325 0
M  V30 3166 O 300.049 -3.47752 -2.01077 0
M  V30 3167 N 298.255 -2.77079 -0.876117 0
M  V30 3168 H 297.802 -2.576 -0.00322037 0
M  V30 3169 H 297.76 -2.62422 -1.73153 0
M  V30 3170 N 301.532 -0.945985 -1.26051 0
M  V30 3171 C 302.464 -0.416662 -2.25381 0
M  V30 3172 C 303.477 0.462712 -1.56086 0
M  V30 3173 O 304.666 0.272383 -1.7641 0
M  V30 3174 C 301.766 0.419812 -3.3629 0
M  V30 3175 C 300.939 -0.444531 -4.35135 0
M  V30 3176 C 299.998 0.332305 -5.2515 0
M  V30 3177 O 299.024 -0.266324 -5.68577 0
M  V30 3178 N 300.226 1.62763 -5.57215 0
M  V30 3179 H 302.991 -1.27059 -2.71433 0
M  V30 3180 H 300.552 -0.815392 -1.39868 0
M  V30 3181 H 302.544 0.947013 -3.93464 0
M  V30 3182 H 301.114 1.17456 -2.89694 0
M  V30 3183 H 300.334 -1.15291 -3.76964 0
M  V30 3184 H 301.622 -1.03478 -4.98166 0
M  V30 3185 H 301.02 2.13603 -5.23823 0
M  V30 3186 H 299.577 2.10097 -6.17011 0
M  V30 3187 N 303.011 1.40521 -0.713556 0
M  V30 3188 C 304.258 2.00923 -0.25219 0
M  V30 3189 C 304.586 1.56571 1.15395 0
M  V30 3190 O 303.841 0.775874 1.79663 0
M  V30 3191 C 304.14 3.56317 -0.278 0
M  V30 3192 C 303.806 4.20246 -1.63415 0
M  V30 3193 C 302.468 4.37422 -2.00538 0
M  V30 3194 C 304.82 4.55923 -2.52554 0
M  V30 3195 C 302.148 4.87558 -3.2635 0
M  V30 3196 C 304.5 5.07458 -3.77716 0
M  V30 3197 C 303.164 5.22843 -4.14959 0
M  V30 3198 H 302.434 0.735231 -0.0922829 0
M  V30 3199 H 305.081 1.68161 -0.916188 0
M  V30 3200 H 303.386 3.88976 0.469567 0
M  V30 3201 H 305.083 4.00883 0.0967819 0
M  V30 3202 H 301.673 4.07263 -1.33546 0
M  V30 3203 H 305.857 4.42291 -2.25149 0
M  V30 3204 H 301.113 4.97654 -3.55176 0
M  V30 3205 H 305.287 5.34041 -4.4696 0
M  V30 3206 H 302.914 5.61454 -5.12516 0
M  V30 3207 N 304.489 0.459591 1.5075 0
M  V30 3208 C 305.419 -0.330644 2.31147 0
M  V30 3209 C 306.4 -1.00087 1.37538 0
M  V30 3210 O 307.585 -1.00025 1.66459 0
M  V30 3211 C 304.715 -1.41958 3.16962 0
M  V30 3212 C 303.669 -0.871608 4.19031 0
M  V30 3213 C 302.995 -2.05797 4.9351 0
M  V30 3214 C 304.295 0.109251 5.22186 0
M  V30 3215 H 305.989 0.340336 2.97459 0
M  V30 3216 H 303.535 0.165119 1.4305 0
M  V30 3217 H 305.488 -1.9798 3.71997 0
M  V30 3218 H 304.212 -2.11917 2.48513 0
M  V30 3219 H 302.871 -0.333442 3.6508 0
M  V30 3220 H 302.519 -2.74427 4.21544 0
M  V30 3221 H 302.219 -1.6976 5.62544 0
M  V30 3222 H 303.743 -2.62331 5.51375 0
M  V30 3223 H 305.157 -0.361405 5.7216 0
M  V30 3224 H 303.554 0.383316 5.98875 0
M  V30 3225 H 304.624 1.03887 4.73641 0
M  V30 3226 N 305.967 -1.56429 0.191757 0
M  V30 3227 C 307.383 -1.58754 -0.164137 0
M  V30 3228 C 307.583 -1.20782 -1.61288 0
M  V30 3229 O 306.639 -0.928999 -2.34789 0
M  V30 3230 C 307.952 -3.00396 0.135195 0
M  V30 3231 C 309.5 -3.1291 0.0750351 0
M  V30 3232 C 309.975 -4.56679 0.347632 0
M  V30 3233 N 311.466 -4.62252 0.296131 0
M  V30 3234 C 312.201 -5.71379 0.480948 0
M  V30 3235 N 311.697 -6.88986 0.725933 0
M  V30 3236 N 313.49 -5.60563 0.415435 0
M  V30 3237 H 305.641 -1.79393 1.13718 0
M  V30 3238 H 307.904 -0.832414 0.453643 0
M  V30 3239 H 307.61 -3.32726 1.13958 0
M  V30 3240 H 307.484 -3.72963 -0.563773 0
M  V30 3241 H 309.871 -2.80394 -0.919948 0
M  V30 3242 H 309.952 -2.42736 0.807029 0
M  V30 3243 H 309.596 -4.89907 1.33992 0
M  V30 3244 H 309.526 -5.25039 -0.405212 0
M  V30 3245 H 312.017 -3.7773 0.113259 0
M  V30 3246 H 312.33 -7.68046 0.855857 0
M  V30 3247 H 310.675 -6.90801 0.762788 0
M  V30 3248 H 313.866 -4.67561 0.224486 0
M  V30 3249 H 314.039 -6.45551 0.562889 0
M  V30 3250 N 307.445 0.0818655 -1.57387 0
M  V30 3251 C 308.692 0.782914 -1.86753 0
M  V30 3252 C 309.02 1.78082 -0.782118 0
M  V30 3253 O 308.275 1.94426 0.22295 0
M  V30 3254 C 308.574 1.53513 -3.22752 0
M  V30 3255 C 308.24 0.678134 -4.45771 0
M  V30 3256 C 306.902 0.441929 -4.79166 0
M  V30 3257 C 309.254 0.0832243 -5.21134 0
M  V30 3258 C 306.582 -0.398833 -5.85343 0
M  V30 3259 C 308.934 -0.744935 -6.28199 0
M  V30 3260 C 307.598 -0.991107 -6.60101 0
M  V30 3261 H 306.868 0.286489 -0.683378 0
M  V30 3262 H 309.515 0.0439808 -1.91449 0
M  V30 3263 H 307.82 2.34599 -3.138 0
M  V30 3264 H 309.517 2.08218 -3.42705 0
M  V30 3265 H 306.107 0.872357 -4.19628 0
M  V30 3266 H 310.291 0.252847 -4.95655 0
M  V30 3267 H 305.547 -0.598405 -6.08465 0
M  V30 3268 H 309.721 -1.21271 -6.8576 0
M  V30 3269 H 307.348 -1.64437 -7.42202 0
M  V30 3270 N 308.923 1.53595 0.353017 0
M  V30 3271 C 310.2 1.61002 1.11075 0
M  V30 3272 C 310.58 0.425356 2.0677 0
M  V30 3273 O 309.928 -0.583267 2.2093 0
M  V30 3274 C 310.138 2.96631 1.83877 0
M  V30 3275 C 311.486 3.51653 2.37961 0
M  V30 3276 O 312.51 2.98743 1.93987 0
M  V30 3277 O 311.369 4.44177 3.18386 0
M  V30 3278 H 308.463 0.650825 0.510251 0
M  V30 3279 H 311.009 1.6594 0.35527 0
M  V30 3280 H 309.781 3.74293 1.14108 0
M  V30 3281 H 309.404 2.95242 2.66304 0
M  V30 3282 N 310.401 -0.613514 1.45168 0
M  V30 3283 C 311.812 -1.19539 1.43413 0
M  V30 3284 C 312.163 -1.95558 0.158632 0
M  V30 3285 O 311.288 -2.0335 -0.740119 0
M  V30 3286 C 311.883 -2.17445 2.59813 0
M  V30 3287 C 310.442 -2.71022 2.61197 0
M  V30 3288 C 309.589 -1.46323 2.35552 0
M  V30 3289 H 312.54 -0.403163 1.53494 0
M  V30 3290 H 312.561 -3.00373 2.33574 0
M  V30 3291 H 312.073 -1.62089 3.52631 0
M  V30 3292 H 310.174 -3.30332 1.7237 0
M  V30 3293 H 310.287 -3.15859 3.60236 0
M  V30 3294 H 308.651 -1.75072 1.84992 0
M  V30 3295 H 309.434 -0.92844 3.30507 0
M  V30 3296 N 311.879 -1.3236 -0.855495 0
M  V30 3297 C 313.125 -1.23054 -1.612 0
M  V30 3298 C 313.458 0.207404 -1.93089 0
M  V30 3299 O 312.733 1.14432 -1.57275 0
M  V30 3300 C 313.016 -2.08937 -2.93287 0
M  V30 3301 C 312.869 -3.61105 -2.68185 0
M  V30 3302 C 314.188 -1.94986 -3.94549 0
M  V30 3303 H 311.307 -0.448364 -0.584926 0
M  V30 3304 H 313.949 -1.62297 -0.987917 0
M  V30 3305 H 312.099 -1.75599 -3.46551 0
M  V30 3306 H 313.771 -4.04652 -2.21483 0
M  V30 3307 H 312.014 -3.83813 -2.02164 0
M  V30 3308 H 312.685 -4.16522 -3.62234 0
M  V30 3309 H 315.161 -2.24189 -3.5054 0
M  V30 3310 H 314.037 -2.57356 -4.84829 0
M  V30 3311 H 314.298 -0.917263 -4.3248 0
M  V30 3312 N 313.357 1.07166 -1.15556 0
M  V30 3313 C 314.773 1.31899 -0.898603 0
M  V30 3314 C 314.973 1.96333 0.453383 0
M  V30 3315 O 314.029 2.22438 1.19489 0
M  V30 3316 C 315.342 2.20826 -2.04099 0
M  V30 3317 C 316.89 2.34269 -2.07574 0
M  V30 3318 C 317.365 3.26546 -3.21141 0
M  V30 3319 N 318.856 3.34127 -3.20801 0
M  V30 3320 C 319.591 4.05595 -4.05315 0
M  V30 3321 N 319.087 4.79661 -4.99897 0
M  V30 3322 N 320.88 4.01555 -3.93332 0
M  V30 3323 H 313.031 0.637302 -2.02613 0
M  V30 3324 H 315.294 0.343468 -0.883591 0
M  V30 3325 H 315 1.80744 -3.01703 0
M  V30 3326 H 314.874 3.21364 -1.97496 0
M  V30 3327 H 317.261 2.73603 -1.10568 0
M  V30 3328 H 317.342 1.33429 -2.18244 0
M  V30 3329 H 316.986 2.87931 -4.184 0
M  V30 3330 H 316.916 4.27345 -3.07708 0
M  V30 3331 H 319.407 2.81336 -2.52306 0
M  V30 3332 H 319.72 5.31694 -5.60822 0
M  V30 3333 H 318.065 4.78671 -5.03884 0
M  V30 3334 H 321.256 3.42806 -3.18751 0
M  V30 3335 H 321.429 4.56987 -4.5942 0
M  V30 3336 N 314.835 0.952656 1.25548 0
M  V30 3337 C 316.083 0.605176 1.92826 0
M  V30 3338 C 316.404 -0.860261 1.74999 0
M  V30 3339 O 315.674 -1.6125 1.11244 0
M  V30 3340 H 314.254 0.220832 0.713612 0
M  V30 3341 H 316.916 1.21047 1.52754 0
M  V30 3342 H 316.012 0.832798 3.00784 0
M  V30 3343 N 316.313 -1.40141 0.720998 0
M  V30 3344 C 317.223 -2.34486 0.0731031 0
M  V30 3345 C 318.239 -1.57587 -0.737723 0
M  V30 3346 O 319.415 -1.89949 -0.669429 0
M  V30 3347 C 316.48 -3.36528 -0.833656 0
M  V30 3348 C 315.541 -4.29298 -0.0121673 0
M  V30 3349 C 314.774 -5.26466 -0.875742 0
M  V30 3350 O 314.997 -5.29745 -2.11485 0
M  V30 3351 O 313.931 -6.01092 -0.31185 0
M  V30 3352 H 317.757 -2.9152 0.851444 0
M  V30 3353 H 315.342 -1.41427 0.481527 0
M  V30 3354 H 317.224 -3.99093 -1.35289 0
M  V30 3355 H 315.899 -2.81899 -1.59105 0
M  V30 3356 H 314.806 -3.70001 0.552262 0
M  V30 3357 H 316.139 -4.87094 0.707129 0
M  V30 3358 N 317.792 -0.46758 -1.50504 0
M  V30 3359 C 319.038 0.0887532 -2.02606 0
M  V30 3360 C 319.371 1.39686 -1.34913 0
M  V30 3361 O 318.646 1.88644 -0.473694 0
M  V30 3362 C 318.929 0.276206 -3.59039 0
M  V30 3363 C 318.782 -1.05267 -4.37309 0
M  V30 3364 C 320.101 1.03235 -4.27821 0
M  V30 3365 H 317.22 0.0307814 -0.736357 0
M  V30 3366 H 319.862 -0.612485 -1.79857 0
M  V30 3367 H 318.012 0.8735 -3.78553 0
M  V30 3368 H 319.684 -1.68628 -4.29374 0
M  V30 3369 H 317.927 -1.65015 -4.01189 0
M  V30 3370 H 318.598 -0.875197 -5.45018 0
M  V30 3371 H 321.074 0.526111 -4.12761 0
M  V30 3372 H 319.95 1.1323 -5.37094 0
M  V30 3373 H 320.211 2.06806 -3.90748 0
M  V30 3374 N 319.27 1.56325 -0.20005 0
M  V30 3375 C 320.681 1.8408 0.31167 0
M  V30 3376 C 321.032 1.12087 1.61031 0
M  V30 3377 O 320.157 0.38332 2.12978 0
M  V30 3378 C 320.752 3.33932 0.57226 0
M  V30 3379 C 319.311 3.6208 1.02834 0
M  V30 3380 C 318.458 2.77186 0.079634 0
M  V30 3381 H 321.409 1.52939 -0.423729 0
M  V30 3382 H 321.43 3.52971 1.42096 0
M  V30 3383 H 320.942 3.86303 -0.37308 0
M  V30 3384 H 319.043 3.15147 1.98778 0
M  V30 3385 H 319.156 4.7023 0.917624 0
M  V30 3386 H 317.52 2.47951 0.582448 0
M  V30 3387 H 318.303 3.32347 -0.860238 0
M  V30 3388 N 320.748 -0.0735177 1.57428 0
M  V30 3389 C 322.159 -0.625551 1.75908 0
M  V30 3390 C 322.51 -1.78 0.825261 0
M  V30 3391 O 321.635 -2.16398 0.00893964 0
M  V30 3392 C 322.23 -1.14155 3.18989 0
M  V30 3393 C 320.789 -1.63946 3.38819 0
M  V30 3394 C 319.936 -0.558151 2.71625 0
M  V30 3395 H 322.887 0.152647 1.57964 0
M  V30 3396 H 322.908 -2.0104 3.23053 0
M  V30 3397 H 322.42 -0.301116 3.8693 0
M  V30 3398 H 320.521 -2.50321 2.7599 0
M  V30 3399 H 320.634 -1.71759 4.47253 0
M  V30 3400 H 318.998 -1.00278 2.34129 0
M  V30 3401 H 319.781 0.272071 3.4222 0
M  V30 3402 N 322.226 -1.5378 -0.344866 0
M  V30 3403 C 323.642 -1.44015 -0.687888 0
M  V30 3404 C 323.842 -0.595834 -1.92489 0
M  V30 3405 O 322.898 -0.0863064 -2.52352 0
M  V30 3406 C 324.211 -2.87481 -0.881758 0
M  V30 3407 C 325.759 -2.97247 -0.980459 0
M  V30 3408 C 326.234 -4.41819 -1.20665 0
M  V30 3409 N 327.725 -4.45339 -1.27389 0
M  V30 3410 C 328.46 -5.54333 -1.46639 0
M  V30 3411 N 327.956 -6.73335 -1.63071 0
M  V30 3412 N 329.749 -5.41944 -1.49176 0
M  V30 3413 H 321.9 -2.07169 0.468475 0
M  V30 3414 H 324.163 -0.93643 0.147655 0
M  V30 3415 H 323.869 -3.51672 -0.0443444 0
M  V30 3416 H 323.743 -3.32352 -1.78388 0
M  V30 3417 H 326.13 -2.33197 -1.8084 0
M  V30 3418 H 326.211 -2.5574 -0.0552713 0
M  V30 3419 H 325.855 -5.06449 -0.383652 0
M  V30 3420 H 325.785 -4.80917 -2.14539 0
M  V30 3421 H 328.276 -3.59585 -1.1622 0
M  V30 3422 H 328.589 -7.52165 -1.77391 0
M  V30 3423 H 326.934 -6.76282 -1.60209 0
M  V30 3424 H 330.125 -4.47932 -1.3592 0
M  V30 3425 H 330.298 -6.26946 -1.63837 0
M  V30 3426 N 323.704 0.605807 -1.45491 0
M  V30 3427 C 324.934 1.38934 -1.52908 0
M  V30 3428 C 325.342 1.88513 -0.161086 0
M  V30 3429 O 324.685 1.62962 0.847891 0
M  V30 3430 C 324.747 2.62737 -2.45376 0
M  V30 3431 C 324.411 2.34785 -3.92078 0
M  V30 3432 C 325.408 1.95038 -4.8193 0
M  V30 3433 C 323.093 2.47642 -4.37011 0
M  V30 3434 C 325.087 1.68511 -6.14722 0
M  V30 3435 C 322.774 2.20728 -5.69844 0
M  V30 3436 C 323.772 1.81225 -6.58519 0
M  V30 3437 O 323.46 1.54627 -7.88889 0
M  V30 3438 H 323.192 0.431629 -0.520262 0
M  V30 3439 H 325.746 0.74573 -1.91384 0
M  V30 3440 H 323.976 3.29824 -2.01874 0
M  V30 3441 H 325.665 3.24783 -2.43456 0
M  V30 3442 H 326.431 1.84639 -4.48479 0
M  V30 3443 H 322.31 2.77356 -3.68232 0
M  V30 3444 H 325.854 1.37602 -6.83894 0
M  V30 3445 H 321.751 2.30744 -6.02849 0
M  V30 3446 H 322.519 1.68665 -8.00933 0
M  V30 3447 N 325.182 1.32811 0.848464 0
M  V30 3448 C 326.593 1.21315 1.41914 0
M  V30 3449 C 326.944 -0.171847 1.95446 0
M  V30 3450 O 326.069 -1.07093 1.88043 0
M  V30 3451 C 326.664 2.19631 2.57968 0
M  V30 3452 C 325.223 2.12003 3.11017 0
M  V30 3453 C 324.37 2.07651 1.83783 0
M  V30 3454 H 327.321 1.44549 0.655071 0
M  V30 3455 H 327.342 1.79845 3.35315 0
M  V30 3456 H 326.854 3.20423 2.18976 0
M  V30 3457 H 324.955 1.14481 3.54577 0
M  V30 3458 H 325.068 3.02111 3.71841 0
M  V30 3459 H 323.432 1.52983 2.03638 0
M  V30 3460 H 324.215 3.10235 1.47 0
M  V30 3461 N 326.66 -1.06551 1.16123 0
M  V30 3462 C 328.076 -1.3142 0.905585 0
M  V30 3463 C 328.276 -1.96571 -0.442964 0
M  V30 3464 O 327.332 -2.23068 -1.18308 0
M  V30 3465 C 328.645 -2.19741 2.05267 0
M  V30 3466 C 330.193 -2.33165 2.08813 0
M  V30 3467 C 330.668 -3.24838 3.22868 0
M  V30 3468 N 332.159 -3.32421 3.22568 0
M  V30 3469 C 332.894 -4.0344 4.0746 0
M  V30 3470 N 332.39 -4.77003 5.02434 0
M  V30 3471 N 334.183 -3.99464 3.95456 0
M  V30 3472 H 326.334 -0.626548 2.02949 0
M  V30 3473 H 328.597 -0.338777 0.8854 0
M  V30 3474 H 328.303 -1.79142 3.02657 0
M  V30 3475 H 328.177 -3.20313 1.99198 0
M  V30 3476 H 330.564 -2.73013 1.12018 0
M  V30 3477 H 330.645 -1.3227 2.18948 0
M  V30 3478 H 330.289 -2.85708 4.19921 0
M  V30 3479 H 330.219 -4.25707 3.0997 0
M  V30 3480 H 332.71 -2.79994 2.53795 0
M  V30 3481 H 333.023 -5.28712 5.63634 0
M  V30 3482 H 331.368 -4.75992 5.06415 0
M  V30 3483 H 334.559 -3.4111 3.20564 0
M  V30 3484 H 334.732 -4.54544 4.61837 0
M  V30 3485 N 328.138 -0.959301 -1.25041 0
M  V30 3486 C 329.415 -0.533805 -1.88175 0
M  V30 3487 C 329.795 0.988994 -1.865 0
M  V30 3488 O 329.143 1.85677 -1.33177 0
M  V30 3489 C 329.353 -1.11575 -3.30684 0
M  V30 3490 C 330.701 -1.19548 -4.07423 0
M  V30 3491 O 331.725 -1.06765 -3.39823 0
M  V30 3492 O 330.584 -1.39656 -5.28354 0
M  V30 3493 H 327.678 -0.176772 -0.807887 0
M  V30 3494 H 330.224 -1.05303 -1.33076 0
M  V30 3495 H 328.996 -2.15884 -3.26358 0
M  V30 3496 H 328.619 -0.580059 -3.93346 0
M  V30 3497 N 329.616 1.39756 -0.72842 0
M  V30 3498 C 330.862 2.00942 -0.273892 0
M  V30 3499 C 331.195 1.57656 1.13394 0
M  V30 3500 O 330.47 0.802434 1.77176 0
M  V30 3501 C 330.753 3.58211 -0.368346 0
M  V30 3502 C 330.606 4.11534 -1.81548 0
M  V30 3503 C 331.925 4.39372 0.253054 0
M  V30 3504 H 329.044 0.730047 -0.100996 0
M  V30 3505 H 331.686 1.66056 -0.923337 0
M  V30 3506 H 329.836 3.88061 0.184588 0
M  V30 3507 H 331.508 3.92431 -2.42478 0
M  V30 3508 H 329.751 3.65341 -2.33898 0
M  V30 3509 H 330.422 5.20682 -1.83288 0
M  V30 3510 H 332.898 4.15527 -0.218224 0
M  V30 3511 H 331.774 5.48677 0.156585 0
M  V30 3512 H 332.035 4.21358 1.33826 0
M  V30 3513 N 331.094 0.475555 1.50254 0
M  V30 3514 C 332.51 0.12997 1.5907 0
M  V30 3515 C 332.71 -1.36385 1.48328 0
M  V30 3516 O 331.766 -2.13754 1.34407 0
M  V30 3517 C 333.079 0.684139 2.92814 0
M  V30 3518 C 334.627 0.647965 3.0622 0
M  V30 3519 C 335.102 1.17975 4.42545 0
M  V30 3520 N 336.593 1.13936 4.48969 0
M  V30 3521 C 337.328 1.52129 5.52851 0
M  V30 3522 N 336.824 1.97793 6.63965 0
M  V30 3523 N 338.617 1.43704 5.4342 0
M  V30 3524 H 330.768 1.44706 1.55479 0
M  V30 3525 H 333.031 0.598691 0.735033 0
M  V30 3526 H 332.737 1.73079 3.06164 0
M  V30 3527 H 332.611 0.130204 3.76975 0
M  V30 3528 H 334.998 -0.38979 2.92514 0
M  V30 3529 H 335.079 1.23876 2.23805 0
M  V30 3530 H 334.723 2.21616 4.57 0
M  V30 3531 H 334.653 0.565138 5.23559 0
M  V30 3532 H 337.144 0.804488 3.69238 0
M  V30 3533 H 337.457 2.25072 7.39299 0
M  V30 3534 H 335.802 2.01749 6.65073 0
M  V30 3535 H 338.993 1.07867 4.55502 0
M  V30 3536 H 339.166 1.73794 6.24259 0
M  V30 3537 N 332.573 -1.56217 0.208337 0
M  V30 3538 C 333.85 -1.89739 -0.475234 0
M  V30 3539 C 334.23 -1.1238 -1.78701 0
M  V30 3540 O 333.578 -0.228979 -2.2735 0
M  V30 3541 C 333.788 -3.42289 -0.681101 0
M  V30 3542 C 335.136 -4.12789 -0.994507 0
M  V30 3543 O 336.16 -3.47814 -0.768357 0
M  V30 3544 O 335.019 -5.27649 -1.42299 0
M  V30 3545 H 332.113 -0.788478 -0.249461 0
M  V30 3546 H 334.659 -1.67855 0.249538 0
M  V30 3547 H 333.431 -3.90534 0.244722 0
M  V30 3548 H 333.054 -3.69909 -1.45785 0
M  V30 3549 N 334.051 0.0651679 -1.57465 0
M  V30 3550 C 335.281 0.774683 -1.91526 0
M  V30 3551 C 335.689 1.71305 -0.803196 0
M  V30 3552 O 335.032 1.82231 0.231881 0
M  V30 3553 C 335.094 1.61645 -3.21109 0
M  V30 3554 C 334.758 0.846753 -4.49087 0
M  V30 3555 C 335.755 0.163024 -5.19644 0
M  V30 3556 C 333.44 0.811966 -4.95694 0
M  V30 3557 C 335.434 -0.54519 -6.35064 0
M  V30 3558 C 333.121 0.0999836 -6.11018 0
M  V30 3559 C 334.119 -0.577388 -6.80555 0
M  V30 3560 O 333.807 -1.27789 -7.93678 0
M  V30 3561 H 333.539 0.225031 -0.637446 0
M  V30 3562 H 336.093 0.0377134 -2.05365 0
M  V30 3563 H 334.323 2.39638 -3.03497 0
M  V30 3564 H 336.012 2.20525 -3.40769 0
M  V30 3565 H 336.778 0.181163 -4.84662 0
M  V30 3566 H 332.657 1.32867 -4.41438 0
M  V30 3567 H 336.201 -1.07446 -6.89276 0
M  V30 3568 H 332.098 0.0797945 -6.45451 0
M  V30 3569 H 332.866 -1.18784 -8.09835 0
M  V30 3570 N 335.529 1.53961 0.336706 0
M  V30 3571 C 336.776 1.71536 1.07618 0
M  V30 3572 C 337.104 0.482125 1.8843 0
M  V30 3573 O 336.359 -0.536142 1.88213 0
M  V30 3574 C 336.658 2.93493 2.03953 0
M  V30 3575 C 336.324 4.28811 1.39399 0
M  V30 3576 C 334.986 4.65602 1.21523 0
M  V30 3577 C 337.338 5.12844 0.929541 0
M  V30 3578 C 334.666 5.84037 0.558312 0
M  V30 3579 C 337.018 6.31951 0.286505 0
M  V30 3580 C 335.682 6.67432 0.0954869 0
M  V30 3581 H 334.952 0.627696 0.393801 0
M  V30 3582 H 337.599 1.88186 0.354715 0
M  V30 3583 H 335.904 2.71475 2.82504 0
M  V30 3584 H 337.601 3.04285 2.61174 0
M  V30 3585 H 334.191 3.99858 1.54311 0
M  V30 3586 H 338.375 4.84947 1.05548 0
M  V30 3587 H 333.631 6.10097 0.398995 0
M  V30 3588 H 337.805 6.96352 -0.0814376 0
M  V30 3589 H 335.432 7.59063 -0.415579 0
M  V30 3590 N 337.007 -0.598083 1.45811 0
M  V30 3591 C 337.94 -1.7223 1.49706 0
M  V30 3592 C 338.918 -1.58732 0.352535 0
M  V30 3593 O 340.102 -1.80162 0.554438 0
M  V30 3594 C 337.229 -3.10148 1.3611 0
M  V30 3595 C 336.275 -3.42209 2.54549 0
M  V30 3596 S 337.108 -3.35989 4.16979 0
M  V30 3597 C 338.264 -4.76471 4.05865 0
M  V30 3598 H 338.497 -1.68665 2.44826 0
M  V30 3599 H 336.03 -0.775541 1.33509 0
M  V30 3600 H 337.988 -3.8972 1.28953 0
M  V30 3601 H 336.649 -3.11219 0.424451 0
M  V30 3602 H 335.842 -4.42652 2.40988 0
M  V30 3603 H 335.444 -2.70173 2.58617 0
M  V30 3604 H 337.736 -5.665 3.71596 0
M  V30 3605 H 338.679 -4.95089 5.06253 0
M  V30 3606 H 339.087 -4.52599 3.37364 0
M  V30 3607 N 338.485 -1.33259 -0.841409 0
M  V30 3608 C 339.896 -1.22066 -1.41269 0
M  V30 3609 C 340.247 0.161479 -1.95534 0
M  V30 3610 O 339.372 1.06094 -1.88608 0
M  V30 3611 C 339.967 -2.20996 -2.568 0
M  V30 3612 C 338.526 -2.13649 -3.09888 0
M  V30 3613 C 337.673 -2.08623 -1.82679 0
M  V30 3614 H 340.624 -1.44895 -0.647395 0
M  V30 3615 H 340.645 -1.81621 -3.34356 0
M  V30 3616 H 340.157 -3.2158 -2.17274 0
M  V30 3617 H 338.258 -1.16359 -3.53965 0
M  V30 3618 H 338.371 -3.04079 -3.70234 0
M  V30 3619 H 336.735 -1.54061 -2.02824 0
M  V30 3620 H 337.518 -3.1101 -1.45353 0
M  V30 3621 N 339.963 1.05934 -1.16686 0
M  V30 3622 C 341.203 1.80382 -0.961345 0
M  V30 3623 C 341.567 1.85331 0.501643 0
M  V30 3624 O 342.768 2.55795 0.825986 0
M  V30 3625 C 341.039 3.20777 -1.57596 0
M  V30 3626 S 342.598 4.11795 -1.51559 0
M  V30 3627 H 339.416 0.621332 -0.345641 0
M  V30 3628 H 342.018 1.27157 -1.48497 0
M  V30 3629 H 340.722 3.14773 -2.63337 0
M  V30 3630 H 340.253 3.79078 -1.05182 0
M  V30 3631 H 342.268 4.93485 -0.518374 0
M  V30 3632 N 341.441 0.965919 1.2453 0
M  V30 3633 C 342.852 0.665929 1.7442 0
M  V30 3634 C 343.203 -0.818407 1.78316 0
M  V30 3635 O 342.328 -1.64037 1.41141 0
M  V30 3636 C 342.923 1.20211 3.16757 0
M  V30 3637 C 341.482 0.952059 3.6416 0
M  V30 3638 C 340.629 1.33848 2.42858 0
M  V30 3639 H 343.58 1.14144 1.10258 0
M  V30 3640 H 343.601 0.567544 3.76244 0
M  V30 3641 H 343.113 2.28244 3.13889 0
M  V30 3642 H 341.214 -0.112821 3.72429 0
M  V30 3643 H 341.327 1.59645 4.51719 0
M  V30 3644 H 339.691 0.756864 2.43195 0
M  V30 3645 H 340.474 2.42827 2.42673 0
M  V30 3646 N 342.919 -1.39368 0.735821 0
M  V30 3647 C 344.167 -2.00101 0.283562 0
M  V30 3648 C 344.488 -1.5868 -1.13338 0
M  V30 3649 O 343.758 -0.835423 -1.77193 0
M  V30 3650 H 342.338 -0.740024 0.101851 0
M  V30 3651 H 345 -1.70404 0.945962 0
M  V30 3652 H 344.096 -3.10323 0.332604 0
M  V30 3653 N 344.397 -0.483516 -1.5 0
M  V30 3654 C 345.813 -0.138404 -1.58999 0
M  V30 3655 C 346.013 1.35597 -1.4905 0
M  V30 3656 O 345.069 2.13039 -1.35539 0
M  V30 3657 C 346.382 -0.699658 -2.92447 0
M  V30 3658 C 347.93 -0.664195 -3.05872 0
M  V30 3659 C 348.405 -1.20321 -4.41913 0
M  V30 3660 N 349.896 -1.16315 -4.48358 0
M  V30 3661 C 350.631 -1.55058 -5.52037 0
M  V30 3662 N 350.127 -2.01311 -6.62907 0
M  V30 3663 N 351.92 -1.46584 -5.42651 0
M  V30 3664 H 344.071 -1.45529 -1.5471 0
M  V30 3665 H 346.334 -0.60258 -0.731848 0
M  V30 3666 H 346.04 -1.747 -3.05242 0
M  V30 3667 H 345.914 -0.150194 -3.76901 0
M  V30 3668 H 348.301 0.374272 -2.92717 0
M  V30 3669 H 348.382 -1.25061 -2.23144 0
M  V30 3670 H 348.026 -2.24037 -4.55818 0
M  V30 3671 H 347.956 -0.592896 -5.23252 0
M  V30 3672 H 350.447 -0.824058 -3.68806 0
M  V30 3673 H 350.76 -2.2899 -7.38095 0
M  V30 3674 H 349.105 -2.05273 -6.63994 0
M  V30 3675 H 352.296 -1.10281 -4.54924 0
M  V30 3676 H 352.469 -1.77103 -6.23329 0
M  V30 3677 N 345.875 1.56104 -0.216619 0
M  V30 3678 C 347.123 1.97781 0.415593 0
M  V30 3679 C 347.444 1.10536 1.60645 0
M  V30 3680 O 346.714 0.181303 1.95059 0
M  V30 3681 H 345.294 0.730415 0.156534 0
M  V30 3682 H 347.956 1.92445 -0.308366 0
M  V30 3683 H 347.052 3.03072 0.74525 0
M  V30 3684 N 347.353 -0.0568162 1.57498 0
M  V30 3685 C 348.303 -1.07315 2.01166 0
M  V30 3686 C 349.287 -1.33632 0.896171 0
M  V30 3687 O 350.479 -1.33682 1.16009 0
M  V30 3688 C 347.608 -2.38257 2.47161 0
M  V30 3689 C 346.694 -2.1515 3.65474 0
M  V30 3690 N 347.085 -1.62014 4.7915 0
M  V30 3691 C 345.383 -2.45559 3.72313 0
M  V30 3692 C 346.084 -1.54069 5.60926 0
M  V30 3693 N 345.06 -2.00652 5.05213 0
M  V30 3694 H 348.862 -0.655878 2.86488 0
M  V30 3695 H 346.376 -0.263635 1.60246 0
M  V30 3696 H 348.373 -3.11845 2.76691 0
M  V30 3697 H 347.033 -2.80687 1.63232 0
M  V30 3698 H 348.044 -1.30667 5.01145 0
M  V30 3699 H 344.721 -2.91253 2.99129 0
M  V30 3700 H 346.111 -1.13712 6.62208 0
M  V30 3701 N 348.832 -1.54138 -0.328536 0
M  V30 3702 C 350.08 -1.71765 -1.06496 0
M  V30 3703 C 350.401 -0.49149 -1.88704 0
M  V30 3704 O 349.671 0.494539 -1.89555 0
M  V30 3705 H 348.251 -0.633295 -0.396164 0
M  V30 3706 H 350.913 -1.91429 -0.366176 0
M  V30 3707 H 350.009 -2.5951 -1.73381 0
M  V30 3708 N 350.31 0.590341 -1.46126 0
M  V30 3709 C 351.26 1.69466 -1.5253 0
M  V30 3710 C 352.244 1.56179 -0.386917 0
M  V30 3711 O 353.436 1.65223 -0.634858 0
M  V30 3712 C 350.565 3.08245 -1.5113 0
M  V30 3713 C 349.651 3.26856 -2.70233 0
M  V30 3714 N 350.042 3.15657 -3.95214 0
M  V30 3715 C 348.34 3.57775 -2.66296 0
M  V30 3716 C 349.041 3.36066 -4.74799 0
M  V30 3717 N 348.017 3.60865 -4.06543 0
M  V30 3718 H 351.819 1.59326 -2.46966 0
M  V30 3719 H 349.333 0.79414 -1.41659 0
M  V30 3720 H 351.33 3.87492 -1.53804 0
M  V30 3721 H 349.99 3.19521 -0.577636 0
M  V30 3722 H 351.001 2.93686 -4.26578 0
M  V30 3723 H 347.678 3.75782 -1.81918 0
M  V30 3724 H 349.068 3.32655 -5.83772 0
M  V30 3725 N 351.788 1.33704 0.83433 0
M  V30 3726 C 353.204 1.13137 1.12571 0
M  V30 3727 C 353.404 -0.0747261 2.01361 0
M  V30 3728 O 352.46 -0.753647 2.4099 0
M  V30 3729 C 353.773 2.42105 1.78342 0
M  V30 3730 C 355.321 2.48054 1.90888 0
M  V30 3731 C 355.796 3.76995 2.60075 0
M  V30 3732 N 357.287 3.78092 2.67584 0
M  V30 3733 C 358.022 4.74574 3.21818 0
M  V30 3734 N 357.518 5.81434 3.76705 0
M  V30 3735 N 359.311 4.62044 3.20112 0
M  V30 3736 H 351.462 2.11 0.243489 0
M  V30 3737 H 353.725 0.932532 0.17055 0
M  V30 3738 H 353.431 3.30391 1.20561 0
M  V30 3739 H 353.305 2.54594 2.7832 0
M  V30 3740 H 355.692 1.60215 2.47821 0
M  V30 3741 H 355.773 2.39502 0.898459 0
M  V30 3742 H 355.417 4.65219 2.03799 0
M  V30 3743 H 355.347 3.82825 3.61597 0
M  V30 3744 H 357.838 3.00865 2.28667 0
M  V30 3745 H 358.151 6.51084 4.16305 0
M  V30 3746 H 356.496 5.85163 3.7498 0
M  V30 3747 H 359.687 3.77716 2.76493 0
M  V30 3748 H 359.86 5.37406 3.62076 0
M  V30 3749 N 353.266 -1.05314 1.17247 0
M  V30 3750 C 354.214 -2.15137 0.884238 0
M  V30 3751 C 355.208 -1.68729 -0.15063 0
M  V30 3752 O 356.414 -1.8 -0.00366673 0
M  V30 3753 H 352.789 -0.702471 0.2684 0
M  V30 3754 H 354.76 -2.36652 1.81764 0
M  V30 3755 C 353.509 -3.45243 0.412659 0
M  V30 3756 H 352.832 -3.81352 1.20043 0
M  V30 3757 H 354.272 -4.23263 0.249858 0
M  V30 3758 C 352.731 -3.25487 -0.86948 0
M  V30 3759 O 353.261 -3.51938 -1.93655 0
M  V30 3760 N 351.467 -2.78875 -0.817147 0
M  V30 3761 H 351.014 -2.57549 0.0514211 0
M  V30 3762 H 350.972 -2.66036 -1.67547 0
M  V30 3763 N 354.744 -0.972509 -1.24016 0
M  V30 3764 C 355.992 -0.635776 -1.91839 0
M  V30 3765 C 356.313 0.832312 -1.76345 0
M  V30 3766 O 355.583 1.5946 -1.13795 0
M  V30 3767 H 354.163 -0.232157 -0.710009 0
M  V30 3768 H 356.825 -1.23462 -1.50809 0
M  V30 3769 H 355.921 -0.880545 -2.99421 0
M  V30 3770 N 356.222 1.38976 -0.743202 0
M  V30 3771 C 357.45 2.04636 -0.30525 0
M  V30 3772 C 357.865 1.56044 1.06281 0
M  V30 3773 O 357.222 0.728921 1.67311 0
M  V30 3774 C 357.273 3.60193 -0.307177 0
M  V30 3775 O 356.994 4.06998 -1.62124 0
M  V30 3776 C 358.495 4.4306 0.145928 0
M  V30 3777 H 355.715 0.65788 -0.132041 0
M  V30 3778 H 358.259 1.77866 -1.00915 0
M  V30 3779 H 356.414 3.85835 0.347898 0
M  V30 3780 H 356.828 5.01371 -1.54036 0
M  V30 3781 H 358.302 5.51921 0.0934183 0
M  V30 3782 H 358.779 4.22706 1.19231 0
M  V30 3783 H 359.385 4.22584 -0.479886 0
M  V30 3784 N 357.7 0.491464 1.49741 0
M  V30 3785 C 358.948 -0.0563141 2.02022 0
M  V30 3786 C 359.269 -1.38363 1.37407 0
M  V30 3787 O 358.539 -1.88702 0.526166 0
M  V30 3788 H 357.119 -0.0238014 0.746621 0
M  V30 3789 H 359.781 0.646533 1.83864 0
M  V30 3790 H 358.877 -0.192967 3.11503 0
M  V30 3791 N 359.178 -1.55987 0.224894 0
M  V30 3792 C 360.128 -2.17076 -0.697296 0
M  V30 3793 C 361.112 -1.12006 -1.15514 0
M  V30 3794 O 362.304 -1.37985 -1.10857 0
M  V30 3795 C 359.433 -2.85679 -1.90374 0
M  V30 3796 C 358.519 -3.97977 -1.46543 0
M  V30 3797 N 358.91 -5.00359 -0.739909 0
M  V30 3798 C 357.208 -4.10128 -1.75245 0
M  V30 3799 C 357.909 -5.79407 -0.515939 0
M  V30 3800 N 356.885 -5.32892 -1.07364 0
M  V30 3801 H 360.687 -2.93592 -0.134594 0
M  V30 3802 H 358.201 -1.62379 0.0262885 0
M  V30 3803 H 360.198 -3.27857 -2.57518 0
M  V30 3804 H 358.858 -2.1066 -2.47088 0
M  V30 3805 H 359.869 -5.16412 -0.392253 0
M  V30 3806 H 356.546 -3.46263 -2.33255 0
M  V30 3807 H 357.936 -6.71872 0.0617349 0
M  V30 3808 N 360.656 0.0484629 -1.57525 0
M  V30 3809 C 361.904 0.741657 -1.88 0
M  V30 3810 C 362.225 1.76918 -0.820054 0
M  V30 3811 O 361.495 1.95335 0.148661 0
M  V30 3812 H 360.075 0.276908 -0.69378 0
M  V30 3813 H 362.737 0.019013 -1.94891 0
M  V30 3814 H 361.833 1.24336 -2.86264 0
M  V30 3815 N 362.134 1.5431 0.320358 0
M  V30 3816 C 363.082 1.84647 1.4145 0
M  V30 3817 C 364.076 0.718624 1.53402 0
M  V30 3818 O 365.282 0.902335 1.5575 0
M  V30 3819 H 361.657 0.585349 0.472091 0
M  V30 3820 H 363.628 2.7614 1.13089 0
M  V30 3821 C 362.377 2.09341 2.77617 0
M  V30 3822 H 361.7 2.9559 2.69196 0
M  V30 3823 H 363.14 2.3452 3.53237 0
M  V30 3824 C 361.599 0.885939 3.25043 0
M  V30 3825 O 362.129 0.0967891 4.01583 0
M  V30 3826 N 360.335 0.696682 2.82125 0
M  V30 3827 H 359.882 1.34006 2.2 0
M  V30 3828 H 359.84 -0.109712 3.14209 0
M  V30 3829 N 363.613 -0.582584 1.46437 0
M  V30 3830 C 364.838 -1.37168 1.55563 0
M  V30 3831 C 365.263 -1.87061 0.19743 0
M  V30 3832 O 364.621 -1.61572 -0.822451 0
M  V30 3833 C 364.669 -2.53511 2.56446 0
M  V30 3834 O 363.773 -3.54953 2.09958 0
M  V30 3835 H 363.114 -0.408494 0.523477 0
M  V30 3836 H 365.644 -0.706646 1.9201 0
M  V30 3837 H 365.654 -3.00426 2.76058 0
M  V30 3838 H 364.329 -2.16549 3.55076 0
M  V30 3839 H 362.906 -3.14516 2.00334 0
M  V30 3840 N 365.091 -1.34144 -0.827227 0
M  V30 3841 C 366.319 -1.29325 -1.61501 0
M  V30 3842 C 366.734 0.13354 -1.88327 0
M  V30 3843 O 366.091 1.0793 -1.47164 0
M  V30 3844 C 366.142 -2.07746 -2.95844 0
M  V30 3845 O 365.863 -3.4486 -2.70191 0
M  V30 3846 C 367.364 -2.10273 -3.90256 0
M  V30 3847 H 364.584 -0.445069 -0.50215 0
M  V30 3848 H 367.128 -1.76693 -1.02955 0
M  V30 3849 H 365.283 -1.6403 -3.5096 0
M  V30 3850 H 365.697 -3.85345 -3.55822 0
M  V30 3851 H 367.171 -2.69575 -4.81698 0
M  V30 3852 H 367.648 -1.096 -4.25305 0
M  V30 3853 H 368.254 -2.54059 -3.41078 0
M  V30 3854 N 366.569 1.04691 -1.17803 0
M  V30 3855 C 367.519 2.10856 -0.867391 0
M  V30 3856 C 368.503 1.601 0.160206 0
M  V30 3857 O 369.695 1.76948 -0.042947 0
M  V30 3858 C 366.824 3.411 -0.388012 0
M  V30 3859 C 365.91 3.9864 -1.44732 0
M  V30 3860 N 366.301 4.30075 -2.66212 0
M  V30 3861 C 364.599 4.26439 -1.30637 0
M  V30 3862 C 365.3 4.76033 -3.34317 0
M  V30 3863 N 364.276 4.76462 -2.61696 0
M  V30 3864 H 368.078 2.33029 -1.79094 0
M  V30 3865 H 365.592 1.22386 -1.0675 0
M  V30 3866 H 367.589 4.16641 -0.146994 0
M  V30 3867 H 366.249 3.20357 0.529271 0
M  V30 3868 H 367.26 4.19917 -3.03134 0
M  V30 3869 H 363.937 4.15056 -0.451129 0
M  V30 3870 H 365.327 5.09427 -4.38103 0
M  V30 3871 N 368.047 0.979072 1.23499 0
M  V30 3872 C 368.997 0.489378 2.22686 0
M  V30 3873 C 369.981 -0.434871 1.54912 0
M  V30 3874 O 371.173 -0.263941 1.75021 0
M  V30 3875 C 368.302 -0.208178 3.42668 0
M  V30 3876 C 367.388 0.735563 4.17672 0
M  V30 3877 N 367.779 1.87763 4.69658 0
M  V30 3878 C 366.077 0.548625 4.42613 0
M  V30 3879 C 366.778 2.46886 5.26709 0
M  V30 3880 N 365.754 1.75287 5.14563 0
M  V30 3881 H 369.556 1.36062 2.60508 0
M  V30 3882 H 367.07 0.83958 1.39014 0
M  V30 3883 H 369.067 -0.576295 4.12898 0
M  V30 3884 H 367.727 -1.07572 3.06363 0
M  V30 3885 H 368.738 2.25885 4.66043 0
M  V30 3886 H 365.415 -0.274006 4.166 0
M  V30 3887 H 366.805 3.43326 5.77561 0
M  V30 3888 N 369.525 -1.3858 0.750561 0
M  V30 3889 C 370.773 -1.99789 0.30477 0
M  V30 3890 C 371.094 -1.59874 -1.11649 0
M  V30 3891 O 370.364 -0.85417 -1.76297 0
M  V30 3892 H 368.944 -0.738902 0.109694 0
M  V30 3893 H 371.606 -1.69391 0.963983 0
M  V30 3894 H 370.702 -3.09952 0.365499 0
M  V30 3895 N 371.003 -0.499398 -1.49478 0
M  V30 3896 C 372.414 -0.051215 -1.8663 0
M  V30 3897 C 372.765 1.36238 -1.41186 0
M  V30 3898 O 371.89 2.01502 -0.789051 0
M  V30 3899 C 372.485 -0.0861651 -3.3869 0
M  V30 3900 C 371.044 0.30667 -3.75149 0
M  V30 3901 C 370.191 -0.459397 -2.73468 0
M  V30 3902 H 373.142 -0.712264 -1.41818 0
M  V30 3903 H 373.163 0.709507 -3.73826 0
M  V30 3904 H 372.675 -1.11512 -3.71735 0
M  V30 3905 H 370.776 1.33892 -3.47712 0
M  V30 3906 H 370.889 -0.0116669 -4.79099 0
M  V30 3907 H 369.253 0.0905645 -2.54539 0
M  V30 3908 H 370.036 -1.4884 -3.09357 0
M  V30 3909 N 372.481 1.55866 -0.233164 0
M  V30 3910 C 373.391 2.24431 0.683217 0
M  V30 3911 C 374.407 1.2558 1.2044 0
M  V30 3912 O 375.583 1.58422 1.24356 0
M  V30 3913 C 372.648 2.91979 1.86947 0
M  V30 3914 C 371.709 4.06204 1.38912 0
M  V30 3915 C 370.942 4.70522 2.51883 0
M  V30 3916 O 371.165 4.33865 3.70293 0
M  V30 3917 O 370.099 5.59296 2.22423 0
M  V30 3918 H 373.925 3.03426 0.129059 0
M  V30 3919 H 371.51 1.494 -0.0022283 0
M  V30 3920 H 373.392 3.34573 2.56201 0
M  V30 3921 H 372.067 2.15935 2.41151 0
M  V30 3922 H 370.974 3.68155 0.664259 0
M  V30 3923 H 372.307 4.84025 0.893328 0
M  V30 3924 N 373.959 -0.0401083 1.57549 0
M  V30 3925 C 375.189 -0.744115 1.92734 0
M  V30 3926 C 375.597 -1.70005 0.830348 0
M  V30 3927 O 374.94 -1.82576 -0.20286 0
M  V30 3928 C 375.002 -1.56516 3.2364 0
M  V30 3929 C 374.666 -0.7752 4.50377 0
M  V30 3930 C 375.663 -0.0803326 5.19838 0
M  V30 3931 C 373.348 -0.733002 4.96923 0
M  V30 3932 C 375.342 0.646154 6.34116 0
M  V30 3933 C 373.029 -0.00276321 6.111 0
M  V30 3934 C 374.027 0.685585 6.7955 0
M  V30 3935 O 373.715 1.40399 7.91545 0
M  V30 3936 H 373.447 -0.214861 0.640945 0
M  V30 3937 H 376.001 -0.00503675 2.05399 0
M  V30 3938 H 374.231 -2.3478 3.07271 0
M  V30 3939 H 375.92 -2.15076 3.44234 0
M  V30 3940 H 376.686 -0.104035 4.84888 0
M  V30 3941 H 372.565 -1.25827 4.43496 0
M  V30 3942 H 376.109 1.18398 6.87479 0
M  V30 3943 H 372.006 0.0229012 6.45496 0
M  V30 3944 H 372.774 1.31653 8.07843 0
M  V30 3945 N 375.437 -1.54477 -0.31217 0
M  V30 3946 C 376.37 -1.79519 -1.40884 0
M  V30 3947 C 377.348 -0.645753 -1.49227 0
M  V30 3948 O 378.532 -0.884468 -1.66461 0
M  V30 3949 C 375.659 -1.92194 -2.78889 0
M  V30 3950 C 374.705 -3.14555 -2.88023 0
M  V30 3951 S 375.538 -4.72893 -2.51262 0
M  V30 3952 C 376.694 -4.8849 -3.91317 0
M  V30 3953 H 376.927 -2.72256 -1.19432 0
M  V30 3954 H 374.46 -1.45746 -0.509654 0
M  V30 3955 H 376.418 -2.00182 -3.58382 0
M  V30 3956 H 375.079 -1.00414 -2.97617 0
M  V30 3957 H 374.272 -3.20193 -3.89221 0
M  V30 3958 H 373.874 -3.04955 -2.16514 0
M  V30 3959 H 376.166 -4.71826 -4.86196 0
M  V30 3960 H 377.109 -5.90588 -3.90656 0
M  V30 3961 H 377.517 -4.16715 -3.80801 0
M  V30 3962 N 376.915 0.57481 -1.46744 0
M  V30 3963 C 378.331 0.898981 -1.31873 0
M  V30 3964 C 378.531 1.99313 -0.29605 0
M  V30 3965 O 377.587 2.50728 0.298621 0
M  V30 3966 C 378.9 1.30886 -2.7072 0
M  V30 3967 C 380.448 1.42127 -2.78871 0
M  V30 3968 C 380.923 1.86478 -4.18318 0
M  V30 3969 N 382.414 1.93658 -4.20774 0
M  V30 3970 C 383.149 2.29267 -5.2557 0
M  V30 3971 N 382.645 2.63612 -6.40688 0
M  V30 3972 N 384.438 2.29889 -5.1294 0
M  V30 3973 H 376.589 -0.147839 -2.11885 0
M  V30 3974 H 378.852 -0.00347013 -0.947994 0
M  V30 3975 H 378.558 0.578853 -3.46904 0
M  V30 3976 H 378.432 2.26874 -3.01343 0
M  V30 3977 H 380.819 2.14213 -2.0297 0
M  V30 3978 H 380.9 0.443705 -2.51922 0
M  V30 3979 H 380.544 1.14968 -4.94717 0
M  V30 3980 H 380.474 2.85207 -4.42679 0
M  V30 3981 H 382.965 1.69574 -3.37718 0
M  V30 3982 H 383.278 2.89759 -7.16421 0
M  V30 3983 H 381.623 2.61232 -6.44036 0
M  V30 3984 H 384.814 2.02485 -4.22039 0
M  V30 3985 H 384.987 2.57312 -5.94722 0
M  V30 3986 N 378.394 1.34581 0.820102 0
M  V30 3987 C 379.634 1.28448 1.58998 0
M  V30 3988 C 379.998 -0.142883 1.91468 0
M  V30 3989 O 381.199 -0.328422 2.66786 0
M  V30 3990 C 379.47 2.153 2.85273 0
M  V30 3991 S 381.029 2.26548 3.75794 0
M  V30 3992 H 377.847 0.456685 0.54494 0
M  V30 3993 H 380.449 1.69825 0.968487 0
M  V30 3994 H 379.153 3.18008 2.59421 0
M  V30 3995 H 378.684 1.7483 3.52417 0
M  V30 3996 H 380.699 1.44034 4.74835 0
M  V30 3997 N 379.872 -1.04064 1.18357 0
M  V30 3998 C 381.097 -1.81454 1.00445 0
M  V30 3999 C 381.522 -1.82823 -0.442423 0
M  V30 4000 O 380.88 -1.24555 -1.31741 0
M  V30 4001 C 380.928 -3.24925 1.56384 0
M  V30 4002 O 380.032 -4.04856 0.785209 0
M  V30 4003 H 379.373 -0.560604 0.355835 0
M  V30 4004 H 381.903 -1.31059 1.57114 0
M  V30 4005 H 381.913 -3.75702 1.59097 0
M  V30 4006 H 380.588 -3.23244 2.61699 0
M  V30 4007 H 379.165 -3.63537 0.830399 0
M  V30 4008 N 381.35 -0.985608 -1.22978 0
M  V30 4009 C 382.761 -0.693593 -1.73338 0
M  V30 4010 C 383.112 0.789935 -1.79595 0
M  V30 4011 O 382.237 1.61771 -1.43733 0
M  V30 4012 C 382.832 -1.25235 -3.14804 0
M  V30 4013 C 381.391 -1.00987 -3.626 0
M  V30 4014 C 380.538 -1.37695 -2.40698 0
M  V30 4015 H 383.489 -1.15884 -1.08428 0
M  V30 4016 H 383.51 -0.627329 -3.75293 0
M  V30 4017 H 383.022 -2.33209 -3.10218 0
M  V30 4018 H 381.123 0.0535565 -3.72562 0
M  V30 4019 H 381.236 -1.66812 -4.49122 0
M  V30 4020 H 379.6 -0.795459 -2.4196 0
M  V30 4021 H 380.383 -2.46657 -2.38779 0
M  V30 4022 N 382.828 1.3818 -0.7579 0
M  V30 4023 C 383.778 2.27741 -0.108674 0
M  V30 4024 C 384.762 1.45415 0.688709 0
M  V30 4025 O 385.954 1.68108 0.553956 0
M  V30 4026 C 383.083 3.34313 0.780367 0
M  V30 4027 C 382.169 4.24093 -0.0240977 0
M  V30 4028 N 382.56 4.9451 -1.06271 0
M  V30 4029 C 380.858 4.45542 0.202049 0
M  V30 4030 C 381.559 5.60675 -1.54979 0
M  V30 4031 N 380.535 5.36684 -0.864348 0
M  V30 4032 H 384.337 2.79649 -0.904071 0
M  V30 4033 H 381.851 1.51133 -0.594346 0
M  V30 4034 H 383.848 3.97368 1.26114 0
M  V30 4035 H 382.508 2.83962 1.57467 0
M  V30 4036 H 383.519 4.97345 -1.44459 0
M  V30 4037 H 380.196 4.06091 0.96935 0
M  V30 4038 H 381.586 6.26992 -2.41517 0
M  V30 4039 N 384.306 0.507319 1.49211 0
M  V30 4040 C 385.236 -0.256939 2.32082 0
M  V30 4041 C 386.217 -0.956609 1.40652 0
M  V30 4042 O 387.402 -0.946788 1.69557 0
M  V30 4043 C 384.532 -1.31802 3.21318 0
M  V30 4044 C 383.486 -0.737855 4.21592 0
M  V30 4045 C 382.812 -1.89992 4.99807 0
M  V30 4046 C 384.112 0.275325 5.21574 0
M  V30 4047 H 385.806 0.434798 2.96226 0
M  V30 4048 H 383.352 0.210546 1.42452 0
M  V30 4049 H 385.305 -1.86045 3.78107 0
M  V30 4050 H 384.029 -2.03903 2.5513 0
M  V30 4051 H 382.688 -0.217126 3.65956 0
M  V30 4052 H 382.336 -2.60877 4.30061 0
M  V30 4053 H 382.036 -1.51777 5.6766 0
M  V30 4054 H 383.56 -2.44657 5.59442 0
M  V30 4055 H 384.974 -0.179193 5.7302 0
M  V30 4056 H 383.371 0.573649 5.97352 0
M  V30 4057 H 384.441 1.18903 4.70096 0
M  V30 4058 N 385.784 -1.5574 0.241426 0
M  V30 4059 C 387.03 -1.99104 -0.385406 0
M  V30 4060 C 387.363 -1.1293 -1.57988 0
M  V30 4061 O 386.638 -0.191449 -1.93555 0
M  V30 4062 C 386.921 -3.51087 -0.800616 0
M  V30 4063 C 386.774 -4.48028 0.398874 0
M  V30 4064 C 388.093 -4.08015 -1.64959 0
M  V30 4065 H 385.212 -0.723848 -0.138614 0
M  V30 4066 H 387.854 -1.86903 0.341642 0
M  V30 4067 H 386.004 -3.61615 -1.4201 0
M  V30 4068 H 387.676 -4.49487 1.03726 0
M  V30 4069 H 385.919 -4.21077 1.04293 0
M  V30 4070 H 386.59 -5.51962 0.0651056 0
M  V30 4071 H 389.066 -4.00555 -1.12672 0
M  V30 4072 H 387.942 -5.14635 -1.90898 0
M  V30 4073 H 388.203 -3.56131 -2.61961 0
M  V30 4074 N 387.262 0.0317525 -1.57568 0
M  V30 4075 C 388.192 1.03274 -2.0942 0
M  V30 4076 C 389.173 1.3788 -0.996143 0
M  V30 4077 O 390.358 1.46811 -1.27122 0
M  V30 4078 C 387.488 2.33448 -2.57137 0
M  V30 4079 C 386.442 2.13091 -3.71182 0
M  V30 4080 C 385.768 3.49001 -4.05095 0
M  V30 4081 C 387.068 1.51928 -4.99715 0
M  V30 4082 H 388.762 0.60112 -2.93303 0
M  V30 4083 H 386.308 0.287705 -1.41097 0
M  V30 4084 H 388.261 3.03802 -2.92032 0
M  V30 4085 H 386.985 2.78665 -1.70333 0
M  V30 4086 H 385.644 1.45171 -3.36632 0
M  V30 4087 H 385.292 3.91862 -3.15362 0
M  V30 4088 H 384.992 3.36207 -4.81911 0
M  V30 4089 H 386.516 4.20721 -4.42522 0
M  V30 4090 H 387.93 2.12196 -5.32584 0
M  V30 4091 H 386.327 1.49716 -5.81124 0
M  V30 4092 H 387.397 0.484811 -4.8247 0
M  V30 4093 N 388.74 1.54641 0.303973 0
M  V30 4094 C 389.965 1.78092 1.06292 0
M  V30 4095 C 390.39 0.537342 1.80262 0
M  V30 4096 O 389.748 -0.511993 1.7392 0
M  V30 4097 C 389.796 2.98612 2.02147 0
M  V30 4098 O 388.9 2.71528 3.10397 0
M  V30 4099 H 388.241 0.589548 0.305497 0
M  V30 4100 H 390.771 2.01716 0.3423 0
M  V30 4101 H 390.781 3.265 2.44667 0
M  V30 4102 H 389.456 3.88785 1.47714 0
M  V30 4103 H 388.033 2.54648 2.72413 0
M  V30 4104 N 390.218 -0.567019 1.47046 0
M  V30 4105 C 391.181 -1.65696 1.58359 0
M  V30 4106 C 392.181 -1.54097 0.459441 0
M  V30 4107 O 393.371 -1.58432 0.724225 0
M  V30 4108 C 390.503 -3.05197 1.51879 0
M  V30 4109 H 391.696 -1.57019 2.5551 0
M  V30 4110 H 389.249 -0.786148 1.3509 0
M  V30 4111 H 389.984 -3.19417 0.560673 0
M  V30 4112 H 389.769 -3.15025 2.33455 0
M  V30 4113 H 391.259 -3.84511 1.62913 0
M  V30 4114 N 391.696 -1.35014 -0.812953 0
M  V30 4115 C 392.626 -1.30069 -1.93919 0
M  V30 4116 C 393.607 -0.176275 -1.69184 0
M  V30 4117 O 394.792 -0.370227 -1.90638 0
M  V30 4118 C 391.922 -1.06547 -3.30552 0
M  V30 4119 C 390.876 -2.15561 -3.69753 0
M  V30 4120 C 390.202 -1.77214 -5.04479 0
M  V30 4121 C 391.502 -3.57476 -3.808 0
M  V30 4122 H 393.196 -2.24303 -1.98314 0
M  V30 4123 H 390.742 -1.07977 -0.952736 0
M  V30 4124 H 392.695 -1.01729 -4.08937 0
M  V30 4125 H 391.419 -0.0875719 -3.26483 0
M  V30 4126 H 390.078 -2.19466 -2.9365 0
M  V30 4127 H 389.726 -0.780589 -4.96906 0
M  V30 4128 H 389.426 -2.50184 -5.31678 0
M  V30 4129 H 390.95 -1.7391 -5.8531 0
M  V30 4130 H 392.364 -3.55929 -4.4943 0
M  V30 4131 H 390.761 -4.29152 -4.19462 0
M  V30 4132 H 391.831 -3.94091 -2.82525 0
M  V30 4133 N 393.175 1.03435 -1.18907 0
M  V30 4134 C 394.403 1.80381 -1.01342 0
M  V30 4135 C 394.818 1.83649 0.438005 0
M  V30 4136 O 394.175 1.27655 1.30424 0
M  V30 4137 C 394.226 3.25689 -1.56873 0
M  V30 4138 O 393.947 3.22673 -2.96334 0
M  V30 4139 C 395.448 4.19255 -1.44014 0
M  V30 4140 H 392.668 0.56784 -0.35749 0
M  V30 4141 H 395.212 1.30317 -1.576 0
M  V30 4142 H 393.367 3.72962 -1.04777 0
M  V30 4143 H 393.781 4.13748 -3.22355 0
M  V30 4144 H 395.255 5.19123 -1.87657 0
M  V30 4145 H 395.732 4.37467 -0.389815 0
M  V30 4146 H 396.338 3.77851 -1.95214 0
M  V30 4147 N 394.653 0.992116 1.22453 0
M  V30 4148 C 395.878 0.685644 1.95739 0
M  V30 4149 C 396.303 -0.743 1.72804 0
M  V30 4150 O 395.661 -1.50778 1.00676 0
M  V30 4151 C 395.709 0.996293 3.46564 0
M  V30 4152 O 394.813 0.0945512 4.12292 0
M  V30 4153 H 394.154 0.256694 0.612376 0
M  V30 4154 H 396.684 1.32888 1.5557 0
M  V30 4155 H 396.694 0.93781 3.97076 0
M  V30 4156 H 395.369 2.03733 3.62582 0
M  V30 4157 H 393.946 0.208451 3.72317 0
M  V30 4158 N 396.131 -1.37776 0.765217 0
M  V30 4159 C 397.408 -1.93975 0.251596 0
M  V30 4160 C 397.788 -1.69949 -1.25222 0
M  V30 4161 O 397.136 -1.04457 -2.03226 0
M  V30 4162 C 397.346 -3.43487 0.617895 0
M  V30 4163 C 398.694 -4.20564 0.584029 0
M  V30 4164 O 399.718 -3.5182 0.556888 0
M  V30 4165 O 398.577 -5.43138 0.605291 0
M  V30 4166 H 395.671 -0.82509 0.0561806 0
M  V30 4167 H 398.217 -1.47101 0.846128 0
M  V30 4168 H 396.989 -3.5453 1.65602 0
M  V30 4169 H 396.612 -3.976 -0.00403411 0
M  V30 4170 N 397.609 -0.515225 -1.4894 0
M  V30 4171 C 398.557 0.269115 -2.31038 0
M  V30 4172 C 399.551 0.949443 -1.40292 0
M  V30 4173 O 400.757 0.87551 -1.57273 0
M  V30 4174 H 397.132 0.10565 -0.744542 0
M  V30 4175 H 399.103 -0.443096 -2.95092 0
M  V30 4176 C 397.852 1.31213 -3.21991 0
M  V30 4177 H 397.175 0.798034 -3.91754 0
M  V30 4178 H 398.615 1.83263 -3.82349 0
M  V30 4179 C 397.074 2.33791 -2.42576 0
M  V30 4180 O 397.604 3.3995 -2.14003 0
M  V30 4181 N 395.81 2.06625 -2.0434 0
M  V30 4182 H 395.357 1.20314 -2.27777 0
M  V30 4183 H 395.315 2.75483 -1.51514 0
M  V30 4184 N 399.087 1.5561 -0.249682 0
M  V30 4185 C 400.037 2.18157 0.662673 0
M  V30 4186 C 401.021 1.1383 1.13717 0
M  V30 4187 O 402.213 1.39731 1.08648 0
M  V30 4188 C 399.342 2.88672 1.85805 0
M  V30 4189 C 398.428 4.00258 1.40193 0
M  V30 4190 N 398.819 5.01473 0.660213 0
M  V30 4191 C 397.117 4.12864 1.68698 0
M  V30 4192 C 397.818 5.80155 0.423695 0
M  V30 4193 N 396.794 5.34533 0.988721 0
M  V30 4194 H 400.596 2.93769 0.0878688 0
M  V30 4195 H 398.11 1.62316 -0.0521183 0
M  V30 4196 H 400.107 3.31912 2.5227 0
M  V30 4197 H 398.767 2.14564 2.43705 0
M  V30 4198 H 399.778 5.16971 0.310047 0
M  V30 4199 H 396.455 3.4993 2.27717 0
M  V30 4200 H 397.845 6.71688 -0.168616 0
M  V30 4201 N 400.565 -0.0233959 1.57583 0
M  V30 4202 C 401.813 -0.711654 1.89156 0
M  V30 4203 C 402.134 -1.75591 0.848096 0
M  V30 4204 O 401.404 -1.95547 -0.117566 0
M  V30 4205 H 399.984 -0.265835 0.698098 0
M  V30 4206 H 402.646 0.0119948 1.94896 0
M  V30 4207 H 401.742 -1.19766 2.88206 0
M  V30 4208 N 402.043 -1.548 -0.295768 0
M  V30 4209 C 403.006 -1.85363 -1.34808 0
M  V30 4210 C 404.006 -0.726817 -1.43436 0
M  V30 4211 O 405.196 -0.995088 -1.42981 0
M  V30 4212 C 402.328 -2.03859 -2.73229 0
M  V30 4213 H 403.521 -2.7941 -1.08949 0
M  V30 4214 H 401.074 -1.46942 -0.532702 0
M  V30 4215 H 401.809 -1.12117 -3.04303 0
M  V30 4216 H 401.594 -2.8588 -2.68356 0
M  V30 4217 H 403.084 -2.28857 -3.49305 0
M  V30 4218 N 403.521 0.559213 -1.47345 0
M  V30 4219 C 404.749 1.34194 -1.57479 0
M  V30 4220 C 405.164 1.87463 -0.224261 0
M  V30 4221 O 404.521 1.64888 0.782185 0
M  V30 4222 C 404.572 2.51324 -2.59843 0
M  V30 4223 O 404.293 2.00256 -3.89653 0
M  V30 4224 C 405.794 3.43563 -2.80142 0
M  V30 4225 H 403.014 0.409136 -0.531835 0
M  V30 4226 H 405.558 0.677609 -1.92947 0
M  V30 4227 H 403.713 3.13699 -2.27314 0
M  V30 4228 H 404.127 2.76708 -4.4557 0
M  V30 4229 H 405.601 4.2217 -3.55635 0
M  V30 4230 H 406.078 3.9698 -1.87892 0
M  V30 4231 H 406.684 2.87005 -3.1386 0
M  V30 4232 N 404.999 1.35443 0.805782 0
M  V30 4233 C 406.229 1.31687 1.59192 0
M  V30 4234 C 406.637 -0.10756 1.88894 0
M  V30 4235 O 405.98 -1.07017 1.49309 0
M  V30 4236 C 406.042 2.05686 2.94845 0
M  V30 4237 C 405.706 3.54868 2.87954 0
M  V30 4238 C 406.703 4.49444 2.61335 0
M  V30 4239 C 404.388 3.97528 3.07046 0
M  V30 4240 C 406.382 5.84655 2.53885 0
M  V30 4241 C 404.069 5.32833 2.99219 0
M  V30 4242 C 405.067 6.26209 2.72674 0
M  V30 4243 O 404.755 7.59032 2.64811 0
M  V30 4244 H 404.487 0.453878 0.50097 0
M  V30 4245 H 407.041 1.78892 1.0093 0
M  V30 4246 H 405.271 1.5312 3.55093 0
M  V30 4247 H 406.96 1.94998 3.55993 0
M  V30 4248 H 407.726 4.17804 2.46303 0
M  V30 4249 H 403.605 3.25233 3.26718 0
M  V30 4250 H 407.149 6.57508 2.33086 0
M  V30 4251 H 403.046 5.64087 3.13809 0
M  V30 4252 H 403.814 7.68967 2.80413 0
M  V30 4253 N 406.477 -1.02803 1.19454 0
M  V30 4254 C 407.44 -2.09264 0.934955 0
M  V30 4255 C 408.44 -1.60576 -0.0849015 0
M  V30 4256 O 409.63 -1.73554 0.149933 0
M  V30 4257 C 406.762 -3.38482 0.40531 0
M  V30 4258 H 407.955 -2.33726 1.87916 0
M  V30 4259 H 405.508 -1.19426 1.00832 0
M  V30 4260 H 406.243 -3.19689 -0.544899 0
M  V30 4261 H 406.028 -3.75142 1.14065 0
M  V30 4262 H 407.518 -4.16894 0.242806 0
M  V30 4263 N 407.956 -0.998596 -1.21925 0
M  V30 4264 C 409.203 -0.677663 -1.90824 0
M  V30 4265 C 409.531 0.790905 -1.77693 0
M  V30 4266 O 408.786 1.58817 -1.14349 0
M  V30 4267 C 409.085 -1.03648 -3.42041 0
M  V30 4268 C 408.751 -2.49825 -3.75364 0
M  V30 4269 C 407.413 -2.8977 -3.8417 0
M  V30 4270 C 409.765 -3.44545 -3.91073 0
M  V30 4271 C 407.093 -4.23412 -4.06127 0
M  V30 4272 C 409.445 -4.77853 -4.14535 0
M  V30 4273 C 408.109 -5.17531 -4.21566 0
M  V30 4274 H 407.379 -0.247975 -0.698276 0
M  V30 4275 H 410.026 -1.25584 -1.44571 0
M  V30 4276 H 408.331 -0.376457 -3.89987 0
M  V30 4277 H 410.028 -0.766113 -3.93614 0
M  V30 4278 H 406.618 -2.17866 -3.69097 0
M  V30 4279 H 410.802 -3.14853 -3.83642 0
M  V30 4280 H 406.058 -4.53734 -4.09799 0
M  V30 4281 H 410.232 -5.51189 -4.25633 0
M  V30 4282 H 407.859 -6.21102 -4.38333 0
M  V30 4283 N 409.434 1.37368 -0.772513 0
M  V30 4284 C 410.659 2.0447 -0.347386 0
M  V30 4285 C 411.084 1.57882 1.0225 0
M  V30 4286 O 410.442 0.73941 1.65537 0
M  V30 4287 C 410.49 3.58369 -0.400479 0
M  V30 4288 O 409.594 4.0803 0.598789 0
M  V30 4289 H 408.935 0.646773 -0.15027 0
M  V30 4290 H 411.465 1.75667 -1.04892 0
M  V30 4291 H 411.475 4.07183 -0.258045 0
M  V30 4292 H 410.15 3.91633 -1.39986 0
M  V30 4293 H 408.727 3.70534 0.419411 0
M  V30 4294 N 410.912 0.523116 1.48665 0
M  V30 4295 C 412.16 -0.0134497 2.02096 0
M  V30 4296 C 412.481 -1.35418 1.40311 0
M  V30 4297 O 411.751 -1.87543 0.566074 0
M  V30 4298 H 410.331 -0.00795915 0.746958 0
M  V30 4299 H 412.993 0.685388 1.82451 0
M  V30 4300 H 412.089 -0.126849 3.11842 0
M  V30 4301 N 412.39 -1.55475 0.257931 0
M  V30 4302 C 413.618 -2.03609 -0.367559 0
M  V30 4303 C 414.033 -1.13687 -1.50734 0
M  V30 4304 O 413.39 -0.153479 -1.81853 0
M  V30 4305 C 413.441 -3.51001 -0.864908 0
M  V30 4306 O 413.162 -4.37499 0.229465 0
M  V30 4307 C 414.663 -4.14946 -1.55997 0
M  V30 4308 H 411.883 -0.665459 -0.0860521 0
M  V30 4309 H 414.427 -2.00843 0.385014 0
M  V30 4310 H 412.582 -3.54266 -1.56762 0
M  V30 4311 H 412.996 -5.24286 -0.14998 0
M  V30 4312 H 414.47 -5.19735 -1.85956 0
M  V30 4313 H 414.947 -3.6209 -2.4857 0
M  V30 4314 H 415.553 -4.15635 -0.901543 0
M  V30 4315 N 413.868 0.0150385 -1.57593 0
M  V30 4316 C 414.818 1.01943 -2.0394 0
M  V30 4317 C 415.802 1.31209 -0.931286 0
M  V30 4318 O 416.994 1.30559 -1.19513 0
M  V30 4319 C 414.123 2.31621 -2.53391 0
M  V30 4320 C 413.209 2.05384 -3.7105 0
M  V30 4321 N 413.6 1.49253 -4.83278 0
M  V30 4322 C 411.898 2.35601 -3.78693 0
M  V30 4323 C 412.599 1.39143 -5.64813 0
M  V30 4324 N 411.575 1.87187 -5.10355 0
M  V30 4325 H 415.377 0.57969 -2.88126 0
M  V30 4326 H 412.891 0.221056 -1.60888 0
M  V30 4327 H 414.888 3.044 -2.84862 0
M  V30 4328 H 413.548 2.76261 -1.70616 0
M  V30 4329 H 414.559 1.17334 -5.04433 0
M  V30 4330 H 411.236 2.8322 -3.06746 0
M  V30 4331 H 412.626 0.961153 -6.6499 0
M  V30 4332 N 415.346 1.54954 0.287554 0
M  V30 4333 C 416.576 1.78622 1.03816 0
M  V30 4334 C 416.984 0.552451 1.80955 0
M  V30 4335 O 416.327 -0.487665 1.77109 0
M  V30 4336 C 416.389 2.94975 2.055 0
M  V30 4337 C 416.053 4.32565 1.47433 0
M  V30 4338 C 417.05 5.12096 0.897436 0
M  V30 4339 C 414.735 4.79195 1.50591 0
M  V30 4340 C 416.729 6.36383 0.359851 0
M  V30 4341 C 414.416 6.03441 0.964459 0
M  V30 4342 C 415.414 6.81872 0.392413 0
M  V30 4343 O 415.102 8.03777 -0.140788 0
M  V30 4344 H 414.834 0.599144 0.313053 0
M  V30 4345 H 417.388 2.02761 0.328225 0
M  V30 4346 H 415.618 2.66493 2.80211 0
M  V30 4347 H 417.307 3.06097 2.6657 0
M  V30 4348 H 418.073 4.77209 0.865841 0
M  V30 4349 H 413.952 4.18167 1.94055 0
M  V30 4350 H 417.496 6.97545 -0.0872951 0
M  V30 4351 H 413.393 6.37813 0.993246 0
M  V30 4352 H 414.161 8.18495 -0.0287617 0
M  V30 4353 N 416.824 -0.551391 1.4764 0
M  V30 4354 C 418.07 -1.30789 1.55774 0
M  V30 4355 C 418.425 -1.91143 0.219562 0
M  V30 4356 O 417.718 -1.7521 -0.775375 0
M  V30 4357 C 417.912 -2.43469 2.61644 0
M  V30 4358 C 417.741 -1.94157 4.05627 0
M  V30 4359 C 416.511 -1.77734 4.7301 0
M  V30 4360 C 418.709 -1.48262 4.92466 0
M  V30 4361 N 416.691 -1.22823 6.01488 0
M  V30 4362 C 418.062 -1.05156 6.11017 0
M  V30 4363 C 420.117 -1.36367 4.78862 0
M  V30 4364 C 418.82 -0.513357 7.17466 0
M  V30 4365 C 420.846 -0.839484 5.85411 0
M  V30 4366 C 420.208 -0.418377 7.03156 0
M  V30 4367 H 416.307 -0.470406 0.624694 0
M  V30 4368 H 418.891 -0.624331 1.84419 0
M  V30 4369 H 417.062 -3.09348 2.34859 0
M  V30 4370 H 418.794 -3.10477 2.59589 0
M  V30 4371 H 415.549 -2.00623 4.29007 0
M  V30 4372 H 415.973 -0.974393 6.69951 0
M  V30 4373 H 420.615 -1.67535 3.88191 0
M  V30 4374 H 418.333 -0.189318 8.07878 0
M  V30 4375 H 421.919 -0.750921 5.76934 0
M  V30 4376 H 420.799 -0.0190538 7.84198 0
M  V30 4377 N 418.302 -1.35869 -0.798587 0
M  V30 4378 C 419.718 -1.16082 -1.09532 0
M  V30 4379 C 419.918 0.0213124 -2.01489 0
M  V30 4380 O 418.974 0.689488 -2.42904 0
M  V30 4381 C 420.287 -2.46748 -1.7186 0
M  V30 4382 C 421.835 -2.53028 -1.84244 0
M  V30 4383 C 422.31 -3.83758 -2.49988 0
M  V30 4384 N 423.801 -3.85053 -2.57465 0
M  V30 4385 C 424.536 -4.8294 -3.09122 0
M  V30 4386 N 424.032 -5.91217 -3.61157 0
M  V30 4387 N 425.825 -4.70369 -3.0775 0
M  V30 4388 H 417.976 -2.11571 -0.187461 0
M  V30 4389 H 420.239 -0.936726 -0.145765 0
M  V30 4390 H 419.945 -3.33471 -1.11759 0
M  V30 4391 H 419.819 -2.61883 -2.71472 0
M  V30 4392 H 422.206 -1.66729 -2.43486 0
M  V30 4393 H 422.287 -2.418 -0.834643 0
M  V30 4394 H 421.931 -4.70459 -1.91393 0
M  V30 4395 H 421.861 -3.92278 -3.5132 0
M  V30 4396 H 424.352 -3.06822 -2.20609 0
M  V30 4397 H 424.665 -6.61892 -3.98896 0
M  V30 4398 H 423.01 -5.94899 -3.59333 0
M  V30 4399 H 426.201 -3.84914 -2.66381 0
M  V30 4400 H 426.374 -5.46816 -3.47701 0
M  V30 4401 N 419.78 1.02168 -1.19998 0
M  V30 4402 C 420.71 2.12488 -0.96804 0
M  V30 4403 C 421.691 1.69799 0.101185 0
M  V30 4404 O 422.876 1.94121 -0.0552993 0
M  V30 4405 C 420.006 3.43479 -0.513776 0
M  V30 4406 C 418.96 3.99884 -1.52566 0
M  V30 4407 C 418.286 5.26582 -0.928214 0
M  V30 4408 C 419.586 4.33861 -2.90795 0
M  V30 4409 H 421.28 2.32149 -1.89069 0
M  V30 4410 H 418.826 1.11564 -0.910468 0
M  V30 4411 H 420.779 4.20036 -0.338774 0
M  V30 4412 H 419.503 3.23561 0.444493 0
M  V30 4413 H 418.162 3.25429 -1.68794 0
M  V30 4414 H 417.81 5.02986 0.0378289 0
M  V30 4415 H 417.51 5.65284 -1.60397 0
M  V30 4416 H 419.034 6.05799 -0.764167 0
M  V30 4417 H 420.448 5.01327 -2.78109 0
M  V30 4418 H 418.845 4.83664 -3.55231 0
M  V30 4419 H 419.915 3.42848 -3.42904 0
M  V30 4420 N 421.258 1.00505 1.21394 0
M  V30 4421 C 422.535 0.603277 1.86064 0
M  V30 4422 C 422.915 -0.919095 1.90042 0
M  V30 4423 O 422.263 -1.80607 1.39977 0
M  V30 4424 C 422.473 1.23772 3.26315 0
M  V30 4425 C 423.821 1.34586 4.02705 0
M  V30 4426 O 424.845 1.19304 3.35626 0
M  V30 4427 O 423.704 1.59169 5.22807 0
M  V30 4428 H 420.798 0.206634 0.800769 0
M  V30 4429 H 423.344 1.1017 1.29076 0
M  V30 4430 H 422.116 2.27848 3.18121 0
M  V30 4431 H 421.739 0.725648 3.90922 0
M  V30 4432 N 422.737 -1.36956 0.779787 0
M  V30 4433 C 423.965 -2.03755 0.359398 0
M  V30 4434 C 424.38 -1.58807 -1.02106 0
M  V30 4435 O 423.737 -0.773024 -1.6532 0
M  V30 4436 C 423.788 -3.59251 0.402568 0
M  V30 4437 O 423.509 -4.02557 1.72858 0
M  V30 4438 C 425.01 -4.43291 -0.0284068 0
M  V30 4439 H 422.23 -0.654148 0.149437 0
M  V30 4440 H 424.774 -1.75128 1.05595 0
M  V30 4441 H 422.929 -3.86621 -0.245478 0
M  V30 4442 H 423.343 -4.97111 1.67275 0
M  V30 4443 H 424.817 -5.51975 0.0529466 0
M  V30 4444 H 425.294 -4.25719 -1.07982 0
M  V30 4445 H 425.9 -4.21163 0.591758 0
M  V30 4446 N 424.215 -0.530993 -1.48385 0
M  V30 4447 C 425.44 0.000729535 -2.074 0
M  V30 4448 C 425.865 1.27298 -1.3848 0
M  V30 4449 O 425.223 1.75599 -0.451081 0
M  V30 4450 C 425.271 0.206697 -3.60007 0
M  V30 4451 O 424.375 1.27514 -3.92191 0
M  V30 4452 H 423.716 -0.039583 -0.662819 0
M  V30 4453 H 426.246 -0.739194 -1.9078 0
M  V30 4454 H 426.256 0.42904 -4.05738 0
M  V30 4455 H 424.931 -0.722675 -4.09573 0
M  V30 4456 H 423.508 1.03537 -3.58238 0
M  V30 4457 N 425.693 1.55336 -0.266172 0
M  V30 4458 C 427.109 1.59356 0.0882065 0
M  V30 4459 C 427.309 1.2834 1.55342 0
M  V30 4460 O 426.365 1.03996 2.30089 0
M  V30 4461 C 427.678 2.99409 -0.278364 0
M  V30 4462 C 429.226 3.12196 -0.224243 0
M  V30 4463 C 429.701 4.545 -0.565123 0
M  V30 4464 N 431.192 4.60313 -0.51634 0
M  V30 4465 C 431.927 5.68434 -0.753013 0
M  V30 4466 N 431.423 6.84738 -1.05383 0
M  V30 4467 N 433.216 5.57942 -0.682414 0
M  V30 4468 H 425.367 1.73764 -1.22147 0
M  V30 4469 H 427.63 0.809822 -0.492841 0
M  V30 4470 H 427.336 3.2691 -1.29703 0
M  V30 4471 H 427.21 3.75228 0.385186 0
M  V30 4472 H 429.597 2.84464 0.78512 0
M  V30 4473 H 429.678 2.38609 -0.921922 0
M  V30 4474 H 429.322 4.82956 -1.57213 0
M  V30 4475 H 429.252 5.26374 0.154248 0
M  V30 4476 H 431.743 3.7676 -0.29335 0
M  V30 4477 H 432.056 7.63088 -1.22133 0
M  V30 4478 H 430.401 6.86375 -1.09151 0
M  V30 4479 H 433.592 4.65958 -0.44731 0
M  V30 4480 H 433.765 6.4213 -0.870248 0
M  V30 4481 N 427.171 -0.0066808 1.57599 0
M  V30 4482 C 428.448 -0.729586 1.81484 0
M  V30 4483 C 428.828 -1.92359 0.869558 0
M  V30 4484 O 428.176 -2.28348 -0.0832533 0
M  V30 4485 C 428.386 -1.1416 3.29801 0
M  V30 4486 C 429.734 -1.54823 3.95367 0
M  V30 4487 O 430.758 -1.23558 3.34084 0
M  V30 4488 O 429.617 -2.12937 5.03309 0
M  V30 4489 H 426.711 -0.354674 0.747085 0
M  V30 4490 H 429.257 0.0182609 1.6969 0
M  V30 4491 H 428.029 -0.290231 3.90222 0
M  V30 4492 H 427.652 -1.94876 3.46568 0
M  V30 4493 N 428.649 -1.55105 -0.279332 0
M  V30 4494 C 429.897 -1.75066 -1.00977 0
M  V30 4495 C 430.218 -0.551276 -1.87045 0
M  V30 4496 O 429.488 0.433984 -1.91032 0
M  V30 4497 H 428.068 -0.645578 -0.375816 0
M  V30 4498 H 430.73 -1.92497 -0.305089 0
M  V30 4499 H 429.826 -2.64894 -1.65038 0
M  V30 4500 N 430.127 0.543554 -1.4793 0
M  V30 4501 C 431.373 1.29961 -1.56466 0
M  V30 4502 C 431.728 1.91024 -0.229696 0
M  V30 4503 O 431.021 1.75619 0.766072 0
M  V30 4504 C 431.215 2.42078 -2.62932 0
M  V30 4505 C 431.044 1.92003 -4.06651 0
M  V30 4506 C 429.814 1.75223 -4.73946 0
M  V30 4507 C 432.012 1.45648 -4.93245 0
M  V30 4508 N 429.994 1.19632 -6.02131 0
M  V30 4509 C 431.365 1.01914 -6.11566 0
M  V30 4510 C 433.42 1.33826 -4.79578 0
M  V30 4511 C 432.123 0.475301 -7.17728 0
M  V30 4512 C 434.149 0.808427 -5.85848 0
M  V30 4513 C 433.511 0.381081 -7.03368 0
M  V30 4514 H 429.61 0.467086 -0.62718 0
M  V30 4515 H 432.194 0.614543 -1.84747 0
M  V30 4516 H 430.365 3.08098 -2.36496 0
M  V30 4517 H 432.097 3.09096 -2.61231 0
M  V30 4518 H 428.852 1.98345 -4.30065 0
M  V30 4519 H 429.276 0.93885 -6.70458 0
M  V30 4520 H 433.918 1.65474 -3.89074 0
M  V30 4521 H 431.636 0.146472 -8.07967 0
M  V30 4522 H 435.222 0.720315 -5.77324 0
M  V30 4523 H 434.102 -0.0225344 -7.84197 0
M  V30 4524 N 431.605 1.3629 0.791371 0
M  V30 4525 C 432.555 1.26988 1.89362 0
M  V30 4526 C 433.539 0.161795 1.60084 0
M  V30 4527 O 434.731 0.394426 1.72549 0
M  V30 4528 C 431.86 1.05944 3.26544 0
M  V30 4529 C 430.946 2.21211 3.61838 0
M  V30 4530 N 431.337 3.46518 3.68455 0
M  V30 4531 C 429.635 2.12933 3.91887 0
M  V30 4532 C 430.336 4.2241 3.99931 0
M  V30 4533 N 429.312 3.51329 4.14812 0
M  V30 4534 H 433.114 2.21908 1.92702 0
M  V30 4535 H 430.628 1.28982 0.986787 0
M  V30 4536 H 432.625 0.973666 4.05371 0
M  V30 4537 H 431.285 0.119223 3.24481 0
M  V30 4538 H 432.296 3.80677 3.51148 0
M  V30 4539 H 428.973 1.26855 3.97761 0
M  V30 4540 H 430.363 5.30767 4.1199 0
M  V30 4541 N 433.083 -1.0153 1.20538 0
M  V30 4542 C 434.308 -1.79283 1.04271 0
M  V30 4543 C 434.733 -1.8372 -0.403544 0
M  V30 4544 O 434.091 -1.27321 -1.2907 0
M  V30 4545 C 434.139 -3.21535 1.63241 0
M  V30 4546 O 433.243 -4.03099 0.870908 0
M  V30 4547 H 432.584 -0.55293 0.367647 0
M  V30 4548 H 435.114 -1.27696 1.59859 0
M  V30 4549 H 435.124 -3.72243 1.6703 0
M  V30 4550 H 433.799 -3.1762 2.68497 0
M  V30 4551 H 432.376 -3.61693 0.907323 0
M  V30 4552 N 434.561 -1.01147 -1.20859 0
M  V30 4553 C 435.807 -0.708598 -1.90658 0
M  V30 4554 C 436.162 0.753069 -1.7705 0
M  V30 4555 O 435.455 1.53952 -1.14059 0
M  V30 4556 C 435.649 -1.0727 -3.40922 0
M  V30 4557 C 435.478 -2.56821 -3.69152 0
M  V30 4558 C 434.248 -3.23524 -3.8815 0
M  V30 4559 C 436.446 -3.54997 -3.72131 0
M  V30 4560 N 434.428 -4.62359 -4.03853 0
M  V30 4561 C 435.799 -4.79371 -3.93196 0
M  V30 4562 C 437.854 -3.49042 -3.55069 0
M  V30 4563 C 436.557 -5.98512 -3.98969 0
M  V30 4564 C 438.583 -4.67579 -3.6211 0
M  V30 4565 C 437.945 -5.9076 -3.83643 0
M  V30 4566 H 434.044 -0.31088 -0.71755 0
M  V30 4567 H 436.628 -1.29526 -1.45366 0
M  V30 4568 H 434.799 -0.51443 -3.84978 0
M  V30 4569 H 436.531 -0.723891 -3.98173 0
M  V30 4570 H 433.286 -2.73958 -3.86321 0
M  V30 4571 H 433.71 -5.34427 -4.15592 0
M  V30 4572 H 438.352 -2.54808 -3.37391 0
M  V30 4573 H 436.07 -6.93132 -4.15444 0
M  V30 4574 H 439.656 -4.64581 -3.50222 0
M  V30 4575 H 438.536 -6.8095 -3.88944 0
M  V30 4576 N 436.039 1.36541 -0.78704 0
M  V30 4577 C 437.45 1.81873 -0.421807 0
M  V30 4578 C 437.801 1.65487 1.05397 0
M  V30 4579 O 436.926 1.17448 1.81755 0
M  V30 4580 C 437.521 3.30192 -0.758841 0
M  V30 4581 C 436.08 3.73743 -0.446468 0
M  V30 4582 C 435.227 2.58844 -0.994728 0
M  V30 4583 H 438.178 1.24796 -0.98039 0
M  V30 4584 H 438.199 3.80468 -0.0490648 0
M  V30 4585 H 437.711 3.42087 -1.83299 0
M  V30 4586 H 435.812 3.6741 0.619739 0
M  V30 4587 H 435.925 4.69272 -0.965415 0
M  V30 4588 H 434.289 2.51245 -0.418087 0
M  V30 4589 H 435.072 2.73525 -2.07458 0
M  V30 4590 N 437.518 0.538854 1.48102 0
M  V30 4591 C 438.767 0.0059532 2.01699 0
M  V30 4592 C 439.08 -1.34476 1.42041 0
M  V30 4593 O 440.286 -1.96653 1.87189 0
M  V30 4594 C 438.742 -0.0397627 3.59878 0
M  V30 4595 C 438.35 1.30659 4.28523 0
M  V30 4596 C 440.094 -0.521024 4.2129 0
M  V30 4597 C 438.001 1.22098 5.78659 0
M  V30 4598 H 436.931 -0.00154456 0.753998 0
M  V30 4599 H 439.582 0.683963 1.70277 0
M  V30 4600 H 437.964 -0.783037 3.88181 0
M  V30 4601 H 439.138 2.06613 4.11883 0
M  V30 4602 H 437.453 1.7243 3.79021 0
M  V30 4603 H 440.05 -0.603184 5.31287 0
M  V30 4604 H 440.393 -1.52885 3.8721 0
M  V30 4605 H 440.926 0.166834 3.9745 0
M  V30 4606 H 437.665 2.20424 6.17328 0
M  V30 4607 H 437.185 0.50295 5.97688 0
M  V30 4608 H 438.864 0.915345 6.40492 0
M  V30 4609 N 438.996 -1.55193 0.274407 0
M  V30 4610 C 439.959 -2.212 -0.600279 0
M  V30 4611 C 440.959 -1.18963 -1.08187 0
M  V30 4612 O 442.149 -1.43873 -0.982158 0
M  V30 4613 C 439.281 -2.87739 -1.82809 0
M  V30 4614 H 440.474 -2.9989 -0.0239682 0
M  V30 4615 H 438.027 -1.5628 0.0250192 0
M  V30 4616 H 438.762 -2.13058 -2.44493 0
M  V30 4617 H 438.547 -3.62658 -1.49069 0
M  V30 4618 H 440.037 -3.38171 -2.45011 0
M  V30 4619 N 440.474 -0.00167713 -1.576 0
M  V30 4620 C 441.424 0.997744 -2.0501 0
M  V30 4621 C 442.408 1.30214 -0.94515 0
M  V30 4622 O 443.6 1.29284 -1.20891 0
M  V30 4623 C 440.729 2.2892 -2.55833 0
M  V30 4624 C 439.815 2.01437 -3.73208 0
M  V30 4625 N 440.206 1.44119 -4.84833 0
M  V30 4626 C 438.504 2.31571 -3.8117 0
M  V30 4627 C 439.205 1.33145 -5.66257 0
M  V30 4628 N 438.181 1.81763 -5.12312 0
M  V30 4629 H 441.983 0.549098 -2.88725 0
M  V30 4630 H 439.497 0.20398 -1.61114 0
M  V30 4631 H 441.494 3.01361 -2.88075 0
M  V30 4632 H 440.154 2.74436 -1.73537 0
M  V30 4633 H 441.165 1.11978 -5.0565 0
M  V30 4634 H 437.842 2.7995 -3.09732 0
M  V30 4635 H 439.232 0.890567 -6.65972 0
M  V30 4636 N 441.952 1.55251 0.271103 0
M  V30 4637 C 442.884 1.84675 1.35749 0
M  V30 4638 C 443.897 0.731366 1.45447 0
M  V30 4639 O 445.086 1.00924 1.4723 0
M  V30 4640 C 442.186 1.99638 2.73857 0
M  V30 4641 C 441.359 3.30312 2.86727 0
M  V30 4642 C 440.418 3.35318 4.05522 0
M  V30 4643 O 439.444 4.08682 3.96191 0
M  V30 4644 N 440.646 2.62857 5.17577 0
M  V30 4645 H 443.411 2.78445 1.10853 0
M  V30 4646 H 440.972 1.55191 0.461218 0
M  V30 4647 H 442.964 2.00355 3.51625 0
M  V30 4648 H 441.534 1.12725 2.91568 0
M  V30 4649 H 440.754 3.42118 1.95829 0
M  V30 4650 H 442.042 4.16488 2.92258 0
M  V30 4651 H 441.44 2.02939 5.28046 0
M  V30 4652 H 439.997 2.69295 5.93568 0
M  V30 4653 N 443.43 -0.535701 1.48216 0
M  V30 4654 C 444.676 -1.2913 1.57153 0
M  V30 4655 C 445.031 -1.90899 0.239823 0
M  V30 4656 O 444.324 -1.76022 -0.756748 0
M  V30 4657 C 444.518 -2.4068 2.64212 0
M  V30 4658 C 444.347 -1.89844 4.07663 0
M  V30 4659 C 443.117 -1.72708 4.74869 0
M  V30 4660 C 445.315 -1.43031 4.94011 0
M  V30 4661 N 443.297 -1.16437 6.02757 0
M  V30 4662 C 444.668 -0.986691 6.12098 0
M  V30 4663 C 446.723 -1.3128 4.80281 0
M  V30 4664 C 445.426 -0.437231 7.1797 0
M  V30 4665 C 447.452 -0.777346 5.86269 0
M  V30 4666 C 446.814 -0.343774 7.03561 0
M  V30 4667 H 442.913 -0.463753 0.629648 0
M  V30 4668 H 445.497 -0.604736 1.8507 0
M  V30 4669 H 443.668 -3.06839 2.38126 0
M  V30 4670 H 445.4 -3.07706 2.62867 0
M  V30 4671 H 442.155 -1.96061 4.31111 0
M  V30 4672 H 442.579 -0.903281 6.70947 0
M  V30 4673 H 447.221 -1.63408 3.89946 0
M  V30 4674 H 444.939 -0.103621 8.08034 0
M  V30 4675 H 448.525 -0.689688 5.77698 0
M  V30 4676 H 447.405 0.0641219 7.84174 0
M  V30 4677 N 444.908 -1.36708 -0.784132 0
M  V30 4678 C 446.319 -1.27947 -1.35965 0
M  V30 4679 C 446.67 0.0784013 -1.96043 0
M  V30 4680 O 445.795 0.979989 -1.92938 0
M  V30 4681 C 446.39 -2.31689 -2.47195 0
M  V30 4682 C 444.949 -2.26601 -3.00548 0
M  V30 4683 C 444.096 -2.16184 -1.73666 0
M  V30 4684 H 447.047 -1.4751 -0.585358 0
M  V30 4685 H 447.068 -1.95638 -3.26352 0
M  V30 4686 H 446.58 -3.30506 -2.03439 0
M  V30 4687 H 444.681 -1.31268 -3.48711 0
M  V30 4688 H 444.794 -3.19508 -3.57004 0
M  V30 4689 H 443.158 -1.62524 -1.96107 0
M  V30 4690 H 443.941 -3.16896 -1.32031 0
M  V30 4691 N 446.386 1.0089 -1.21074 0
M  V30 4692 C 447.318 2.09737 -0.924291 0
M  V30 4693 C 448.331 1.62546 0.0909809 0
M  V30 4694 O 449.52 1.77942 -0.141021 0
M  V30 4695 C 446.62 3.36922 -0.36559 0
M  V30 4696 C 445.793 4.13216 -1.43426 0
M  V30 4697 C 444.852 5.18696 -0.885496 0
M  V30 4698 O 443.878 5.47176 -1.56801 0
M  V30 4699 N 445.08 5.79718 0.301227 0
M  V30 4700 H 447.845 2.34895 -1.8613 0
M  V30 4701 H 445.406 1.17341 -1.11546 0
M  V30 4702 H 447.398 4.04697 0.0158407 0
M  V30 4703 H 445.968 3.08952 0.476149 0
M  V30 4704 H 445.188 3.40301 -1.9897 0
M  V30 4705 H 446.476 4.60967 -2.15376 0
M  V30 4706 H 445.874 5.58926 0.872849 0
M  V30 4707 H 444.431 6.48804 0.624211 0
M  V30 4708 N 447.864 1.01787 1.20321 0
M  V30 4709 C 449.112 0.706538 1.89347 0
M  V30 4710 C 449.433 -0.766289 1.79313 0
M  V30 4711 O 448.703 -1.55126 1.19635 0
M  V30 4712 H 447.283 0.258348 0.700903 0
M  V30 4713 H 449.945 1.28974 1.46122 0
M  V30 4714 H 449.041 0.991066 2.95946 0
M  V30 4715 N 449.342 -1.36122 0.79427 0
M  V30 4716 C 450.753 -1.81646 0.431446 0
M  V30 4717 C 451.104 -1.66043 -1.04518 0
M  V30 4718 O 450.229 -1.1841 -1.8113 0
M  V30 4719 C 450.824 -3.29785 0.776341 0
M  V30 4720 C 449.383 -3.73501 0.466282 0
M  V30 4721 C 448.53 -2.58313 1.00844 0
M  V30 4722 H 451.481 -1.24274 0.986995 0
M  V30 4723 H 451.502 -3.80437 0.0692413 0
M  V30 4724 H 451.014 -3.4111 1.8511 0
M  V30 4725 H 449.115 -3.67733 -0.600245 0
M  V30 4726 H 449.228 -4.68754 0.990288 0
M  V30 4727 H 447.592 -2.5102 0.431406 0
M  V30 4728 H 448.375 -2.72421 2.08906 0
M  V30 4729 N 450.82 -0.546701 -1.47814 0
M  V30 4730 C 452.045 -0.021268 -2.07389 0
M  V30 4731 C 452.47 1.25822 -1.39822 0
M  V30 4732 O 451.828 1.75111 -0.46968 0
M  V30 4733 C 451.876 0.168502 -3.60206 0
M  V30 4734 O 450.98 1.23347 -3.93522 0
M  V30 4735 H 450.321 -0.0466108 -0.662362 0
M  V30 4736 H 452.851 -0.759387 -1.89985 0
M  V30 4737 H 452.861 0.385982 -4.0617 0
M  V30 4738 H 451.536 -0.766075 -4.08784 0
M  V30 4739 H 450.113 0.997319 -3.59316 0
M  V30 4740 N 452.299 1.55045 -0.282633 0
M  V30 4741 C 453.262 2.21515 0.588539 0
M  V30 4742 C 454.262 1.19535 1.07554 0
M  V30 4743 O 455.452 1.44391 0.974514 0
M  V30 4744 C 452.584 2.88704 1.8128 0
M  V30 4745 H 453.777 2.99899 0.00806397 0
M  V30 4746 H 451.33 1.56265 -0.0333067 0
M  V30 4747 H 452.065 2.14352 2.43359 0
M  V30 4748 H 451.85 3.63443 1.47144 0
M  V30 4749 H 453.34 3.39465 2.43214 0
M  V30 4750 N 453.777 0.010035 1.57597 0
M  V30 4751 C 455.023 -0.673697 1.91283 0
M  V30 4752 C 455.356 -1.72863 0.884979 0
M  V30 4753 O 454.631 -1.94268 -0.0949487 0
M  V30 4754 C 454.914 -1.30766 3.35518 0
M  V30 4755 C 454.767 -0.263578 4.49027 0
M  V30 4756 C 456.086 -2.23105 3.79358 0
M  V30 4757 H 453.205 -0.243439 0.695634 0
M  V30 4758 H 455.847 0.0633864 1.89894 0
M  V30 4759 H 453.997 -1.93588 3.36832 0
M  V30 4760 H 455.669 0.365738 4.59848 0
M  V30 4761 H 453.912 0.413077 4.31829 0
M  V30 4762 H 454.583 -0.746398 5.4693 0
M  V30 4763 H 457.059 -1.70289 3.79659 0
M  V30 4764 H 455.935 -2.64424 4.81011 0
M  V30 4765 H 456.196 -3.11433 3.13787 0
M  V30 4766 N 455.255 -1.55392 -0.262866 0
M  V30 4767 C 456.532 -1.67204 -1.01499 0
M  V30 4768 C 456.912 -0.545186 -2.03939 0
M  V30 4769 O 456.26 0.453467 -2.23955 0
M  V30 4770 C 456.47 -3.06847 -1.6627 0
M  V30 4771 C 457.818 -3.64928 -2.17054 0
M  V30 4772 O 458.842 -3.09545 -1.76239 0
M  V30 4773 O 457.701 -4.61984 -2.91947 0
M  V30 4774 H 454.795 -0.679467 -0.471438 0
M  V30 4775 H 457.341 -1.67729 -0.257918 0
M  V30 4776 H 456.113 -3.80309 -0.920915 0
M  V30 4777 H 455.736 -3.10266 -2.48638 0
M  V30 4778 N 456.733 0.527833 -1.48498 0
M  V30 4779 C 457.696 1.61439 -1.62696 0
M  V30 4780 C 458.696 1.52824 -0.500136 0
M  V30 4781 O 459.886 1.56456 -0.765976 0
M  V30 4782 C 457.018 3.01063 -1.59918 0
M  V30 4783 H 458.211 1.50189 -2.59583 0
M  V30 4784 H 455.764 0.750055 -1.37127 0
M  V30 4785 H 456.499 3.17818 -0.645163 0
M  V30 4786 H 456.284 3.08725 -2.41726 0
M  V30 4787 H 457.774 3.80057 -1.73051 0
M  V30 4788 N 458.211 1.37122 0.776871 0
M  V30 4789 C 459.174 1.32301 1.8716 0
M  V30 4790 C 460.174 0.228099 1.59174 0
M  V30 4791 O 461.364 0.483642 1.67352 0
M  V30 4792 C 458.496 1.054 3.24197 0
M  V30 4793 H 459.689 2.29673 1.92848 0
M  V30 4794 H 457.242 1.22077 0.97606 0
M  V30 4795 H 457.977 0.0853872 3.24188 0
M  V30 4796 H 457.762 1.84648 3.45901 0
M  V30 4797 H 459.252 1.04664 4.04271 0
M  V30 4798 N 459.689 -1.00246 1.21608 0
M  V30 4799 C 460.936 -1.74061 1.03485 0
M  V30 4800 C 461.264 -1.89658 -0.431308 0
M  V30 4801 O 460.519 -1.42976 -1.33627 0
M  V30 4802 C 460.818 -3.15448 1.68009 0
M  V30 4803 C 460.484 -3.19792 3.17874 0
M  V30 4804 C 459.146 -3.20685 3.58768 0
M  V30 4805 C 461.498 -3.16835 4.13842 0
M  V30 4806 C 458.826 -3.16309 4.94131 0
M  V30 4807 C 461.178 -3.14001 5.49169 0
M  V30 4808 C 459.842 -3.13204 5.89457 0
M  V30 4809 H 459.112 -0.636934 0.378677 0
M  V30 4810 H 461.759 -1.17473 1.51236 0
M  V30 4811 H 460.064 -3.75284 1.12557 0
M  V30 4812 H 461.761 -3.71285 1.51487 0
M  V30 4813 H 458.351 -3.19842 2.85305 0
M  V30 4814 H 462.535 -3.15303 3.83272 0
M  V30 4815 H 457.791 -3.14032 5.24589 0
M  V30 4816 H 461.965 -3.10667 6.23265 0
M  V30 4817 H 459.592 -3.09568 6.94314 0
M  V30 4818 N 461.167 -1.02423 -1.1978 0
M  V30 4819 C 462.392 -0.7373 -1.93852 0
M  V30 4820 C 462.817 0.696923 -1.74713 0
M  V30 4821 O 462.175 1.48056 -1.04638 0
M  V30 4822 C 462.223 -1.08783 -3.438 0
M  V30 4823 O 461.327 -0.20383 -4.11896 0
M  V30 4824 H 460.668 -0.27284 -0.605355 0
M  V30 4825 H 463.198 -1.36966 -1.51992 0
M  V30 4826 H 463.208 -1.04276 -3.9445 0
M  V30 4827 H 461.883 -2.13274 -3.57053 0
M  V30 4828 H 460.46 -0.307091 -3.71633 0
M  V30 4829 N 462.645 1.35699 -0.801477 0
M  V30 4830 C 463.891 1.99643 -0.389135 0
M  V30 4831 C 464.246 1.62447 1.03095 0
M  V30 4832 O 463.539 0.875064 1.7045 0
M  V30 4833 C 463.733 3.53828 -0.504041 0
M  V30 4834 C 463.562 4.06 -1.93375 0
M  V30 4835 C 462.332 4.35592 -2.561 0
M  V30 4836 C 464.53 4.24905 -2.89759 0
M  V30 4837 N 462.512 4.73663 -3.90534 0
M  V30 4838 C 463.883 4.65914 -4.09052 0
M  V30 4839 C 465.938 4.07101 -2.86658 0
M  V30 4840 C 464.641 4.90984 -5.25669 0
M  V30 4841 C 466.667 4.33324 -4.02472 0
M  V30 4842 C 466.029 4.74601 -5.20512 0
M  V30 4843 H 462.128 0.758552 -0.19006 0
M  V30 4844 H 464.712 1.64493 -1.04164 0
M  V30 4845 H 462.883 3.88219 0.118437 0
M  V30 4846 H 464.615 4.04645 -0.0667794 0
M  V30 4847 H 461.37 4.25728 -2.07492 0
M  V30 4848 H 461.794 4.96965 -4.59734 0
M  V30 4849 H 466.436 3.74335 -1.96552 0
M  V30 4850 H 464.154 5.22626 -6.1635 0
M  V30 4851 H 467.74 4.21107 -4.01447 0
M  V30 4852 H 466.62 4.94497 -6.08639 0
M  V30 4853 N 464.123 0.554532 1.47522 0
M  V30 4854 C 465.033 -0.197865 2.33764 0
M  V30 4855 C 466.049 -0.914576 1.48025 0
M  V30 4856 O 467.225 -0.884067 1.80959 0
M  V30 4857 C 464.29 -1.21628 3.24665 0
M  V30 4858 C 463.351 -0.507283 4.26292 0
M  V30 4859 C 462.584 -1.47718 5.1285 0
M  V30 4860 O 462.807 -2.7118 5.01814 0
M  V30 4861 O 461.741 -1.00313 5.93482 0
M  V30 4862 H 465.567 0.50949 2.99396 0
M  V30 4863 H 463.152 0.315176 1.46038 0
M  V30 4864 H 465.034 -1.80421 3.80823 0
M  V30 4865 H 463.709 -1.9056 2.61665 0
M  V30 4866 H 462.616 0.121778 3.73902 0
M  V30 4867 H 463.949 0.140544 4.91999 0
M  V30 4868 N 465.601 -1.54893 0.290851 0
M  V30 4869 C 466.511 -2.26812 -0.59945 0
M  V30 4870 C 467.527 -1.29963 -1.15696 0
M  V30 4871 O 468.703 -1.62928 -1.18391 0
M  V30 4872 C 465.768 -2.98716 -1.75982 0
M  V30 4873 C 464.829 -4.1108 -1.2374 0
M  V30 4874 C 464.062 -4.79546 -2.34246 0
M  V30 4875 O 464.285 -4.47309 -3.53936 0
M  V30 4876 O 463.219 -5.67165 -2.01512 0
M  V30 4877 H 467.045 -3.03696 -0.0163561 0
M  V30 4878 H 464.63 -1.49289 0.0576755 0
M  V30 4879 H 466.512 -3.43851 -2.43607 0
M  V30 4880 H 465.187 -2.24737 -2.3297 0
M  V30 4881 H 464.094 -3.70367 -0.527163 0
M  V30 4882 H 465.427 -4.87007 -0.71307 0
M  V30 4883 N 467.08 -0.0183926 -1.57589 0
M  V30 4884 C 468.027 0.967022 -2.09565 0
M  V30 4885 C 468.997 1.32983 -0.995225 0
M  V30 4886 O 470.182 1.42501 -1.26878 0
M  V30 4887 C 467.322 2.24772 -2.61861 0
M  V30 4888 C 466.435 1.94232 -3.85873 0
M  V30 4889 C 465.57 3.16518 -4.26603 0
M  V30 4890 C 464.609 2.81748 -5.43401 0
M  V30 4891 N 463.746 3.96626 -5.79338 0
M  V30 4892 H 468.586 0.516874 -2.93483 0
M  V30 4893 H 466.123 0.243544 -1.4507 0
M  V30 4894 H 468.081 2.99667 -2.90268 0
M  V30 4895 H 466.711 2.67423 -1.8079 0
M  V30 4896 H 465.763 1.09625 -3.64262 0
M  V30 4897 H 467.075 1.64616 -4.70853 0
M  V30 4898 H 466.229 3.99743 -4.56389 0
M  V30 4899 H 464.968 3.49286 -3.40368 0
M  V30 4900 H 463.973 1.96933 -5.1332 0
M  V30 4901 H 465.198 2.50207 -6.31327 0
M  V30 4902 H 463.144 4.29257 -4.96059 0
M  V30 4903 H 463.061 3.70598 -6.58933 0
M  V30 4904 H 464.329 4.80586 -6.13724 0
M  V30 4905 N 468.558 1.5553 0.254621 0
M  V30 4906 C 469.488 1.9268 1.31897 0
M  V30 4907 C 470.469 0.790797 1.506 0
M  V30 4908 O 471.654 1.05045 1.63337 0
M  V30 4909 C 468.784 2.21477 2.67517 0
M  V30 4910 C 467.738 3.37256 2.63519 0
M  V30 4911 C 467.064 3.51576 4.02862 0
M  V30 4912 C 468.364 4.73157 2.21179 0
M  V30 4913 H 470.058 2.81832 1.01051 0
M  V30 4914 H 467.604 1.35599 0.484662 0
M  V30 4915 H 469.557 2.46055 3.42104 0
M  V30 4916 H 468.281 1.29144 2.99982 0
M  V30 4917 H 466.94 3.12675 1.9139 0
M  V30 4918 H 466.588 2.56676 4.32581 0
M  V30 4919 H 466.288 4.2943 4.01078 0
M  V30 4920 H 467.812 3.78467 4.79161 0
M  V30 4921 H 469.226 4.97158 2.85494 0
M  V30 4922 H 467.623 5.54058 2.30521 0
M  V30 4923 H 468.693 4.70739 1.16332 0
M  V30 4924 N 470.036 -0.519951 1.48776 0
M  V30 4925 C 471.266 -1.29783 1.60748 0
M  V30 4926 C 471.674 -1.87253 0.27072 0
M  V30 4927 O 471.017 -1.67628 -0.751438 0
M  V30 4928 C 471.079 -2.47984 2.60277 0
M  V30 4929 C 470.743 -2.11526 4.051 0
M  V30 4930 C 471.74 -1.66608 4.92481 0
M  V30 4931 C 469.425 -2.21742 4.50706 0
M  V30 4932 C 471.419 -1.32384 6.23501 0
M  V30 4933 C 469.106 -1.87129 5.81744 0
M  V30 4934 C 470.104 -1.42523 6.67964 0
M  V30 4935 O 469.792 -1.0837 7.96562 0
M  V30 4936 H 469.524 -0.400562 0.544542 0
M  V30 4937 H 472.078 -0.632879 1.95407 0
M  V30 4938 H 470.308 -3.17493 2.2076 0
M  V30 4939 H 471.997 -3.10036 2.61978 0
M  V30 4940 H 472.763 -1.58178 4.58481 0
M  V30 4941 H 468.642 -2.55415 3.83776 0
M  V30 4942 H 472.186 -0.974949 6.90754 0
M  V30 4943 H 468.083 -1.95204 6.15277 0
M  V30 4944 H 468.851 -1.21681 8.09405 0
M  V30 4945 N 471.514 -1.37532 -0.769588 0
M  V30 4946 C 472.444 -1.36172 -1.89682 0
M  V30 4947 C 473.425 -0.23001 -1.68538 0
M  V30 4948 O 474.61 -0.43069 -1.89364 0
M  V30 4949 C 471.74 -1.1701 -3.26995 0
M  V30 4950 C 470.694 -2.27216 -3.62708 0
M  V30 4951 C 470.02 -1.93174 -4.98586 0
M  V30 4952 C 471.32 -3.6941 -3.69234 0
M  V30 4953 H 473.014 -2.30499 -1.91078 0
M  V30 4954 H 470.56 -1.10953 -0.917902 0
M  V30 4955 H 472.513 -1.14688 -4.05493 0
M  V30 4956 H 471.237 -0.191395 -3.26039 0
M  V30 4957 H 469.896 -2.28697 -2.86519 0
M  V30 4958 H 469.544 -0.938281 -4.94171 0
M  V30 4959 H 469.244 -2.66973 -5.23449 0
M  V30 4960 H 470.768 -1.92443 -5.79481 0
M  V30 4961 H 472.182 -3.70047 -4.37879 0
M  V30 4962 H 470.579 -4.4228 -4.05597 0
M  V30 4963 H 471.649 -4.0288 -2.69844 0
M  V30 4964 N 472.992 0.995999 -1.22138 0
M  V30 4965 C 474.238 1.73767 -1.04561 0
M  V30 4966 C 474.571 1.89633 0.418698 0
M  V30 4967 O 473.846 1.43723 1.3105 0
M  V30 4968 C 474.129 3.14505 -1.75382 0
M  V30 4969 C 473.982 3.06306 -3.29388 0
M  V30 4970 C 475.301 4.13615 -1.50369 0
M  V30 4971 H 472.42 0.630728 -0.38125 0
M  V30 4972 H 475.062 1.16057 -1.50435 0
M  V30 4973 H 473.212 3.63775 -1.36383 0
M  V30 4974 H 474.884 2.64681 -3.77812 0
M  V30 4975 H 473.127 2.43186 -3.59226 0
M  V30 4976 H 473.798 4.05884 -3.74116 0
M  V30 4977 H 476.274 3.73089 -1.84239 0
M  V30 4978 H 475.15 5.10212 -2.02421 0
M  V30 4979 H 475.411 4.39949 -0.435611 0
M  V30 4980 N 474.47 1.03057 1.19235 0
M  V30 4981 C 475.402 0.570932 2.21975 0
M  V30 4982 C 476.415 -0.354088 1.58903 0
M  V30 4983 O 477.604 -0.150211 1.77867 0
M  V30 4984 C 474.704 -0.187152 3.38383 0
M  V30 4985 C 473.877 0.743231 4.31039 0
M  V30 4986 C 472.936 0.0302493 5.26191 0
M  V30 4987 O 471.962 0.657371 5.65391 0
M  V30 4988 N 473.164 -1.23991 5.67104 0
M  V30 4989 H 475.929 1.45456 2.62036 0
M  V30 4990 H 473.49 0.909807 1.33918 0
M  V30 4991 H 475.482 -0.673715 3.99053 0
M  V30 4992 H 474.052 -0.972205 2.97098 0
M  V30 4993 H 473.272 1.40985 3.68126 0
M  V30 4994 H 474.56 1.3755 4.89854 0
M  V30 4995 H 473.958 -1.77011 5.37293 0
M  V30 4996 H 472.515 -1.67093 6.30018 0
M  V30 4997 N 475.948 -1.35272 0.808662 0
M  V30 4998 C 477.196 -1.98316 0.389233 0
M  V30 4999 C 477.517 -1.64465 -1.04767 0
M  V30 5000 O 476.787 -0.928175 -1.72516 0
M  V30 5001 H 475.367 -0.733585 0.140935 0
M  V30 5002 H 478.029 -1.6515 1.03496 0
M  V30 5003 H 477.125 -3.08123 0.496631 0
M  V30 5004 N 477.426 -0.562348 -1.47226 0
M  V30 5005 C 478.654 -0.0452275 -2.06851 0
M  V30 5006 C 479.069 1.25078 -1.41424 0
M  V30 5007 O 478.426 1.75156 -0.512513 0
M  V30 5008 C 478.477 0.148674 -3.61194 0
M  V30 5009 O 478.198 -1.09602 -4.24169 0
M  V30 5010 C 479.699 0.702488 -4.37699 0
M  V30 5011 H 476.919 -0.0481775 -0.669268 0
M  V30 5012 H 479.463 -0.777223 -1.89155 0
M  V30 5013 H 477.618 0.830817 -3.78386 0
M  V30 5014 H 478.032 -0.896982 -5.16773 0
M  V30 5015 H 479.506 0.78743 -5.46355 0
M  V30 5016 H 479.983 1.71493 -4.04335 0
M  V30 5017 H 480.589 0.0558772 -4.25263 0
M  V30 5018 N 478.904 1.54736 -0.299062 0
M  V30 5019 C 479.836 2.20891 0.61153 0
M  V30 5020 C 480.849 1.20104 1.09904 0
M  V30 5021 O 482.038 1.46707 1.01683 0
M  V30 5022 C 479.138 2.84018 1.84897 0
M  V30 5023 C 478.311 4.10719 1.50428 0
M  V30 5024 C 477.37 4.57667 2.59667 0
M  V30 5025 O 476.396 5.2291 2.24842 0
M  V30 5026 N 477.598 4.29821 3.90172 0
M  V30 5027 H 480.363 2.99666 0.0452001 0
M  V30 5028 H 477.924 1.61446 -0.121178 0
M  V30 5029 H 479.916 3.1236 2.5732 0
M  V30 5030 H 478.486 2.09095 2.32375 0
M  V30 5031 H 477.706 3.89408 0.612781 0
M  V30 5032 H 478.994 4.93223 1.24934 0
M  V30 5033 H 478.392 3.77549 4.21276 0
M  V30 5034 H 476.949 4.62877 4.58899 0
M  V30 5035 N 480.382 0.0267497 1.57577 0
M  V30 5036 C 481.628 -0.653371 1.91987 0
M  V30 5037 C 481.961 -1.71915 0.903263 0
M  V30 5038 O 481.236 -1.94358 -0.0743387 0
M  V30 5039 C 481.519 -1.272 3.36886 0
M  V30 5040 C 481.372 -0.215938 4.49281 0
M  V30 5041 C 482.691 -2.19069 3.81703 0
M  V30 5042 H 479.81 -0.236047 0.698177 0
M  V30 5043 H 482.452 0.0835236 1.89816 0
M  V30 5044 H 480.602 -1.90005 3.38866 0
M  V30 5045 H 482.274 0.41449 4.59434 0
M  V30 5046 H 480.517 0.458855 4.31366 0
M  V30 5047 H 481.188 -0.688347 5.47691 0
M  V30 5048 H 483.664 -1.66253 3.81444 0
M  V30 5049 H 482.54 -2.59307 4.83788 0
M  V30 5050 H 482.801 -3.08087 3.17072 0
M  V30 5051 N 481.861 -1.55662 -0.24637 0
M  V30 5052 C 483.091 -1.81312 -0.990438 0
M  V30 5053 C 483.499 -0.600234 -1.79426 0
M  V30 5054 O 482.842 0.440537 -1.78339 0
M  V30 5055 C 482.904 -3.0032 -1.97607 0
M  V30 5056 C 482.568 -4.36322 -1.35912 0
M  V30 5057 C 483.565 -5.14295 -0.761348 0
M  V30 5058 C 481.25 -4.83019 -1.37833 0
M  V30 5059 C 483.244 -6.37114 -0.190998 0
M  V30 5060 C 480.931 -6.05786 -0.804128 0
M  V30 5061 C 481.929 -6.82672 -0.211489 0
M  V30 5062 O 481.617 -8.03121 0.353845 0
M  V30 5063 H 481.349 -0.607233 -0.297058 0
M  V30 5064 H 483.903 -2.0356 -0.274351 0
M  V30 5065 H 482.133 -2.73829 -2.73047 0
M  V30 5066 H 483.822 -3.13057 -2.58361 0
M  V30 5067 H 484.588 -4.79337 -0.739013 0
M  V30 5068 H 480.467 -4.23165 -1.829 0
M  V30 5069 H 484.011 -6.97069 0.272206 0
M  V30 5070 H 479.908 -6.40222 -0.823792 0
M  V30 5071 H 480.676 -8.18131 0.245761 0
M  V30 5072 N 483.339 0.512053 -1.4905 0
M  V30 5073 C 484.585 1.26874 -1.58212 0
M  V30 5074 C 484.918 1.9241 -0.263073 0
M  V30 5075 O 484.193 1.80181 0.732476 0
M  V30 5076 C 484.476 2.34428 -2.73341 0
M  V30 5077 C 484.329 1.73466 -4.15006 0
M  V30 5078 C 485.648 3.36073 -2.84154 0
M  V30 5079 H 482.767 0.459924 -0.575881 0
M  V30 5080 H 485.409 0.568587 -1.81293 0
M  V30 5081 H 483.559 2.94146 -2.53792 0
M  V30 5082 H 485.231 1.17661 -4.46042 0
M  V30 5083 H 483.474 1.03921 -4.21168 0
M  V30 5084 H 484.145 2.51426 -4.91415 0
M  V30 5085 H 486.621 2.86332 -3.01916 0
M  V30 5086 H 485.497 4.08703 -3.66406 0
M  V30 5087 H 485.758 3.97725 -1.93048 0
M  V30 5088 N 484.817 1.37938 0.762283 0
M  V30 5089 C 486.064 1.33668 1.52115 0
M  V30 5090 C 486.392 -0.0759538 1.94352 0
M  V30 5091 O 485.647 -1.05121 1.6507 0
M  V30 5092 C 485.946 2.23042 2.79261 0
M  V30 5093 C 485.612 3.71159 2.56031 0
M  V30 5094 C 484.274 4.11523 2.49404 0
M  V30 5095 C 486.626 4.64955 2.35513 0
M  V30 5096 C 483.954 5.43784 2.20263 0
M  V30 5097 C 486.306 5.97464 2.07894 0
M  V30 5098 C 484.97 6.36922 1.99718 0
M  V30 5099 H 484.24 0.489127 0.556629 0
M  V30 5100 H 486.887 1.70224 0.877262 0
M  V30 5101 H 485.192 1.79512 3.48256 0
M  V30 5102 H 486.889 2.17047 3.37182 0
M  V30 5103 H 483.479 3.39153 2.62056 0
M  V30 5104 H 487.663 4.34623 2.39617 0
M  V30 5105 H 482.919 5.73307 2.12435 0
M  V30 5106 H 487.093 6.6969 1.91019 0
M  V30 5107 H 484.72 7.39331 1.76902 0
M  V30 5108 N 486.295 -0.989507 1.22664 0
M  V30 5109 C 487.225 -2.09847 1.02404 0
M  V30 5110 C 488.206 -1.70007 -0.0561303 0
M  V30 5111 O 489.391 -1.93906 0.106748 0
M  V30 5112 C 486.521 -3.41996 0.604663 0
M  V30 5113 C 485.475 -3.95699 1.63115 0
M  V30 5114 C 484.801 -5.23936 1.0675 0
M  V30 5115 C 486.101 -4.25999 3.02196 0
M  V30 5116 H 487.795 -2.27054 1.95158 0
M  V30 5117 H 485.341 -1.09111 0.939727 0
M  V30 5118 H 487.294 -4.1899 0.45002 0
M  V30 5119 H 486.018 -3.24626 -0.35855 0
M  V30 5120 H 484.677 -3.2084 1.77362 0
M  V30 5121 H 484.325 -5.02909 0.0955422 0
M  V30 5122 H 484.025 -5.60833 1.75328 0
M  V30 5123 H 485.549 -6.0356 0.924516 0
M  V30 5124 H 486.963 -4.93777 2.91303 0
M  V30 5125 H 485.36 -4.74076 3.67929 0
M  V30 5126 H 486.43 -3.33636 3.51873 0
M  V30 5127 N 487.773 -1.03688 -1.18687 0
M  V30 5128 C 489.001 -0.757918 -1.92518 0
M  V30 5129 C 489.416 0.684398 -1.75959 0
M  V30 5130 O 488.773 1.46617 -1.08673 0
M  V30 5131 C 488.824 -1.10985 -3.44042 0
M  V30 5132 O 488.545 -2.49554 -3.60076 0
M  V30 5133 C 490.046 -0.854844 -4.3498 0
M  V30 5134 H 487.266 -0.276699 -0.611293 0
M  V30 5135 H 489.81 -1.38352 -1.50595 0
M  V30 5136 H 487.965 -0.529279 -3.83767 0
M  V30 5137 H 488.379 -2.6291 -4.53849 0
M  V30 5138 H 489.853 -1.15098 -5.39867 0
M  V30 5139 H 490.33 0.210507 -4.38695 0
M  V30 5140 H 490.936 -1.41853 -4.00946 0
M  V30 5141 N 489.251 1.34841 -0.815825 0
M  V30 5142 C 490.198 2.29644 -0.230664 0
M  V30 5143 C 491.168 1.53253 0.640533 0
M  V30 5144 O 492.353 1.81653 0.583672 0
M  V30 5145 C 489.493 3.39715 0.607275 0
M  V30 5146 C 488.606 4.31056 -0.28538 0
M  V30 5147 C 487.741 5.28225 0.561446 0
M  V30 5148 C 486.78 6.11204 -0.331035 0
M  V30 5149 N 485.917 7.00483 0.476302 0
M  V30 5150 H 490.757 2.79095 -1.0445 0
M  V30 5151 H 488.294 1.37351 -0.526595 0
M  V30 5152 H 490.252 4.02208 1.10835 0
M  V30 5153 H 488.882 2.91517 1.38629 0
M  V30 5154 H 487.934 3.69487 -0.904621 0
M  V30 5155 H 489.246 4.89239 -0.97193 0
M  V30 5156 H 488.4 5.96135 1.12728 0
M  V30 5157 H 487.139 4.70562 1.28153 0
M  V30 5158 H 486.144 5.42232 -0.909069 0
M  V30 5159 H 487.369 6.70947 -1.04912 0
M  V30 5160 H 485.315 6.45296 1.18019 0
M  V30 5161 H 485.232 7.55847 -0.152008 0
M  V30 5162 H 486.5 7.7273 1.02512 0
M  V30 5163 N 490.729 0.570148 1.46925 0
M  V30 5164 C 491.977 0.0508523 2.02036 0
M  V30 5165 C 492.298 -1.30885 1.44548 0
M  V30 5166 O 491.568 -1.85647 0.625453 0
M  V30 5167 H 490.148 0.0158088 0.746833 0
M  V30 5168 H 492.81 0.743086 1.80178 0
M  V30 5169 H 491.906 -0.027575 3.12088 0
M  V30 5170 N 492.207 -1.54576 0.307264 0
M  V30 5171 C 493.455 -1.99867 -0.299574 0
M  V30 5172 C 493.776 -1.19714 -1.53927 0
M  V30 5173 O 493.046 -0.29472 -1.9367 0
M  V30 5174 H 491.626 -0.738299 -0.113683 0
M  V30 5175 H 494.288 -1.9032 0.420042 0
M  V30 5176 H 493.384 -3.06901 -0.567283 0
M  V30 5177 N 493.685 -0.035106 -1.57561 0
M  V30 5178 C 494.915 0.651312 -1.96065 0
M  V30 5179 C 495.323 1.6585 -0.910514 0
M  V30 5180 O 494.666 1.83336 0.11552 0
M  V30 5181 C 494.728 1.40897 -3.30739 0
M  V30 5182 C 494.392 0.559436 -4.53563 0
M  V30 5183 C 495.389 -0.16778 -5.19629 0
M  V30 5184 C 493.074 0.495079 -4.99854 0
M  V30 5185 C 495.068 -0.947963 -6.30311 0
M  V30 5186 C 492.755 -0.288804 -6.10417 0
M  V30 5187 C 493.753 -1.00903 -6.75505 0
M  V30 5188 O 493.441 -1.78005 -7.83945 0
M  V30 5189 H 493.173 0.184036 -0.650467 0
M  V30 5190 H 495.727 -0.0929677 -2.05189 0
M  V30 5191 H 493.957 2.19852 -3.18123 0
M  V30 5192 H 495.646 1.98407 -3.54104 0
M  V30 5193 H 496.412 -0.12743 -4.84833 0
M  V30 5194 H 492.291 1.04524 -4.48994 0
M  V30 5195 H 495.835 -1.51064 -6.81047 0
M  V30 5196 H 491.732 -0.33085 -6.44652 0
M  V30 5197 H 492.5 -1.70046 -8.00641 0
M  V30 5198 N 495.163 1.55791 0.238111 0
M  V30 5199 C 496.391 1.82098 0.982233 0
M  V30 5200 C 496.806 0.612025 1.78605 0
M  V30 5201 O 496.163 -0.419381 1.77616 0
M  V30 5202 C 496.214 3.0673 1.91309 0
M  V30 5203 O 495.935 4.2296 1.14179 0
M  V30 5204 C 497.436 3.45903 2.77248 0
M  V30 5205 H 494.656 0.605748 0.288635 0
M  V30 5206 H 497.2 2.02862 0.258341 0
M  V30 5207 H 495.355 2.87991 2.59114 0
M  V30 5208 H 495.769 4.93653 1.7722 0
M  V30 5209 H 497.243 4.36189 3.38295 0
M  V30 5210 H 497.72 2.66891 3.48806 0
M  V30 5211 H 498.326 3.67024 2.14881 0
M  V30 5212 N 496.642 -0.504142 1.49319 0
M  V30 5213 C 497.572 -1.61473 1.68667 0
M  V30 5214 C 498.553 -1.61455 0.535378 0
M  V30 5215 O 499.738 -1.78245 0.770868 0
M  V30 5216 C 496.868 -2.99971 1.75028 0
M  V30 5217 C 495.822 -3.14854 2.89916 0
M  V30 5218 C 495.148 -4.54671 2.81387 0
M  V30 5219 C 496.448 -2.95176 4.30893 0
M  V30 5220 H 498.142 -1.45535 2.61648 0
M  V30 5221 H 495.688 -0.698711 1.25913 0
M  V30 5222 H 497.641 -3.77562 1.8715 0
M  V30 5223 H 496.365 -3.1699 0.786441 0
M  V30 5224 H 495.024 -2.39687 2.77391 0
M  V30 5225 H 494.672 -4.68562 1.82917 0
M  V30 5226 H 494.372 -4.6557 3.58494 0
M  V30 5227 H 495.896 -5.34327 2.95512 0
M  V30 5228 H 497.31 -3.62538 4.44116 0
M  V30 5229 H 495.707 -3.17549 5.09198 0
M  V30 5230 H 496.777 -1.91332 4.45556 0
M  V30 5231 N 498.12 -1.38341 -0.754957 0
M  V30 5232 C 499.366 -1.34672 -1.51628 0
M  V30 5233 C 499.699 0.0636036 -1.94096 0
M  V30 5234 O 498.974 1.0245 -1.6533 0
M  V30 5235 C 499.257 -2.30116 -2.76981 0
M  V30 5236 C 499.11 -3.80003 -2.4066 0
M  V30 5237 C 500.429 -2.23715 -3.78998 0
M  V30 5238 H 497.548 -0.490517 -0.550056 0
M  V30 5239 H 500.19 -1.69178 -0.864807 0
M  V30 5240 H 498.34 -2.00821 -3.3257 0
M  V30 5241 H 500.012 -4.19966 -1.90856 0
M  V30 5242 H 498.255 -3.97751 -1.73137 0
M  V30 5243 H 498.926 -4.42244 -3.30339 0
M  V30 5244 H 501.402 -2.49574 -3.32945 0
M  V30 5245 H 500.278 -2.9261 -4.64403 0
M  V30 5246 H 500.539 -1.23554 -4.24484 0
M  V30 5247 N 499.598 0.982988 -1.23187 0
M  V30 5248 C 500.823 1.76455 -1.08988 0
M  V30 5249 C 501.248 1.84726 0.354691 0
M  V30 5250 O 500.606 1.30699 1.25649 0
M  V30 5251 C 500.654 3.17094 -1.71708 0
M  V30 5252 O 499.758 4.00648 -0.977477 0
M  V30 5253 H 499.099 0.542988 -0.382177 0
M  V30 5254 H 501.629 1.23413 -1.63188 0
M  V30 5255 H 501.639 3.67684 -1.76841 0
M  V30 5256 H 500.314 3.10389 -2.76823 0
M  V30 5257 H 498.891 3.59161 -1.0029 0
M  V30 5258 N 501.076 1.04316 1.18135 0
M  V30 5259 C 502.324 0.746542 1.87806 0
M  V30 5260 C 502.645 -0.728082 1.80898 0
M  V30 5261 O 501.915 -1.52554 1.22899 0
M  V30 5262 H 500.495 0.273157 0.695265 0
M  V30 5263 H 503.157 1.32044 1.43354 0
M  V30 5264 H 502.253 1.05362 2.93778 0
M  V30 5265 N 502.554 -1.34406 0.822964 0
M  V30 5266 C 503.784 -2.02214 0.423424 0
M  V30 5267 C 504.192 -1.62124 -0.975322 0
M  V30 5268 O 503.535 -0.822452 -1.6426 0
M  V30 5269 C 503.597 -3.56721 0.446107 0
M  V30 5270 C 503.261 -4.20136 1.79819 0
M  V30 5271 C 504.258 -4.4065 2.75904 0
M  V30 5272 C 501.943 -4.56906 2.08669 0
M  V30 5273 C 503.937 -4.9706 3.99012 0
M  V30 5274 C 501.624 -5.13026 3.32036 0
M  V30 5275 C 502.622 -5.33047 4.27024 0
M  V30 5276 O 502.31 -5.87979 5.48211 0
M  V30 5277 H 502.042 -0.654748 0.168169 0
M  V30 5278 H 504.596 -1.72659 1.11257 0
M  V30 5279 H 502.826 -3.85537 -0.299734 0
M  V30 5280 H 504.515 -4.05845 0.0666114 0
M  V30 5281 H 505.281 -4.12607 2.54912 0
M  V30 5282 H 501.16 -4.40626 1.35535 0
M  V30 5283 H 504.704 -5.12603 4.73164 0
M  V30 5284 H 500.601 -5.40498 3.52891 0
M  V30 5285 H 501.369 -6.06413 5.49732 0
M  V30 5286 N 504.032 -0.577932 -1.46621 0
M  V30 5287 C 505.443 -0.150071 -1.86096 0
M  V30 5288 C 505.794 1.28563 -1.48209 0
M  V30 5289 O 504.919 1.97036 -0.894754 0
M  V30 5290 C 505.514 -0.265576 -3.37758 0
M  V30 5291 C 504.073 0.10738 -3.76247 0
M  V30 5292 C 503.22 -0.603711 -2.70649 0
M  V30 5293 H 506.171 -0.786438 -1.37844 0
M  V30 5294 H 506.192 0.510352 -3.77062 0
M  V30 5295 H 505.704 -1.3106 -3.65301 0
M  V30 5296 H 503.805 1.15272 -3.54321 0
M  V30 5297 H 503.918 -0.26561 -4.78363 0
M  V30 5298 H 502.282 -0.0444884 -2.54661 0
M  V30 5299 H 503.065 -1.65029 -3.01032 0
M  V30 5300 N 505.51 1.54411 -0.315457 0
M  V30 5301 C 506.457 2.24048 0.554166 0
M  V30 5302 C 507.427 1.2283 1.11812 0
M  V30 5303 O 508.612 1.51491 1.15997 0
M  V30 5304 C 505.752 2.99574 1.71316 0
M  V30 5305 C 504.865 4.15594 1.17922 0
M  V30 5306 C 504 4.78669 2.30324 0
M  V30 5307 C 503.039 5.86807 1.74137 0
M  V30 5308 N 502.176 6.43777 2.8017 0
M  V30 5309 H 507.016 2.97964 -0.0462602 0
M  V30 5310 H 504.553 1.47059 -0.0346009 0
M  V30 5311 H 506.511 3.41604 2.39505 0
M  V30 5312 H 505.141 2.28008 2.285 0
M  V30 5313 H 504.193 3.78404 0.389136 0
M  V30 5314 H 505.505 4.93459 0.728012 0
M  V30 5315 H 504.659 5.23626 3.06433 0
M  V30 5316 H 503.398 4.00168 2.78778 0
M  V30 5317 H 502.403 5.41261 0.965236 0
M  V30 5318 H 503.628 6.67201 1.2657 0
M  V30 5319 H 501.574 5.68153 3.2793 0
M  V30 5320 H 501.491 7.17031 2.39588 0
M  V30 5321 H 502.759 6.9339 3.56132 0
M  V30 5322 N 506.988 0.0434614 1.5754 0
M  V30 5323 C 508.404 -0.313039 1.565 0
M  V30 5324 C 508.604 -1.71954 1.05043 0
M  V30 5325 O 507.66 -2.425 0.703564 0
M  V30 5326 C 508.973 -0.148544 3.00333 0
M  V30 5327 C 510.521 -0.220231 3.12224 0
M  V30 5328 C 510.996 -0.0843565 4.57922 0
M  V30 5329 N 512.487 -0.140881 4.62986 0
M  V30 5330 C 513.222 -0.0597443 5.73369 0
M  V30 5331 N 512.718 0.0733004 6.92761 0
M  V30 5332 N 514.511 -0.11477 5.61983 0
M  V30 5333 H 506.662 0.96303 1.89313 0
M  V30 5334 H 508.925 0.373164 0.871466 0
M  V30 5335 H 508.631 0.820894 3.41986 0
M  V30 5336 H 508.505 -0.912798 3.65989 0
M  V30 5337 H 510.892 -1.18014 2.70475 0
M  V30 5338 H 510.973 0.574646 2.49262 0
M  V30 5339 H 510.617 0.872192 5.00355 0
M  V30 5340 H 510.547 -0.898281 5.18882 0
M  V30 5341 H 513.038 -0.243273 3.77116 0
M  V30 5342 H 513.351 0.128128 7.72694 0
M  V30 5343 H 511.696 0.10828 6.94916 0
M  V30 5344 H 514.887 -0.217212 4.67596 0
M  V30 5345 H 515.06 -0.0480779 6.47982 0
M  V30 5346 N 508.466 -1.55915 -0.229846 0
M  V30 5347 C 509.396 -1.94754 -1.28815 0
M  V30 5348 C 510.377 -0.814657 -1.49323 0
M  V30 5349 O 511.562 -1.07631 -1.61645 0
M  V30 5350 C 508.692 -2.25705 -2.63959 0
M  V30 5351 C 507.646 -3.41406 -2.5812 0
M  V30 5352 C 506.972 -3.57941 -3.97218 0
M  V30 5353 C 508.272 -4.76616 -2.13623 0
M  V30 5354 H 509.966 -2.83404 -0.965547 0
M  V30 5355 H 507.512 -1.36353 -0.463028 0
M  V30 5356 H 509.465 -2.51467 -3.38146 0
M  V30 5357 H 508.189 -1.339 -2.9789 0
M  V30 5358 H 506.848 -3.1568 -1.86391 0
M  V30 5359 H 506.496 -2.63526 -4.28443 0
M  V30 5360 H 506.196 -4.35757 -3.94195 0
M  V30 5361 H 507.72 -3.86042 -4.73079 0
M  V30 5362 H 509.134 -5.01637 -2.77549 0
M  V30 5363 H 507.531 -5.57655 -2.21677 0
M  V30 5364 H 508.601 -4.7253 -1.08829 0
M  V30 5365 N 509.944 0.496216 -1.49584 0
M  V30 5366 C 510.854 1.62352 -1.69349 0
M  V30 5367 C 511.87 1.64184 -0.576147 0
M  V30 5368 O 513.046 1.82517 -0.85144 0
M  V30 5369 C 510.111 2.98698 -1.76013 0
M  V30 5370 C 509.172 3.07454 -2.99617 0
M  V30 5371 C 508.405 4.37296 -3.05953 0
M  V30 5372 O 508.628 5.2637 -2.19752 0
M  V30 5373 O 507.562 4.51124 -3.9846 0
M  V30 5374 H 511.388 1.48606 -2.64859 0
M  V30 5375 H 508.973 0.673022 -1.33382 0
M  V30 5376 H 510.855 3.79725 -1.82721 0
M  V30 5377 H 509.53 3.12696 -0.836828 0
M  V30 5378 H 508.437 2.25597 -2.98424 0
M  V30 5379 H 509.77 2.98385 -3.91443 0
M  V30 5380 N 511.423 1.38739 0.74761 0
M  V30 5381 C 512.37 1.36449 1.86146 0
M  V30 5382 C 513.34 0.226098 1.64554 0
M  V30 5383 O 514.525 0.41926 1.86137 0
M  V30 5384 C 511.665 1.2013 3.23516 0
M  V30 5385 C 510.778 2.43407 3.56899 0
M  V30 5386 C 509.913 2.19773 4.83605 0
M  V30 5387 C 508.952 3.3879 5.09792 0
M  V30 5388 N 508.089 3.14553 6.27695 0
M  V30 5389 H 512.929 2.3167 1.87438 0
M  V30 5390 H 510.466 1.15094 0.916063 0
M  V30 5391 H 512.424 1.08683 4.02795 0
M  V30 5392 H 511.054 0.285453 3.21535 0
M  V30 5393 H 510.106 2.65504 2.72418 0
M  V30 5394 H 511.418 3.32094 3.72176 0
M  V30 5395 H 510.572 2.05496 5.70838 0
M  V30 5396 H 509.311 1.28461 4.70478 0
M  V30 5397 H 508.316 3.53579 4.21025 0
M  V30 5398 H 509.541 4.30986 5.24812 0
M  V30 5399 H 507.487 2.25893 6.1588 0
M  V30 5400 H 507.404 3.96791 6.435 0
M  V30 5401 H 508.672 3.03943 7.17801 0
M  V30 5402 N 512.901 -0.976442 1.23707 0
M  V30 5403 C 513.811 -2.10359 1.03856 0
M  V30 5404 C 514.827 -1.73991 -0.0180919 0
M  V30 5405 O 516.003 -2.0061 0.178211 0
M  V30 5406 C 513.068 -3.40809 0.636387 0
M  V30 5407 C 512.129 -3.91179 1.76854 0
M  V30 5408 C 511.362 -5.15404 1.38546 0
M  V30 5409 O 511.585 -5.69754 0.27142 0
M  V30 5410 O 510.519 -5.5994 2.20797 0
M  V30 5411 H 514.345 -2.29997 1.98331 0
M  V30 5412 H 511.93 -1.08742 1.02448 0
M  V30 5413 H 513.812 -4.19269 0.423223 0
M  V30 5414 H 512.487 -3.22493 -0.279322 0
M  V30 5415 H 511.394 -3.13819 2.03638 0
M  V30 5416 H 512.727 -4.13958 2.6627 0
M  V30 5417 N 514.379 -1.04941 -1.1758 0
M  V30 5418 C 515.625 -0.759112 -1.88057 0
M  V30 5419 C 515.958 0.711918 -1.8068 0
M  V30 5420 O 515.233 1.52035 -1.21308 0
M  V30 5421 C 515.516 -1.237 -3.38187 0
M  V30 5422 C 515.369 -2.77078 -3.54327 0
M  V30 5423 C 516.688 -0.834014 -4.32125 0
M  V30 5424 H 513.807 -0.277237 -0.682868 0
M  V30 5425 H 516.449 -1.30296 -1.38286 0
M  V30 5426 H 514.599 -0.774337 -3.80705 0
M  V30 5427 H 516.271 -3.31449 -3.20842 0
M  V30 5428 H 514.514 -3.16477 -2.96689 0
M  V30 5429 H 515.185 -3.05577 -4.59703 0
M  V30 5430 H 517.661 -1.23228 -3.97434 0
M  V30 5431 H 516.537 -1.19603 -5.35711 0
M  V30 5432 H 516.798 0.262195 -4.41322 0
M  V30 5433 N 515.857 1.33968 -0.830081 0
M  V30 5434 C 517.105 1.97672 -0.420734 0
M  V30 5435 C 517.426 1.66111 1.02138 0
M  V30 5436 O 516.696 0.955503 1.71017 0
M  V30 5437 H 515.276 0.73125 -0.152587 0
M  V30 5438 H 517.938 1.63483 -1.0611 0
M  V30 5439 H 517.034 3.07294 -0.545588 0
M  V30 5440 N 517.335 0.585699 1.46312 0
M  V30 5441 C 518.563 0.0781299 2.06752 0
M  V30 5442 C 518.978 -1.22812 1.43396 0
M  V30 5443 O 518.335 -1.74318 0.540314 0
M  V30 5444 C 518.386 -0.0911927 3.61385 0
M  V30 5445 O 518.107 1.16336 4.22371 0
M  V30 5446 C 519.608 -0.632765 4.38761 0
M  V30 5447 H 516.828 0.0588188 0.668417 0
M  V30 5448 H 519.372 0.807218 1.87894 0
M  V30 5449 H 517.527 -0.770514 3.7966 0
M  V30 5450 H 517.941 0.979082 5.15281 0
M  V30 5451 H 519.415 -0.70041 5.47538 0
M  V30 5452 H 519.892 -1.65039 4.07012 0
M  V30 5453 H 520.498 0.0117856 4.25298 0
M  V30 5454 N 518.813 -1.54241 0.323641 0
M  V30 5455 C 520.224 -1.85975 -0.164405 0
M  V30 5456 C 520.575 -1.24529 -1.51615 0
M  V30 5457 O 519.7 -0.551351 -2.09258 0
M  V30 5458 C 520.295 -3.37424 -0.305091 0
M  V30 5459 C 518.854 -3.69107 -0.737358 0
M  V30 5460 C 518.001 -2.76942 0.140884 0
M  V30 5461 H 520.952 -1.49088 0.543922 0
M  V30 5462 H 520.973 -3.63147 -1.13598 0
M  V30 5463 H 520.485 -3.82116 0.678876 0
M  V30 5464 H 518.586 -3.29947 -1.73107 0
M  V30 5465 H 518.699 -4.76035 -0.541053 0
M  V30 5466 H 517.063 -2.51795 -0.383572 0
M  V30 5467 H 517.846 -3.24461 1.12162 0
M  V30 5468 N 520.291 -0.0518155 -1.57515 0
M  V30 5469 C 521.241 0.932017 -2.0808 0
M  V30 5470 C 522.225 1.27141 -0.986098 0
M  V30 5471 O 523.417 1.25373 -1.24943 0
M  V30 5472 C 520.546 2.20665 -2.62986 0
M  V30 5473 C 519.632 1.89462 -3.79427 0
M  V30 5474 N 520.023 1.28621 -4.89173 0
M  V30 5475 C 518.321 2.19327 -3.88345 0
M  V30 5476 C 519.022 1.15062 -5.70207 0
M  V30 5477 N 517.998 1.65372 -5.17835 0
M  V30 5478 H 521.8 0.456964 -2.90326 0
M  V30 5479 H 519.314 0.152619 -1.61681 0
M  V30 5480 H 521.311 2.92044 -2.97516 0
M  V30 5481 H 519.971 2.68776 -1.8218 0
M  V30 5482 H 520.982 0.958341 -5.08956 0
M  V30 5483 H 517.659 2.69955 -3.18482 0
M  V30 5484 H 519.049 0.678243 -6.68468 0
M  V30 5485 N 521.769 1.56035 0.221574 0
M  V30 5486 C 523.017 1.78693 0.944102 0
M  V30 5487 C 523.338 0.620317 1.8487 0
M  V30 5488 O 522.608 -0.362784 1.92512 0
M  V30 5489 H 521.188 0.659082 0.351597 0
M  V30 5490 H 523.85 1.93497 0.233435 0
M  V30 5491 H 522.946 2.70837 1.55093 0
M  V30 5492 N 523.247 -0.488276 1.49845 0
M  V30 5493 C 524.496 -1.23826 1.59217 0
M  V30 5494 C 524.809 -1.93439 0.289966 0
M  V30 5495 O 526.015 -2.70229 0.262382 0
M  V30 5496 C 524.471 -2.24902 2.80976 0
M  V30 5497 C 524.079 -1.6117 4.18005 0
M  V30 5498 C 525.823 -3.00648 2.99685 0
M  V30 5499 C 523.73 -2.60431 5.3097 0
M  V30 5500 H 522.66 -0.465858 0.592868 0
M  V30 5501 H 525.311 -0.510645 1.76252 0
M  V30 5502 H 523.693 -3.0088 2.57463 0
M  V30 5503 H 524.867 -0.910968 4.51706 0
M  V30 5504 H 523.182 -0.97767 4.0476 0
M  V30 5505 H 525.779 -3.74903 3.81251 0
M  V30 5506 H 526.122 -3.5902 2.10738 0
M  V30 5507 H 526.655 -2.31784 3.23297 0
M  V30 5508 H 523.394 -2.06823 6.22017 0
M  V30 5509 H 522.914 -3.28707 5.01709 0
M  V30 5510 H 524.593 -3.22606 5.60834 0
M  V30 5511 N 524.725 -1.39134 -0.740242 0
M  V30 5512 C 525.974 -1.35384 -1.49512 0
M  V30 5513 C 526.287 0.04919 -1.95538 0
M  V30 5514 O 527.493 0.209257 -2.70692 0
M  V30 5515 C 525.949 -2.37812 -2.70136 0
M  V30 5516 C 525.557 -3.83804 -2.31081 0
M  V30 5517 C 527.301 -2.4313 -3.47977 0
M  V30 5518 C 525.208 -4.77886 -3.48395 0
M  V30 5519 H 524.138 -0.503297 -0.561434 0
M  V30 5520 H 526.789 -1.64754 -0.807974 0
M  V30 5521 H 525.171 -2.01505 -3.40899 0
M  V30 5522 H 526.345 -4.29123 -1.67898 0
M  V30 5523 H 524.66 -3.81732 -1.66343 0
M  V30 5524 H 527.257 -3.10614 -4.35228 0
M  V30 5525 H 527.6 -1.45423 -3.90074 0
M  V30 5526 H 528.133 -2.78304 -2.84239 0
M  V30 5527 H 524.872 -5.76836 -3.11353 0
M  V30 5528 H 524.392 -4.3725 -4.10576 0
M  V30 5529 H 526.071 -4.96538 -4.148 0
M  V30 5530 N 526.204 0.969867 -1.24223 0
M  V30 5531 C 527.134 2.08191 -1.05729 0
M  V30 5532 C 528.115 1.70075 0.0290765 0
M  V30 5533 O 529.3 1.93712 -0.137583 0
M  V30 5534 C 526.43 3.40991 -0.658995 0
M  V30 5535 C 525.384 3.93054 -1.69389 0
M  V30 5536 C 524.71 5.22171 -1.15072 0
M  V30 5537 C 526.01 4.21137 -3.08935 0
M  V30 5538 H 527.704 2.23921 -1.98746 0
M  V30 5539 H 525.25 1.07602 -0.956967 0
M  V30 5540 H 527.203 4.18221 -0.51662 0
M  V30 5541 H 525.927 3.25155 0.30686 0
M  V30 5542 H 524.586 3.17977 -1.82444 0
M  V30 5543 H 524.234 5.02694 -0.175539 0
M  V30 5544 H 523.934 5.57973 -1.84229 0
M  V30 5545 H 525.458 6.02013 -1.02042 0
M  V30 5546 H 526.872 4.8908 -2.99121 0
M  V30 5547 H 525.269 4.68163 -3.75425 0
M  V30 5548 H 526.339 3.27996 -3.57137 0
M  V30 5549 N 527.682 1.05563 1.17022 0
M  V30 5550 C 528.959 0.68165 1.83338 0
M  V30 5551 C 529.339 -0.837665 1.93769 0
M  V30 5552 O 528.687 -1.74507 1.47511 0
M  V30 5553 C 528.897 1.375 3.20772 0
M  V30 5554 C 530.245 1.51545 3.96635 0
M  V30 5555 O 531.269 1.33431 3.30264 0
M  V30 5556 O 530.128 1.812 5.15586 0
M  V30 5557 H 527.222 0.240412 0.791285 0
M  V30 5558 H 529.768 1.15545 1.24288 0
M  V30 5559 H 528.54 2.41135 3.08171 0
M  V30 5560 H 528.163 0.890798 3.87493 0
M  V30 5561 N 529.16 -1.33526 0.837174 0
M  V30 5562 C 530.385 -2.0258 0.444545 0
M  V30 5563 C 530.81 -1.6258 -0.946006 0
M  V30 5564 O 530.168 -0.817548 -1.6182 0
M  V30 5565 C 530.216 -3.5605 0.571006 0
M  V30 5566 O 529.32 -4.10422 -0.403431 0
M  V30 5567 H 528.661 -0.638866 0.180958 0
M  V30 5568 H 531.191 -1.70462 1.13154 0
M  V30 5569 H 531.201 -4.05488 0.452024 0
M  V30 5570 H 529.876 -3.84509 1.58512 0
M  V30 5571 H 528.453 -3.72113 -0.242147 0
M  V30 5572 N 530.638 -0.59345 -1.46 0
M  V30 5573 C 531.884 -0.0832754 -2.02629 0
M  V30 5574 C 532.217 1.27749 -1.46266 0
M  V30 5575 O 531.492 1.8395 -0.631866 0
M  V30 5576 C 531.775 -0.0290756 -3.60088 0
M  V30 5577 C 531.628 -1.41951 -4.26814 0
M  V30 5578 C 532.947 0.666055 -4.35031 0
M  V30 5579 H 530.066 -0.031736 -0.736316 0
M  V30 5580 H 532.708 -0.762711 -1.74019 0
M  V30 5581 H 530.858 0.549532 -3.84594 0
M  V30 5582 H 532.53 -2.04411 -4.13538 0
M  V30 5583 H 530.773 -1.98422 -3.8576 0
M  V30 5584 H 531.444 -1.33395 -5.3564 0
M  V30 5585 H 533.92 0.174401 -4.15734 0
M  V30 5586 H 532.796 0.673041 -5.44758 0
M  V30 5587 H 533.057 1.72946 -4.06869 0
M  V30 5588 N 532.116 1.54067 -0.331816 0
M  V30 5589 C 533.393 1.92915 0.322955 0
M  V30 5590 C 533.773 1.26225 1.69205 0
M  V30 5591 O 533.121 0.408919 2.24811 0
M  V30 5592 C 533.331 3.46619 0.406946 0
M  V30 5593 C 534.679 4.19386 0.663339 0
M  V30 5594 O 535.703 3.5282 0.489536 0
M  V30 5595 O 534.562 5.37288 0.999193 0
M  V30 5596 H 531.656 0.805808 0.186016 0
M  V30 5597 H 534.202 1.65342 -0.382135 0
M  V30 5598 H 532.974 3.87354 -0.554287 0
M  V30 5599 H 532.597 3.80324 1.15929 0
M  V30 5600 N 533.594 0.0601682 1.57485 0
M  V30 5601 C 534.557 -0.896373 2.10945 0
M  V30 5602 C 535.557 -1.23402 1.03095 0
M  V30 5603 O 536.747 -1.16921 1.29132 0
M  V30 5604 C 533.879 -2.20346 2.60116 0
M  V30 5605 H 535.072 -0.432778 2.96761 0
M  V30 5606 H 532.625 -0.188372 1.55161 0
M  V30 5607 H 533.36 -2.71268 1.7772 0
M  V30 5608 H 533.145 -1.9714 3.38937 0
M  V30 5609 H 534.635 -2.88846 3.01592 0
M  V30 5610 N 535.072 -1.5615 -0.213296 0
M  V30 5611 C 536.035 -1.92249 -1.24792 0
M  V30 5612 C 537.035 -0.801828 -1.39382 0
M  V30 5613 O 538.225 -1.06948 -1.37506 0
M  V30 5614 C 535.357 -2.18056 -2.62039 0
M  V30 5615 H 536.55 -2.84793 -0.939845 0
M  V30 5616 H 534.103 -1.49559 -0.454062 0
M  V30 5617 H 534.838 -1.2809 -2.97932 0
M  V30 5618 H 534.623 -2.99703 -2.52825 0
M  V30 5619 H 536.113 -2.47051 -3.36683 0
M  V30 5620 N 536.55 0.480323 -1.50102 0
M  V30 5621 C 537.797 1.23307 -1.60629 0
M  V30 5622 C 538.125 1.92135 -0.302375 0
M  V30 5623 O 537.38 1.82321 0.711154 0
M  V30 5624 C 537.679 2.30708 -2.72963 0
M  V30 5625 C 537.345 1.79195 -4.13763 0
M  V30 5626 C 536.007 1.64867 -4.52076 0
M  V30 5627 C 538.359 1.40878 -5.018 0
M  V30 5628 C 535.687 1.10631 -5.76175 0
M  V30 5629 C 538.039 0.880872 -6.26437 0
M  V30 5630 C 536.703 0.724146 -6.6356 0
M  V30 5631 H 535.973 0.451211 -0.587784 0
M  V30 5632 H 538.62 0.53051 -1.84005 0
M  V30 5633 H 536.925 3.06834 -2.43639 0
M  V30 5634 H 538.622 2.88692 -2.78313 0
M  V30 5635 H 535.212 1.91313 -3.83533 0
M  V30 5636 H 539.396 1.50786 -4.7284 0
M  V30 5637 H 534.652 0.972263 -6.0362 0
M  V30 5638 H 538.826 0.575269 -6.9402 0
M  V30 5639 H 536.453 0.301722 -7.59601 0
M  V30 5640 N 538.028 1.39524 0.732853 0
M  V30 5641 C 539.277 1.36175 1.48792 0
M  V30 5642 C 539.59 -0.0388195 1.95561 0
M  V30 5643 O 540.796 -0.194899 2.708 0
M  V30 5644 C 539.252 2.39242 2.68871 0
M  V30 5645 C 538.86 3.85024 2.29042 0
M  V30 5646 C 540.604 2.44972 3.46683 0
M  V30 5647 C 538.511 4.79727 3.45856 0
M  V30 5648 H 537.441 0.506267 0.558757 0
M  V30 5649 H 540.092 1.65181 0.799226 0
M  V30 5650 H 538.474 2.0331 3.39825 0
M  V30 5651 H 539.648 4.30008 1.6562 0
M  V30 5652 H 537.963 3.82609 1.64316 0
M  V30 5653 H 540.56 3.12918 4.33574 0
M  V30 5654 H 540.903 1.4749 3.89297 0
M  V30 5655 H 541.436 2.79808 2.82759 0
M  V30 5656 H 538.175 5.78479 3.08289 0
M  V30 5657 H 537.695 4.39421 4.08251 0
M  V30 5658 H 539.374 4.98731 4.12161 0
M  V30 5659 N 539.506 -0.963266 1.24736 0
M  V30 5660 C 540.746 -1.72172 1.10165 0
M  V30 5661 C 541.11 -1.88731 -0.352784 0
M  V30 5662 O 542.311 -2.61549 -0.620107 0
M  V30 5663 C 540.582 -3.0724 1.82589 0
M  V30 5664 S 542.141 -3.98449 1.83803 0
M  V30 5665 H 538.959 -0.591901 0.393922 0
M  V30 5666 H 541.561 -1.14955 1.58132 0
M  V30 5667 H 540.265 -2.92851 2.87518 0
M  V30 5668 H 539.796 -3.69521 1.34973 0
M  V30 5669 H 541.811 -4.87805 0.908883 0
M  V30 5670 N 540.985 -1.06182 -1.16461 0
M  V30 5671 C 542.396 -0.802426 -1.68576 0
M  V30 5672 C 542.747 0.67412 -1.84255 0
M  V30 5673 O 541.872 1.52303 -1.5373 0
M  V30 5674 C 542.467 -1.45002 -3.06202 0
M  V30 5675 C 541.026 -1.23843 -3.55443 0
M  V30 5676 C 540.173 -1.52724 -2.31454 0
M  V30 5677 H 543.124 -1.22545 -1.00839 0
M  V30 5678 H 543.145 -0.864731 -3.70544 0
M  V30 5679 H 542.657 -2.52466 -2.94759 0
M  V30 5680 H 540.758 -0.183487 -3.72148 0
M  V30 5681 H 540.871 -1.95036 -4.37604 0
M  V30 5682 H 539.235 -0.947726 -2.36411 0
M  V30 5683 H 540.018 -2.61343 -2.22609 0
M  V30 5684 N 542.463 1.3308 -0.844243 0
M  V30 5685 C 543.711 1.97215 -0.441676 0
M  V30 5686 C 544.032 1.67185 1.0037 0
M  V30 5687 O 543.302 0.973588 1.69994 0
M  V30 5688 H 541.882 0.72959 -0.160335 0
M  V30 5689 H 544.544 1.62348 -1.07838 0
M  V30 5690 H 543.64 3.06698 -0.57815 0
M  V30 5691 N 543.941 0.601185 1.45683 0
M  V30 5692 C 545.166 0.0982245 2.07167 0
M  V30 5693 C 545.591 -1.20546 1.44396 0
M  V30 5694 O 544.949 -1.73247 0.534347 0
M  V30 5695 C 544.997 -0.0346976 3.60583 0
M  V30 5696 O 544.101 -1.08657 3.97828 0
M  V30 5697 H 543.442 0.0711618 0.660176 0
M  V30 5698 H 545.972 0.829376 1.87036 0
M  V30 5699 H 545.982 -0.234969 4.07323 0
M  V30 5700 H 544.657 0.917265 4.05659 0
M  V30 5701 H 543.234 -0.863275 3.6277 0
M  V30 5702 N 545.419 -1.53889 0.339982 0
M  V30 5703 C 546.644 -2.05741 -0.261798 0
M  V30 5704 C 547.069 -1.21354 -1.43718 0
M  V30 5705 O 546.427 -0.22645 -1.7988 0
M  V30 5706 C 546.475 -3.54542 -0.658228 0
M  V30 5707 O 545.579 -3.7302 -1.75869 0
M  V30 5708 H 544.92 -0.662529 -0.0441672 0
M  V30 5709 H 547.45 -1.98568 0.493161 0
M  V30 5710 H 547.46 -3.9711 -0.936368 0
M  V30 5711 H 546.135 -4.15412 0.201358 0
M  V30 5712 H 544.712 -3.42355 -1.47809 0
M  V30 5713 N 546.897 -0.0685191 -1.57451 0
M  V30 5714 C 548.313 0.288101 -1.56978 0
M  V30 5715 C 548.513 1.70262 -1.07765 0
M  V30 5716 O 547.569 2.4135 -0.742054 0
M  V30 5717 C 548.882 0.100745 -3.00531 0
M  V30 5718 C 550.43 0.170531 -3.12535 0
M  V30 5719 C 550.905 0.0114944 -4.57999 0
M  V30 5720 N 552.396 0.0672065 -4.63151 0
M  V30 5721 C 553.131 -0.0314813 -5.73391 0
M  V30 5722 N 552.627 -0.183503 -6.92557 0
M  V30 5723 N 554.42 0.0253489 -5.62094 0
M  V30 5724 H 546.571 -0.993026 -1.87757 0
M  V30 5725 H 548.834 -0.386981 -0.865419 0
M  V30 5726 H 548.54 -0.875197 -3.40636 0
M  V30 5727 H 548.414 0.854457 -3.67395 0
M  V30 5728 H 550.801 1.13696 -2.72318 0
M  V30 5729 H 550.882 -0.614229 -2.48316 0
M  V30 5730 H 550.526 -0.951684 -4.98904 0
M  V30 5731 H 550.456 0.815617 -5.20245 0
M  V30 5732 H 552.947 0.183246 -3.77455 0
M  V30 5733 H 553.26 -0.251041 -7.72392 0
M  V30 5734 H 551.605 -0.218822 -6.94655 0
M  V30 5735 H 554.796 0.142794 -4.67882 0
M  V30 5736 H 554.969 -0.0550166 -6.47977 0
M  V30 5737 N 548.375 1.56261 0.205012 0
M  V30 5738 C 549.305 1.96779 1.257 0
M  V30 5739 C 550.286 0.838309 1.48008 0
M  V30 5740 O 551.471 1.10189 1.59913 0
M  V30 5741 C 548.601 2.29876 2.60335 0
M  V30 5742 C 547.555 3.45469 2.52656 0
M  V30 5743 C 546.881 3.64215 3.91473 0
M  V30 5744 C 548.181 4.79954 2.06014 0
M  V30 5745 H 549.875 2.84904 0.920338 0
M  V30 5746 H 547.421 1.37072 0.441277 0
M  V30 5747 H 549.374 2.56814 3.34102 0
M  V30 5748 H 548.098 1.38622 2.95722 0
M  V30 5749 H 546.757 3.18605 1.81345 0
M  V30 5750 H 546.405 2.70309 4.24196 0
M  V30 5751 H 546.105 4.41973 3.87213 0
M  V30 5752 H 547.629 3.93519 4.66878 0
M  V30 5753 H 549.043 5.05989 2.69533 0
M  V30 5754 H 547.44 5.61111 2.12777 0
M  V30 5755 H 548.51 4.74201 1.01297 0
M  V30 5756 N 549.853 -0.472356 1.50355 0
M  V30 5757 C 550.803 -1.56809 1.65514 0
M  V30 5758 C 551.787 -1.5261 0.509801 0
M  V30 5759 O 552.979 -1.59655 0.764145 0
M  V30 5760 C 550.108 -2.9526 1.75146 0
M  V30 5761 C 549.194 -3.04348 2.95353 0
M  V30 5762 N 549.585 -2.83253 4.19048 0
M  V30 5763 C 547.883 -3.35482 2.93884 0
M  V30 5764 C 548.584 -2.97273 5.00003 0
M  V30 5765 N 547.56 -3.27418 4.33934 0
M  V30 5766 H 551.362 -1.39197 2.58846 0
M  V30 5767 H 548.876 -0.67906 1.47521 0
M  V30 5768 H 550.873 -3.74044 1.8411 0
M  V30 5769 H 549.533 -3.1392 0.829717 0
M  V30 5770 H 550.544 -2.5886 4.48567 0
M  V30 5771 H 547.221 -3.60138 2.11204 0
M  V30 5772 H 548.611 -2.85214 6.08361 0
M  V30 5773 N 551.331 -1.39911 -0.725443 0
M  V30 5774 C 552.58 -1.36963 -1.48068 0
M  V30 5775 C 552.893 0.0284478 -1.95579 0
M  V30 5776 O 554.099 0.180535 -2.70899 0
M  V30 5777 C 552.555 -2.40664 -2.67598 0
M  V30 5778 C 552.163 -3.86234 -2.26997 0
M  V30 5779 C 553.907 -2.46807 -3.45379 0
M  V30 5780 C 551.814 -4.81554 -3.43307 0
M  V30 5781 H 550.744 -0.509223 -0.556065 0
M  V30 5782 H 553.395 -1.65602 -0.790454 0
M  V30 5783 H 551.777 -2.05109 -3.38742 0
M  V30 5784 H 552.951 -4.3088 -1.63337 0
M  V30 5785 H 551.266 -3.83475 -1.62284 0
M  V30 5786 H 553.863 -3.15213 -4.31909 0
M  V30 5787 H 554.206 -1.49552 -3.8851 0
M  V30 5788 H 554.739 -2.81303 -2.81271 0
M  V30 5789 H 551.478 -5.80106 -3.05217 0
M  V30 5790 H 550.998 -4.4158 -4.05915 0
M  V30 5791 H 552.677 -5.0091 -4.0951 0
M  V30 5792 N 552.809 0.956637 -1.25245 0
M  V30 5793 C 553.742 2.05232 -0.99775 0
M  V30 5794 C 554.72 1.62439 0.0723137 0
M  V30 5795 O 555.904 1.88381 -0.066926 0
M  V30 5796 C 553.031 3.34871 -0.507861 0
M  V30 5797 C 552.077 3.96625 -1.56815 0
M  V30 5798 S 552.91 4.32853 -3.15276 0
M  V30 5799 C 554.066 5.65613 -2.68017 0
M  V30 5800 H 554.299 2.26521 -1.9255 0
M  V30 5801 H 551.832 1.09601 -1.08752 0
M  V30 5802 H 553.79 4.09845 -0.231858 0
M  V30 5803 H 552.451 3.11551 0.399356 0
M  V30 5804 H 551.644 4.90087 -1.17604 0
M  V30 5805 H 551.246 3.28124 -1.79473 0
M  V30 5806 H 553.538 6.43635 -2.11518 0
M  V30 5807 H 554.481 6.09693 -3.60112 0
M  V30 5808 H 554.889 5.24751 -2.0808 0
M  V30 5809 N 554.287 1.06798 1.15896 0
M  V30 5810 C 555.25 0.687328 2.18651 0
M  V30 5811 C 556.25 -0.269559 1.58524 0
M  V30 5812 O 557.44 -0.0512627 1.74125 0
M  V30 5813 C 554.572 0.0121642 3.40898 0
M  V30 5814 H 555.765 1.59701 2.53842 0
M  V30 5815 H 553.318 0.863828 1.3026 0
M  V30 5816 H 554.053 -0.910025 3.1127 0
M  V30 5817 H 553.838 0.700309 3.85795 0
M  V30 5818 H 555.328 -0.239703 4.16911 0
M  V30 5819 N 555.766 -1.3263 0.851289 0
M  V30 5820 C 557.014 -1.96978 0.452128 0
M  V30 5821 C 557.335 -1.67715 -0.99482 0
M  V30 5822 O 556.605 -0.98259 -1.69476 0
M  V30 5823 H 555.185 -0.72873 0.164202 0
M  V30 5824 H 557.847 -1.61774 1.08698 0
M  V30 5825 H 556.943 -3.06387 0.594407 0
M  V30 5826 N 557.244 -0.608902 -1.45362 0
M  V30 5827 C 558.66 -0.272659 -1.57254 0
M  V30 5828 C 558.86 1.22477 -1.60005 0
M  V30 5829 O 557.916 2.00785 -1.53106 0
M  V30 5830 C 559.229 -0.944991 -2.85465 0
M  V30 5831 C 560.777 -0.921033 -2.99142 0
M  V30 5832 C 561.252 -1.5734 -4.30126 0
M  V30 5833 N 562.743 -1.53895 -4.36887 0
M  V30 5834 C 563.478 -2.01286 -5.36909 0
M  V30 5835 N 562.974 -2.56768 -6.43461 0
M  V30 5836 N 564.767 -1.92046 -5.28275 0
M  V30 5837 H 556.918 -1.58117 -1.4182 0
M  V30 5838 H 559.181 -0.662437 -0.678146 0
M  V30 5839 H 558.887 -1.99941 -2.89338 0
M  V30 5840 H 558.761 -0.469079 -3.74272 0
M  V30 5841 H 561.148 0.124846 -2.94836 0
M  V30 5842 H 561.229 -1.43522 -2.11743 0
M  V30 5843 H 560.873 -2.61862 -4.35191 0
M  V30 5844 H 560.803 -1.03422 -5.16344 0
M  V30 5845 H 563.294 -1.13366 -3.60495 0
M  V30 5846 H 563.607 -2.9072 -7.16032 0
M  V30 5847 H 561.952 -2.60808 -6.44208 0
M  V30 5848 H 565.143 -1.48439 -4.43941 0
M  V30 5849 H 565.316 -2.29293 -6.06077 0
M  V30 5850 N 558.722 1.53707 -0.348139 0
M  V30 5851 C 560.138 1.596 0.00361134 0
M  V30 5852 C 560.338 1.36394 1.4832 0
M  V30 5853 O 559.394 1.16046 2.24253 0
M  V30 5854 C 560.707 2.97512 -0.436682 0
M  V30 5855 C 562.255 3.10568 -0.389416 0
M  V30 5856 C 562.73 4.50866 -0.805249 0
M  V30 5857 N 564.221 4.56929 -0.759616 0
M  V30 5858 C 564.956 5.63643 -1.05327 0
M  V30 5859 N 564.452 6.78189 -1.41531 0
M  V30 5860 N 566.245 5.5354 -0.977207 0
M  V30 5861 H 558.396 1.67044 -1.31187 0
M  V30 5862 H 560.659 0.782559 -0.535075 0
M  V30 5863 H 560.365 3.19575 -1.46849 0
M  V30 5864 H 560.239 3.76742 0.185744 0
M  V30 5865 H 562.626 2.88226 0.633228 0
M  V30 5866 H 562.707 2.33387 -1.04711 0
M  V30 5867 H 562.351 4.73943 -1.82593 0
M  V30 5868 H 562.281 5.26452 -0.124989 0
M  V30 5869 H 564.772 3.74675 -0.49265 0
M  V30 5870 H 565.085 7.55541 -1.62411 0
M  V30 5871 H 563.43 6.79624 -1.45381 0
M  V30 5872 H 566.621 4.62932 -0.693675 0
M  V30 5873 H 566.794 6.36614 -1.2094 0
M  V30 5874 N 560.2 0.0768682 1.57412 0
M  V30 5875 C 561.13 -0.886026 2.16037 0
M  V30 5876 C 562.111 -1.30691 1.08876 0
M  V30 5877 O 563.296 -1.37705 1.36934 0
M  V30 5878 C 560.426 -2.1518 2.72608 0
M  V30 5879 C 559.38 -1.87015 3.8498 0
M  V30 5880 C 558.706 -3.20266 4.28175 0
M  V30 5881 C 560.006 -1.17143 5.08994 0
M  V30 5882 H 561.7 -0.397642 2.96748 0
M  V30 5883 H 559.246 -0.189823 1.42743 0
M  V30 5884 H 561.199 -2.82962 3.12266 0
M  V30 5885 H 559.923 -2.66269 1.89125 0
M  V30 5886 H 558.582 -1.21636 3.45833 0
M  V30 5887 H 558.23 -3.69207 3.41607 0
M  V30 5888 H 557.93 -3.0221 5.03927 0
M  V30 5889 H 559.454 -3.89237 4.70454 0
M  V30 5890 H 560.868 -1.75003 5.45937 0
M  V30 5891 H 559.265 -1.09328 5.90057 0
M  V30 5892 H 560.335 -0.151295 4.84664 0
M  V30 5893 N 561.678 -1.56367 -0.196722 0
M  V30 5894 C 562.924 -1.81698 -0.914182 0
M  V30 5895 C 563.279 -0.65367 -1.80956 0
M  V30 5896 O 562.572 0.351224 -1.88353 0
M  V30 5897 C 562.766 -3.10663 -1.767 0
M  V30 5898 C 562.595 -4.39428 -0.955689 0
M  V30 5899 C 561.365 -5.01221 -0.64076 0
M  V30 5900 C 563.563 -5.1337 -0.309165 0
M  V30 5901 N 561.545 -6.13608 0.189358 0
M  V30 5902 C 562.916 -6.18815 0.383225 0
M  V30 5903 C 564.971 -4.97393 -0.224726 0
M  V30 5904 C 563.674 -7.10015 1.15201 0
M  V30 5905 C 565.7 -5.89014 0.530658 0
M  V30 5906 C 565.062 -6.93903 1.2115 0
M  V30 5907 H 561.161 -0.716203 -0.31397 0
M  V30 5908 H 563.745 -1.93838 -0.18304 0
M  V30 5909 H 561.916 -2.99762 -2.46976 0
M  V30 5910 H 563.648 -3.24088 -2.42382 0
M  V30 5911 H 560.403 -4.63669 -0.96479 0
M  V30 5912 H 560.827 -6.74389 0.593979 0
M  V30 5913 H 565.469 -4.16331 -0.736754 0
M  V30 5914 H 563.187 -7.9054 1.67547 0
M  V30 5915 H 566.773 -5.78726 0.597326 0
M  V30 5916 H 565.653 -7.63576 1.78665 0
M  V30 5917 N 563.156 0.464375 -1.50603 0
M  V30 5918 C 564.402 1.21485 -1.63135 0
M  V30 5919 C 564.757 1.89538 -0.33063 0
M  V30 5920 O 564.05 1.79432 0.671903 0
M  V30 5921 C 564.244 2.278 -2.75394 0
M  V30 5922 C 564.073 1.70178 -4.16257 0
M  V30 5923 C 562.843 1.49854 -4.82568 0
M  V30 5924 C 565.041 1.19298 -5.00272 0
M  V30 5925 N 563.023 0.875458 -6.07626 0
M  V30 5926 C 564.394 0.693527 -6.16109 0
M  V30 5927 C 566.449 1.08216 -4.85998 0
M  V30 5928 C 565.152 0.0941808 -7.19238 0
M  V30 5929 C 567.178 0.496745 -5.8931 0
M  V30 5930 C 566.54 0.00770448 -7.044 0
M  V30 5931 H 562.639 0.433184 -0.651057 0
M  V30 5932 H 565.223 0.515748 -1.87745 0
M  V30 5933 H 563.394 2.95129 -2.52495 0
M  V30 5934 H 565.126 2.94814 -2.77249 0
M  V30 5935 H 561.881 1.75269 -4.39975 0
M  V30 5936 H 562.305 0.582135 -6.74493 0
M  V30 5937 H 566.947 1.44617 -3.97298 0
M  V30 5938 H 564.665 -0.28202 -8.07608 0
M  V30 5939 H 568.251 0.413275 -5.8033 0
M  V30 5940 H 567.131 -0.438188 -7.82975 0
M  V30 5941 N 564.634 1.40294 0.718013 0
M  V30 5942 C 565.564 1.43118 1.84498 0
M  V30 5943 C 566.545 0.292403 1.67568 0
M  V30 5944 O 567.73 0.500675 1.87635 0
M  V30 5945 C 564.86 1.29065 3.22427 0
M  V30 5946 C 563.814 2.40521 3.54025 0
M  V30 5947 C 563.14 2.11546 4.91073 0
M  V30 5948 C 564.44 3.82859 3.55269 0
M  V30 5949 H 566.134 2.37432 1.82391 0
M  V30 5950 H 563.68 1.14283 0.87609 0
M  V30 5951 H 565.633 1.29658 4.00957 0
M  V30 5952 H 564.357 0.312271 3.25104 0
M  V30 5953 H 563.016 2.39173 2.77834 0
M  V30 5954 H 562.664 1.12104 4.90348 0
M  V30 5955 H 562.364 2.86216 5.1318 0
M  V30 5956 H 563.888 2.13817 5.71939 0
M  V30 5957 H 565.302 3.86044 4.23843 0
M  V30 5958 H 563.699 4.57029 3.88902 0
M  V30 5959 H 564.769 4.12617 2.54706 0
M  V30 5960 N 566.112 -0.949982 1.2575 0
M  V30 5961 C 567.389 -1.6718 1.01539 0
M  V30 5962 C 567.769 -2.06095 -0.456942 0
M  V30 5963 O 567.117 -1.77792 -1.43534 0
M  V30 5964 C 567.327 -2.8906 1.95564 0
M  V30 5965 C 568.675 -3.60909 2.23673 0
M  V30 5966 O 569.699 -2.9915 1.9336 0
M  V30 5967 O 568.558 -4.72127 2.75243 0
M  V30 5968 H 565.652 -0.731697 0.385419 0
M  V30 5969 H 568.198 -1.00249 1.36924 0
M  V30 5970 H 566.97 -2.57128 2.94959 0
M  V30 5971 H 566.593 -3.63719 1.60605 0
M  V30 5972 N 567.59 -1.07411 -1.15328 0
M  V30 5973 C 568.52 -0.716472 -2.22236 0
M  V30 5974 C 569.501 0.296373 -1.67498 0
M  V30 5975 O 570.686 0.168989 -1.93463 0
M  V30 5976 C 567.816 -0.114142 -3.47112 0
M  V30 5977 C 566.77 -1.05421 -4.14814 0
M  V30 5978 C 566.096 -0.314604 -5.33774 0
M  V30 5979 C 567.396 -2.38808 -4.64508 0
M  V30 5980 H 569.09 -1.61029 -2.52408 0
M  V30 5981 H 566.636 -0.775702 -1.21321 0
M  V30 5982 H 568.589 0.148001 -4.2114 0
M  V30 5983 H 567.313 0.814755 -3.16274 0
M  V30 5984 H 565.972 -1.30128 -3.42728 0
M  V30 5985 H 565.62 0.617772 -4.99192 0
M  V30 5986 H 565.32 -0.941209 -5.80013 0
M  V30 5987 H 566.844 -0.0602747 -6.1057 0
M  V30 5988 H 568.258 -2.18424 -5.3006 0
M  V30 5989 H 566.655 -2.97069 -5.21412 0
M  V30 5990 H 567.725 -3.01067 -3.80114 0
M  V30 5991 N 569.068 1.32177 -0.85831 0
M  V30 5992 C 570.015 2.28794 -0.303607 0
M  V30 5993 C 570.985 1.55213 0.591453 0
M  V30 5994 O 572.17 1.83418 0.525585 0
M  V30 5995 C 569.31 3.41475 0.49889 0
M  V30 5996 C 568.423 4.2993 -0.422373 0
M  V30 5997 C 567.558 5.29743 0.393111 0
M  V30 5998 C 566.597 6.09842 -0.525317 0
M  V30 5999 N 565.734 7.01643 0.253208 0
M  V30 6000 H 570.574 2.75631 -1.13276 0
M  V30 6001 H 568.111 1.35606 -0.570026 0
M  V30 6002 H 570.069 4.05531 0.979826 0
M  V30 6003 H 568.699 2.95779 1.29284 0
M  V30 6004 H 567.751 3.66422 -1.02171 0
M  V30 6005 H 569.063 4.85899 -1.12709 0
M  V30 6006 H 568.217 5.9942 0.937056 0
M  V30 6007 H 566.956 4.744 1.13117 0
M  V30 6008 H 565.961 5.39066 -1.08112 0
M  V30 6009 H 567.186 6.6727 -1.26205 0
M  V30 6010 H 565.132 6.48725 0.974295 0
M  V30 6011 H 565.049 7.54981 -0.392398 0
M  V30 6012 H 566.317 7.756 0.778761 0
M  V30 6013 N 570.547 0.616602 1.45037 0
M  V30 6014 C 571.772 0.120192 2.07051 0
M  V30 6015 C 572.197 -1.19008 1.45666 0
M  V30 6016 O 571.555 -1.7267 0.552692 0
M  V30 6017 C 571.603 0.00354901 3.606 0
M  V30 6018 O 570.707 -1.04431 3.98958 0
M  V30 6019 H 570.048 0.0781599 0.659384 0
M  V30 6020 H 572.578 0.849167 1.86146 0
M  V30 6021 H 572.588 -0.191754 4.07549 0
M  V30 6022 H 571.263 0.960239 4.04663 0
M  V30 6023 H 569.84 -0.824749 3.63665 0
M  V30 6024 N 572.025 -1.5352 0.356285 0
M  V30 6025 C 573.273 -2.00719 -0.235837 0
M  V30 6026 C 573.594 -1.24551 -1.5004 0
M  V30 6027 O 572.864 -0.356185 -1.92635 0
M  V30 6028 H 571.444 -0.741542 -0.0901366 0
M  V30 6029 H 574.106 -1.88887 0.480378 0
M  V30 6030 H 573.202 -3.08551 -0.469357 0
M  V30 6031 N 573.503 -0.0852151 -1.57369 0
M  V30 6032 C 574.466 0.8627 -2.12344 0
M  V30 6033 C 575.466 1.21746 -1.05046 0
M  V30 6034 O 576.656 1.14852 -1.30976 0
M  V30 6035 C 573.788 2.1618 -2.63589 0
M  V30 6036 H 574.981 0.385511 -2.97412 0
M  V30 6037 H 572.534 0.163663 -1.55441 0
M  V30 6038 H 573.269 2.68406 -1.82013 0
M  V30 6039 H 573.054 1.91723 -3.4203 0
M  V30 6040 H 574.544 2.84011 -3.06149 0
M  V30 6041 N 574.981 1.5647 0.188427 0
M  V30 6042 C 575.913 1.91611 1.25769 0
M  V30 6043 C 576.926 0.807436 1.41366 0
M  V30 6044 O 578.115 1.08586 1.41673 0
M  V30 6045 C 575.215 2.13874 2.6289 0
M  V30 6046 C 574.388 3.45047 2.68815 0
M  V30 6047 C 573.447 3.56342 3.87178 0
M  V30 6048 O 572.473 4.29109 3.73971 0
M  V30 6049 N 573.675 2.89924 5.02916 0
M  V30 6050 H 576.44 2.8393 0.959373 0
M  V30 6051 H 574.001 1.57418 0.378306 0
M  V30 6052 H 575.993 2.18713 3.4051 0
M  V30 6053 H 574.563 1.28022 2.85183 0
M  V30 6054 H 573.783 3.52017 1.77419 0
M  V30 6055 H 575.071 4.31395 2.6977 0
M  V30 6056 H 574.469 2.30644 5.16546 0
M  V30 6057 H 573.026 3.0038 5.78459 0
M  V30 6058 N 576.459 -0.456382 1.50847 0
M  V30 6059 C 577.422 -1.53493 1.70213 0
M  V30 6060 C 578.422 -1.50264 0.572481 0
M  V30 6061 O 579.612 -1.52623 0.839751 0
M  V30 6062 C 576.744 -2.93091 1.741 0
M  V30 6063 H 577.937 -1.37633 2.66453 0
M  V30 6064 H 575.49 -0.683776 1.4055 0
M  V30 6065 H 576.225 -3.14378 0.796063 0
M  V30 6066 H 576.01 -2.9684 2.5618 0
M  V30 6067 H 577.5 -3.71368 1.90987 0
M  V30 6068 N 577.937 -1.40673 -0.710563 0
M  V30 6069 C 579.165 -1.42547 -1.4996 0
M  V30 6070 C 579.58 -0.0265485 -1.88781 0
M  V30 6071 O 578.937 0.950694 -1.55782 0
M  V30 6072 C 578.988 -2.32071 -2.77173 0
M  V30 6073 O 578.709 -3.66518 -2.39992 0
M  V30 6074 C 580.21 -2.42591 -3.71032 0
M  V30 6075 H 577.43 -0.486025 -0.462623 0
M  V30 6076 H 579.974 -1.84783 -0.876102 0
M  V30 6077 H 578.129 -1.93184 -3.35795 0
M  V30 6078 H 578.543 -4.14115 -3.21884 0
M  V30 6079 H 580.017 -3.09429 -4.57119 0
M  V30 6080 H 580.494 -1.4525 -4.14486 0
M  V30 6081 H 581.1 -2.82051 -3.18319 0
M  V30 6082 N 579.415 0.9433 -1.26252 0
M  V30 6083 C 580.661 1.69226 -1.12846 0
M  V30 6084 C 581.016 1.8963 0.325282 0
M  V30 6085 O 580.309 1.46435 1.23561 0
M  V30 6086 C 580.503 3.07073 -1.82868 0
M  V30 6087 C 580.332 3.00118 -3.34902 0
M  V30 6088 C 579.102 3.03251 -4.04186 0
M  V30 6089 C 581.3 2.80418 -4.31127 0
M  V30 6090 N 579.282 2.86573 -5.42908 0
M  V30 6091 C 580.653 2.72287 -5.5701 0
M  V30 6092 C 582.708 2.65185 -4.21404 0
M  V30 6093 C 581.411 2.50479 -6.74279 0
M  V30 6094 C 583.437 2.4475 -5.38378 0
M  V30 6095 C 582.799 2.37349 -6.63208 0
M  V30 6096 H 578.898 0.626716 -0.467708 0
M  V30 6097 H 581.482 1.11645 -1.5951 0
M  V30 6098 H 579.653 3.62797 -1.38682 0
M  V30 6099 H 581.385 3.70816 -1.62103 0
M  V30 6100 H 578.14 3.12882 -3.55531 0
M  V30 6101 H 578.564 2.81408 -6.15742 0
M  V30 6102 H 583.206 2.69675 -3.25631 0
M  V30 6103 H 580.924 2.4473 -7.70151 0
M  V30 6104 H 584.51 2.33872 -5.32724 0
M  V30 6105 H 583.39 2.21746 -7.52196 0
M  V30 6106 N 580.893 1.08022 1.14757 0
M  V30 6107 C 582.121 0.828847 1.89572 0
M  V30 6108 C 582.536 -0.618621 1.78377 0
M  V30 6109 O 581.893 -1.42482 1.1404 0
M  V30 6110 C 581.944 1.23677 3.39685 0
M  V30 6111 O 581.665 2.62746 3.50566 0
M  V30 6112 C 583.166 1.01569 4.31507 0
M  V30 6113 H 580.386 0.299196 0.600602 0
M  V30 6114 H 582.93 1.43846 1.45357 0
M  V30 6115 H 581.085 0.671347 3.81539 0
M  V30 6116 H 581.499 2.79573 4.43778 0
M  V30 6117 H 582.973 1.35055 5.35223 0
M  V30 6118 H 583.45 -0.0475433 4.39174 0
M  V30 6119 H 584.056 1.56636 3.95405 0
M  V30 6120 N 582.371 -1.3172 0.865308 0
M  V30 6121 C 583.281 -2.32394 0.320935 0
M  V30 6122 C 584.297 -1.64511 -0.566746 0
M  V30 6123 O 585.473 -1.95969 -0.464575 0
M  V30 6124 C 582.538 -3.43462 -0.472701 0
M  V30 6125 C 581.599 -4.27015 0.442385 0
M  V30 6126 C 580.832 -5.32779 -0.313469 0
M  V30 6127 O 581.055 -5.49158 -1.54214 0
M  V30 6128 O 579.989 -6.01015 0.326257 0
M  V30 6129 H 583.815 -2.80868 1.15528 0
M  V30 6130 H 581.4 -1.35535 0.628545 0
M  V30 6131 H 583.282 -4.11172 -0.922781 0
M  V30 6132 H 581.957 -2.97159 -1.28367 0
M  V30 6133 H 580.864 -3.62075 0.940866 0
M  V30 6134 H 582.197 -4.76871 1.21882 0
M  V30 6135 N 583.85 -0.624285 -1.44708 0
M  V30 6136 C 584.779 0.0717025 -2.3339 0
M  V30 6137 C 585.76 0.841814 -1.47809 0
M  V30 6138 O 586.946 0.809056 -1.76544 0
M  V30 6139 C 584.076 1.05852 -3.30776 0
M  V30 6140 C 583.029 0.400503 -4.26122 0
M  V30 6141 C 582.356 1.49674 -5.13324 0
M  V30 6142 C 583.656 -0.688924 -5.17737 0
M  V30 6143 H 585.35 -0.668819 -2.91834 0
M  V30 6144 H 582.896 -0.32308 -1.40329 0
M  V30 6145 H 584.849 1.5541 -3.91696 0
M  V30 6146 H 583.572 1.82984 -2.70526 0
M  V30 6147 H 582.231 -0.0743687 -3.66525 0
M  V30 6148 H 581.88 2.25877 -4.49431 0
M  V30 6149 H 581.58 1.06188 -5.77926 0
M  V30 6150 H 583.104 1.99427 -5.77115 0
M  V30 6151 H 584.518 -0.276724 -5.72632 0
M  V30 6152 H 582.915 -1.04652 -5.90904 0
M  V30 6153 H 583.985 -1.55884 -4.5916 0
M  V30 6154 N 585.328 1.53329 -0.364422 0
M  V30 6155 C 586.739 1.86345 0.115039 0
M  V30 6156 C 587.09 1.28505 1.4826 0
M  V30 6157 O 586.215 0.606639 2.07723 0
M  V30 6158 C 586.81 3.38114 0.215522 0
M  V30 6159 C 585.369 3.70932 0.639237 0
M  V30 6160 C 584.516 2.76471 -0.214261 0
M  V30 6161 H 587.467 1.47593 -0.583258 0
M  V30 6162 H 587.488 3.66031 1.0393 0
M  V30 6163 H 587 3.80182 -0.779948 0
M  V30 6164 H 585.101 3.3442 1.64298 0
M  V30 6165 H 585.214 4.77302 0.41465 0
M  V30 6166 H 583.578 2.52724 0.316678 0
M  V30 6167 H 584.361 3.21373 -1.20725 0
M  V30 6168 N 586.806 0.0935595 1.57322 0
M  V30 6169 C 588.052 -0.565234 1.95388 0
M  V30 6170 C 588.407 -1.65888 0.974632 0
M  V30 6171 O 587.7 -1.916 0.000376385 0
M  V30 6172 C 587.894 -1.16692 3.37813 0
M  V30 6173 C 587.723 -0.133091 4.49503 0
M  V30 6174 C 586.493 0.289884 5.04468 0
M  V30 6175 C 588.691 0.638141 5.10326 0
M  V30 6176 N 586.673 1.31214 5.99713 0
M  V30 6177 C 588.044 1.51227 6.01274 0
M  V30 6178 C 590.099 0.691827 4.9307 0
M  V30 6179 C 588.802 2.43536 6.76818 0
M  V30 6180 C 590.828 1.60251 5.69274 0
M  V30 6181 C 590.19 2.46427 6.59889 0
M  V30 6182 H 586.289 -0.177212 0.761656 0
M  V30 6183 H 588.873 0.175769 1.93905 0
M  V30 6184 H 587.044 -1.87775 3.39993 0
M  V30 6185 H 588.776 -1.78795 3.63063 0
M  V30 6186 H 585.531 -0.0975541 4.735 0
M  V30 6187 H 585.955 1.82143 6.52038 0
M  V30 6188 H 590.597 0.0397431 4.22781 0
M  V30 6189 H 588.315 3.0977 7.4637 0
M  V30 6190 H 591.901 1.64917 5.57937 0
M  V30 6191 H 590.781 3.15751 7.17824 0
M  V30 6192 N 588.284 -1.56567 -0.180126 0
M  V30 6193 C 589.695 -1.7126 -0.743422 0
M  V30 6194 C 590.046 -0.70263 -1.83187 0
M  V30 6195 O 589.171 0.137856 -2.1596 0
M  V30 6196 C 589.766 -3.10512 -1.35528 0
M  V30 6197 C 588.325 -3.26919 -1.8655 0
M  V30 6198 C 587.472 -2.67213 -0.741099 0
M  V30 6199 H 590.423 -1.58636 0.0451543 0
M  V30 6200 H 590.444 -3.08673 -2.22489 0
M  V30 6201 H 589.956 -3.83997 -0.562862 0
M  V30 6202 H 588.057 -2.58376 -2.68464 0
M  V30 6203 H 588.17 -4.34574 -2.01699 0
M  V30 6204 H 586.534 -2.26788 -1.15927 0
M  V30 6205 H 587.317 -3.43277 0.0393291 0
M  V30 6206 N 589.762 0.448376 -1.51087 0
M  V30 6207 C 590.712 1.54156 -1.67988 0
M  V30 6208 C 591.696 1.5178 -0.534015 0
M  V30 6209 O 592.888 1.58419 -0.789448 0
M  V30 6210 C 590.017 2.92437 -1.79822 0
M  V30 6211 C 589.103 2.99611 -3.00157 0
M  V30 6212 N 589.494 2.7655 -4.23502 0
M  V30 6213 C 587.792 3.30764 -2.99184 0
M  V30 6214 C 588.493 2.89281 -5.0467 0
M  V30 6215 N 587.469 3.20473 -4.39088 0
M  V30 6216 H 591.271 1.35061 -2.61028 0
M  V30 6217 H 588.785 0.655504 -1.48583 0
M  V30 6218 H 590.782 3.71068 -1.90037 0
M  V30 6219 H 589.442 3.1256 -0.879554 0
M  V30 6220 H 590.453 2.5169 -4.52628 0
M  V30 6221 H 587.13 3.56732 -2.16907 0
M  V30 6222 H 588.52 2.75499 -6.12821 0
M  V30 6223 N 591.24 1.41047 0.703093 0
M  V30 6224 C 592.15 1.44645 1.84703 0
M  V30 6225 C 593.166 0.337778 1.7069 0
M  V30 6226 O 594.342 0.584327 1.92737 0
M  V30 6227 C 591.407 1.31928 3.20618 0
M  V30 6228 C 590.468 2.53047 3.46794 0
M  V30 6229 C 589.701 2.40927 4.76224 0
M  V30 6230 O 589.924 1.42978 5.5219 0
M  V30 6231 O 588.858 3.30543 5.03016 0
M  V30 6232 H 592.684 2.41139 1.84624 0
M  V30 6233 H 590.269 1.22504 0.855167 0
M  V30 6234 H 592.151 1.27092 4.01778 0
M  V30 6235 H 590.826 0.385469 3.21397 0
M  V30 6236 H 589.733 2.6346 2.65593 0
M  V30 6237 H 591.066 3.45231 3.50822 0
M  V30 6238 N 592.718 -0.936591 1.26751 0
M  V30 6239 C 593.665 -2.03597 1.08706 0
M  V30 6240 C 594.635 -1.66097 -0.00926542 0
M  V30 6241 O 595.82 -1.90199 0.151377 0
M  V30 6242 C 592.96 -3.3727 0.73094 0
M  V30 6243 C 592.073 -3.87778 1.90399 0
M  V30 6244 C 591.208 -5.09859 1.49056 0
M  V30 6245 C 590.247 -5.5264 2.63164 0
M  V30 6246 N 589.384 -6.65921 2.22471 0
M  V30 6247 H 594.224 -2.18364 2.02784 0
M  V30 6248 H 591.761 -1.06985 1.00958 0
M  V30 6249 H 593.719 -4.14128 0.505328 0
M  V30 6250 H 592.349 -3.22337 -0.172868 0
M  V30 6251 H 591.401 -3.07279 2.2424 0
M  V30 6252 H 592.713 -4.15464 2.76028 0
M  V30 6253 H 591.867 -5.9419 1.22567 0
M  V30 6254 H 590.606 -4.8393 0.60524 0
M  V30 6255 H 589.611 -4.66863 2.90377 0
M  V30 6256 H 590.836 -5.80568 3.52303 0
M  V30 6257 H 588.782 -6.41667 1.36379 0
M  V30 6258 H 588.699 -6.93216 3.01641 0
M  V30 6259 H 589.967 -7.53616 1.99205 0
M  V30 6260 N 594.196 -1.08629 -1.14182 0
M  V30 6261 C 595.442 -0.818556 -1.85546 0
M  V30 6262 C 595.775 0.654076 -1.82854 0
M  V30 6263 O 595.05 1.48099 -1.26083 0
M  V30 6264 C 595.333 -1.34397 -3.3408 0
M  V30 6265 C 595.186 -2.8821 -3.45333 0
M  V30 6266 C 596.505 -0.971069 -4.29253 0
M  V30 6267 H 593.624 -0.298821 -0.673702 0
M  V30 6268 H 596.266 -1.34629 -1.34071 0
M  V30 6269 H 594.416 -0.895064 -3.78049 0
M  V30 6270 H 596.088 -3.41488 -3.10134 0
M  V30 6271 H 594.331 -3.25756 -2.86471 0
M  V30 6272 H 595.002 -3.20047 -4.49749 0
M  V30 6273 H 597.478 -1.35809 -3.93313 0
M  V30 6274 H 596.354 -1.36586 -5.31635 0
M  V30 6275 H 596.615 0.121659 -4.41933 0
M  V30 6276 N 595.674 1.31259 -0.872281 0
M  V30 6277 C 596.951 1.91362 -0.404943 0
M  V30 6278 C 597.331 1.79362 1.11321 0
M  V30 6279 O 596.679 1.20277 1.94283 0
M  V30 6280 C 596.889 3.3749 -0.888893 0
M  V30 6281 C 598.237 4.14593 -0.916384 0
M  V30 6282 O 599.261 3.46282 -0.834701 0
M  V30 6283 O 598.12 5.3661 -1.03498 0
M  V30 6284 H 595.214 0.818016 -0.121569 0
M  V30 6285 H 597.76 1.39912 -0.960346 0
M  V30 6286 H 596.532 3.40249 -1.93251 0
M  V30 6287 H 596.155 3.96375 -0.311932 0
M  V30 6288 N 597.152 0.631951 1.44375 0
M  V30 6289 C 598.4 0.136497 2.01639 0
M  V30 6290 C 598.721 -1.24637 1.49969 0
M  V30 6291 O 597.991 -1.82827 0.70363 0
M  V30 6292 H 596.571 0.0474703 0.74549 0
M  V30 6293 H 599.233 0.818837 1.76865 0
M  V30 6294 H 598.329 0.104817 3.11924 0
M  V30 6295 N 598.631 -1.53133 0.372548 0
M  V30 6296 C 599.594 -2.24569 -0.458389 0
M  V30 6297 C 600.594 -1.25603 -1.00402 0
M  V30 6298 O 601.784 -1.49827 -0.888672 0
M  V30 6299 C 598.916 -2.98783 -1.6414 0
M  V30 6300 H 600.109 -2.99436 0.166799 0
M  V30 6301 H 597.662 -1.55805 0.124357 0
M  V30 6302 H 598.397 -2.28176 -2.30448 0
M  V30 6303 H 598.182 -3.71404 -1.25704 0
M  V30 6304 H 599.672 -3.53068 -2.23008 0
M  V30 6305 N 600.109 -0.101901 -1.5727 0
M  V30 6306 C 601.039 0.851544 -2.17419 0
M  V30 6307 C 602.02 1.28942 -1.10941 0
M  V30 6308 O 603.205 1.35509 -1.39107 0
M  V30 6309 C 600.335 2.10816 -2.75996 0
M  V30 6310 C 599.289 1.80867 -3.87906 0
M  V30 6311 C 598.615 3.13413 -4.33216 0
M  V30 6312 C 599.915 1.0903 -5.10793 0
M  V30 6313 H 601.609 0.350381 -2.97343 0
M  V30 6314 H 599.155 0.16709 -1.43027 0
M  V30 6315 H 601.108 2.77959 -3.16729 0
M  V30 6316 H 599.832 2.63227 -1.93337 0
M  V30 6317 H 598.491 1.16119 -3.47724 0
M  V30 6318 H 598.139 3.63725 -3.47438 0
M  V30 6319 H 597.839 2.94155 -5.08671 0
M  V30 6320 H 599.363 3.81704 -4.76586 0
M  V30 6321 H 600.777 1.66295 -5.48652 0
M  V30 6322 H 599.174 0.99927 -5.91722 0
M  V30 6323 H 600.244 0.0741704 -4.84843 0
M  V30 6324 N 601.587 1.56661 0.17182 0
M  V30 6325 C 602.827 1.83762 0.895029 0
M  V30 6326 C 603.191 0.682752 1.79451 0
M  V30 6327 O 604.392 0.834208 2.55528 0
M  V30 6328 C 602.663 3.15976 1.67015 0
M  V30 6329 S 604.222 3.64558 2.44219 0
M  V30 6330 H 601.04 0.644713 0.299778 0
M  V30 6331 H 603.642 1.94871 0.156701 0
M  V30 6332 H 602.346 3.98021 1.00039 0
M  V30 6333 H 601.877 3.07807 2.44986 0
M  V30 6334 H 603.892 3.31845 3.68909 0
M  V30 6335 N 603.065 -0.440357 1.51323 0
M  V30 6336 C 603.998 -1.55414 1.67098 0
M  V30 6337 C 604.976 -1.54108 0.518599 0
M  V30 6338 O 606.16 -1.7328 0.742054 0
M  V30 6339 C 603.287 -2.93996 1.68179 0
M  V30 6340 C 602.333 -3.13338 2.89347 0
M  V30 6341 S 603.166 -2.89957 4.50206 0
M  V30 6342 C 604.322 -4.30826 4.54027 0
M  V30 6343 H 604.555 -1.41798 2.61306 0
M  V30 6344 H 602.088 -0.629841 1.40969 0
M  V30 6345 H 604.046 -3.73878 1.69487 0
M  V30 6346 H 602.707 -3.04976 0.751542 0
M  V30 6347 H 601.9 -4.14652 2.86495 0
M  V30 6348 H 601.502 -2.41276 2.85766 0
M  V30 6349 H 603.794 -5.23977 4.29481 0
M  V30 6350 H 604.737 -4.38712 5.55822 0
M  V30 6351 H 605.145 -4.1434 3.83384 0
M  V30 6352 N 604.543 -1.41418 -0.695603 0
M  V30 6353 C 605.453 -1.45622 -1.83933 0
M  V30 6354 C 606.469 -0.346825 -1.70508 0
M  V30 6355 O 607.645 -0.59454 -1.92424 0
M  V30 6356 C 604.71 -1.33627 -3.19914 0
M  V30 6357 C 603.771 -2.54882 -3.45447 0
M  V30 6358 C 603.004 -2.43449 -4.7494 0
M  V30 6359 O 603.227 -1.45905 -5.51424 0
M  V30 6360 O 602.161 -3.33206 -5.01256 0
M  V30 6361 H 605.987 -2.42114 -1.83342 0
M  V30 6362 H 603.572 -1.22956 -0.848658 0
M  V30 6363 H 605.454 -1.29221 -4.01098 0
M  V30 6364 H 604.129 -0.402508 -3.21188 0
M  V30 6365 H 603.036 -2.64865 -2.64192 0
M  V30 6366 H 604.369 -3.47087 -3.48987 0
M  V30 6367 N 606.021 0.929856 -1.27246 0
M  V30 6368 C 606.968 2.03017 -1.09785 0
M  V30 6369 C 607.938 1.661 0.000456744 0
M  V30 6370 O 609.123 1.90116 -0.161462 0
M  V30 6371 C 606.263 3.36878 -0.748816 0
M  V30 6372 C 605.376 3.86763 -1.92453 0
M  V30 6373 C 604.511 5.09061 -1.51758 0
M  V30 6374 C 603.55 5.51237 -2.66091 0
M  V30 6375 N 602.687 6.64732 -2.25999 0
M  V30 6376 H 607.527 2.17285 -2.03939 0
M  V30 6377 H 605.064 1.06448 -1.01524 0
M  V30 6378 H 607.022 4.13855 -0.527283 0
M  V30 6379 H 605.652 3.22424 0.155771 0
M  V30 6380 H 604.704 3.06086 -2.25867 0
M  V30 6381 H 606.016 4.13994 -2.78227 0
M  V30 6382 H 605.17 5.93532 -1.25716 0
M  V30 6383 H 603.909 4.83602 -0.630896 0
M  V30 6384 H 602.914 4.65316 -2.92849 0
M  V30 6385 H 604.139 5.78692 -3.55377 0
M  V30 6386 H 602.085 6.40935 -1.3978 0
M  V30 6387 H 602.002 6.91607 -3.05313 0
M  V30 6388 H 603.27 7.52549 -2.03199 0
M  V30 6389 N 607.499 1.09233 1.13605 0
M  V30 6390 C 608.724 0.849067 1.89224 0
M  V30 6391 C 609.149 -0.593875 1.78479 0
M  V30 6392 O 608.507 -1.41703 1.13092 0
M  V30 6393 C 608.555 1.28642 3.36873 0
M  V30 6394 O 607.659 0.44363 4.10007 0
M  V30 6395 H 607 0.30767 0.588417 0
M  V30 6396 H 609.53 1.45595 1.43748 0
M  V30 6397 H 609.54 1.27096 3.87699 0
M  V30 6398 H 608.215 2.33729 3.44011 0
M  V30 6399 H 606.792 0.523241 3.69211 0
M  V30 6400 N 608.977 -1.30795 0.87923 0
M  V30 6401 C 609.907 -2.30742 0.357796 0
M  V30 6402 C 610.888 -1.60747 -0.556283 0
M  V30 6403 O 612.073 -1.88393 -0.47135 0
M  V30 6404 C 609.203 -3.44583 -0.433555 0
M  V30 6405 C 608.157 -4.26235 0.388251 0
M  V30 6406 C 607.483 -5.32073 -0.529352 0
M  V30 6407 C 608.783 -4.96303 1.62729 0
M  V30 6408 H 610.477 -2.74605 1.19299 0
M  V30 6409 H 608.023 -1.32017 0.575104 0
M  V30 6410 H 609.976 -4.13563 -0.808934 0
M  V30 6411 H 608.7 -2.99511 -1.30234 0
M  V30 6412 H 607.359 -3.58936 0.745695 0
M  V30 6413 H 607.007 -4.83249 -1.39569 0
M  V30 6414 H 606.707 -5.87598 0.0166741 0
M  V30 6415 H 608.231 -6.0391 -0.901373 0
M  V30 6416 H 609.645 -5.5783 1.32283 0
M  V30 6417 H 608.042 -5.61666 2.11309 0
M  V30 6418 H 609.112 -4.22758 2.37494 0
M  V30 6419 N 610.455 -0.639598 -1.44038 0
M  V30 6420 C 611.703 -0.147188 -2.01563 0
M  V30 6421 C 612.024 1.2384 -1.50628 0
M  V30 6422 O 611.294 1.82452 -0.713316 0
M  V30 6423 H 609.874 -0.0514231 -0.745228 0
M  V30 6424 H 612.536 -0.828205 -1.76428 0
M  V30 6425 H 611.632 -0.121358 -3.11864 0
M  V30 6426 N 611.933 1.52934 -0.380664 0
M  V30 6427 C 613.344 1.86457 0.0952684 0
M  V30 6428 C 613.695 1.3007 1.46889 0
M  V30 6429 O 612.82 0.628636 2.07068 0
M  V30 6430 C 613.415 3.38323 0.179648 0
M  V30 6431 C 611.974 3.71589 0.599858 0
M  V30 6432 C 611.121 2.76228 -0.243572 0
M  V30 6433 H 614.072 1.46966 -0.59888 0
M  V30 6434 H 614.093 3.67113 1.00042 0
M  V30 6435 H 613.605 3.79333 -0.820228 0
M  V30 6436 H 611.706 3.36144 1.60742 0
M  V30 6437 H 611.819 4.77715 0.364003 0
M  V30 6438 H 610.183 2.53045 0.289855 0
M  V30 6439 H 610.966 3.20074 -1.24127 0
M  V30 6440 N 613.412 0.11024 1.57214 0
M  V30 6441 C 614.36 -0.860586 2.16094 0
M  V30 6442 C 615.354 -1.28156 1.1078 0
M  V30 6443 O 616.56 -1.25433 1.29099 0
M  V30 6444 H 612.935 -0.295606 0.691463 0
M  V30 6445 H 614.906 -0.33942 2.96463 0
M  V30 6446 C 613.655 -2.10421 2.768 0
M  V30 6447 H 612.978 -1.7892 3.5753 0
M  V30 6448 H 614.418 -2.76375 3.21547 0
M  V30 6449 C 612.877 -2.88823 1.73444 0
M  V30 6450 O 613.407 -3.839 1.18251 0
M  V30 6451 N 611.613 -2.52649 1.43586 0
M  V30 6452 H 611.16 -1.754 1.8866 0
M  V30 6453 H 611.118 -3.05403 0.746735 0
M  V30 6454 N 614.89 -1.56749 -0.16351 0
M  V30 6455 C 616.115 -1.86938 -0.898264 0
M  V30 6456 C 616.54 -0.697456 -1.74692 0
M  V30 6457 O 615.898 0.353327 -1.77824 0
M  V30 6458 C 615.946 -3.15599 -1.74441 0
M  V30 6459 O 615.05 -2.98371 -2.8469 0
M  V30 6460 H 614.391 -0.614659 -0.251178 0
M  V30 6461 H 616.921 -2.03979 -0.159298 0
M  V30 6462 H 616.931 -3.47202 -2.14277 0
M  V30 6463 H 615.606 -4.00505 -1.1211 0
M  V30 6464 H 614.183 -2.7814 -2.4838 0
M  V30 6465 N 616.368 0.432326 -1.51554 0
M  V30 6466 C 617.608 1.19076 -1.66133 0
M  V30 6467 C 617.972 1.88364 -0.371873 0
M  V30 6468 O 619.173 2.65904 -0.39349 0
M  V30 6469 C 617.444 2.1768 -2.83461 0
M  V30 6470 S 619.003 3.01943 -3.18396 0
M  V30 6471 H 615.821 0.403735 -0.585251 0
M  V30 6472 H 618.423 0.481554 -1.89476 0
M  V30 6473 H 617.127 1.65424 -3.75583 0
M  V30 6474 H 616.658 2.93174 -2.62322 0
M  V30 6475 H 618.673 4.19373 -2.65219 0
M  V30 6476 N 617.846 1.41785 0.688094 0
M  V30 6477 C 619.071 1.45117 1.48175 0
M  V30 6478 C 619.496 0.060129 1.88004 0
M  V30 6479 O 618.854 -0.938385 1.55126 0
M  V30 6480 C 618.902 2.37224 2.71583 0
M  V30 6481 O 618.006 1.83443 3.69354 0
M  V30 6482 H 617.347 0.492208 0.445676 0
M  V30 6483 H 619.877 1.86329 0.845145 0
M  V30 6484 H 619.887 2.53353 3.19806 0
M  V30 6485 H 618.562 3.38293 2.41931 0
M  V30 6486 H 617.139 1.76802 3.28322 0
M  V30 6487 N 619.324 -0.923095 1.27737 0
M  V30 6488 C 620.287 -2.00587 1.10894 0
M  V30 6489 C 621.287 -1.60718 0.0514927 0
M  V30 6490 O 622.477 -1.71658 0.296481 0
M  V30 6491 C 619.609 -3.33829 0.690717 0
M  V30 6492 H 620.802 -2.16959 2.07048 0
M  V30 6493 H 618.355 -1.10451 1.1059 0
M  V30 6494 H 619.09 -3.23157 -0.272 0
M  V30 6495 H 618.875 -3.64125 1.45448 0
M  V30 6496 H 620.365 -4.13336 0.595252 0
M  V30 6497 N 620.802 -1.09834 -1.13024 0
M  V30 6498 C 621.75 -0.736283 -2.20639 0
M  V30 6499 C 622.744 0.264725 -1.67319 0
M  V30 6500 O 623.95 0.125745 -1.7956 0
M  V30 6501 H 620.325 -0.220136 -0.719058 0
M  V30 6502 H 622.296 -1.65295 -2.48436 0
M  V30 6503 C 621.045 -0.177544 -3.47246 0
M  V30 6504 H 620.368 -0.939009 -3.88616 0
M  V30 6505 H 621.808 0.0378007 -4.23983 0
M  V30 6506 C 620.267 1.08824 -3.1884 0
M  V30 6507 O 620.797 2.1708 -3.37993 0
M  V30 6508 N 619.003 1.00442 -2.7269 0
M  V30 6509 H 618.55 0.123383 -2.57304 0
M  V30 6510 H 618.508 1.85206 -2.5406 0
M  V30 6511 N 622.28 1.30327 -0.886154 0
M  V30 6512 C 623.528 1.9571 -0.504195 0
M  V30 6513 C 623.849 1.70294 0.950003 0
M  V30 6514 O 623.119 1.02718 1.66811 0
M  V30 6515 H 621.699 0.72412 -0.183465 0
M  V30 6516 H 624.361 1.58835 -1.12949 0
M  V30 6517 H 623.457 3.04704 -0.675431 0
M  V30 6518 N 623.758 0.647228 1.43697 0
M  V30 6519 C 625.169 0.238689 1.85168 0
M  V30 6520 C 625.52 -1.21345 1.54175 0
M  V30 6521 O 624.645 -1.92542 0.987743 0
M  V30 6522 C 625.24 0.426422 3.36106 0
M  V30 6523 C 623.799 0.0722541 3.76331 0
M  V30 6524 C 622.946 0.732153 2.6746 0
M  V30 6525 H 625.897 0.851309 1.33934 0
M  V30 6526 H 625.918 -0.32987 3.79067 0
M  V30 6527 H 625.43 1.48339 3.58632 0
M  V30 6528 H 623.531 -0.982355 3.59417 0
M  V30 6529 H 623.644 0.493541 4.76551 0
M  V30 6530 H 622.008 0.16594 2.54159 0
M  V30 6531 H 622.791 1.79204 2.92816 0
M  V30 6532 N 625.236 -1.5273 0.388769 0
M  V30 6533 C 626.484 -2.01174 -0.193208 0
M  V30 6534 C 626.805 -1.27705 -1.47365 0
M  V30 6535 O 626.075 -0.396966 -1.91836 0
M  V30 6536 H 624.655 -0.743287 -0.0743871 0
M  V30 6537 H 627.317 -1.87826 0.520336 0
M  V30 6538 H 626.413 -3.09477 -0.403803 0
M  V30 6539 N 626.714 -0.118576 -1.57153 0
M  V30 6540 C 627.644 0.828436 -2.1831 0
M  V30 6541 C 628.625 1.27758 -1.12303 0
M  V30 6542 O 629.81 1.34026 -1.40537 0
M  V30 6543 C 626.94 2.07876 -2.78217 0
M  V30 6544 C 625.894 1.76742 -3.89803 0
M  V30 6545 C 625.22 3.08801 -4.36516 0
M  V30 6546 C 626.52 1.03606 -5.11921 0
M  V30 6547 H 628.214 0.318824 -2.97698 0
M  V30 6548 H 625.76 0.151911 -1.43196 0
M  V30 6549 H 627.713 2.74584 -3.19659 0
M  V30 6550 H 626.437 2.61161 -1.96118 0
M  V30 6551 H 625.096 1.12424 -3.48936 0
M  V30 6552 H 624.744 3.6002 -3.51276 0
M  V30 6553 H 624.444 2.88743 -5.11763 0
M  V30 6554 H 625.968 3.76627 -4.80608 0
M  V30 6555 H 627.382 1.60467 -5.50385 0
M  V30 6556 H 625.779 0.936454 -5.92748 0
M  V30 6557 H 626.849 0.0227421 -4.84895 0
M  V30 6558 N 628.193 1.56834 0.155195 0
M  V30 6559 C 629.423 1.86778 0.883044 0
M  V30 6560 C 629.831 0.703824 1.75622 0
M  V30 6561 O 629.174 -0.33581 1.80605 0
M  V30 6562 C 629.236 3.1133 1.79761 0
M  V30 6563 C 628.9 4.43504 1.10242 0
M  V30 6564 C 629.897 5.17859 0.460204 0
M  V30 6565 C 627.582 4.90233 1.09437 0
M  V30 6566 C 629.576 6.37144 -0.180782 0
M  V30 6567 C 627.263 6.09444 0.449569 0
M  V30 6568 C 628.261 6.82744 -0.186888 0
M  V30 6569 O 627.949 7.99692 -0.821486 0
M  V30 6570 H 627.681 0.62352 0.261149 0
M  V30 6571 H 630.235 2.04813 0.155204 0
M  V30 6572 H 628.465 2.89282 2.56618 0
M  V30 6573 H 630.154 3.27587 2.39669 0
M  V30 6574 H 630.92 4.8283 0.458289 0
M  V30 6575 H 626.799 4.33109 1.57917 0
M  V30 6576 H 630.343 6.94296 -0.678154 0
M  V30 6577 H 626.24 6.43936 0.449123 0
M  V30 6578 H 627.008 8.15306 -0.722337 0
M  V30 6579 N 629.671 -0.424282 1.51781 0
M  V30 6580 C 630.601 -1.52305 1.7699 0
M  V30 6581 C 631.582 -1.5839 0.620209 0
M  V30 6582 O 632.767 -1.73908 0.864268 0
M  V30 6583 C 629.897 -2.90271 1.90683 0
M  V30 6584 C 628.851 -2.99043 3.06198 0
M  V30 6585 C 628.177 -4.39116 3.05092 0
M  V30 6586 C 629.477 -2.7192 4.45934 0
M  V30 6587 H 631.171 -1.31461 2.68995 0
M  V30 6588 H 628.717 -0.630985 1.29439 0
M  V30 6589 H 630.67 -3.6711 2.06901 0
M  V30 6590 H 629.394 -3.12376 0.953365 0
M  V30 6591 H 628.053 -2.24646 2.89706 0
M  V30 6592 H 627.701 -4.58207 2.07498 0
M  V30 6593 H 627.401 -4.45912 3.82669 0
M  V30 6594 H 628.925 -5.17911 3.2342 0
M  V30 6595 H 630.339 -3.38487 4.62709 0
M  V30 6596 H 628.736 -2.90111 5.25315 0
M  V30 6597 H 629.806 -1.67445 4.55072 0
M  V30 6598 N 631.149 -1.42148 -0.680565 0
M  V30 6599 C 632.398 -1.41604 -1.43636 0
M  V30 6600 C 632.711 -0.0337887 -1.95571 0
M  V30 6601 O 633.917 0.0942588 -2.71336 0
M  V30 6602 C 632.373 -2.49056 -2.59806 0
M  V30 6603 C 631.981 -3.9326 -2.14594 0
M  V30 6604 C 633.725 -2.5767 -3.37352 0
M  V30 6605 C 631.632 -4.92232 -3.27813 0
M  V30 6606 H 630.562 -0.526656 -0.539583 0
M  V30 6607 H 633.213 -1.68033 -0.737369 0
M  V30 6608 H 631.595 -2.15782 -3.32045 0
M  V30 6609 H 632.769 -4.35858 -1.49546 0
M  V30 6610 H 631.084 -3.88443 -1.50002 0
M  V30 6611 H 633.681 -3.28794 -4.21662 0
M  V30 6612 H 634.024 -1.61837 -3.83555 0
M  V30 6613 H 634.557 -2.90109 -2.72179 0
M  V30 6614 H 631.296 -5.89522 -2.86607 0
M  V30 6615 H 630.816 -4.5427 -3.91661 0
M  V30 6616 H 632.495 -5.13684 -3.93367 0
M  V30 6617 N 632.627 0.916307 -1.28225 0
M  V30 6618 C 633.577 2.00488 -1.08574 0
M  V30 6619 C 634.561 1.60897 -0.0101874 0
M  V30 6620 O 635.753 1.75499 -0.230034 0
M  V30 6621 C 632.882 3.35076 -0.746943 0
M  V30 6622 C 631.968 3.81077 -1.86121 0
M  V30 6623 N 632.359 3.99475 -3.10247 0
M  V30 6624 C 630.657 4.10212 -1.75048 0
M  V30 6625 C 631.358 4.37965 -3.82834 0
M  V30 6626 N 630.334 4.4608 -3.10667 0
M  V30 6627 H 634.136 2.1276 -2.02757 0
M  V30 6628 H 631.65 1.10397 -1.19107 0
M  V30 6629 H 633.647 4.12743 -0.587252 0
M  V30 6630 H 632.307 3.2416 0.187146 0
M  V30 6631 H 633.318 3.85466 -3.45885 0
M  V30 6632 H 629.995 4.07947 -0.887999 0
M  V30 6633 H 631.385 4.60183 -4.89572 0
M  V30 6634 N 634.105 1.10431 1.1244 0
M  V30 6635 C 635.353 0.845045 1.83585 0
M  V30 6636 C 635.674 -0.631168 1.84503 0
M  V30 6637 O 634.944 -1.45825 1.30813 0
M  V30 6638 H 633.524 0.309628 0.679809 0
M  V30 6639 H 636.186 1.39458 1.36153 0
M  V30 6640 H 635.282 1.20786 2.8778 0
M  V30 6641 N 635.583 -1.29855 0.893053 0
M  V30 6642 C 636.994 -1.77946 0.564998 0
M  V30 6643 C 637.345 -1.73339 -0.919134 0
M  V30 6644 O 636.47 -1.3152 -1.71847 0
M  V30 6645 C 637.065 -3.23118 1.01883 0
M  V30 6646 C 635.624 -3.69013 0.742051 0
M  V30 6647 C 634.771 -2.50121 1.19727 0
M  V30 6648 H 637.722 -1.16611 1.07646 0
M  V30 6649 H 637.743 -3.78875 0.351249 0
M  V30 6650 H 637.255 -3.26439 2.09903 0
M  V30 6651 H 635.356 -3.71173 -0.325816 0
M  V30 6652 H 635.469 -4.60117 1.33527 0
M  V30 6653 H 633.833 -2.47128 0.616418 0
M  V30 6654 H 634.616 -2.56174 2.28538 0
M  V30 6655 N 637.061 -0.65484 -1.43351 0
M  V30 6656 C 638.009 0.0476784 -2.32551 0
M  V30 6657 C 639.003 0.811403 -1.48703 0
M  V30 6658 O 640.209 0.721621 -1.64902 0
M  V30 6659 H 636.584 0.0342038 -0.751222 0
M  V30 6660 H 638.555 -0.722342 -2.89525 0
M  V30 6661 C 637.304 0.999251 -3.33032 0
M  V30 6662 H 636.627 0.421005 -3.97577 0
M  V30 6663 H 638.067 1.45986 -3.98076 0
M  V30 6664 C 636.526 2.09606 -2.63756 0
M  V30 6665 O 637.056 3.18004 -2.4543 0
M  V30 6666 N 635.262 1.86207 -2.23103 0
M  V30 6667 H 634.809 0.980555 -2.38208 0
M  V30 6668 H 634.767 2.59787 -1.77081 0
M  V30 6669 N 638.539 1.52521 -0.396863 0
M  V30 6670 C 639.469 2.29582 0.425941 0
M  V30 6671 C 640.45 1.33281 1.05689 0
M  V30 6672 O 641.635 1.62181 1.06823 0
M  V30 6673 C 638.765 3.10821 1.54943 0
M  V30 6674 C 637.719 4.15069 1.04413 0
M  V30 6675 C 637.045 4.84578 2.26028 0
M  V30 6676 C 638.345 5.22191 0.106767 0
M  V30 6677 H 640.039 2.98612 -0.217045 0
M  V30 6678 H 637.585 1.43611 -0.105826 0
M  V30 6679 H 639.538 3.63492 2.13193 0
M  V30 6680 H 638.262 2.39538 2.22011 0
M  V30 6681 H 636.921 3.63389 0.484118 0
M  V30 6682 H 636.569 4.09835 2.91623 0
M  V30 6683 H 636.269 5.55043 1.92876 0
M  V30 6684 H 637.793 5.40056 2.84906 0
M  V30 6685 H 639.207 5.70176 0.597685 0
M  V30 6686 H 637.604 5.99947 -0.135352 0
M  V30 6687 H 638.674 4.77531 -0.842134 0
M  V30 6688 N 640.017 0.126909 1.57088 0
M  V30 6689 C 641.247 -0.535892 1.99529 0
M  V30 6690 C 641.655 -1.60259 1.00566 0
M  V30 6691 O 640.998 -1.83698 -0.00843269 0
M  V30 6692 C 641.06 -1.21374 3.38391 0
M  V30 6693 C 640.724 -0.294044 4.56053 0
M  V30 6694 C 641.721 0.470454 5.17767 0
M  V30 6695 C 639.406 -0.202808 5.0189 0
M  V30 6696 C 641.4 1.31384 6.23712 0
M  V30 6697 C 639.087 0.644203 6.07695 0
M  V30 6698 C 640.085 1.40115 6.68473 0
M  V30 6699 O 639.773 2.23408 7.72233 0
M  V30 6700 H 639.505 -0.145799 0.66009 0
M  V30 6701 H 642.059 0.212441 2.04298 0
M  V30 6702 H 640.289 -2.00931 3.30399 0
M  V30 6703 H 641.978 -1.77424 3.65069 0
M  V30 6704 H 642.744 0.409884 4.83265 0
M  V30 6705 H 638.623 -0.781688 4.54324 0
M  V30 6706 H 642.167 1.90514 6.71081 0
M  V30 6707 H 638.064 0.706137 6.41626 0
M  V30 6708 H 638.832 2.16436 7.89365 0
M  V30 6709 N 641.495 -1.56914 -0.146875 0
M  V30 6710 C 642.735 -1.85163 -0.86568 0
M  V30 6711 C 643.099 -0.711215 -1.78342 0
M  V30 6712 O 644.3 -0.874754 -2.54168 0
M  V30 6713 C 642.571 -3.18593 -1.61967 0
M  V30 6714 S 644.13 -3.68397 -2.38388 0
M  V30 6715 H 640.948 -0.6494 -0.289483 0
M  V30 6716 H 643.55 -1.95096 -0.125679 0
M  V30 6717 H 642.254 -3.99562 -0.93694 0
M  V30 6718 H 641.785 -3.11666 -2.40058 0
M  V30 6719 H 643.8 -3.37672 -3.63582 0
M  V30 6720 N 642.974 0.416227 -1.52004 0
M  V30 6721 C 644.204 1.18401 -1.69307 0
M  V30 6722 C 644.612 1.84943 -0.399072 0
M  V30 6723 O 643.955 1.72406 0.634177 0
M  V30 6724 C 644.017 2.29465 -2.76742 0
M  V30 6725 C 643.681 1.83117 -4.18709 0
M  V30 6726 C 644.678 1.32286 -5.02789 0
M  V30 6727 C 642.363 1.90167 -4.64911 0
M  V30 6728 C 644.357 0.891178 -6.31139 0
M  V30 6729 C 642.044 1.4661 -5.93253 0
M  V30 6730 C 643.042 0.961696 -6.76196 0
M  V30 6731 O 642.73 0.532388 -8.02135 0
M  V30 6732 H 642.462 0.362098 -0.570843 0
M  V30 6733 H 645.016 0.496764 -1.99302 0
M  V30 6734 H 643.246 3.01531 -2.42107 0
M  V30 6735 H 644.935 2.91252 -2.82713 0
M  V30 6736 H 645.701 1.26218 -4.68288 0
M  V30 6737 H 641.58 2.28371 -4.00459 0
M  V30 6738 H 645.124 0.496788 -6.95829 0
M  V30 6739 H 641.021 1.52355 -6.27263 0
M  V30 6740 H 641.789 0.656339 -8.15864 0
M  V30 6741 N 644.452 1.42507 0.673017 0
M  V30 6742 C 645.677 1.4668 1.46627 0
M  V30 6743 C 646.102 0.080066 1.8793 0
M  V30 6744 O 645.46 -0.921879 1.56112 0
M  V30 6745 C 645.508 2.40091 2.69051 0
M  V30 6746 O 644.612 1.8735 3.67387 0
M  V30 6747 H 643.953 0.496908 0.44043 0
M  V30 6748 H 646.483 1.87215 0.825334 0
M  V30 6749 H 646.493 2.56731 3.17101 0
M  V30 6750 H 645.168 3.4084 2.3833 0
M  V30 6751 H 643.745 1.80274 3.26429 0
M  V30 6752 N 645.93 -0.909495 1.28709 0
M  V30 6753 C 647.207 -1.63865 1.06806 0
M  V30 6754 C 647.587 -2.07445 -0.391143 0
M  V30 6755 O 646.935 -1.82269 -1.37805 0
M  V30 6756 C 647.145 -2.82692 2.04661 0
M  V30 6757 C 648.493 -3.5361 2.35042 0
M  V30 6758 O 649.517 -2.92847 2.02779 0
M  V30 6759 O 648.376 -4.63131 2.90124 0
M  V30 6760 H 645.47 -0.719065 0.408502 0
M  V30 6761 H 648.016 -0.958424 1.40044 0
M  V30 6762 H 646.788 -2.47614 3.0299 0
M  V30 6763 H 646.411 -3.58426 1.72095 0
M  V30 6764 N 647.408 -1.11026 -1.11852 0
M  V30 6765 C 648.654 -0.857729 -1.83768 0
M  V30 6766 C 648.987 0.615143 -1.842 0
M  V30 6767 O 648.262 1.45391 -1.29196 0
M  V30 6768 C 648.545 -1.41453 -3.31154 0
M  V30 6769 C 648.398 -2.95471 -3.39142 0
M  V30 6770 C 649.717 -1.0619 -4.27097 0
M  V30 6771 H 646.836 -0.313044 -0.667212 0
M  V30 6772 H 649.478 -1.37443 -1.31185 0
M  V30 6773 H 647.628 -0.975052 -3.76065 0
M  V30 6774 H 649.3 -3.4799 -3.02821 0
M  V30 6775 H 647.543 -3.31759 -2.79497 0
M  V30 6776 H 648.214 -3.29515 -4.42859 0
M  V30 6777 H 650.69 -1.44122 -3.90344 0
M  V30 6778 H 649.566 -1.47832 -5.28618 0
M  V30 6779 H 649.827 0.0278912 -4.42091 0
M  V30 6780 N 648.886 1.2938 -0.899927 0
M  V30 6781 C 649.796 2.31462 -0.382437 0
M  V30 6782 C 650.812 1.65956 0.522929 0
M  V30 6783 O 651.988 1.97131 0.412454 0
M  V30 6784 C 649.053 3.44595 0.381472 0
M  V30 6785 C 648.114 4.25692 -0.555444 0
M  V30 6786 C 647.347 5.33422 0.172102 0
M  V30 6787 O 647.57 5.53053 1.396 0
M  V30 6788 O 646.504 5.99939 -0.485491 0
M  V30 6789 H 650.33 2.77706 -1.22934 0
M  V30 6790 H 647.915 1.33821 -0.664259 0
M  V30 6791 H 649.797 4.13474 0.813442 0
M  V30 6792 H 648.472 3.00458 1.20443 0
M  V30 6793 H 647.379 3.59453 -1.03653 0
M  V30 6794 H 648.712 4.73471 -1.34483 0
M  V30 6795 N 650.364 0.662433 1.43002 0
M  V30 6796 C 651.311 -0.0235324 2.30788 0
M  V30 6797 C 652.281 -0.805342 1.4527 0
M  V30 6798 O 653.466 -0.78009 1.74124 0
M  V30 6799 C 650.606 -0.977545 3.30965 0
M  V30 6800 C 649.719 -0.190865 4.31578 0
M  V30 6801 C 648.854 -1.13951 5.18834 0
M  V30 6802 C 647.893 -0.343796 6.11134 0
M  V30 6803 N 647.03 -1.2445 6.90982 0
M  V30 6804 H 651.87 0.730921 2.88897 0
M  V30 6805 H 649.407 0.372197 1.42313 0
M  V30 6806 H 651.365 -1.54437 3.87563 0
M  V30 6807 H 649.995 -1.69877 2.74484 0
M  V30 6808 H 649.047 0.492388 3.772 0
M  V30 6809 H 650.359 0.427464 4.96965 0
M  V30 6810 H 649.513 -1.77666 5.80103 0
M  V30 6811 H 648.252 -1.79174 4.53595 0
M  V30 6812 H 647.257 0.30665 5.48944 0
M  V30 6813 H 648.482 0.304161 6.78419 0
M  V30 6814 H 646.428 -1.88336 6.28383 0
M  V30 6815 H 646.345 -0.680959 7.52927 0
M  V30 6816 H 647.613 -1.86952 7.56749 0
M  V30 6817 N 651.842 -1.52309 0.404946 0
M  V30 6818 C 652.772 -2.29805 -0.41376 0
M  V30 6819 C 653.753 -1.3384 -1.0498 0
M  V30 6820 O 654.938 -1.62745 -1.05961 0
M  V30 6821 C 652.068 -3.11639 -1.53292 0
M  V30 6822 C 651.022 -4.15616 -1.02211 0
M  V30 6823 C 650.348 -4.8577 -2.23455 0
M  V30 6824 C 651.648 -5.2224 -0.0790725 0
M  V30 6825 H 653.342 -2.98493 0.232878 0
M  V30 6826 H 650.888 -1.43552 0.113441 0
M  V30 6827 H 652.841 -3.64618 -2.11262 0
M  V30 6828 H 651.565 -2.40712 -2.20738 0
M  V30 6829 H 650.224 -3.63641 -0.46484 0
M  V30 6830 H 649.872 -4.11376 -2.89445 0
M  V30 6831 H 649.572 -5.56058 -1.89929 0
M  V30 6832 H 651.096 -5.4156 -2.82038 0
M  V30 6833 H 652.51 -5.70485 -0.567438 0
M  V30 6834 H 650.907 -5.99867 0.167167 0
M  V30 6835 H 651.977 -4.77078 0.867447 0
M  V30 6836 N 653.32 -0.135238 -1.57019 0
M  V30 6837 C 654.268 0.826099 -2.17436 0
M  V30 6838 C 655.262 1.26378 -1.12805 0
M  V30 6839 O 656.468 1.23363 -1.31079 0
M  V30 6840 H 652.843 0.284568 -0.696078 0
M  V30 6841 H 654.814 0.292212 -2.96966 0
M  V30 6842 C 653.563 2.05991 -2.80112 0
M  V30 6843 H 652.886 1.73209 -3.60331 0
M  V30 6844 H 654.326 2.71225 -3.25903 0
M  V30 6845 C 652.785 2.86027 -1.78017 0
M  V30 6846 O 653.315 3.81971 -1.24344 0
M  V30 6847 N 651.521 2.50332 -1.47588 0
M  V30 6848 H 651.068 1.72377 -1.91426 0
M  V30 6849 H 651.026 3.04177 -0.795228 0
M  V30 6850 N 654.798 1.5699 0.138552 0
M  V30 6851 C 655.761 1.97984 1.15478 0
M  V30 6852 C 656.761 0.867416 1.35398 0
M  V30 6853 O 657.951 1.13387 1.32246 0
M  V30 6854 C 655.083 2.3031 2.51337 0
M  V30 6855 H 656.276 2.88953 0.802896 0
M  V30 6856 H 653.829 1.51555 0.382189 0
M  V30 6857 H 654.564 1.42159 2.91481 0
M  V30 6858 H 654.349 3.11425 2.38237 0
M  V30 6859 H 655.839 2.62834 3.24512 0
M  V30 6860 N 656.276 -0.40816 1.52223 0
M  V30 6861 C 657.239 -1.48 1.7501 0
M  V30 6862 C 658.239 -1.48367 0.619996 0
M  V30 6863 O 659.429 -1.49874 0.887881 0
M  V30 6864 C 656.561 -2.87403 1.83336 0
M  V30 6865 H 657.754 -1.29086 2.70697 0
M  V30 6866 H 655.307 -0.638715 1.42654 0
M  V30 6867 H 656.042 -3.11686 0.895677 0
M  V30 6868 H 655.827 -2.8854 2.65494 0
M  V30 6869 H 657.317 -3.65103 2.02705 0
M  V30 6870 N 657.755 -1.42862 -0.66545 0
M  V30 6871 C 658.702 -1.4707 -1.77874 0
M  V30 6872 C 659.672 -0.321654 -1.62956 0
M  V30 6873 O 660.857 -0.52707 -1.83376 0
M  V30 6874 C 657.997 -1.38788 -3.15962 0
M  V30 6875 C 657.11 -2.63801 -3.42101 0
M  V30 6876 C 656.245 -2.47594 -4.69969 0
M  V30 6877 C 655.284 -3.67936 -4.89172 0
M  V30 6878 N 654.421 -3.50614 -6.08288 0
M  V30 6879 H 659.261 -2.42204 -1.73613 0
M  V30 6880 H 656.798 -1.20239 -0.847401 0
M  V30 6881 H 658.756 -1.31982 -3.95773 0
M  V30 6882 H 657.386 -0.472431 -3.19324 0
M  V30 6883 H 656.438 -2.80935 -2.56475 0
M  V30 6884 H 657.75 -3.53228 -3.52181 0
M  V30 6885 H 656.904 -2.38427 -5.57886 0
M  V30 6886 H 655.643 -1.55672 -4.62188 0
M  V30 6887 H 654.648 -3.77525 -3.99694 0
M  V30 6888 H 655.873 -4.60851 -4.98792 0
M  V30 6889 H 653.819 -2.61417 -6.01662 0
M  V30 6890 H 653.736 -4.33634 -6.19272 0
M  V30 6891 H 655.004 -3.45276 -6.98859 0
M  V30 6892 N 659.233 0.902656 -1.29189 0
M  V30 6893 C 660.196 1.98797 -1.14071 0
M  V30 6894 C 661.196 1.60615 -0.0770549 0
M  V30 6895 O 662.386 1.71165 -0.323753 0
M  V30 6896 C 659.518 3.32688 -0.743739 0
M  V30 6897 H 660.711 2.13637 -2.10473 0
M  V30 6898 H 658.264 1.08678 -1.12334 0
M  V30 6899 H 658.999 3.23549 0.220554 0
M  V30 6900 H 658.784 3.61765 -1.51223 0
M  V30 6901 H 660.274 4.12337 -0.660935 0
M  V30 6902 N 660.711 1.11618 1.11262 0
M  V30 6903 C 661.641 0.79846 2.19424 0
M  V30 6904 C 662.622 -0.234003 1.68483 0
M  V30 6905 O 663.807 -0.0970704 1.93957 0
M  V30 6906 C 660.937 0.242892 3.4645 0
M  V30 6907 C 659.891 1.20744 4.10615 0
M  V30 6908 C 659.217 0.512494 5.32238 0
M  V30 6909 C 660.517 2.55884 4.55325 0
M  V30 6910 H 662.211 1.70286 2.46258 0
M  V30 6911 H 659.757 0.820195 1.18359 0
M  V30 6912 H 661.71 0.00840447 4.21399 0
M  V30 6913 H 660.434 -0.696811 3.1908 0
M  V30 6914 H 659.093 1.42759 3.37662 0
M  V30 6915 H 658.741 -0.432075 5.01141 0
M  V30 6916 H 658.441 1.15583 5.7612 0
M  V30 6917 H 659.965 0.286842 6.09926 0
M  V30 6918 H 661.379 2.37946 5.21588 0
M  V30 6919 H 659.776 3.16216 5.10027 0
M  V30 6920 H 660.846 3.14968 3.68678 0
M  V30 6921 N 662.189 -1.289 0.906776 0
M  V30 6922 C 663.6 -1.77336 0.58384 0
M  V30 6923 C 663.951 -1.74304 -0.900697 0
M  V30 6924 O 663.076 -1.33335 -1.70443 0
M  V30 6925 C 663.671 -3.22019 1.05304 0
M  V30 6926 C 662.23 -3.68205 0.781148 0
M  V30 6927 C 661.377 -2.48837 1.22373 0
M  V30 6928 H 664.328 -1.15462 1.08877 0
M  V30 6929 H 664.349 -3.78481 0.391414 0
M  V30 6930 H 663.861 -3.24194 2.13353 0
M  V30 6931 H 661.962 -3.71497 -0.28643 0
M  V30 6932 H 662.075 -4.58675 1.384 0
M  V30 6933 H 660.439 -2.46461 0.642594 0
M  V30 6934 H 661.222 -2.53736 2.31242 0
M  V30 6935 N 663.667 -0.670007 -1.42649 0
M  V30 6936 C 664.599 0.0501746 -2.29145 0
M  V30 6937 C 665.612 0.770331 -1.43422 0
M  V30 6938 O 666.801 0.625288 -1.6719 0
M  V30 6939 C 663.901 1.09463 -3.20735 0
M  V30 6940 C 663.074 0.44926 -4.35087 0
M  V30 6941 C 662.133 1.39285 -5.07431 0
M  V30 6942 O 661.159 0.894997 -5.6212 0
M  V30 6943 N 662.361 2.72631 -5.12496 0
M  V30 6944 H 665.126 -0.692312 -2.91594 0
M  V30 6945 H 662.687 -0.514056 -1.53522 0
M  V30 6946 H 664.679 1.72705 -3.65999 0
M  V30 6947 H 663.249 1.73891 -2.59771 0
M  V30 6948 H 662.469 -0.362573 -3.92529 0
M  V30 6949 H 663.757 -0.000544776 -5.088 0
M  V30 6950 H 663.155 3.15623 -4.69467 0
M  V30 6951 H 661.712 3.31132 -5.61422 0
M  V30 6952 N 665.145 1.52092 -0.413018 0
M  V30 6953 C 666.556 1.86617 0.0556967 0
M  V30 6954 C 666.907 1.33156 1.44097 0
M  V30 6955 O 666.032 0.672417 2.05688 0
M  V30 6956 C 666.627 3.38628 0.107844 0
M  V30 6957 C 665.186 3.72778 0.520904 0
M  V30 6958 C 664.333 2.75649 -0.302109 0
M  V30 6959 H 667.284 1.45663 -0.629919 0
M  V30 6960 H 667.305 3.69152 0.922324 0
M  V30 6961 H 666.817 3.77508 -0.900506 0
M  V30 6962 H 664.918 3.39478 1.53575 0
M  V30 6963 H 665.031 4.7838 0.262591 0
M  V30 6964 H 663.395 2.53603 0.236115 0
M  V30 6965 H 664.178 3.17369 -1.30888 0
M  V30 6966 N 666.623 0.143563 1.56945 0
M  V30 6967 C 667.555 -0.828353 2.13708 0
M  V30 6968 C 668.568 -1.21313 1.08568 0
M  V30 6969 O 669.757 -1.1578 1.35857 0
M  V30 6970 C 666.857 -2.12248 2.64204 0
M  V30 6971 C 666.03 -1.90561 3.93707 0
M  V30 6972 C 665.089 -3.03931 4.29549 0
M  V30 6973 O 664.115 -2.75772 4.97934 0
M  V30 6974 N 665.317 -4.31016 3.88852 0
M  V30 6975 H 668.082 -0.343242 2.97728 0
M  V30 6976 H 665.643 -0.0401152 1.6185 0
M  V30 6977 H 667.635 -2.87132 2.85197 0
M  V30 6978 H 666.205 -2.52033 1.84928 0
M  V30 6979 H 665.425 -0.997327 3.81375 0
M  V30 6980 H 666.713 -1.73405 4.78339 0
M  V30 6981 H 666.111 -4.56762 3.33743 0
M  V30 6982 H 664.668 -5.02691 4.14903 0
M  V30 6983 N 668.101 -1.57061 -0.130224 0
M  V30 6984 C 669.049 -2.00486 -1.17933 0
M  V30 6985 C 670.043 -0.899933 -1.43519 0
M  V30 6986 O 671.249 -1.08514 -1.43613 0
M  V30 6987 H 667.624 -0.638441 -0.397363 0
M  V30 6988 H 669.595 -2.87848 -0.786501 0
M  V30 6989 C 668.344 -2.41565 -2.50084 0
M  V30 6990 H 667.667 -3.26148 -2.31231 0
M  V30 6991 H 669.107 -2.75757 -3.22078 0
M  V30 6992 C 667.566 -1.27485 -3.11848 0
M  V30 6993 O 668.096 -0.584688 -3.97422 0
M  V30 6994 N 666.302 -1.03478 -2.71552 0
M  V30 6995 H 665.849 -1.59779 -2.02061 0
M  V30 6996 H 665.807 -0.27341 -3.13209 0
M  V30 6997 N 669.579 0.400081 -1.52437 0
M  V30 6998 C 670.825 1.14788 -1.67187 0
M  V30 6999 C 671.158 1.89928 -0.405074 0
M  V30 7000 O 670.433 1.85118 0.596804 0
M  V30 7001 C 670.716 2.13507 -2.89977 0
M  V30 7002 C 670.569 1.42204 -4.2673 0
M  V30 7003 C 671.888 3.14069 -3.083 0
M  V30 7004 H 669.007 0.415939 -0.608411 0
M  V30 7005 H 671.649 0.432542 -1.85011 0
M  V30 7006 H 669.799 2.7451 -2.74912 0
M  V30 7007 H 671.471 0.842503 -4.53541 0
M  V30 7008 H 669.714 0.723939 -4.27717 0
M  V30 7009 H 670.385 2.14281 -5.08712 0
M  V30 7010 H 672.861 2.63148 -3.22323 0
M  V30 7011 H 671.737 3.80398 -3.95713 0
M  V30 7012 H 671.998 3.82309 -2.22018 0
M  V30 7013 N 671.057 1.43213 0.657864 0
M  V30 7014 C 672.285 1.48015 1.44566 0
M  V30 7015 C 672.7 0.0965951 1.88553 0
M  V30 7016 O 672.057 -0.892221 1.59203 0
M  V30 7017 C 672.108 2.42199 2.68369 0
M  V30 7018 O 671.829 3.75173 2.26223 0
M  V30 7019 C 673.33 2.56195 3.61772 0
M  V30 7020 H 670.55 0.502861 0.444266 0
M  V30 7021 H 673.094 1.87907 0.806917 0
M  V30 7022 H 671.249 2.05514 3.28394 0
M  V30 7023 H 671.663 4.25776 3.06293 0
M  V30 7024 H 673.137 3.26182 4.4532 0
M  V30 7025 H 673.614 1.60534 4.0881 0
M  V30 7026 H 674.22 2.93671 3.07632 0
M  V30 7027 N 672.536 -0.895792 1.29666 0
M  V30 7028 C 673.761 -1.68528 1.20885 0
M  V30 7029 C 674.186 -1.8673 -0.226595 0
M  V30 7030 O 673.544 -1.39044 -1.16347 0
M  V30 7031 C 673.592 -3.04512 1.93144 0
M  V30 7032 O 672.696 -3.92963 1.25115 0
M  V30 7033 H 672.037 -0.515371 0.418675 0
M  V30 7034 H 674.567 -1.11878 1.71302 0
M  V30 7035 H 674.577 -3.54628 2.0175 0
M  V30 7036 H 673.252 -2.90582 2.97548 0
M  V30 7037 H 671.829 -3.51399 1.24794 0
M  V30 7038 N 674.014 -1.12206 -1.10668 0
M  V30 7039 C 674.944 -0.810086 -2.18997 0
M  V30 7040 C 675.925 0.225065 -1.68604 0
M  V30 7041 O 677.11 0.086783 -1.94006 0
M  V30 7042 C 674.24 -0.261262 -3.46316 0
M  V30 7043 C 673.194 -1.2292 -4.09969 0
M  V30 7044 C 672.52 -0.540713 -5.31959 0
M  V30 7045 C 673.82 -2.58295 -4.53962 0
M  V30 7046 H 675.514 -1.7159 -2.45352 0
M  V30 7047 H 673.06 -0.82646 -1.17922 0
M  V30 7048 H 675.013 -0.0307522 -4.21389 0
M  V30 7049 H 673.737 0.679879 -3.19445 0
M  V30 7050 H 672.396 -1.44548 -3.369 0
M  V30 7051 H 672.044 0.405492 -5.01363 0
M  V30 7052 H 671.744 -1.18637 -5.75499 0
M  V30 7053 H 673.268 -0.319184 -6.09765 0
M  V30 7054 H 674.682 -2.40709 -5.20319 0
M  V30 7055 H 673.079 -3.18916 -5.08343 0
M  V30 7056 H 674.149 -3.16918 -3.67002 0
M  V30 7057 N 675.492 1.28418 -0.913599 0
M  V30 7058 C 676.422 2.29713 -0.418847 0
M  V30 7059 C 677.403 1.62165 0.513469 0
M  V30 7060 O 678.588 1.89576 0.421235 0
M  V30 7061 C 675.718 3.45612 0.342042 0
M  V30 7062 C 674.672 4.25056 -0.501123 0
M  V30 7063 C 673.998 5.3329 0.388097 0
M  V30 7064 C 675.298 4.91814 -1.75831 0
M  V30 7065 H 676.992 2.71346 -1.26538 0
M  V30 7066 H 674.538 1.30446 -0.609903 0
M  V30 7067 H 676.491 4.15562 0.699 0
M  V30 7068 H 675.215 3.02858 1.22248 0
M  V30 7069 H 673.874 3.56833 -0.840598 0
M  V30 7070 H 673.522 4.8678 1.26707 0
M  V30 7071 H 673.222 5.87347 -0.172459 0
M  V30 7072 H 674.746 6.06088 0.74094 0
M  V30 7073 H 676.16 5.54126 -1.47026 0
M  V30 7074 H 674.557 5.55866 -2.26126 0
M  V30 7075 H 675.627 4.16313 -2.4862 0
M  V30 7076 N 676.97 0.677563 1.42291 0
M  V30 7077 C 678.218 0.200578 2.01102 0
M  V30 7078 C 678.539 -1.19803 1.53858 0
M  V30 7079 O 677.809 -1.80496 0.761439 0
M  V30 7080 H 676.389 0.0711634 0.743603 0
M  V30 7081 H 679.051 0.874691 1.7417 0
M  V30 7082 H 678.147 0.204 3.11433 0
M  V30 7083 N 678.448 -1.51871 0.421078 0
M  V30 7084 C 679.688 -2.03848 -0.150167 0
M  V30 7085 C 680.052 -1.29925 -1.41363 0
M  V30 7086 O 681.253 -1.7219 -2.06408 0
M  V30 7087 C 679.524 -3.55374 -0.38003 0
M  V30 7088 S 681.083 -4.29111 -0.917011 0
M  V30 7089 H 677.901 -0.709904 -0.0394639 0
M  V30 7090 H 680.503 -1.86799 0.576746 0
M  V30 7091 H 679.207 -4.0675 0.546122 0
M  V30 7092 H 678.738 -3.76687 -1.13448 0
M  V30 7093 H 680.753 -4.44944 -2.19635 0
M  V30 7094 N 679.926 -0.151884 -1.56866 0
M  V30 7095 C 681.154 0.504813 -2.00647 0
M  V30 7096 C 681.569 1.58098 -1.03201 0
M  V30 7097 O 680.926 1.82476 -0.0297814 0
M  V30 7098 C 680.977 1.10099 -3.44326 0
M  V30 7099 O 680.698 0.0678021 -4.38048 0
M  V30 7100 C 682.199 1.83782 -4.03409 0
M  V30 7101 H 679.419 0.130989 -0.65809 0
M  V30 7102 H 681.963 -0.247903 -2.02992 0
M  V30 7103 H 680.118 1.8043 -3.42817 0
M  V30 7104 H 680.532 0.505237 -5.22061 0
M  V30 7105 H 682.006 2.2078 -5.05925 0
M  V30 7106 H 682.483 2.72557 -3.44397 0
M  V30 7107 H 683.089 1.18138 -4.08563 0
M  V30 7108 N 681.404 1.57128 0.121893 0
M  V30 7109 C 682.354 1.96556 1.15541 0
M  V30 7110 C 683.338 0.840147 1.37224 0
M  V30 7111 O 684.53 1.10382 1.38365 0
M  V30 7112 C 681.659 2.37097 2.48274 0
M  V30 7113 C 680.745 3.56265 2.30078 0
M  V30 7114 N 681.136 4.72041 1.81688 0
M  V30 7115 C 679.434 3.61841 2.60744 0
M  V30 7116 C 680.135 5.54075 1.77132 0
M  V30 7117 N 679.111 4.96483 2.21371 0
M  V30 7118 H 682.913 2.83531 0.77378 0
M  V30 7119 H 680.427 1.59019 0.329672 0
M  V30 7120 H 682.424 2.6356 3.2302 0
M  V30 7121 H 681.084 1.51486 2.87197 0
M  V30 7122 H 682.095 4.95313 1.51278 0
M  V30 7123 H 678.772 2.8683 3.03373 0
M  V30 7124 H 680.162 6.56939 1.40998 0
M  V30 7125 O 682.921 -0.266262 1.5929 0
M  V30 7126 H 683.612 -0.91096 1.70942 0
M  V30 END ATOM
M  V30 BEGIN BOND
M  V30 END BOND
M  V30 END CTAB
M  END
$$$$
