drugbank_target|P02786 Transferrin receptor protein 1 (DB01592; DB13949; DB14488; DB14489; DB14490; DB14491; DB14501; DB14520)
 OpenBabel12092120593D

  0  0  0     0  0            999 V3000
M  V30 BEGIN CTAB
M  V30 COUNTS 11889 12028 0 0 0
M  V30 BEGIN ATOM
M  V30 1 H -0.908 1.98254 -0.117106 0
M  V30 2 N 0 1.576 0 0
M  V30 3 C 0.933 2.03868 1.02534 0
M  V30 4 C 1.911 0.928543 1.3348 0
M  V30 5 O 3.095 1.19667 1.45644 0
M  V30 6 C 0.222 2.43627 2.35294 0
M  V30 7 C -0.732 3.65373 2.2001 0
M  V30 8 S 0.101 5.13292 1.52614 0
M  V30 9 C 1.257 5.56322 2.86805 0
M  V30 10 H 1.49 2.90518 0.631377 0
M  V30 11 H -0.977 1.52953 0.210867 0
M  V30 12 H 0.981 2.67203 3.11629 0
M  V30 13 H -0.358 1.57376 2.7183 0
M  V30 14 H -1.165 3.90944 3.18086 0
M  V30 15 H -1.563 3.418 1.51819 0
M  V30 16 H 0.729 5.58782 3.83104 0
M  V30 17 H 1.672 6.56266 2.65933 0
M  V30 18 H 2.08 4.83886 2.90714 0
M  V30 19 N 1.4781 -0.272755 1.55222 0
M  V30 20 C 2.4111 -1.3627 1.83046 0
M  V30 21 C 3.3891 -1.47536 0.683521 0
M  V30 22 O 4.5731 -1.64157 0.926545 0
M  V30 23 C 1.7001 -2.73908 1.99229 0
M  V30 24 C 0.7461 -2.79925 3.21783 0
M  V30 25 S 1.5791 -2.39146 4.79134 0
M  V30 26 C 2.7351 -3.78758 4.9829 0
M  V30 27 H 2.9681 -1.12464 2.75207 0
M  V30 28 H 0.5011 -0.472398 1.46996 0
M  V30 29 H 2.4591 -3.53171 2.09238 0
M  V30 30 H 1.1201 -2.94965 1.07956 0
M  V30 31 H 0.3131 -3.80946 3.29994 0
M  V30 32 H -0.0849 -2.08683 3.10367 0
M  V30 33 H 2.2071 -4.7403 4.84047 0
M  V30 34 H 3.1501 -3.75499 6.00338 0
M  V30 35 H 3.5581 -3.70072 4.26271 0
M  V30 36 N 2.9562 -1.48159 -0.537278 0
M  V30 37 C 4.2332 -1.46291 -1.29839 0
M  V30 38 C 4.6132 -0.170613 -2.10409 0
M  V30 39 O 3.9612 0.847746 -2.12192 0
M  V30 40 C 4.1712 -2.72055 -2.18603 0
M  V30 41 C 5.5192 -3.20087 -2.7898 0
M  V30 42 O 6.5432 -2.72921 -2.28894 0
M  V30 43 O 5.4022 -4.02138 -3.70064 0
M  V30 44 H 2.4962 -0.583906 -0.585647 0
M  V30 45 H 5.0422 -1.60384 -0.554534 0
M  V30 46 H 3.8142 -3.57628 -1.58801 0
M  V30 47 H 3.4372 -2.60646 -3.00249 0
M  V30 48 N 4.4343 0.785586 -1.36625 0
M  V30 49 C 5.3663 1.90711 -1.2713 0
M  V30 50 C 6.3793 1.61688 -0.189986 0
M  V30 51 O 7.5683 1.72864 -0.445014 0
M  V30 52 C 4.6683 3.25611 -0.939713 0
M  V30 53 C 3.8413 3.82385 -2.12369 0
M  V30 54 C 2.9003 4.95732 -1.76456 0
M  V30 55 O 1.9263 5.12047 -2.48589 0
M  V30 56 N 3.1283 5.76258 -0.700492 0
M  V30 57 H 5.8933 1.99376 -2.23762 0
M  V30 58 H 3.4543 0.964041 -1.30069 0
M  V30 59 H 5.4463 3.98937 -0.680554 0
M  V30 60 H 4.0163 3.12538 -0.0624074 0
M  V30 61 H 3.2363 3.01001 -2.54543 0
M  V30 62 H 4.5243 4.17047 -2.9146 0
M  V30 63 H 3.9223 5.65609 -0.101624 0
M  V30 64 H 2.4793 6.4987 -0.501165 0
M  V30 65 N 5.9124 1.20967 1.01018 0
M  V30 66 C 6.8754 0.965918 2.07853 0
M  V30 67 C 7.8754 -0.0610545 1.60684 0
M  V30 68 O 9.0654 0.175681 1.73312 0
M  V30 69 C 6.1974 0.455513 3.37843 0
M  V30 70 H 7.3904 1.91365 2.3091 0
M  V30 71 H 4.9434 1.02594 1.17916 0
M  V30 72 H 5.6784 -0.497381 3.20463 0
M  V30 73 H 5.4634 1.19622 3.73407 0
M  V30 74 H 6.9534 0.304667 4.16487 0
M  V30 75 N 7.3905 -1.2043 1.01659 0
M  V30 76 C 8.8065 -1.41852 0.731442 0
M  V30 77 C 9.0065 -1.89358 -0.688898 0
M  V30 78 O 8.0625 -2.06247 -1.45666 0
M  V30 79 C 9.3755 -2.44019 1.75714 0
M  V30 80 C 10.9235 -2.57785 1.77527 0
M  V30 81 C 11.3985 -3.63194 2.79023 0
M  V30 82 N 12.8895 -3.70678 2.77763 0
M  V30 83 C 13.6245 -4.51897 3.52954 0
M  V30 84 N 13.1205 -5.36921 4.37821 0
M  V30 85 N 14.9135 -4.4643 3.41551 0
M  V30 86 H 7.0645 -0.879093 1.93354 0
M  V30 87 H 9.3275 -0.448425 0.835236 0
M  V30 88 H 9.0335 -2.1611 2.77469 0
M  V30 89 H 8.9075 -3.43007 1.56927 0
M  V30 90 H 11.2945 -2.85023 0.764569 0
M  V30 91 H 11.3755 -1.58992 2.00387 0
M  V30 92 H 11.0195 -3.36699 3.80258 0
M  V30 93 H 10.9495 -4.61609 2.53425 0
M  V30 94 H 13.4405 -3.09944 2.16201 0
M  V30 95 H 13.7535 -5.95981 4.91962 0
M  V30 96 H 12.0985 -5.36424 4.41899 0
M  V30 97 H 15.2895 -3.79042 2.74672 0
M  V30 98 H 15.4625 -5.09491 4.00404 0
M  V30 99 N 8.8686 -0.792821 -1.36206 0
M  V30 100 C 10.0936 -0.377701 -2.03932 0
M  V30 101 C 10.5186 0.998947 -1.59382 0
M  V30 102 O 9.8766 1.64421 -0.763903 0
M  V30 103 C 9.9246 -0.453635 -3.57735 0
M  V30 104 O 9.0286 0.538151 -4.08874 0
M  V30 105 H 8.3696 -0.159855 -0.644471 0
M  V30 106 H 10.8996 -1.07488 -1.7409 0
M  V30 107 H 10.9096 -0.318464 -4.06755 0
M  V30 108 H 9.5846 -1.45784 -3.89512 0
M  V30 109 H 8.1616 0.364359 -3.71116 0
M  V30 110 N 10.3467 1.47872 -0.545128 0
M  V30 111 C 11.3097 2.28337 0.198717 0
M  V30 112 C 12.3097 1.36255 0.853888 0
M  V30 113 O 13.4997 1.59003 0.711606 0
M  V30 114 C 10.6317 3.15585 1.28915 0
M  V30 115 H 11.8247 2.95567 -0.507941 0
M  V30 116 H 9.3777 1.53362 -0.301616 0
M  V30 117 H 10.1127 2.53019 2.02859 0
M  V30 118 H 9.8977 3.83337 0.824309 0
M  V30 119 H 11.3877 3.76243 1.81194 0
M  V30 120 N 11.8248 0.280983 1.55075 0
M  V30 121 C 13.0718 -0.334115 1.99725 0
M  V30 122 C 13.3998 -1.5542 1.1694 0
M  V30 123 O 12.6548 -1.94361 0.228531 0
M  V30 124 C 12.9538 -0.754656 3.49342 0
M  V30 125 C 12.6198 0.361445 4.49449 0
M  V30 126 C 11.2818 0.667893 4.76542 0
M  V30 127 C 13.6338 1.11322 5.09173 0
M  V30 128 C 10.9618 1.7296 5.60626 0
M  V30 129 C 13.3138 2.1647 5.9441 0
M  V30 130 C 11.9778 2.47742 6.19822 0
M  V30 131 H 11.2478 -0.122261 0.730844 0
M  V30 132 H 13.8948 0.395917 1.87363 0
M  V30 133 H 12.1998 -1.56446 3.5921 0
M  V30 134 H 13.8968 -1.24142 3.813 0
M  V30 135 H 10.4868 0.112481 4.28452 0
M  V30 136 H 14.6708 0.88973 4.8826 0
M  V30 137 H 9.9268 1.97684 5.78559 0
M  V30 138 H 14.1008 2.75193 6.3972 0
M  V30 139 H 11.7278 3.30145 6.84769 0
M  V30 140 N 13.3029 -1.57598 0.00835791 0
M  V30 141 C 14.5279 -1.95617 -0.689103 0
M  V30 142 C 14.9529 -0.883753 -1.66046 0
M  V30 143 O 14.3109 0.157352 -1.80616 0
M  V30 144 C 14.3589 -3.32736 -1.38994 0
M  V30 145 O 13.4629 -3.27631 -2.50463 0
M  V30 146 H 12.8039 -0.638379 -0.182668 0
M  V30 147 H 15.3339 -2.045 0.064036 0
M  V30 148 H 15.3439 -3.68494 -1.75147 0
M  V30 149 H 14.0189 -4.1034 -0.677778 0
M  V30 150 H 12.5959 -3.03561 -2.16576 0
M  V30 151 N 14.781 0.264519 -1.55364 0
M  V30 152 C 15.729 1.34702 -1.89626 0
M  V30 153 C 16.723 1.50712 -0.773459 0
M  V30 154 O 17.929 1.52395 -0.957897 0
M  V30 155 H 14.304 0.450682 -0.601988 0
M  V30 156 H 16.275 1.0306 -2.80038 0
M  V30 157 C 15.024 2.6989 -2.19214 0
M  V30 158 H 14.347 2.58365 -3.05103 0
M  V30 159 H 15.787 3.44553 -2.47102 0
M  V30 160 C 14.246 3.21637 -1.00254 0
M  V30 161 O 14.776 4.00973 -0.241501 0
M  V30 162 N 12.982 2.7943 -0.797938 0
M  V30 163 H 12.529 2.15026 -1.4185 0
M  V30 164 H 12.487 3.144 -0.00363422 0
M  V30 165 N 16.2591 1.48442 0.529413 0
M  V30 166 C 17.1891 1.65902 1.64313 0
M  V30 167 C 18.1701 0.507897 1.6234 0
M  V30 168 O 19.3551 0.740503 1.79528 0
M  V30 169 C 16.4851 1.69911 3.02898 0
M  V30 170 C 15.4391 2.8453 3.19729 0
M  V30 171 C 14.7651 2.73629 4.59381 0
M  V30 172 C 16.0651 4.25821 3.02447 0
M  V30 173 H 17.7591 2.5914 1.49955 0
M  V30 174 H 15.3051 1.24709 0.719982 0
M  V30 175 H 17.2581 1.80715 3.80684 0
M  V30 176 H 15.9821 0.732524 3.18279 0
M  V30 177 H 14.6411 2.73283 2.44361 0
M  V30 178 H 14.2891 1.74938 4.71599 0
M  V30 179 H 13.9891 3.50541 4.71588 0
M  V30 180 H 15.5131 2.86401 5.39265 0
M  V30 181 H 16.9271 4.37898 3.70024 0
M  V30 182 H 15.3241 5.03735 3.26146 0
M  V30 183 H 16.3941 4.42244 1.98867 0
M  V30 184 N 17.7372 -0.778329 1.37039 0
M  V30 185 C 18.9842 -1.53665 1.31884 0
M  V30 186 C 19.3122 -1.9425 -0.0986303 0
M  V30 187 O 18.5672 -1.63832 -1.07041 0
M  V30 188 C 18.8662 -2.81845 2.19768 0
M  V30 189 C 18.5322 -2.60345 3.68146 0
M  V30 190 C 17.1942 -2.5419 4.08584 0
M  V30 191 C 19.5462 -2.40923 4.62175 0
M  V30 192 C 16.8742 -2.26594 5.41177 0
M  V30 193 C 19.2262 -2.14852 5.94997 0
M  V30 194 C 17.8902 -2.07137 6.34547 0
M  V30 195 H 17.1602 -0.562299 0.482598 0
M  V30 196 H 19.8072 -0.897069 1.69189 0
M  V30 197 H 18.1122 -3.50328 1.75436 0
M  V30 198 H 19.8092 -3.39692 2.13097 0
M  V30 199 H 16.3992 -2.65996 3.36072 0
M  V30 200 H 20.5832 -2.44673 4.31797 0
M  V30 201 H 15.8392 -2.19111 5.70789 0
M  V30 202 H 20.0132 -1.98822 6.67415 0
M  V30 203 H 17.6402 -1.85518 7.37216 0
M  V30 204 N 19.2153 -1.21501 -1.00376 0
M  V30 205 C 20.4633 -1.03095 -1.73827 0
M  V30 206 C 20.7843 0.436341 -1.90055 0
M  V30 207 O 20.0543 1.31466 -1.45236 0
M  V30 208 H 18.6343 -0.378487 -0.644016 0
M  V30 209 H 21.2963 -1.52831 -1.20949 0
M  V30 210 H 20.3923 -1.49991 -2.73695 0
M  V30 211 N 20.6934 1.19889 -1.02296 0
M  V30 212 C 21.9414 1.89046 -0.714558 0
M  V30 213 C 22.2624 1.79636 0.758681 0
M  V30 214 O 21.5324 1.20292 1.54618 0
M  V30 215 H 20.1124 0.699802 -0.261317 0
M  V30 216 H 22.7744 1.45574 -1.29592 0
M  V30 217 H 21.8704 2.95524 -1.0036 0
M  V30 218 N 22.1715 0.800033 1.35784 0
M  V30 219 C 23.0815 0.207204 2.33683 0
M  V30 220 C 24.0975 -0.64631 1.61551 0
M  V30 221 O 25.2735 -0.559604 1.93469 0
M  V30 222 C 22.3385 -0.639659 3.40748 0
M  V30 223 C 21.3995 0.233585 4.28664 0
M  V30 224 C 20.6325 -0.572954 5.30616 0
M  V30 225 O 20.8555 -1.80816 5.40982 0
M  V30 226 O 19.7895 0.0327285 6.01891 0
M  V30 227 H 23.6155 1.01692 2.86169 0
M  V30 228 H 21.2005 0.561691 1.38439 0
M  V30 229 H 23.0825 -1.12223 4.06182 0
M  V30 230 H 21.7575 -1.42708 2.90544 0
M  V30 231 H 20.6645 0.763147 3.66233 0
M  V30 232 H 21.9975 0.984784 4.82248 0
M  V30 233 N 23.6496 -1.47581 0.552962 0
M  V30 234 C 25.0606 -1.86324 0.118463 0
M  V30 235 C 25.4116 -1.46006 -1.3106 0
M  V30 236 O 24.5366 -0.861182 -1.98526 0
M  V30 237 C 25.1316 -3.3816 0.20821 0
M  V30 238 C 23.6906 -3.7601 -0.171226 0
M  V30 239 C 22.8376 -2.71634 0.557686 0
M  V30 240 H 25.7886 -1.39159 0.762928 0
M  V30 241 H 25.8096 -3.76141 -0.574278 0
M  V30 242 H 25.3216 -3.67473 1.24841 0
M  V30 243 H 23.4226 -3.52313 -1.21269 0
M  V30 244 H 23.5356 -4.78745 0.184379 0
M  V30 245 H 21.8996 -2.547 0.00125792 0
M  V30 246 H 22.6826 -3.0379 1.59896 0
M  V30 247 N 25.1277 -0.289203 -1.54924 0
M  V30 248 C 26.0577 0.58549 -2.2604 0
M  V30 249 C 27.0387 1.14753 -1.25562 0
M  V30 250 O 28.2237 1.17906 -1.54311 0
M  V30 251 C 25.3537 1.76305 -2.99222 0
M  V30 252 C 24.3077 1.33191 -4.06748 0
M  V30 253 C 23.6337 2.5937 -4.6758 0
M  V30 254 C 24.9337 0.471775 -5.20165 0
M  V30 255 H 26.6277 -0.00763532 -2.99399 0
M  V30 256 H 24.1737 -0.00511229 -1.43999 0
M  V30 257 H 26.1267 2.38097 -3.47689 0
M  V30 258 H 24.8507 2.38223 -2.23422 0
M  V30 259 H 23.5097 0.737121 -3.59113 0
M  V30 260 H 23.1577 3.19576 -3.88433 0
M  V30 261 H 22.8577 2.31228 -5.40192 0
M  V30 262 H 24.3817 3.21985 -5.18804 0
M  V30 263 H 25.7957 0.995056 -5.64599 0
M  V30 264 H 24.1927 0.284639 -5.99425 0
M  V30 265 H 25.2627 -0.506041 -4.82252 0
M  V30 266 N 26.6058 1.57591 -0.0167156 0
M  V30 267 C 27.8308 1.9598 0.67872 0
M  V30 268 C 28.2558 0.892546 1.65575 0
M  V30 269 O 27.6138 -0.147772 1.80697 0
M  V30 270 C 27.6618 3.33468 1.37227 0
M  V30 271 O 26.7658 3.28954 2.48722 0
M  V30 272 H 26.1068 0.639339 0.17928 0
M  V30 273 H 28.6368 2.04463 -0.0748802 0
M  V30 274 H 28.6468 3.69417 1.7319 0
M  V30 275 H 27.3218 4.10694 0.656007 0
M  V30 276 H 25.8988 3.04705 2.14963 0
M  V30 277 N 28.0839 -0.256276 1.55502 0
M  V30 278 C 29.3139 -1.00196 1.80677 0
M  V30 279 C 29.7219 -1.79805 0.588797 0
M  V30 280 O 29.0649 -1.78055 -0.451883 0
M  V30 281 C 29.1269 -1.99515 2.99055 0
M  V30 282 C 28.7909 -1.38688 4.35448 0
M  V30 283 C 29.7879 -0.794079 5.138 0
M  V30 284 C 27.4729 -1.40906 4.82132 0
M  V30 285 C 29.4669 -0.231562 6.36979 0
M  V30 286 C 27.1539 -0.842684 6.05262 0
M  V30 287 C 28.1519 -0.254953 6.82524 0
M  V30 288 O 27.8399 0.3027 8.0333 0
M  V30 289 H 27.5719 -0.300919 0.60533 0
M  V30 290 H 30.1259 -0.287307 2.03381 0
M  V30 291 H 28.3559 -2.74785 2.72084 0
M  V30 292 H 30.0449 -2.60349 3.11405 0
M  V30 293 H 30.8109 -0.769519 4.78856 0
M  V30 294 H 26.6899 -1.85591 4.21992 0
M  V30 295 H 30.2339 0.227816 6.97228 0
M  V30 296 H 26.1309 -0.86454 6.39684 0
M  V30 297 H 26.8989 0.193662 8.18271 0
M  V30 298 N 29.562 -1.4872 -0.521534 0
M  V30 299 C 30.79 -1.60843 -1.30142 0
M  V30 300 C 31.205 -0.271897 -1.86832 0
M  V30 301 O 30.562 0.739969 -1.66825 0
M  V30 302 C 30.613 -2.66155 -2.4463 0
M  V30 303 O 30.334 -3.94623 -1.90275 0
M  V30 304 C 31.835 -2.88795 -3.36322 0
M  V30 305 H 29.055 -0.542075 -0.395468 0
M  V30 306 H 31.599 -1.94609 -0.628285 0
M  V30 307 H 29.754 -2.35224 -3.07812 0
M  V30 308 H 30.168 -4.52468 -2.65279 0
M  V30 309 H 31.642 -3.66264 -4.12983 0
M  V30 310 H 32.119 -1.97934 -3.9207 0
M  V30 311 H 32.725 -3.21063 -2.78924 0
M  V30 312 N 31.0401 0.771051 -1.3745 0
M  V30 313 C 32.4561 1.07171 -1.18265 0
M  V30 314 C 32.6561 2.01491 -0.019287 0
M  V30 315 O 31.7121 2.44244 0.640408 0
M  V30 316 C 33.0251 1.66854 -2.50161 0
M  V30 317 C 34.5731 1.79109 -2.56689 0
M  V30 318 C 35.0481 2.42205 -3.88717 0
M  V30 319 N 36.5391 2.49655 -3.90162 0
M  V30 320 C 37.2741 2.9933 -4.8907 0
M  V30 321 N 36.7701 3.49172 -5.98374 0
M  V30 322 N 38.5631 2.9821 -4.76474 0
M  V30 323 H 30.7141 0.144796 -2.11906 0
M  V30 324 H 32.9771 0.126863 -0.939473 0
M  V30 325 H 32.6831 1.05017 -3.35655 0
M  V30 326 H 32.5571 2.6614 -2.673 0
M  V30 327 H 34.9441 2.40077 -1.71601 0
M  V30 328 H 35.0251 0.785757 -2.43433 0
M  V30 329 H 34.6691 1.81875 -4.74219 0
M  V30 330 H 34.5991 3.43345 -3.99276 0
M  V30 331 H 37.0901 2.14383 -3.11205 0
M  V30 332 H 37.4031 3.8548 -6.69795 0
M  V30 333 H 35.7481 3.47275 -6.02018 0
M  V30 334 H 38.9391 2.58572 -3.90203 0
M  V30 335 H 39.1121 3.36613 -5.53711 0
M  V30 336 N 32.5182 1.22032 0.997298 0
M  V30 337 C 33.7652 1.04222 1.73621 0
M  V30 338 C 34.0932 -0.423264 1.89839 0
M  V30 339 O 33.3482 -1.3302 1.43542 0
M  V30 340 C 33.6472 1.69345 3.14733 0
M  V30 341 C 33.3132 3.19226 3.18442 0
M  V30 342 C 31.9752 3.60124 3.19161 0
M  V30 343 C 34.3272 4.15181 3.15078 0
M  V30 344 C 31.6552 4.95467 3.14212 0
M  V30 345 C 34.0072 5.50495 3.1167 0
M  V30 346 C 32.6712 5.90779 3.10703 0
M  V30 347 H 31.9412 0.381374 0.635323 0
M  V30 348 H 34.5882 1.51732 1.16831 0
M  V30 349 H 32.8932 1.14147 3.74803 0
M  V30 350 H 34.5902 1.53059 3.7064 0
M  V30 351 H 31.1802 2.86659 3.18629 0
M  V30 352 H 35.3642 3.84605 3.13676 0
M  V30 353 H 30.6202 5.25916 3.11805 0
M  V30 354 H 34.7942 6.24576 3.08022 0
M  V30 355 H 32.4212 6.9562 3.06622 0
M  V30 356 N 33.9963 -1.19345 1.0293 0
M  V30 357 C 35.2213 -1.93538 0.745511 0
M  V30 358 C 35.6463 -1.75007 -0.689511 0
M  V30 359 O 35.0043 -1.05265 -1.47611 0
M  V30 360 C 35.0523 -3.43336 1.10239 0
M  V30 361 O 34.1563 -4.11806 0.221289 0
M  V30 362 H 33.4973 -0.604193 0.275404 0
M  V30 363 H 36.0273 -1.5141 1.37609 0
M  V30 364 H 36.0373 -3.94004 1.05947 0
M  V30 365 H 34.7123 -3.56146 2.14786 0
M  V30 366 H 33.2893 -3.715 0.322842 0
M  V30 367 N 35.4744 -0.807222 -1.35358 0
M  V30 368 C 36.4044 -0.232509 -2.3234 0
M  V30 369 C 37.3854 0.642386 -1.57504 0
M  V30 370 O 38.5704 0.572526 -1.85569 0
M  V30 371 C 35.7004 0.619238 -3.41735 0
M  V30 372 C 34.6544 -0.157215 -4.27711 0
M  V30 373 C 33.9804 0.816273 -5.28433 0
M  V30 374 C 35.2804 -1.35656 -5.04376 0
M  V30 375 H 36.9744 -1.04276 -2.80654 0
M  V30 376 H 34.5204 -0.50288 -1.34934 0
M  V30 377 H 36.4734 1.03137 -4.08584 0
M  V30 378 H 35.1974 1.46239 -2.92031 0
M  V30 379 H 33.8564 -0.550525 -3.62443 0
M  V30 380 H 33.5044 1.65494 -4.74996 0
M  V30 381 H 33.2044 0.301067 -5.86828 0
M  V30 382 H 34.7284 1.22659 -5.98153 0
M  V30 383 H 36.1424 -1.01927 -5.64166 0
M  V30 384 H 34.5394 -1.8063 -5.7227 0
M  V30 385 H 35.6094 -2.14288 -4.34981 0
M  V30 386 N 36.9525 1.47285 -0.560781 0
M  V30 387 C 37.9155 2.28535 0.174488 0
M  V30 388 C 38.9155 1.37153 0.839388 0
M  V30 389 O 40.1055 1.59748 0.694702 0
M  V30 390 C 37.2375 3.16934 1.25561 0
M  V30 391 H 38.4305 2.95012 -0.539262 0
M  V30 392 H 35.9835 1.53034 -0.317865 0
M  V30 393 H 36.7185 2.55157 2.00164 0
M  V30 394 H 36.5035 3.8419 0.783604 0
M  V30 395 H 37.9935 3.78143 1.77193 0
M  V30 396 N 38.4306 0.297415 1.54768 0
M  V30 397 C 39.8466 -0.0560823 1.59501 0
M  V30 398 C 40.0466 -1.52725 1.31444 0
M  V30 399 O 39.1026 -2.27947 1.08611 0
M  V30 400 C 40.4156 0.338631 2.98787 0
M  V30 401 C 41.9636 0.287097 3.11681 0
M  V30 402 C 42.4386 0.656579 4.53269 0
M  V30 403 N 43.9296 0.608977 4.59179 0
M  V30 404 C 44.6646 0.867385 5.66802 0
M  V30 405 N 44.1606 1.19157 6.82476 0
M  V30 406 N 45.9536 0.794687 5.56454 0
M  V30 407 H 38.1046 1.25624 1.71267 0
M  V30 408 H 40.3676 0.509057 0.799728 0
M  V30 409 H 40.0736 1.36263 3.2423 0
M  V30 410 H 39.9476 -0.309508 3.75928 0
M  V30 411 H 42.3346 -0.727649 2.85988 0
M  V30 412 H 42.4156 0.969809 2.36703 0
M  V30 413 H 42.0596 1.66912 4.7969 0
M  V30 414 H 41.9896 -0.0481649 5.26578 0
M  V30 415 H 44.4806 0.369198 3.76092 0
M  V30 416 H 44.7936 1.37482 7.60473 0
M  V30 417 H 43.1386 1.22958 6.84037 0
M  V30 418 H 46.3296 0.541098 4.64962 0
M  V30 419 H 46.5026 0.999445 6.40246 0
M  V30 420 N 39.9087 -1.5758 0.0250728 0
M  V30 421 C 40.8407 -2.06869 -0.986796 0
M  V30 422 C 41.8537 -0.991332 -1.29137 0
M  V30 423 O 43.0427 -1.26761 -1.25674 0
M  V30 424 C 40.1427 -2.47486 -2.31525 0
M  V30 425 C 39.3157 -3.78253 -2.19643 0
M  V30 426 C 38.3747 -4.05464 -3.35388 0
M  V30 427 O 37.4007 -4.75774 -3.12454 0
M  V30 428 N 38.6027 -3.55321 -4.59051 0
M  V30 429 H 41.3677 -2.94302 -0.566276 0
M  V30 430 H 38.9287 -1.6109 -0.161776 0
M  V30 431 H 40.9207 -2.62785 -3.07776 0
M  V30 432 H 39.4907 -1.65441 -2.65232 0
M  V30 433 H 38.7107 -3.7279 -1.28144 0
M  V30 434 H 39.9987 -4.63936 -2.08903 0
M  V30 435 H 39.3967 -2.98431 -4.80578 0
M  V30 436 H 37.9537 -3.75905 -5.32483 0
M  V30 437 N 41.3868 0.248026 -1.55636 0
M  V30 438 C 42.6328 0.97767 -1.77678 0
M  V30 439 C 42.9658 1.85016 -0.590135 0
M  V30 440 O 42.2408 1.90095 0.411611 0
M  V30 441 C 42.5238 1.83914 -3.09593 0
M  V30 442 C 42.3768 0.99491 -4.38659 0
M  V30 443 C 43.6958 2.82183 -3.37729 0
M  V30 444 H 40.8148 0.354005 -0.646413 0
M  V30 445 H 43.4568 0.248253 -1.88371 0
M  V30 446 H 41.6068 2.46104 -3.00608 0
M  V30 447 H 43.2788 0.391789 -4.59633 0
M  V30 448 H 41.5218 0.299231 -4.32767 0
M  V30 449 H 42.1928 1.63145 -5.2734 0
M  V30 450 H 44.6688 2.30129 -3.4667 0
M  V30 451 H 43.5448 3.39582 -4.31249 0
M  V30 452 H 43.8058 3.58588 -2.58586 0
M  V30 453 N 42.8649 1.48995 0.513639 0
M  V30 454 C 44.1419 1.48338 1.27495 0
M  V30 455 C 44.5219 0.204065 2.10111 0
M  V30 456 O 43.8699 -0.813881 2.13514 0
M  V30 457 C 44.0799 2.75498 2.14247 0
M  V30 458 C 45.4279 3.24484 2.73852 0
M  V30 459 O 46.4519 2.76528 2.24523 0
M  V30 460 O 45.3109 4.07974 3.6362 0
M  V30 461 H 42.4049 0.593149 0.576284 0
M  V30 462 H 44.9509 1.61246 0.528948 0
M  V30 463 H 43.7229 3.60109 1.53092 0
M  V30 464 H 43.3459 2.6539 2.96064 0
M  V30 465 N 44.343 -0.763751 1.37857 0
M  V30 466 C 45.591 -1.51957 1.33243 0
M  V30 467 C 45.912 -1.94835 -0.0801709 0
M  V30 468 O 45.182 -1.66894 -1.02582 0
M  V30 469 H 43.762 -0.563626 0.49024 0
M  V30 470 H 46.424 -0.908504 1.7243 0
M  V30 471 H 45.52 -2.41523 1.97669 0
M  V30 472 N 45.8211 -1.22559 -0.990812 0
M  V30 473 C 47.0981 -0.959875 -1.70428 0
M  V30 474 C 47.4781 0.524455 -2.04481 0
M  V30 475 O 46.8261 1.49302 -1.72977 0
M  V30 476 C 47.0361 -1.85955 -2.95333 0
M  V30 477 C 48.3841 -2.11687 -3.68068 0
M  V30 478 O 49.4081 -1.8342 -3.05345 0
M  V30 479 O 48.2671 -2.59572 -4.80921 0
M  V30 480 H 45.3611 -0.361154 -0.743974 0
M  V30 481 H 47.9071 -1.33554 -1.04697 0
M  V30 482 H 46.6791 -2.86346 -2.66687 0
M  V30 483 H 46.3021 -1.4856 -3.68803 0
M  V30 484 N 47.2992 1.18797 -1.03562 0
M  V30 485 C 48.2472 2.24297 -0.615905 0
M  V30 486 C 49.2412 1.65643 0.354808 0
M  V30 487 O 50.4472 1.78618 0.22265 0
M  V30 488 H 46.8222 0.729909 -0.180934 0
M  V30 489 H 48.7932 2.5701 -1.5162 0
M  V30 490 C 47.5422 3.47698 0.0104735 0
M  V30 491 H 46.8652 3.93125 -0.727509 0
M  V30 492 H 48.3052 4.23159 0.266995 0
M  V30 493 C 46.7642 3.12489 1.25905 0
M  V30 494 O 47.2942 3.25761 2.35038 0
M  V30 495 N 45.5002 2.6686 1.15039 0
M  V30 496 H 45.0472 2.56261 0.262328 0
M  V30 497 H 45.0052 2.43674 1.98672 0
M  V30 498 N 48.7773 0.814389 1.34928 0
M  V30 499 C 50.0023 0.410097 2.03305 0
M  V30 500 C 50.4273 -0.973464 1.60951 0
M  V30 501 O 49.7853 -1.63185 0.789964 0
M  V30 502 C 49.8333 0.51049 3.56968 0
M  V30 503 O 48.9373 -0.473035 4.09678 0
M  V30 504 H 48.2783 0.170088 0.641846 0
M  V30 505 H 50.8083 1.10244 1.72358 0
M  V30 506 H 50.8183 0.383135 4.06197 0
M  V30 507 H 49.4933 1.51963 3.87144 0
M  V30 508 H 48.0703 -0.305272 3.71648 0
M  V30 509 N 50.2554 -1.46986 0.568584 0
M  V30 510 C 51.2054 -2.27179 -0.193339 0
M  V30 511 C 52.1894 -1.35035 -0.874895 0
M  V30 512 O 53.3814 -1.5931 -0.771322 0
M  V30 513 C 50.5104 -3.21063 -1.21546 0
M  V30 514 C 49.5964 -4.2069 -0.536738 0
M  V30 515 N 49.9874 -5.04218 0.399673 0
M  V30 516 C 48.2854 -4.38961 -0.789254 0
M  V30 517 C 48.9864 -5.76242 0.795017 0
M  V30 518 N 47.9624 -5.434 0.1473 0
M  V30 519 H 51.7644 -2.89146 0.526458 0
M  V30 520 H 49.2784 -1.57664 0.389342 0
M  V30 521 H 51.2754 -3.77209 -1.77536 0
M  V30 522 H 49.9354 -2.60654 -1.93623 0
M  V30 523 H 50.9464 -5.12077 0.774454 0
M  V30 524 H 47.6234 -3.89713 -1.49767 0
M  V30 525 H 49.0134 -6.53417 1.56513 0
M  V30 526 N 51.7335 -0.305618 -1.54608 0
M  V30 527 C 52.9795 0.302746 -2.00528 0
M  V30 528 C 53.3125 1.53184 -1.19367 0
M  V30 529 O 52.5875 1.92598 -0.271321 0
M  V30 530 C 52.8705 0.654756 -3.54097 0
M  V30 531 C 52.7235 -0.583793 -4.45995 0
M  V30 532 C 54.0425 1.47947 -4.14487 0
M  V30 533 H 51.1615 0.108564 -0.72896 0
M  V30 534 H 53.8035 -0.418634 -1.85331 0
M  V30 535 H 51.9535 1.26935 -3.67178 0
M  V30 536 H 53.6255 -1.22224 -4.44814 0
M  V30 537 H 51.8685 -1.21615 -4.16404 0
M  V30 538 H 52.5395 -0.293287 -5.5122 0
M  V30 539 H 55.0155 0.96013 -4.04871 0
M  V30 540 H 53.8915 1.69454 -5.22088 0
M  V30 541 H 54.1525 2.47011 -3.66658 0
M  V30 542 N 53.2116 1.57565 -0.0334293 0
M  V30 543 C 54.1216 2.13943 0.962572 0
M  V30 544 C 55.1376 1.09276 1.35406 0
M  V30 545 O 56.3136 1.41355 1.4346 0
M  V30 546 C 53.3786 2.65887 2.22497 0
M  V30 547 C 52.4396 3.85286 1.8935 0
M  V30 548 C 51.6726 4.34743 3.09571 0
M  V30 549 O 51.8956 3.83352 4.22371 0
M  V30 550 O 50.8296 5.26538 2.91618 0
M  V30 551 H 54.6556 2.99333 0.513169 0
M  V30 552 H 52.2406 1.4822 0.18743 0
M  V30 553 H 54.1226 2.99346 2.96598 0
M  V30 554 H 52.7976 1.83578 2.6661 0
M  V30 555 H 51.7046 3.56746 1.1262 0
M  V30 556 H 53.0376 4.68771 1.5005 0
M  V30 557 N 54.6897 -0.239769 1.55765 0
M  V30 558 C 55.6227 -1.32356 1.85895 0
M  V30 559 C 56.6007 -1.46053 0.714662 0
M  V30 560 O 57.7847 -1.62154 0.961157 0
M  V30 561 C 54.9117 -2.6962 2.04994 0
M  V30 562 C 53.9577 -2.73036 3.27648 0
M  V30 563 S 54.7907 -2.28929 4.84099 0
M  V30 564 C 55.9467 -3.68103 5.06212 0
M  V30 565 H 56.1797 -1.06601 2.77531 0
M  V30 566 H 53.7127 -0.441112 1.47965 0
M  V30 567 H 55.6707 -3.48653 2.16682 0
M  V30 568 H 54.3317 -2.92609 1.14188 0
M  V30 569 H 53.5247 -3.7386 3.38 0
M  V30 570 H 53.1267 -2.02052 3.14723 0
M  V30 571 H 55.4187 -4.63656 4.93993 0
M  V30 572 H 56.3617 -3.6268 6.08168 0
M  V30 573 H 56.7697 -3.60947 4.34025 0
M  V30 574 N 56.1678 -1.49265 -0.50573 0
M  V30 575 C 57.1148 -1.65585 -1.6078 0
M  V30 576 C 58.0848 -0.497396 -1.58478 0
M  V30 577 O 59.2698 -0.72385 -1.76536 0
M  V30 578 C 56.4098 -1.72408 -2.98948 0
M  V30 579 C 55.5228 -2.99525 -3.11301 0
M  V30 580 C 54.6578 -2.97356 -4.40174 0
M  V30 581 C 53.6968 -4.19074 -4.46143 0
M  V30 582 N 52.8338 -4.14841 -5.66437 0
M  V30 583 H 57.6738 -2.59688 -1.46172 0
M  V30 584 H 55.2108 -1.28761 -0.711261 0
M  V30 585 H 57.1688 -1.74344 -3.79025 0
M  V30 586 H 55.7988 -0.817753 -3.1227 0
M  V30 587 H 54.8508 -3.07222 -2.24318 0
M  V30 588 H 56.1628 -3.89518 -3.11572 0
M  V30 589 H 55.3168 -2.97829 -5.28567 0
M  V30 590 H 54.0558 -2.05133 -4.42461 0
M  V30 591 H 53.0608 -4.1885 -3.56153 0
M  V30 592 H 54.2858 -5.12483 -4.45575 0
M  V30 593 H 52.2318 -3.25453 -5.69575 0
M  V30 594 H 52.1488 -4.98564 -5.68304 0
M  V30 595 H 53.4168 -4.1941 -6.57051 0
M  V30 596 N 57.6459 0.756429 -1.3826 0
M  V30 597 C 58.5759 1.88374 -1.37976 0
M  V30 598 C 59.5569 1.68311 -0.246082 0
M  V30 599 O 60.7419 1.88944 -0.44874 0
M  V30 600 C 57.8719 3.25864 -1.20125 0
M  V30 601 C 56.8259 3.60523 -2.30666 0
M  V30 602 C 56.1519 4.9672 -1.97923 0
M  V30 603 C 57.4519 3.65692 -3.72916 0
M  V30 604 H 59.1459 1.88869 -2.32312 0
M  V30 605 H 56.6919 0.907272 -1.11824 0
M  V30 606 H 58.6449 4.0438 -1.18552 0
M  V30 607 H 57.3689 3.25841 -0.222498 0
M  V30 608 H 56.0279 2.84324 -2.3142 0
M  V30 609 H 55.6759 4.93253 -0.985393 0
M  V30 610 H 55.3759 5.20878 -2.71955 0
M  V30 611 H 56.8999 5.77618 -1.97964 0
M  V30 612 H 58.3139 4.34328 -3.74208 0
M  V30 613 H 56.7109 4.01358 -4.4613 0
M  V30 614 H 57.7809 2.65987 -4.05436 0
M  V30 615 N 59.124 1.23083 0.984299 0
M  V30 616 C 60.087 1.00979 2.05757 0
M  V30 617 C 61.087 -0.0269573 1.60777 0
M  V30 618 O 62.277 0.212403 1.729 0
M  V30 619 C 59.409 0.527072 3.36801 0
M  V30 620 H 60.602 1.9622 2.26799 0
M  V30 621 H 58.155 1.05072 1.15714 0
M  V30 622 H 58.89 -0.429294 3.21446 0
M  V30 623 H 58.675 1.27515 3.70786 0
M  V30 624 H 60.165 0.392942 4.15747 0
M  V30 625 N 60.6021 -1.18246 1.0419 0
M  V30 626 C 61.8481 -1.88536 0.747122 0
M  V30 627 C 62.1811 -1.80223 -0.723409 0
M  V30 628 O 61.4561 -1.20337 -1.52804 0
M  V30 629 C 61.7391 -3.38968 1.21544 0
M  V30 630 C 61.5921 -3.56084 2.74816 0
M  V30 631 C 62.9111 -4.32648 0.806482 0
M  V30 632 H 60.0301 -0.684619 0.272883 0
M  V30 633 H 62.6721 -1.39113 1.29413 0
M  V30 634 H 60.8221 -3.8119 0.750081 0
M  V30 635 H 62.4941 -3.22946 3.29399 0
M  V30 636 H 60.7371 -2.98699 3.14582 0
M  V30 637 H 61.4081 -4.61639 3.02644 0
M  V30 638 H 63.8841 -3.98211 1.20695 0
M  V30 639 H 62.7601 -5.36462 1.1619 0
M  V30 640 H 63.0211 -4.41146 -0.29029 0
M  V30 641 N 62.0802 -0.821533 -1.34494 0
M  V30 642 C 63.3572 -0.33159 -1.92769 0
M  V30 643 C 63.7372 1.18088 -1.74981 0
M  V30 644 O 63.0852 1.98733 -1.12772 0
M  V30 645 C 63.2952 -0.759398 -3.40638 0
M  V30 646 C 64.6432 -0.757433 -4.1779 0
M  V30 647 O 65.6672 -0.70189 -3.49216 0
M  V30 648 O 64.5262 -0.829361 -5.4017 0
M  V30 649 H 61.6202 -0.0902502 -0.822061 0
M  V30 650 H 64.1662 -0.906231 -1.43477 0
M  V30 651 H 62.9382 -1.8012 -3.47379 0
M  V30 652 H 62.5612 -0.160378 -3.97276 0
M  V30 653 N 63.5583 1.46682 -0.576371 0
M  V30 654 C 64.4683 2.34032 0.163141 0
M  V30 655 C 65.4843 1.49367 0.892501 0
M  V30 656 O 66.6603 1.82252 0.857106 0
M  V30 657 C 63.7253 3.26435 1.16795 0
M  V30 658 C 62.7863 4.26998 0.443944 0
M  V30 659 C 62.0193 5.14986 1.40088 0
M  V30 660 O 62.2423 5.05785 2.637 0
M  V30 661 O 61.1763 5.94906 0.914917 0
M  V30 662 H 65.0023 2.98607 -0.55388 0
M  V30 663 H 62.5873 1.45554 -0.336821 0
M  V30 664 H 64.4693 3.83459 1.74748 0
M  V30 665 H 63.1443 2.64465 1.86655 0
M  V30 666 H 62.0513 3.7368 -0.177271 0
M  V30 667 H 63.3843 4.91736 -0.213566 0
M  V30 668 N 65.0364 0.313813 1.54444 0
M  V30 669 C 65.9464 -0.565714 2.27677 0
M  V30 670 C 66.9624 -1.13754 1.31666 0
M  V30 671 O 68.1384 -1.15959 1.64668 0
M  V30 672 C 65.2034 -1.71528 3.01296 0
M  V30 673 C 64.2644 -1.17624 4.12872 0
M  V30 674 C 63.4974 -2.27102 4.8297 0
M  V30 675 O 63.7204 -3.47256 4.52514 0
M  V30 676 O 62.6544 -1.9307 5.70094 0
M  V30 677 H 66.4804 0.0287296 3.03686 0
M  V30 678 H 64.0654 0.0798312 1.49187 0
M  V30 679 H 65.9474 -2.38476 3.4743 0
M  V30 680 H 64.6224 -2.29608 2.2817 0
M  V30 681 H 63.5294 -0.472124 3.71109 0
M  V30 682 H 64.8624 -0.640695 4.88012 0
M  V30 683 N 66.5145 -1.57545 0.0417849 0
M  V30 684 C 67.4245 -2.14451 -0.951213 0
M  V30 685 C 68.4405 -1.09992 -1.34825 0
M  V30 686 O 69.6165 -1.42114 -1.42708 0
M  V30 687 C 66.6815 -2.67063 -2.21084 0
M  V30 688 C 65.7425 -3.86284 -1.87304 0
M  V30 689 C 64.9755 -4.36378 -3.07261 0
M  V30 690 O 65.1985 -3.85587 -4.20332 0
M  V30 691 O 64.1325 -5.28077 -2.88822 0
M  V30 692 H 67.9585 -2.99601 -0.497287 0
M  V30 693 H 65.5435 -1.48317 -0.179567 0
M  V30 694 H 67.4255 -3.00914 -2.95006 0
M  V30 695 H 66.1005 -1.84989 -2.65633 0
M  V30 696 H 65.0075 -3.57338 -1.10727 0
M  V30 697 H 66.3405 -4.6956 -1.47562 0
M  V30 698 N 67.9926 0.231505 -1.5589 0
M  V30 699 C 68.9406 1.30649 -1.92441 0
M  V30 700 C 69.9346 1.49037 -0.805254 0
M  V30 701 O 71.1406 1.50329 -0.990007 0
M  V30 702 H 67.5156 0.437812 -0.611412 0
M  V30 703 H 69.4866 0.970973 -2.82161 0
M  V30 704 C 68.2356 2.65179 -2.24889 0
M  V30 705 H 67.5586 2.51835 -3.10514 0
M  V30 706 H 68.9986 3.39234 -2.54355 0
M  V30 707 C 67.4576 3.19439 -1.07054 0
M  V30 708 O 67.9876 4.00371 -0.326499 0
M  V30 709 N 66.1936 2.77675 -0.85703 0
M  V30 710 H 65.7406 2.11969 -1.46379 0
M  V30 711 H 65.6986 3.14321 -0.0703223 0
M  V30 712 N 69.4707 1.49531 0.497807 0
M  V30 713 C 70.4337 1.65916 1.58128 0
M  V30 714 C 71.4337 0.530825 1.51786 0
M  V30 715 O 72.6237 0.797342 1.54881 0
M  V30 716 C 69.7557 1.65951 2.9778 0
M  V30 717 H 70.9487 2.62556 1.44929 0
M  V30 718 H 68.5017 1.38611 0.722275 0
M  V30 719 H 69.2367 0.709065 3.16453 0
M  V30 720 H 69.0217 2.47897 3.03792 0
M  V30 721 H 70.5117 1.80673 3.76493 0
M  V30 722 N 70.9488 -0.749086 1.3866 0
M  V30 723 C 72.2258 -1.4992 1.25632 0
M  V30 724 C 72.6058 -2.10633 -0.140317 0
M  V30 725 O 71.9538 -1.97437 -1.15025 0
M  V30 726 C 72.1638 -2.56195 2.36992 0
M  V30 727 C 73.5118 -3.22972 2.75634 0
M  V30 728 O 74.5358 -2.66502 2.36337 0
M  V30 729 O 73.3948 -4.25122 3.43415 0
M  V30 730 H 70.4888 -0.665067 0.491544 0
M  V30 731 H 73.0348 -0.784113 1.50498 0
M  V30 732 H 71.8068 -2.09612 3.30422 0
M  V30 733 H 71.4298 -3.35279 2.13714 0
M  V30 734 N 72.4269 -1.23603 -0.977757 0
M  V30 735 C 73.3749 -1.01704 -2.09187 0
M  V30 736 C 74.3689 0.0448214 -1.69341 0
M  V30 737 O 75.5749 -0.108902 -1.7967 0
M  V30 738 H 71.9499 -0.311803 -0.684312 0
M  V30 739 H 73.9209 -1.96207 -2.24823 0
M  V30 740 C 72.6699 -0.627746 -3.41986 0
M  V30 741 H 71.9929 -1.43656 -3.73099 0
M  V30 742 H 73.4329 -0.514053 -4.20872 0
M  V30 743 C 71.8919 0.664238 -3.30287 0
M  V30 744 O 72.4219 1.71268 -3.6336 0
M  V30 745 N 70.6279 0.641156 -2.83439 0
M  V30 746 H 70.1749 -0.212376 -2.56723 0
M  V30 747 H 70.1329 1.50583 -2.75993 0
M  V30 748 N 73.905 1.17692 -1.04816 0
M  V30 749 C 74.853 2.23632 -0.63966 0
M  V30 750 C 75.847 1.6601 0.337219 0
M  V30 751 O 77.053 1.78844 0.203693 0
M  V30 752 H 73.428 0.727949 -0.188665 0
M  V30 753 H 75.399 2.55387 -1.54337 0
M  V30 754 C 74.148 3.4769 -0.0264051 0
M  V30 755 H 73.471 3.92331 -0.769164 0
M  V30 756 H 74.911 4.23418 0.222098 0
M  V30 757 C 73.37 3.13807 1.22584 0
M  V30 758 O 73.9 3.28236 2.31569 0
M  V30 759 N 72.106 2.68065 1.12202 0
M  V30 760 H 71.653 2.56525 0.235133 0
M  V30 761 H 71.611 2.45767 1.96076 0
M  V30 762 N 75.3831 0.828654 1.34056 0
M  V30 763 C 76.6111 0.43262 2.02326 0
M  V30 764 C 77.0261 -0.963147 1.62385 0
M  V30 765 O 76.3831 -1.62425 0.832121 0
M  V30 766 C 76.4341 0.53182 3.57567 0
M  V30 767 O 76.1551 1.87258 3.96063 0
M  V30 768 C 77.6561 0.131422 4.43105 0
M  V30 769 H 74.8761 0.172923 0.648335 0
M  V30 770 H 77.4201 1.1184 1.71208 0
M  V30 771 H 75.5751 -0.105938 3.87255 0
M  V30 772 H 75.9891 1.85087 4.90758 0
M  V30 773 H 77.4631 0.251904 5.51425 0
M  V30 774 H 77.9401 -0.925645 4.29335 0
M  V30 775 H 78.5461 0.743207 4.18756 0
M  V30 776 N 76.8612 -1.46375 0.584142 0
M  V30 777 C 77.8082 -2.30323 -0.148286 0
M  V30 778 C 78.7782 -1.40703 -0.882713 0
M  V30 779 O 79.9632 -1.69651 -0.873099 0
M  V30 780 C 77.1032 -3.25196 -1.15507 0
M  V30 781 C 76.2162 -4.29915 -0.423943 0
M  V30 782 C 75.3512 -5.11914 -1.41838 0
M  V30 783 C 74.3902 -6.08381 -0.673736 0
M  V30 784 N 73.5272 -6.83242 -1.6163 0
M  V30 785 H 78.3672 -2.92427 0.573644 0
M  V30 786 H 75.9042 -1.44118 0.294703 0
M  V30 787 H 77.8622 -3.78646 -1.75166 0
M  V30 788 H 76.4922 -2.64898 -1.8447 0
M  V30 789 H 75.5442 -3.7931 0.287714 0
M  V30 790 H 76.8562 -4.98549 0.158128 0
M  V30 791 H 76.0102 -5.69648 -2.08773 0
M  V30 792 H 74.7492 -4.43243 -2.03438 0
M  V30 793 H 73.7542 -5.49799 0.00938483 0
M  V30 794 H 74.9792 -6.79071 -0.0631082 0
M  V30 795 H 72.9252 -6.1728 -2.22038 0
M  V30 796 H 72.8422 -7.48144 -1.08707 0
M  V30 797 H 74.1102 -7.45534 -2.27596 0
M  V30 798 N 78.3393 -0.321999 -1.54275 0
M  V30 799 C 79.3023 0.531975 -2.22941 0
M  V30 800 C 80.3023 1.04478 -1.22234 0
M  V30 801 O 81.4923 0.937452 -1.46825 0
M  V30 802 C 78.6243 1.73874 -2.93224 0
M  V30 803 H 79.8173 -0.0682612 -2.99822 0
M  V30 804 H 77.3703 -0.0730644 -1.56129 0
M  V30 805 H 78.1053 2.37825 -2.20476 0
M  V30 806 H 77.8903 1.37847 -3.6707 0
M  V30 807 H 79.3803 2.34496 -3.45545 0
M  V30 808 N 79.8174 1.5752 -0.0501392 0
M  V30 809 C 80.7654 2.12651 0.942459 0
M  V30 810 C 81.7594 1.05807 1.32292 0
M  V30 811 O 82.9654 1.24217 1.3027 0
M  V30 812 H 79.3404 0.679673 0.321789 0
M  V30 813 H 81.3114 2.94951 0.452356 0
M  V30 814 C 80.0604 2.68565 2.20836 0
M  V30 815 H 79.3834 3.50439 1.92439 0
M  V30 816 H 80.8234 3.10761 2.8845 0
M  V30 817 C 79.2824 1.62291 2.95234 0
M  V30 818 O 79.8124 1.03508 3.88135 0
M  V30 819 N 78.0184 1.33836 2.57946 0
M  V30 820 H 77.5654 1.81826 1.82475 0
M  V30 821 H 77.5234 0.629595 3.08032 0
M  V30 822 N 81.2955 -0.223234 1.56011 0
M  V30 823 C 82.5415 -0.949279 1.79211 0
M  V30 824 C 82.8745 -1.84054 0.619494 0
M  V30 825 O 82.1495 -1.90726 -0.381317 0
M  V30 826 C 82.4325 -1.78965 3.12479 0
M  V30 827 C 82.2855 -0.924997 4.40186 0
M  V30 828 C 83.6045 -2.76774 3.42175 0
M  V30 829 H 80.7235 -0.343676 0.651963 0
M  V30 830 H 83.3655 -0.218253 1.88742 0
M  V30 831 H 81.5155 -2.41291 3.04485 0
M  V30 832 H 83.1875 -0.318615 4.60198 0
M  V30 833 H 81.4305 -0.230344 4.33188 0
M  V30 834 H 82.1015 -1.54735 5.29869 0
M  V30 835 H 84.5775 -2.24584 3.50287 0
M  V30 836 H 83.4535 -3.32678 4.36597 0
M  V30 837 H 83.7145 -3.54429 2.64258 0
M  V30 838 N 82.7736 -1.49793 -0.48987 0
M  V30 839 C 84.0016 -1.63568 -1.26701 0
M  V30 840 C 84.4166 -0.311465 -1.86213 0
M  V30 841 O 83.7736 0.704416 -1.68357 0
M  V30 842 C 83.8246 -2.71284 -2.38929 0
M  V30 843 O 83.5456 -3.9857 -1.81861 0
M  V30 844 C 85.0466 -2.95864 -3.3012 0
M  V30 845 H 82.2666 -0.550342 -0.383881 0
M  V30 846 H 84.8106 -1.95898 -0.586864 0
M  V30 847 H 82.9656 -2.417 -3.02753 0
M  V30 848 H 83.3796 -4.57993 -2.55622 0
M  V30 849 H 84.8536 -3.74941 -4.05121 0
M  V30 850 H 85.3306 -2.06206 -3.87783 0
M  V30 851 H 85.9366 -3.26907 -2.72051 0
M  V30 852 N 84.2517 0.741722 -1.39055 0
M  V30 853 C 85.1987 1.85566 -1.37237 0
M  V30 854 C 86.1687 1.64457 -0.233072 0
M  V30 855 O 87.3537 1.85957 -0.427147 0
M  V30 856 C 84.4937 3.23004 -1.215 0
M  V30 857 C 83.6067 3.55864 -2.44918 0
M  V30 858 C 82.7417 4.82669 -2.21821 0
M  V30 859 C 81.7807 5.08351 -3.40948 0
M  V30 860 N 80.9177 6.26356 -3.17211 0
M  V30 861 H 85.7577 1.86455 -2.32462 0
M  V30 862 H 83.2947 0.911176 -1.15482 0
M  V30 863 H 85.2527 4.02331 -1.10389 0
M  V30 864 H 83.8827 3.21411 -0.29908 0
M  V30 865 H 82.9347 2.7129 -2.66657 0
M  V30 866 H 84.2467 3.70765 -3.33668 0
M  V30 867 H 83.4007 5.69962 -2.07914 0
M  V30 868 H 82.1397 4.69929 -1.30454 0
M  V30 869 H 81.1447 4.19522 -3.55361 0
M  V30 870 H 82.3697 5.22981 -4.33207 0
M  V30 871 H 80.3157 6.14917 -2.28502 0
M  V30 872 H 80.2327 6.41813 -3.99515 0
M  V30 873 H 81.5007 7.16506 -3.06984 0
M  V30 874 N 85.7298 1.2412 0.971189 0
M  V30 875 C 87.1408 1.07236 1.52831 0
M  V30 876 C 87.4918 -0.357352 1.92918 0
M  V30 877 O 86.6168 -1.24528 1.76979 0
M  V30 878 C 87.2118 1.94043 2.77728 0
M  V30 879 C 85.7708 1.81394 3.29808 0
M  V30 880 C 84.9178 1.89189 2.02738 0
M  V30 881 H 87.8688 1.37648 0.789864 0
M  V30 882 H 87.8898 1.47066 3.5093 0
M  V30 883 H 87.4018 2.98093 2.4852 0
M  V30 884 H 85.5028 0.801634 3.63874 0
M  V30 885 H 85.6158 2.65294 3.98944 0
M  V30 886 H 83.9798 1.32877 2.17292 0
M  V30 887 H 84.7628 2.94812 1.759 0
M  V30 888 N 87.2079 -1.17134 1.05439 0
M  V30 889 C 88.1549 -2.21235 0.657539 0
M  V30 890 C 89.1249 -1.62551 -0.341543 0
M  V30 891 O 90.3099 -1.89379 -0.232393 0
M  V30 892 C 87.4499 -3.45076 0.0410575 0
M  V30 893 C 86.5629 -4.18042 1.08927 0
M  V30 894 C 85.6979 -5.29376 0.439848 0
M  V30 895 C 84.7369 -5.94132 1.4722 0
M  V30 896 N 83.8739 -6.96975 0.846756 0
M  V30 897 H 88.7139 -2.54534 1.54972 0
M  V30 898 H 86.2509 -1.25028 0.775006 0
M  V30 899 H 88.2089 -4.15862 -0.33383 0
M  V30 900 H 86.8389 -3.12353 -0.814568 0
M  V30 901 H 85.8909 -3.45945 1.58196 0
M  V30 902 H 87.2029 -4.62306 1.87282 0
M  V30 903 H 86.3569 -6.06699 0.0115125 0
M  V30 904 H 85.0959 -4.86251 -0.375656 0
M  V30 905 H 84.1009 -5.15538 1.91052 0
M  V30 906 H 85.3259 -6.39337 2.28965 0
M  V30 907 H 83.2719 -6.5598 0.0518075 0
M  V30 908 H 83.1889 -7.39565 1.5678 0
M  V30 909 H 84.4569 -7.78239 0.443277 0
M  V30 910 N 88.686 -0.835752 -1.33615 0
M  V30 911 C 90.102 -0.523139 -1.50783 0
M  V30 912 C 90.302 0.950171 -1.77691 0
M  V30 913 O 89.358 1.73411 -1.83534 0
M  V30 914 C 90.671 -1.39378 -2.66448 0
M  V30 915 C 92.219 -1.39223 -2.80332 0
M  V30 916 C 92.694 -2.24765 -3.99055 0
M  V30 917 N 94.185 -2.22458 -4.06284 0
M  V30 918 C 94.92 -2.85386 -4.97336 0
M  V30 919 N 94.416 -3.57354 -5.93523 0
M  V30 920 N 96.209 -2.74872 -4.90308 0
M  V30 921 H 88.36 -1.78952 -1.14411 0
M  V30 922 H 90.623 -0.763297 -0.562212 0
M  V30 923 H 90.329 -2.44061 -2.53234 0
M  V30 924 H 90.203 -1.0676 -3.61776 0
M  V30 925 H 92.59 -0.353136 -2.92979 0
M  V30 926 H 92.671 -1.75846 -1.85773 0
M  V30 927 H 92.315 -3.28732 -3.87167 0
M  V30 928 H 92.245 -1.85485 -4.92852 0
M  V30 929 H 94.736 -1.70119 -3.37443 0
M  V30 930 H 95.049 -4.02584 -6.59656 0
M  V30 931 H 93.394 -3.61461 -5.93608 0
M  V30 932 H 96.585 -2.18213 -4.14126 0
M  V30 933 H 96.758 -3.24199 -5.61069 0
M  V30 934 N 90.1641 1.46063 -0.591896 0
M  V30 935 C 91.4041 2.04228 -0.0838014 0
M  V30 936 C 91.7681 1.45231 1.25587 0
M  V30 937 O 92.9691 1.94653 1.85375 0
M  V30 938 C 91.2401 3.57389 -0.0286282 0
M  V30 939 S 92.7991 4.3678 0.420557 0
M  V30 940 H 89.6171 0.709762 -0.0419319 0
M  V30 941 H 92.2191 1.78983 -0.786465 0
M  V30 942 H 90.9231 3.97843 -1.00743 0
M  V30 943 H 90.4541 3.87185 0.69652 0
M  V30 944 H 92.4691 4.67131 1.67341 0
M  V30 945 N 91.6422 0.330177 1.54103 0
M  V30 946 C 92.8672 -0.274893 2.0557 0
M  V30 947 C 93.2922 -1.44487 1.20437 0
M  V30 948 O 92.6502 -1.80021 0.214991 0
M  V30 949 C 92.6982 -0.68079 3.54115 0
M  V30 950 O 91.8022 -1.7824 3.71893 0
M  V30 951 H 91.1432 -0.0483849 0.662235 0
M  V30 952 H 93.6732 0.480508 1.98878 0
M  V30 953 H 93.6832 -0.961635 3.96505 0
M  V30 954 H 92.3582 0.174903 4.15532 0
M  V30 955 H 90.9352 -1.49985 3.41407 0
M  V30 956 N 93.1203 -1.57491 0.0584922 0
M  V30 957 C 94.3683 -1.92597 -0.612436 0
M  V30 958 C 94.6893 -0.938162 -1.70949 0
M  V30 959 O 93.9593 0.0158301 -1.95894 0
M  V30 960 H 92.5393 -0.710964 -0.229214 0
M  V30 961 H 95.2013 -1.94571 0.113218 0
M  V30 962 H 94.2973 -2.94038 -1.04633 0
M  V30 963 N 94.5984 0.214957 -1.56127 0
M  V30 964 C 95.8234 0.95924 -1.83884 0
M  V30 965 C 96.2484 1.7689 -0.639644 0
M  V30 966 O 95.6064 1.76566 0.411601 0
M  V30 967 C 95.6544 1.84723 -3.09693 0
M  V30 968 O 94.7584 2.94346 -2.8885 0
M  V30 969 H 94.0994 0.27125 -0.606069 0
M  V30 970 H 96.6294 0.226276 -2.03345 0
M  V30 971 H 96.6394 2.25576 -3.39969 0
M  V30 972 H 95.3144 1.25218 -3.96602 0
M  V30 973 H 93.8914 2.57391 -2.69823 0
M  V30 974 N 96.0765 1.50051 0.48192 0
M  V30 975 C 97.3255 1.59741 1.23149 0
M  V30 976 C 97.6385 0.298163 1.93314 0
M  V30 977 O 98.8445 0.273835 2.70116 0
M  V30 978 C 97.3005 2.81926 2.23708 0
M  V30 979 C 96.9085 4.18685 1.59396 0
M  V30 980 C 98.6525 3.00956 2.99375 0
M  V30 981 C 96.5595 5.3207 2.58178 0
M  V30 982 H 95.4895 0.594838 0.46334 0
M  V30 983 H 98.1405 1.76467 0.503169 0
M  V30 984 H 96.5225 2.58736 2.99786 0
M  V30 985 H 97.6965 4.52088 0.891811 0
M  V30 986 H 96.0115 4.05171 0.960503 0
M  V30 987 H 98.6085 3.82836 3.73283 0
M  V30 988 H 98.9515 2.12258 3.58123 0
M  V30 989 H 99.4845 3.24277 2.30411 0
M  V30 990 H 96.2235 6.22888 2.04184 0
M  V30 991 H 95.7435 5.03098 3.26577 0
M  V30 992 H 97.4225 5.62196 3.20225 0
M  V30 993 N 97.5546 -0.734337 1.39446 0
M  V30 994 C 98.7946 -1.50655 1.38139 0
M  V30 995 C 99.1586 -1.91986 -0.0228701 0
M  V30 996 O 100.36 -2.68318 -0.160947 0
M  V30 997 C 98.6306 -2.71251 2.32718 0
M  V30 998 S 100.19 -3.60892 2.49605 0
M  V30 999 H 97.0076 -0.515315 0.489869 0
M  V30 1000 H 99.6096 -0.860392 1.75549 0
M  V30 1001 H 98.3136 -2.39027 3.33608 0
M  V30 1002 H 97.8446 -3.40795 1.96526 0
M  V30 1003 H 99.8596 -4.64899 1.73446 0
M  V30 1004 N 99.0327 -1.24633 -0.964593 0
M  V30 1005 C 100.263 -1.11339 -1.74032 0
M  V30 1006 C 100.671 0.336593 -1.86182 0
M  V30 1007 O 100.014 1.24389 -1.35178 0
M  V30 1008 C 100.076 -1.68284 -3.1768 0
M  V30 1009 C 99.7397 -3.17196 -3.28992 0
M  V30 1010 C 100.737 -4.14308 -3.14078 0
M  V30 1011 C 98.4217 -3.57215 -3.53133 0
M  V30 1012 C 100.416 -5.4942 -3.23135 0
M  V30 1013 C 98.1027 -4.92468 -3.61827 0
M  V30 1014 C 99.1007 -5.8838 -3.46841 0
M  V30 1015 O 98.7887 -7.21173 -3.55197 0
M  V30 1016 H 98.5207 -0.389551 -0.552472 0
M  V30 1017 H 101.075 -1.65282 -1.21946 0
M  V30 1018 H 99.3047 -1.08777 -3.71085 0
M  V30 1019 H 100.994 -1.50234 -3.77074 0
M  V30 1020 H 101.76 -3.84731 -2.95308 0
M  V30 1021 H 97.6387 -2.83063 -3.63863 0
M  V30 1022 H 101.183 -6.24263 -3.11355 0
M  V30 1023 H 97.0797 -5.21714 -3.80111 0
M  V30 1024 H 97.8477 -7.29135 -3.71892 0
M  V30 1025 N 100.511 1.16574 -1.06058 0
M  V30 1026 C 101.759 1.86677 -0.77434 0
M  V30 1027 C 102.08 1.81959 0.701147 0
M  V30 1028 O 101.35 1.2515 1.50713 0
M  V30 1029 H 99.9298 0.691134 -0.283449 0
M  V30 1030 H 102.592 1.41378 -1.34158 0
M  V30 1031 H 101.688 2.92181 -1.09711 0
M  V30 1032 N 101.989 0.842826 1.3317 0
M  V30 1033 C 103.217 0.454055 2.01856 0
M  V30 1034 C 103.632 -0.94587 1.63397 0
M  V30 1035 O 102.989 -1.61534 0.849302 0
M  V30 1036 C 103.04 0.569715 3.56982 0
M  V30 1037 O 102.761 1.91448 3.94055 0
M  V30 1038 C 104.262 0.178412 4.42941 0
M  V30 1039 H 101.482 0.17979 0.646465 0
M  V30 1040 H 104.026 1.1365 1.70012 0
M  V30 1041 H 102.181 -0.0648587 3.87346 0
M  V30 1042 H 102.595 1.90282 4.88767 0
M  V30 1043 H 104.069 0.310376 5.51127 0
M  V30 1044 H 104.546 -0.880056 4.30293 0
M  V30 1045 H 105.152 0.787579 4.17944 0
M  V30 1046 N 103.467 -1.45747 0.599634 0
M  V30 1047 C 104.716 -2.01502 0.0893511 0
M  V30 1048 C 105.029 -1.4748 -1.28488 0
M  V30 1049 O 106.235 -1.95161 -1.88745 0
M  V30 1050 C 104.691 -3.59735 0.109082 0
M  V30 1051 C 104.299 -4.22754 1.48267 0
M  V30 1052 C 106.043 -4.23085 -0.346374 0
M  V30 1053 C 103.95 -5.73115 1.45921 0
M  V30 1054 H 102.88 -0.753417 0.0296347 0
M  V30 1055 H 105.531 -1.67303 0.753788 0
M  V30 1056 H 103.913 -3.91087 -0.621854 0
M  V30 1057 H 105.087 -4.02987 2.23468 0
M  V30 1058 H 103.402 -3.71567 1.87955 0
M  V30 1059 H 105.999 -5.33327 -0.38298 0
M  V30 1060 H 106.342 -3.93201 -1.36743 0
M  V30 1061 H 106.875 -3.9642 0.331038 0
M  V30 1062 H 103.614 -6.07685 2.45762 0
M  V30 1063 H 103.134 -5.95097 0.749665 0
M  V30 1064 H 104.813 -6.3616 1.17941 0
M  V30 1065 N 104.945 -0.338344 -1.53925 0
M  V30 1066 C 105.908 0.508299 -2.23493 0
M  V30 1067 C 106.908 1.03175 -1.23335 0
M  V30 1068 O 108.098 0.921826 -1.47811 0
M  V30 1069 C 105.23 1.70754 -2.95052 0
M  V30 1070 H 106.423 -0.100058 -2.99733 0
M  V30 1071 H 103.976 -0.0896198 -1.56043 0
M  V30 1072 H 104.711 2.35474 -2.22986 0
M  V30 1073 H 104.496 1.33946 -3.68512 0
M  V30 1074 H 105.986 2.30818 -3.48013 0
M  V30 1075 N 106.423 1.57458 -0.0668435 0
M  V30 1076 C 107.669 1.93587 0.6043 0
M  V30 1077 C 108.002 0.946722 1.69561 0
M  V30 1078 O 107.277 -0.0248516 1.94484 0
M  V30 1079 C 107.56 3.40014 1.18585 0
M  V30 1080 C 107.413 4.49685 0.101529 0
M  V30 1081 C 108.732 3.87154 2.09284 0
M  V30 1082 H 105.851 0.703958 0.218202 0
M  V30 1083 H 108.493 1.89542 -0.131804 0
M  V30 1084 H 106.643 3.43592 1.81319 0
M  V30 1085 H 108.315 4.5823 -0.531279 0
M  V30 1086 H 106.558 4.30059 -0.568487 0
M  V30 1087 H 107.229 5.49266 0.54874 0
M  V30 1088 H 109.705 3.85551 1.56491 0
M  V30 1089 H 108.581 4.90231 2.46911 0
M  V30 1090 H 108.842 3.2481 2.99918 0
M  V30 1091 N 107.901 -0.206675 1.56239 0
M  V30 1092 C 109.15 -0.926964 1.79138 0
M  V30 1093 C 109.463 -1.84901 0.638043 0
M  V30 1094 O 110.669 -2.60906 0.751033 0
M  V30 1095 C 109.125 -1.6986 3.17294 0
M  V30 1096 C 108.733 -0.821956 4.40395 0
M  V30 1097 C 110.477 -2.40922 3.4951 0
M  V30 1098 C 108.384 -1.59179 5.69575 0
M  V30 1099 H 107.314 -0.349864 0.667915 0
M  V30 1100 H 109.965 -0.180487 1.8261 0
M  V30 1101 H 108.347 -2.48853 3.08039 0
M  V30 1102 H 109.521 -0.0715019 4.60745 0
M  V30 1103 H 107.836 -0.222741 4.15804 0
M  V30 1104 H 110.433 -2.99047 4.43255 0
M  V30 1105 H 110.776 -3.14542 2.72707 0
M  V30 1106 H 111.309 -1.68905 3.60161 0
M  V30 1107 H 108.048 -0.898589 6.49312 0
M  V30 1108 H 107.568 -2.31648 5.53262 0
M  V30 1109 H 109.247 -2.14862 6.10281 0
M  V30 1110 N 109.379 -1.50304 -0.473955 0
M  V30 1111 C 110.625 -1.61389 -1.22806 0
M  V30 1112 C 110.958 -0.311955 -1.91678 0
M  V30 1113 O 110.233 0.686384 -1.81986 0
M  V30 1114 C 110.516 -2.79219 -2.27396 0
M  V30 1115 C 110.369 -4.19286 -1.62848 0
M  V30 1116 C 111.688 -2.92614 -3.28732 0
M  V30 1117 H 108.807 -0.587399 -0.445119 0
M  V30 1118 H 111.449 -1.82681 -0.522265 0
M  V30 1119 H 109.599 -2.61195 -2.87592 0
M  V30 1120 H 111.271 -4.48892 -1.06271 0
M  V30 1121 H 109.514 -4.23677 -0.931693 0
M  V30 1122 H 110.185 -4.97655 -2.38838 0
M  V30 1123 H 112.661 -3.09105 -2.78556 0
M  V30 1124 H 111.537 -3.76688 -3.99246 0
M  V30 1125 H 111.798 -2.03107 -3.92683 0
M  V30 1126 N 110.857 0.726932 -1.39834 0
M  V30 1127 C 112.104 1.48664 -1.37496 0
M  V30 1128 C 112.432 1.94482 0.0264678 0
M  V30 1129 O 111.687 1.67692 1.00886 0
M  V30 1130 C 111.986 2.73495 -2.30077 0
M  V30 1131 C 111.652 2.46502 -3.77555 0
M  V30 1132 C 110.314 2.3885 -4.17737 0
M  V30 1133 C 112.666 2.23604 -4.70798 0
M  V30 1134 C 109.994 2.06352 -5.49214 0
M  V30 1135 C 112.346 1.92622 -6.02561 0
M  V30 1136 C 111.01 1.83444 -6.41798 0
M  V30 1137 H 110.28 0.544001 -0.503135 0
M  V30 1138 H 112.927 0.833657 -1.72402 0
M  V30 1139 H 111.232 3.43575 -1.88317 0
M  V30 1140 H 112.929 3.31549 -2.25558 0
M  V30 1141 H 109.519 2.5334 -3.45712 0
M  V30 1142 H 113.703 2.28479 -4.40581 0
M  V30 1143 H 108.959 1.97776 -5.78528 0
M  V30 1144 H 113.133 1.73914 -6.74334 0
M  V30 1145 H 110.76 1.58029 -7.43593 0
M  V30 1146 N 112.336 1.25143 0.95797 0
M  V30 1147 C 113.583 1.09692 1.70217 0
M  V30 1148 C 113.911 -0.362654 1.91089 0
M  V30 1149 O 113.166 -1.28386 1.47701 0
M  V30 1150 C 113.465 1.79272 3.09187 0
M  V30 1151 C 113.131 3.29196 3.08125 0
M  V30 1152 C 111.793 3.70096 3.07543 0
M  V30 1153 C 114.145 4.24995 3.0171 0
M  V30 1154 C 111.473 5.05213 2.9829 0
M  V30 1155 C 113.825 5.60132 2.93999 0
M  V30 1156 C 112.489 6.00365 2.9175 0
M  V30 1157 H 111.759 0.401393 0.622868 0
M  V30 1158 H 114.406 1.55372 1.11945 0
M  V30 1159 H 112.711 1.26014 3.70982 0
M  V30 1160 H 114.408 1.64773 3.65583 0
M  V30 1161 H 110.998 2.96651 3.09348 0
M  V30 1162 H 115.182 3.9439 3.01281 0
M  V30 1163 H 110.438 5.35569 2.94916 0
M  V30 1164 H 114.612 6.3406 2.87996 0
M  V30 1165 H 112.239 7.05023 2.84336 0
M  V30 1166 N 113.814 -1.1601 1.06675 0
M  V30 1167 C 114.744 -2.22688 0.702307 0
M  V30 1168 C 115.725 -1.67306 -0.307032 0
M  V30 1169 O 116.91 -1.93352 -0.181305 0
M  V30 1170 C 114.04 -3.47178 0.092038 0
M  V30 1171 C 112.994 -4.15477 1.02777 0
M  V30 1172 C 112.32 -5.33963 0.28061 0
M  V30 1173 C 113.62 -4.66019 2.35846 0
M  V30 1174 H 115.314 -2.53429 1.59419 0
M  V30 1175 H 112.86 -1.21813 0.767961 0
M  V30 1176 H 114.813 -4.21037 -0.174814 0
M  V30 1177 H 113.537 -3.15749 -0.834877 0
M  V30 1178 H 112.196 -3.43549 1.27944 0
M  V30 1179 H 111.844 -4.98788 -0.649545 0
M  V30 1180 H 111.544 -5.806 0.904258 0
M  V30 1181 H 113.068 -6.10596 0.021396 0
M  V30 1182 H 114.482 -5.3144 2.15045 0
M  V30 1183 H 112.879 -5.23293 2.93743 0
M  V30 1184 H 113.949 -3.82023 2.98641 0
M  V30 1185 N 115.292 -0.849877 -1.32721 0
M  V30 1186 C 116.541 -0.447175 -1.96681 0
M  V30 1187 C 116.854 1.00135 -1.68025 0
M  V30 1188 O 118.06 1.50926 -2.25685 0
M  V30 1189 C 116.516 -0.7487 -3.52026 0
M  V30 1190 C 116.124 -2.21264 -3.89546 0
M  V30 1191 C 117.868 -0.413487 -4.22481 0
M  V30 1192 C 115.775 -2.45763 -5.37917 0
M  V30 1193 H 114.705 -0.163486 -0.736063 0
M  V30 1194 H 117.356 -1.03999 -1.51183 0
M  V30 1195 H 115.738 -0.0853727 -3.95908 0
M  V30 1196 H 116.912 -2.91736 -3.56689 0
M  V30 1197 H 115.227 -2.5119 -3.32103 0
M  V30 1198 H 117.824 -0.574017 -5.3161 0
M  V30 1199 H 118.167 0.644492 -4.11281 0
M  V30 1200 H 118.7 -1.03251 -3.84167 0
M  V30 1201 H 115.439 -3.50168 -5.54132 0
M  V30 1202 H 114.959 -1.79864 -5.72197 0
M  V30 1203 H 116.638 -2.29471 -6.0494 0
M  V30 1204 N 116.77 1.45427 -0.607355 0
M  V30 1205 C 118.018 2.01841 -0.102253 0
M  V30 1206 C 118.339 1.47832 1.27164 0
M  V30 1207 O 117.609 0.672497 1.83995 0
M  V30 1208 H 116.189 0.746188 -0.0348101 0
M  V30 1209 H 118.851 1.78229 -0.7887 0
M  V30 1210 H 117.947 3.12057 -0.0518585 0
M  V30 1211 N 118.248 0.346503 1.53744 0
M  V30 1212 C 119.495 -0.249104 2.00962 0
M  V30 1213 C 119.823 -1.5032 1.23426 0
M  V30 1214 O 119.078 -1.93217 0.310761 0
M  V30 1215 C 119.377 -0.605809 3.52228 0
M  V30 1216 C 119.043 0.551747 4.47512 0
M  V30 1217 C 117.705 0.86941 4.73281 0
M  V30 1218 C 120.057 1.32818 5.03993 0
M  V30 1219 C 117.385 1.96582 5.52786 0
M  V30 1220 C 119.737 2.41486 5.84694 0
M  V30 1221 C 118.401 2.73808 6.08757 0
M  V30 1222 H 117.671 -0.0911538 0.735372 0
M  V30 1223 H 120.318 0.475027 1.85515 0
M  V30 1224 H 118.623 -1.4107 3.65522 0
M  V30 1225 H 120.32 -1.07858 3.86222 0
M  V30 1226 H 116.91 0.294102 4.2759 0
M  V30 1227 H 121.094 1.09602 4.84047 0
M  V30 1228 H 116.35 2.22045 5.69654 0
M  V30 1229 H 120.524 3.02078 6.27473 0
M  V30 1230 H 118.151 3.58892 6.7015 0
M  V30 1231 N 119.726 -1.57421 0.075193 0
M  V30 1232 C 120.659 -2.08528 -0.926904 0
M  V30 1233 C 121.637 -0.991171 -1.28898 0
M  V30 1234 O 122.821 -1.26479 -1.39769 0
M  V30 1235 C 119.948 -2.54576 -2.23402 0
M  V30 1236 C 118.994 -3.75454 -2.02327 0
M  V30 1237 S 119.827 -5.19989 -1.27951 0
M  V30 1238 C 120.983 -5.69372 -2.59935 0
M  V30 1239 H 121.216 -2.932 -0.492048 0
M  V30 1240 H 118.749 -1.53785 -0.137651 0
M  V30 1241 H 120.707 -2.81767 -2.98526 0
M  V30 1242 H 119.368 -1.70166 -2.64012 0
M  V30 1243 H 118.561 -4.05675 -2.99071 0
M  V30 1244 H 118.163 -3.48654 -1.35339 0
M  V30 1245 H 120.455 -5.76424 -3.56008 0
M  V30 1246 H 121.398 -6.68207 -2.34319 0
M  V30 1247 H 121.806 -4.97205 -2.67296 0
M  V30 1248 N 121.204 0.198386 -1.56346 0
M  V30 1249 C 122.453 0.917451 -1.79627 0
M  V30 1250 C 122.766 1.8456 -0.64784 0
M  V30 1251 O 123.972 2.60504 -0.764859 0
M  V30 1252 C 122.428 1.68175 -3.18191 0
M  V30 1253 C 122.036 0.798589 -4.40825 0
M  V30 1254 C 123.78 2.39065 -3.50782 0
M  V30 1255 C 121.687 1.56157 -5.70411 0
M  V30 1256 H 120.617 0.346317 -0.669762 0
M  V30 1257 H 123.268 0.170801 -1.82703 0
M  V30 1258 H 121.65 2.47216 -3.09354 0
M  V30 1259 H 122.824 0.0470665 -4.60776 0
M  V30 1260 H 121.139 0.200686 -4.15916 0
M  V30 1261 H 123.736 2.96692 -4.44835 0
M  V30 1262 H 124.079 3.13091 -2.74371 0
M  V30 1263 H 124.612 1.66993 -3.61052 0
M  V30 1264 H 121.351 0.864142 -6.49779 0
M  V30 1265 H 120.871 2.2871 -5.54483 0
M  V30 1266 H 122.55 2.11622 -6.11412 0
M  V30 1267 N 122.682 1.50554 0.465978 0
M  V30 1268 C 123.93 1.61479 1.21528 0
M  V30 1269 C 124.251 0.319596 1.92363 0
M  V30 1270 O 123.521 -0.663194 1.84333 0
M  V30 1271 H 122.101 0.595055 0.451573 0
M  V30 1272 H 124.763 1.87355 0.53704 0
M  V30 1273 H 123.859 2.42846 1.96042 0
M  V30 1274 N 124.16 -0.719506 1.40217 0
M  V30 1275 C 125.39 -1.50646 1.41384 0
M  V30 1276 C 125.798 -1.89197 0.0107743 0
M  V30 1277 O 125.141 -1.55709 -0.974708 0
M  V30 1278 C 125.203 -2.81405 2.23722 0
M  V30 1279 C 124.867 -2.65199 3.72181 0
M  V30 1280 C 125.864 -2.32717 4.64907 0
M  V30 1281 C 123.549 -2.81586 4.1595 0
M  V30 1282 C 125.543 -2.16827 5.99387 0
M  V30 1283 C 123.23 -2.65313 5.50502 0
M  V30 1284 C 124.228 -2.32981 6.42035 0
M  V30 1285 O 123.916 -2.16827 7.74107 0
M  V30 1286 H 123.648 -0.471606 0.484318 0
M  V30 1287 H 126.202 -0.895456 1.84853 0
M  V30 1288 H 124.432 -3.44823 1.75026 0
M  V30 1289 H 126.121 -3.43102 2.16878 0
M  V30 1290 H 126.887 -2.19694 4.32388 0
M  V30 1291 H 122.766 -3.0574 3.45027 0
M  V30 1292 H 126.31 -1.91513 6.70797 0
M  V30 1293 H 122.207 -2.7792 5.82607 0
M  V30 1294 H 122.975 -2.31778 7.84998 0
M  V30 1295 N 125.638 -1.25649 -0.95132 0
M  V30 1296 C 126.568 -1.08808 -2.06599 0
M  V30 1297 C 127.549 0.00382547 -1.701 0
M  V30 1298 O 128.734 -0.166325 -1.93486 0
M  V30 1299 C 125.864 -0.709542 -3.39975 0
M  V30 1300 C 124.818 -1.75206 -3.90496 0
M  V30 1301 C 124.144 -1.22811 -5.20405 0
M  V30 1302 C 125.444 -3.15153 -4.16504 0
M  V30 1303 H 127.138 -2.02048 -2.20946 0
M  V30 1304 H 124.684 -0.972835 -1.06169 0
M  V30 1305 H 126.637 -0.578649 -4.17408 0
M  V30 1306 H 125.361 0.258556 -3.25575 0
M  V30 1307 H 124.02 -1.87145 -3.15234 0
M  V30 1308 H 123.668 -0.250145 -5.02378 0
M  V30 1309 H 123.368 -1.92492 -5.55176 0
M  V30 1310 H 124.892 -1.10968 -6.00432 0
M  V30 1311 H 126.306 -3.06349 -4.84586 0
M  V30 1312 H 124.703 -3.82333 -4.62538 0
M  V30 1313 H 125.773 -3.61966 -3.22658 0
M  V30 1314 N 127.117 1.15442 -1.07289 0
M  V30 1315 C 128.365 1.85845 -0.794096 0
M  V30 1316 C 128.686 1.82692 0.681809 0
M  V30 1317 O 127.956 1.26741 1.49377 0
M  V30 1318 H 126.536 0.688089 -0.290763 0
M  V30 1319 H 129.198 1.39947 -1.3565 0
M  V30 1320 H 128.294 2.91001 -1.12804 0
M  V30 1321 N 128.595 0.856903 1.32268 0
M  V30 1322 C 129.825 0.47475 2.01071 0
M  V30 1323 C 130.233 -0.933746 1.64553 0
M  V30 1324 O 129.576 -1.62114 0.863989 0
M  V30 1325 C 129.638 0.536746 3.55471 0
M  V30 1326 C 129.302 1.90453 4.15423 0
M  V30 1327 C 130.299 2.87029 4.33486 0
M  V30 1328 C 127.984 2.20229 4.51447 0
M  V30 1329 C 129.978 4.11532 4.86744 0
M  V30 1330 C 127.665 3.44984 5.0441 0
M  V30 1331 C 128.663 4.40452 5.22007 0
M  V30 1332 O 128.351 5.62998 5.73837 0
M  V30 1333 H 128.083 0.184778 0.650256 0
M  V30 1334 H 130.637 1.15615 1.69771 0
M  V30 1335 H 128.867 -0.20152 3.86175 0
M  V30 1336 H 130.556 0.169875 4.05544 0
M  V30 1337 H 131.322 2.6533 4.05986 0
M  V30 1338 H 127.201 1.46705 4.37034 0
M  V30 1339 H 130.745 4.86056 5.00395 0
M  V30 1340 H 126.642 3.66532 5.31342 0
M  V30 1341 H 127.41 5.64987 5.92226 0
M  V30 1342 N 130.073 -1.45103 0.615059 0
M  V30 1343 C 131.313 -2.04069 0.116282 0
M  V30 1344 C 131.677 -1.4721 -1.2326 0
M  V30 1345 O 132.878 -1.97577 -1.82255 0
M  V30 1346 C 131.149 -3.57298 0.085482 0
M  V30 1347 S 132.708 -4.37394 -0.351015 0
M  V30 1348 H 129.526 -0.709006 0.0532183 0
M  V30 1349 H 132.128 -1.77709 0.81484 0
M  V30 1350 H 130.832 -3.9619 1.0706 0
M  V30 1351 H 130.363 -3.88244 -0.634835 0
M  V30 1352 H 132.378 -4.69734 -1.59889 0
M  V30 1353 N 131.551 -0.354651 -1.53558 0
M  V30 1354 C 132.498 0.496968 -2.25386 0
M  V30 1355 C 133.468 1.0865 -1.25636 0
M  V30 1356 O 134.653 1.12104 -1.54394 0
M  V30 1357 C 131.793 1.63637 -3.03837 0
M  V30 1358 C 130.906 1.07307 -4.18461 0
M  V30 1359 C 130.041 2.18068 -4.84376 0
M  V30 1360 C 129.08 1.59147 -5.91049 0
M  V30 1361 N 128.217 2.63695 -6.50699 0
M  V30 1362 H 133.057 -0.122075 -2.9775 0
M  V30 1363 H 130.594 -0.0720154 -1.46924 0
M  V30 1364 H 132.552 2.30734 -3.47589 0
M  V30 1365 H 131.182 2.22623 -2.33749 0
M  V30 1366 H 130.234 0.292708 -3.79272 0
M  V30 1367 H 131.546 0.602193 -4.95152 0
M  V30 1368 H 130.7 2.93007 -5.31255 0
M  V30 1369 H 129.439 2.68504 -4.07133 0
M  V30 1370 H 128.444 0.827175 -5.43542 0
M  V30 1371 H 129.669 1.09549 -6.70206 0
M  V30 1372 H 127.615 3.13365 -5.76315 0
M  V30 1373 H 127.532 2.21263 -7.22896 0
M  V30 1374 H 128.8 3.3837 -7.02229 0
M  V30 1375 N 133.029 1.57378 -0.0835403 0
M  V30 1376 C 134.277 1.93547 0.581718 0
M  V30 1377 C 134.598 0.96524 1.69435 0
M  V30 1378 O 133.868 0.0153369 1.95894 0
M  V30 1379 H 132.448 0.714521 0.217874 0
M  V30 1380 H 135.11 1.94366 -0.144158 0
M  V30 1381 H 134.206 2.95665 0.999423 0
M  V30 1382 N 134.507 -0.190092 1.56449 0
M  V30 1383 C 135.753 -0.911052 1.81184 0
M  V30 1384 C 136.086 -1.82699 0.658396 0
M  V30 1385 O 135.361 -1.91491 -0.340775 0
M  V30 1386 C 135.644 -1.72297 3.16205 0
M  V30 1387 C 135.497 -0.831419 4.42049 0
M  V30 1388 C 136.816 -2.69454 3.47969 0
M  V30 1389 H 133.935 -0.32977 0.659106 0
M  V30 1390 H 136.577 -0.178169 1.89163 0
M  V30 1391 H 134.727 -2.34778 3.09534 0
M  V30 1392 H 136.399 -0.220929 4.60771 0
M  V30 1393 H 134.642 -0.138406 4.33579 0
M  V30 1394 H 135.313 -1.43461 5.33032 0
M  V30 1395 H 137.789 -2.17104 3.54972 0
M  V30 1396 H 136.665 -3.23342 4.43555 0
M  V30 1397 H 136.926 -3.48744 2.71717 0
M  V30 1398 N 135.985 -1.50799 -0.457987 0
M  V30 1399 C 136.895 -1.73426 -1.57989 0
M  V30 1400 C 137.911 -0.617745 -1.62665 0
M  V30 1401 O 139.087 -0.897614 -1.80291 0
M  V30 1402 C 136.152 -1.83557 -2.94122 0
M  V30 1403 C 135.213 -3.07345 -2.99729 0
M  V30 1404 C 134.446 -3.16983 -4.29368 0
M  V30 1405 O 134.669 -2.33077 -5.20607 0
M  V30 1406 O 133.603 -4.09812 -4.40837 0
M  V30 1407 H 137.429 -2.68555 -1.41817 0
M  V30 1408 H 135.014 -1.35052 -0.638859 0
M  V30 1409 H 136.896 -1.92326 -3.74952 0
M  V30 1410 H 135.571 -0.916137 -3.10465 0
M  V30 1411 H 134.478 -3.04068 -2.1793 0
M  V30 1412 H 135.811 -3.9891 -2.88326 0
M  V30 1413 N 137.463 0.71206 -1.40597 0
M  V30 1414 C 138.874 1.29135 -1.34837 0
M  V30 1415 C 139.225 1.96186 -0.0235395 0
M  V30 1416 O 138.35 1.97768 0.878444 0
M  V30 1417 C 138.945 2.34827 -2.44217 0
M  V30 1418 C 137.504 2.88371 -2.41907 0
M  V30 1419 C 136.651 1.62202 -2.24913 0
M  V30 1420 H 139.602 0.507944 -1.50352 0
M  V30 1421 H 139.623 3.15749 -2.12327 0
M  V30 1422 H 139.135 1.85996 -3.40627 0
M  V30 1423 H 137.236 3.41422 -1.49204 0
M  V30 1424 H 137.349 3.39925 -3.37621 0
M  V30 1425 H 135.713 1.874 -1.72492 0
M  V30 1426 H 136.496 1.15391 -3.23326 0
M  V30 1427 N 138.941 1.26152 0.944643 0
M  V30 1428 C 139.888 1.07408 2.04285 0
M  V30 1429 C 140.858 -0.0198413 1.66088 0
M  V30 1430 O 142.043 0.139264 1.90291 0
M  V30 1431 C 139.183 0.70945 3.37729 0
M  V30 1432 C 138.296 1.87926 3.88983 0
M  V30 1433 C 137.431 1.45807 5.10797 0
M  V30 1434 C 136.47 2.5964 5.54305 0
M  V30 1435 N 135.607 2.18226 6.67324 0
M  V30 1436 H 140.447 2.01389 2.1965 0
M  V30 1437 H 137.984 1.00275 1.07626 0
M  V30 1438 H 139.942 0.478948 4.14442 0
M  V30 1439 H 138.572 -0.193389 3.2222 0
M  V30 1440 H 137.624 2.22279 3.08701 0
M  V30 1441 H 138.936 2.73377 4.17213 0
M  V30 1442 H 138.09 1.18781 5.94959 0
M  V30 1443 H 136.829 0.574414 4.84305 0
M  V30 1444 H 135.834 2.87399 4.68702 0
M  V30 1445 H 137.059 3.48599 5.828 0
M  V30 1446 H 135.005 1.3229 6.42523 0
M  V30 1447 H 134.922 2.97221 6.95123 0
M  V30 1448 H 136.19 1.94403 7.54869 0
M  V30 1449 N 140.419 -1.14872 1.07899 0
M  V30 1450 C 141.647 -1.89661 0.82683 0
M  V30 1451 C 142.062 -1.78312 -0.620519 0
M  V30 1452 O 141.419 -1.13888 -1.42604 0
M  V30 1453 C 141.47 -3.39817 1.23316 0
M  V30 1454 O 141.191 -3.50845 2.62372 0
M  V30 1455 C 142.692 -4.31615 1.0111 0
M  V30 1456 H 139.912 -0.60092 0.298557 0
M  V30 1457 H 142.456 -1.4551 1.43691 0
M  V30 1458 H 140.611 -3.8161 0.667286 0
M  V30 1459 H 141.025 -4.44076 2.79101 0
M  V30 1460 H 142.499 -5.35367 1.34486 0
M  V30 1461 H 142.976 -4.39169 -0.0522168 0
M  V30 1462 H 143.582 -3.95572 1.56215 0
M  V30 1463 N 141.898 -0.863906 -1.31812 0
M  V30 1464 C 142.808 -0.318461 -2.32428 0
M  V30 1465 C 143.824 0.568496 -1.64451 0
M  V30 1466 O 145 0.46666 -1.95919 0
M  V30 1467 C 142.065 0.476355 -3.43412 0
M  V30 1468 C 141.126 -0.43784 -4.27061 0
M  V30 1469 C 140.359 0.319138 -5.32745 0
M  V30 1470 O 140.582 1.54799 -5.48993 0
M  V30 1471 O 139.516 -0.319861 -6.01049 0
M  V30 1472 H 143.342 -1.15229 -2.80991 0
M  V30 1473 H 140.927 -0.627103 -1.35602 0
M  V30 1474 H 142.809 0.927156 -4.11074 0
M  V30 1475 H 141.484 1.28683 -2.97022 0
M  V30 1476 H 140.391 -0.937013 -3.62175 0
M  V30 1477 H 141.724 -1.21375 -4.77 0
M  V30 1478 N 143.376 1.44774 -0.622745 0
M  V30 1479 C 144.616 2.04004 -0.127102 0
M  V30 1480 C 144.98 1.47862 1.22478 0
M  V30 1481 O 146.181 1.98541 1.81204 0
M  V30 1482 C 144.452 3.57247 -0.104429 0
M  V30 1483 S 146.011 4.37574 0.327814 0
M  V30 1484 H 142.829 0.708713 -0.0569776 0
M  V30 1485 H 145.431 1.77275 -0.824253 0
M  V30 1486 H 144.135 3.95616 -1.09159 0
M  V30 1487 H 143.666 3.88575 0.614236 0
M  V30 1488 H 145.681 4.70575 1.57395 0
M  V30 1489 N 144.854 0.36279 1.53368 0
M  V30 1490 C 145.764 -0.492994 2.29362 0
M  V30 1491 C 146.78 -1.09507 1.35219 0
M  V30 1492 O 147.956 -1.10662 1.68273 0
M  V30 1493 C 145.021 -1.61855 3.066 0
M  V30 1494 C 144.082 -1.04429 4.16405 0
M  V30 1495 C 143.315 -2.11621 4.89951 0
M  V30 1496 O 143.538 -3.32684 4.63333 0
M  V30 1497 O 142.472 -1.74835 5.75948 0
M  V30 1498 H 146.298 0.125331 3.03441 0
M  V30 1499 H 143.883 0.127253 1.48857 0
M  V30 1500 H 145.765 -2.27302 3.54841 0
M  V30 1501 H 144.44 -2.22233 2.3536 0
M  V30 1502 H 143.347 -0.353819 3.72423 0
M  V30 1503 H 144.68 -0.485113 4.89804 0
M  V30 1504 N 146.332 -1.57332 0.0918853 0
M  V30 1505 C 147.748 -1.57389 -0.264766 0
M  V30 1506 C 147.948 -1.10281 -1.68643 0
M  V30 1507 O 147.004 -0.777801 -2.40222 0
M  V30 1508 C 148.317 -3.00648 -0.0561195 0
M  V30 1509 C 149.865 -3.12754 -0.124116 0
M  V30 1510 C 150.34 -4.57965 0.0564972 0
M  V30 1511 N 151.831 -4.632 0.00155611 0
M  V30 1512 C 152.566 -5.73281 0.116598 0
M  V30 1513 N 152.062 -6.92208 0.286294 0
M  V30 1514 N 153.855 -5.6207 0.0580973 0
M  V30 1515 H 146.006 -1.86262 1.02079 0
M  V30 1516 H 148.269 -0.859579 0.399786 0
M  V30 1517 H 147.975 -3.393 0.925669 0
M  V30 1518 H 147.849 -3.68623 -0.799823 0
M  V30 1519 H 150.236 -2.73976 -1.09641 0
M  V30 1520 H 150.317 -2.47377 0.651024 0
M  V30 1521 H 149.961 -4.97436 1.02564 0
M  V30 1522 H 149.891 -5.21399 -0.738297 0
M  V30 1523 H 152.382 -3.77686 -0.127192 0
M  V30 1524 H 152.695 -7.71934 0.365676 0
M  V30 1525 H 151.04 -6.94254 0.32192 0
M  V30 1526 H 154.231 -4.68043 -0.0733204 0
M  V30 1527 H 154.404 -6.47824 0.151203 0
M  V30 1528 N 147.81 0.181792 -1.56548 0
M  V30 1529 C 148.74 1.22765 -1.98623 0
M  V30 1530 C 149.721 1.46747 -0.860189 0
M  V30 1531 O 150.906 1.58259 -1.12551 0
M  V30 1532 C 148.036 2.56894 -2.33715 0
M  V30 1533 C 146.99 2.475 -3.49182 0
M  V30 1534 C 146.316 3.86023 -3.69986 0
M  V30 1535 C 147.616 1.98866 -4.82959 0
M  V30 1536 H 149.31 0.877942 -2.86239 0
M  V30 1537 H 146.856 0.42088 -1.37712 0
M  V30 1538 H 148.809 3.30253 -2.61746 0
M  V30 1539 H 147.533 2.93632 -1.42997 0
M  V30 1540 H 146.192 1.76596 -3.21262 0
M  V30 1541 H 145.84 4.20136 -2.76576 0
M  V30 1542 H 145.54 3.80609 -4.47672 0
M  V30 1543 H 147.064 4.60984 -4.00407 0
M  V30 1544 H 148.478 2.61992 -5.09934 0
M  V30 1545 H 146.875 2.04424 -5.64208 0
M  V30 1546 H 147.945 0.942465 -4.75653 0
M  V30 1547 N 149.288 1.51039 0.449983 0
M  V30 1548 C 150.251 1.70863 1.5277 0
M  V30 1549 C 151.251 0.578846 1.5002 0
M  V30 1550 O 152.441 0.846213 1.52266 0
M  V30 1551 C 149.573 1.75341 2.9235 0
M  V30 1552 H 150.766 2.67034 1.36502 0
M  V30 1553 H 148.319 1.40838 0.677812 0
M  V30 1554 H 149.054 0.809383 3.14037 0
M  V30 1555 H 148.839 2.57436 2.95752 0
M  V30 1556 H 150.329 1.92559 3.70555 0
M  V30 1557 N 150.766 -0.704594 1.40972 0
M  V30 1558 C 152.014 -1.46169 1.39568 0
M  V30 1559 C 152.335 -1.95 0.00253745 0
M  V30 1560 O 151.605 -1.71095 -0.954114 0
M  V30 1561 H 150.185 -0.542326 0.513704 0
M  V30 1562 H 152.847 -0.834553 1.76128 0
M  V30 1563 H 151.943 -2.32922 2.07735 0
M  V30 1564 N 152.244 -1.26651 -0.937939 0
M  V30 1565 C 153.472 -1.15173 -1.7188 0
M  V30 1566 C 153.887 0.292668 -1.86518 0
M  V30 1567 O 153.244 1.20014 -1.37488 0
M  V30 1568 C 153.295 -1.81925 -3.12387 0
M  V30 1569 O 153.016 -3.2072 -2.98446 0
M  V30 1570 C 154.517 -1.76442 -4.06673 0
M  V30 1571 H 151.737 -0.400911 -0.538063 0
M  V30 1572 H 154.281 -1.67332 -1.1756 0
M  V30 1573 H 152.436 -1.33696 -3.63599 0
M  V30 1574 H 152.85 -3.53802 -3.872 0
M  V30 1575 H 154.324 -2.27781 -5.02812 0
M  V30 1576 H 154.801 -0.731608 -4.33064 0
M  V30 1577 H 155.407 -2.24238 -3.61382 0
M  V30 1578 N 153.722 1.14298 -1.08507 0
M  V30 1579 C 154.632 2.23027 -0.727753 0
M  V30 1580 C 155.648 1.71952 0.26619 0
M  V30 1581 O 156.824 2.011 0.109882 0
M  V30 1582 C 153.889 3.46403 -0.143541 0
M  V30 1583 C 152.95 4.12413 -1.19223 0
M  V30 1584 C 152.183 5.29899 -0.635798 0
M  V30 1585 O 152.406 5.67796 0.544393 0
M  V30 1586 O 151.34 5.85717 -1.38634 0
M  V30 1587 H 155.166 2.55945 -1.63481 0
M  V30 1588 H 152.751 1.22248 -0.858817 0
M  V30 1589 H 154.633 4.21018 0.179404 0
M  V30 1590 H 153.308 3.15206 0.736659 0
M  V30 1591 H 152.215 3.39667 -1.56772 0
M  V30 1592 H 153.548 4.47718 -2.04474 0
M  V30 1593 N 155.201 0.870884 1.31352 0
M  V30 1594 C 156.426 0.495957 2.01383 0
M  V30 1595 C 156.851 -0.904324 1.64935 0
M  V30 1596 O 156.209 -1.59687 0.858466 0
M  V30 1597 C 156.257 0.661433 3.54482 0
M  V30 1598 O 155.361 -0.298851 4.11316 0
M  V30 1599 H 154.702 0.197158 0.634054 0
M  V30 1600 H 157.232 1.17455 1.67527 0
M  V30 1601 H 157.242 0.555072 4.04207 0
M  V30 1602 H 155.917 1.68246 3.8035 0
M  V30 1603 H 154.494 -0.147368 3.72609 0
M  V30 1604 N 156.679 -1.44442 0.630414 0
M  V30 1605 C 158.09 -1.85434 0.217063 0
M  V30 1606 C 158.441 -1.52748 -1.23136 0
M  V30 1607 O 157.566 -0.965205 -1.93682 0
M  V30 1608 C 158.161 -3.36581 0.387168 0
M  V30 1609 C 156.72 -3.76389 0.0283297 0
M  V30 1610 C 155.867 -2.68296 0.700889 0
M  V30 1611 H 158.818 -1.34919 0.83562 0
M  V30 1612 H 158.839 -3.78657 -0.374086 0
M  V30 1613 H 158.351 -3.60339 1.44144 0
M  V30 1614 H 156.452 -3.58246 -1.02423 0
M  V30 1615 H 156.565 -4.77095 0.437892 0
M  V30 1616 H 154.929 -2.54335 0.136267 0
M  V30 1617 H 155.712 -2.94887 1.75774 0
M  V30 1618 N 158.157 -0.370918 -1.53173 0
M  V30 1619 C 159.403 0.217423 -2.01631 0
M  V30 1620 C 159.736 1.47983 -1.25756 0
M  V30 1621 O 159.011 1.91274 -0.352764 0
M  V30 1622 C 159.294 0.503982 -3.56556 0
M  V30 1623 C 159.147 -0.77243 -4.43118 0
M  V30 1624 C 160.466 1.30234 -4.20389 0
M  V30 1625 H 157.585 0.0775486 -0.732909 0
M  V30 1626 H 160.227 -0.496863 -1.83388 0
M  V30 1627 H 158.377 1.11248 -3.72231 0
M  V30 1628 H 160.049 -1.4098 -4.39229 0
M  V30 1629 H 158.292 -1.39167 -4.10871 0
M  V30 1630 H 158.963 -0.526815 -5.4948 0
M  V30 1631 H 161.439 0.787546 -4.08579 0
M  V30 1632 H 160.315 1.47158 -5.28806 0
M  V30 1633 H 160.576 2.31237 -3.76805 0
M  V30 1634 N 159.635 1.57281 -0.100228 0
M  V30 1635 C 161.051 1.57527 0.256416 0
M  V30 1636 C 161.251 1.11173 1.68056 0
M  V30 1637 O 160.307 0.79053 2.39806 0
M  V30 1638 C 161.62 3.00673 0.0401747 0
M  V30 1639 C 163.168 3.12815 0.107528 0
M  V30 1640 C 163.643 4.57929 -0.0807834 0
M  V30 1641 N 165.134 4.63193 -0.0261207 0
M  V30 1642 C 165.869 5.73212 -0.146999 0
M  V30 1643 N 165.365 6.92047 -0.322999 0
M  V30 1644 N 167.158 5.62031 -0.0879044 0
M  V30 1645 H 159.309 1.85718 -1.03065 0
M  V30 1646 H 161.572 0.857446 -0.404339 0
M  V30 1647 H 161.278 3.38804 -0.943649 0
M  V30 1648 H 161.152 3.69042 0.780262 0
M  V30 1649 H 163.539 2.74554 1.08186 0
M  V30 1650 H 163.62 2.47028 -0.664134 0
M  V30 1651 H 163.264 4.96886 -1.05201 0
M  V30 1652 H 163.194 5.21783 0.710635 0
M  V30 1653 H 165.685 3.77748 0.107161 0
M  V30 1654 H 165.998 7.7173 -0.406608 0
M  V30 1655 H 164.343 6.94074 -0.358733 0
M  V30 1656 H 167.534 4.68075 0.048498 0
M  V30 1657 H 167.707 6.47734 -0.185557 0
M  V30 1658 N 161.113 -0.173488 1.56642 0
M  V30 1659 C 162.023 -1.23482 1.99473 0
M  V30 1660 C 163.039 -1.48567 0.905752 0
M  V30 1661 O 164.215 -1.60758 1.21321 0
M  V30 1662 C 161.28 -2.55444 2.34413 0
M  V30 1663 C 160.341 -2.38241 3.57127 0
M  V30 1664 C 159.574 -3.63909 3.90392 0
M  V30 1665 O 159.797 -4.68996 3.24653 0
M  V30 1666 O 158.731 -3.58149 4.83749 0
M  V30 1667 H 162.557 -0.901279 2.90018 0
M  V30 1668 H 160.142 -0.380185 1.44482 0
M  V30 1669 H 162.024 -3.33292 2.57865 0
M  V30 1670 H 160.699 -2.88382 1.4703 0
M  V30 1671 H 159.606 -1.58431 3.38896 0
M  V30 1672 H 160.939 -2.10228 4.45045 0
M  V30 1673 N 162.591 -1.51276 -0.441967 0
M  V30 1674 C 163.501 -1.75092 -1.56141 0
M  V30 1675 C 164.517 -0.634963 -1.62001 0
M  V30 1676 O 165.693 -0.916686 -1.79329 0
M  V30 1677 C 162.758 -1.86666 -2.92158 0
M  V30 1678 C 161.819 -3.10506 -2.96453 0
M  V30 1679 C 161.052 -3.21519 -4.25982 0
M  V30 1680 O 161.275 -2.38586 -5.18105 0
M  V30 1681 O 160.209 -4.14465 -4.36466 0
M  V30 1682 H 164.035 -2.70044 -1.38961 0
M  V30 1683 H 161.62 -1.35722 -0.624499 0
M  V30 1684 H 163.502 -1.96292 -3.72891 0
M  V30 1685 H 162.177 -0.949014 -3.09476 0
M  V30 1686 H 161.084 -3.06363 -2.14692 0
M  V30 1687 H 162.417 -4.01945 -2.84079 0
M  V30 1688 N 164.069 0.697108 -1.41344 0
M  V30 1689 C 165.48 1.27697 -1.36199 0
M  V30 1690 C 165.831 1.9615 -0.0443463 0
M  V30 1691 O 164.956 1.98689 0.857419 0
M  V30 1692 C 165.551 2.32223 -2.46694 0
M  V30 1693 C 164.11 2.8579 -2.44952 0
M  V30 1694 C 163.257 1.59807 -2.26621 0
M  V30 1695 H 166.208 0.491968 -1.50882 0
M  V30 1696 H 166.229 3.1348 -2.15664 0
M  V30 1697 H 165.741 1.82373 -3.42581 0
M  V30 1698 H 163.842 3.3982 -1.52817 0
M  V30 1699 H 163.955 3.36325 -3.41207 0
M  V30 1700 H 162.319 1.8556 -1.7447 0
M  V30 1701 H 163.102 1.11956 -3.24532 0
M  V30 1702 N 165.547 1.27147 0.931209 0
M  V30 1703 C 166.795 1.13055 1.6752 0
M  V30 1704 C 167.116 -0.324791 1.92276 0
M  V30 1705 O 166.386 -1.22775 1.52654 0
M  V30 1706 H 164.966 0.415391 0.620854 0
M  V30 1707 H 167.628 1.59623 1.11833 0
M  V30 1708 H 166.724 1.65694 2.64485 0
M  V30 1709 N 167.025 -1.13721 1.09112 0
M  V30 1710 C 167.935 -2.22638 0.73957 0
M  V30 1711 C 168.951 -1.72091 -0.257068 0
M  V30 1712 O 170.127 -2.01155 -0.0992154 0
M  V30 1713 C 167.192 -3.46322 0.16191 0
M  V30 1714 C 166.253 -4.11775 1.21408 0
M  V30 1715 C 165.486 -5.29555 0.663891 0
M  V30 1716 O 165.709 -5.68077 -0.514274 0
M  V30 1717 O 164.643 -5.84973 1.41738 0
M  V30 1718 H 168.469 -2.55074 1.64836 0
M  V30 1719 H 166.054 -1.21791 0.865289 0
M  V30 1720 H 167.936 -4.21107 -0.157073 0
M  V30 1721 H 166.611 -3.15593 -0.719932 0
M  V30 1722 H 165.518 -3.3883 1.58571 0
M  V30 1723 H 166.851 -4.46627 2.06845 0
M  V30 1724 N 168.503 -0.877838 -1.30888 0
M  V30 1725 C 169.78 -0.413052 -1.91189 0
M  V30 1726 C 170.16 1.1056 -1.79832 0
M  V30 1727 O 169.508 1.93771 -1.21099 0
M  V30 1728 C 169.718 -0.903191 -3.3711 0
M  V30 1729 C 171.066 -0.93395 -4.14201 0
M  V30 1730 O 172.09 -0.849373 -3.45925 0
M  V30 1731 O 170.949 -1.05772 -5.36167 0
M  V30 1732 H 168.043 -0.125035 -0.817493 0
M  V30 1733 H 170.589 -0.966269 -1.39504 0
M  V30 1734 H 169.361 -1.94692 -3.39427 0
M  V30 1735 H 168.984 -0.328732 -3.96239 0
M  V30 1736 N 169.982 1.44106 -0.638065 0
M  V30 1737 C 171.229 2.01978 -0.14533 0
M  V30 1738 C 171.557 1.50234 1.23532 0
M  V30 1739 O 170.812 0.679548 1.83523 0
M  V30 1740 C 171.111 3.5729 -0.0887327 0
M  V30 1741 C 170.777 4.28317 -1.40909 0
M  V30 1742 C 169.439 4.47437 -1.77069 0
M  V30 1743 C 171.791 4.6867 -2.28031 0
M  V30 1744 C 169.119 5.04171 -3.00047 0
M  V30 1745 C 171.471 5.26766 -3.50286 0
M  V30 1746 C 170.135 5.44104 -3.86661 0
M  V30 1747 H 169.405 0.739089 -0.0531801 0
M  V30 1748 H 172.052 1.72781 -0.825761 0
M  V30 1749 H 170.357 3.8594 0.675095 0
M  V30 1750 H 172.054 3.99807 0.309145 0
M  V30 1751 H 168.644 4.1377 -1.1177 0
M  V30 1752 H 172.828 4.53604 -2.01388 0
M  V30 1753 H 168.084 5.15782 -3.28298 0
M  V30 1754 H 172.258 5.56983 -4.18023 0
M  V30 1755 H 169.885 5.87832 -4.82034 0
M  V30 1756 N 171.46 0.379036 1.52974 0
M  V30 1757 C 172.871 -0.0972525 1.86447 0
M  V30 1758 C 173.222 -1.47027 1.29914 0
M  V30 1759 O 172.347 -2.07135 0.626433 0
M  V30 1760 C 172.942 -0.183248 3.38304 0
M  V30 1761 C 171.501 -0.603812 3.71525 0
M  V30 1762 C 170.648 0.240632 2.76254 0
M  V30 1763 H 173.599 0.597316 1.4703 0
M  V30 1764 H 173.62 -1.00432 3.67006 0
M  V30 1765 H 173.132 0.816191 3.79421 0
M  V30 1766 H 171.233 -1.61099 3.35973 0
M  V30 1767 H 171.346 -0.369086 4.77676 0
M  V30 1768 H 169.71 -0.292548 2.53014 0
M  V30 1769 H 170.493 1.23786 3.20206 0
M  V30 1770 N 172.938 -1.57226 0.108567 0
M  V30 1771 C 173.901 -2.13602 -0.831082 0
M  V30 1772 C 174.901 -1.06841 -1.20173 0
M  V30 1773 O 176.091 -1.32666 -1.12895 0
M  V30 1774 C 173.223 -2.66769 -2.12243 0
M  V30 1775 H 174.416 -2.97951 -0.341317 0
M  V30 1776 H 171.969 -1.55667 -0.14057 0
M  V30 1777 H 172.704 -1.85977 -2.65675 0
M  V30 1778 H 172.489 -3.44839 -1.86625 0
M  V30 1779 H 173.979 -3.10332 -2.79435 0
M  V30 1780 N 174.416 0.165178 -1.56732 0
M  V30 1781 C 175.379 1.18822 -1.95995 0
M  V30 1782 C 176.379 1.3685 -0.84431 0
M  V30 1783 O 177.569 1.34152 -1.11126 0
M  V30 1784 C 174.701 2.5521 -2.26011 0
M  V30 1785 H 175.894 0.851825 -2.87548 0
M  V30 1786 H 173.447 0.407857 -1.50885 0
M  V30 1787 H 174.182 2.93852 -1.37191 0
M  V30 1788 H 173.967 2.43489 -3.07336 0
M  V30 1789 H 175.457 3.28927 -2.57288 0
M  V30 1790 N 175.894 1.51508 0.433938 0
M  V30 1791 C 177.31 1.39759 0.770682 0
M  V30 1792 C 177.51 0.482594 1.95636 0
M  V30 1793 O 176.566 -0.0609691 2.52426 0
M  V30 1794 C 177.879 2.81851 1.04787 0
M  V30 1795 C 179.427 2.91025 1.1521 0
M  V30 1796 C 179.902 4.34032 1.46219 0
M  V30 1797 N 181.393 4.37154 1.53136 0
M  V30 1798 C 182.128 5.4484 1.78709 0
M  V30 1799 N 181.624 6.62682 2.02051 0
M  V30 1800 N 183.417 5.32324 1.80519 0
M  V30 1801 H 175.568 2.09548 -0.346892 0
M  V30 1802 H 177.831 0.943446 -0.0928074 0
M  V30 1803 H 177.537 3.50815 0.249304 0
M  V30 1804 H 177.411 3.21386 1.97461 0
M  V30 1805 H 179.798 2.22257 1.94128 0
M  V30 1806 H 179.879 2.54983 0.204281 0
M  V30 1807 H 179.523 5.03351 0.678274 0
M  V30 1808 H 179.453 4.6759 2.42212 0
M  V30 1809 H 181.944 3.52197 1.36987 0
M  V30 1810 H 182.257 7.40543 2.20943 0
M  V30 1811 H 180.602 6.65791 1.99366 0
M  V30 1812 H 183.793 4.39246 1.61805 0
M  V30 1813 H 183.966 6.16328 2.00111 0
M  V30 1814 N 177.372 -0.689602 1.41712 0
M  V30 1815 C 178.788 -1.00093 1.24312 0
M  V30 1816 C 178.988 -2.01036 0.136729 0
M  V30 1817 O 178.044 -2.47562 -0.496918 0
M  V30 1818 C 179.357 -1.51985 2.59463 0
M  V30 1819 C 180.905 -1.63838 2.66695 0
M  V30 1820 C 181.38 -2.1913 4.02177 0
M  V30 1821 N 182.871 -2.26483 4.04054 0
M  V30 1822 C 183.606 -2.70306 5.0569 0
M  V30 1823 N 183.102 -3.13691 6.17713 0
M  V30 1824 N 184.895 -2.69923 4.9305 0
M  V30 1825 H 177.046 -0.0210029 2.1239 0
M  V30 1826 H 179.309 -0.0718733 0.945272 0
M  V30 1827 H 179.015 -0.85269 3.41207 0
M  V30 1828 H 178.889 -2.50103 2.82362 0
M  V30 1829 H 181.276 -2.29664 1.85306 0
M  V30 1830 H 181.357 -0.642492 2.476 0
M  V30 1831 H 181.001 -1.53918 4.84016 0
M  V30 1832 H 180.931 -3.19482 4.18615 0
M  V30 1833 H 183.422 -1.95874 3.23174 0
M  V30 1834 H 183.735 -3.45773 6.9113 0
M  V30 1835 H 182.08 -3.11585 6.21241 0
M  V30 1836 H 185.271 -2.35382 4.04614 0
M  V30 1837 H 185.444 -3.03758 5.72394 0
M  V30 1838 N 178.85 -1.27639 -0.924453 0
M  V30 1839 C 179.78 -1.13166 -2.04244 0
M  V30 1840 C 180.761 -0.032256 -1.70069 0
M  V30 1841 O 181.946 -0.207328 -1.9309 0
M  V30 1842 C 179.076 -0.781496 -3.38393 0
M  V30 1843 C 178.03 -1.83449 -3.86692 0
M  V30 1844 C 177.356 -1.33822 -5.17683 0
M  V30 1845 C 178.656 -3.23917 -4.09726 0
M  V30 1846 H 180.35 -2.06689 -2.1661 0
M  V30 1847 H 177.896 -0.995136 -1.04082 0
M  V30 1848 H 179.849 -0.667057 -4.16087 0
M  V30 1849 H 178.573 0.189439 -3.2605 0
M  V30 1850 H 177.232 -1.93789 -3.11193 0
M  V30 1851 H 176.88 -0.35665 -5.01734 0
M  V30 1852 H 176.58 -2.04224 -5.50968 0
M  V30 1853 H 178.104 -1.23679 -5.97943 0
M  V30 1854 H 179.518 -3.16559 -4.77978 0
M  V30 1855 H 177.915 -3.92059 -4.54324 0
M  V30 1856 H 178.985 -3.68729 -3.14908 0
M  V30 1857 N 180.328 1.1314 -1.09713 0
M  V30 1858 C 181.558 1.88048 -0.855656 0
M  V30 1859 C 181.966 1.79537 0.596919 0
M  V30 1860 O 181.309 1.16196 1.42282 0
M  V30 1861 C 181.371 3.38314 -1.21589 0
M  V30 1862 C 181.035 3.70605 -2.67397 0
M  V30 1863 C 182.032 3.69596 -3.65643 0
M  V30 1864 C 179.717 4.0017 -3.03593 0
M  V30 1865 C 181.711 3.977 -4.9811 0
M  V30 1866 C 179.398 4.27935 -4.36251 0
M  V30 1867 C 180.396 4.26685 -5.33318 0
M  V30 1868 O 180.084 4.53767 -6.63589 0
M  V30 1869 H 179.816 0.60208 -0.307368 0
M  V30 1870 H 182.37 1.44128 -1.46343 0
M  V30 1871 H 180.6 3.82752 -0.551177 0
M  V30 1872 H 182.289 3.94552 -0.953083 0
M  V30 1873 H 183.055 3.46826 -3.39023 0
M  V30 1874 H 178.934 4.00289 -2.2867 0
M  V30 1875 H 182.478 3.9664 -5.73866 0
M  V30 1876 H 178.375 4.50178 -4.62613 0
M  V30 1877 H 179.143 4.71422 -6.69107 0
M  V30 1878 N 181.806 0.884767 1.30421 0
M  V30 1879 C 183.052 0.513218 1.96819 0
M  V30 1880 C 183.407 -0.927347 1.68577 0
M  V30 1881 O 182.7 -1.64644 0.979941 0
M  V30 1882 C 182.894 0.724318 3.49983 0
M  V30 1883 C 182.723 2.18385 3.93113 0
M  V30 1884 C 181.493 2.82839 4.18725 0
M  V30 1885 C 183.691 3.15763 4.05953 0
M  V30 1886 N 181.673 4.1939 4.48314 0
M  V30 1887 C 183.044 4.37387 4.39423 0
M  V30 1888 C 185.099 3.11555 3.88379 0
M  V30 1889 C 183.802 5.55343 4.5715 0
M  V30 1890 C 185.828 4.28782 4.07308 0
M  V30 1891 C 185.19 5.49172 4.41123 0
M  V30 1892 H 181.289 0.237123 0.745182 0
M  V30 1893 H 183.873 1.14246 1.57658 0
M  V30 1894 H 182.044 0.124565 3.882 0
M  V30 1895 H 183.776 0.31969 4.03435 0
M  V30 1896 H 180.531 2.33708 4.11919 0
M  V30 1897 H 180.955 4.89911 4.67243 0
M  V30 1898 H 185.597 2.19576 3.61312 0
M  V30 1899 H 183.315 6.47826 4.8306 0
M  V30 1900 H 186.901 4.26995 3.95179 0
M  V30 1901 H 185.781 6.38371 4.55469 0
M  V30 1902 N 183.284 -1.43765 0.645699 0
M  V30 1903 C 184.561 -1.9541 0.0862963 0
M  V30 1904 C 184.941 -1.58725 -1.39175 0
M  V30 1905 O 184.289 -0.868581 -2.11348 0
M  V30 1906 C 184.499 -3.47488 0.324565 0
M  V30 1907 C 185.847 -4.24001 0.225497 0
M  V30 1908 O 186.871 -3.55274 0.256715 0
M  V30 1909 O 185.73 -5.46313 0.142801 0
M  V30 1910 H 182.824 -0.826882 -0.0139483 0
M  V30 1911 H 185.37 -1.53743 0.718415 0
M  V30 1912 H 184.142 -3.67289 1.3496 0
M  V30 1913 H 183.765 -3.96135 -0.340987 0
M  V30 1914 N 184.763 -0.387143 -1.52771 0
M  V30 1915 C 186.04 0.253197 -1.93954 0
M  V30 1916 C 186.42 1.64545 -1.32243 0
M  V30 1917 O 185.768 2.23191 -0.489699 0
M  V30 1918 C 185.978 0.281722 -3.47861 0
M  V30 1919 C 187.326 0.511715 -4.21505 0
M  V30 1920 O 188.35 0.362023 -3.54356 0
M  V30 1921 O 187.209 0.804847 -5.40541 0
M  V30 1922 H 184.303 0.156845 -0.811991 0
M  V30 1923 H 186.849 -0.441494 -1.63856 0
M  V30 1924 H 185.621 -0.693571 -3.85104 0
M  V30 1925 H 185.244 1.02142 -3.84256 0
M  V30 1926 N 186.241 1.57166 -0.116904 0
M  V30 1927 C 187.171 2.18222 0.830759 0
M  V30 1928 C 188.152 1.12167 1.27877 0
M  V30 1929 O 189.337 1.40394 1.34176 0
M  V30 1930 C 186.467 2.77996 2.08172 0
M  V30 1931 C 185.421 3.89614 1.77157 0
M  V30 1932 C 184.747 4.36187 3.09265 0
M  V30 1933 C 186.047 5.1181 1.04151 0
M  V30 1934 H 187.741 2.97664 0.321992 0
M  V30 1935 H 185.287 1.4318 0.153434 0
M  V30 1936 H 187.24 3.19366 2.74924 0
M  V30 1937 H 185.964 1.9584 2.6137 0
M  V30 1938 H 184.623 3.48816 1.12796 0
M  V30 1939 H 184.271 3.50893 3.60393 0
M  V30 1940 H 183.971 5.11455 2.89288 0
M  V30 1941 H 185.495 4.80207 3.77139 0
M  V30 1942 H 186.909 5.50214 1.61052 0
M  V30 1943 H 185.306 5.92648 0.942762 0
M  V30 1944 H 186.376 4.84892 0.0279022 0
M  V30 1945 N 187.719 -0.156864 1.56817 0
M  V30 1946 C 188.666 -1.19394 1.97519 0
M  V30 1947 C 189.636 -1.4322 0.841265 0
M  V30 1948 O 190.821 -1.55719 1.10255 0
M  V30 1949 C 187.961 -2.52483 2.35258 0
M  V30 1950 C 187.074 -2.35914 3.61896 0
M  V30 1951 C 186.209 -3.61969 3.88782 0
M  V30 1952 C 185.248 -3.40395 5.08722 0
M  V30 1953 N 184.385 -4.58556 5.31668 0
M  V30 1954 H 189.225 -0.839845 2.85921 0
M  V30 1955 H 186.762 -0.403264 1.41464 0
M  V30 1956 H 188.72 -3.30071 2.55165 0
M  V30 1957 H 187.35 -2.85859 1.49949 0
M  V30 1958 H 186.402 -1.49429 3.49821 0
M  V30 1959 H 187.714 -2.15926 4.49641 0
M  V30 1960 H 186.868 -4.47989 4.09135 0
M  V30 1961 H 185.607 -3.84951 2.9944 0
M  V30 1962 H 184.612 -2.52763 4.88253 0
M  V30 1963 H 185.837 -3.18822 5.99608 0
M  V30 1964 H 183.783 -4.81729 4.45279 0
M  V30 1965 H 183.7 -4.41535 6.13664 0
M  V30 1966 H 184.968 -5.45817 5.5651 0
M  V30 1967 N 189.197 -1.51736 -0.425897 0
M  V30 1968 C 190.613 -1.40166 -0.76326 0
M  V30 1969 C 190.813 -0.492962 -1.95377 0
M  V30 1970 O 189.869 0.0475815 -2.52455 0
M  V30 1971 C 191.182 -2.82403 -1.03291 0
M  V30 1972 C 192.73 -2.91632 -1.13665 0
M  V30 1973 C 193.205 -4.34801 -1.43916 0
M  V30 1974 N 194.696 -4.3796 -1.50816 0
M  V30 1975 C 195.431 -5.4578 -1.75817 0
M  V30 1976 N 194.927 -6.63744 -1.98534 0
M  V30 1977 N 196.72 -5.33274 -1.77694 0
M  V30 1978 H 188.871 -2.09361 0.358 0
M  V30 1979 H 191.134 -0.942941 0.0978094 0
M  V30 1980 H 190.84 -3.50943 -0.230696 0
M  V30 1981 H 190.714 -3.22428 -1.95754 0
M  V30 1982 H 193.101 -2.23284 -1.92947 0
M  V30 1983 H 193.182 -2.55088 -0.190756 0
M  V30 1984 H 192.826 -5.03703 -0.65157 0
M  V30 1985 H 192.756 -4.68868 -2.39729 0
M  V30 1986 H 195.247 -3.52919 -1.35118 0
M  V30 1987 H 195.56 -7.41704 -2.17013 0
M  V30 1988 H 193.905 -6.66839 -1.95832 0
M  V30 1989 H 197.096 -4.40098 -1.59473 0
M  V30 1990 H 197.269 -6.1738 -1.9684 0
M  V30 1991 N 190.675 0.682077 -1.42076 0
M  V30 1992 C 191.622 1.79578 -1.44984 0
M  V30 1993 C 192.592 1.6332 -0.302614 0
M  V30 1994 O 193.777 1.83978 -0.505633 0
M  V30 1995 C 190.917 3.1756 -1.35091 0
M  V30 1996 C 190.03 3.45156 -2.59791 0
M  V30 1997 C 189.165 4.72826 -2.42093 0
M  V30 1998 C 188.204 4.93433 -3.62202 0
M  V30 1999 N 187.341 6.12338 -3.43491 0
M  V30 2000 H 192.181 1.76427 -2.40161 0
M  V30 2001 H 189.718 0.861376 -1.19242 0
M  V30 2002 H 191.676 3.97287 -1.27354 0
M  V30 2003 H 190.306 3.19854 -0.435133 0
M  V30 2004 H 189.358 2.59736 -2.77923 0
M  V30 2005 H 190.67 3.5628 -3.49094 0
M  V30 2006 H 189.824 5.60631 -2.319 0
M  V30 2007 H 188.563 4.63973 -1.50268 0
M  V30 2008 H 187.568 4.04073 -3.72834 0
M  V30 2009 H 188.793 5.04136 -4.54998 0
M  V30 2010 H 186.739 6.04672 -2.54377 0
M  V30 2011 H 186.656 6.2429 -4.26377 0
M  V30 2012 H 187.924 7.02841 -3.37097 0
M  V30 2013 N 192.153 1.28127 0.917671 0
M  V30 2014 C 193.083 1.14248 2.03641 0
M  V30 2015 C 194.064 0.0412748 1.7005 0
M  V30 2016 O 195.249 0.217566 1.92977 0
M  V30 2017 C 192.379 0.799431 3.37974 0
M  V30 2018 C 191.333 1.85497 3.85713 0
M  V30 2019 C 190.659 1.36565 5.16966 0
M  V30 2020 C 191.959 3.26085 4.08002 0
M  V30 2021 H 193.653 2.07835 2.15511 0
M  V30 2022 H 191.199 1.00064 1.03553 0
M  V30 2023 H 193.152 0.689114 4.15727 0
M  V30 2024 H 191.876 -0.172145 3.26146 0
M  V30 2025 H 190.535 1.95437 3.10161 0
M  V30 2026 H 190.183 0.383253 5.01538 0
M  V30 2027 H 189.883 2.07143 5.49878 0
M  V30 2028 H 191.407 1.26848 5.97279 0
M  V30 2029 H 192.821 3.19089 4.76293 0
M  V30 2030 H 191.218 3.94462 4.52238 0
M  V30 2031 H 192.288 3.70394 3.12948 0
M  V30 2032 N 193.631 -1.12557 1.10312 0
M  V30 2033 C 194.856 -1.88405 0.867085 0
M  V30 2034 C 195.281 -1.79038 -0.576817 0
M  V30 2035 O 194.639 -1.14439 -1.40618 0
M  V30 2036 C 194.687 -3.3563 1.31851 0
M  V30 2037 O 193.791 -4.09565 0.482734 0
M  V30 2038 H 193.132 -0.585455 0.313271 0
M  V30 2039 H 195.662 -1.42352 1.4696 0
M  V30 2040 H 195.672 -3.86469 1.3079 0
M  V30 2041 H 194.347 -3.41765 2.37001 0
M  V30 2042 H 192.924 -3.68695 0.558448 0
M  V30 2043 N 195.109 -0.891671 -1.2995 0
M  V30 2044 C 196.019 -0.367691 -2.31701 0
M  V30 2045 C 197.035 0.533486 -1.6562 0
M  V30 2046 O 198.211 0.424997 -1.96865 0
M  V30 2047 C 195.276 0.403406 -3.44345 0
M  V30 2048 C 194.337 -0.528328 -4.26037 0
M  V30 2049 C 193.57 0.206063 -5.33302 0
M  V30 2050 O 193.793 1.43119 -5.52153 0
M  V30 2051 O 192.727 -0.447281 -6.00236 0
M  V30 2052 H 196.553 -1.21163 -2.78484 0
M  V30 2053 H 194.138 -0.655725 -1.34241 0
M  V30 2054 H 196.02 0.839753 -4.12948 0
M  V30 2055 H 194.695 1.22354 -2.99685 0
M  V30 2056 H 193.602 -1.01362 -3.60106 0
M  V30 2057 H 194.935 -1.31465 -4.74318 0
M  V30 2058 N 196.587 1.43421 -0.653314 0
M  V30 2059 C 197.534 2.30768 0.0382271 0
M  V30 2060 C 198.504 1.44755 0.814576 0
M  V30 2061 O 199.689 1.73624 0.791162 0
M  V30 2062 C 196.829 3.30336 0.998599 0
M  V30 2063 C 195.942 4.31448 0.218342 0
M  V30 2064 C 195.077 5.18098 1.17252 0
M  V30 2065 C 194.116 6.10902 0.382702 0
M  V30 2066 N 193.253 6.90176 1.28848 0
M  V30 2067 H 198.093 2.89357 -0.712511 0
M  V30 2068 H 195.63 1.42548 -0.363128 0
M  V30 2069 H 197.588 3.86572 1.56901 0
M  V30 2070 H 196.218 2.73397 1.71621 0
M  V30 2071 H 195.27 3.77506 -0.46836 0
M  V30 2072 H 196.582 4.97227 -0.395812 0
M  V30 2073 H 195.736 5.7896 1.81356 0
M  V30 2074 H 194.475 4.52444 1.82058 0
M  V30 2075 H 193.48 5.49128 -0.27169 0
M  V30 2076 H 194.705 6.78598 -0.260957 0
M  V30 2077 H 192.651 6.27171 1.92334 0
M  V30 2078 H 192.568 7.52478 0.728887 0
M  V30 2079 H 193.836 7.55543 1.91766 0
M  V30 2080 N 198.065 0.39524 1.52563 0
M  V30 2081 C 198.995 -0.428384 2.29537 0
M  V30 2082 C 199.976 -1.05831 1.33169 0
M  V30 2083 O 201.161 -1.06995 1.62067 0
M  V30 2084 C 198.291 -1.55274 3.10656 0
M  V30 2085 C 197.245 -1.04855 4.14957 0
M  V30 2086 C 196.571 -2.26543 4.84337 0
M  V30 2087 C 197.871 -0.112324 5.22179 0
M  V30 2088 H 199.565 0.213867 2.98635 0
M  V30 2089 H 197.111 0.104298 1.43622 0
M  V30 2090 H 199.064 -2.1358 3.63265 0
M  V30 2091 H 197.788 -2.22266 2.39302 0
M  V30 2092 H 196.447 -0.487985 3.63338 0
M  V30 2093 H 196.095 -2.92059 4.09525 0
M  V30 2094 H 195.795 -1.93466 5.54837 0
M  V30 2095 H 197.319 -2.85481 5.39753 0
M  V30 2096 H 198.733 -0.603752 5.70112 0
M  V30 2097 H 197.13 0.128968 5.99961 0
M  V30 2098 H 198.2 0.837052 4.77621 0
M  V30 2099 N 199.544 -1.57102 0.125237 0
M  V30 2100 C 200.821 -1.86953 -0.575142 0
M  V30 2101 C 201.201 -1.02749 -1.84407 0
M  V30 2102 O 200.549 -0.108144 -2.28244 0
M  V30 2103 C 200.759 -3.38198 -0.861583 0
M  V30 2104 C 202.107 -4.06937 -1.21192 0
M  V30 2105 O 203.131 -3.43252 -0.951645 0
M  V30 2106 O 201.99 -5.19364 -1.70068 0
M  V30 2107 H 199.084 -0.774147 -0.290906 0
M  V30 2108 H 201.63 -1.68942 0.160211 0
M  V30 2109 H 200.402 -3.91282 0.0373647 0
M  V30 2110 H 200.025 -3.61661 -1.65188 0
M  V30 2111 N 201.022 0.148545 -1.56898 0
M  V30 2112 C 202.247 0.880385 -1.87787 0
M  V30 2113 C 202.672 1.74018 -0.714093 0
M  V30 2114 O 202.03 1.78153 0.336343 0
M  V30 2115 C 202.078 1.71422 -3.17249 0
M  V30 2116 O 201.182 2.8183 -3.01074 0
M  V30 2117 H 200.523 0.245301 -0.617028 0
M  V30 2118 H 203.053 0.139826 -2.04122 0
M  V30 2119 H 203.063 2.10954 -3.49231 0
M  V30 2120 H 201.738 1.08284 -4.01556 0
M  V30 2121 H 200.315 2.45715 -2.80497 0
M  V30 2122 N 202.5 1.5196 0.417844 0
M  V30 2123 C 203.728 1.69426 1.18753 0
M  V30 2124 C 204.143 0.399955 1.84515 0
M  V30 2125 O 203.5 -0.623288 1.71527 0
M  V30 2126 C 203.551 2.82375 2.25714 0
M  V30 2127 O 203.272 4.06793 1.62638 0
M  V30 2128 C 204.773 3.11277 3.15628 0
M  V30 2129 H 201.993 0.568031 0.357186 0
M  V30 2130 H 204.537 1.98475 0.49273 0
M  V30 2131 H 202.692 2.5587 2.90877 0
M  V30 2132 H 203.106 4.69667 2.3348 0
M  V30 2133 H 204.58 3.93843 3.86771 0
M  V30 2134 H 205.057 2.24473 3.77503 0
M  V30 2135 H 205.663 3.39515 2.56144 0
M  V30 2136 N 203.978 -0.674533 1.42435 0
M  V30 2137 C 205.255 -1.4305 1.33402 0
M  V30 2138 C 205.635 -2.11081 -0.0284674 0
M  V30 2139 O 204.983 -2.03257 -1.04397 0
M  V30 2140 C 205.193 -2.43272 2.50239 0
M  V30 2141 C 206.541 -3.07907 2.92367 0
M  V30 2142 O 207.565 -2.53599 2.50132 0
M  V30 2143 O 206.424 -4.0632 3.65467 0
M  V30 2144 H 203.518 -0.638076 0.526106 0
M  V30 2145 H 206.064 -0.703235 1.54443 0
M  V30 2146 H 204.836 -1.91803 3.41068 0
M  V30 2147 H 204.459 -3.23479 2.31186 0
M  V30 2148 N 205.456 -1.28612 -0.910864 0
M  V30 2149 C 206.703 -1.15934 -1.66029 0
M  V30 2150 C 207.031 0.291483 -1.92303 0
M  V30 2151 O 206.286 1.22816 -1.52364 0
M  V30 2152 C 206.585 -1.90624 -3.0232 0
M  V30 2153 C 206.251 -3.40405 -2.95695 0
M  V30 2154 C 204.913 -3.81255 -2.93595 0
M  V30 2155 C 207.265 -4.359 -2.85728 0
M  V30 2156 C 204.593 -5.15936 -2.79334 0
M  V30 2157 C 206.945 -5.70657 -2.73007 0
M  V30 2158 C 205.609 -6.10779 -2.69267 0
M  V30 2159 H 204.879 -0.424234 -0.607541 0
M  V30 2160 H 207.526 -1.5942 -1.06101 0
M  V30 2161 H 205.831 -1.39696 -3.6605 0
M  V30 2162 H 207.528 -1.78228 -3.59215 0
M  V30 2163 H 204.118 -3.07927 -2.98125 0
M  V30 2164 H 208.302 -4.053 -2.86436 0
M  V30 2165 H 203.558 -5.46146 -2.74835 0
M  V30 2166 H 207.732 -6.44311 -2.64264 0
M  V30 2167 H 205.359 -7.1509 -2.57974 0
M  V30 2168 N 206.934 1.1197 -1.10907 0
M  V30 2169 C 208.162 1.87402 -0.876824 0
M  V30 2170 C 208.577 1.79894 0.573025 0
M  V30 2171 O 207.934 1.17629 1.39534 0
M  V30 2172 C 207.985 3.36428 -1.32282 0
M  V30 2173 O 207.706 3.43765 -2.71582 0
M  V30 2174 C 209.207 4.28783 -1.12518 0
M  V30 2175 H 206.427 0.592793 -0.314384 0
M  V30 2176 H 208.971 1.41649 -1.47499 0
M  V30 2177 H 207.126 3.79706 -0.768229 0
M  V30 2178 H 207.54 4.3652 -2.90776 0
M  V30 2179 H 209.014 5.31613 -1.48633 0
M  V30 2180 H 209.491 4.39153 -0.0642394 0
M  V30 2181 H 210.097 3.91291 -1.66648 0
M  V30 2182 N 208.412 0.89855 1.29475 0
M  V30 2183 C 209.66 0.522847 1.9522 0
M  V30 2184 C 209.981 -0.93371 1.71192 0
M  V30 2185 O 209.251 -1.65823 1.04305 0
M  V30 2186 H 207.831 0.190366 0.722336 0
M  V30 2187 H 210.493 1.14459 1.5775 0
M  V30 2188 H 209.589 0.704476 3.04045 0
M  V30 2189 N 209.89 -1.43072 0.660911 0
M  V30 2190 C 211.118 -2.06067 0.185422 0
M  V30 2191 C 211.533 -1.49582 -1.15198 0
M  V30 2192 O 210.89 -0.630134 -1.71276 0
M  V30 2193 C 210.941 -3.61371 0.0966523 0
M  V30 2194 O 210.662 -4.15758 1.38119 0
M  V30 2195 C 212.163 -4.41455 -0.403996 0
M  V30 2196 H 209.383 -0.664459 0.0934604 0
M  V30 2197 H 211.927 -1.83447 0.90373 0
M  V30 2198 H 210.082 -3.8315 -0.572259 0
M  V30 2199 H 210.496 -5.09499 1.24542 0
M  V30 2200 H 211.97 -5.50437 -0.415045 0
M  V30 2201 H 212.447 -4.15036 -1.43674 0
M  V30 2202 H 213.053 -4.24663 0.232691 0
M  V30 2203 N 211.368 -0.403325 -1.52352 0
M  V30 2204 C 212.617 0.175668 -2.00934 0
M  V30 2205 C 212.93 1.46718 -1.29356 0
M  V30 2206 O 214.136 2.12708 -1.68724 0
M  V30 2207 C 212.592 0.363612 -3.58058 0
M  V30 2208 C 212.2 -0.915472 -4.38547 0
M  V30 2209 C 213.944 0.89821 -4.14888 0
M  V30 2210 C 211.851 -0.695035 -5.87302 0
M  V30 2211 H 210.781 0.0694234 -0.750797 0
M  V30 2212 H 213.432 -0.527879 -1.75743 0
M  V30 2213 H 211.814 1.12935 -3.79555 0
M  V30 2214 H 212.988 -1.68691 -4.28812 0
M  V30 2215 H 211.303 -1.37606 -3.93006 0
M  V30 2216 H 213.9 1.07907 -5.23699 0
M  V30 2217 H 214.243 1.87126 -3.71873 0
M  V30 2218 H 214.776 0.191681 -3.97338 0
M  V30 2219 H 211.515 -1.63948 -6.34666 0
M  V30 2220 H 211.035 0.0372116 -5.99788 0
M  V30 2221 H 212.714 -0.33497 -6.46132 0
M  V30 2222 N 212.846 1.57033 -0.133567 0
M  V30 2223 C 213.793 2.16074 0.811208 0
M  V30 2224 C 214.763 1.08979 1.2535 0
M  V30 2225 O 215.948 1.36958 1.32843 0
M  V30 2226 C 213.088 2.77595 2.05024 0
M  V30 2227 C 212.201 3.99042 1.65498 0
M  V30 2228 C 211.336 4.48603 2.84479 0
M  V30 2229 C 210.375 5.62547 2.41262 0
M  V30 2230 N 209.512 6.06787 3.53206 0
M  V30 2231 H 214.352 2.96477 0.300906 0
M  V30 2232 H 211.889 1.46462 0.136822 0
M  V30 2233 H 213.847 3.11402 2.77642 0
M  V30 2234 H 212.477 1.99859 2.53488 0
M  V30 2235 H 211.529 3.71302 0.826981 0
M  V30 2236 H 212.841 4.81629 1.29748 0
M  V30 2237 H 211.995 4.84395 3.65303 0
M  V30 2238 H 210.734 3.64995 3.23465 0
M  V30 2239 H 209.739 5.26345 1.58874 0
M  V30 2240 H 210.964 6.47931 2.03377 0
M  V30 2241 H 208.91 5.26117 3.91838 0
M  V30 2242 H 208.827 6.84266 3.21427 0
M  V30 2243 H 210.095 6.4722 4.34427 0
M  V30 2244 N 214.325 -0.140222 1.56975 0
M  V30 2245 C 215.255 -1.17456 2.01808 0
M  V30 2246 C 216.236 -1.44415 0.898794 0
M  V30 2247 O 217.421 -1.5522 1.16707 0
M  V30 2248 C 214.551 -2.50607 2.40444 0
M  V30 2249 C 213.505 -2.38155 3.55621 0
M  V30 2250 C 212.831 -3.76078 3.80091 0
M  V30 2251 C 214.131 -1.85991 4.88062 0
M  V30 2252 H 215.825 -0.801743 2.88466 0
M  V30 2253 H 213.371 -0.38422 1.38779 0
M  V30 2254 H 215.324 -3.23197 2.7041 0
M  V30 2255 H 214.048 -2.89737 1.50732 0
M  V30 2256 H 212.707 -1.68016 3.25832 0
M  V30 2257 H 212.355 -4.12656 2.87618 0
M  V30 2258 H 212.055 -3.68606 4.57606 0
M  V30 2259 H 213.579 -4.50206 4.12488 0
M  V30 2260 H 214.993 -2.4838 5.16701 0
M  V30 2261 H 213.39 -1.89393 5.6943 0
M  V30 2262 H 214.46 -0.816023 4.77984 0
M  V30 2263 N 215.803 -1.52179 -0.40978 0
M  V30 2264 C 216.733 -1.78435 -1.5061 0
M  V30 2265 C 217.714 -0.635295 -1.57791 0
M  V30 2266 O 218.899 -0.880823 -1.73076 0
M  V30 2267 C 216.029 -1.93444 -2.88439 0
M  V30 2268 C 214.983 -3.09038 -2.96108 0
M  V30 2269 C 214.309 -3.09268 -4.36185 0
M  V30 2270 C 215.609 -4.48508 -2.67652 0
M  V30 2271 H 217.303 -2.70237 -1.28889 0
M  V30 2272 H 214.849 -1.30036 -0.618605 0
M  V30 2273 H 216.802 -2.10394 -3.65119 0
M  V30 2274 H 215.526 -0.983129 -3.11452 0
M  V30 2275 H 214.185 -2.91837 -2.21872 0
M  V30 2276 H 213.833 -2.11861 -4.56206 0
M  V30 2277 H 213.533 -3.86907 -4.42241 0
M  V30 2278 H 215.057 -3.28348 -5.14801 0
M  V30 2279 H 216.471 -4.65918 -3.34056 0
M  V30 2280 H 214.868 -5.28059 -2.85085 0
M  V30 2281 H 215.938 -4.56649 -1.63095 0
M  V30 2282 N 217.281 0.66697 -1.42791 0
M  V30 2283 C 218.229 1.80157 -1.47127 0
M  V30 2284 C 219.223 1.65825 -0.346199 0
M  V30 2285 O 220.429 1.72338 -0.519572 0
M  V30 2286 H 216.804 0.594158 -0.460956 0
M  V30 2287 H 218.775 1.73619 -2.42692 0
M  V30 2288 C 217.524 3.18351 -1.39813 0
M  V30 2289 H 216.847 3.3001 -2.25684 0
M  V30 2290 H 218.287 3.97736 -1.46908 0
M  V30 2291 C 216.746 3.36707 -0.11391 0
M  V30 2292 O 217.276 3.93027 0.830241 0
M  V30 2293 N 215.482 2.90586 -0.0285295 0
M  V30 2294 H 215.029 2.4494 -0.79764 0
M  V30 2295 H 214.987 3.03245 0.830063 0
M  V30 2296 N 218.759 1.29093 0.90403 0
M  V30 2297 C 219.669 1.15727 2.0407 0
M  V30 2298 C 220.685 0.0815308 1.73809 0
M  V30 2299 O 221.861 0.292749 1.99261 0
M  V30 2300 C 218.926 0.830424 3.36608 0
M  V30 2301 C 217.987 1.98955 3.80415 0
M  V30 2302 C 217.22 1.6782 5.06628 0
M  V30 2303 O 217.443 0.597105 5.67266 0
M  V30 2304 O 216.377 2.52486 5.46383 0
M  V30 2305 H 220.203 2.11171 2.18267 0
M  V30 2306 H 217.788 1.08504 1.027 0
M  V30 2307 H 219.67 0.662521 4.16159 0
M  V30 2308 H 218.345 -0.0942678 3.23563 0
M  V30 2309 H 217.252 2.21267 3.01648 0
M  V30 2310 H 218.585 2.89529 3.98037 0
M  V30 2311 N 220.237 -1.11381 1.11499 0
M  V30 2312 C 221.185 -2.19522 0.768956 0
M  V30 2313 C 222.179 -1.67693 -0.239857 0
M  V30 2314 O 223.385 -1.79727 -0.0990755 0
M  V30 2315 H 219.76 -0.715711 0.230786 0
M  V30 2316 H 221.731 -2.45954 1.68964 0
M  V30 2317 C 220.48 -3.46945 0.229073 0
M  V30 2318 H 219.803 -3.8718 0.996596 0
M  V30 2319 H 221.243 -4.23993 0.0251441 0
M  V30 2320 C 219.702 -3.2042 -1.04079 0
M  V30 2321 O 220.232 -3.41178 -2.12038 0
M  V30 2322 N 218.438 -2.74151 -0.963823 0
M  V30 2323 H 217.985 -2.57459 -0.0851722 0
M  V30 2324 H 217.943 -2.56781 -1.81414 0
M  V30 2325 N 221.715 -0.905404 -1.28997 0
M  V30 2326 C 222.94 -0.549175 -1.99997 0
M  V30 2327 C 223.365 0.860276 -1.67275 0
M  V30 2328 O 222.723 1.57355 -0.900502 0
M  V30 2329 C 222.771 -0.755185 -3.52604 0
M  V30 2330 O 221.875 0.189692 -4.11964 0
M  V30 2331 H 221.216 -0.213899 -0.628604 0
M  V30 2332 H 223.746 -1.21856 -1.64354 0
M  V30 2333 H 223.756 -0.662045 -4.02593 0
M  V30 2334 H 222.431 -1.78271 -3.75755 0
M  V30 2335 H 221.008 0.0485257 -3.72868 0
M  V30 2336 N 223.193 1.4272 -0.668489 0
M  V30 2337 C 224.423 2.05668 -0.196063 0
M  V30 2338 C 224.831 1.5028 1.14946 0
M  V30 2339 O 224.174 0.6348 1.72383 0
M  V30 2340 C 224.236 3.59469 -0.0468879 0
M  V30 2341 C 223.9 4.37518 -1.32012 0
M  V30 2342 C 224.897 4.68584 -2.25222 0
M  V30 2343 C 222.582 4.77266 -1.56596 0
M  V30 2344 C 224.576 5.38326 -3.41297 0
M  V30 2345 C 222.263 5.4675 -2.72962 0
M  V30 2346 C 223.261 5.77204 -3.65137 0
M  V30 2347 O 222.949 6.45264 -4.79468 0
M  V30 2348 H 222.681 0.669382 -0.0943599 0
M  V30 2349 H 225.235 1.83954 -0.913788 0
M  V30 2350 H 223.465 3.79817 0.726357 0
M  V30 2351 H 225.154 4.04071 0.384852 0
M  V30 2352 H 225.92 4.38382 -2.07477 0
M  V30 2353 H 221.799 4.52959 -0.857249 0
M  V30 2354 H 225.343 5.62014 -4.13263 0
M  V30 2355 H 221.24 5.76369 -2.90635 0
M  V30 2356 H 222.008 6.63753 -4.78931 0
M  V30 2357 N 224.671 0.411399 1.52136 0
M  V30 2358 C 225.917 -0.163888 2.02137 0
M  V30 2359 C 226.25 -1.44597 1.29636 0
M  V30 2360 O 225.525 -1.90272 0.403353 0
M  V30 2361 C 225.808 -0.40927 3.57767 0
M  V30 2362 C 225.661 0.889643 4.40914 0
M  V30 2363 C 226.98 -1.19042 4.23694 0
M  V30 2364 H 224.099 -0.0580896 0.734707 0
M  V30 2365 H 226.741 0.54531 1.82007 0
M  V30 2366 H 224.891 -1.0134 3.7505 0
M  V30 2367 H 226.563 1.52575 4.35337 0
M  V30 2368 H 224.806 1.50011 4.07037 0
M  V30 2369 H 225.477 0.672314 5.4789 0
M  V30 2370 H 227.953 -0.678942 4.10524 0
M  V30 2371 H 226.829 -1.33086 5.32522 0
M  V30 2372 H 227.09 -2.21166 3.82803 0
M  V30 2373 N 226.149 -1.5696 0.141893 0
M  V30 2374 C 227.56 -1.82797 -0.379776 0
M  V30 2375 C 227.911 -1.06033 -1.6508 0
M  V30 2376 O 227.036 -0.304011 -2.14254 0
M  V30 2377 C 227.631 -3.31578 -0.695802 0
M  V30 2378 C 226.19 -3.58014 -1.16201 0
M  V30 2379 C 225.337 -2.76699 -0.182455 0
M  V30 2380 H 228.288 -1.54406 0.366675 0
M  V30 2381 H 228.309 -3.47454 -1.55099 0
M  V30 2382 H 227.821 -3.87421 0.229449 0
M  V30 2383 H 225.922 -3.07553 -2.10338 0
M  V30 2384 H 226.035 -4.66501 -1.09151 0
M  V30 2385 H 224.399 -2.45618 -0.674072 0
M  V30 2386 H 225.182 -3.35311 0.736297 0
M  V30 2387 N 227.627 0.131896 -1.57047 0
M  V30 2388 C 229.043 0.485031 -1.52051 0
M  V30 2389 C 229.243 1.82563 -0.85281 0
M  V30 2390 O 228.299 2.48817 -0.429694 0
M  V30 2391 C 229.612 0.481409 -2.96821 0
M  V30 2392 C 231.16 0.565868 -3.07842 0
M  V30 2393 C 231.635 0.592762 -4.54148 0
M  V30 2394 N 233.126 0.654564 -4.58552 0
M  V30 2395 C 233.861 0.696608 -5.69153 0
M  V30 2396 N 233.357 0.697078 -6.89284 0
M  V30 2397 N 235.15 0.738639 -5.57226 0
M  V30 2398 H 227.301 -0.746664 -1.98843 0
M  V30 2399 H 229.564 -0.273999 -0.90754 0
M  V30 2400 H 229.27 -0.435731 -3.4899 0
M  V30 2401 H 229.144 1.3139 -3.53577 0
M  V30 2402 H 231.531 1.47343 -2.55684 0
M  V30 2403 H 231.612 -0.29406 -2.54104 0
M  V30 2404 H 231.256 -0.310701 -5.06949 0
M  V30 2405 H 231.186 1.46939 -5.05684 0
M  V30 2406 H 233.677 0.660887 -3.72076 0
M  V30 2407 H 233.99 0.731426 -7.69331 0
M  V30 2408 H 232.335 0.66471 -6.91814 0
M  V30 2409 H 235.526 0.735545 -4.62285 0
M  V30 2410 H 235.699 0.767938 -6.43434 0
M  V30 2411 N 229.106 1.52395 0.401703 0
M  V30 2412 C 230.016 1.7917 1.51444 0
M  V30 2413 C 231.032 0.677691 1.6026 0
M  V30 2414 O 232.208 0.963909 1.76835 0
M  V30 2415 C 229.273 1.94347 2.87107 0
M  V30 2416 C 228.334 3.18257 2.88116 0
M  V30 2417 C 227.567 3.32701 4.17308 0
M  V30 2418 O 227.79 2.52238 5.11598 0
M  V30 2419 O 226.724 4.25891 4.25324 0
M  V30 2420 H 230.55 2.73633 1.31752 0
M  V30 2421 H 228.135 1.3733 0.588296 0
M  V30 2422 H 230.017 2.06109 3.67555 0
M  V30 2423 H 228.692 1.03073 3.06851 0
M  V30 2424 H 227.599 3.11947 2.06494 0
M  V30 2425 H 228.932 4.09336 2.73322 0
M  V30 2426 N 230.584 -0.659388 1.43143 0
M  V30 2427 C 231.547 -1.75432 1.47501 0
M  V30 2428 C 232.547 -1.56707 0.360512 0
M  V30 2429 O 233.737 -1.62717 0.622002 0
M  V30 2430 C 230.869 -3.14239 1.32162 0
M  V30 2431 H 232.062 -1.7295 2.45006 0
M  V30 2432 H 229.615 -0.870469 1.29817 0
M  V30 2433 H 230.35 -3.22336 0.356401 0
M  V30 2434 H 230.135 -3.29235 2.12948 0
M  V30 2435 H 231.625 -3.94094 1.3813 0
M  V30 2436 N 232.062 -1.29571 -0.897171 0
M  V30 2437 C 233.31 -1.17456 -1.64464 0
M  V30 2438 C 233.631 0.273698 -1.9307 0
M  V30 2439 O 232.901 1.18684 -1.55855 0
M  V30 2440 H 231.481 -0.431706 -0.609622 0
M  V30 2441 H 234.143 -1.62531 -1.07562 0
M  V30 2442 H 233.239 -1.72648 -2.59998 0
M  V30 2443 N 233.54 1.10788 -1.12088 0
M  V30 2444 C 234.765 1.87002 -0.896949 0
M  V30 2445 C 235.19 1.79933 0.548261 0
M  V30 2446 O 234.548 1.16662 1.38779 0
M  V30 2447 C 234.596 3.3349 -1.37174 0
M  V30 2448 O 233.7 4.08745 -0.547831 0
M  V30 2449 H 233.041 0.580397 -0.322545 0
M  V30 2450 H 235.571 1.39996 -1.49206 0
M  V30 2451 H 235.581 3.84339 -1.36922 0
M  V30 2452 H 234.256 3.37951 -2.42408 0
M  V30 2453 H 232.833 3.6776 -0.617034 0
M  V30 2454 N 235.018 0.912232 1.28515 0
M  V30 2455 C 235.95 0.35676 2.26406 0
M  V30 2456 C 236.963 -0.503933 1.54804 0
M  V30 2457 O 238.152 -0.319059 1.75625 0
M  V30 2458 C 235.252 -0.508825 3.35058 0
M  V30 2459 C 234.425 0.329007 4.36161 0
M  V30 2460 C 233.484 -0.471422 5.24084 0
M  V30 2461 O 232.51 0.115482 5.69083 0
M  V30 2462 N 233.712 -1.77479 5.52704 0
M  V30 2463 H 236.477 1.19818 2.74707 0
M  V30 2464 H 234.038 0.778022 1.4198 0
M  V30 2465 H 236.03 -1.051 3.90815 0
M  V30 2466 H 234.6 -1.25095 2.86478 0
M  V30 2467 H 233.82 1.05256 3.79888 0
M  V30 2468 H 235.108 0.90234 5.00735 0
M  V30 2469 H 234.506 -2.27417 5.17975 0
M  V30 2470 H 233.063 -2.26382 6.11224 0
M  V30 2471 N 236.496 -1.42363 0.676048 0
M  V30 2472 C 237.443 -2.308 -0.00150904 0
M  V30 2473 C 238.413 -1.46032 -0.791444 0
M  V30 2474 O 239.598 -1.74861 -0.76344 0
M  V30 2475 C 236.738 -3.31883 -0.945919 0
M  V30 2476 C 235.851 -4.31741 -0.149675 0
M  V30 2477 C 234.986 -5.19898 -1.08995 0
M  V30 2478 C 234.025 -6.11434 -0.285465 0
M  V30 2479 N 233.162 -6.92138 -1.17851 0
M  V30 2480 H 238.002 -2.88187 0.758455 0
M  V30 2481 H 235.539 -1.41952 0.38576 0
M  V30 2482 H 237.497 -3.89019 -1.50731 0
M  V30 2483 H 236.127 -2.76093 -1.6725 0
M  V30 2484 H 235.179 -3.76713 0.528359 0
M  V30 2485 H 236.491 -4.96534 0.474866 0
M  V30 2486 H 235.645 -5.81772 -1.72123 0
M  V30 2487 H 234.384 -4.55284 -1.74837 0
M  V30 2488 H 233.389 -5.48627 0.359018 0
M  V30 2489 H 234.614 -6.78097 0.368883 0
M  V30 2490 H 232.56 -6.30152 -1.82332 0
M  V30 2491 H 232.477 -7.53542 -0.609082 0
M  V30 2492 H 233.745 -7.58499 -1.79722 0
M  V30 2493 N 237.974 -0.419461 -1.51915 0
M  V30 2494 C 239.251 0.211999 -1.94448 0
M  V30 2495 C 239.631 1.61703 -1.35703 0
M  V30 2496 O 238.979 2.22102 -0.536931 0
M  V30 2497 C 239.189 0.207872 -3.4838 0
M  V30 2498 C 240.537 0.422192 -4.22496 0
M  V30 2499 O 241.561 0.286778 -3.55044 0
M  V30 2500 O 240.42 0.690009 -5.42126 0
M  V30 2501 H 237.514 0.139586 -0.815135 0
M  V30 2502 H 240.06 -0.476151 -1.62883 0
M  V30 2503 H 238.832 -0.775102 -3.83546 0
M  V30 2504 H 238.455 0.939688 -3.86336 0
M  V30 2505 N 239.452 1.56882 -0.150215 0
M  V30 2506 C 240.362 2.20494 0.801222 0
M  V30 2507 C 241.378 1.19019 1.26927 0
M  V30 2508 O 242.554 1.51607 1.32579 0
M  V30 2509 C 239.619 2.81659 2.02161 0
M  V30 2510 C 238.68 3.9827 1.60249 0
M  V30 2511 C 237.913 4.56508 2.7647 0
M  V30 2512 O 238.136 4.13627 3.92771 0
M  V30 2513 O 237.07 5.46719 2.51757 0
M  V30 2514 H 240.896 3.02315 0.289717 0
M  V30 2515 H 238.481 1.49202 0.0769684 0
M  V30 2516 H 240.363 3.20522 2.73576 0
M  V30 2517 H 239.038 2.02849 2.52258 0
M  V30 2518 H 237.945 3.64117 0.858477 0
M  V30 2519 H 239.278 4.78609 1.14864 0
M  V30 2520 N 240.93 -0.123565 1.57115 0
M  V30 2521 C 241.878 -1.17082 2.00984 0
M  V30 2522 C 242.872 -1.43136 0.906009 0
M  V30 2523 O 244.078 -1.43152 1.09121 0
M  V30 2524 H 240.453 -0.394653 0.64012 0
M  V30 2525 H 242.424 -0.774292 2.88179 0
M  V30 2526 C 241.173 -2.49057 2.42623 0
M  V30 2527 H 240.496 -2.29846 3.27125 0
M  V30 2528 H 241.936 -3.20906 2.7712 0
M  V30 2529 C 240.395 -3.11305 1.28805 0
M  V30 2530 O 240.925 -3.97171 0.60153 0
M  V30 2531 N 239.131 -2.71111 1.04628 0
M  V30 2532 H 238.678 -2.01382 1.60634 0
M  V30 2533 H 238.636 -3.1309 0.286685 0
M  V30 2534 N 242.408 -1.52605 -0.393616 0
M  V30 2535 C 243.338 -1.80022 -1.48709 0
M  V30 2536 C 244.319 -0.651995 -1.57108 0
M  V30 2537 O 245.504 -0.89913 -1.72132 0
M  V30 2538 C 242.634 -1.96492 -2.86371 0
M  V30 2539 C 241.588 -3.12161 -2.92813 0
M  V30 2540 C 240.914 -3.13877 -4.3288 0
M  V30 2541 C 242.214 -4.51322 -2.6288 0
M  V30 2542 H 243.908 -2.71589 -1.26015 0
M  V30 2543 H 241.454 -1.30684 -0.604778 0
M  V30 2544 H 243.407 -2.14255 -3.62867 0
M  V30 2545 H 242.131 -1.01611 -3.10391 0
M  V30 2546 H 240.79 -2.94173 -2.18764 0
M  V30 2547 H 240.438 -2.16687 -4.53933 0
M  V30 2548 H 240.138 -3.91576 -4.38112 0
M  V30 2549 H 241.662 -3.33789 -5.1129 0
M  V30 2550 H 243.076 -4.69435 -3.29096 0
M  V30 2551 H 241.473 -5.31053 -2.79468 0
M  V30 2552 H 242.543 -4.58353 -1.58242 0
M  V30 2553 N 243.887 0.651787 -1.4349 0
M  V30 2554 C 244.85 1.74647 -1.48429 0
M  V30 2555 C 245.85 1.56513 -0.368817 0
M  V30 2556 O 247.04 1.62385 -0.630623 0
M  V30 2557 C 244.172 3.13533 -1.33827 0
M  V30 2558 H 245.365 1.71649 -2.4592 0
M  V30 2559 H 242.918 0.863573 -1.30277 0
M  V30 2560 H 243.653 3.22142 -0.37349 0
M  V30 2561 H 243.438 3.28101 -2.14691 0
M  V30 2562 H 244.928 3.93356 -1.40218 0
M  V30 2563 N 245.365 1.30045 0.890287 0
M  V30 2564 C 246.295 1.18541 2.01172 0
M  V30 2565 C 247.276 0.0773356 1.69924 0
M  V30 2566 O 248.461 0.25845 1.92473 0
M  V30 2567 C 245.591 0.870941 3.36202 0
M  V30 2568 C 244.545 1.93637 3.81692 0
M  V30 2569 C 243.871 1.475 5.13953 0
M  V30 2570 C 245.171 3.34666 4.00994 0
M  V30 2571 H 246.865 2.12359 2.11054 0
M  V30 2572 H 244.411 1.02238 1.01407 0
M  V30 2573 H 246.364 0.777141 4.14172 0
M  V30 2574 H 245.088 -0.102926 3.26438 0
M  V30 2575 H 243.747 2.01972 3.05946 0
M  V30 2576 H 243.395 0.489551 5.00612 0
M  V30 2577 H 243.095 2.1876 5.4536 0
M  V30 2578 H 244.619 1.39489 5.94454 0
M  V30 2579 H 246.033 3.2912 4.69417 0
M  V30 2580 H 244.43 4.03966 4.43769 0
M  V30 2581 H 245.5 3.76949 3.05021 0
M  V30 2582 N 246.843 -1.10192 1.12674 0
M  V30 2583 C 248.073 -1.85713 0.905213 0
M  V30 2584 C 248.481 -1.81056 -0.549108 0
M  V30 2585 O 247.824 -1.19927 -1.39151 0
M  V30 2586 C 247.886 -3.34972 1.30516 0
M  V30 2587 C 247.55 -3.63385 2.77129 0
M  V30 2588 C 248.547 -3.59772 3.75313 0
M  V30 2589 C 246.232 -3.91981 3.14096 0
M  V30 2590 C 248.226 -3.84354 5.08479 0
M  V30 2591 C 245.913 -4.16218 4.47443 0
M  V30 2592 C 246.911 -4.12395 5.44444 0
M  V30 2593 O 246.599 -4.36014 6.75387 0
M  V30 2594 H 246.331 -0.593719 0.323223 0
M  V30 2595 H 248.885 -1.40198 1.50112 0
M  V30 2596 H 247.115 -3.81156 0.652463 0
M  V30 2597 H 248.804 -3.91886 1.05736 0
M  V30 2598 H 249.57 -3.37716 3.48099 0
M  V30 2599 H 245.449 -3.94085 2.39202 0
M  V30 2600 H 248.993 -3.81285 5.84181 0
M  V30 2601 H 244.89 -4.37754 4.74386 0
M  V30 2602 H 245.658 -4.53516 6.8137 0
M  V30 2603 N 248.321 -0.919034 -1.28029 0
M  V30 2604 C 249.567 -0.555757 -1.95036 0
M  V30 2605 C 249.9 0.899198 -1.72128 0
M  V30 2606 O 249.175 1.64023 -1.04531 0
M  V30 2607 C 249.458 -0.872024 -3.49382 0
M  V30 2608 C 249.311 -2.3801 -3.81669 0
M  V30 2609 C 250.63 -0.37185 -4.38526 0
M  V30 2610 H 247.749 -0.203386 -0.708381 0
M  V30 2611 H 250.391 -1.14924 -1.51303 0
M  V30 2612 H 248.541 -0.366946 -3.86763 0
M  V30 2613 H 250.213 -2.9562 -3.54128 0
M  V30 2614 H 248.456 -2.83289 -3.28526 0
M  V30 2615 H 249.127 -2.55192 -4.8947 0
M  V30 2616 H 251.603 -0.804602 -4.08247 0
M  V30 2617 H 250.479 -0.622173 -5.45362 0
M  V30 2618 H 250.74 0.727934 -4.36066 0
M  V30 2619 N 249.799 1.42003 -0.683588 0
M  V30 2620 C 250.709 2.34597 -0.0109075 0
M  V30 2621 C 251.725 1.55576 0.779245 0
M  V30 2622 O 252.901 1.88107 0.719555 0
M  V30 2623 C 249.966 3.34199 0.922588 0
M  V30 2624 C 249.027 4.29115 0.125984 0
M  V30 2625 C 248.26 5.23959 1.01502 0
M  V30 2626 O 248.483 5.23952 2.25456 0
M  V30 2627 O 247.417 6.00053 0.47111 0
M  V30 2628 H 251.243 2.93675 -0.773853 0
M  V30 2629 H 248.828 1.42654 -0.443861 0
M  V30 2630 H 250.71 3.95365 1.45823 0
M  V30 2631 H 249.385 2.77582 1.66523 0
M  V30 2632 H 248.292 3.71335 -0.453969 0
M  V30 2633 H 249.625 4.88798 -0.577736 0
M  V30 2634 N 251.277 0.427512 1.51691 0
M  V30 2635 C 252.225 -0.403359 2.29076 0
M  V30 2636 C 253.219 -1.02962 1.34518 0
M  V30 2637 O 254.425 -0.965715 1.51901 0
M  V30 2638 H 250.8 -0.148879 0.737115 0
M  V30 2639 H 252.771 0.270295 2.97173 0
M  V30 2640 C 251.52 -1.49763 3.13794 0
M  V30 2641 H 250.843 -1.02508 3.86435 0
M  V30 2642 H 252.283 -2.05244 3.71014 0
M  V30 2643 C 250.742 -2.47536 2.28533 0
M  V30 2644 O 251.272 -3.51848 1.93819 0
M  V30 2645 N 249.478 -2.18187 1.91945 0
M  V30 2646 H 249.025 -1.33389 2.20375 0
M  V30 2647 H 248.983 -2.83848 1.35195 0
M  V30 2648 N 252.755 -1.56801 0.158532 0
M  V30 2649 C 253.687 -2.14488 -0.807923 0
M  V30 2650 C 254.7 -1.09721 -1.20271 0
M  V30 2651 O 255.889 -1.36956 -1.14478 0
M  V30 2652 C 252.989 -2.66217 -2.09718 0
M  V30 2653 C 252.162 -3.95507 -1.86796 0
M  V30 2654 C 251.221 -4.3243 -2.99818 0
M  V30 2655 O 250.247 -5.00543 -2.71008 0
M  V30 2656 N 251.449 -3.92947 -4.27285 0
M  V30 2657 H 254.214 -2.98042 -0.314816 0
M  V30 2658 H 251.775 -1.61881 -0.0246692 0
M  V30 2659 H 253.767 -2.87924 -2.84398 0
M  V30 2660 H 252.337 -1.87324 -2.50257 0
M  V30 2661 H 251.557 -3.82309 -0.96089 0
M  V30 2662 H 252.845 -4.79972 -1.68833 0
M  V30 2663 H 252.243 -3.38087 -4.53557 0
M  V30 2664 H 250.8 -4.19681 -4.9871 0
M  V30 2665 N 254.233 0.115231 -1.57178 0
M  V30 2666 C 255.48 0.822351 -1.8505 0
M  V30 2667 C 255.808 1.79701 -0.744168 0
M  V30 2668 O 255.063 1.93909 0.26414 0
M  V30 2669 C 255.362 1.60324 -3.19423 0
M  V30 2670 C 255.028 0.772536 -4.44233 0
M  V30 2671 C 253.69 0.543468 -4.78121 0
M  V30 2672 C 256.042 0.193746 -5.2084 0
M  V30 2673 C 253.37 -0.274583 -5.86057 0
M  V30 2674 C 255.722 -0.611517 -6.29637 0
M  V30 2675 C 254.386 -0.850867 -6.62055 0
M  V30 2676 H 253.656 0.30092 -0.677147 0
M  V30 2677 H 256.303 0.0845802 -1.91313 0
M  V30 2678 H 254.608 2.41203 -3.08753 0
M  V30 2679 H 256.305 2.1544 -3.38211 0
M  V30 2680 H 252.895 0.96117 -4.17683 0
M  V30 2681 H 257.079 0.357926 -4.95008 0
M  V30 2682 H 252.335 -0.469206 -6.09597 0
M  V30 2683 H 256.509 -1.06697 -6.88178 0
M  V30 2684 H 254.136 -1.48657 -7.45523 0
M  V30 2685 N 255.711 1.52812 0.385517 0
M  V30 2686 C 257.127 1.4214 0.725829 0
M  V30 2687 C 257.327 0.544589 1.94001 0
M  V30 2688 O 256.383 0.0193693 2.52493 0
M  V30 2689 C 257.696 2.85042 0.957668 0
M  V30 2690 C 259.244 2.94543 1.05892 0
M  V30 2691 C 259.719 4.38464 1.32337 0
M  V30 2692 N 261.21 4.41804 1.39151 0
M  V30 2693 C 261.945 5.5025 1.61285 0
M  V30 2694 N 261.441 6.68775 1.80866 0
M  V30 2695 N 263.234 5.37798 1.63492 0
M  V30 2696 H 255.385 2.08338 -0.413383 0
M  V30 2697 H 257.648 0.940016 -0.122775 0
M  V30 2698 H 257.354 3.51431 0.137568 0
M  V30 2699 H 257.228 3.27505 1.87137 0
M  V30 2700 H 259.615 2.28321 1.86959 0
M  V30 2701 H 259.696 2.55504 0.123057 0
M  V30 2702 H 259.34 5.05254 0.517793 0
M  V30 2703 H 259.27 4.75059 2.27214 0
M  V30 2704 H 261.761 3.56377 1.25713 0
M  V30 2705 H 262.074 7.47197 1.97271 0
M  V30 2706 H 260.419 6.71797 1.78083 0
M  V30 2707 H 263.61 4.44171 1.47749 0
M  V30 2708 H 263.783 6.22382 1.80402 0
M  V30 2709 N 257.189 -0.644168 1.43834 0
M  V30 2710 C 258.099 -1.78563 1.52159 0
M  V30 2711 C 259.115 -1.69147 0.408069 0
M  V30 2712 O 260.291 -1.90156 0.663524 0
M  V30 2713 C 257.356 -3.14888 1.45073 0
M  V30 2714 C 256.417 -3.36034 2.6717 0
M  V30 2715 C 255.65 -4.65855 2.60413 0
M  V30 2716 O 255.873 -5.45805 1.65689 0
M  V30 2717 O 254.807 -4.88918 3.5106 0
M  V30 2718 H 258.633 -1.74494 2.48567 0
M  V30 2719 H 256.218 -0.80378 1.25935 0
M  V30 2720 H 258.1 -3.96179 1.43597 0
M  V30 2721 H 256.775 -3.19528 0.518037 0
M  V30 2722 H 255.682 -2.54472 2.74217 0
M  V30 2723 H 257.015 -3.36247 3.59442 0
M  V30 2724 N 258.668 -1.30515 -0.883378 0
M  V30 2725 C 259.915 -1.1943 -1.63532 0
M  V30 2726 C 260.243 0.250627 -1.92878 0
M  V30 2727 O 259.498 1.19556 -1.54935 0
M  V30 2728 C 259.797 -1.96994 -2.98209 0
M  V30 2729 C 259.463 -3.466 -2.88408 0
M  V30 2730 C 258.125 -3.87397 -2.85442 0
M  V30 2731 C 260.477 -4.41863 -2.76418 0
M  V30 2732 C 257.805 -5.21745 -2.68327 0
M  V30 2733 C 260.157 -5.7632 -2.60841 0
M  V30 2734 C 258.821 -6.16354 -2.56251 0
M  V30 2735 H 258.091 -0.437025 -0.598406 0
M  V30 2736 H 260.738 -1.61635 -1.02696 0
M  V30 2737 H 259.043 -1.47429 -3.63004 0
M  V30 2738 H 260.74 -1.85808 -3.55354 0
M  V30 2739 H 257.33 -3.14182 -2.91527 0
M  V30 2740 H 261.514 -4.11285 -2.77775 0
M  V30 2741 H 256.77 -5.51853 -2.63189 0
M  V30 2742 H 260.944 -6.49772 -2.50538 0
M  V30 2743 H 258.571 -7.20401 -2.42748 0
M  V30 2744 N 260.146 1.09593 -1.13257 0
M  V30 2745 C 261.093 2.1618 -0.808381 0
M  V30 2746 C 262.063 1.64517 0.228754 0
M  V30 2747 O 263.248 1.9053 0.101381 0
M  V30 2748 C 260.388 3.43973 -0.278675 0
M  V30 2749 C 259.501 4.09545 -1.37466 0
M  V30 2750 C 258.636 5.25088 -0.803479 0
M  V30 2751 C 257.675 5.82579 -1.87799 0
M  V30 2752 N 256.812 6.89486 -1.32488 0
M  V30 2753 H 261.652 2.43254 -1.72138 0
M  V30 2754 H 259.189 1.19392 -0.859294 0
M  V30 2755 H 261.147 4.17174 0.0465583 0
M  V30 2756 H 259.777 3.17223 0.597459 0
M  V30 2757 H 258.829 3.34226 -1.81652 0
M  V30 2758 H 260.141 4.48307 -2.18684 0
M  V30 2759 H 259.295 6.05178 -0.429427 0
M  V30 2760 H 258.034 4.87684 0.0397956 0
M  V30 2761 H 257.039 5.01152 -2.26113 0
M  V30 2762 H 258.264 6.22045 -2.72463 0
M  V30 2763 H 256.21 6.54064 -0.503575 0
M  V30 2764 H 256.127 7.27007 -2.07355 0
M  V30 2765 H 257.395 7.73336 -0.978336 0
M  V30 2766 N 261.624 0.925811 1.2754 0
M  V30 2767 C 262.554 0.440748 2.29303 0
M  V30 2768 C 263.535 -0.497971 1.62648 0
M  V30 2769 O 264.72 -0.403126 1.8997 0
M  V30 2770 C 261.85 -0.309048 3.45922 0
M  V30 2771 C 260.804 0.54166 4.24559 0
M  V30 2772 C 260.13 -0.337191 5.33636 0
M  V30 2773 C 261.43 1.80516 4.90114 0
M  V30 2774 H 263.124 1.29121 2.70126 0
M  V30 2775 H 260.67 0.622323 1.29858 0
M  V30 2776 H 262.623 -0.659315 4.1621 0
M  V30 2777 H 261.347 -1.19352 3.04011 0
M  V30 2778 H 260.006 0.874609 3.56014 0
M  V30 2779 H 259.654 -1.22056 4.87966 0
M  V30 2780 H 259.354 0.228497 5.87156 0
M  V30 2781 H 260.878 -0.683072 6.06767 0
M  V30 2782 H 262.292 1.52307 5.52698 0
M  V30 2783 H 260.689 2.3142 5.53683 0
M  V30 2784 H 261.759 2.52581 4.13921 0
M  V30 2785 N 263.102 -1.41638 0.69111 0
M  V30 2786 C 264.327 -2.06148 0.227583 0
M  V30 2787 C 264.752 -1.51652 -1.11281 0
M  V30 2788 O 264.11 -0.64164 -1.69566 0
M  V30 2789 C 264.158 -3.60095 0.190858 0
M  V30 2790 O 263.262 -4.03845 -0.835664 0
M  V30 2791 H 262.603 -0.654434 0.112306 0
M  V30 2792 H 265.133 -1.81484 0.944714 0
M  V30 2793 H 265.143 -4.07995 0.020207 0
M  V30 2794 H 263.818 -3.99129 1.16915 0
M  V30 2795 H 262.395 -3.67458 -0.63473 0
M  V30 2796 N 264.58 -0.43555 -1.51462 0
M  V30 2797 C 265.527 0.376797 -2.27703 0
M  V30 2798 C 266.497 1.01838 -1.31219 0
M  V30 2799 O 267.682 1.03762 -1.60119 0
M  V30 2800 C 264.822 1.47301 -3.12084 0
M  V30 2801 C 263.935 0.849744 -4.2356 0
M  V30 2802 C 263.07 1.92086 -4.95254 0
M  V30 2803 C 262.109 1.27593 -5.98654 0
M  V30 2804 N 261.246 2.28833 -6.63762 0
M  V30 2805 H 266.086 -0.279734 -2.96684 0
M  V30 2806 H 263.623 -0.149795 -1.46335 0
M  V30 2807 H 265.581 2.11984 -3.59331 0
M  V30 2808 H 264.211 2.0992 -2.45221 0
M  V30 2809 H 263.263 0.0912529 -3.80291 0
M  V30 2810 H 264.575 0.338878 -4.97648 0
M  V30 2811 H 263.729 2.64435 -5.46039 0
M  V30 2812 H 262.468 2.46545 -4.20793 0
M  V30 2813 H 261.473 0.537893 -5.47162 0
M  V30 2814 H 262.698 0.738693 -6.7507 0
M  V30 2815 H 260.644 2.82375 -5.92115 0
M  V30 2816 H 260.561 1.82632 -7.33608 0
M  V30 2817 H 261.829 3.00671 -7.19178 0
M  V30 2818 N 266.058 1.56714 -0.166846 0
M  V30 2819 C 267.304 1.97039 0.479962 0
M  V30 2820 C 267.637 1.05264 1.63197 0
M  V30 2821 O 266.912 0.0988833 1.94248 0
M  V30 2822 C 267.195 3.46867 0.967212 0
M  V30 2823 C 267.048 4.49421 -0.18466 0
M  V30 2824 C 268.367 3.9968 1.84238 0
M  V30 2825 H 265.486 0.71641 0.172992 0
M  V30 2826 H 268.128 1.8832 -0.252079 0
M  V30 2827 H 266.278 3.54428 1.59101 0
M  V30 2828 H 267.95 4.53924 -0.821621 0
M  V30 2829 H 266.193 4.25573 -0.840837 0
M  V30 2830 H 266.864 5.51644 0.198317 0
M  V30 2831 H 269.34 3.94723 1.31655 0
M  V30 2832 H 268.216 5.04941 2.15234 0
M  V30 2833 H 268.477 3.43226 2.78654 0
M  V30 2834 N 267.536 -0.106894 1.57237 0
M  V30 2835 C 268.782 -0.808678 1.86633 0
M  V30 2836 C 269.137 -1.76917 0.756178 0
M  V30 2837 O 268.43 -1.90055 -0.242834 0
M  V30 2838 C 268.624 -1.58628 3.20268 0
M  V30 2839 C 268.453 -0.702592 4.44178 0
M  V30 2840 C 267.223 -0.352808 5.04067 0
M  V30 2841 C 269.421 -0.0148031 5.14298 0
M  V30 2842 N 267.403 0.540279 6.11518 0
M  V30 2843 C 268.774 0.736809 6.15606 0
M  V30 2844 C 270.829 0.0603524 4.97863 0
M  V30 2845 C 269.532 1.55654 7.02257 0
M  V30 2846 C 271.558 0.866942 5.85011 0
M  V30 2847 C 270.92 1.60671 6.85831 0
M  V30 2848 H 267.019 -0.27246 0.733001 0
M  V30 2849 H 269.603 -0.0717858 1.94568 0
M  V30 2850 H 267.774 -2.29413 3.13408 0
M  V30 2851 H 269.506 -2.23434 3.3743 0
M  V30 2852 H 266.261 -0.697802 4.68431 0
M  V30 2853 H 266.685 0.979029 6.69884 0
M  V30 2854 H 271.327 -0.497236 4.19866 0
M  V30 2855 H 269.045 2.12524 7.79653 0
M  V30 2856 H 272.631 0.927612 5.74358 0
M  V30 2857 H 271.511 2.2208 7.52097 0
M  V30 2858 N 269.014 -1.53014 -0.377408 0
M  V30 2859 C 270.43 -1.42523 -0.718281 0
M  V30 2860 C 270.63 -0.55487 -1.9371 0
M  V30 2861 O 269.686 -0.0327593 -2.52479 0
M  V30 2862 C 270.999 -2.85546 -0.942539 0
M  V30 2863 C 272.547 -2.95101 -1.04329 0
M  V30 2864 C 273.022 -4.3916 -1.3001 0
M  V30 2865 N 274.513 -4.42536 -1.36806 0
M  V30 2866 C 275.248 -5.51097 -1.58364 0
M  V30 2867 N 274.744 -6.69724 -1.77317 0
M  V30 2868 N 276.537 -5.38657 -1.60638 0
M  V30 2869 H 268.688 -2.08116 0.424426 0
M  V30 2870 H 270.951 -0.939352 0.127759 0
M  V30 2871 H 270.657 -3.51499 -0.118929 0
M  V30 2872 H 270.531 -3.28493 -1.85397 0
M  V30 2873 H 272.918 -2.29309 -1.85745 0
M  V30 2874 H 272.999 -2.55566 -0.109505 0
M  V30 2875 H 272.643 -5.05521 -0.490991 0
M  V30 2876 H 272.573 -4.76258 -2.24691 0
M  V30 2877 H 275.064 -3.57039 -1.23821 0
M  V30 2878 H 275.377 -7.48233 -1.93306 0
M  V30 2879 H 273.722 -6.72732 -1.74518 0
M  V30 2880 H 276.913 -4.44948 -1.45391 0
M  V30 2881 H 277.086 -6.2333 -1.77098 0
M  V30 2882 N 270.492 0.636531 -1.44174 0
M  V30 2883 C 271.769 1.39463 -1.37148 0
M  V30 2884 C 272.149 2.11082 -0.027507 0
M  V30 2885 O 271.497 2.05954 0.989716 0
M  V30 2886 C 271.707 2.36552 -2.56601 0
M  V30 2887 C 273.055 3.00048 -3.00427 0
M  V30 2888 O 274.079 2.46878 -2.56767 0
M  V30 2889 O 272.938 3.96488 -3.76111 0
M  V30 2890 H 270.032 0.623903 -0.542839 0
M  V30 2891 H 272.578 0.662039 -1.56253 0
M  V30 2892 H 271.35 1.82692 -3.46034 0
M  V30 2893 H 270.973 3.17236 -2.39681 0
M  V30 2894 N 271.97 1.30982 0.876444 0
M  V30 2895 C 272.902 1.13902 1.98894 0
M  V30 2896 C 273.915 0.0798815 1.62604 0
M  V30 2897 O 275.104 0.326743 1.75484 0
M  V30 2898 C 272.204 0.716699 3.31235 0
M  V30 2899 C 271.377 1.85945 3.95908 0
M  V30 2900 C 270.436 1.42426 5.06558 0
M  V30 2901 O 269.462 2.13287 5.27729 0
M  V30 2902 N 270.664 0.308025 5.79682 0
M  V30 2903 H 273.429 2.09724 2.14094 0
M  V30 2904 H 270.99 1.2323 1.05004 0
M  V30 2905 H 272.982 0.408403 4.02634 0
M  V30 2906 H 271.552 -0.149719 3.12241 0
M  V30 2907 H 270.772 2.33541 3.17573 0
M  V30 2908 H 272.06 2.62503 4.35855 0
M  V30 2909 H 271.458 -0.282241 5.64995 0
M  V30 2910 H 270.015 0.0592282 6.51773 0
M  V30 2911 N 273.449 -1.08991 1.13837 0
M  V30 2912 C 274.399 -2.1393 0.788535 0
M  V30 2913 C 275.383 -1.59396 -0.219516 0
M  V30 2914 O 276.575 -1.76985 -0.0227557 0
M  V30 2915 C 273.704 -3.42305 0.261147 0
M  V30 2916 C 272.79 -4.03736 1.29837 0
M  V30 2917 N 273.181 -4.39659 2.50067 0
M  V30 2918 C 271.479 -4.30993 1.1472 0
M  V30 2919 C 272.18 -4.88113 3.16419 0
M  V30 2920 N 271.156 -4.85846 2.43832 0
M  V30 2921 H 274.958 -2.39516 1.70322 0
M  V30 2922 H 272.472 -1.26263 1.02134 0
M  V30 2923 H 274.469 -4.16899 -0.0077405 0
M  V30 2924 H 273.129 -3.18172 -0.647805 0
M  V30 2925 H 274.14 -4.30878 2.8734 0
M  V30 2926 H 270.817 -4.16444 0.296773 0
M  V30 2927 H 272.207 -5.25336 4.18894 0
M  V30 2928 N 274.927 -0.932562 -1.27047 0
M  V30 2929 C 276.174 -0.575559 -1.94148 0
M  V30 2930 C 276.502 0.883984 -1.73251 0
M  V30 2931 O 275.757 1.64655 -1.0577 0
M  V30 2932 C 276.056 -0.853713 -3.47054 0
M  V30 2933 C 275.722 -2.29577 -3.88079 0
M  V30 2934 C 274.384 -2.68999 -3.9899 0
M  V30 2935 C 276.736 -3.23331 -4.08787 0
M  V30 2936 C 274.064 -4.01289 -4.28 0
M  V30 2937 C 276.416 -4.55207 -4.39282 0
M  V30 2938 C 275.08 -4.94457 -4.48407 0
M  V30 2939 H 274.35 -0.210612 -0.710439 0
M  V30 2940 H 276.997 -1.17744 -1.51025 0
M  V30 2941 H 275.302 -0.169204 -3.91434 0
M  V30 2942 H 276.999 -0.55639 -3.97121 0
M  V30 2943 H 273.589 -1.97994 -3.80127 0
M  V30 2944 H 277.773 -2.94074 -3.99793 0
M  V30 2945 H 273.029 -4.31374 -4.33275 0
M  V30 2946 H 277.203 -5.27852 -4.54252 0
M  V30 2947 H 274.83 -5.96994 -4.7064 0
M  V30 2948 N 276.405 1.4127 -0.698611 0
M  V30 2949 C 277.651 2.01478 -0.231207 0
M  V30 2950 C 277.984 1.55215 1.16713 0
M  V30 2951 O 277.259 0.764672 1.78838 0
M  V30 2952 C 277.542 3.58912 -0.292281 0
M  V30 2953 C 277.395 4.15293 -1.72778 0
M  V30 2954 C 278.714 4.38736 0.346194 0
M  V30 2955 H 275.833 0.732025 -0.0854878 0
M  V30 2956 H 278.475 1.67977 -0.887906 0
M  V30 2957 H 276.625 3.87582 0.26686 0
M  V30 2958 H 278.297 3.97486 -2.341 0
M  V30 2959 H 276.54 3.7022 -2.26096 0
M  V30 2960 H 277.211 5.24452 -1.72202 0
M  V30 2961 H 279.687 4.15897 -0.130035 0
M  V30 2962 H 278.563 5.48221 0.272932 0
M  V30 2963 H 278.824 4.18425 1.42734 0
M  V30 2964 N 277.883 0.443576 1.51229 0
M  V30 2965 C 278.83 -0.364716 2.279 0
M  V30 2966 C 279.8 -1.0114 1.31757 0
M  V30 2967 O 280.985 -1.02912 1.60667 0
M  V30 2968 C 278.125 -1.45644 3.12861 0
M  V30 2969 C 277.238 -0.827269 4.24005 0
M  V30 2970 C 276.373 -1.89456 4.96266 0
M  V30 2971 C 275.412 -1.24416 5.99322 0
M  V30 2972 N 274.549 -2.25309 6.64966 0
M  V30 2973 H 279.389 0.295464 2.96532 0
M  V30 2974 H 276.926 0.157554 1.46254 0
M  V30 2975 H 278.884 -2.10076 3.6045 0
M  V30 2976 H 277.514 -2.08616 2.46331 0
M  V30 2977 H 276.566 -0.0710839 3.80334 0
M  V30 2978 H 277.878 -0.312481 4.9782 0
M  V30 2979 H 277.032 -2.61535 5.47434 0
M  V30 2980 H 275.771 -2.4431 4.22095 0
M  V30 2981 H 274.776 -0.508868 5.4744 0
M  V30 2982 H 276.001 -0.702882 6.75453 0
M  V30 2983 H 273.947 -2.79231 5.93604 0
M  V30 2984 H 273.864 -1.78739 7.34567 0
M  V30 2985 H 275.132 -2.96853 7.20763 0
M  V30 2986 N 279.361 -1.56624 0.175154 0
M  V30 2987 C 280.61 -1.96173 -0.468921 0
M  V30 2988 C 280.923 -1.06401 -1.64128 0
M  V30 2989 O 282.129 -1.35648 -2.35185 0
M  V30 2990 C 280.585 -3.48833 -0.885633 0
M  V30 2991 C 280.193 -4.47237 0.261343 0
M  V30 2992 C 281.937 -3.97194 -1.49791 0
M  V30 2993 C 279.844 -5.9114 -0.175214 0
M  V30 2994 H 278.774 -0.732455 -0.178958 0
M  V30 2995 H 281.425 -1.81591 0.263997 0
M  V30 2996 H 279.807 -3.58848 -1.67464 0
M  V30 2997 H 280.981 -4.4894 1.03871 0
M  V30 2998 H 279.296 -4.08956 0.783827 0
M  V30 2999 H 281.893 -5.02167 -1.83665 0
M  V30 3000 H 282.236 -3.40351 -2.39722 0
M  V30 3001 H 282.769 -3.90212 -0.773267 0
M  V30 3002 H 279.508 -6.51865 0.689414 0
M  V30 3003 H 279.028 -5.92735 -0.91786 0
M  V30 3004 H 280.707 -6.44044 -0.617792 0
M  V30 3005 N 280.839 0.0985539 -1.57292 0
M  V30 3006 C 281.771 1.14595 -1.98496 0
M  V30 3007 C 282.784 1.36512 -0.887031 0
M  V30 3008 O 283.973 1.35225 -1.16518 0
M  V30 3009 C 281.073 2.50216 -2.28572 0
M  V30 3010 C 280.246 2.48624 -3.59868 0
M  V30 3011 C 279.305 3.66146 -3.7792 0
M  V30 3012 O 278.331 3.48795 -4.49812 0
M  V30 3013 N 279.533 4.85496 -3.18235 0
M  V30 3014 H 282.298 0.795277 -2.88956 0
M  V30 3015 H 279.859 0.287579 -1.59325 0
M  V30 3016 H 281.851 3.27432 -2.37845 0
M  V30 3017 H 280.421 2.77387 -1.44136 0
M  V30 3018 H 279.641 1.56978 -3.61596 0
M  V30 3019 H 280.929 2.44635 -4.46129 0
M  V30 3020 H 280.327 5.02497 -2.59833 0
M  V30 3021 H 278.884 5.60317 -3.32999 0
M  V30 3022 N 282.317 1.53212 0.369288 0
M  V30 3023 C 283.563 1.69466 1.11397 0
M  V30 3024 C 283.896 0.443257 1.89074 0
M  V30 3025 O 283.171 -0.559386 1.86282 0
M  V30 3026 C 283.454 2.9422 2.07621 0
M  V30 3027 C 283.307 4.29508 1.33577 0
M  V30 3028 C 284.626 3.14565 3.07794 0
M  V30 3029 H 281.745 0.616667 0.403597 0
M  V30 3030 H 284.387 1.85845 0.395179 0
M  V30 3031 H 282.537 2.80387 2.68916 0
M  V30 3032 H 284.209 4.55147 0.750955 0
M  V30 3033 H 282.452 4.29088 0.637618 0
M  V30 3034 H 283.123 5.12926 2.03989 0
M  V30 3035 H 285.599 3.2756 2.56601 0
M  V30 3036 H 284.475 4.03297 3.72348 0
M  V30 3037 H 284.736 2.29675 3.77759 0
M  V30 3038 N 283.795 -0.628877 1.44509 0
M  V30 3039 C 284.742 -1.74074 1.51549 0
M  V30 3040 C 285.712 -1.62084 0.363021 0
M  V30 3041 O 286.897 -1.81975 0.573567 0
M  V30 3042 C 284.037 -3.12328 1.46784 0
M  V30 3043 C 283.15 -3.35277 2.72422 0
M  V30 3044 C 282.285 -4.63515 2.59475 0
M  V30 3045 C 281.324 -4.7965 3.80266 0
M  V30 3046 N 280.461 -5.99168 3.65981 0
M  V30 3047 H 285.301 -1.67392 2.46544 0
M  V30 3048 H 282.838 -0.816527 1.22357 0
M  V30 3049 H 284.796 -3.92286 1.42012 0
M  V30 3050 H 283.426 -3.18018 0.553544 0
M  V30 3051 H 282.478 -2.49242 2.87372 0
M  V30 3052 H 283.79 -3.43078 3.62076 0
M  V30 3053 H 282.944 -5.51638 2.52548 0
M  V30 3054 H 281.683 -4.58076 1.67384 0
M  V30 3055 H 280.688 -3.89957 3.87574 0
M  V30 3056 H 281.913 -4.86902 4.73395 0
M  V30 3057 H 279.859 -5.94814 2.76644 0
M  V30 3058 H 279.776 -6.08035 4.49254 0
M  V30 3059 H 281.044 -6.89846 3.6295 0
M  V30 3060 N 285.273 -1.31445 -0.869486 0
M  V30 3061 C 286.55 -1.11795 -1.60503 0
M  V30 3062 C 286.93 0.327168 -2.08549 0
M  V30 3063 O 286.278 1.32135 -1.8642 0
M  V30 3064 C 286.488 -2.13258 -2.76265 0
M  V30 3065 C 287.836 -2.45805 -3.46215 0
M  V30 3066 O 288.86 -2.11688 -2.86473 0
M  V30 3067 O 287.719 -3.04228 -4.5399 0
M  V30 3068 H 284.813 -0.430421 -0.706163 0
M  V30 3069 H 287.359 -1.42925 -0.914907 0
M  V30 3070 H 286.131 -3.10461 -2.3818 0
M  V30 3071 H 285.754 -1.83035 -3.52964 0
M  V30 3072 N 286.751 1.08385 -1.14413 0
M  V30 3073 C 287.976 1.85057 -0.936413 0
M  V30 3074 C 288.401 1.81055 0.509971 0
M  V30 3075 O 287.759 1.1958 1.36273 0
M  V30 3076 C 287.807 3.30505 -1.44217 0
M  V30 3077 O 286.911 4.07491 -0.634409 0
M  V30 3078 H 286.252 0.573425 -0.334784 0
M  V30 3079 H 288.782 1.36799 -1.52142 0
M  V30 3080 H 288.792 3.81348 -1.45043 0
M  V30 3081 H 287.467 3.32734 -2.49522 0
M  V30 3082 H 286.044 3.66368 -0.694902 0
M  V30 3083 N 288.23 0.939286 1.26551 0
M  V30 3084 C 289.193 0.451987 2.24699 0
M  V30 3085 C 290.193 -0.435869 1.5478 0
M  V30 3086 O 291.383 -0.235314 1.72603 0
M  V30 3087 C 288.515 -0.348801 3.39111 0
M  V30 3088 H 289.708 1.3193 2.69322 0
M  V30 3089 H 287.261 0.721072 1.38673 0
M  V30 3090 H 287.996 -1.23444 2.99887 0
M  V30 3091 H 287.781 0.287945 3.91041 0
M  V30 3092 H 289.271 -0.679726 4.12031 0
M  V30 3093 N 289.708 -1.40897 0.706093 0
M  V30 3094 C 290.64 -2.29199 0.00815776 0
M  V30 3095 C 291.653 -1.45336 -0.733582 0
M  V30 3096 O 292.842 -1.68727 -0.582537 0
M  V30 3097 C 289.942 -3.23417 -1.01265 0
M  V30 3098 C 289.115 -4.36089 -0.338387 0
M  V30 3099 C 288.174 -5.10811 -1.26326 0
M  V30 3100 O 287.2 -5.64215 -0.751651 0
M  V30 3101 N 288.402 -5.19269 -2.595 0
M  V30 3102 H 291.167 -2.89738 0.766297 0
M  V30 3103 H 288.728 -1.52164 0.55296 0
M  V30 3104 H 290.72 -3.70276 -1.63334 0
M  V30 3105 H 289.29 -2.64112 -1.67223 0
M  V30 3106 H 288.51 -3.91479 0.462352 0
M  V30 3107 H 289.798 -5.08634 0.130031 0
M  V30 3108 H 289.196 -4.77347 -3.03573 0
M  V30 3109 H 287.753 -5.69667 -3.16737 0
M  V30 3110 N 291.186 -0.45159 -1.50991 0
M  V30 3111 C 292.134 0.366864 -2.29689 0
M  V30 3112 C 293.128 1.00809 -1.36139 0
M  V30 3113 O 294.334 0.941427 -1.53418 0
M  V30 3114 H 290.709 0.137133 -0.739391 0
M  V30 3115 H 292.68 -0.317538 -2.96706 0
M  V30 3116 C 291.429 1.44751 -3.16137 0
M  V30 3117 H 290.752 0.963473 -3.88017 0
M  V30 3118 H 292.192 1.99315 -3.74232 0
M  V30 3119 C 290.651 2.43869 -2.32442 0
M  V30 3120 O 291.181 3.4872 -1.99392 0
M  V30 3121 N 289.387 2.15105 -1.95392 0
M  V30 3122 H 288.934 1.29866 -2.22469 0
M  V30 3123 H 288.892 2.81661 -1.39693 0
M  V30 3124 N 292.664 1.56529 -0.183458 0
M  V30 3125 C 293.889 2.02064 0.467428 0
M  V30 3126 C 294.314 1.06282 1.55196 0
M  V30 3127 O 293.672 0.0443565 1.81246 0
M  V30 3128 C 293.72 3.46122 1.01153 0
M  V30 3129 O 292.824 3.53437 2.12499 0
M  V30 3130 H 292.165 0.654726 0.110588 0
M  V30 3131 H 294.695 2.02521 -0.290917 0
M  V30 3132 H 294.705 3.85676 1.33108 0
M  V30 3133 H 293.38 4.15331 0.217533 0
M  V30 3134 H 291.957 3.2575 1.81497 0
M  V30 3135 N 294.142 -0.090211 1.57342 0
M  V30 3136 C 295.388 -0.793982 1.86611 0
M  V30 3137 C 295.721 -1.78142 0.773252 0
M  V30 3138 O 294.996 -1.93271 -0.218304 0
M  V30 3139 C 295.279 -1.51839 3.26523 0
M  V30 3140 C 295.132 -0.548609 4.46442 0
M  V30 3141 C 296.451 -2.46779 3.64401 0
M  V30 3142 H 293.57 -0.287186 0.678744 0
M  V30 3143 H 296.212 -0.0575076 1.89913 0
M  V30 3144 H 294.362 -2.14617 3.23839 0
M  V30 3145 H 296.034 0.0725513 4.61243 0
M  V30 3146 H 294.277 0.137614 4.33582 0
M  V30 3147 H 294.948 -1.09271 5.41076 0
M  V30 3148 H 297.424 -1.94089 3.68061 0
M  V30 3149 H 296.3 -2.94479 4.63221 0
M  V30 3150 H 296.561 -3.30758 2.93346 0
M  V30 3151 N 295.62 -1.53406 -0.361157 0
M  V30 3152 C 296.869 -1.69022 -1.10066 0
M  V30 3153 C 297.182 -0.450838 -1.90333 0
M  V30 3154 O 298.388 -0.487617 -2.67085 0
M  V30 3155 C 296.844 -2.98812 -2.00598 0
M  V30 3156 C 296.452 -4.30027 -1.25621 0
M  V30 3157 C 298.196 -3.23795 -2.74513 0
M  V30 3158 C 296.103 -5.50903 -2.1508 0
M  V30 3159 H 295.033 -0.629776 -0.414606 0
M  V30 3160 H 297.684 -1.79907 -0.361348 0
M  V30 3161 H 296.066 -2.8174 -2.78278 0
M  V30 3162 H 297.24 -4.57745 -0.529739 0
M  V30 3163 H 295.555 -4.11522 -0.635496 0
M  V30 3164 H 298.152 -4.11289 -3.41681 0
M  V30 3165 H 298.495 -2.40045 -3.40123 0
M  V30 3166 H 299.028 -3.41561 -2.03914 0
M  V30 3167 H 295.767 -6.37143 -1.54041 0
M  V30 3168 H 295.287 -5.27459 -2.85565 0
M  V30 3169 H 296.966 -5.85865 -2.74538 0
M  V30 3170 N 297.098 0.621204 -1.44841 0
M  V30 3171 C 298.347 1.37658 -1.47422 0
M  V30 3172 C 298.66 1.95264 -0.114629 0
M  V30 3173 O 299.866 2.71494 -0.0180199 0
M  V30 3174 C 298.322 2.49285 -2.59586 0
M  V30 3175 C 297.93 1.98149 -4.01797 0
M  V30 3176 C 299.674 3.26409 -2.71399 0
M  V30 3177 C 297.581 3.07178 -5.05367 0
M  V30 3178 H 296.511 0.517344 -0.548517 0
M  V30 3179 H 299.162 0.667257 -1.70938 0
M  V30 3180 H 297.544 3.22839 -2.29328 0
M  V30 3181 H 298.718 1.31395 -4.41669 0
M  V30 3182 H 297.033 1.33812 -3.94314 0
M  V30 3183 H 299.63 4.07706 -3.45948 0
M  V30 3184 H 299.973 3.76535 -1.77559 0
M  V30 3185 H 300.506 2.5995 -3.01116 0
M  V30 3186 H 297.245 2.61985 -6.00869 0
M  V30 3187 H 296.765 3.72542 -4.70077 0
M  V30 3188 H 298.444 3.71789 -5.29511 0
M  V30 3189 N 298.576 1.31904 0.862503 0
M  V30 3190 C 299.822 1.22197 1.61851 0
M  V30 3191 C 300.155 -0.217641 1.92977 0
M  V30 3192 O 299.43 -1.15264 1.56666 0
M  V30 3193 C 299.713 2.07378 2.94391 0
M  V30 3194 C 299.566 3.59678 2.70096 0
M  V30 3195 C 300.885 1.92891 3.95577 0
M  V30 3196 H 298.004 0.445255 0.587296 0
M  V30 3197 H 300.646 1.6177 0.99651 0
M  V30 3198 H 298.796 1.73758 3.47477 0
M  V30 3199 H 300.468 4.03472 2.23625 0
M  V30 3200 H 298.711 3.82735 2.04197 0
M  V30 3201 H 299.382 4.14595 3.64438 0
M  V30 3202 H 301.858 2.22327 3.51724 0
M  V30 3203 H 300.734 2.54781 4.86187 0
M  V30 3204 H 300.995 0.894315 4.3296 0
M  V30 3205 N 300.054 -1.07777 1.14986 0
M  V30 3206 C 301.331 -1.7699 0.832695 0
M  V30 3207 C 301.711 -2.001 -0.672561 0
M  V30 3208 O 301.059 -1.61598 -1.6155 0
M  V30 3209 C 301.269 -3.08139 1.63863 0
M  V30 3210 C 302.617 -3.8256 1.84208 0
M  V30 3211 O 303.641 -3.17939 1.60603 0
M  V30 3212 O 302.5 -4.98612 2.23714 0
M  V30 3213 H 299.594 -0.768389 0.305791 0
M  V30 3214 H 302.14 -1.14182 1.25541 0
M  V30 3215 H 300.912 -2.86909 2.6608 0
M  V30 3216 H 300.535 -3.78678 1.21197 0
M  V30 3217 N 301.532 -0.945985 -1.26051 0
M  V30 3218 C 302.479 -0.45809 -2.26208 0
M  V30 3219 C 303.449 0.484816 -1.58867 0
M  V30 3220 O 304.634 0.399969 -1.86561 0
M  V30 3221 C 301.774 0.266131 -3.44072 0
M  V30 3222 C 300.887 -0.713005 -4.26075 0
M  V30 3223 C 300.022 0.0329013 -5.3119 0
M  V30 3224 C 299.061 -0.93774 -6.04874 0
M  V30 3225 N 298.198 -0.223274 -7.01745 0
M  V30 3226 H 303.038 -1.3171 -2.67313 0
M  V30 3227 H 300.575 -0.66069 -1.31428 0
M  V30 3228 H 302.533 0.702514 -4.11243 0
M  V30 3229 H 301.163 1.08925 -3.03867 0
M  V30 3230 H 300.215 -1.26789 -3.58648 0
M  V30 3231 H 301.527 -1.45406 -4.77136 0
M  V30 3232 H 300.681 0.528335 -6.04395 0
M  V30 3233 H 299.42 0.806801 -4.8098 0
M  V30 3234 H 298.425 -1.44425 -5.30492 0
M  V30 3235 H 299.65 -1.71172 -6.57173 0
M  V30 3236 H 297.596 0.532046 -6.53839 0
M  V30 3237 H 297.513 -0.90357 -7.50581 0
M  V30 3238 H 298.781 0.250907 -7.79096 0
M  V30 3239 N 303.011 1.40521 -0.713556 0
M  V30 3240 C 303.959 2.32549 -0.0485227 0
M  V30 3241 C 304.953 1.51931 0.74922 0
M  V30 3242 O 306.159 1.67745 0.652816 0
M  V30 3243 H 302.534 0.751994 0.00311138 0
M  V30 3244 H 304.505 2.86291 -0.841443 0
M  V30 3245 C 303.254 3.36879 0.860687 0
M  V30 3246 H 302.577 3.98978 0.256246 0
M  V30 3247 H 304.017 4.03772 1.294 0
M  V30 3248 C 302.476 2.72197 1.9852 0
M  V30 3249 O 303.006 2.5837 3.07584 0
M  V30 3250 N 301.212 2.30612 1.76823 0
M  V30 3251 H 300.759 2.42059 0.881217 0
M  V30 3252 H 300.717 1.87672 2.52243 0
M  V30 3253 N 304.489 0.459591 1.5075 0
M  V30 3254 C 305.737 -0.0991532 2.01857 0
M  V30 3255 C 306.058 -1.41247 1.34441 0
M  V30 3256 O 305.328 -1.89775 0.486022 0
M  V30 3257 H 303.908 -0.039633 0.745948 0
M  V30 3258 H 306.57 0.607387 1.85194 0
M  V30 3259 H 305.666 -0.258998 3.11023 0
M  V30 3260 N 305.967 -1.56429 0.191757 0
M  V30 3261 C 307.383 -1.58754 -0.164137 0
M  V30 3262 C 307.583 -1.20782 -1.61288 0
M  V30 3263 O 306.639 -0.928999 -2.34789 0
M  V30 3264 C 307.952 -3.00396 0.135195 0
M  V30 3265 C 309.5 -3.1291 0.0750351 0
M  V30 3266 C 309.975 -4.56679 0.347632 0
M  V30 3267 N 311.466 -4.62252 0.296131 0
M  V30 3268 C 312.201 -5.71379 0.480948 0
M  V30 3269 N 311.697 -6.88986 0.725933 0
M  V30 3270 N 313.49 -5.60563 0.415435 0
M  V30 3271 H 305.641 -1.79393 1.13718 0
M  V30 3272 H 307.904 -0.832414 0.453643 0
M  V30 3273 H 307.61 -3.32726 1.13958 0
M  V30 3274 H 307.484 -3.72963 -0.563773 0
M  V30 3275 H 309.871 -2.80394 -0.919948 0
M  V30 3276 H 309.952 -2.42736 0.807029 0
M  V30 3277 H 309.596 -4.89907 1.33992 0
M  V30 3278 H 309.526 -5.25039 -0.405212 0
M  V30 3279 H 312.017 -3.7773 0.113259 0
M  V30 3280 H 312.33 -7.68046 0.855857 0
M  V30 3281 H 310.675 -6.90801 0.762788 0
M  V30 3282 H 313.866 -4.67561 0.224486 0
M  V30 3283 H 314.039 -6.45551 0.562889 0
M  V30 3284 N 307.445 0.0818655 -1.57387 0
M  V30 3285 C 308.375 1.09885 -2.06028 0
M  V30 3286 C 309.356 1.4098 -0.951774 0
M  V30 3287 O 310.541 1.50781 -1.22387 0
M  V30 3288 C 307.671 2.4151 -2.4958 0
M  V30 3289 C 306.625 2.24792 -3.64215 0
M  V30 3290 C 305.951 3.61712 -3.93787 0
M  V30 3291 C 307.251 1.67749 -4.94629 0
M  V30 3292 H 308.945 0.694128 -2.91243 0
M  V30 3293 H 306.491 0.332448 -1.4011 0
M  V30 3294 H 308.444 3.12939 -2.82219 0
M  V30 3295 H 307.168 2.83943 -1.61381 0
M  V30 3296 H 305.827 1.55807 -3.31843 0
M  V30 3297 H 305.475 4.01697 -3.02735 0
M  V30 3298 H 305.175 3.51368 -4.70971 0
M  V30 3299 H 306.699 4.34587 -4.28913 0
M  V30 3300 H 308.113 2.29032 -5.25564 0
M  V30 3301 H 306.51 1.68128 -5.76067 0
M  V30 3302 H 307.58 0.638059 -4.80684 0
M  V30 3303 N 308.923 1.53595 0.353017 0
M  V30 3304 C 310.169 1.70638 1.09593 0
M  V30 3305 C 310.502 0.463286 1.88593 0
M  V30 3306 O 309.777 -0.539597 1.86865 0
M  V30 3307 C 310.06 2.96406 2.04489 0
M  V30 3308 C 309.913 4.30901 1.29014 0
M  V30 3309 C 311.232 3.17812 3.0444 0
M  V30 3310 H 308.351 0.620913 0.397034 0
M  V30 3311 H 310.993 1.86254 0.375446 0
M  V30 3312 H 309.143 2.83223 2.65927 0
M  V30 3313 H 310.815 4.55917 0.702638 0
M  V30 3314 H 309.058 4.29741 0.592071 0
M  V30 3315 H 309.729 5.1506 1.98537 0
M  V30 3316 H 312.205 3.30263 2.53112 0
M  V30 3317 H 311.081 4.07223 3.6805 0
M  V30 3318 H 311.342 2.33669 3.75301 0
M  V30 3319 N 310.401 -0.613514 1.45168 0
M  V30 3320 C 311.631 -1.39743 1.52169 0
M  V30 3321 C 312.039 -1.88596 0.151086 0
M  V30 3322 O 311.382 -1.6251 -0.856521 0
M  V30 3323 C 311.444 -2.64035 2.43979 0
M  V30 3324 C 311.108 -2.36861 3.90827 0
M  V30 3325 C 312.105 -1.97591 4.80889 0
M  V30 3326 C 309.79 -2.49956 4.35692 0
M  V30 3327 C 311.784 -1.71768 6.1382 0
M  V30 3328 C 309.471 -2.23747 5.68665 0
M  V30 3329 C 310.469 -1.84714 6.57548 0
M  V30 3330 O 310.157 -1.58809 7.88058 0
M  V30 3331 H 309.889 -0.434382 0.517966 0
M  V30 3332 H 312.443 -0.75587 1.90986 0
M  V30 3333 H 310.673 -3.3089 2.00122 0
M  V30 3334 H 312.362 -3.26069 2.41731 0
M  V30 3335 H 313.128 -1.87015 4.47493 0
M  V30 3336 H 309.007 -2.79305 3.66756 0
M  V30 3337 H 312.551 -1.41227 6.83155 0
M  V30 3338 H 308.448 -2.33938 6.01617 0
M  V30 3339 H 309.216 -1.7291 8.00028 0
M  V30 3340 N 311.879 -1.3236 -0.855495 0
M  V30 3341 C 312.809 -1.23833 -1.97958 0
M  V30 3342 C 313.79 -0.122361 -1.69659 0
M  V30 3343 O 314.975 -0.30939 -1.9172 0
M  V30 3344 C 312.105 -0.959772 -3.33775 0
M  V30 3345 C 311.059 -2.03689 -3.76424 0
M  V30 3346 C 310.385 -1.61075 -5.09862 0
M  V30 3347 C 311.685 -3.4518 -3.9198 0
M  V30 3348 H 313.379 -2.1788 -2.0535 0
M  V30 3349 H 310.925 -1.04891 -0.986605 0
M  V30 3350 H 312.878 -0.886678 -4.11966 0
M  V30 3351 H 311.602 0.0163404 -3.26596 0
M  V30 3352 H 310.261 -2.10012 -3.00484 0
M  V30 3353 H 309.909 -0.622107 -4.99138 0
M  V30 3354 H 309.609 -2.33143 -5.39368 0
M  V30 3355 H 311.133 -1.55201 -5.90546 0
M  V30 3356 H 312.547 -3.4145 -4.60526 0
M  V30 3357 H 310.944 -4.1559 -4.32903 0
M  V30 3358 H 312.014 -3.84903 -2.94919 0
M  V30 3359 N 313.357 1.07166 -1.15556 0
M  V30 3360 C 314.603 1.80065 -0.932984 0
M  V30 3361 C 314.936 1.86586 0.53845 0
M  V30 3362 O 314.211 1.35098 1.39924 0
M  V30 3363 C 314.494 3.25022 -1.55025 0
M  V30 3364 C 314.347 3.26634 -3.09242 0
M  V30 3365 C 315.666 4.22341 -1.2376 0
M  V30 3366 H 312.785 0.653697 -0.340366 0
M  V30 3367 H 315.427 1.25389 -1.4275 0
M  V30 3368 H 313.577 3.71712 -1.12972 0
M  V30 3369 H 315.249 2.88173 -3.60214 0
M  V30 3370 H 313.492 2.65539 -3.43033 0
M  V30 3371 H 314.163 4.28854 -3.47546 0
M  V30 3372 H 316.639 3.8405 -1.60139 0
M  V30 3373 H 315.515 5.22053 -1.69564 0
M  V30 3374 H 315.776 4.41828 -0.154938 0
M  V30 3375 N 314.835 0.952656 1.25548 0
M  V30 3376 C 315.745 0.47782 2.29682 0
M  V30 3377 C 316.761 -0.453859 1.67977 0
M  V30 3378 O 317.937 -0.330587 1.98668 0
M  V30 3379 C 315.002 -0.238655 3.45878 0
M  V30 3380 C 314.063 0.730994 4.23031 0
M  V30 3381 C 313.296 0.0486165 5.33678 0
M  V30 3382 O 313.519 -1.16612 5.58353 0
M  V30 3383 O 312.453 0.733152 5.97418 0
M  V30 3384 H 316.279 1.34312 2.72386 0
M  V30 3385 H 313.864 0.719026 1.30959 0
M  V30 3386 H 315.746 -0.641774 4.16484 0
M  V30 3387 H 314.421 -1.07916 3.05181 0
M  V30 3388 H 313.328 1.18428 3.5486 0
M  V30 3389 H 314.661 1.53946 4.67506 0
M  V30 3390 N 316.313 -1.40141 0.720998 0
M  V30 3391 C 317.261 -2.3252 0.0608547 0
M  V30 3392 C 318.255 -1.52326 -0.741152 0
M  V30 3393 O 319.461 -1.68089 -0.643911 0
M  V30 3394 H 315.836 -0.751999 0.000876664 0
M  V30 3395 H 317.807 -2.8584 0.856614 0
M  V30 3396 C 316.556 -3.37331 -0.842809 0
M  V30 3397 H 315.879 -3.99108 -0.235084 0
M  V30 3398 H 317.319 -4.04452 -1.27257 0
M  V30 3399 C 315.778 -2.73246 -1.97074 0
M  V30 3400 O 316.308 -2.59998 -3.06209 0
M  V30 3401 N 314.514 -2.31547 -1.75597 0
M  V30 3402 H 314.061 -2.42522 -0.868368 0
M  V30 3403 H 314.019 -1.89007 -2.51244 0
M  V30 3404 N 317.792 -0.46758 -1.50504 0
M  V30 3405 C 319.203 -0.0116166 -1.86696 0
M  V30 3406 C 319.554 1.39202 -1.38265 0
M  V30 3407 O 318.679 2.0313 -0.746132 0
M  V30 3408 C 319.274 -0.0143044 -3.38797 0
M  V30 3409 C 317.833 0.386175 -3.74414 0
M  V30 3410 C 316.98 -0.401287 -2.74381 0
M  V30 3411 H 319.931 -0.682022 -1.43297 0
M  V30 3412 H 319.952 0.788641 -3.72237 0
M  V30 3413 H 319.464 -1.03602 -3.74016 0
M  V30 3414 H 317.565 1.41237 -3.44794 0
M  V30 3415 H 317.678 0.0899596 -4.79016 0
M  V30 3416 H 316.042 0.144536 -2.5429 0
M  V30 3417 H 316.825 -1.42244 -3.12444 0
M  V30 3418 N 319.27 1.56325 -0.20005 0
M  V30 3419 C 320.518 1.97329 0.436547 0
M  V30 3420 C 320.839 1.08826 1.61808 0
M  V30 3421 O 320.109 0.160604 1.95241 0
M  V30 3422 H 318.689 0.728714 0.164272 0
M  V30 3423 H 321.351 1.92761 -0.287937 0
M  V30 3424 H 320.447 3.02264 0.777353 0
M  V30 3425 N 320.748 -0.0735177 1.57428 0
M  V30 3426 C 321.996 -0.771472 1.86796 0
M  V30 3427 C 322.317 -1.78201 0.791804 0
M  V30 3428 O 321.587 -1.95074 -0.179718 0
M  V30 3429 H 320.167 -0.28791 0.689287 0
M  V30 3430 H 322.829 -0.0500161 1.94836 0
M  V30 3431 H 321.925 -1.28874 2.8425 0
M  V30 3432 N 322.226 -1.5378 -0.344866 0
M  V30 3433 C 323.456 -1.74646 -1.10374 0
M  V30 3434 C 323.864 -0.48491 -1.8288 0
M  V30 3435 O 323.207 0.553062 -1.75177 0
M  V30 3436 C 323.269 -2.87145 -2.16306 0
M  V30 3437 C 322.933 -4.26795 -1.63386 0
M  V30 3438 C 323.93 -5.08412 -1.08688 0
M  V30 3439 C 321.615 -4.73276 -1.68272 0
M  V30 3440 C 323.609 -6.34609 -0.595792 0
M  V30 3441 C 321.296 -5.99446 -1.18776 0
M  V30 3442 C 322.294 -6.79946 -0.645215 0
M  V30 3443 O 321.982 -8.03745 -0.157626 0
M  V30 3444 H 321.714 -0.587112 -0.335075 0
M  V30 3445 H 324.268 -2.01403 -0.403252 0
M  V30 3446 H 322.498 -2.55909 -2.89909 0
M  V30 3447 H 324.187 -2.95992 -2.77747 0
M  V30 3448 H 324.953 -4.73666 -1.04236 0
M  V30 3449 H 320.832 -4.10677 -2.09442 0
M  V30 3450 H 324.376 -6.97389 -0.171654 0
M  V30 3451 H 320.273 -6.33687 -1.22928 0
M  V30 3452 H 321.041 -8.18038 -0.275037 0
M  V30 3453 N 323.704 0.605807 -1.45491 0
M  V30 3454 C 324.95 1.36679 -1.49823 0
M  V30 3455 C 325.283 1.93693 -0.140175 0
M  V30 3456 O 324.558 1.75158 0.845581 0
M  V30 3457 C 324.841 2.51337 -2.57879 0
M  V30 3458 C 324.694 1.99508 -4.03134 0
M  V30 3459 C 326.013 3.53463 -2.62205 0
M  V30 3460 H 323.132 0.495617 -0.545466 0
M  V30 3461 H 325.774 0.682732 -1.7731 0
M  V30 3462 H 323.924 3.09691 -2.34571 0
M  V30 3463 H 325.596 1.45789 -4.37656 0
M  V30 3464 H 323.839 1.30496 -4.13707 0
M  V30 3465 H 324.51 2.82169 -4.74431 0
M  V30 3466 H 326.986 3.04953 -2.83095 0
M  V30 3467 H 325.862 4.31178 -3.39672 0
M  V30 3468 H 326.123 4.09197 -1.67363 0
M  V30 3469 N 325.182 1.32811 0.848464 0
M  V30 3470 C 326.145 1.22194 1.9391 0
M  V30 3471 C 327.145 0.143404 1.60159 0
M  V30 3472 O 328.335 0.394253 1.6968 0
M  V30 3473 C 325.467 0.88067 3.29328 0
M  V30 3474 H 326.66 2.19127 2.04752 0
M  V30 3475 H 324.213 1.16731 1.0394 0
M  V30 3476 H 324.948 -0.0865776 3.24184 0
M  V30 3477 H 324.733 1.66052 3.55203 0
M  V30 3478 H 326.223 0.830871 4.09251 0
M  V30 3479 N 326.66 -1.06551 1.16123 0
M  V30 3480 C 327.89 -1.8274 0.963838 0
M  V30 3481 C 328.298 -1.82712 -0.491228 0
M  V30 3482 O 327.641 -1.24294 -1.35265 0
M  V30 3483 C 327.703 -3.3065 1.41106 0
M  V30 3484 C 327.367 -3.54384 2.88549 0
M  V30 3485 C 328.364 -3.4765 3.86569 0
M  V30 3486 C 326.049 -3.81789 3.26408 0
M  V30 3487 C 328.043 -3.67982 5.2045 0
M  V30 3488 C 325.73 -4.01772 4.60459 0
M  V30 3489 C 326.728 -3.94866 5.57288 0
M  V30 3490 O 326.416 -4.14306 6.88916 0
M  V30 3491 H 326.148 -0.583136 0.341948 0
M  V30 3492 H 328.702 -1.35351 1.54497 0
M  V30 3493 H 326.932 -3.78887 0.773394 0
M  V30 3494 H 328.621 -3.88324 1.1815 0
M  V30 3495 H 329.387 -3.2647 3.58667 0
M  V30 3496 H 325.266 -3.86276 2.51619 0
M  V30 3497 H 328.81 -3.62507 5.96015 0
M  V30 3498 H 324.707 -4.2244 4.88072 0
M  V30 3499 H 325.475 -4.31609 6.95454 0
M  V30 3500 N 328.138 -0.959301 -1.25041 0
M  V30 3501 C 329.363 -0.633507 -1.97488 0
M  V30 3502 C 329.788 0.788555 -1.70773 0
M  V30 3503 O 329.146 1.53394 -0.966431 0
M  V30 3504 C 329.194 -0.904057 -3.49083 0
M  V30 3505 O 328.298 0.0147939 -4.12397 0
M  V30 3506 H 327.639 -0.240368 -0.618966 0
M  V30 3507 H 330.169 -1.28717 -1.59038 0
M  V30 3508 H 330.179 -0.832203 -3.99423 0
M  V30 3509 H 328.854 -1.94048 -3.67856 0
M  V30 3510 H 327.431 -0.109664 -3.72739 0
M  V30 3511 N 329.616 1.39756 -0.72842 0
M  V30 3512 C 330.563 2.30647 -0.0841519 0
M  V30 3513 C 331.533 1.48869 0.7367 0
M  V30 3514 O 332.718 1.77574 0.698015 0
M  V30 3515 C 329.858 3.35165 0.822091 0
M  V30 3516 C 328.971 4.31999 -0.0106663 0
M  V30 3517 C 328.106 5.23585 0.896241 0
M  V30 3518 C 327.145 6.12072 0.0583381 0
M  V30 3519 N 326.282 6.96035 0.920818 0
M  V30 3520 H 331.122 2.85173 -0.864891 0
M  V30 3521 H 328.659 1.40422 -0.438179 0
M  V30 3522 H 330.617 3.94345 1.36189 0
M  V30 3523 H 329.247 2.8211 1.56888 0
M  V30 3524 H 328.299 3.74492 -0.66781 0
M  V30 3525 H 329.611 4.9443 -0.658825 0
M  V30 3526 H 328.765 5.87759 1.50412 0
M  V30 3527 H 327.504 4.61459 1.57819 0
M  V30 3528 H 326.509 5.46916 -0.562389 0
M  V30 3529 H 327.734 6.76261 -0.6203 0
M  V30 3530 H 325.68 6.36485 1.58818 0
M  V30 3531 H 325.597 7.55284 0.32899 0
M  V30 3532 H 326.865 7.64646 1.51447 0
M  V30 3533 N 331.094 0.475555 1.50254 0
M  V30 3534 C 332.057 -0.305016 2.27161 0
M  V30 3535 C 333.057 -0.916519 1.32123 0
M  V30 3536 O 334.247 -0.785003 1.5551 0
M  V30 3537 C 331.379 -1.43496 3.09227 0
M  V30 3538 H 332.572 0.369511 2.97615 0
M  V30 3539 H 330.125 0.229747 1.54602 0
M  V30 3540 H 330.86 -2.14441 2.43281 0
M  V30 3541 H 330.645 -1.00223 3.79075 0
M  V30 3542 H 332.135 -1.98548 3.67381 0
M  V30 3543 N 332.573 -1.56217 0.208337 0
M  V30 3544 C 333.536 -2.18455 -0.693557 0
M  V30 3545 C 334.536 -1.14268 -1.13135 0
M  V30 3546 O 335.726 -1.39577 -1.0423 0
M  V30 3547 C 332.858 -2.79727 -1.94848 0
M  V30 3548 H 334.051 -2.99519 -0.15114 0
M  V30 3549 H 331.604 -1.56245 -0.041287 0
M  V30 3550 H 332.339 -2.02497 -2.53309 0
M  V30 3551 H 332.124 -3.56009 -1.64316 0
M  V30 3552 H 333.614 -3.27475 -2.59133 0
M  V30 3553 N 334.051 0.0651679 -1.57465 0
M  V30 3554 C 335.279 0.775808 -1.91804 0
M  V30 3555 C 335.694 1.70782 -0.804916 0
M  V30 3556 O 335.051 1.81153 0.221311 0
M  V30 3557 C 335.102 1.56381 -3.25925 0
M  V30 3558 O 334.823 0.669248 -4.32958 0
M  V30 3559 C 336.324 2.37485 -3.7432 0
M  V30 3560 H 333.544 0.2202 -0.63384 0
M  V30 3561 H 336.088 0.0334587 -2.04473 0
M  V30 3562 H 334.243 2.25837 -3.14764 0
M  V30 3563 H 334.657 1.21801 -5.10162 0
M  V30 3564 H 336.131 2.88223 -4.70778 0
M  V30 3565 H 336.608 3.17307 -3.03666 0
M  V30 3566 H 337.214 1.73173 -3.88447 0
M  V30 3567 N 335.529 1.53961 0.336706 0
M  V30 3568 C 336.775 1.7179 1.07777 0
M  V30 3569 C 337.108 0.483263 1.88091 0
M  V30 3570 O 336.383 -0.519747 1.87427 0
M  V30 3571 C 336.666 2.98558 2.01334 0
M  V30 3572 C 336.519 4.32245 1.24437 0
M  V30 3573 C 337.838 3.21023 3.01052 0
M  V30 3574 H 334.957 0.625089 0.390426 0
M  V30 3575 H 337.599 1.86641 0.35567 0
M  V30 3576 H 335.749 2.86028 2.62908 0
M  V30 3577 H 337.421 4.56637 0.654243 0
M  V30 3578 H 335.664 4.30344 0.546458 0
M  V30 3579 H 336.335 5.17137 1.93063 0
M  V30 3580 H 338.811 3.32929 2.49595 0
M  V30 3581 H 337.687 4.11104 3.6371 0
M  V30 3582 H 337.948 2.37637 3.72802 0
M  V30 3583 N 337.007 -0.598083 1.45811 0
M  V30 3584 C 338.235 -1.38322 1.53866 0
M  V30 3585 C 338.65 -1.87992 0.174479 0
M  V30 3586 O 338.007 -1.62756 -0.825627 0
M  V30 3587 C 338.058 -2.58125 2.53089 0
M  V30 3588 O 337.779 -2.10516 3.84206 0
M  V30 3589 C 339.28 -3.50869 2.70935 0
M  V30 3590 H 336.5 -0.423093 0.520801 0
M  V30 3591 H 339.044 -0.728527 1.91083 0
M  V30 3592 H 337.199 -3.19615 2.18917 0
M  V30 3593 H 337.613 -2.88425 4.38077 0
M  V30 3594 H 339.087 -4.31451 3.44317 0
M  V30 3595 H 339.564 -4.01822 1.77301 0
M  V30 3596 H 340.17 -2.95225 3.06141 0
M  V30 3597 N 338.485 -1.33259 -0.841409 0
M  V30 3598 C 339.733 -1.24326 -1.59334 0
M  V30 3599 C 340.054 0.191564 -1.94057 0
M  V30 3600 O 339.324 1.11967 -1.60749 0
M  V30 3601 H 337.904 -0.457174 -0.590763 0
M  V30 3602 H 340.566 -1.66947 -1.00571 0
M  V30 3603 H 339.662 -1.8352 -2.52442 0
M  V30 3604 N 339.963 1.05934 -1.16686 0
M  V30 3605 C 340.91 2.13499 -0.876748 0
M  V30 3606 C 341.88 1.65162 0.176299 0
M  V30 3607 O 343.065 1.90757 0.0407143 0
M  V30 3608 C 340.205 3.42912 -0.387967 0
M  V30 3609 C 339.318 4.04964 -1.50426 0
M  V30 3610 C 338.453 5.22266 -0.970125 0
M  V30 3611 C 337.492 5.76309 -2.06238 0
M  V30 3612 N 336.629 6.84922 -1.54356 0
M  V30 3613 H 341.469 2.37654 -1.7979 0
M  V30 3614 H 339.006 1.16598 -0.896843 0
M  V30 3615 H 340.964 4.17111 -0.086186 0
M  V30 3616 H 339.594 3.18963 0.496235 0
M  V30 3617 H 338.646 3.28277 -1.92193 0
M  V30 3618 H 339.958 4.41122 -2.32836 0
M  V30 3619 H 339.112 6.03506 -0.621743 0
M  V30 3620 H 337.851 4.87564 -0.115377 0
M  V30 3621 H 336.856 4.93704 -2.41942 0
M  V30 3622 H 338.081 6.13062 -2.92115 0
M  V30 3623 H 336.027 6.52131 -0.711406 0
M  V30 3624 H 335.944 7.20043 -2.30379 0
M  V30 3625 H 337.212 7.69832 -1.22387 0
M  V30 3626 N 341.441 0.965919 1.2453 0
M  V30 3627 C 342.371 0.513476 2.27784 0
M  V30 3628 C 343.352 -0.445974 1.6415 0
M  V30 3629 O 344.537 -0.342485 1.91156 0
M  V30 3630 C 341.667 -0.198839 3.4673 0
M  V30 3631 C 340.621 0.676456 4.2262 0
M  V30 3632 C 339.947 -0.167248 5.34438 0
M  V30 3633 C 341.247 1.96017 4.84123 0
M  V30 3634 H 342.941 1.3765 2.65881 0
M  V30 3635 H 340.487 0.663321 1.27813 0
M  V30 3636 H 342.44 -0.526567 4.18097 0
M  V30 3637 H 341.164 -1.0962 3.07654 0
M  V30 3638 H 339.823 0.98743 3.53052 0
M  V30 3639 H 339.471 -1.0647 4.91603 0
M  V30 3640 H 339.171 0.415181 5.86131 0
M  V30 3641 H 340.695 -0.489688 6.08633 0
M  V30 3642 H 342.109 1.69814 5.47573 0
M  V30 3643 H 340.506 2.48918 5.4604 0
M  V30 3644 H 341.576 2.65622 4.05676 0
M  V30 3645 N 342.919 -1.39368 0.735821 0
M  V30 3646 C 344.165 -2.00794 0.284544 0
M  V30 3647 C 344.498 -1.58255 -1.12557 0
M  V30 3648 O 343.773 -0.811819 -1.76748 0
M  V30 3649 C 344.056 -3.58011 0.387337 0
M  V30 3650 C 343.909 -4.10566 1.83728 0
M  V30 3651 C 345.228 -4.395 -0.22975 0
M  V30 3652 H 342.347 -0.729501 0.104866 0
M  V30 3653 H 344.989 -1.65564 0.93213 0
M  V30 3654 H 343.139 -3.88154 -0.164006 0
M  V30 3655 H 344.811 -3.91139 2.44556 0
M  V30 3656 H 343.054 -3.64095 2.35833 0
M  V30 3657 H 343.725 -5.19702 1.86047 0
M  V30 3658 H 346.201 -4.15406 0.240257 0
M  V30 3659 H 345.077 -5.48752 -0.127485 0
M  V30 3660 H 345.338 -4.22062 -1.3159 0
M  V30 3661 N 344.397 -0.483516 -1.5 0
M  V30 3662 C 345.347 0.32306 -2.257 0
M  V30 3663 C 346.331 0.950755 -1.29805 0
M  V30 3664 O 347.523 0.861247 -1.54634 0
M  V30 3665 C 344.652 1.39724 -3.13579 0
M  V30 3666 C 343.738 0.776663 -4.16928 0
M  V30 3667 N 344.129 -0.1104 -5.0568 0
M  V30 3668 C 342.427 1.03922 -4.33724 0
M  V30 3669 C 343.128 -0.46387 -5.79848 0
M  V30 3670 N 342.104 0.163987 -5.43353 0
M  V30 3671 H 345.906 -0.360086 -2.91686 0
M  V30 3672 H 343.42 -0.298456 -1.59634 0
M  V30 3673 H 345.417 1.98837 -3.66428 0
M  V30 3674 H 344.077 2.08225 -2.49143 0
M  V30 3675 H 345.088 -0.480069 -5.1567 0
M  V30 3676 H 341.765 1.71829 -3.80501 0
M  V30 3677 H 343.155 -1.18854 -6.61304 0
M  V30 3678 N 345.875 1.56104 -0.216619 0
M  V30 3679 C 346.838 2.18819 0.681962 0
M  V30 3680 C 347.838 1.14866 1.12528 0
M  V30 3681 O 349.028 1.40128 1.03488 0
M  V30 3682 C 346.16 2.80756 1.93362 0
M  V30 3683 H 347.353 2.99595 0.135254 0
M  V30 3684 H 344.906 1.56265 0.0330003 0
M  V30 3685 H 345.641 2.03837 2.52232 0
M  V30 3686 H 345.426 3.56876 1.62426 0
M  V30 3687 H 346.916 3.28844 2.57393 0
M  V30 3688 N 347.353 -0.0568162 1.57498 0
M  V30 3689 C 348.301 -1.08452 2.05769 0
M  V30 3690 C 349.295 -1.39164 0.965903 0
M  V30 3691 O 350.501 -1.38395 1.15095 0
M  V30 3692 H 346.876 -0.367148 0.656282 0
M  V30 3693 H 348.847 -0.651368 2.91204 0
M  V30 3694 C 347.596 -2.38543 2.52968 0
M  V30 3695 H 346.919 -2.15765 3.36579 0
M  V30 3696 H 348.359 -3.08863 2.90481 0
M  V30 3697 C 346.818 -3.05562 1.41893 0
M  V30 3698 O 347.348 -3.94262 0.769442 0
M  V30 3699 N 345.554 -2.6643 1.16032 0
M  V30 3700 H 345.101 -1.94387 1.6903 0
M  V30 3701 H 345.059 -3.11593 0.419219 0
M  V30 3702 N 348.832 -1.54138 -0.328536 0
M  V30 3703 C 350.079 -1.72105 -1.06706 0
M  V30 3704 C 350.407 -0.492111 -1.88171 0
M  V30 3705 O 349.662 0.526153 -1.88494 0
M  V30 3706 C 349.961 -2.9457 -2.02393 0
M  V30 3707 C 349.627 -4.29544 -1.37122 0
M  V30 3708 C 348.289 -4.6624 -1.19052 0
M  V30 3709 C 350.641 -5.1333 -0.902331 0
M  V30 3710 C 347.969 -5.84325 -0.527331 0
M  V30 3711 C 350.321 -6.32094 -0.252988 0
M  V30 3712 C 348.985 -6.67473 -0.0600901 0
M  V30 3713 H 348.255 -0.629775 -0.390466 0
M  V30 3714 H 350.902 -1.88372 -0.34473 0
M  V30 3715 H 349.207 -2.72969 -2.81061 0
M  V30 3716 H 350.904 -3.05665 -2.59557 0
M  V30 3717 H 347.494 -4.0067 -1.52188 0
M  V30 3718 H 351.678 -4.855 -1.02974 0
M  V30 3719 H 346.934 -6.103 -0.366634 0
M  V30 3720 H 351.108 -6.96299 0.118366 0
M  V30 3721 H 348.735 -7.58832 0.455828 0
M  V30 3722 N 350.31 0.590341 -1.46126 0
M  V30 3723 C 351.558 1.34616 -1.50742 0
M  V30 3724 C 351.879 1.94363 -0.157486 0
M  V30 3725 O 351.149 1.78136 0.815136 0
M  V30 3726 H 349.729 0.499789 -0.555175 0
M  V30 3727 H 352.391 0.691953 -1.82203 0
M  V30 3728 H 351.487 2.15678 -2.25587 0
M  V30 3729 N 351.788 1.33704 0.83433 0
M  V30 3730 C 353.016 1.28467 1.62185 0
M  V30 3731 C 353.431 -0.143526 1.88254 0
M  V30 3732 O 352.788 -1.08709 1.4659 0
M  V30 3733 C 352.839 2.06174 2.96942 0
M  V30 3734 O 352.56 3.43422 2.72016 0
M  V30 3735 C 354.061 2.08201 3.91366 0
M  V30 3736 H 351.281 0.4424 0.504503 0
M  V30 3737 H 353.825 1.76145 1.03891 0
M  V30 3738 H 351.98 1.62167 3.51825 0
M  V30 3739 H 352.394 3.83453 3.57861 0
M  V30 3740 H 353.868 2.67017 4.83121 0
M  V30 3741 H 354.345 1.07343 4.2588 0
M  V30 3742 H 354.951 2.52246 3.42421 0
M  V30 3743 N 353.266 -1.05314 1.17247 0
M  V30 3744 C 354.213 -2.13031 0.888058 0
M  V30 3745 C 355.183 -1.65253 -0.167537 0
M  V30 3746 O 356.368 -1.90775 -0.0305974 0
M  V30 3747 C 353.508 -3.42702 0.406147 0
M  V30 3748 C 352.621 -4.04161 1.52572 0
M  V30 3749 C 351.756 -5.21744 0.997808 0
M  V30 3750 C 350.795 -5.75207 2.09291 0
M  V30 3751 N 349.932 -6.84094 1.57986 0
M  V30 3752 H 354.772 -2.36698 1.81048 0
M  V30 3753 H 352.309 -1.16121 0.903013 0
M  V30 3754 H 354.267 -4.17059 0.108305 0
M  V30 3755 H 352.897 -3.19222 -0.479313 0
M  V30 3756 H 351.949 -3.27253 1.93931 0
M  V30 3757 H 353.261 -4.39881 2.35172 0
M  V30 3758 H 352.415 -6.03168 0.653739 0
M  V30 3759 H 351.154 -4.87495 0.141232 0
M  V30 3760 H 350.159 -4.92414 2.44557 0
M  V30 3761 H 351.384 -6.11505 2.95362 0
M  V30 3762 H 349.33 -6.51745 0.74598 0
M  V30 3763 H 349.247 -7.18811 2.34195 0
M  V30 3764 H 350.515 -7.69172 1.26468 0
M  V30 3765 N 354.744 -0.972509 -1.24016 0
M  V30 3766 C 355.691 -0.505969 -2.25186 0
M  V30 3767 C 356.661 0.451009 -1.5986 0
M  V30 3768 O 357.846 0.360307 -1.87367 0
M  V30 3769 C 354.986 0.193089 -3.44559 0
M  V30 3770 C 354.099 -0.803222 -4.24467 0
M  V30 3771 C 353.234 -0.0797793 -5.3114 0
M  V30 3772 C 352.273 -1.06583 -6.02749 0
M  V30 3773 N 351.41 -0.372074 -7.01113 0
M  V30 3774 H 356.25 -1.37351 -2.64459 0
M  V30 3775 H 353.787 -0.688419 -1.29997 0
M  V30 3776 H 355.745 0.615125 -4.1264 0
M  V30 3777 H 354.375 1.02455 -3.06109 0
M  V30 3778 H 353.427 -1.34368 -3.55878 0
M  V30 3779 H 354.739 -1.55494 -4.73944 0
M  V30 3780 H 353.893 0.400015 -6.0538 0
M  V30 3781 H 352.632 0.704597 -4.82583 0
M  V30 3782 H 351.637 -1.55645 -5.27309 0
M  V30 3783 H 352.862 -1.85074 -6.53395 0
M  V30 3784 H 350.808 0.393238 -6.5482 0
M  V30 3785 H 350.725 -1.06258 -7.48495 0
M  V30 3786 H 351.993 0.0855932 -7.79453 0
M  V30 3787 N 356.222 1.38976 -0.743202 0
M  V30 3788 C 357.499 1.94351 -0.220705 0
M  V30 3789 C 357.879 1.67935 1.2791 0
M  V30 3790 O 357.227 1.01211 2.04862 0
M  V30 3791 C 357.437 3.44426 -0.563171 0
M  V30 3792 C 358.785 4.2144 -0.517046 0
M  V30 3793 O 359.809 3.52661 -0.500846 0
M  V30 3794 O 358.668 5.44032 -0.518806 0
M  V30 3795 H 355.762 0.825879 -0.043047 0
M  V30 3796 H 358.308 1.48429 -0.822618 0
M  V30 3797 H 357.08 3.5712 -1.59941 0
M  V30 3798 H 356.703 3.97543 0.0672883 0
M  V30 3799 N 357.7 0.491464 1.49741 0
M  V30 3800 C 358.947 -0.0564256 2.02421 0
M  V30 3801 C 359.275 -1.37872 1.37192 0
M  V30 3802 O 358.53 -1.89375 0.493508 0
M  V30 3803 C 358.829 -0.267329 3.56399 0
M  V30 3804 C 358.495 0.975775 4.40215 0
M  V30 3805 C 357.157 1.31655 4.62839 0
M  V30 3806 C 359.509 1.80251 4.89039 0
M  V30 3807 C 356.837 2.48375 5.31532 0
M  V30 3808 C 359.189 2.96116 5.59015 0
M  V30 3809 C 357.853 3.30585 5.79888 0
M  V30 3810 H 357.123 -0.0206476 0.740712 0
M  V30 3811 H 359.77 0.649686 1.80143 0
M  V30 3812 H 358.075 -1.05588 3.77304 0
M  V30 3813 H 359.772 -0.705549 3.94744 0
M  V30 3814 H 356.362 0.700315 4.2284 0
M  V30 3815 H 360.546 1.55239 4.71396 0
M  V30 3816 H 355.802 2.7533 5.45897 0
M  V30 3817 H 359.976 3.60509 5.95824 0
M  V30 3818 H 357.603 4.21132 6.32892 0
M  V30 3819 N 359.178 -1.55987 0.224894 0
M  V30 3820 C 360.088 -2.24066 -0.69511 0
M  V30 3821 C 361.104 -1.24939 -1.21104 0
M  V30 3822 O 362.28 -1.5776 -1.25195 0
M  V30 3823 C 359.345 -2.90983 -1.88493 0
M  V30 3824 C 358.406 -4.05462 -1.41064 0
M  V30 3825 C 357.639 -4.69179 -2.54375 0
M  V30 3826 O 357.862 -4.31895 -3.72589 0
M  V30 3827 O 356.796 -5.58108 -2.25386 0
M  V30 3828 H 360.622 -3.03353 -0.145149 0
M  V30 3829 H 358.207 -1.49399 -0.00569476 0
M  V30 3830 H 360.089 -3.33209 -2.57972 0
M  V30 3831 H 358.764 -2.14653 -2.42293 0
M  V30 3832 H 357.671 -3.67798 -0.683774 0
M  V30 3833 H 359.004 -4.83545 -0.918985 0
M  V30 3834 N 360.656 0.0484629 -1.57525 0
M  V30 3835 C 361.933 0.777447 -1.79486 0
M  V30 3836 C 362.313 1.94597 -0.818251 0
M  V30 3837 O 361.661 2.28047 0.143767 0
M  V30 3838 C 361.871 1.22864 -3.26658 0
M  V30 3839 C 363.219 1.65251 -3.91123 0
M  V30 3840 O 364.243 1.32372 -3.3069 0
M  V30 3841 O 363.102 2.26207 -4.97486 0
M  V30 3842 H 360.196 0.374357 -0.737419 0
M  V30 3843 H 362.742 0.0267359 -1.69679 0
M  V30 3844 H 361.514 0.393589 -3.89316 0
M  V30 3845 H 361.137 2.03996 -3.41279 0
M  V30 3846 N 362.134 1.5431 0.320358 0
M  V30 3847 C 363.064 1.86912 1.3995 0
M  V30 3848 C 364.045 0.726211 1.53819 0
M  V30 3849 O 365.23 0.980233 1.67646 0
M  V30 3850 C 362.36 2.09932 2.7667 0
M  V30 3851 C 361.314 3.25776 2.77586 0
M  V30 3852 C 360.64 3.34173 4.17412 0
M  V30 3853 C 361.94 4.6335 2.41048 0
M  V30 3854 H 363.634 2.77292 1.12914 0
M  V30 3855 H 361.18 1.33421 0.541738 0
M  V30 3856 H 363.133 2.31324 3.52232 0
M  V30 3857 H 361.857 1.16304 3.0519 0
M  V30 3858 H 360.516 3.04276 2.04479 0
M  V30 3859 H 360.164 2.38098 4.43078 0
M  V30 3860 H 359.864 4.12033 4.18931 0
M  V30 3861 H 361.388 3.57803 4.94782 0
M  V30 3862 H 362.802 4.84602 3.06324 0
M  V30 3863 H 361.199 5.43782 2.53813 0
M  V30 3864 H 362.269 4.65381 1.36193 0
M  V30 3865 N 363.613 -0.582584 1.46437 0
M  V30 3866 C 364.843 -1.36484 1.55099 0
M  V30 3867 C 365.251 -1.88233 0.191056 0
M  V30 3868 O 364.594 -1.6429 -0.821858 0
M  V30 3869 C 364.656 -2.588 2.49525 0
M  V30 3870 C 364.32 -2.28517 3.95764 0
M  V30 3871 C 365.317 -1.87346 4.84972 0
M  V30 3872 C 363.002 -2.40658 4.40896 0
M  V30 3873 C 364.996 -1.5871 6.17325 0
M  V30 3874 C 362.683 -2.11635 5.73284 0
M  V30 3875 C 363.681 -1.70725 6.61318 0
M  V30 3876 O 363.369 -1.42057 7.91249 0
M  V30 3877 H 363.101 -0.423297 0.527063 0
M  V30 3878 H 365.655 -0.715188 1.92547 0
M  V30 3879 H 363.885 -3.26571 2.07095 0
M  V30 3880 H 365.574 -3.20868 2.48593 0
M  V30 3881 H 366.34 -1.77481 4.5136 0
M  V30 3882 H 362.219 -2.71463 3.72598 0
M  V30 3883 H 365.763 -1.26704 6.85997 0
M  V30 3884 H 361.66 -2.21124 6.06444 0
M  V30 3885 H 362.428 -1.55901 8.03515 0
M  V30 3886 N 365.091 -1.34144 -0.827227 0
M  V30 3887 C 366.319 -1.29325 -1.61501 0
M  V30 3888 C 366.734 0.13354 -1.88327 0
M  V30 3889 O 366.091 1.0793 -1.47164 0
M  V30 3890 C 366.142 -2.07746 -2.95844 0
M  V30 3891 O 365.863 -3.4486 -2.70191 0
M  V30 3892 C 367.364 -2.10273 -3.90256 0
M  V30 3893 H 364.584 -0.445069 -0.50215 0
M  V30 3894 H 367.128 -1.76693 -1.02955 0
M  V30 3895 H 365.283 -1.6403 -3.5096 0
M  V30 3896 H 365.697 -3.85345 -3.55822 0
M  V30 3897 H 367.171 -2.69575 -4.81698 0
M  V30 3898 H 367.648 -1.096 -4.25305 0
M  V30 3899 H 368.254 -2.54059 -3.41078 0
M  V30 3900 N 366.569 1.04691 -1.17803 0
M  V30 3901 C 367.98 1.59238 -0.974689 0
M  V30 3902 C 368.331 1.90306 0.477292 0
M  V30 3903 O 367.456 1.68846 1.35352 0
M  V30 3904 C 368.051 2.89318 -1.76296 0
M  V30 3905 C 366.61 3.40506 -1.60414 0
M  V30 3906 C 365.757 2.14172 -1.76141 0
M  V30 3907 H 368.708 0.874395 -1.32439 0
M  V30 3908 H 368.729 3.5944 -1.24833 0
M  V30 3909 H 368.241 2.66675 -2.81968 0
M  V30 3910 H 366.342 3.68175 -0.572519 0
M  V30 3911 H 366.455 4.14753 -2.39827 0
M  V30 3912 H 364.819 2.25176 -1.19028 0
M  V30 3913 H 365.602 1.93992 -2.83235 0
M  V30 3914 N 368.047 0.979072 1.23499 0
M  V30 3915 C 369.293 0.648178 1.92163 0
M  V30 3916 C 369.626 -0.816049 1.76222 0
M  V30 3917 O 368.901 -1.58849 1.12237 0
M  V30 3918 C 369.184 1.03773 3.44824 0
M  V30 3919 C 369.037 2.55948 3.69879 0
M  V30 3920 C 370.356 0.580653 4.36253 0
M  V30 3921 H 367.475 0.236952 0.69787 0
M  V30 3922 H 370.117 1.22012 1.45647 0
M  V30 3923 H 368.267 0.551058 3.84572 0
M  V30 3924 H 369.939 3.12179 3.3962 0
M  V30 3925 H 368.182 2.98641 3.14636 0
M  V30 3926 H 368.853 2.78255 4.76737 0
M  V30 3927 H 371.329 0.998465 4.03943 0
M  V30 3928 H 370.205 0.881663 5.41773 0
M  V30 3929 H 370.466 -0.519052 4.39042 0
M  V30 3930 N 369.525 -1.3858 0.750561 0
M  V30 3931 C 370.473 -2.32339 0.110162 0
M  V30 3932 C 371.467 -1.53864 -0.708674 0
M  V30 3933 O 372.673 -1.69417 -0.608112 0
M  V30 3934 H 369.048 -0.751812 0.0168275 0
M  V30 3935 H 371.019 -2.83959 0.917053 0
M  V30 3936 C 369.768 -3.39043 -0.771067 0
M  V30 3937 H 369.091 -3.99517 -0.150374 0
M  V30 3938 H 370.531 -4.07061 -1.1865 0
M  V30 3939 C 368.99 -2.77365 -1.91234 0
M  V30 3940 O 369.52 -2.66434 -3.00626 0
M  V30 3941 N 367.726 -2.35219 -1.70646 0
M  V30 3942 H 367.273 -2.4431 -0.81673 0
M  V30 3943 H 367.231 -1.94294 -2.47178 0
M  V30 3944 N 371.003 -0.499398 -1.49478 0
M  V30 3945 C 372.251 0.0455996 -2.02049 0
M  V30 3946 C 372.572 1.37633 -1.38138 0
M  V30 3947 O 371.842 1.8842 -0.536166 0
M  V30 3948 H 370.422 0.0198416 -0.746736 0
M  V30 3949 H 373.084 -0.656274 -1.83519 0
M  V30 3950 H 372.18 0.176445 -3.11601 0
M  V30 3951 N 372.481 1.55866 -0.233164 0
M  V30 3952 C 373.706 2.03449 0.402906 0
M  V30 3953 C 374.131 1.11166 1.51736 0
M  V30 3954 O 373.489 0.101996 1.81013 0
M  V30 3955 C 373.537 3.49165 0.9009 0
M  V30 3956 O 372.641 3.60019 2.01147 0
M  V30 3957 H 371.982 0.657913 0.0897025 0
M  V30 3958 H 374.512 2.01493 -0.355201 0
M  V30 3959 H 374.522 3.89716 1.2077 0
M  V30 3960 H 373.197 4.15813 0.0852889 0
M  V30 3961 H 371.774 3.3136 1.71042 0
M  V30 3962 N 373.959 -0.0401083 1.57549 0
M  V30 3963 C 375.208 -0.732108 1.87944 0
M  V30 3964 C 375.521 -1.77107 0.830206 0
M  V30 3965 O 376.727 -2.51488 1.02302 0
M  V30 3966 C 375.183 -1.35315 3.33494 0
M  V30 3967 C 374.791 -0.351105 4.46622 0
M  V30 3968 C 376.535 -2.02566 3.73051 0
M  V30 3969 C 374.442 -0.979859 5.83226 0
M  V30 3970 H 373.372 -0.277188 0.701201 0
M  V30 3971 H 376.023 0.0138501 1.83495 0
M  V30 3972 H 374.405 -2.14844 3.32653 0
M  V30 3973 H 375.579 0.416674 4.58912 0
M  V30 3974 H 373.894 0.218708 4.15825 0
M  V30 3975 H 376.491 -2.50441 4.72423 0
M  V30 3976 H 376.834 -2.83904 3.04474 0
M  V30 3977 H 377.367 -1.29827 3.76018 0
M  V30 3978 H 374.106 -0.206135 6.55176 0
M  V30 3979 H 373.626 -1.71774 5.74677 0
M  V30 3980 H 375.305 -1.49046 6.29599 0
M  V30 3981 N 375.437 -1.54477 -0.31217 0
M  V30 3982 C 376.683 -1.73483 -1.0503 0
M  V30 3983 C 377.016 -0.513125 -1.87298 0
M  V30 3984 O 376.291 0.489864 -1.8823 0
M  V30 3985 C 376.574 -3.01723 -1.96558 0
M  V30 3986 C 376.427 -4.3417 -1.17545 0
M  V30 3987 C 377.746 -3.25772 -2.95907 0
M  V30 3988 H 374.865 -0.631222 -0.380432 0
M  V30 3989 H 377.507 -1.87184 -0.325932 0
M  V30 3990 H 375.657 -2.90174 -2.58324 0
M  V30 3991 H 377.329 -4.5762 -0.581513 0
M  V30 3992 H 375.572 -4.31159 -0.477925 0
M  V30 3993 H 376.243 -5.20143 -1.84811 0
M  V30 3994 H 378.719 -3.36857 -2.44267 0
M  V30 3995 H 377.595 -4.16838 -3.57123 0
M  V30 3996 H 377.856 -2.43537 -3.68974 0
M  V30 3997 N 376.915 0.57481 -1.46744 0
M  V30 3998 C 378.164 1.32898 -1.51727 0
M  V30 3999 C 378.477 1.948 -0.176692 0
M  V30 4000 O 379.683 2.71299 -0.104385 0
M  V30 4001 C 378.139 2.40901 -2.67385 0
M  V30 4002 C 377.747 1.85266 -4.07898 0
M  V30 4003 C 379.491 3.17609 -2.81646 0
M  V30 4004 C 377.398 2.90945 -5.14883 0
M  V30 4005 H 376.328 0.499631 -0.564699 0
M  V30 4006 H 378.979 0.612536 -1.72975 0
M  V30 4007 H 377.361 3.15379 -2.39483 0
M  V30 4008 H 378.535 1.17278 -4.45626 0
M  V30 4009 H 376.85 1.21199 -3.98371 0
M  V30 4010 H 379.447 3.96493 -3.58744 0
M  V30 4011 H 379.79 3.70696 -1.89448 0
M  V30 4012 H 380.323 2.50239 -3.09233 0
M  V30 4013 H 377.062 2.42736 -6.089 0
M  V30 4014 H 376.582 3.57398 -4.81691 0
M  V30 4015 H 378.261 3.54755 -5.41071 0
M  V30 4016 N 378.394 1.34581 0.820102 0
M  V30 4017 C 379.64 1.27285 1.57881 0
M  V30 4018 C 379.973 -0.156137 1.93571 0
M  V30 4019 O 379.248 -1.10222 1.60254 0
M  V30 4020 C 379.531 2.16639 2.87645 0
M  V30 4021 C 379.384 3.68088 2.58517 0
M  V30 4022 C 380.703 2.05378 3.8924 0
M  V30 4023 H 377.822 0.463714 0.572833 0
M  V30 4024 H 380.464 1.64859 0.944539 0
M  V30 4025 H 378.614 1.84725 3.41773 0
M  V30 4026 H 380.286 4.10382 2.10676 0
M  V30 4027 H 378.529 3.89038 1.91917 0
M  V30 4028 H 379.2 4.2598 3.51063 0
M  V30 4029 H 381.676 2.33404 3.44473 0
M  V30 4030 H 380.552 2.7012 4.77835 0
M  V30 4031 H 380.813 1.0316 4.29896 0
M  V30 4032 N 379.872 -1.04064 1.18357 0
M  V30 4033 C 381.288 -1.2947 0.933258 0
M  V30 4034 C 381.488 -1.97466 -0.401169 0
M  V30 4035 O 380.544 -2.25528 -1.13549 0
M  V30 4036 C 381.857 -2.15337 2.09882 0
M  V30 4037 C 383.405 -2.28683 2.13712 0
M  V30 4038 C 383.88 -3.17917 3.29686 0
M  V30 4039 N 385.371 -3.25504 3.29547 0
M  V30 4040 C 386.106 -3.94706 4.15926 0
M  V30 4041 N 385.602 -4.66239 5.12439 0
M  V30 4042 N 387.395 -3.90986 4.0384 0
M  V30 4043 H 379.546 -0.583359 2.04232 0
M  V30 4044 H 381.809 -0.319921 0.892387 0
M  V30 4045 H 381.515 -1.72682 3.06389 0
M  V30 4046 H 381.389 -3.16015 2.05947 0
M  V30 4047 H 383.776 -2.70575 1.17784 0
M  V30 4048 H 383.857 -1.27596 2.21705 0
M  V30 4049 H 383.501 -2.76736 4.25887 0
M  V30 4050 H 383.431 -4.19036 3.1893 0
M  V30 4051 H 385.922 -2.74547 2.59677 0
M  V30 4052 H 386.235 -5.16638 5.74722 0
M  V30 4053 H 384.58 -4.65143 5.16398 0
M  V30 4054 H 387.771 -3.34234 3.27727 0
M  V30 4055 H 387.944 -4.44646 4.71375 0
M  V30 4056 N 381.35 -0.985608 -1.22978 0
M  V30 4057 C 382.313 -0.535071 -2.22867 0
M  V30 4058 C 383.313 0.378123 -1.56291 0
M  V30 4059 O 384.503 0.171092 -1.73358 0
M  V30 4060 C 381.635 0.222702 -3.40172 0
M  V30 4061 H 382.828 -1.41835 -2.6424 0
M  V30 4062 H 380.381 -0.772042 -1.35901 0
M  V30 4063 H 381.116 1.12229 -3.04262 0
M  V30 4064 H 380.901 -0.43288 -3.89703 0
M  V30 4065 H 382.391 0.526335 -4.1427 0
M  V30 4066 N 382.828 1.3818 -0.7579 0
M  V30 4067 C 384.076 1.99624 -0.315361 0
M  V30 4068 C 384.397 1.60464 1.10799 0
M  V30 4069 O 383.667 0.863507 1.75842 0
M  V30 4070 H 382.247 0.73831 -0.113611 0
M  V30 4071 H 384.909 1.68878 -0.972952 0
M  V30 4072 H 384.005 3.09754 -0.381931 0
M  V30 4073 N 384.306 0.507319 1.49211 0
M  V30 4074 C 385.253 -0.267728 2.29242 0
M  V30 4075 C 386.223 -0.954609 1.35928 0
M  V30 4076 O 387.408 -0.960046 1.64887 0
M  V30 4077 C 384.548 -1.32243 3.18756 0
M  V30 4078 C 383.661 -0.64669 4.27132 0
M  V30 4079 C 382.796 -1.68238 5.03855 0
M  V30 4080 C 381.835 -0.98885 6.0406 0
M  V30 4081 N 380.972 -1.96903 6.73924 0
M  V30 4082 H 385.812 0.420968 2.95012 0
M  V30 4083 H 383.349 0.219443 1.45454 0
M  V30 4084 H 385.307 -1.94599 3.69036 0
M  V30 4085 H 383.937 -1.97981 2.54958 0
M  V30 4086 H 382.989 0.0902926 3.80293 0
M  V30 4087 H 384.301 -0.101058 4.98698 0
M  V30 4088 H 383.455 -2.38081 5.58034 0
M  V30 4089 H 382.194 -2.26187 4.32077 0
M  V30 4090 H 381.199 -0.276222 5.49106 0
M  V30 4091 H 382.424 -0.415767 6.77826 0
M  V30 4092 H 380.37 -2.53803 6.04913 0
M  V30 4093 H 380.287 -1.47423 7.41487 0
M  V30 4094 H 381.555 -2.66015 7.32705 0
M  V30 4095 N 385.784 -1.5574 0.241426 0
M  V30 4096 C 387.033 -1.97986 -0.385295 0
M  V30 4097 C 387.346 -1.13267 -1.59468 0
M  V30 4098 O 388.552 -1.45501 -2.2922 0
M  V30 4099 C 387.008 -3.52275 -0.736884 0
M  V30 4100 C 386.616 -4.45726 0.450796 0
M  V30 4101 C 388.36 -4.03189 -1.3281 0
M  V30 4102 C 386.267 -5.91352 0.0756662 0
M  V30 4103 H 385.197 -0.739386 -0.147731 0
M  V30 4104 H 387.848 -1.80308 0.340779 0
M  V30 4105 H 386.23 -3.65628 -1.52094 0
M  V30 4106 H 387.404 -4.44131 1.22819 0
M  V30 4107 H 385.719 -4.05264 0.956573 0
M  V30 4108 H 388.316 -5.09505 -1.62201 0
M  V30 4109 H 388.659 -3.50212 -2.25071 0
M  V30 4110 H 389.192 -3.93141 -0.607069 0
M  V30 4111 H 385.931 -6.48354 0.965272 0
M  V30 4112 H 385.451 -5.96095 -0.665635 0
M  V30 4113 H 387.13 -6.46084 -0.344075 0
M  V30 4114 N 387.262 0.0317525 -1.57568 0
M  V30 4115 C 388.49 0.734949 -1.93407 0
M  V30 4116 C 388.905 1.69036 -0.84096 0
M  V30 4117 O 388.262 1.81582 0.182836 0
M  V30 4118 C 388.313 1.49432 -3.29169 0
M  V30 4119 O 388.034 0.577261 -4.3428 0
M  V30 4120 C 389.535 2.29492 -3.79273 0
M  V30 4121 H 386.755 0.206706 -0.638368 0
M  V30 4122 H 389.299 -0.00992046 -2.04498 0
M  V30 4123 H 387.454 2.1911 -3.19483 0
M  V30 4124 H 387.868 1.10952 -5.1263 0
M  V30 4125 H 389.342 2.78172 -4.76785 0
M  V30 4126 H 389.819 3.10794 -3.10328 0
M  V30 4127 H 390.425 1.64894 -3.92033 0
M  V30 4128 N 388.74 1.54641 0.303973 0
M  V30 4129 C 389.987 1.7378 1.03955 0
M  V30 4130 C 390.315 0.521986 1.87365 0
M  V30 4131 O 389.57 -0.496099 1.89308 0
M  V30 4132 C 389.869 2.97753 1.97681 0
M  V30 4133 C 389.535 4.31671 1.30271 0
M  V30 4134 C 388.197 4.68075 1.11619 0
M  V30 4135 C 390.549 5.147 0.82055 0
M  V30 4136 C 387.877 5.8509 0.434304 0
M  V30 4137 C 390.229 6.32416 0.152395 0
M  V30 4138 C 388.893 6.67484 -0.0461067 0
M  V30 4139 H 388.163 0.635908 0.380398 0
M  V30 4140 H 390.81 1.88896 0.314718 0
M  V30 4141 H 389.115 2.77406 2.76682 0
M  V30 4142 H 390.812 3.09756 2.54661 0
M  V30 4143 H 387.402 4.03041 1.45795 0
M  V30 4144 H 391.586 4.87077 0.952374 0
M  V30 4145 H 386.842 6.10806 0.269495 0
M  V30 4146 H 391.016 6.96023 -0.229126 0
M  V30 4147 H 388.643 7.58011 -0.576494 0
M  V30 4148 N 390.218 -0.567019 1.47046 0
M  V30 4149 C 391.181 -1.65696 1.58359 0
M  V30 4150 C 392.181 -1.54097 0.459441 0
M  V30 4151 O 393.371 -1.58432 0.724225 0
M  V30 4152 C 390.503 -3.05197 1.51879 0
M  V30 4153 H 391.696 -1.57019 2.5551 0
M  V30 4154 H 389.249 -0.786148 1.3509 0
M  V30 4155 H 389.984 -3.19417 0.560673 0
M  V30 4156 H 389.769 -3.15025 2.33455 0
M  V30 4157 H 391.259 -3.84511 1.62913 0
M  V30 4158 N 391.696 -1.35014 -0.812953 0
M  V30 4159 C 392.606 -1.2951 -1.95613 0
M  V30 4160 C 393.622 -0.20107 -1.72834 0
M  V30 4161 O 394.798 -0.42932 -1.96771 0
M  V30 4162 C 391.863 -1.06033 -3.30088 0
M  V30 4163 C 390.924 -2.24688 -3.65805 0
M  V30 4164 C 390.157 -2.02322 -4.93864 0
M  V30 4165 O 390.38 -0.986464 -5.61805 0
M  V30 4166 O 389.314 -2.89525 -5.27692 0
M  V30 4167 H 393.14 -2.25705 -2.03202 0
M  V30 4168 H 390.725 -1.15321 -0.949811 0
M  V30 4169 H 392.607 -0.94763 -4.10607 0
M  V30 4170 H 391.282 -0.128852 -3.23443 0
M  V30 4171 H 390.189 -2.41521 -2.85689 0
M  V30 4172 H 391.522 -3.16261 -3.77147 0
M  V30 4173 N 393.175 1.03435 -1.18907 0
M  V30 4174 C 394.122 2.11591 -0.921837 0
M  V30 4175 C 395.092 1.65499 0.141226 0
M  V30 4176 O 396.277 1.908 0.000242829 0
M  V30 4177 C 393.417 3.42012 -0.460616 0
M  V30 4178 C 392.53 4.01682 -1.58982 0
M  V30 4179 C 391.665 5.20091 -1.08069 0
M  V30 4180 C 390.704 5.71805 -2.18416 0
M  V30 4181 N 389.841 6.81494 -1.68849 0
M  V30 4182 H 394.681 2.33787 -1.8479 0
M  V30 4183 H 392.218 1.1467 -0.921373 0
M  V30 4184 H 394.176 4.16834 -0.174642 0
M  V30 4185 H 392.806 3.19944 0.428467 0
M  V30 4186 H 391.858 3.24127 -1.99113 0
M  V30 4187 H 393.17 4.36084 -2.4214 0
M  V30 4188 H 392.324 6.02051 -0.749615 0
M  V30 4189 H 391.063 4.87209 -0.218771 0
M  V30 4190 H 390.068 4.88461 -2.5236 0
M  V30 4191 H 391.293 6.06728 -3.05054 0
M  V30 4192 H 389.239 6.50475 -0.849572 0
M  V30 4193 H 389.156 7.14994 -2.45601 0
M  V30 4194 H 390.424 7.67063 -1.38689 0
M  V30 4195 N 394.653 0.992116 1.22453 0
M  V30 4196 C 395.899 0.668523 1.91464 0
M  V30 4197 C 396.232 -0.797313 1.77078 0
M  V30 4198 O 395.507 -1.5765 1.13916 0
M  V30 4199 C 395.79 1.07424 3.43703 0
M  V30 4200 C 395.643 2.59857 3.67143 0
M  V30 4201 C 396.962 0.626891 4.35612 0
M  V30 4202 H 394.081 0.244341 0.695318 0
M  V30 4203 H 396.723 1.2355 1.44345 0
M  V30 4204 H 394.873 0.591816 3.83966 0
M  V30 4205 H 396.545 3.15764 3.3629 0
M  V30 4206 H 394.788 3.01961 3.11451 0
M  V30 4207 H 395.459 2.83296 4.73759 0
M  V30 4208 H 397.935 1.04125 4.02861 0
M  V30 4209 H 396.811 0.939076 5.40807 0
M  V30 4210 H 397.072 -0.472457 4.39568 0
M  V30 4211 N 396.131 -1.37776 0.765217 0
M  V30 4212 C 397.094 -2.28686 0.153416 0
M  V30 4213 C 398.094 -1.47727 -0.635081 0
M  V30 4214 O 399.284 -1.68027 -0.459632 0
M  V30 4215 C 396.416 -3.31608 -0.790495 0
M  V30 4216 H 397.609 -2.84297 0.954723 0
M  V30 4217 H 395.162 -1.46932 0.53299 0
M  V30 4218 H 395.897 -2.81109 -1.61705 0
M  V30 4219 H 395.682 -3.9144 -0.227348 0
M  V30 4220 H 397.172 -3.99559 -1.21419 0
M  V30 4221 N 397.609 -0.515225 -1.4894 0
M  V30 4222 C 398.557 0.269115 -2.31038 0
M  V30 4223 C 399.551 0.949443 -1.40292 0
M  V30 4224 O 400.757 0.87551 -1.57273 0
M  V30 4225 H 397.132 0.10565 -0.744542 0
M  V30 4226 H 399.103 -0.443096 -2.95092 0
M  V30 4227 C 397.852 1.31213 -3.21991 0
M  V30 4228 H 397.175 0.798034 -3.91754 0
M  V30 4229 H 398.615 1.83263 -3.82349 0
M  V30 4230 C 397.074 2.33791 -2.42576 0
M  V30 4231 O 397.604 3.3995 -2.14003 0
M  V30 4232 N 395.81 2.06625 -2.0434 0
M  V30 4233 H 395.357 1.20314 -2.27777 0
M  V30 4234 H 395.315 2.75483 -1.51514 0
M  V30 4235 N 399.087 1.5561 -0.249682 0
M  V30 4236 C 400.05 2.20217 0.635394 0
M  V30 4237 C 401.05 1.17227 1.10066 0
M  V30 4238 O 402.24 1.42292 1.00492 0
M  V30 4239 C 399.372 2.84794 1.87363 0
M  V30 4240 H 400.565 2.99814 0.0716752 0
M  V30 4241 H 398.118 1.563 -0.000153234 0
M  V30 4242 H 398.853 2.09142 2.47851 0
M  V30 4243 H 398.638 3.60241 1.5482 0
M  V30 4244 H 400.128 3.3423 2.5036 0
M  V30 4245 N 400.565 -0.0233959 1.57583 0
M  V30 4246 C 401.475 -1.03907 2.10334 0
M  V30 4247 C 402.491 -1.39257 1.04323 0
M  V30 4248 O 403.667 -1.48462 1.36091 0
M  V30 4249 C 400.732 -2.31938 2.57693 0
M  V30 4250 C 399.793 -2.03117 3.78209 0
M  V30 4251 C 399.026 -3.25043 4.233 0
M  V30 4252 O 399.249 -4.35916 3.67876 0
M  V30 4253 O 398.183 -3.10411 5.15683 0
M  V30 4254 H 402.009 -0.620748 2.97288 0
M  V30 4255 H 399.594 -0.240743 1.47448 0
M  V30 4256 H 401.476 -3.07196 2.88458 0
M  V30 4257 H 400.151 -2.73055 1.73847 0
M  V30 4258 H 399.058 -1.25408 3.52454 0
M  V30 4259 H 400.391 -1.66852 4.63056 0
M  V30 4260 N 402.043 -1.548 -0.295768 0
M  V30 4261 C 403.268 -1.78653 -1.05346 0
M  V30 4262 C 403.693 -0.546894 -1.79974 0
M  V30 4263 O 403.051 0.502763 -1.7419 0
M  V30 4264 C 403.099 -2.99679 -2.00561 0
M  V30 4265 O 402.203 -2.7317 -3.08953 0
M  V30 4266 H 401.544 -0.59116 -0.302367 0
M  V30 4267 H 404.074 -2.01895 -0.331598 0
M  V30 4268 H 404.084 -3.27793 -2.42932 0
M  V30 4269 H 402.759 -3.89562 -1.4565 0
M  V30 4270 H 401.336 -2.56089 -2.71059 0
M  V30 4271 N 403.521 0.559213 -1.47345 0
M  V30 4272 C 404.451 1.67622 -1.62558 0
M  V30 4273 C 405.432 1.63331 -0.475087 0
M  V30 4274 O 406.617 1.80983 -0.704182 0
M  V30 4275 C 403.747 3.0626 -1.63774 0
M  V30 4276 C 402.701 3.25397 -2.7803 0
M  V30 4277 C 402.027 4.64801 -2.64318 0
M  V30 4278 C 403.327 3.10965 -4.19641 0
M  V30 4279 H 405.021 1.55146 -2.56067 0
M  V30 4280 H 402.567 0.744961 -1.23233 0
M  V30 4281 H 404.52 3.84247 -1.73008 0
M  V30 4282 H 403.244 3.1969 -0.66825 0
M  V30 4283 H 401.903 2.49817 -2.68304 0
M  V30 4284 H 401.551 4.75028 -1.65401 0
M  V30 4285 H 401.251 4.78555 -3.40968 0
M  V30 4286 H 402.775 5.44926 -2.75478 0
M  V30 4287 H 404.189 3.78772 -4.30354 0
M  V30 4288 H 402.586 3.36229 -4.97062 0
M  V30 4289 H 403.656 2.07736 -4.38148 0
M  V30 4290 N 404.999 1.35443 0.805782 0
M  V30 4291 C 405.947 1.28465 1.93906 0
M  V30 4292 C 406.941 0.17943 1.68447 0
M  V30 4293 O 408.147 0.345459 1.76654 0
M  V30 4294 H 404.522 0.399528 0.637088 0
M  V30 4295 H 406.493 2.24206 1.96912 0
M  V30 4296 C 405.242 1.07432 3.30687 0
M  V30 4297 H 404.565 1.91716 3.50835 0
M  V30 4298 H 406.005 1.06591 4.10383 0
M  V30 4299 C 404.464 -0.22179 3.36169 0
M  V30 4300 O 404.994 -1.21731 3.82811 0
M  V30 4301 N 403.2 -0.260841 2.89427 0
M  V30 4302 H 402.747 0.549884 2.51663 0
M  V30 4303 H 402.705 -1.12777 2.93477 0
M  V30 4304 N 406.477 -1.02803 1.19454 0
M  V30 4305 C 407.44 -2.09264 0.934955 0
M  V30 4306 C 408.44 -1.60576 -0.0849015 0
M  V30 4307 O 409.63 -1.73554 0.149933 0
M  V30 4308 C 406.762 -3.38482 0.40531 0
M  V30 4309 H 407.955 -2.33726 1.87916 0
M  V30 4310 H 405.508 -1.19426 1.00832 0
M  V30 4311 H 406.243 -3.19689 -0.544899 0
M  V30 4312 H 406.028 -3.75142 1.14065 0
M  V30 4313 H 407.518 -4.16894 0.242806 0
M  V30 4314 N 407.956 -0.998596 -1.21925 0
M  V30 4315 C 409.205 -0.673085 -1.90138 0
M  V30 4316 C 409.518 0.79895 -1.78539 0
M  V30 4317 O 410.724 1.23628 -2.4172 0
M  V30 4318 C 409.18 -1.15339 -3.40918 0
M  V30 4319 C 408.788 -2.65106 -3.61141 0
M  V30 4320 C 410.532 -0.902476 -4.14796 0
M  V30 4321 C 408.439 -3.0671 -5.05651 0
M  V30 4322 H 407.369 -0.248057 -0.712028 0
M  V30 4323 H 410.02 -1.20891 -1.38049 0
M  V30 4324 H 408.402 -0.545658 -3.92223 0
M  V30 4325 H 409.576 -3.31274 -3.20304 0
M  V30 4326 H 407.891 -2.88142 -3.00605 0
M  V30 4327 H 410.488 -1.18895 -5.21314 0
M  V30 4328 H 410.831 0.161349 -4.15987 0
M  V30 4329 H 411.364 -1.47269 -3.69536 0
M  V30 4330 H 408.103 -4.12292 -5.09603 0
M  V30 4331 H 407.623 -2.45249 -5.47369 0
M  V30 4332 H 409.302 -2.9833 -5.74115 0
M  V30 4333 N 409.434 1.37368 -0.772513 0
M  V30 4334 C 410.682 1.99279 -0.336516 0
M  V30 4335 C 411.003 1.6163 1.09091 0
M  V30 4336 O 410.273 0.882109 1.74916 0
M  V30 4337 H 408.853 0.737063 -0.121435 0
M  V30 4338 H 411.515 1.67836 -0.990809 0
M  V30 4339 H 410.611 3.09332 -0.414763 0
M  V30 4340 N 410.912 0.523116 1.48665 0
M  V30 4341 C 412.158 -0.0134963 2.02796 0
M  V30 4342 C 412.491 -1.34582 1.40004 0
M  V30 4343 O 411.766 -1.86756 0.543381 0
M  V30 4344 C 412.049 -0.14276 3.59817 0
M  V30 4345 C 411.902 1.21425 4.331 0
M  V30 4346 C 413.221 -0.872856 4.31357 0
M  V30 4347 H 410.34 -0.00343074 0.736992 0
M  V30 4348 H 412.982 0.678816 1.7746 0
M  V30 4349 H 411.132 -0.732401 3.81534 0
M  V30 4350 H 412.804 1.84447 4.2282 0
M  V30 4351 H 411.047 1.79791 3.94788 0
M  V30 4352 H 411.718 1.07687 5.41394 0
M  V30 4353 H 414.194 -0.372555 4.14429 0
M  V30 4354 H 413.07 -0.932185 5.40927 0
M  V30 4355 H 413.331 -1.92161 3.98154 0
M  V30 4356 N 412.39 -1.55475 0.257931 0
M  V30 4357 C 413.32 -2.24815 -0.630912 0
M  V30 4358 C 414.301 -1.23224 -1.17259 0
M  V30 4359 O 415.486 -1.51904 -1.20991 0
M  V30 4360 C 412.616 -2.95609 -1.82298 0
M  V30 4361 C 411.57 -4.03982 -1.41359 0
M  V30 4362 C 410.896 -4.6226 -2.68738 0
M  V30 4363 C 412.196 -5.19109 -0.57648 0
M  V30 4364 H 413.89 -2.99354 -0.0526878 0
M  V30 4365 H 411.436 -1.4398 -0.023901 0
M  V30 4366 H 413.389 -3.42822 -2.45054 0
M  V30 4367 H 412.113 -2.18577 -2.42676 0
M  V30 4368 H 410.772 -3.57555 -0.809324 0
M  V30 4369 H 410.42 -3.81915 -3.27338 0
M  V30 4370 H 410.12 -5.35424 -2.42065 0
M  V30 4371 H 411.644 -5.12212 -3.32372 0
M  V30 4372 H 413.058 -5.62479 -1.10861 0
M  V30 4373 H 411.455 -5.98729 -0.405351 0
M  V30 4374 H 412.525 -4.83174 0.408776 0
M  V30 4375 N 413.868 0.0150385 -1.57593 0
M  V30 4376 C 415.117 0.702115 -1.89085 0
M  V30 4377 C 415.43 1.75764 -0.858277 0
M  V30 4378 O 416.636 2.49829 -1.0629 0
M  V30 4379 C 415.092 1.29992 -3.35604 0
M  V30 4380 C 414.7 0.280007 -4.47124 0
M  V30 4381 C 416.444 1.96606 -3.76227 0
M  V30 4382 C 414.351 0.886949 -5.84711 0
M  V30 4383 H 413.281 0.265997 -0.705522 0
M  V30 4384 H 415.932 -0.0430408 -1.8345 0
M  V30 4385 H 414.314 2.09525 -3.36029 0
M  V30 4386 H 415.488 -0.489631 -4.58191 0
M  V30 4387 H 413.803 -0.284835 -4.15425 0
M  V30 4388 H 416.4 2.42893 -4.76347 0
M  V30 4389 H 416.743 2.79024 -3.08952 0
M  V30 4390 H 417.276 1.23828 -3.78036 0
M  V30 4391 H 414.015 0.101876 -6.55421 0
M  V30 4392 H 413.535 1.6261 -5.77337 0
M  V30 4393 H 415.214 1.39011 -6.3189 0
M  V30 4394 N 415.346 1.54954 0.287554 0
M  V30 4395 C 416.576 1.78622 1.03816 0
M  V30 4396 C 416.984 0.552451 1.80955 0
M  V30 4397 O 416.327 -0.487665 1.77109 0
M  V30 4398 C 416.389 2.94975 2.055 0
M  V30 4399 C 416.053 4.32565 1.47433 0
M  V30 4400 C 417.05 5.12096 0.897436 0
M  V30 4401 C 414.735 4.79195 1.50591 0
M  V30 4402 C 416.729 6.36383 0.359851 0
M  V30 4403 C 414.416 6.03441 0.964459 0
M  V30 4404 C 415.414 6.81872 0.392413 0
M  V30 4405 O 415.102 8.03777 -0.140788 0
M  V30 4406 H 414.834 0.599144 0.313053 0
M  V30 4407 H 417.388 2.02761 0.328225 0
M  V30 4408 H 415.618 2.66493 2.80211 0
M  V30 4409 H 417.307 3.06097 2.6657 0
M  V30 4410 H 418.073 4.77209 0.865841 0
M  V30 4411 H 413.952 4.18167 1.94055 0
M  V30 4412 H 417.496 6.97545 -0.0872951 0
M  V30 4413 H 413.393 6.37813 0.993246 0
M  V30 4414 H 414.161 8.18495 -0.0287617 0
M  V30 4415 N 416.824 -0.551391 1.4764 0
M  V30 4416 C 417.757 -1.6738 1.5511 0
M  V30 4417 C 418.735 -1.5753 0.402856 0
M  V30 4418 O 419.919 -1.78307 0.611475 0
M  V30 4419 C 417.046 -3.05661 1.45908 0
M  V30 4420 C 416.092 -3.33938 2.65307 0
M  V30 4421 S 416.925 -3.22553 4.27457 0
M  V30 4422 C 418.081 -4.63317 4.20818 0
M  V30 4423 H 418.314 -1.6079 2.50068 0
M  V30 4424 H 415.847 -0.732674 1.35909 0
M  V30 4425 H 417.805 -3.8542 1.41286 0
M  V30 4426 H 416.466 -3.09711 0.523248 0
M  V30 4427 H 415.659 -4.34761 2.54948 0
M  V30 4428 H 415.261 -2.61809 2.67081 0
M  V30 4429 H 417.553 -5.54391 3.89431 0
M  V30 4430 H 418.496 -4.78732 5.21748 0
M  V30 4431 H 418.904 -4.41636 3.51593 0
M  V30 4432 N 418.302 -1.35869 -0.798587 0
M  V30 4433 C 419.579 -1.20145 -1.54352 0
M  V30 4434 C 419.959 0.216161 -2.0999 0
M  V30 4435 O 419.307 1.22068 -1.93162 0
M  V30 4436 C 419.517 -2.27602 -2.64572 0
M  V30 4437 C 420.865 -2.63811 -3.32699 0
M  V30 4438 O 421.889 -2.26576 -2.74849 0
M  V30 4439 O 420.748 -3.27866 -4.37226 0
M  V30 4440 H 417.842 -0.467248 -0.682355 0
M  V30 4441 H 420.388 -1.47574 -0.837859 0
M  V30 4442 H 419.16 -3.2265 -2.21388 0
M  V30 4443 H 418.783 -2.01488 -3.42766 0
M  V30 4444 N 419.78 1.02168 -1.19998 0
M  V30 4445 C 420.712 2.10705 -0.901994 0
M  V30 4446 C 421.725 1.6244 0.108216 0
M  V30 4447 O 422.914 1.78082 -0.12214 0
M  V30 4448 C 420.014 3.37291 -0.329834 0
M  V30 4449 C 419.187 4.14714 -1.39035 0
M  V30 4450 C 418.246 5.19606 -0.830432 0
M  V30 4451 O 417.272 5.48809 -1.50989 0
M  V30 4452 N 418.474 5.79366 0.362696 0
M  V30 4453 H 421.239 2.36856 -1.83628 0
M  V30 4454 H 418.8 1.18518 -1.10296 0
M  V30 4455 H 420.792 4.04657 0.0587633 0
M  V30 4456 H 419.362 3.0843 0.508891 0
M  V30 4457 H 418.582 3.42392 -1.9535 0
M  V30 4458 H 419.87 4.63226 -2.10474 0
M  V30 4459 H 419.268 5.57968 0.932081 0
M  V30 4460 H 417.825 6.48106 0.69299 0
M  V30 4461 N 421.258 1.00505 1.21394 0
M  V30 4462 C 422.486 0.706609 1.9446 0
M  V30 4463 C 422.901 -0.73081 1.74082 0
M  V30 4464 O 422.258 -1.49446 1.04747 0
M  V30 4465 C 422.309 1.01824 3.46863 0
M  V30 4466 O 422.03 2.39919 3.66566 0
M  V30 4467 C 423.531 0.739216 4.37093 0
M  V30 4468 H 420.751 0.260394 0.618414 0
M  V30 4469 H 423.295 1.34311 1.54211 0
M  V30 4470 H 421.45 0.427343 3.85036 0
M  V30 4471 H 421.864 2.50784 4.6066 0
M  V30 4472 H 423.338 1.00744 5.42729 0
M  V30 4473 H 423.815 -0.326746 4.37983 0
M  V30 4474 H 424.421 1.31173 4.04566 0
M  V30 4475 N 422.737 -1.36956 0.779787 0
M  V30 4476 C 423.684 -2.30175 0.169697 0
M  V30 4477 C 424.654 -1.51501 -0.68094 0
M  V30 4478 O 425.839 -1.80042 -0.631629 0
M  V30 4479 C 422.979 -3.37985 -0.697131 0
M  V30 4480 C 422.092 -4.31661 0.170992 0
M  V30 4481 C 421.227 -5.2655 -0.701298 0
M  V30 4482 C 420.266 -6.11867 0.168869 0
M  V30 4483 N 419.403 -6.98973 -0.661855 0
M  V30 4484 H 424.243 -2.81767 0.970135 0
M  V30 4485 H 421.78 -1.38699 0.489994 0
M  V30 4486 H 423.738 -3.99128 -1.2146 0
M  V30 4487 H 422.368 -2.87739 -1.46309 0
M  V30 4488 H 421.42 -3.71756 0.80634 0
M  V30 4489 H 422.732 -4.91644 0.841875 0
M  V30 4490 H 421.886 -5.92937 -1.28494 0
M  V30 4491 H 420.625 -4.66998 -1.40584 0
M  V30 4492 H 419.63 -5.44452 0.764986 0
M  V30 4493 H 420.855 -6.73493 0.870863 0
M  V30 4494 H 418.801 -6.41941 -1.35086 0
M  V30 4495 H 418.718 -7.55984 -0.0484447 0
M  V30 4496 H 419.986 -7.6974 -1.22963 0
M  V30 4497 N 424.215 -0.530993 -1.48385 0
M  V30 4498 C 425.462 0.0027373 -2.025 0
M  V30 4499 C 425.79 1.34186 -1.40799 0
M  V30 4500 O 425.045 1.88 -0.543544 0
M  V30 4501 C 425.344 0.172742 -3.56982 0
M  V30 4502 C 425.01 -1.09215 -4.37473 0
M  V30 4503 C 423.672 -1.43881 -4.59186 0
M  V30 4504 C 426.024 -1.93153 -4.84088 0
M  V30 4505 C 423.352 -2.62381 -5.2476 0
M  V30 4506 C 425.704 -3.10833 -5.50968 0
M  V30 4507 C 424.368 -3.45843 -5.70919 0
M  V30 4508 H 423.638 0.00100165 -0.740999 0
M  V30 4509 H 426.285 -0.697219 -1.78357 0
M  V30 4510 H 424.59 0.955473 -3.79971 0
M  V30 4511 H 426.287 0.600642 -3.96476 0
M  V30 4512 H 422.877 -0.812177 -4.20834 0
M  V30 4513 H 427.061 -1.67683 -4.67115 0
M  V30 4514 H 422.317 -2.89707 -5.38405 0
M  V30 4515 H 426.491 -3.7618 -5.86056 0
M  V30 4516 H 424.118 -4.37764 -6.21503 0
M  V30 4517 N 425.693 1.55336 -0.266172 0
M  V30 4518 C 427.104 1.85236 0.233315 0
M  V30 4519 C 427.455 1.18816 1.56132 0
M  V30 4520 O 426.58 0.473307 2.11161 0
M  V30 4521 C 427.175 3.36059 0.430113 0
M  V30 4522 C 425.734 3.66116 0.873842 0
M  V30 4523 C 424.881 2.77274 -0.0380016 0
M  V30 4524 H 427.832 1.51004 -0.488214 0
M  V30 4525 H 427.853 3.58681 1.26998 0
M  V30 4526 H 427.365 3.84373 -0.536588 0
M  V30 4527 H 425.466 3.23295 1.85233 0
M  V30 4528 H 425.579 4.73699 0.717358 0
M  V30 4529 H 423.943 2.50198 0.476759 0
M  V30 4530 H 424.726 3.284 -1.00042 0
M  V30 4531 N 427.171 -0.0066808 1.57599 0
M  V30 4532 C 428.42 -0.692078 1.89455 0
M  V30 4533 C 428.733 -1.75306 0.867586 0
M  V30 4534 O 429.939 -2.49262 1.07614 0
M  V30 4535 C 428.395 -1.2821 3.36289 0
M  V30 4536 C 428.003 -0.256291 4.47266 0
M  V30 4537 C 429.747 -1.94608 3.77264 0
M  V30 4538 C 427.654 -0.855927 5.85173 0
M  V30 4539 H 426.584 -0.262252 0.706923 0
M  V30 4540 H 429.235 0.052769 1.83424 0
M  V30 4541 H 427.617 -2.0774 3.37135 0
M  V30 4542 H 428.791 0.513923 4.57925 0
M  V30 4543 H 427.106 0.306862 4.15268 0
M  V30 4544 H 429.703 -2.40364 4.77629 0
M  V30 4545 H 430.046 -2.77382 3.10427 0
M  V30 4546 H 430.579 -1.21822 3.78688 0
M  V30 4547 H 427.318 -0.0671161 6.55466 0
M  V30 4548 H 426.838 -1.59546 5.78191 0
M  V30 4549 H 428.517 -1.35658 6.32618 0
M  V30 4550 N 428.649 -1.55105 -0.279332 0
M  V30 4551 C 429.895 -1.75672 -1.01327 0
M  V30 4552 C 430.228 -0.552739 -1.86168 0
M  V30 4553 O 429.503 0.449827 -1.89227 0
M  V30 4554 C 429.786 -3.05825 -1.90114 0
M  V30 4555 C 429.639 -4.36565 -1.08309 0
M  V30 4556 C 430.958 -3.31975 -2.8893 0
M  V30 4557 H 428.077 -0.639149 -0.366957 0
M  V30 4558 H 430.719 -1.87833 -0.286154 0
M  V30 4559 H 428.869 -2.95588 -2.52111 0
M  V30 4560 H 430.541 -4.58751 -0.484314 0
M  V30 4561 H 428.784 -4.32076 -0.386362 0
M  V30 4562 H 429.455 -5.23946 -1.73737 0
M  V30 4563 H 431.931 -3.41963 -2.37067 0
M  V30 4564 H 430.807 -4.2432 -3.48201 0
M  V30 4565 H 431.068 -2.51309 -3.63725 0
M  V30 4566 N 430.127 0.543554 -1.4793 0
M  V30 4567 C 431.075 1.67039 -1.61866 0
M  V30 4568 C 432.069 1.62294 -0.48549 0
M  V30 4569 O 433.275 1.67315 -0.66376 0
M  V30 4570 H 429.65 0.552954 -0.509652 0
M  V30 4571 H 431.621 1.52426 -2.56533 0
M  V30 4572 C 430.37 3.05357 -1.6629 0
M  V30 4573 H 429.693 3.09696 -2.5284 0
M  V30 4574 H 431.133 3.83855 -1.80088 0
M  V30 4575 C 429.592 3.34531 -0.398861 0
M  V30 4576 O 430.122 3.98649 0.494162 0
M  V30 4577 N 428.328 2.89299 -0.2747 0
M  V30 4578 H 427.875 2.37298 -1.00236 0
M  V30 4579 H 427.833 3.09188 0.570075 0
M  V30 4580 N 431.605 1.3629 0.791371 0
M  V30 4581 C 432.568 1.30309 1.88553 0
M  V30 4582 C 433.568 0.211204 1.59407 0
M  V30 4583 O 434.758 0.465865 1.67855 0
M  V30 4584 C 431.89 1.01956 3.25297 0
M  V30 4585 H 433.083 2.27614 1.95273 0
M  V30 4586 H 430.636 1.21035 0.988953 0
M  V30 4587 H 431.371 0.050998 3.2426 0
M  V30 4588 H 431.156 1.80968 3.4784 0
M  V30 4589 H 432.646 1.0037 4.05359 0
M  V30 4590 N 433.083 -1.0153 1.20538 0
M  V30 4591 C 433.993 -2.13557 0.971113 0
M  V30 4592 C 435.009 -1.73845 -0.0734366 0
M  V30 4593 O 436.185 -2.01075 0.114299 0
M  V30 4594 C 433.25 -3.42661 0.527639 0
M  V30 4595 C 432.311 -3.96608 1.64319 0
M  V30 4596 C 431.544 -5.1955 1.22078 0
M  V30 4597 O 431.767 -5.70329 0.0900198 0
M  V30 4598 O 430.701 -5.66681 2.02871 0
M  V30 4599 H 434.527 -2.3619 1.90913 0
M  V30 4600 H 432.112 -1.11946 0.989362 0
M  V30 4601 H 433.994 -4.20404 0.289621 0
M  V30 4602 H 432.669 -3.21441 -0.381779 0
M  V30 4603 H 431.576 -3.20139 1.93551 0
M  V30 4604 H 432.909 -4.22219 2.52966 0
M  V30 4605 N 434.561 -1.01147 -1.20859 0
M  V30 4606 C 435.491 -0.597663 -2.25722 0
M  V30 4607 C 436.472 0.384744 -1.65692 0
M  V30 4608 O 437.657 0.271303 -1.92296 0
M  V30 4609 C 434.787 0.0700149 -3.47229 0
M  V30 4610 C 433.741 -0.832843 -4.19819 0
M  V30 4611 C 433.067 -0.0312202 -5.34691 0
M  V30 4612 C 434.367 -2.1385 -4.76514 0
M  V30 4613 H 436.061 -1.47423 -2.60589 0
M  V30 4614 H 433.607 -0.710301 -1.25263 0
M  V30 4615 H 435.56 0.37103 -4.19763 0
M  V30 4616 H 434.284 0.981259 -3.11511 0
M  V30 4617 H 432.943 -1.11778 -3.49144 0
M  V30 4618 H 432.591 0.881515 -4.95215 0
M  V30 4619 H 432.291 -0.632434 -5.84187 0
M  V30 4620 H 433.815 0.26346 -6.10031 0
M  V30 4621 H 435.229 -1.9002 -5.40893 0
M  V30 4622 H 433.626 -2.69012 -5.36426 0
M  V30 4623 H 434.696 -2.80495 -3.95538 0
M  V30 4624 N 436.039 1.36541 -0.78704 0
M  V30 4625 C 437.264 2.0409 -0.369053 0
M  V30 4626 C 437.689 1.58957 1.00569 0
M  V30 4627 O 437.047 0.756926 1.64743 0
M  V30 4628 C 437.095 3.57924 -0.438466 0
M  V30 4629 O 436.199 4.08642 0.555479 0
M  V30 4630 H 435.54 0.645142 -0.157122 0
M  V30 4631 H 438.07 1.74545 -1.06749 0
M  V30 4632 H 438.08 4.06887 -0.301218 0
M  V30 4633 H 436.755 3.90127 -1.44132 0
M  V30 4634 H 435.332 3.70958 0.380088 0
M  V30 4635 N 437.518 0.538854 1.48102 0
M  V30 4636 C 438.765 0.0080018 2.02498 0
M  V30 4637 C 439.093 -1.33437 1.41509 0
M  V30 4638 O 438.348 -1.87709 0.553507 0
M  V30 4639 C 438.647 -0.153808 3.57069 0
M  V30 4640 C 438.313 1.11533 4.36888 0
M  V30 4641 C 436.975 1.46314 4.58417 0
M  V30 4642 C 439.327 1.95718 4.83057 0
M  V30 4643 C 436.655 2.6516 5.23361 0
M  V30 4644 C 439.007 3.13751 5.49312 0
M  V30 4645 C 437.671 3.48866 5.69077 0
M  V30 4646 H 436.941 0.00292807 0.740994 0
M  V30 4647 H 439.588 0.706668 1.77984 0
M  V30 4648 H 437.893 -0.935309 3.80472 0
M  V30 4649 H 439.59 -0.579607 3.96789 0
M  V30 4650 H 436.18 0.834484 4.20398 0
M  V30 4651 H 440.364 1.70158 4.66219 0
M  V30 4652 H 435.62 2.92558 5.36861 0
M  V30 4653 H 439.794 3.79282 5.84053 0
M  V30 4654 H 437.421 4.41054 6.19173 0
M  V30 4655 N 438.996 -1.55193 0.274407 0
M  V30 4656 C 440.243 -1.99581 -0.342579 0
M  V30 4657 C 440.571 -1.1628 -1.55914 0
M  V30 4658 O 439.826 -0.22029 -1.94456 0
M  V30 4659 C 440.125 -3.49019 -0.769458 0
M  V30 4660 C 439.791 -4.49598 0.342389 0
M  V30 4661 C 438.453 -4.76821 0.647686 0
M  V30 4662 C 440.805 -5.0964 1.09163 0
M  V30 4663 C 438.133 -5.61354 1.70581 0
M  V30 4664 C 440.485 -5.95323 2.13948 0
M  V30 4665 C 439.149 -6.20867 2.45113 0
M  V30 4666 H 438.419 -0.730319 -0.125358 0
M  V30 4667 H 441.066 -1.87529 0.387971 0
M  V30 4668 H 439.371 -3.58544 -1.57967 0
M  V30 4669 H 441.068 -3.8077 -1.25757 0
M  V30 4670 H 437.658 -4.28496 0.094318 0
M  V30 4671 H 441.842 -4.88632 0.869024 0
M  V30 4672 H 437.098 -5.79392 1.9523 0
M  V30 4673 H 441.272 -6.40881 2.72478 0
M  V30 4674 H 438.899 -6.86162 3.27239 0
M  V30 4675 N 440.474 -0.00167713 -1.576 0
M  V30 4676 C 441.722 0.681471 -1.90264 0
M  V30 4677 C 442.043 1.7422 -0.875924 0
M  V30 4678 O 441.313 1.95709 0.0864412 0
M  V30 4679 H 439.893 0.254696 -0.702239 0
M  V30 4680 H 442.555 -0.0429996 -1.94853 0
M  V30 4681 H 441.651 1.15166 -2.90075 0
M  V30 4682 N 441.952 1.55251 0.271103 0
M  V30 4683 C 442.902 1.84649 1.33749 0
M  V30 4684 C 443.886 0.705529 1.44607 0
M  V30 4685 O 445.078 0.966916 1.48256 0
M  V30 4686 C 442.207 2.12354 2.69742 0
M  V30 4687 C 441.293 3.32714 2.62988 0
M  V30 4688 N 441.684 4.52575 2.25853 0
M  V30 4689 C 439.982 3.35341 2.94045 0
M  V30 4690 C 440.683 5.34669 2.29136 0
M  V30 4691 N 439.659 4.73123 2.67685 0
M  V30 4692 H 443.461 2.74865 1.0405 0
M  V30 4693 H 440.975 1.55152 0.479738 0
M  V30 4694 H 442.972 2.31572 3.4667 0
M  V30 4695 H 441.632 1.23422 3.00328 0
M  V30 4696 H 442.643 4.78639 1.978 0
M  V30 4697 H 439.32 2.56608 3.2933 0
M  V30 4698 H 440.71 6.40509 2.02971 0
M  V30 4699 N 443.43 -0.535701 1.48216 0
M  V30 4700 C 444.393 -1.623 1.61838 0
M  V30 4701 C 445.393 -1.53087 0.492024 0
M  V30 4702 O 446.583 -1.5686 0.757668 0
M  V30 4703 C 443.715 -3.01907 1.58319 0
M  V30 4704 H 444.908 -1.51564 2.58783 0
M  V30 4705 H 442.461 -0.757317 1.36727 0
M  V30 4706 H 443.196 -3.18155 0.628299 0
M  V30 4707 H 442.981 -3.10003 2.40085 0
M  V30 4708 H 444.471 -3.80969 1.71033 0
M  V30 4709 N 444.908 -1.36708 -0.784132 0
M  V30 4710 C 445.858 -1.2799 -1.88686 0
M  V30 4711 C 446.842 -0.170282 -1.59996 0
M  V30 4712 O 448.034 -0.403571 -1.72338 0
M  V30 4713 C 445.163 -1.07674 -3.25977 0
M  V30 4714 C 444.249 -2.23127 -3.60659 0
M  V30 4715 N 444.64 -3.48467 -3.66612 0
M  V30 4716 C 442.938 -2.15009 -3.90752 0
M  V30 4717 C 443.639 -4.24525 -3.97685 0
M  V30 4718 N 442.615 -3.53524 -4.12943 0
M  V30 4719 H 446.417 -2.22927 -1.91522 0
M  V30 4720 H 443.931 -1.29503 -0.979933 0
M  V30 4721 H 445.928 -0.995151 -4.04849 0
M  V30 4722 H 444.588 -0.13643 -3.24413 0
M  V30 4723 H 445.599 -3.82534 -3.49125 0
M  V30 4724 H 442.276 -1.28963 -3.97083 0
M  V30 4725 H 443.666 -5.32944 -4.0917 0
M  V30 4726 N 446.386 1.0089 -1.21074 0
M  V30 4727 C 447.316 2.1145 -0.990523 0
M  V30 4728 C 448.297 1.69897 0.0831699 0
M  V30 4729 O 449.482 1.94052 -0.0758853 0
M  V30 4730 C 446.612 3.42914 -0.550177 0
M  V30 4731 C 445.566 3.98244 -1.56799 0
M  V30 4732 C 444.892 5.25568 -0.984013 0
M  V30 4733 C 446.192 4.30752 -2.95381 0
M  V30 4734 H 447.886 2.3013 -1.91521 0
M  V30 4735 H 445.432 1.10592 -0.92225 0
M  V30 4736 H 447.385 4.19653 -0.383305 0
M  V30 4737 H 446.109 3.24014 0.41015 0
M  V30 4738 H 444.768 3.23621 -1.72236 0
M  V30 4739 H 444.416 5.02998 -0.0155216 0
M  V30 4740 H 444.116 5.63551 -1.66384 0
M  V30 4741 H 445.64 6.04955 -0.828378 0
M  V30 4742 H 447.054 4.98349 -2.8341 0
M  V30 4743 H 445.451 4.79869 -3.60341 0
M  V30 4744 H 446.521 3.39192 -3.46521 0
M  V30 4745 N 447.864 1.01787 1.20321 0
M  V30 4746 C 449.112 0.706538 1.89347 0
M  V30 4747 C 449.433 -0.766289 1.79313 0
M  V30 4748 O 448.703 -1.55126 1.19635 0
M  V30 4749 H 447.283 0.258348 0.700903 0
M  V30 4750 H 449.945 1.28974 1.46122 0
M  V30 4751 H 449.041 0.991066 2.95946 0
M  V30 4752 N 449.342 -1.36122 0.79427 0
M  V30 4753 C 450.57 -2.03362 0.380989 0
M  V30 4754 C 450.985 -1.59881 -1.00416 0
M  V30 4755 O 450.342 -0.790515 -1.6449 0
M  V30 4756 C 450.393 -3.58804 0.440649 0
M  V30 4757 O 450.114 -4.007 1.77118 0
M  V30 4758 C 451.615 -4.43296 0.0186117 0
M  V30 4759 H 448.835 -0.652526 0.156367 0
M  V30 4760 H 451.379 -1.73998 1.07447 0
M  V30 4761 H 449.534 -3.8686 -0.204458 0
M  V30 4762 H 449.948 -4.95309 1.72538 0
M  V30 4763 H 451.422 -5.51887 0.111488 0
M  V30 4764 H 451.899 -4.2684 -1.03461 0
M  V30 4765 H 452.505 -4.20512 0.636395 0
M  V30 4766 N 450.82 -0.546701 -1.47814 0
M  V30 4767 C 452.068 -0.0187037 -2.02091 0
M  V30 4768 C 452.389 1.33168 -1.42447 0
M  V30 4769 O 451.659 1.86619 -0.595839 0
M  V30 4770 H 450.239 -0.00392531 -0.74699 0
M  V30 4771 H 452.901 -0.714327 -1.81338 0
M  V30 4772 H 451.997 0.0772219 -3.12004 0
M  V30 4773 N 452.299 1.55045 -0.282633 0
M  V30 4774 C 453.576 1.9179 0.384166 0
M  V30 4775 C 453.956 1.20778 1.73136 0
M  V30 4776 O 453.304 0.33719 2.25998 0
M  V30 4777 C 453.514 3.45149 0.517014 0
M  V30 4778 C 454.862 4.17064 0.796427 0
M  V30 4779 O 455.886 3.51084 0.601535 0
M  V30 4780 O 454.745 5.33837 1.16962 0
M  V30 4781 H 451.839 0.799483 0.211558 0
M  V30 4782 H 454.385 1.66474 -0.32934 0
M  V30 4783 H 453.157 3.88922 -0.430772 0
M  V30 4784 H 452.78 3.76443 1.2797 0
M  V30 4785 N 453.777 0.010035 1.57597 0
M  V30 4786 C 455.188 -0.531426 1.78977 0
M  V30 4787 C 455.539 -1.73375 0.918454 0
M  V30 4788 O 454.664 -2.16047 0.123635 0
M  V30 4789 C 455.259 -0.97086 3.24592 0
M  V30 4790 C 453.818 -1.45756 3.47033 0
M  V30 4791 C 452.965 -0.413384 2.74201 0
M  V30 4792 H 455.916 0.236166 1.56933 0
M  V30 4793 H 455.937 -1.83633 3.33255 0
M  V30 4794 H 455.449 -0.0955893 3.87982 0
M  V30 4795 H 453.55 -2.35339 2.88871 0
M  V30 4796 H 453.663 -1.4781 4.55729 0
M  V30 4797 H 452.027 -0.877266 2.39115 0
M  V30 4798 H 452.81 0.453092 3.40297 0
M  V30 4799 N 455.255 -1.55392 -0.262866 0
M  V30 4800 C 456.485 -1.80251 -1.00961 0
M  V30 4801 C 456.893 -0.58117 -1.80053 0
M  V30 4802 O 456.236 0.459427 -1.77862 0
M  V30 4803 C 456.298 -2.98207 -2.00781 0
M  V30 4804 C 455.962 -4.34856 -1.40533 0
M  V30 4805 C 456.959 -5.13459 -0.815853 0
M  V30 4806 C 454.644 -4.8153 -1.42948 0
M  V30 4807 C 456.638 -6.36875 -0.258562 0
M  V30 4808 C 454.325 -6.04899 -0.868334 0
M  V30 4809 C 455.323 -6.8241 -0.283884 0
M  V30 4810 O 455.011 -8.03451 0.268644 0
M  V30 4811 H 454.743 -0.604049 -0.303482 0
M  V30 4812 H 457.297 -2.03257 -0.295926 0
M  V30 4813 H 455.527 -2.70917 -2.75936 0
M  V30 4814 H 457.216 -3.10299 -2.61667 0
M  V30 4815 H 457.982 -4.78526 -0.789812 0
M  V30 4816 H 453.861 -4.21201 -1.87378 0
M  V30 4817 H 457.405 -6.97318 0.198257 0
M  V30 4818 H 453.302 -6.39312 -0.891649 0
M  V30 4819 H 454.07 -8.18346 0.158974 0
M  V30 4820 N 456.733 0.527833 -1.48498 0
M  V30 4821 C 457.961 1.30823 -1.6029 0
M  V30 4822 C 458.376 1.86945 -0.263974 0
M  V30 4823 O 457.733 1.6651 0.747034 0
M  V30 4824 C 457.784 2.45756 -2.65116 0
M  V30 4825 O 457.505 1.91946 -3.93813 0
M  V30 4826 C 459.006 3.37543 -2.87367 0
M  V30 4827 H 456.226 0.397763 -0.540394 0
M  V30 4828 H 458.77 0.636529 -1.94341 0
M  V30 4829 H 456.925 3.08806 -2.33917 0
M  V30 4830 H 457.339 2.67195 -4.51339 0
M  V30 4831 H 458.813 4.14532 -3.6451 0
M  V30 4832 H 459.29 3.92905 -1.9627 0
M  V30 4833 H 459.896 2.80283 -3.19878 0
M  V30 4834 N 458.211 1.37122 0.776871 0
M  V30 4835 C 459.622 1.28667 1.35284 0
M  V30 4836 C 459.973 -0.0680035 1.96082 0
M  V30 4837 O 459.098 -0.969743 1.93455 0
M  V30 4838 C 459.693 2.32997 2.45963 0
M  V30 4839 C 458.252 2.28191 2.99342 0
M  V30 4840 C 457.399 2.17101 1.72517 0
M  V30 4841 H 460.35 1.47819 0.577527 0
M  V30 4842 H 460.371 1.97366 3.2531 0
M  V30 4843 H 459.883 3.3158 2.01684 0
M  V30 4844 H 457.984 1.33115 3.4801 0
M  V30 4845 H 458.097 3.21397 3.55304 0
M  V30 4846 H 456.461 1.63562 1.95242 0
M  V30 4847 H 457.244 3.17591 1.30348 0
M  V30 4848 N 459.689 -1.00246 1.21608 0
M  V30 4849 C 460.937 -1.73717 1.0328 0
M  V30 4850 C 461.258 -1.90102 -0.434318 0
M  V30 4851 O 460.528 -1.45376 -1.31311 0
M  V30 4852 H 459.108 -0.643613 0.379172 0
M  V30 4853 H 461.77 -1.20787 1.52959 0
M  V30 4854 H 460.866 -2.73535 1.50283 0
M  V30 4855 N 461.167 -1.02423 -1.1978 0
M  V30 4856 C 462.414 -0.717988 -1.89344 0
M  V30 4857 C 462.742 0.753036 -1.79331 0
M  V30 4858 O 461.997 1.56355 -1.17692 0
M  V30 4859 C 462.296 -1.1088 -3.39765 0
M  V30 4860 C 461.962 -2.57731 -3.6998 0
M  V30 4861 C 460.624 -2.97854 -3.77937 0
M  V30 4862 C 462.976 -3.52763 -3.83677 0
M  V30 4863 C 460.304 -4.31931 -3.97054 0
M  V30 4864 C 462.656 -4.86538 -4.04306 0
M  V30 4865 C 461.32 -5.26356 -4.10494 0
M  V30 4866 H 460.59 -0.26273 -0.692859 0
M  V30 4867 H 463.237 -1.28623 -1.41875 0
M  V30 4868 H 461.542 -0.459094 -3.89101 0
M  V30 4869 H 463.239 -0.849432 -3.919 0
M  V30 4870 H 459.829 -2.25646 -3.64393 0
M  V30 4871 H 464.013 -3.2292 -3.76877 0
M  V30 4872 H 459.269 -4.62324 -4.00083 0
M  V30 4873 H 463.443 -5.60093 -4.13846 0
M  V30 4874 H 461.07 -6.3026 -4.2506 0
M  V30 4875 N 462.645 1.35699 -0.801477 0
M  V30 4876 C 464.056 1.81415 -0.441073 0
M  V30 4877 C 464.407 1.66595 1.03636 0
M  V30 4878 O 463.532 1.19369 1.80499 0
M  V30 4879 C 464.127 3.29369 -0.793819 0
M  V30 4880 C 462.686 3.73248 -0.486083 0
M  V30 4881 C 461.833 2.57775 -1.02213 0
M  V30 4882 H 464.784 1.23749 -0.993572 0
M  V30 4883 H 464.805 3.80395 -0.0894158 0
M  V30 4884 H 464.317 3.40123 -1.86917 0
M  V30 4885 H 462.418 3.68046 0.580735 0
M  V30 4886 H 462.531 4.68222 -1.01513 0
M  V30 4887 H 460.895 2.50788 -0.444712 0
M  V30 4888 H 461.678 2.71309 -2.10348 0
M  V30 4889 N 464.123 0.554532 1.47522 0
M  V30 4890 C 465.348 0.0322661 2.07375 0
M  V30 4891 C 465.773 -1.25079 1.40488 0
M  V30 4892 O 465.131 -1.74859 0.47896 0
M  V30 4893 C 465.179 -0.149397 3.6029 0
M  V30 4894 O 464.283 -1.21259 3.9417 0
M  V30 4895 H 463.624 0.0501228 0.662106 0
M  V30 4896 H 466.154 0.769452 1.8958 0
M  V30 4897 H 466.164 -0.364437 4.06369 0
M  V30 4898 H 464.839 0.787743 4.08372 0
M  V30 4899 H 463.416 -0.97825 3.5984 0
M  V30 4900 N 465.601 -1.54893 0.290851 0
M  V30 4901 C 466.848 -1.99933 -0.321391 0
M  V30 4902 C 467.176 -1.17927 -1.54672 0
M  V30 4903 O 466.431 -0.240902 -1.94212 0
M  V30 4904 C 466.73 -3.49815 -0.732397 0
M  V30 4905 C 466.396 -4.4921 0.390056 0
M  V30 4906 C 465.058 -4.76107 0.698223 0
M  V30 4907 C 467.41 -5.08453 1.14562 0
M  V30 4908 C 464.738 -5.59514 1.76526 0
M  V30 4909 C 467.09 -5.9302 2.2025 0
M  V30 4910 C 465.754 -6.18232 2.51684 0
M  V30 4911 H 465.024 -0.731608 -0.117605 0
M  V30 4912 H 467.671 -1.87107 0.407839 0
M  V30 4913 H 465.976 -3.60199 -1.54155 0
M  V30 4914 H 467.673 -3.82083 -1.21712 0
M  V30 4915 H 464.263 -4.28372 0.13976 0
M  V30 4916 H 468.447 -4.87683 0.920801 0
M  V30 4917 H 463.703 -5.77289 2.01364 0
M  V30 4918 H 467.877 -6.37955 2.7926 0
M  V30 4919 H 465.504 -6.82653 3.34499 0
M  V30 4920 N 467.08 -0.0183926 -1.57589 0
M  V30 4921 C 468.028 0.985111 -2.10709 0
M  V30 4922 C 469.022 1.34397 -1.0312 0
M  V30 4923 O 470.228 1.32746 -1.21567 0
M  V30 4924 H 466.603 0.335418 -0.673052 0
M  V30 4925 H 468.574 0.511689 -2.9398 0
M  V30 4926 C 467.323 2.26202 -2.64061 0
M  V30 4927 H 466.646 1.9946 -3.4649 0
M  V30 4928 H 468.086 2.94652 -3.04887 0
M  V30 4929 C 466.545 2.98444 -1.5631 0
M  V30 4930 O 467.075 3.90142 -0.956674 0
M  V30 4931 N 465.281 2.6059 -1.28612 0
M  V30 4932 H 464.828 1.86101 -1.78112 0
M  V30 4933 H 464.786 3.09238 -0.567406 0
M  V30 4934 N 468.558 1.5553 0.254621 0
M  V30 4935 C 469.508 1.86057 1.31783 0
M  V30 4936 C 470.492 0.720827 1.4385 0
M  V30 4937 O 471.684 0.982586 1.47222 0
M  V30 4938 C 468.813 2.15203 2.67475 0
M  V30 4939 C 467.899 3.35484 2.59444 0
M  V30 4940 N 468.29 4.54945 2.2104 0
M  V30 4941 C 466.588 3.38441 2.90472 0
M  V30 4942 C 467.289 5.3707 2.23453 0
M  V30 4943 N 466.265 4.75936 2.62652 0
M  V30 4944 H 470.067 2.75953 1.01129 0
M  V30 4945 H 467.581 1.55653 0.463255 0
M  V30 4946 H 469.578 2.35235 3.44195 0
M  V30 4947 H 468.238 1.26601 2.99002 0
M  V30 4948 H 469.249 4.8071 1.92712 0
M  V30 4949 H 465.926 2.60087 3.2659 0
M  V30 4950 H 467.316 6.42626 1.96166 0
M  V30 4951 N 470.036 -0.519951 1.48776 0
M  V30 4952 C 471.264 -1.29971 1.60982 0
M  V30 4953 C 471.679 -1.86803 0.273885 0
M  V30 4954 O 471.036 -1.66904 -0.738193 0
M  V30 4955 C 471.087 -2.44346 2.66415 0
M  V30 4956 O 470.808 -1.89855 3.94825 0
M  V30 4957 C 472.309 -3.36014 2.89153 0
M  V30 4958 H 469.529 -0.394891 0.542496 0
M  V30 4959 H 472.073 -0.626214 1.94676 0
M  V30 4960 H 470.228 -3.07562 2.35552 0
M  V30 4961 H 470.642 -2.64798 4.5275 0
M  V30 4962 H 472.116 -4.12593 3.66703 0
M  V30 4963 H 472.593 -3.91859 1.98351 0
M  V30 4964 H 473.199 -2.78582 3.21359 0
M  V30 4965 N 471.514 -1.37532 -0.769588 0
M  V30 4966 C 472.446 -1.29347 -1.89214 0
M  V30 4967 C 473.459 -0.208842 -1.61455 0
M  V30 4968 O 474.648 -0.465158 -1.72333 0
M  V30 4969 C 471.748 -0.977649 -3.24492 0
M  V30 4970 C 470.921 -2.16817 -3.7988 0
M  V30 4971 C 469.98 -1.82229 -4.93639 0
M  V30 4972 O 469.006 -2.54548 -5.09111 0
M  V30 4973 N 470.208 -0.767696 -5.75401 0
M  V30 4974 H 472.973 -2.26073 -1.96751 0
M  V30 4975 H 470.534 -1.31185 -0.948795 0
M  V30 4976 H 472.526 -0.727065 -3.98115 0
M  V30 4977 H 471.096 -0.0988777 -3.12444 0
M  V30 4978 H 470.316 -2.58038 -2.9801 0
M  V30 4979 H 471.604 -2.96308 -4.13617 0
M  V30 4980 H 471.002 -0.167626 -5.65452 0
M  V30 4981 H 469.559 -0.576973 -6.49241 0
M  V30 4982 N 472.992 0.995999 -1.22138 0
M  V30 4983 C 474.239 1.7351 -1.04406 0
M  V30 4984 C 474.567 1.89884 0.421244 0
M  V30 4985 O 473.822 1.43683 1.32867 0
M  V30 4986 C 474.121 3.14553 -1.6968 0
M  V30 4987 C 473.787 3.18102 -3.19565 0
M  V30 4988 C 472.449 3.18778 -3.60464 0
M  V30 4989 C 474.801 3.14636 -4.15516 0
M  V30 4990 C 472.129 3.13684 -4.95801 0
M  V30 4991 C 474.481 3.11084 -5.50826 0
M  V30 4992 C 473.145 3.10074 -5.91109 0
M  V30 4993 H 472.415 0.634916 -0.38205 0
M  V30 4994 H 475.062 1.1667 -1.51857 0
M  V30 4995 H 473.367 3.74682 -1.14546 0
M  V30 4996 H 475.064 3.70477 -1.53454 0
M  V30 4997 H 471.654 3.18324 -2.86998 0
M  V30 4998 H 475.838 3.13266 -3.84939 0
M  V30 4999 H 471.094 3.11245 -5.26247 0
M  V30 5000 H 475.268 3.07357 -6.24904 0
M  V30 5001 H 472.895 3.05882 -6.95946 0
M  V30 5002 N 474.47 1.03057 1.19235 0
M  V30 5003 C 475.881 0.757449 1.70645 0
M  V30 5004 C 476.232 -0.722735 1.82403 0
M  V30 5005 O 475.357 -1.56325 1.49638 0
M  V30 5006 C 475.952 1.36833 3.09939 0
M  V30 5007 C 474.511 1.14375 3.58602 0
M  V30 5008 C 473.658 1.46533 2.35422 0
M  V30 5009 H 476.609 1.19828 1.04052 0
M  V30 5010 H 476.63 0.766184 3.72706 0
M  V30 5011 H 476.142 2.44562 3.01349 0
M  V30 5012 H 474.243 0.0847542 3.72504 0
M  V30 5013 H 474.356 1.83366 4.42622 0
M  V30 5014 H 472.72 0.884712 2.38841 0
M  V30 5015 H 473.503 2.55349 2.2946 0
M  V30 5016 N 475.948 -1.35272 0.808662 0
M  V30 5017 C 477.359 -1.81179 0.450688 0
M  V30 5018 C 477.71 -1.67143 -1.02751 0
M  V30 5019 O 476.835 -1.20325 -1.79864 0
M  V30 5020 C 477.43 -3.28943 0.811275 0
M  V30 5021 C 475.989 -3.72985 0.505871 0
M  V30 5022 C 475.136 -2.57229 1.03578 0
M  V30 5023 H 478.087 -1.2322 1.00012 0
M  V30 5024 H 478.108 -3.80342 0.109588 0
M  V30 5025 H 477.62 -3.39127 1.88718 0
M  V30 5026 H 475.721 -3.68349 -0.561209 0
M  V30 5027 H 475.834 -4.67677 1.03995 0
M  V30 5028 H 474.198 -2.50548 0.458005 0
M  V30 5029 H 474.981 -2.7019 2.11784 0
M  V30 5030 N 477.426 -0.562348 -1.47226 0
M  V30 5031 C 478.651 -0.0432632 -2.07355 0
M  V30 5032 C 479.076 1.24332 -1.41149 0
M  V30 5033 O 478.434 1.74603 -0.488226 0
M  V30 5034 C 478.482 0.130288 -3.60365 0
M  V30 5035 O 477.586 1.19166 -3.94808 0
M  V30 5036 H 476.927 -0.0536334 -0.66183 0
M  V30 5037 H 479.457 -0.779495 -1.89169 0
M  V30 5038 H 479.467 0.342881 -4.06557 0
M  V30 5039 H 478.142 -0.809389 -4.07948 0
M  V30 5040 H 476.719 0.959153 -3.60354 0
M  V30 5041 N 478.904 1.54736 -0.299062 0
M  V30 5042 C 480.32 1.59507 0.0543849 0
M  V30 5043 C 480.52 1.31606 1.52585 0
M  V30 5044 O 479.576 1.08853 2.27832 0
M  V30 5045 C 480.889 2.98751 -0.34181 0
M  V30 5046 C 482.437 3.1165 -0.290414 0
M  V30 5047 C 482.912 4.53199 -0.661402 0
M  V30 5048 N 484.403 4.59114 -0.613863 0
M  V30 5049 C 485.138 5.66709 -0.873417 0
M  V30 5050 N 484.634 6.82349 -1.19884 0
M  V30 5051 N 486.427 5.56369 -0.800608 0
M  V30 5052 H 478.578 1.71133 -1.25806 0
M  V30 5053 H 480.841 0.799186 -0.509908 0
M  V30 5054 H 480.547 3.24085 -1.36608 0
M  V30 5055 H 480.421 3.75961 0.305508 0
M  V30 5056 H 482.808 2.86066 0.724605 0
M  V30 5057 H 482.889 2.366 -0.972327 0
M  V30 5058 H 482.533 4.79513 -1.67422 0
M  V30 5059 H 482.463 5.26583 0.0425612 0
M  V30 5060 H 484.954 3.76053 -0.3732 0
M  V30 5061 H 485.267 7.60326 -1.38291 0
M  V30 5062 H 483.612 6.83906 -1.23685 0
M  V30 5063 H 486.803 4.64904 -0.546045 0
M  V30 5064 H 486.976 6.40139 -1.00626 0
M  V30 5065 N 480.382 0.0267497 1.57577 0
M  V30 5066 C 481.607 -0.666227 1.96408 0
M  V30 5067 C 482.032 -1.65004 0.903071 0
M  V30 5068 O 481.39 -1.80787 -0.136263 0
M  V30 5069 C 481.438 -1.35101 3.34335 0
M  V30 5070 O 480.542 -2.46623 3.30531 0
M  V30 5071 H 479.883 -0.175206 0.640468 0
M  V30 5072 H 482.413 0.0878977 2.04411 0
M  V30 5073 H 482.423 -1.70834 3.70513 0
M  V30 5074 H 481.098 -0.629844 4.11103 0
M  V30 5075 H 479.675 -2.13019 3.06068 0
M  V30 5076 N 481.861 -1.55662 -0.24637 0
M  V30 5077 C 483.086 -1.81914 -0.996093 0
M  V30 5078 C 483.511 -0.603875 -1.78143 0
M  V30 5079 O 482.869 0.447091 -1.75701 0
M  V30 5080 C 482.917 -3.05908 -1.90925 0
M  V30 5081 O 482.021 -2.82861 -3.00105 0
M  V30 5082 H 481.362 -0.600481 -0.283406 0
M  V30 5083 H 483.892 -2.02848 -0.267199 0
M  V30 5084 H 483.902 -3.35356 -2.3238 0
M  V30 5085 H 482.577 -3.93999 -1.33183 0
M  V30 5086 H 481.154 -2.64583 -2.62775 0
M  V30 5087 N 483.339 0.512053 -1.4905 0
M  V30 5088 C 484.587 1.26436 -1.57665 0
M  V30 5089 C 484.908 1.93255 -0.260293 0
M  V30 5090 O 484.178 1.82206 0.719564 0
M  V30 5091 H 482.758 0.469658 -0.580888 0
M  V30 5092 H 485.42 0.594398 -1.85615 0
M  V30 5093 H 484.516 2.03417 -2.36702 0
M  V30 5094 N 484.817 1.37938 0.762283 0
M  V30 5095 C 485.747 1.37176 1.88958 0
M  V30 5096 C 486.728 0.238945 1.68413 0
M  V30 5097 O 487.913 0.440726 1.89133 0
M  V30 5098 C 485.043 1.18742 3.2637 0
M  V30 5099 C 483.997 2.29136 3.61498 0
M  V30 5100 C 483.323 1.95816 4.97554 0
M  V30 5101 C 484.623 3.71363 3.6727 0
M  V30 5102 H 486.317 2.31509 1.89853 0
M  V30 5103 H 483.863 1.11438 0.912005 0
M  V30 5104 H 485.816 1.16837 4.04879 0
M  V30 5105 H 484.54 0.208683 3.25933 0
M  V30 5106 H 483.199 2.30213 2.85303 0
M  V30 5107 H 482.847 0.964475 4.93667 0
M  V30 5108 H 482.547 2.69745 5.22026 0
M  V30 5109 H 484.071 1.95513 5.78452 0
M  V30 5110 H 485.485 3.72364 4.35911 0
M  V30 5111 H 483.882 4.44425 4.03245 0
M  V30 5112 H 484.952 4.04305 2.67704 0
M  V30 5113 N 486.295 -0.989507 1.22664 0
M  V30 5114 C 487.706 -1.54406 1.04955 0
M  V30 5115 C 488.057 -1.92366 -0.385951 0
M  V30 5116 O 487.182 -1.75111 -1.27142 0
M  V30 5117 C 487.777 -2.80578 1.89899 0
M  V30 5118 C 486.336 -3.32464 1.76478 0
M  V30 5119 C 485.483 -2.05524 1.86159 0
M  V30 5120 H 488.434 -0.810211 1.3646 0
M  V30 5121 H 488.455 -3.53075 1.4184 0
M  V30 5122 H 487.967 -2.52918 2.94371 0
M  V30 5123 H 486.068 -3.65024 0.747528 0
M  V30 5124 H 486.181 -4.02838 2.59342 0
M  V30 5125 H 484.545 -2.19241 1.29636 0
M  V30 5126 H 485.328 -1.80258 2.92168 0
M  V30 5127 N 487.773 -1.03688 -1.18687 0
M  V30 5128 C 488.721 -0.618292 -2.24232 0
M  V30 5129 C 489.715 0.353045 -1.6568 0
M  V30 5130 O 490.921 0.220749 -1.78641 0
M  V30 5131 H 487.296 -0.181711 -0.729716 0
M  V30 5132 H 489.267 -1.51893 -2.56848 0
M  V30 5133 C 488.016 0.00677342 -3.47699 0
M  V30 5134 H 487.339 -0.731692 -3.93047 0
M  V30 5135 H 488.779 0.262492 -4.23187 0
M  V30 5136 C 487.238 1.25572 -3.12623 0
M  V30 5137 O 487.768 2.34691 -3.26011 0
M  V30 5138 N 485.974 1.14755 -2.66982 0
M  V30 5139 H 485.521 0.259601 -2.56289 0
M  V30 5140 H 485.479 1.98412 -2.43885 0
M  V30 5141 N 489.251 1.34841 -0.815825 0
M  V30 5142 C 490.5 1.97755 -0.396976 0
M  V30 5143 C 490.813 1.65422 1.04379 0
M  V30 5144 O 492.019 2.21771 1.5662 0
M  V30 5145 C 490.475 3.53818 -0.658869 0
M  V30 5146 C 490.083 3.95051 -2.11278 0
M  V30 5147 C 491.827 4.23397 -0.305834 0
M  V30 5148 C 489.734 5.43997 -2.31994 0
M  V30 5149 H 488.664 0.739985 -0.1447 0
M  V30 5150 H 491.315 1.53781 -1.00118 0
M  V30 5151 H 489.697 3.95997 0.0154112 0
M  V30 5152 H 490.871 3.63998 -2.82564 0
M  V30 5153 H 489.186 3.38388 -2.42657 0
M  V30 5154 H 491.783 5.32899 -0.43854 0
M  V30 5155 H 492.126 4.09508 0.748952 0
M  V30 5156 H 492.659 3.8667 -0.934403 0
M  V30 5157 H 489.398 5.62865 -3.35952 0
M  V30 5158 H 488.918 5.76589 -1.65244 0
M  V30 5159 H 490.597 6.10584 -2.14001 0
M  V30 5160 N 490.729 0.570148 1.46925 0
M  V30 5161 C 492.14 0.1402 1.86173 0
M  V30 5162 C 492.491 -1.29347 1.47526 0
M  V30 5163 O 491.616 -1.97508 0.884292 0
M  V30 5164 C 492.211 0.247661 3.37894 0
M  V30 5165 C 490.77 -0.127332 3.76185 0
M  V30 5166 C 489.917 0.589349 2.70965 0
M  V30 5167 H 492.868 0.779117 1.38259 0
M  V30 5168 H 492.889 -0.530341 3.76786 0
M  V30 5169 H 492.401 1.29121 3.65991 0
M  V30 5170 H 490.502 -1.17149 3.53704 0
M  V30 5171 H 490.615 0.240238 4.78497 0
M  V30 5172 H 488.979 0.0309824 2.54681 0
M  V30 5173 H 489.762 1.6343 3.01903 0
M  V30 5174 N 492.207 -1.54576 0.307264 0
M  V30 5175 C 493.453 -2.0056 -0.300612 0
M  V30 5176 C 493.786 -1.1953 -1.53057 0
M  V30 5177 O 493.061 -0.27337 -1.92569 0
M  V30 5178 C 493.344 -3.54167 -0.650987 0
M  V30 5179 C 493.197 -4.45933 0.588539 0
M  V30 5180 C 494.516 -4.14645 -1.47506 0
M  V30 5181 H 491.635 -0.729075 -0.107788 0
M  V30 5182 H 494.277 -1.85286 0.420606 0
M  V30 5183 H 492.427 -3.67313 -1.26544 0
M  V30 5184 H 494.099 -4.44683 1.22697 0
M  V30 5185 H 492.342 -4.16274 1.22058 0
M  V30 5186 H 493.013 -5.51189 0.299153 0
M  V30 5187 H 495.489 -4.04973 -0.955821 0
M  V30 5188 H 494.365 -5.22269 -1.68899 0
M  V30 5189 H 494.626 -3.66921 -2.4662 0
M  V30 5190 N 493.685 -0.035106 -1.57561 0
M  V30 5191 C 494.617 0.973604 -2.07494 0
M  V30 5192 C 495.63 1.28504 -0.999534 0
M  V30 5193 O 496.819 1.24864 -1.27559 0
M  V30 5194 C 493.919 2.29945 -2.48955 0
M  V30 5195 C 493.092 2.1723 -3.79644 0
M  V30 5196 C 492.151 3.328 -4.07592 0
M  V30 5197 O 491.177 3.09418 -4.77754 0
M  V30 5198 N 492.379 4.56779 -3.58236 0
M  V30 5199 H 495.144 0.547525 -2.94656 0
M  V30 5200 H 492.705 0.151515 -1.61189 0
M  V30 5201 H 494.697 3.06097 -2.64739 0
M  V30 5202 H 493.267 2.64173 -1.67126 0
M  V30 5203 H 492.487 1.25768 -3.73599 0
M  V30 5204 H 493.775 2.05945 -4.65257 0
M  V30 5205 H 493.173 4.78668 -3.01485 0
M  V30 5206 H 491.73 5.30079 -3.79288 0
M  V30 5207 N 495.163 1.55791 0.238111 0
M  V30 5208 C 496.391 1.82098 0.982233 0
M  V30 5209 C 496.806 0.612025 1.78605 0
M  V30 5210 O 496.163 -0.419381 1.77616 0
M  V30 5211 C 496.214 3.0673 1.91309 0
M  V30 5212 O 495.935 4.2296 1.14179 0
M  V30 5213 C 497.436 3.45903 2.77248 0
M  V30 5214 H 494.656 0.605748 0.288635 0
M  V30 5215 H 497.2 2.02862 0.258341 0
M  V30 5216 H 495.355 2.87991 2.59114 0
M  V30 5217 H 495.769 4.93653 1.7722 0
M  V30 5218 H 497.243 4.36189 3.38295 0
M  V30 5219 H 497.72 2.66891 3.48806 0
M  V30 5220 H 498.326 3.67024 2.14881 0
M  V30 5221 N 496.642 -0.504142 1.49319 0
M  V30 5222 C 497.891 -1.25507 1.57895 0
M  V30 5223 C 498.204 -1.93735 0.269433 0
M  V30 5224 O 499.41 -2.70492 0.233706 0
M  V30 5225 C 497.866 -2.27869 2.78574 0
M  V30 5226 C 497.474 -1.65594 4.16272 0
M  V30 5227 C 499.218 -3.0381 2.96479 0
M  V30 5228 C 497.125 -2.66048 5.28178 0
M  V30 5229 H 496.055 -0.47212 0.587894 0
M  V30 5230 H 498.706 -0.52931 1.757 0
M  V30 5231 H 497.088 -3.03594 2.54257 0
M  V30 5232 H 498.262 -0.958826 4.50714 0
M  V30 5233 H 496.577 -1.02055 4.037 0
M  V30 5234 H 499.174 -3.78925 3.77253 0
M  V30 5235 H 499.517 -3.61235 2.06918 0
M  V30 5236 H 500.05 -2.352 3.20821 0
M  V30 5237 H 496.789 -2.13408 6.19788 0
M  V30 5238 H 496.309 -3.34009 4.98195 0
M  V30 5239 H 497.988 -3.28536 5.57381 0
M  V30 5240 N 498.12 -1.38341 -0.754957 0
M  V30 5241 C 499.345 -1.37882 -1.5493 0
M  V30 5242 C 499.77 0.0296385 -1.88077 0
M  V30 5243 O 499.128 1.01133 -1.50472 0
M  V30 5244 C 499.176 -2.23996 -2.82592 0
M  V30 5245 O 498.28 -1.65612 -3.77686 0
M  V30 5246 H 497.621 -0.470384 -0.468652 0
M  V30 5247 H 500.151 -1.82084 -0.933082 0
M  V30 5248 H 500.161 -2.37806 -3.3153 0
M  V30 5249 H 498.836 -3.26365 -2.57796 0
M  V30 5250 H 497.413 -1.60936 -3.36384 0
M  V30 5251 N 499.598 0.982988 -1.23187 0
M  V30 5252 C 501.014 1.2487 -0.993967 0
M  V30 5253 C 501.214 1.99155 0.306498 0
M  V30 5254 O 500.27 2.30688 1.0266 0
M  V30 5255 C 501.583 2.05078 -2.19917 0
M  V30 5256 C 503.131 2.18227 -2.2438 0
M  V30 5257 C 503.606 3.01825 -3.44479 0
M  V30 5258 N 505.097 3.09411 -3.44702 0
M  V30 5259 C 505.832 3.74412 -4.34285 0
M  V30 5260 N 505.328 4.41259 -5.341 0
M  V30 5261 N 507.121 3.71273 -4.22035 0
M  V30 5262 H 499.272 0.485253 -2.06783 0
M  V30 5263 H 501.535 0.276979 -0.906635 0
M  V30 5264 H 501.241 1.57867 -3.14279 0
M  V30 5265 H 501.115 3.05829 -2.2079 0
M  V30 5266 H 503.502 2.64648 -1.30559 0
M  V30 5267 H 503.583 1.16873 -2.2754 0
M  V30 5268 H 503.227 2.56102 -4.38605 0
M  V30 5269 H 503.157 4.03342 -3.38559 0
M  V30 5270 H 505.648 2.61845 -2.7248 0
M  V30 5271 H 505.961 4.88629 -5.98717 0
M  V30 5272 H 504.306 4.39975 -5.38002 0
M  V30 5273 H 507.497 3.18217 -3.43301 0
M  V30 5274 H 507.67 4.21649 -4.92053 0
M  V30 5275 N 501.076 1.04316 1.18135 0
M  V30 5276 C 502.039 0.640794 2.2006 0
M  V30 5277 C 503.039 -0.303124 1.57917 0
M  V30 5278 O 504.229 -0.0881855 1.73977 0
M  V30 5279 C 501.361 -0.060148 3.40847 0
M  V30 5280 H 502.554 1.54281 2.57172 0
M  V30 5281 H 500.107 0.836004 1.32063 0
M  V30 5282 H 500.842 -0.975845 3.0927 0
M  V30 5283 H 500.627 0.618319 3.87194 0
M  V30 5284 H 502.117 -0.328082 4.16309 0
M  V30 5285 N 502.554 -1.34406 0.822964 0
M  V30 5286 C 503.517 -2.2783 0.250271 0
M  V30 5287 C 504.517 -1.50288 -0.571854 0
M  V30 5288 O 505.707 -1.69825 -0.387952 0
M  V30 5289 C 502.839 -3.34663 -0.649137 0
M  V30 5290 H 504.032 -2.79992 1.07444 0
M  V30 5291 H 501.585 -1.44539 0.594829 0
M  V30 5292 H 502.32 -2.87714 -1.49637 0
M  V30 5293 H 502.105 -3.92052 -0.0611199 0
M  V30 5294 H 503.595 -4.04349 -1.04363 0
M  V30 5295 N 504.032 -0.577932 -1.46621 0
M  V30 5296 C 504.995 0.147805 -2.28723 0
M  V30 5297 C 505.995 0.823325 -1.38123 0
M  V30 5298 O 507.185 0.676011 -1.60548 0
M  V30 5299 C 504.317 1.21853 -3.18378 0
M  V30 5300 H 505.51 -0.573654 -2.94362 0
M  V30 5301 H 503.063 -0.335703 -1.52652 0
M  V30 5302 H 503.798 1.97173 -2.57475 0
M  V30 5303 H 503.583 0.738714 -3.85078 0
M  V30 5304 H 505.073 1.72768 -3.80186 0
M  V30 5305 N 505.51 1.54411 -0.315457 0
M  V30 5306 C 506.42 2.27737 0.56329 0
M  V30 5307 C 507.436 1.31787 1.13614 0
M  V30 5308 O 508.612 1.64791 1.15784 0
M  V30 5309 C 505.677 3.01478 1.71207 0
M  V30 5310 C 504.738 4.12997 1.17185 0
M  V30 5311 C 503.971 4.83212 2.26588 0
M  V30 5312 O 504.194 4.52884 3.46775 0
M  V30 5313 O 503.128 5.70299 1.92463 0
M  V30 5314 H 506.954 3.03683 -0.0319614 0
M  V30 5315 H 504.539 1.49178 -0.0814188 0
M  V30 5316 H 506.421 3.47683 2.38106 0
M  V30 5317 H 505.096 2.28414 2.29366 0
M  V30 5318 H 504.003 3.71159 0.468174 0
M  V30 5319 H 505.336 4.8808 0.635501 0
M  V30 5320 N 506.988 0.0434614 1.5754 0
M  V30 5321 C 507.935 -0.93356 2.11077 0
M  V30 5322 C 508.905 -1.31383 1.01626 0
M  V30 5323 O 510.09 -1.40465 1.29129 0
M  V30 5324 C 507.23 -2.20578 2.65404 0
M  V30 5325 C 506.343 -1.88068 3.88914 0
M  V30 5326 C 505.478 -3.09691 4.31584 0
M  V30 5327 C 504.517 -2.73067 5.47815 0
M  V30 5328 N 503.654 -3.87359 5.85574 0
M  V30 5329 H 508.494 -0.470118 2.94268 0
M  V30 5330 H 506.031 -0.220434 1.45439 0
M  V30 5331 H 507.989 -2.95011 2.94999 0
M  V30 5332 H 506.619 -2.64513 1.85021 0
M  V30 5333 H 505.671 -1.03816 3.6596 0
M  V30 5334 H 506.983 -1.57104 4.73413 0
M  V30 5335 H 506.137 -3.92431 4.62691 0
M  V30 5336 H 504.876 -3.43827 3.45882 0
M  V30 5337 H 503.881 -1.88742 5.16388 0
M  V30 5338 H 505.106 -2.40131 6.35227 0
M  V30 5339 H 503.052 -4.21311 5.02825 0
M  V30 5340 H 502.969 -3.60068 6.64746 0
M  V30 5341 H 504.237 -4.70761 6.21292 0
M  V30 5342 N 508.466 -1.55915 -0.229846 0
M  V30 5343 C 509.396 -1.94754 -1.28815 0
M  V30 5344 C 510.377 -0.814657 -1.49323 0
M  V30 5345 O 511.562 -1.07631 -1.61645 0
M  V30 5346 C 508.692 -2.25705 -2.63959 0
M  V30 5347 C 507.646 -3.41406 -2.5812 0
M  V30 5348 C 506.972 -3.57941 -3.97218 0
M  V30 5349 C 508.272 -4.76616 -2.13623 0
M  V30 5350 H 509.966 -2.83404 -0.965547 0
M  V30 5351 H 507.512 -1.36353 -0.463028 0
M  V30 5352 H 509.465 -2.51467 -3.38146 0
M  V30 5353 H 508.189 -1.339 -2.9789 0
M  V30 5354 H 506.848 -3.1568 -1.86391 0
M  V30 5355 H 506.496 -2.63526 -4.28443 0
M  V30 5356 H 506.196 -4.35757 -3.94195 0
M  V30 5357 H 507.72 -3.86042 -4.73079 0
M  V30 5358 H 509.134 -5.01637 -2.77549 0
M  V30 5359 H 507.531 -5.57655 -2.21677 0
M  V30 5360 H 508.601 -4.7253 -1.08829 0
M  V30 5361 N 509.944 0.496216 -1.49584 0
M  V30 5362 C 511.191 1.25003 -1.59312 0
M  V30 5363 C 511.519 1.92445 -0.28198 0
M  V30 5364 O 510.774 1.81557 0.730452 0
M  V30 5365 C 511.073 2.3359 -2.705 0
M  V30 5366 C 510.739 1.83574 -4.11839 0
M  V30 5367 C 509.401 1.69653 -4.50302 0
M  V30 5368 C 511.753 1.46193 -5.00277 0
M  V30 5369 C 509.081 1.16736 -5.74969 0
M  V30 5370 C 511.433 0.947265 -6.25468 0
M  V30 5371 C 510.097 0.794485 -6.62755 0
M  V30 5372 H 509.367 0.45742 -0.582965 0
M  V30 5373 H 512.014 0.549996 -1.83432 0
M  V30 5374 H 510.319 3.09401 -2.40371 0
M  V30 5375 H 512.016 2.91627 -2.75235 0
M  V30 5376 H 508.606 1.9537 -3.81482 0
M  V30 5377 H 512.79 1.55793 -4.71214 0
M  V30 5378 H 508.046 1.03623 -6.02555 0
M  V30 5379 H 512.22 0.648846 -6.93371 0
M  V30 5380 H 509.847 0.382271 -7.59238 0
M  V30 5381 N 511.423 1.38739 0.74761 0
M  V30 5382 C 512.671 1.35007 1.50391 0
M  V30 5383 C 512.992 -0.0574274 1.94915 0
M  V30 5384 O 512.262 -1.00628 1.6808 0
M  V30 5385 H 510.842 0.496784 0.557866 0
M  V30 5386 H 513.504 1.73479 0.888319 0
M  V30 5387 H 512.6 2.00474 2.392 0
M  V30 5388 N 512.901 -0.976442 1.23707 0
M  V30 5389 C 513.849 -2.09078 1.01927 0
M  V30 5390 C 514.843 -1.69345 -0.0430193 0
M  V30 5391 O 516.049 -1.79659 0.110814 0
M  V30 5392 H 512.424 -0.68398 0.312531 0
M  V30 5393 H 514.395 -2.24614 1.96447 0
M  V30 5394 C 513.144 -3.41919 0.631385 0
M  V30 5395 H 512.467 -3.72946 1.44053 0
M  V30 5396 H 513.907 -4.20817 0.518532 0
M  V30 5397 C 512.366 -3.30357 -0.660723 0
M  V30 5398 O 512.896 -3.63542 -1.70881 0
M  V30 5399 N 511.102 -2.83507 -0.638139 0
M  V30 5400 H 510.649 -2.567 0.215108 0
M  V30 5401 H 510.607 -2.76153 -1.50289 0
M  V30 5402 N 514.379 -1.04941 -1.1758 0
M  V30 5403 C 515.312 -0.592518 -2.20373 0
M  V30 5404 C 516.29 0.377561 -1.58156 0
M  V30 5405 O 517.474 0.28978 -1.86259 0
M  V30 5406 C 514.601 0.133215 -3.38438 0
M  V30 5407 C 513.647 -0.791484 -4.19092 0
M  V30 5408 S 514.48 -2.27925 -4.84572 0
M  V30 5409 C 515.636 -1.56462 -6.06028 0
M  V30 5410 H 515.869 -1.46342 -2.58788 0
M  V30 5411 H 513.402 -0.861148 -1.28155 0
M  V30 5412 H 515.36 0.545746 -4.06856 0
M  V30 5413 H 514.021 0.980124 -2.98416 0
M  V30 5414 H 513.214 -0.230039 -5.03475 0
M  V30 5415 H 512.816 -1.14326 -3.56098 0
M  V30 5416 H 515.108 -0.862539 -6.71987 0
M  V30 5417 H 516.051 -2.38583 -6.66696 0
M  V30 5418 H 516.459 -1.05313 -5.5459 0
M  V30 5419 N 515.857 1.33968 -0.830081 0
M  V30 5420 C 516.767 2.33164 -0.259207 0
M  V30 5421 C 517.783 1.62951 0.610164 0
M  V30 5422 O 518.959 1.94668 0.516369 0
M  V30 5423 C 516.024 3.42088 0.563598 0
M  V30 5424 C 515.085 4.28037 -0.329014 0
M  V30 5425 C 514.318 5.3176 0.454616 0
M  V30 5426 O 514.541 5.44876 1.6872 0
M  V30 5427 O 513.475 6.01669 -0.166794 0
M  V30 5428 H 517.301 2.83832 -1.08041 0
M  V30 5429 H 514.886 1.37154 -0.59239 0
M  V30 5430 H 516.768 4.08581 1.03147 0
M  V30 5431 H 515.443 2.93651 1.36201 0
M  V30 5432 H 514.35 3.64443 -0.844538 0
M  V30 5433 H 515.683 4.79934 -1.09196 0
M  V30 5434 N 517.335 0.585699 1.46312 0
M  V30 5435 C 518.583 0.072278 2.01971 0
M  V30 5436 C 518.904 -1.29345 1.45928 0
M  V30 5437 O 518.174 -1.84973 0.645109 0
M  V30 5438 H 516.754 0.023729 0.746623 0
M  V30 5439 H 519.416 0.762155 1.7938 0
M  V30 5440 H 518.512 0.00552767 3.121 0
M  V30 5441 N 518.813 -1.54241 0.323641 0
M  V30 5442 C 520.09 -1.92741 -0.333181 0
M  V30 5443 C 520.47 -1.25326 -1.69872 0
M  V30 5444 O 519.818 -0.396991 -2.25025 0
M  V30 5445 C 520.028 -3.46399 -0.425322 0
M  V30 5446 C 521.376 -4.19029 -0.68557 0
M  V30 5447 O 522.4 -3.52555 -0.50824 0
M  V30 5448 O 521.259 -5.36751 -1.02767 0
M  V30 5449 H 518.353 -0.804811 -0.190286 0
M  V30 5450 H 520.899 -1.65542 0.373361 0
M  V30 5451 H 519.671 -3.87643 0.533737 0
M  V30 5452 H 519.294 -3.79704 -1.17944 0
M  V30 5453 N 520.291 -0.0518155 -1.57515 0
M  V30 5454 C 521.531 0.625712 -1.94587 0
M  V30 5455 C 521.895 1.6797 -0.930053 0
M  V30 5456 O 523.096 2.41135 -1.18774 0
M  V30 5457 C 521.367 1.20574 -3.36447 0
M  V30 5458 S 522.926 1.90118 -3.95475 0
M  V30 5459 H 519.744 0.205434 -0.680675 0
M  V30 5460 H 522.346 -0.120906 -1.95126 0
M  V30 5461 H 521.05 0.426521 -4.08178 0
M  V30 5462 H 520.581 1.98916 -3.39405 0
M  V30 5463 H 522.596 3.18184 -3.80753 0
M  V30 5464 N 521.769 1.56035 0.221574 0
M  V30 5465 C 523.18 1.69229 0.788567 0
M  V30 5466 C 523.531 0.653814 1.84986 0
M  V30 5467 O 522.656 -0.195065 2.15519 0
M  V30 5468 C 523.251 3.06809 1.43713 0
M  V30 5469 C 521.81 3.21858 1.95152 0
M  V30 5470 C 520.957 2.65155 0.811685 0
M  V30 5471 H 523.908 1.587 -0.00307894 0
M  V30 5472 H 523.929 3.02666 2.30594 0
M  V30 5473 H 523.441 3.82369 0.664475 0
M  V30 5474 H 521.542 2.51167 2.7522 0
M  V30 5475 H 521.655 4.29073 2.1315 0
M  V30 5476 H 520.019 2.23635 1.21899 0
M  V30 5477 H 520.802 3.43261 0.0516987 0
M  V30 5478 N 523.247 -0.488276 1.49845 0
M  V30 5479 C 524.472 -1.26997 1.63971 0
M  V30 5480 C 524.897 -1.85427 0.315994 0
M  V30 5481 O 524.255 -1.66475 -0.718032 0
M  V30 5482 C 524.303 -2.36689 2.72049 0
M  V30 5483 O 523.407 -3.40882 2.32107 0
M  V30 5484 H 522.748 -0.374376 0.548396 0
M  V30 5485 H 525.278 -0.583104 1.96115 0
M  V30 5486 H 525.288 -2.82262 2.94605 0
M  V30 5487 H 523.963 -1.93529 3.68129 0
M  V30 5488 H 522.54 -3.01139 2.19931 0
M  V30 5489 N 524.725 -1.39134 -0.740242 0
M  V30 5490 C 526.002 -1.26584 -1.49117 0
M  V30 5491 C 526.382 0.126902 -2.10718 0
M  V30 5492 O 525.73 1.13765 -1.98166 0
M  V30 5493 C 525.94 -2.38619 -2.54681 0
M  V30 5494 C 527.288 -2.77685 -3.21211 0
M  V30 5495 O 528.312 -2.38029 -2.64991 0
M  V30 5496 O 527.171 -3.46115 -4.22926 0
M  V30 5497 H 524.265 -0.495769 -0.661923 0
M  V30 5498 H 526.811 -1.50995 -0.774514 0
M  V30 5499 H 525.583 -3.3175 -2.07504 0
M  V30 5500 H 525.206 -2.15845 -3.33911 0
M  V30 5501 N 526.204 0.969867 -1.24223 0
M  V30 5502 C 527.45 1.71582 -1.09231 0
M  V30 5503 C 527.805 1.88898 0.365432 0
M  V30 5504 O 527.098 1.43781 1.2664 0
M  V30 5505 C 527.292 3.10883 -1.76314 0
M  V30 5506 C 527.121 3.07155 -3.2846 0
M  V30 5507 C 525.891 3.11757 -3.97663 0
M  V30 5508 C 528.089 2.895 -4.25082 0
M  V30 5509 N 526.071 2.98025 -5.36707 0
M  V30 5510 C 527.442 2.84041 -5.51109 0
M  V30 5511 C 529.497 2.74064 -4.15684 0
M  V30 5512 C 528.2 2.64725 -6.68815 0
M  V30 5513 C 530.226 2.56115 -5.33066 0
M  V30 5514 C 529.588 2.51363 -6.58024 0
M  V30 5515 H 525.687 0.636496 -0.454309 0
M  V30 5516 H 528.271 1.15004 -1.57106 0
M  V30 5517 H 526.442 3.65657 -1.30955 0
M  V30 5518 H 528.174 3.74171 -1.54201 0
M  V30 5519 H 524.929 3.20352 -3.48814 0
M  V30 5520 H 525.353 2.94405 -6.09635 0
M  V30 5521 H 529.995 2.76521 -3.19837 0
M  V30 5522 H 527.713 2.61011 -7.64787 0
M  V30 5523 H 531.299 2.45119 -5.27644 0
M  V30 5524 H 530.179 2.37651 -7.47323 0
M  V30 5525 N 527.682 1.05563 1.17022 0
M  V30 5526 C 528.629 0.659893 2.21165 0
M  V30 5527 C 529.599 -0.339813 1.62587 0
M  V30 5528 O 530.784 -0.230378 1.89404 0
M  V30 5529 C 527.924 0.0447297 3.45071 0
M  V30 5530 C 527.037 1.09372 4.17926 0
M  V30 5531 C 526.172 0.445481 5.29329 0
M  V30 5532 C 525.211 1.47852 5.93975 0
M  V30 5533 N 524.348 0.854172 6.96885 0
M  V30 5534 H 529.188 1.55243 2.54369 0
M  V30 5535 H 526.725 0.776336 1.24946 0
M  V30 5536 H 528.683 -0.329404 4.15898 0
M  V30 5537 H 527.313 -0.811244 3.1244 0
M  V30 5538 H 526.365 1.58564 3.45777 0
M  V30 5539 H 527.677 1.87773 4.62107 0
M  V30 5540 H 526.831 0.0179688 6.06697 0
M  V30 5541 H 525.57 -0.370481 4.86291 0
M  V30 5542 H 524.575 1.91601 5.15334 0
M  V30 5543 H 525.8 2.29645 6.39093 0
M  V30 5544 H 523.746 0.0587882 6.55974 0
M  V30 5545 H 523.663 1.57567 7.39397 0
M  V30 5546 H 524.931 0.451559 7.78191 0
M  V30 5547 N 529.16 -1.33526 0.837174 0
M  V30 5548 C 530.388 -2.02047 0.445494 0
M  V30 5549 C 530.803 -1.62995 -0.952788 0
M  V30 5550 O 530.16 -0.842447 -1.61892 0
M  V30 5551 C 530.211 -3.57221 0.554577 0
M  V30 5552 O 529.932 -3.94863 1.89776 0
M  V30 5553 C 531.433 -4.43012 0.159634 0
M  V30 5554 H 528.653 -0.647221 0.177048 0
M  V30 5555 H 531.197 -1.70492 1.12928 0
M  V30 5556 H 529.352 -3.87315 -0.0812781 0
M  V30 5557 H 529.766 -4.89569 1.88208 0
M  V30 5558 H 531.24 -5.51253 0.28701 0
M  V30 5559 H 531.717 -4.29916 -0.898289 0
M  V30 5560 H 532.323 -4.18274 0.769855 0
M  V30 5561 N 530.638 -0.59345 -1.46 0
M  V30 5562 C 531.915 -0.0157933 -1.95594 0
M  V30 5563 C 532.295 1.44807 -1.53604 0
M  V30 5564 O 531.643 2.14342 -0.791824 0
M  V30 5565 C 531.853 -0.199081 -3.48432 0
M  V30 5566 C 533.201 -0.0724943 -4.24538 0
M  V30 5567 O 534.225 -0.128469 -3.55968 0
M  V30 5568 O 533.084 0.0542426 -5.46473 0
M  V30 5569 H 530.178 0.043749 -0.825842 0
M  V30 5570 H 532.724 -0.662522 -1.56233 0
M  V30 5571 H 531.496 -1.21631 -3.71916 0
M  V30 5572 H 531.119 0.483576 -3.94648 0
M  V30 5573 N 532.116 1.54067 -0.331816 0
M  V30 5574 C 533.341 2.05599 0.272705 0
M  V30 5575 C 533.766 1.2059 1.44359 0
M  V30 5576 O 533.124 0.216907 1.79998 0
M  V30 5577 C 533.172 3.54188 0.677021 0
M  V30 5578 O 532.276 3.72082 1.77844 0
M  V30 5579 H 531.617 0.662286 0.0476801 0
M  V30 5580 H 534.147 1.98826 -0.482624 0
M  V30 5581 H 534.157 3.96608 0.957415 0
M  V30 5582 H 532.832 4.15513 -0.179325 0
M  V30 5583 H 531.409 3.41566 1.49622 0
M  V30 5584 N 533.594 0.0601682 1.57485 0
M  V30 5585 C 534.822 -0.620937 1.97363 0
M  V30 5586 C 535.237 -1.63846 0.938082 0
M  V30 5587 O 534.594 -1.82339 -0.0766578 0
M  V30 5588 C 534.645 -1.29987 3.37321 0
M  V30 5589 O 534.366 -0.323081 4.36907 0
M  V30 5590 C 535.867 -2.06989 3.92008 0
M  V30 5591 H 533.087 -0.169135 0.649334 0
M  V30 5592 H 535.631 0.129132 2.04092 0
M  V30 5593 H 533.786 -2.0011 3.31715 0
M  V30 5594 H 534.2 -0.808754 5.18227 0
M  V30 5595 H 535.674 -2.49901 4.92192 0
M  V30 5596 H 536.151 -2.92173 3.2792 0
M  V30 5597 H 536.757 -1.41757 4.0098 0
M  V30 5598 N 535.072 -1.5615 -0.213296 0
M  V30 5599 C 536.312 -1.81325 -0.943435 0
M  V30 5600 C 536.676 -0.634934 -1.81198 0
M  V30 5601 O 537.877 -0.766166 -2.5765 0
M  V30 5602 C 536.148 -3.11437 -1.75334 0
M  V30 5603 S 537.707 -3.57955 -2.53799 0
M  V30 5604 H 534.525 -0.636538 -0.316766 0
M  V30 5605 H 537.127 -1.94387 -0.208313 0
M  V30 5606 H 535.831 -3.95228 -1.10556 0
M  V30 5607 H 535.362 -3.01204 -2.53061 0
M  V30 5608 H 537.377 -3.21947 -3.77577 0
M  V30 5609 N 536.55 0.480323 -1.50102 0
M  V30 5610 C 537.966 0.813295 -1.37323 0
M  V30 5611 C 538.166 1.97027 -0.422206 0
M  V30 5612 O 537.222 2.5212 0.138563 0
M  V30 5613 C 538.535 1.13404 -2.78496 0
M  V30 5614 C 540.083 1.24104 -2.87345 0
M  V30 5615 C 540.558 1.59497 -4.29331 0
M  V30 5616 N 542.049 1.66507 -4.32238 0
M  V30 5617 C 542.784 1.95378 -5.39087 0
M  V30 5618 N 542.28 2.22333 -6.56155 0
M  V30 5619 N 544.073 1.96803 -5.26522 0
M  V30 5620 H 536.224 -0.282291 -2.10516 0
M  V30 5621 H 538.487 -0.063752 -0.945854 0
M  V30 5622 H 538.193 0.357064 -3.49883 0
M  V30 5623 H 538.067 2.07251 -3.15162 0
M  V30 5624 H 540.454 2.00871 -2.16183 0
M  V30 5625 H 540.535 0.282593 -2.54234 0
M  V30 5626 H 540.179 0.832736 -5.01027 0
M  V30 5627 H 540.109 2.56477 -4.59921 0
M  V30 5628 H 542.6 1.47753 -3.47818 0
M  V30 5629 H 542.913 2.43611 -7.33399 0
M  V30 5630 H 541.258 2.19745 -6.59346 0
M  V30 5631 H 544.449 1.75235 -4.34062 0
M  V30 5632 H 544.622 2.18969 -6.09883 0
M  V30 5633 N 538.028 1.39524 0.732853 0
M  V30 5634 C 538.961 1.32806 1.85574 0
M  V30 5635 C 539.939 0.201354 1.61348 0
M  V30 5636 O 541.123 0.38216 1.84585 0
M  V30 5637 C 538.25 1.06271 3.21596 0
M  V30 5638 C 537.296 2.21161 3.64678 0
M  V30 5639 S 538.129 3.83454 3.73796 0
M  V30 5640 C 539.285 3.59149 5.12604 0
M  V30 5641 H 539.518 2.27838 1.9099 0
M  V30 5642 H 537.051 1.25605 0.897927 0
M  V30 5643 H 539.009 0.916461 4.00139 0
M  V30 5644 H 537.67 0.129223 3.13834 0
M  V30 5645 H 536.863 1.98193 4.63396 0
M  V30 5646 H 536.465 2.32 2.93346 0
M  V30 5647 H 538.757 3.16547 5.99003 0
M  V30 5648 H 539.7 4.57335 5.40602 0
M  V30 5649 H 540.108 2.93203 4.82382 0
M  V30 5650 N 539.506 -0.963266 1.24736 0
M  V30 5651 C 540.752 -1.70933 1.09131 0
M  V30 5652 C 541.085 -1.90676 -0.368273 0
M  V30 5653 O 540.36 -1.47147 -1.27193 0
M  V30 5654 C 540.643 -3.09744 1.83658 0
M  V30 5655 C 540.496 -2.97465 3.37394 0
M  V30 5656 C 541.815 -4.09483 1.61282 0
M  V30 5657 H 538.934 -0.620398 0.397838 0
M  V30 5658 H 541.576 -1.12028 1.53459 0
M  V30 5659 H 539.726 -3.60031 1.4598 0
M  V30 5660 H 541.398 -2.54571 3.84696 0
M  V30 5661 H 539.641 -2.33576 3.65547 0
M  V30 5662 H 540.312 -3.95822 3.84745 0
M  V30 5663 H 542.788 -3.68073 1.94066 0
M  V30 5664 H 541.664 -5.04666 2.15878 0
M  V30 5665 H 541.925 -4.38639 0.552102 0
M  V30 5666 N 540.985 -1.06182 -1.16461 0
M  V30 5667 C 542.213 -0.798583 -1.90867 0
M  V30 5668 C 542.628 0.646921 -1.77371 0
M  V30 5669 O 541.985 1.44279 -1.11758 0
M  V30 5670 C 542.036 -1.18258 -3.4161 0
M  V30 5671 O 541.757 -2.57135 -3.54701 0
M  V30 5672 C 543.258 -0.946917 -4.33069 0
M  V30 5673 H 540.478 -0.289603 -0.605286 0
M  V30 5674 H 543.022 -1.41515 -1.47627 0
M  V30 5675 H 541.177 -0.610562 -3.82558 0
M  V30 5676 H 541.591 -2.72477 -4.4817 0
M  V30 5677 H 543.065 -1.26523 -5.37304 0
M  V30 5678 H 543.542 0.117406 -4.39043 0
M  V30 5679 H 544.148 -1.50326 -3.97847 0
M  V30 5680 N 542.463 1.3308 -0.844243 0
M  V30 5681 C 543.688 2.02341 -0.455282 0
M  V30 5682 C 544.113 1.6308 0.93737 0
M  V30 5683 O 543.471 0.826118 1.61385 0
M  V30 5684 C 543.519 3.55743 -0.58988 0
M  V30 5685 O 542.623 4.1063 0.38166 0
M  V30 5686 H 541.964 0.637898 -0.184343 0
M  V30 5687 H 544.494 1.6986 -1.14056 0
M  V30 5688 H 544.504 4.05243 -0.473522 0
M  V30 5689 H 543.179 3.83662 -1.60549 0
M  V30 5690 H 541.756 3.72236 0.22241 0
M  V30 5691 N 543.941 0.601185 1.45683 0
M  V30 5692 C 544.851 -0.123395 2.34275 0
M  V30 5693 C 545.867 -0.86702 1.5086 0
M  V30 5694 O 547.043 -0.826049 1.8368 0
M  V30 5695 C 544.108 -1.11237 3.2837 0
M  V30 5696 C 543.169 -0.371405 4.2769 0
M  V30 5697 C 542.402 -1.31327 5.1729 0
M  V30 5698 O 542.625 -2.55078 5.10188 0
M  V30 5699 O 541.559 -0.813811 5.96373 0
M  V30 5700 H 545.385 0.604483 2.97623 0
M  V30 5701 H 542.97 0.361477 1.44961 0
M  V30 5702 H 544.852 -1.68214 3.8637 0
M  V30 5703 H 543.527 -1.82139 2.67595 0
M  V30 5704 H 542.434 0.24067 3.73325 0
M  V30 5705 H 543.767 0.296998 4.91303 0
M  V30 5706 N 545.419 -1.53889 0.339982 0
M  V30 5707 C 546.644 -2.05741 -0.261798 0
M  V30 5708 C 547.069 -1.21354 -1.43718 0
M  V30 5709 O 546.427 -0.22645 -1.7988 0
M  V30 5710 C 546.475 -3.54542 -0.658228 0
M  V30 5711 O 545.579 -3.7302 -1.75869 0
M  V30 5712 H 544.92 -0.662529 -0.0441672 0
M  V30 5713 H 547.45 -1.98568 0.493161 0
M  V30 5714 H 547.46 -3.9711 -0.936368 0
M  V30 5715 H 546.135 -4.15412 0.201358 0
M  V30 5716 H 544.712 -3.42355 -1.47809 0
M  V30 5717 N 546.897 -0.0685191 -1.57451 0
M  V30 5718 C 547.844 0.899861 -2.12535 0
M  V30 5719 C 548.814 1.29749 -1.03703 0
M  V30 5720 O 549.999 1.38392 -1.31348 0
M  V30 5721 C 547.139 2.16328 -2.6888 0
M  V30 5722 C 546.252 1.81857 -3.91857 0
M  V30 5723 C 545.387 3.02786 -4.36457 0
M  V30 5724 C 544.426 2.64317 -5.5209 0
M  V30 5725 N 543.563 3.77994 -5.91663 0
M  V30 5726 H 548.403 0.423243 -2.94979 0
M  V30 5727 H 545.94 0.197268 -1.45771 0
M  V30 5728 H 547.898 2.90281 -2.99655 0
M  V30 5729 H 546.528 2.61536 -1.89206 0
M  V30 5730 H 545.58 0.979808 -3.67565 0
M  V30 5731 H 546.892 1.49553 -4.75852 0
M  V30 5732 H 546.046 3.85021 -4.68875 0
M  V30 5733 H 544.785 3.38281 -3.51308 0
M  V30 5734 H 543.79 1.80503 -5.19325 0
M  V30 5735 H 545.015 2.29995 -6.38967 0
M  V30 5736 H 542.961 4.13258 -5.09464 0
M  V30 5737 H 542.878 3.49447 -6.7039 0
M  V30 5738 H 544.146 4.60818 -6.28703 0
M  V30 5739 N 548.375 1.56261 0.205012 0
M  V30 5740 C 549.323 1.94631 1.27364 0
M  V30 5741 C 550.317 0.830434 1.47649 0
M  V30 5742 O 551.523 1.01538 1.48627 0
M  V30 5743 H 547.898 0.618755 0.427371 0
M  V30 5744 H 549.869 2.83768 0.922941 0
M  V30 5745 C 548.618 2.29358 2.61324 0
M  V30 5746 H 547.941 3.14744 2.46528 0
M  V30 5747 H 549.381 2.60076 3.34868 0
M  V30 5748 C 547.84 1.12461 3.17575 0
M  V30 5749 O 548.37 0.394407 3.99759 0
M  V30 5750 N 546.576 0.904036 2.7618 0
M  V30 5751 H 546.123 1.49956 2.09454 0
M  V30 5752 H 546.081 0.123662 3.14157 0
M  V30 5753 N 549.853 -0.472356 1.50355 0
M  V30 5754 C 551.099 -1.22634 1.6152 0
M  V30 5755 C 551.432 -1.91645 0.313995 0
M  V30 5756 O 550.707 -1.82059 -0.684446 0
M  V30 5757 C 550.99 -2.27099 2.7946 0
M  V30 5758 C 550.843 -1.62402 4.19459 0
M  V30 5759 C 552.162 -3.28421 2.92964 0
M  V30 5760 H 549.281 -0.444494 0.587873 0
M  V30 5761 H 551.923 -0.520321 1.82737 0
M  V30 5762 H 550.073 -2.87314 2.61501 0
M  V30 5763 H 551.745 -1.05793 4.49005 0
M  V30 5764 H 549.988 -0.927184 4.23776 0
M  V30 5765 H 550.659 -2.38309 4.97909 0
M  V30 5766 H 553.135 -2.78227 3.09401 0
M  V30 5767 H 552.011 -3.98845 3.77113 0
M  V30 5768 H 552.272 -3.92467 2.03525 0
M  V30 5769 N 551.331 -1.39911 -0.725443 0
M  V30 5770 C 552.278 -1.39393 -1.83952 0
M  V30 5771 C 553.248 -0.252249 -1.64173 0
M  V30 5772 O 554.433 -0.44882 -1.85446 0
M  V30 5773 C 551.573 -1.25262 -3.21564 0
M  V30 5774 C 550.686 -2.49054 -3.52982 0
M  V30 5775 C 549.821 -2.27439 -4.80047 0
M  V30 5776 C 548.86 -3.46857 -5.04338 0
M  V30 5777 N 547.997 -3.24499 -6.22611 0
M  V30 5778 H 552.837 -2.34622 -1.83729 0
M  V30 5779 H 550.374 -1.16537 -0.897636 0
M  V30 5780 H 552.332 -1.15077 -4.01015 0
M  V30 5781 H 550.962 -0.33657 -3.21041 0
M  V30 5782 H 550.014 -2.69805 -2.6816 0
M  V30 5783 H 551.326 -3.37973 -3.66846 0
M  V30 5784 H 550.48 -2.14551 -5.67497 0
M  V30 5785 H 549.219 -1.35929 -4.68374 0
M  V30 5786 H 548.224 -3.60232 -4.15346 0
M  V30 5787 H 549.449 -4.3928 -5.17889 0
M  V30 5788 H 547.395 -2.35663 -6.12208 0
M  V30 5789 H 547.312 -4.06978 -6.37106 0
M  V30 5790 H 548.58 -3.15325 -7.12875 0
M  V30 5791 N 552.809 0.956637 -1.25245 0
M  V30 5792 C 553.739 2.07058 -1.07931 0
M  V30 5793 C 554.72 1.70096 0.0110361 0
M  V30 5794 O 555.905 1.93555 -0.158121 0
M  V30 5795 C 553.035 3.40272 -0.695124 0
M  V30 5796 C 551.989 3.91235 -1.73549 0
M  V30 5797 C 551.315 5.20921 -1.20604 0
M  V30 5798 C 552.615 4.17837 -3.13385 0
M  V30 5799 H 554.309 2.218 -2.01109 0
M  V30 5800 H 551.855 1.06581 -0.968326 0
M  V30 5801 H 553.808 4.1765 -0.560949 0
M  V30 5802 H 552.532 3.25462 0.272355 0
M  V30 5803 H 551.191 3.16025 -1.85807 0
M  V30 5804 H 550.839 5.02479 -0.228846 0
M  V30 5805 H 550.539 5.55987 -1.90136 0
M  V30 5806 H 552.063 6.00897 -1.08421 0
M  V30 5807 H 553.477 4.8588 -3.04292 0
M  V30 5808 H 551.874 4.64154 -3.80369 0
M  V30 5809 H 552.944 3.2419 -3.60595 0
M  V30 5810 N 554.287 1.06798 1.15896 0
M  V30 5811 C 555.515 0.808694 1.90441 0
M  V30 5812 C 555.93 -0.637506 1.77711 0
M  V30 5813 O 555.287 -1.43684 1.12522 0
M  V30 5814 C 555.338 1.20068 3.40978 0
M  V30 5815 O 555.059 2.59013 3.53333 0
M  V30 5816 C 556.56 0.96987 4.3256 0
M  V30 5817 H 553.78 0.292809 0.603742 0
M  V30 5818 H 556.324 1.42296 1.46874 0
M  V30 5819 H 554.479 0.630842 3.82229 0
M  V30 5820 H 554.893 2.7485 4.46719 0
M  V30 5821 H 556.367 1.29371 5.36626 0
M  V30 5822 H 556.844 -0.0941209 4.39099 0
M  V30 5823 H 557.45 1.52433 3.97044 0
M  V30 5824 N 555.766 -1.3263 0.851289 0
M  V30 5825 C 557.012 -1.9766 0.453694 0
M  V30 5826 C 557.345 -1.67225 -0.987396 0
M  V30 5827 O 556.62 -0.958693 -1.69232 0
M  V30 5828 C 556.903 -3.5344 0.68936 0
M  V30 5829 C 556.756 -3.93517 2.17862 0
M  V30 5830 C 558.075 -4.39866 0.143555 0
M  V30 5831 H 555.194 -0.717989 0.166314 0
M  V30 5832 H 557.836 -1.57068 1.06909 0
M  V30 5833 H 555.986 -3.88147 0.165546 0
M  V30 5834 H 557.658 -3.69006 2.76826 0
M  V30 5835 H 555.901 -3.42798 2.65841 0
M  V30 5836 H 556.572 -5.02065 2.29422 0
M  V30 5837 H 559.048 -4.11875 0.591451 0
M  V30 5838 H 557.924 -5.47858 0.338043 0
M  V30 5839 H 558.185 -4.31696 -0.953466 0
M  V30 5840 N 557.244 -0.608902 -1.45362 0
M  V30 5841 C 558.469 -0.10921 -2.07112 0
M  V30 5842 C 558.894 1.19779 -1.45033 0
M  V30 5843 O 558.252 1.72961 -0.543527 0
M  V30 5844 C 558.3 0.0155745 -3.60597 0
M  V30 5845 O 557.404 1.06546 -3.98399 0
M  V30 5846 H 556.745 -0.0746619 -0.659789 0
M  V30 5847 H 559.275 -0.839283 -1.86594 0
M  V30 5848 H 559.285 0.213364 -4.07442 0
M  V30 5849 H 557.96 -0.938765 -4.05167 0
M  V30 5850 H 556.537 0.844024 -3.63223 0
M  V30 5851 N 558.722 1.53707 -0.348139 0
M  V30 5852 C 559.67 2.26671 0.521808 0
M  V30 5853 C 560.664 1.28988 1.09811 0
M  V30 5854 O 561.87 1.4668 1.04332 0
M  V30 5855 H 558.245 0.728387 0.186968 0
M  V30 5856 H 560.216 2.98176 -0.115563 0
M  V30 5857 C 558.965 3.05591 1.6586 0
M  V30 5858 H 558.288 3.80589 1.22443 0
M  V30 5859 H 559.728 3.59851 2.24239 0
M  V30 5860 C 558.187 2.15366 2.59073 0
M  V30 5861 O 558.717 1.7528 3.61441 0
M  V30 5862 N 556.923 1.80352 2.27863 0
M  V30 5863 H 556.47 2.13149 1.44656 0
M  V30 5864 H 556.428 1.20268 2.90488 0
M  V30 5865 N 560.2 0.0768682 1.57412 0
M  V30 5866 C 561.446 -0.591961 1.93968 0
M  V30 5867 C 561.779 -1.68954 0.9575 0
M  V30 5868 O 561.054 -1.94496 -0.0124675 0
M  V30 5869 C 561.337 -1.16418 3.40762 0
M  V30 5870 C 561.19 -0.0728933 4.49741 0
M  V30 5871 C 562.509 -2.06814 3.88479 0
M  V30 5872 H 559.628 -0.213716 0.705333 0
M  V30 5873 H 562.27 0.14387 1.89455 0
M  V30 5874 H 560.42 -1.79128 3.4474 0
M  V30 5875 H 562.092 0.560446 4.57883 0
M  V30 5876 H 560.335 0.595859 4.29688 0
M  V30 5877 H 561.006 -0.513755 5.49604 0
M  V30 5878 H 563.482 -1.54033 3.8654 0
M  V30 5879 H 562.358 -2.43785 4.91793 0
M  V30 5880 H 562.619 -2.97844 3.26713 0
M  V30 5881 N 561.678 -1.56367 -0.196722 0
M  V30 5882 C 562.608 -1.97442 -1.24655 0
M  V30 5883 C 563.589 -0.846147 -1.47561 0
M  V30 5884 O 564.774 -1.11035 -1.59326 0
M  V30 5885 C 561.904 -2.31253 -2.59112 0
M  V30 5886 C 560.858 -3.46804 -2.50821 0
M  V30 5887 C 560.184 -3.66286 -3.89536 0
M  V30 5888 C 561.484 -4.8104 -2.03465 0
M  V30 5889 H 563.178 -2.85388 -0.905216 0
M  V30 5890 H 560.724 -1.37304 -0.434002 0
M  V30 5891 H 562.677 -2.58583 -3.32736 0
M  V30 5892 H 561.401 -1.40188 -2.94983 0
M  V30 5893 H 560.06 -3.19563 -1.79653 0
M  V30 5894 H 559.708 -2.72555 -4.22756 0
M  V30 5895 H 559.408 -4.4402 -3.84864 0
M  V30 5896 H 560.932 -3.9599 -4.64784 0
M  V30 5897 H 562.346 -5.07411 -2.66846 0
M  V30 5898 H 560.743 -5.62232 -2.09798 0
M  V30 5899 H 561.813 -4.74732 -0.98781 0
M  V30 5900 N 563.156 0.464375 -1.50603 0
M  V30 5901 C 564.103 1.56152 -1.69956 0
M  V30 5902 C 565.073 1.57046 -0.54091 0
M  V30 5903 O 566.258 1.74473 -0.772258 0
M  V30 5904 C 563.398 2.94079 -1.80586 0
M  V30 5905 C 562.511 3.02923 -3.07996 0
M  V30 5906 C 561.646 4.31806 -3.09382 0
M  V30 5907 C 560.685 4.34417 -4.31218 0
M  V30 5908 N 559.822 5.54782 -4.30304 0
M  V30 5909 H 564.662 1.38955 -2.6362 0
M  V30 5910 H 562.199 0.675482 -1.30674 0
M  V30 5911 H 564.157 3.74073 -1.8473 0
M  V30 5912 H 562.787 3.09896 -0.903556 0
M  V30 5913 H 561.839 2.1576 -3.13292 0
M  V30 5914 H 563.151 3.00712 -3.97962 0
M  V30 5915 H 562.305 5.20153 -3.12292 0
M  V30 5916 H 561.044 4.36636 -2.17257 0
M  V30 5917 H 560.049 3.44467 -4.28512 0
M  V30 5918 H 561.274 4.31273 -5.24576 0
M  V30 5919 H 559.22 5.60384 -3.41037 0
M  V30 5920 H 559.137 5.54339 -5.14047 0
M  V30 5921 H 560.405 6.45235 -4.3737 0
M  V30 5922 N 564.634 1.40294 0.718013 0
M  V30 5923 C 565.544 1.42678 1.86226 0
M  V30 5924 C 566.56 0.319655 1.71039 0
M  V30 5925 O 567.736 0.563852 1.93346 0
M  V30 5926 C 564.801 1.2852 3.21999 0
M  V30 5927 C 563.862 2.49354 3.49458 0
M  V30 5928 C 563.095 2.35863 4.78753 0
M  V30 5929 O 563.318 1.37114 5.53675 0
M  V30 5930 O 562.252 3.25189 5.06494 0
M  V30 5931 H 566.078 2.39167 1.87171 0
M  V30 5932 H 563.663 1.2159 0.868112 0
M  V30 5933 H 565.545 1.22824 4.03103 0
M  V30 5934 H 564.22 0.351359 3.21787 0
M  V30 5935 H 563.127 2.60628 2.68373 0
M  V30 5936 H 564.46 3.41491 3.54464 0
M  V30 5937 N 566.112 -0.949982 1.2575 0
M  V30 5938 C 567.361 -1.68956 1.10168 0
M  V30 5939 C 567.674 -1.92327 -0.356309 0
M  V30 5940 O 568.88 -2.64026 -0.632657 0
M  V30 5941 C 567.336 -3.04196 1.92336 0
M  V30 5942 C 566.944 -2.88603 3.42655 0
M  V30 5943 C 568.688 -3.81904 1.85336 0
M  V30 5944 C 566.595 -4.19262 4.17101 0
M  V30 5945 H 565.525 -0.633645 0.408668 0
M  V30 5946 H 568.176 -1.05719 1.49986 0
M  V30 5947 H 566.558 -3.68363 1.45344 0
M  V30 5948 H 567.732 -2.3334 3.97353 0
M  V30 5949 H 566.047 -2.24345 3.50796 0
M  V30 5950 H 568.644 -4.78688 2.38248 0
M  V30 5951 H 568.987 -4.08099 0.822226 0
M  V30 5952 H 569.52 -3.24495 2.30104 0
M  V30 5953 H 566.259 -3.98254 5.20648 0
M  V30 5954 H 565.779 -4.74273 3.67186 0
M  V30 5955 H 567.458 -4.87775 4.25071 0
M  V30 5956 N 567.59 -1.07411 -1.15328 0
M  V30 5957 C 568.537 -0.694995 -2.20087 0
M  V30 5958 C 569.507 0.313904 -1.63107 0
M  V30 5959 O 570.692 0.200216 -1.89747 0
M  V30 5960 C 567.832 -0.0996218 -3.44956 0
M  V30 5961 C 566.945 -1.16007 -4.16133 0
M  V30 5962 C 566.08 -0.529636 -5.28553 0
M  V30 5963 C 565.119 -1.57283 -5.91548 0
M  V30 5964 N 564.256 -0.964932 -6.95438 0
M  V30 5965 H 569.096 -1.5927 -2.51867 0
M  V30 5966 H 566.633 -0.796115 -1.23695 0
M  V30 5967 H 568.591 0.263197 -4.16369 0
M  V30 5968 H 567.221 0.761435 -3.13691 0
M  V30 5969 H 566.273 -1.64045 -3.4321 0
M  V30 5970 H 567.585 -1.95101 -4.59061 0
M  V30 5971 H 566.739 -0.114487 -6.06592 0
M  V30 5972 H 565.478 0.29307 -4.86819 0
M  V30 5973 H 564.483 -1.99775 -5.12221 0
M  V30 5974 H 565.708 -2.39783 -6.35359 0
M  V30 5975 H 563.654 -0.16314 -6.55797 0
M  V30 5976 H 563.571 -1.69311 -7.36797 0
M  V30 5977 H 564.839 -0.575305 -7.77374 0
M  V30 5978 N 569.068 1.32177 -0.85831 0
M  V30 5979 C 570.317 1.96392 -0.459689 0
M  V30 5980 C 570.63 1.68659 0.990632 0
M  V30 5981 O 571.836 2.26641 1.49485 0
M  V30 5982 C 570.292 3.51542 -0.7711 0
M  V30 5983 C 569.9 3.8813 -2.2374 0
M  V30 5984 C 571.644 4.2221 -0.44038 0
M  V30 5985 C 569.551 5.36341 -2.49183 0
M  V30 5986 H 568.481 0.735007 -0.168169 0
M  V30 5987 H 571.132 1.50518 -1.0496 0
M  V30 5988 H 569.514 3.95846 -0.11058 0
M  V30 5989 H 570.688 3.54824 -2.94001 0
M  V30 5990 H 569.003 3.30497 -2.533 0
M  V30 5991 H 571.6 5.31234 -0.607855 0
M  V30 5992 H 571.943 4.11683 0.618291 0
M  V30 5993 H 572.476 3.83502 -1.05695 0
M  V30 5994 H 569.215 5.51892 -3.53689 0
M  V30 5995 H 568.735 5.7104 -1.83504 0
M  V30 5996 H 570.414 6.03466 -2.33318 0
M  V30 5997 N 570.547 0.616602 1.45037 0
M  V30 5998 C 571.477 -0.0840787 2.33349 0
M  V30 5999 C 572.458 -0.849641 1.4736 0
M  V30 6000 O 573.643 -0.818407 1.76113 0
M  V30 6001 C 570.773 -1.07604 3.3021 0
M  V30 6002 C 569.727 -0.423096 4.25904 0
M  V30 6003 C 569.053 -1.52394 5.12523 0
M  V30 6004 C 570.353 0.661457 5.18095 0
M  V30 6005 H 572.047 0.653333 2.92185 0
M  V30 6006 H 569.593 0.315634 1.40498 0
M  V30 6007 H 571.546 -1.57485 3.90866 0
M  V30 6008 H 570.27 -1.84416 2.69552 0
M  V30 6009 H 568.929 0.05493 3.66559 0
M  V30 6010 H 568.577 -2.28257 4.48227 0
M  V30 6011 H 568.277 -1.09251 5.77354 0
M  V30 6012 H 569.801 -2.02485 5.76049 0
M  V30 6013 H 571.215 0.246353 5.7277 0
M  V30 6014 H 569.612 1.01517 5.91451 0
M  V30 6015 H 570.682 1.53446 4.59981 0
M  V30 6016 N 572.025 -1.5352 0.356285 0
M  V30 6017 C 572.973 -2.26945 -0.50978 0
M  V30 6018 C 573.967 -1.29569 -1.09125 0
M  V30 6019 O 575.173 -1.47231 -1.03552 0
M  V30 6020 H 571.548 -0.729368 -0.183102 0
M  V30 6021 H 573.519 -2.98111 0.131374 0
M  V30 6022 C 572.268 -3.06466 -1.64237 0
M  V30 6023 H 571.591 -3.81233 -1.20423 0
M  V30 6024 H 573.031 -3.61035 -2.22327 0
M  V30 6025 C 571.49 -2.16737 -2.57928 0
M  V30 6026 O 572.02 -1.77195 -3.60507 0
M  V30 6027 N 570.226 -1.81558 -2.26903 0
M  V30 6028 H 569.773 -2.13913 -1.43524 0
M  V30 6029 H 569.731 -1.21806 -2.89846 0
M  V30 6030 N 573.503 -0.0852151 -1.57369 0
M  V30 6031 C 574.752 0.580443 -1.93168 0
M  V30 6032 C 575.065 1.6995 -0.968319 0
M  V30 6033 O 576.271 2.42564 -1.21963 0
M  V30 6034 C 574.727 1.08386 -3.43192 0
M  V30 6035 C 574.335 -0.00491388 -4.48 0
M  V30 6036 C 576.079 1.72281 -3.87968 0
M  V30 6037 C 573.986 0.513299 -5.89168 0
M  V30 6038 H 572.916 0.22059 -0.72101 0
M  V30 6039 H 575.567 -0.159621 -1.82804 0
M  V30 6040 H 573.949 1.8773 -3.48674 0
M  V30 6041 H 575.123 -0.780032 -4.5415 0
M  V30 6042 H 573.438 -0.548453 -4.12772 0
M  V30 6043 H 576.035 2.12108 -4.9083 0
M  V30 6044 H 576.378 2.58811 -3.26071 0
M  V30 6045 H 576.911 0.995359 -3.85146 0
M  V30 6046 H 573.65 -0.315153 -6.54742 0
M  V30 6047 H 573.17 1.25564 -5.8651 0
M  V30 6048 H 574.849 0.985433 -6.39451 0
M  V30 6049 N 574.981 1.5647 0.188427 0
M  V30 6050 C 576.228 1.81013 0.907779 0
M  V30 6051 C 576.556 0.65953 1.82977 0
M  V30 6052 O 575.811 -0.354308 1.92466 0
M  V30 6053 C 576.11 3.11596 1.7505 0
M  V30 6054 C 575.776 4.40145 0.978922 0
M  V30 6055 C 574.438 4.75066 0.765912 0
M  V30 6056 C 576.79 5.19369 0.436498 0
M  V30 6057 C 574.118 5.867 -0.00089868 0
M  V30 6058 C 576.47 6.31805 -0.317136 0
M  V30 6059 C 575.134 6.65303 -0.541103 0
M  V30 6060 H 574.404 0.662373 0.33218 0
M  V30 6061 H 577.051 1.9071 0.173732 0
M  V30 6062 H 575.356 2.97165 2.55343 0
M  V30 6063 H 577.053 3.27793 2.30983 0
M  V30 6064 H 573.643 4.12745 1.15497 0
M  V30 6065 H 577.827 4.92799 0.588449 0
M  V30 6066 H 573.083 6.11122 -0.184329 0
M  V30 6067 H 577.257 6.92406 -0.744788 0
M  V30 6068 H 574.884 7.51646 -1.13718 0
M  V30 6069 N 576.459 -0.456382 1.50847 0
M  V30 6070 C 577.707 -1.20497 1.62249 0
M  V30 6071 C 578.028 -1.92156 0.331839 0
M  V30 6072 O 577.298 -1.84751 -0.651443 0
M  V30 6073 H 575.878 -0.447775 0.597918 0
M  V30 6074 H 578.54 -0.525099 1.87693 0
M  V30 6075 H 577.636 -1.94492 2.44089 0
M  V30 6076 N 577.937 -1.40673 -0.710563 0
M  V30 6077 C 579.183 -1.39428 -1.47267 0
M  V30 6078 C 579.516 0.00182129 -1.942 0
M  V30 6079 O 578.791 0.971387 -1.68506 0
M  V30 6080 C 579.074 -2.38812 -2.6952 0
M  V30 6081 C 578.927 -3.87467 -2.28449 0
M  V30 6082 C 580.246 -2.3566 -3.71689 0
M  V30 6083 H 577.365 -0.507768 -0.534173 0
M  V30 6084 H 580.007 -1.71843 -0.810547 0
M  V30 6085 H 578.157 -2.113 -3.26013 0
M  V30 6086 H 579.829 -4.25825 -1.77399 0
M  V30 6087 H 578.072 -4.03058 -1.60395 0
M  V30 6088 H 578.743 -4.5253 -3.16103 0
M  V30 6089 H 581.219 -2.6004 -3.24836 0
M  V30 6090 H 580.095 -3.07237 -4.54859 0
M  V30 6091 H 580.356 -1.36996 -4.20339 0
M  V30 6092 N 579.415 0.9433 -1.26252 0
M  V30 6093 C 580.664 1.68369 -1.11062 0
M  V30 6094 C 580.977 1.92514 0.346104 0
M  V30 6095 O 582.183 2.64358 0.618646 0
M  V30 6096 C 580.639 3.03171 -1.93946 0
M  V30 6097 C 580.247 2.86782 -3.4418 0
M  V30 6098 C 581.991 3.80916 -1.87359 0
M  V30 6099 C 579.898 4.17044 -4.19319 0
M  V30 6100 H 578.828 0.631469 -0.412023 0
M  V30 6101 H 581.479 1.04922 -1.50544 0
M  V30 6102 H 579.861 3.67587 -1.47296 0
M  V30 6103 H 581.035 2.31229 -3.98585 0
M  V30 6104 H 579.35 2.22482 -3.51981 0
M  V30 6105 H 581.947 4.77417 -2.40784 0
M  V30 6106 H 582.29 4.07658 -0.843857 0
M  V30 6107 H 582.823 3.2327 -2.31821 0
M  V30 6108 H 579.562 3.95487 -5.22753 0
M  V30 6109 H 579.082 4.72319 -3.69696 0
M  V30 6110 H 580.761 4.85513 -4.27651 0
M  V30 6111 N 580.893 1.08022 1.14757 0
M  V30 6112 C 581.84 0.706657 2.19716 0
M  V30 6113 C 582.81 -0.30525 1.63271 0
M  V30 6114 O 583.995 -0.19015 1.8985 0
M  V30 6115 C 581.135 0.117914 3.44898 0
M  V30 6116 C 580.248 1.18212 4.15512 0
M  V30 6117 C 579.383 0.557659 5.28265 0
M  V30 6118 C 578.422 1.60418 5.90705 0
M  V30 6119 N 577.559 1.0018 6.94916 0
M  V30 6120 H 582.399 1.60603 2.51019 0
M  V30 6121 H 579.936 0.802664 1.23271 0
M  V30 6122 H 581.894 -0.241112 4.16503 0
M  V30 6123 H 580.524 -0.744788 3.1409 0
M  V30 6124 H 579.576 1.65863 3.42335 0
M  V30 6125 H 580.888 1.97533 4.5802 0
M  V30 6126 H 580.042 0.146654 6.06523 0
M  V30 6127 H 578.781 -0.267249 4.86967 0
M  V30 6128 H 577.786 2.02489 5.11154 0
M  V30 6129 H 579.011 2.43149 6.34078 0
M  V30 6130 H 576.957 0.197917 6.55701 0
M  V30 6131 H 576.874 1.73216 7.35889 0
M  V30 6132 H 578.142 0.616523 7.77058 0
M  V30 6133 N 582.371 -1.3172 0.865308 0
M  V30 6134 C 583.619 -1.96487 0.472995 0
M  V30 6135 C 583.94 -1.68761 -0.976975 0
M  V30 6136 O 583.21 -1.00051 -1.68424 0
M  V30 6137 H 581.79 -0.726947 0.171922 0
M  V30 6138 H 584.452 -1.60612 1.10407 0
M  V30 6139 H 583.548 -3.0574 0.62687 0
M  V30 6140 N 583.85 -0.624285 -1.44708 0
M  V30 6141 C 585.096 -0.126051 -2.02107 0
M  V30 6142 C 585.425 1.2496 -1.49048 0
M  V30 6143 O 584.68 1.84163 -0.662005 0
M  V30 6144 C 584.979 -0.0546353 -3.57358 0
M  V30 6145 C 584.644 -1.36815 -4.29642 0
M  V30 6146 C 583.307 -1.72792 -4.49106 0
M  V30 6147 C 585.659 -2.23549 -4.70824 0
M  V30 6148 C 582.986 -2.95222 -5.07012 0
M  V30 6149 C 585.339 -3.45243 -5.30085 0
M  V30 6150 C 584.003 -3.81452 -5.47769 0
M  V30 6151 H 583.273 -0.0461252 -0.739563 0
M  V30 6152 H 585.92 -0.809236 -1.73562 0
M  V30 6153 H 584.225 0.711891 -3.85278 0
M  V30 6154 H 585.922 0.347282 -3.99493 0
M  V30 6155 H 582.512 -1.07817 -4.14817 0
M  V30 6156 H 586.696 -1.9705 -4.55505 0
M  V30 6157 H 581.952 -3.23361 -5.18891 0
M  V30 6158 H 586.125 -4.12689 -5.60946 0
M  V30 6159 H 583.753 -4.76403 -5.92405 0
M  V30 6160 N 585.328 1.53329 -0.364422 0
M  V30 6161 C 586.574 2.01537 0.225969 0
M  V30 6162 C 586.907 1.25128 1.48515 0
M  V30 6163 O 586.182 0.344653 1.91422 0
M  V30 6164 C 586.465 3.56339 0.519092 0
M  V30 6165 C 586.318 4.43441 -0.753639 0
M  V30 6166 C 587.637 4.19833 1.32015 0
M  V30 6167 H 584.756 0.732573 0.0806548 0
M  V30 6168 H 587.398 1.83597 -0.489084 0
M  V30 6169 H 585.548 3.71756 1.12825 0
M  V30 6170 H 587.22 4.39823 -1.39116 0
M  V30 6171 H 585.463 4.11457 -1.37424 0
M  V30 6172 H 586.134 5.49699 -0.503517 0
M  V30 6173 H 588.61 4.08242 0.804859 0
M  V30 6174 H 587.486 5.28177 1.49399 0
M  V30 6175 H 587.747 3.75821 2.32832 0
M  V30 6176 N 586.806 0.0935595 1.57322 0
M  V30 6177 C 587.716 -0.880192 2.17462 0
M  V30 6178 C 588.732 -1.31135 1.14366 0
M  V30 6179 O 589.908 -1.37958 1.46729 0
M  V30 6180 C 586.973 -2.12184 2.74188 0
M  V30 6181 C 586.034 -1.74503 3.92234 0
M  V30 6182 C 585.267 -2.92748 4.46245 0
M  V30 6183 O 585.49 -4.07427 3.99198 0
M  V30 6184 O 584.424 -2.71303 5.37288 0
M  V30 6185 H 588.25 -0.398516 3.01074 0
M  V30 6186 H 585.835 -0.130707 1.48827 0
M  V30 6187 H 587.717 -2.84953 3.10451 0
M  V30 6188 H 586.392 -2.59407 1.93623 0
M  V30 6189 H 585.299 -0.989186 3.60785 0
M  V30 6190 H 586.632 -1.32044 4.74157 0
M  V30 6191 N 588.284 -1.56567 -0.180126 0
M  V30 6192 C 589.695 -1.7126 -0.743422 0
M  V30 6193 C 590.046 -0.70263 -1.83187 0
M  V30 6194 O 589.171 0.137856 -2.1596 0
M  V30 6195 C 589.766 -3.10512 -1.35528 0
M  V30 6196 C 588.325 -3.26919 -1.8655 0
M  V30 6197 C 587.472 -2.67213 -0.741099 0
M  V30 6198 H 590.423 -1.58636 0.0451543 0
M  V30 6199 H 590.444 -3.08673 -2.22489 0
M  V30 6200 H 589.956 -3.83997 -0.562862 0
M  V30 6201 H 588.057 -2.58376 -2.68464 0
M  V30 6202 H 588.17 -4.34574 -2.01699 0
M  V30 6203 H 586.534 -2.26788 -1.15927 0
M  V30 6204 H 587.317 -3.43277 0.0393291 0
M  V30 6205 N 589.762 0.448376 -1.51087 0
M  V30 6206 C 591.039 1.20926 -1.53741 0
M  V30 6207 C 591.419 2.09025 -0.295222 0
M  V30 6208 O 590.767 2.16851 0.720283 0
M  V30 6209 C 590.977 2.02067 -2.84552 0
M  V30 6210 C 592.325 2.59486 -3.36084 0
M  V30 6211 O 593.349 2.12289 -2.86028 0
M  V30 6212 O 592.208 3.45539 -4.23397 0
M  V30 6213 H 589.302 0.549951 -0.617643 0
M  V30 6214 H 591.848 0.458344 -1.63393 0
M  V30 6215 H 590.62 1.37291 -3.66425 0
M  V30 6216 H 590.243 2.84246 -2.78011 0
M  V30 6217 N 591.24 1.41047 0.703093 0
M  V30 6218 C 592.19 1.38774 1.80903 0
M  V30 6219 C 593.174 0.263275 1.58731 0
M  V30 6220 O 594.366 0.503362 1.69692 0
M  V30 6221 C 591.495 1.26497 3.19145 0
M  V30 6222 C 590.581 2.43775 3.47037 0
M  V30 6223 N 590.972 3.69249 3.45672 0
M  V30 6224 C 589.27 2.37425 3.77552 0
M  V30 6225 C 589.971 4.46989 3.72258 0
M  V30 6226 N 588.947 3.76998 3.91629 0
M  V30 6227 H 592.749 2.33714 1.78199 0
M  V30 6228 H 590.263 1.34996 0.902762 0
M  V30 6229 H 592.26 1.2295 3.98358 0
M  V30 6230 H 590.92 0.32534 3.23066 0
M  V30 6231 H 591.931 4.02239 3.26228 0
M  V30 6232 H 588.608 1.51895 3.88888 0
M  V30 6233 H 589.998 5.55894 3.77402 0
M  V30 6234 N 592.718 -0.936591 1.26751 0
M  V30 6235 C 593.948 -1.71509 1.15188 0
M  V30 6236 C 594.356 -1.86885 -0.295037 0
M  V30 6237 O 593.699 -1.37915 -1.21347 0
M  V30 6238 C 593.761 -3.13853 1.75318 0
M  V30 6239 C 593.425 -3.21845 3.24445 0
M  V30 6240 C 594.422 -3.04771 4.21201 0
M  V30 6241 C 592.107 -3.45088 3.64992 0
M  V30 6242 C 594.101 -3.10816 5.56482 0
M  V30 6243 C 591.788 -3.50767 5.00405 0
M  V30 6244 C 592.786 -3.33648 5.9596 0
M  V30 6245 O 592.474 -3.39045 7.28906 0
M  V30 6246 H 592.206 -0.543658 0.401761 0
M  V30 6247 H 594.76 -1.18234 1.67958 0
M  V30 6248 H 592.99 -3.6857 1.17016 0
M  V30 6249 H 594.679 -3.73634 1.58596 0
M  V30 6250 H 595.445 -2.86665 3.91214 0
M  V30 6251 H 591.324 -3.57467 2.91098 0
M  V30 6252 H 594.868 -2.97372 6.31043 0
M  V30 6253 H 590.765 -3.68396 5.30052 0
M  V30 6254 H 591.533 -3.55558 7.37238 0
M  V30 6255 N 594.196 -1.08629 -1.14182 0
M  V30 6256 C 595.442 -0.818556 -1.85546 0
M  V30 6257 C 595.775 0.654076 -1.82854 0
M  V30 6258 O 595.05 1.48099 -1.26083 0
M  V30 6259 C 595.333 -1.34397 -3.3408 0
M  V30 6260 C 595.186 -2.8821 -3.45333 0
M  V30 6261 C 596.505 -0.971069 -4.29253 0
M  V30 6262 H 593.624 -0.298821 -0.673702 0
M  V30 6263 H 596.266 -1.34629 -1.34071 0
M  V30 6264 H 594.416 -0.895064 -3.78049 0
M  V30 6265 H 596.088 -3.41488 -3.10134 0
M  V30 6266 H 594.331 -3.25756 -2.86471 0
M  V30 6267 H 595.002 -3.20047 -4.49749 0
M  V30 6268 H 597.478 -1.35809 -3.93313 0
M  V30 6269 H 596.354 -1.36586 -5.31635 0
M  V30 6270 H 596.615 0.121659 -4.41933 0
M  V30 6271 N 595.674 1.31259 -0.872281 0
M  V30 6272 C 596.92 1.96913 -0.485083 0
M  V30 6273 C 597.253 1.68774 0.960667 0
M  V30 6274 O 596.528 0.985495 1.67685 0
M  V30 6275 C 596.811 3.52299 -0.745502 0
M  V30 6276 C 596.664 3.90002 -2.24095 0
M  V30 6277 C 597.983 4.39582 -0.213516 0
M  V30 6278 H 595.102 0.715252 -0.177716 0
M  V30 6279 H 597.744 1.55347 -1.09395 0
M  V30 6280 H 595.894 3.87835 -0.227276 0
M  V30 6281 H 597.566 3.64555 -2.82661 0
M  V30 6282 H 595.809 3.38526 -2.71261 0
M  V30 6283 H 596.48 4.98352 -2.37381 0
M  V30 6284 H 598.956 4.10882 -0.656902 0
M  V30 6285 H 597.832 5.47251 -0.42516 0
M  V30 6286 H 598.093 4.33158 0.884666 0
M  V30 6287 N 597.152 0.631951 1.44375 0
M  V30 6288 C 598.398 0.13697 2.02337 0
M  V30 6289 C 598.731 -1.23826 1.49602 0
M  V30 6290 O 598.006 -1.8221 0.680415 0
M  V30 6291 C 598.289 0.124536 3.59885 0
M  V30 6292 C 598.142 1.53217 4.229 0
M  V30 6293 C 599.461 -0.550481 4.36644 0
M  V30 6294 H 596.58 0.051247 0.735216 0
M  V30 6295 H 599.222 0.808581 1.71936 0
M  V30 6296 H 597.372 -0.44737 3.85916 0
M  V30 6297 H 599.044 2.15303 4.07973 0
M  V30 6298 H 597.287 2.0858 3.80364 0
M  V30 6299 H 597.958 1.4755 5.31914 0
M  V30 6300 H 600.434 -0.0641154 4.16051 0
M  V30 6301 H 599.31 -0.528371 5.46351 0
M  V30 6302 H 599.571 -1.62097 4.11311 0
M  V30 6303 N 598.631 -1.53133 0.372548 0
M  V30 6304 C 599.879 -2.00958 -0.214534 0
M  V30 6305 C 600.2 -1.26135 -1.48711 0
M  V30 6306 O 599.47 -0.376597 -1.92246 0
M  V30 6307 H 598.05 -0.742456 -0.0822664 0
M  V30 6308 H 600.712 -1.88367 0.500385 0
M  V30 6309 H 599.808 -3.09031 -0.436605 0
M  V30 6310 N 600.109 -0.101901 -1.5727 0
M  V30 6311 C 601.072 0.840129 -2.13247 0
M  V30 6312 C 602.072 1.20625 -1.06331 0
M  V30 6313 O 603.262 1.13456 -1.32186 0
M  V30 6314 C 600.394 2.13372 -2.65867 0
M  V30 6315 H 601.587 0.353945 -2.97804 0
M  V30 6316 H 599.14 0.147167 -1.55606 0
M  V30 6317 H 599.875 2.66461 -1.84849 0
M  V30 6318 H 599.66 1.88085 -3.44044 0
M  V30 6319 H 601.15 2.80748 -3.09145 0
M  V30 6320 N 601.587 1.56661 0.17182 0
M  V30 6321 C 602.519 1.92934 1.2373 0
M  V30 6322 C 603.532 0.822385 1.40502 0
M  V30 6323 O 604.721 1.10083 1.40514 0
M  V30 6324 C 601.821 2.16651 2.60607 0
M  V30 6325 C 600.994 3.47878 2.6514 0
M  V30 6326 C 600.053 3.60429 3.83377 0
M  V30 6327 O 599.079 4.33051 3.69398 0
M  V30 6328 N 600.281 2.95241 4.99813 0
M  V30 6329 H 603.046 2.84931 0.929205 0
M  V30 6330 H 600.607 1.5781 0.361588 0
M  V30 6331 H 602.599 2.22312 3.38171 0
M  V30 6332 H 601.169 1.3104 2.83809 0
M  V30 6333 H 600.389 3.53879 1.73675 0
M  V30 6334 H 601.677 4.34232 2.6518 0
M  V30 6335 H 601.075 2.3611 5.14071 0
M  V30 6336 H 599.632 3.06499 5.75241 0
M  V30 6337 N 603.065 -0.440357 1.51323 0
M  V30 6338 C 604.481 -0.7766 1.39431 0
M  V30 6339 C 604.681 -1.95838 0.474296 0
M  V30 6340 O 603.737 -2.52398 -0.0716692 0
M  V30 6341 C 605.05 -1.05981 2.81405 0
M  V30 6342 C 606.598 -1.16442 2.90534 0
M  V30 6343 C 607.073 -1.48058 4.33408 0
M  V30 6344 N 608.564 -1.54988 4.36501 0
M  V30 6345 C 609.299 -1.81017 5.44078 0
M  V30 6346 N 608.795 -2.04858 6.61819 0
M  V30 6347 N 610.588 -1.82774 5.31554 0
M  V30 6348 H 602.739 0.338006 2.09693 0
M  V30 6349 H 605.002 0.0888072 0.943831 0
M  V30 6350 H 604.708 -0.264173 3.50706 0
M  V30 6351 H 604.582 -1.98822 3.20546 0
M  V30 6352 H 606.969 -1.95068 2.21432 0
M  V30 6353 H 607.05 -0.215088 2.54894 0
M  V30 6354 H 606.694 -0.699605 5.03059 0
M  V30 6355 H 606.624 -2.44192 4.66559 0
M  V30 6356 H 609.115 -1.38479 3.51613 0
M  V30 6357 H 609.428 -2.2408 7.396 0
M  V30 6358 H 607.773 -2.02187 6.6494 0
M  V30 6359 H 610.964 -1.63665 4.38556 0
M  V30 6360 H 611.137 -2.02722 6.15474 0
M  V30 6361 N 604.543 -1.41418 -0.695603 0
M  V30 6362 C 605.82 -1.31264 -1.45014 0
M  V30 6363 C 606.2 0.0597994 -2.11015 0
M  V30 6364 O 605.548 1.07403 -2.01685 0
M  V30 6365 C 605.758 -2.466 -2.4696 0
M  V30 6366 C 607.106 -2.87763 -3.12214 0
M  V30 6367 O 608.13 -2.46339 -2.57285 0
M  V30 6368 O 606.989 -3.59395 -4.11701 0
M  V30 6369 H 604.083 -0.516576 -0.645816 0
M  V30 6370 H 606.629 -1.53382 -0.726084 0
M  V30 6371 H 605.401 -3.38183 -1.96845 0
M  V30 6372 H 605.024 -2.26358 -3.26876 0
M  V30 6373 N 606.021 0.929856 -1.27246 0
M  V30 6374 C 606.984 2.01172 -1.09829 0
M  V30 6375 C 607.984 1.60743 -0.0429687 0
M  V30 6376 O 609.174 1.71813 -0.287373 0
M  V30 6377 C 606.306 3.34191 -0.673003 0
M  V30 6378 H 607.499 2.18054 -2.05895 0
M  V30 6379 H 605.052 1.11036 -1.10003 0
M  V30 6380 H 605.787 3.23009 0.289134 0
M  V30 6381 H 605.572 3.64892 -1.43515 0
M  V30 6382 H 607.062 4.13646 -0.573323 0
M  V30 6383 N 607.499 1.09233 1.13605 0
M  V30 6384 C 608.745 0.838255 1.85324 0
M  V30 6385 C 609.1 -0.629314 1.81817 0
M  V30 6386 O 608.393 -1.45729 1.24393 0
M  V30 6387 C 608.587 1.305 3.32723 0
M  V30 6388 C 608.416 2.81641 3.50583 0
M  V30 6389 C 607.186 3.49494 3.64941 0
M  V30 6390 C 609.384 3.79789 3.46792 0
M  V30 6391 N 607.366 4.89082 3.71042 0
M  V30 6392 C 608.737 5.05319 3.59239 0
M  V30 6393 C 610.792 3.72673 3.30181 0
M  V30 6394 C 609.495 6.24574 3.56791 0
M  V30 6395 C 611.521 4.91413 3.29039 0
M  V30 6396 C 610.883 6.15785 3.42035 0
M  V30 6397 H 606.982 0.359572 0.69443 0
M  V30 6398 H 609.566 1.39232 1.36098 0
M  V30 6399 H 607.737 0.778411 3.8052 0
M  V30 6400 H 609.469 0.996465 3.92241 0
M  V30 6401 H 606.224 2.9992 3.66531 0
M  V30 6402 H 606.648 5.61787 3.77789 0
M  V30 6403 H 611.29 2.77444 3.19037 0
M  V30 6404 H 609.008 7.20105 3.66708 0
M  V30 6405 H 612.594 4.87604 3.17386 0
M  V30 6406 H 611.474 7.06126 3.41111 0
M  V30 6407 N 608.977 -1.30795 0.87923 0
M  V30 6408 C 610.225 -1.95974 0.493809 0
M  V30 6409 C 610.546 -1.69787 -0.959021 0
M  V30 6410 O 609.816 -1.01832 -1.67353 0
M  V30 6411 H 608.396 -0.725083 0.179622 0
M  V30 6412 H 611.058 -1.59432 1.12105 0
M  V30 6413 H 610.154 -3.05058 0.659263 0
M  V30 6414 N 610.455 -0.639598 -1.44038 0
M  V30 6415 C 611.866 -0.228866 -1.85292 0
M  V30 6416 C 612.217 1.22161 -1.53529 0
M  V30 6417 O 611.342 1.93064 -0.977518 0
M  V30 6418 C 611.937 -0.408592 -3.36327 0
M  V30 6419 C 610.496 -0.0522953 -3.76364 0
M  V30 6420 C 609.643 -0.717959 -2.67844 0
M  V30 6421 H 612.594 -0.844194 -1.34384 0
M  V30 6422 H 612.615 0.349968 -3.78887 0
M  V30 6423 H 612.127 -1.46435 -3.59414 0
M  V30 6424 H 610.228 1.0014 -3.58891 0
M  V30 6425 H 610.341 -0.468261 -4.76806 0
M  V30 6426 H 608.705 -0.152459 -2.54243 0
M  V30 6427 H 609.488 -1.77648 -2.93762 0
M  V30 6428 N 611.933 1.52934 -0.380664 0
M  V30 6429 C 613.181 2.01069 0.203874 0
M  V30 6430 C 613.502 1.26922 1.4804 0
M  V30 6431 O 612.772 0.386787 1.92044 0
M  V30 6432 H 611.352 0.742882 0.0783279 0
M  V30 6433 H 614.014 1.88099 -0.510368 0
M  V30 6434 H 613.11 3.09258 0.42021 0
M  V30 6435 N 613.412 0.11024 1.57214 0
M  V30 6436 C 614.375 -0.828808 2.1369 0
M  V30 6437 C 615.375 -1.20059 1.06969 0
M  V30 6438 O 616.565 -1.12754 1.32786 0
M  V30 6439 C 613.697 -2.11959 2.66994 0
M  V30 6440 H 614.89 -0.338146 2.97988 0
M  V30 6441 H 612.443 -0.138913 1.55681 0
M  V30 6442 H 613.178 -2.65476 1.8626 0
M  V30 6443 H 612.963 -1.86258 3.45037 0
M  V30 6444 H 614.453 -2.79105 3.10629 0
M  V30 6445 N 614.89 -1.56749 -0.16351 0
M  V30 6446 C 615.853 -1.96121 -1.18613 0
M  V30 6447 C 616.853 -0.845765 -1.36761 0
M  V30 6448 O 618.043 -1.11268 -1.34033 0
M  V30 6449 C 615.175 -2.26282 -2.54969 0
M  V30 6450 H 616.368 -2.87639 -0.848764 0
M  V30 6451 H 613.921 -1.50928 -0.406251 0
M  V30 6452 H 614.656 -1.37504 -2.93706 0
M  V30 6453 H 614.441 -3.07595 -2.43162 0
M  V30 6454 H 615.931 -2.57638 -3.28653 0
M  V30 6455 N 616.368 0.432326 -1.51554 0
M  V30 6456 C 617.315 1.52512 -1.7323 0
M  V30 6457 C 618.285 1.55863 -0.5741 0
M  V30 6458 O 619.47 1.72796 -0.809093 0
M  V30 6459 C 616.61 2.90183 -1.86783 0
M  V30 6460 C 615.723 2.96322 -3.14352 0
M  V30 6461 C 614.858 4.25147 -3.18471 0
M  V30 6462 C 613.897 4.25172 -4.40335 0
M  V30 6463 N 613.034 5.45529 -4.41975 0
M  V30 6464 H 617.874 1.33332 -2.66508 0
M  V30 6465 H 615.411 0.647613 -1.32077 0
M  V30 6466 H 617.369 3.70071 -1.92623 0
M  V30 6467 H 615.999 3.0791 -0.969087 0
M  V30 6468 H 615.051 2.09066 -3.17798 0
M  V30 6469 H 616.363 2.92203 -4.04251 0
M  V30 6470 H 615.517 5.13411 -3.23255 0
M  V30 6471 H 614.256 4.31929 -2.2647 0
M  V30 6472 H 613.261 3.353 -4.35723 0
M  V30 6473 H 614.486 4.20049 -5.33606 0
M  V30 6474 H 612.432 5.53024 -3.52847 0
M  V30 6475 H 612.349 5.43311 -5.25689 0
M  V30 6476 H 613.617 6.35812 -4.50958 0
M  V30 6477 N 617.846 1.41785 0.688094 0
M  V30 6478 C 619.071 1.45117 1.48175 0
M  V30 6479 C 619.496 0.060129 1.88004 0
M  V30 6480 O 618.854 -0.938385 1.55126 0
M  V30 6481 C 618.902 2.37224 2.71583 0
M  V30 6482 O 618.006 1.83443 3.69354 0
M  V30 6483 H 617.347 0.492208 0.445676 0
M  V30 6484 H 619.877 1.86329 0.845145 0
M  V30 6485 H 619.887 2.53353 3.19806 0
M  V30 6486 H 618.562 3.38293 2.41931 0
M  V30 6487 H 617.139 1.76802 3.28322 0
M  V30 6488 N 619.324 -0.923095 1.27737 0
M  V30 6489 C 620.572 -1.66797 1.14119 0
M  V30 6490 C 620.893 -1.92479 -0.312541 0
M  V30 6491 O 620.163 -1.53432 -1.218 0
M  V30 6492 H 618.743 -0.618196 0.419336 0
M  V30 6493 H 621.405 -1.10815 1.60331 0
M  V30 6494 H 620.501 -2.63424 1.67374 0
M  V30 6495 N 620.802 -1.09834 -1.13024 0
M  V30 6496 C 622.048 -0.83819 -1.84668 0
M  V30 6497 C 622.381 0.634645 -1.83537 0
M  V30 6498 O 621.656 1.46753 -1.27647 0
M  V30 6499 C 621.939 -1.37933 -3.32636 0
M  V30 6500 C 621.792 -2.91857 -3.42257 0
M  V30 6501 C 623.111 -1.01654 -4.28199 0
M  V30 6502 H 620.23 -0.30595 -0.670495 0
M  V30 6503 H 622.872 -1.36044 -1.32635 0
M  V30 6504 H 621.022 -0.935111 -3.77078 0
M  V30 6505 H 622.694 -3.44759 -3.06495 0
M  V30 6506 H 620.937 -3.28776 -2.83 0
M  V30 6507 H 621.608 -3.24799 -4.46329 0
M  V30 6508 H 624.084 -1.39973 -3.9185 0
M  V30 6509 H 622.96 -1.42217 -5.30156 0
M  V30 6510 H 623.221 0.0747794 -4.42037 0
M  V30 6511 N 622.28 1.30327 -0.886154 0
M  V30 6512 C 623.528 1.9571 -0.504195 0
M  V30 6513 C 623.849 1.70294 0.950003 0
M  V30 6514 O 623.119 1.02718 1.66811 0
M  V30 6515 H 621.699 0.72412 -0.183465 0
M  V30 6516 H 624.361 1.58835 -1.12949 0
M  V30 6517 H 623.457 3.04704 -0.675431 0
M  V30 6518 N 623.758 0.647228 1.43697 0
M  V30 6519 C 624.986 0.16575 2.06235 0
M  V30 6520 C 625.401 -1.1662 1.48476 0
M  V30 6521 O 624.758 -1.7187 0.613762 0
M  V30 6522 C 624.809 0.0621651 3.61447 0
M  V30 6523 O 624.53 1.34146 4.17057 0
M  V30 6524 C 626.031 -0.446102 4.4105 0
M  V30 6525 H 623.251 0.0871158 0.665321 0
M  V30 6526 H 625.795 0.886183 1.84301 0
M  V30 6527 H 623.95 -0.608794 3.82587 0
M  V30 6528 H 624.364 1.19675 5.10664 0
M  V30 6529 H 625.838 -0.46755 5.50016 0
M  V30 6530 H 626.315 -1.47627 4.13646 0
M  V30 6531 H 626.921 0.192159 4.24866 0
M  V30 6532 N 625.236 -1.5273 0.388769 0
M  V30 6533 C 626.199 -2.25043 -0.434544 0
M  V30 6534 C 627.199 -1.26661 -0.990644 0
M  V30 6535 O 628.389 -1.50762 -0.872731 0
M  V30 6536 C 625.521 -3.00507 -1.60961 0
M  V30 6537 H 626.714 -2.99242 0.198549 0
M  V30 6538 H 624.267 -1.55664 0.140875 0
M  V30 6539 H 625.002 -2.30607 -2.28015 0
M  V30 6540 H 624.787 -3.72716 -1.21757 0
M  V30 6541 H 626.277 -3.55413 -2.19251 0
M  V30 6542 N 626.714 -0.118576 -1.57153 0
M  V30 6543 C 627.644 0.828436 -2.1831 0
M  V30 6544 C 628.625 1.27758 -1.12303 0
M  V30 6545 O 629.81 1.34026 -1.40537 0
M  V30 6546 C 626.94 2.07876 -2.78217 0
M  V30 6547 C 625.894 1.76742 -3.89803 0
M  V30 6548 C 625.22 3.08801 -4.36516 0
M  V30 6549 C 626.52 1.03606 -5.11921 0
M  V30 6550 H 628.214 0.318824 -2.97698 0
M  V30 6551 H 625.76 0.151911 -1.43196 0
M  V30 6552 H 627.713 2.74584 -3.19659 0
M  V30 6553 H 626.437 2.61161 -1.96118 0
M  V30 6554 H 625.096 1.12424 -3.48936 0
M  V30 6555 H 624.744 3.6002 -3.51276 0
M  V30 6556 H 624.444 2.88743 -5.11763 0
M  V30 6557 H 625.968 3.76627 -4.80608 0
M  V30 6558 H 627.382 1.60467 -5.50385 0
M  V30 6559 H 625.779 0.936454 -5.92748 0
M  V30 6560 H 626.849 0.0227421 -4.84895 0
M  V30 6561 N 628.193 1.56834 0.155195 0
M  V30 6562 C 629.123 2.00678 1.19376 0
M  V30 6563 C 630.104 0.884973 1.45266 0
M  V30 6564 O 631.289 1.1522 1.56326 0
M  V30 6565 C 628.419 2.38042 2.5289 0
M  V30 6566 C 627.373 3.53332 2.41538 0
M  V30 6567 C 626.699 3.76485 3.79688 0
M  V30 6568 C 627.999 4.86265 1.9064 0
M  V30 6569 H 629.693 2.87688 0.829232 0
M  V30 6570 H 627.239 1.38407 0.397445 0
M  V30 6571 H 629.192 2.67314 3.25763 0
M  V30 6572 H 627.916 1.4796 2.91162 0
M  V30 6573 H 626.575 3.24213 1.71117 0
M  V30 6574 H 626.223 2.83667 4.15382 0
M  V30 6575 H 625.923 4.54068 3.72956 0
M  V30 6576 H 627.447 4.08174 4.54122 0
M  V30 6577 H 628.861 5.14308 2.53299 0
M  V30 6578 H 627.258 5.67597 1.94818 0
M  V30 6579 H 628.328 4.77184 0.861596 0
M  V30 6580 N 629.671 -0.424282 1.51781 0
M  V30 6581 C 630.601 -1.52305 1.7699 0
M  V30 6582 C 631.582 -1.5839 0.620209 0
M  V30 6583 O 632.767 -1.73908 0.864268 0
M  V30 6584 C 629.897 -2.90271 1.90683 0
M  V30 6585 C 628.851 -2.99043 3.06198 0
M  V30 6586 C 628.177 -4.39116 3.05092 0
M  V30 6587 C 629.477 -2.7192 4.45934 0
M  V30 6588 H 631.171 -1.31461 2.68995 0
M  V30 6589 H 628.717 -0.630985 1.29439 0
M  V30 6590 H 630.67 -3.6711 2.06901 0
M  V30 6591 H 629.394 -3.12376 0.953365 0
M  V30 6592 H 628.053 -2.24646 2.89706 0
M  V30 6593 H 627.701 -4.58207 2.07498 0
M  V30 6594 H 627.401 -4.45912 3.82669 0
M  V30 6595 H 628.925 -5.17911 3.2342 0
M  V30 6596 H 630.339 -3.38487 4.62709 0
M  V30 6597 H 628.736 -2.90111 5.25315 0
M  V30 6598 H 629.806 -1.67445 4.55072 0
M  V30 6599 N 631.149 -1.42148 -0.680565 0
M  V30 6600 C 632.096 -1.45175 -1.79424 0
M  V30 6601 C 633.066 -0.304352 -1.63288 0
M  V30 6602 O 634.251 -0.507591 -1.83924 0
M  V30 6603 C 631.391 -1.35429 -3.17416 0
M  V30 6604 C 630.504 -2.60158 -3.4488 0
M  V30 6605 C 629.639 -2.42596 -4.72568 0
M  V30 6606 C 628.678 -3.62727 -4.93047 0
M  V30 6607 N 627.815 -3.44143 -6.11973 0
M  V30 6608 H 632.655 -2.40349 -1.76172 0
M  V30 6609 H 630.192 -1.19334 -0.860107 0
M  V30 6610 H 632.15 -1.27777 -3.97151 0
M  V30 6611 H 630.78 -0.438536 -3.19807 0
M  V30 6612 H 629.832 -2.78199 -2.5944 0
M  V30 6613 H 631.144 -3.49473 -3.55908 0
M  V30 6614 H 630.298 -2.32497 -5.60384 0
M  V30 6615 H 629.037 -1.50761 -4.63813 0
M  V30 6616 H 628.042 -3.73264 -4.03676 0
M  V30 6617 H 629.267 -4.55534 -5.03652 0
M  V30 6618 H 627.213 -2.5502 -6.04401 0
M  V30 6619 H 627.13 -4.27041 -6.23836 0
M  V30 6620 H 628.398 -3.37845 -7.02482 0
M  V30 6621 N 632.627 0.916307 -1.28225 0
M  V30 6622 C 633.557 2.0352 -1.14464 0
M  V30 6623 C 634.538 1.70045 -0.0430844 0
M  V30 6624 O 635.723 1.92954 -0.219619 0
M  V30 6625 C 632.853 3.37889 -0.803027 0
M  V30 6626 C 631.807 3.85516 -1.85908 0
M  V30 6627 C 631.133 5.1682 -1.37116 0
M  V30 6628 C 632.433 4.07655 -3.26519 0
M  V30 6629 H 634.127 2.1529 -2.08064 0
M  V30 6630 H 631.673 1.03446 -1.00174 0
M  V30 6631 H 633.626 4.15654 -0.693537 0
M  V30 6632 H 632.35 3.26164 0.168674 0
M  V30 6633 H 631.009 3.09953 -1.95767 0
M  V30 6634 H 630.657 5.01497 -0.38859 0
M  V30 6635 H 630.357 5.49657 -2.07728 0
M  V30 6636 H 631.881 5.97143 -1.27484 0
M  V30 6637 H 633.295 4.75953 -3.19596 0
M  V30 6638 H 631.692 4.51818 -3.94943 0
M  V30 6639 H 632.762 3.12553 -3.70727 0
M  V30 6640 N 634.105 1.10431 1.1244 0
M  V30 6641 C 635.068 0.756542 2.16354 0
M  V30 6642 C 636.068 -0.21899 1.59302 0
M  V30 6643 O 637.258 0.00415969 1.742 0
M  V30 6644 C 634.39 0.120612 3.40687 0
M  V30 6645 H 635.583 1.67696 2.48632 0
M  V30 6646 H 633.136 0.904832 1.27446 0
M  V30 6647 H 633.871 -0.810536 3.14008 0
M  V30 6648 H 633.656 0.822693 3.83372 0
M  V30 6649 H 635.146 -0.106945 4.17463 0
M  V30 6650 N 635.583 -1.29855 0.893053 0
M  V30 6651 C 636.515 -2.26911 0.32311 0
M  V30 6652 C 637.528 -1.54039 -0.526858 0
M  V30 6653 O 638.717 -1.75132 -0.345095 0
M  V30 6654 C 635.817 -3.34266 -0.558509 0
M  V30 6655 C 634.99 -4.36601 0.264222 0
M  V30 6656 C 634.049 -5.23326 -0.549171 0
M  V30 6657 O 633.075 -5.69192 0.0309883 0
M  V30 6658 N 634.277 -5.50008 -1.85664 0
M  V30 6659 H 637.042 -2.76455 1.15726 0
M  V30 6660 H 634.603 -1.4312 0.756859 0
M  V30 6661 H 636.595 -3.89211 -1.1089 0
M  V30 6662 H 635.165 -2.8459 -1.29334 0
M  V30 6663 H 634.385 -3.81409 0.996046 0
M  V30 6664 H 635.673 -5.02019 0.827906 0
M  V30 6665 H 635.071 -5.14542 -2.35081 0
M  V30 6666 H 633.628 -6.07796 -2.35431 0
M  V30 6667 N 637.061 -0.65484 -1.43351 0
M  V30 6668 C 637.994 0.0855537 -2.2804 0
M  V30 6669 C 638.972 0.828301 -1.39921 0
M  V30 6670 O 640.156 0.827539 -1.69364 0
M  V30 6671 C 637.283 1.12792 -3.19368 0
M  V30 6672 C 636.329 0.483037 -4.23756 0
M  V30 6673 S 637.162 -0.744605 -5.30298 0
M  V30 6674 C 638.318 0.297187 -6.25194 0
M  V30 6675 H 638.551 -0.632831 -2.90487 0
M  V30 6676 H 636.084 -0.44373 -1.47886 0
M  V30 6677 H 638.042 1.7243 -3.72529 0
M  V30 6678 H 636.703 1.81863 -2.56095 0
M  V30 6679 H 635.896 1.26888 -4.87766 0
M  V30 6680 H 635.498 -0.0392713 -3.73979 0
M  V30 6681 H 637.79 1.1629 -6.67445 0
M  V30 6682 H 638.733 -0.30793 -7.0743 0
M  V30 6683 H 639.141 0.633721 -5.60932 0
M  V30 6684 N 638.539 1.52521 -0.396863 0
M  V30 6685 C 639.786 2.01672 0.182898 0
M  V30 6686 C 640.114 1.28302 1.46181 0
M  V30 6687 O 639.369 0.374118 1.92091 0
M  V30 6688 C 639.668 3.5403 0.489677 0
M  V30 6689 C 639.334 4.45456 -0.698581 0
M  V30 6690 C 637.996 4.70166 -1.02454 0
M  V30 6691 C 640.348 4.99354 -1.49316 0
M  V30 6692 C 637.676 5.46024 -2.1465 0
M  V30 6693 C 640.028 5.76439 -2.60579 0
M  V30 6694 C 638.692 5.99426 -2.93675 0
M  V30 6695 H 637.962 0.737971 0.066927 0
M  V30 6696 H 640.609 1.83853 -0.535764 0
M  V30 6697 H 638.914 3.69963 1.28976 0
M  V30 6698 H 640.611 3.8956 0.951018 0
M  V30 6699 H 637.201 4.26392 -0.434525 0
M  V30 6700 H 641.385 4.80182 -1.25457 0
M  V30 6701 H 636.641 5.62046 -2.40654 0
M  V30 6702 H 640.815 6.17202 -3.22544 0
M  V30 6703 H 638.442 6.57988 -3.80731 0
M  V30 6704 N 640.017 0.126909 1.57088 0
M  V30 6705 C 641.242 -0.53997 2.00248 0
M  V30 6706 C 641.667 -1.58927 1.00618 0
M  V30 6707 O 641.025 -1.81288 -0.0210131 0
M  V30 6708 C 641.073 -1.13565 3.4225 0
M  V30 6709 O 640.177 -2.25103 3.45547 0
M  V30 6710 H 639.518 -0.13412 0.650314 0
M  V30 6711 H 642.048 0.217718 2.03438 0
M  V30 6712 H 642.058 -1.46925 3.80627 0
M  V30 6713 H 640.733 -0.367122 4.14277 0
M  V30 6714 H 639.31 -1.93123 3.18995 0
M  V30 6715 N 641.495 -1.56914 -0.146875 0
M  V30 6716 C 642.772 -1.74273 -0.888165 0
M  V30 6717 C 643.152 -0.69496 -1.99333 0
M  V30 6718 O 642.5 0.286093 -2.26702 0
M  V30 6719 C 642.71 -3.18336 -1.43051 0
M  V30 6720 C 644.058 -3.80024 -1.89387 0
M  V30 6721 O 645.082 -3.21765 -1.52792 0
M  V30 6722 O 643.941 -4.82367 -2.56874 0
M  V30 6723 H 641.035 -0.712565 -0.419738 0
M  V30 6724 H 643.581 -1.6918 -0.132791 0
M  V30 6725 H 642.353 -3.86092 -0.636274 0
M  V30 6726 H 641.976 -3.27854 -2.24938 0
M  V30 6727 N 642.974 0.416227 -1.52004 0
M  V30 6728 C 643.907 1.52736 -1.6955 0
M  V30 6729 C 644.885 1.53264 -0.54305 0
M  V30 6730 O 646.069 1.72077 -0.769527 0
M  V30 6731 C 643.196 2.91283 -1.72835 0
M  V30 6732 C 642.242 3.08695 -2.94295 0
M  V30 6733 S 643.075 2.82758 -4.54762 0
M  V30 6734 C 644.231 4.23548 -4.60823 0
M  V30 6735 H 644.464 1.37623 -2.63528 0
M  V30 6736 H 641.997 0.607335 -1.41954 0
M  V30 6737 H 643.955 3.71134 -1.75413 0
M  V30 6738 H 642.616 3.03742 -0.799966 0
M  V30 6739 H 641.809 4.10042 -2.93056 0
M  V30 6740 H 641.411 2.36699 -2.89568 0
M  V30 6741 H 643.703 5.17078 -4.37763 0
M  V30 6742 H 644.646 4.29813 -5.62731 0
M  V30 6743 H 645.054 4.08188 -3.89927 0
M  V30 6744 N 644.452 1.42507 0.673017 0
M  V30 6745 C 645.698 1.43284 1.43519 0
M  V30 6746 C 646.031 0.049668 1.94136 0
M  V30 6747 O 645.306 -0.926369 1.71022 0
M  V30 6748 C 645.589 2.45874 2.63093 0
M  V30 6749 C 645.442 3.93388 2.18096 0
M  V30 6750 C 646.761 2.45431 3.6531 0
M  V30 6751 H 643.88 0.521752 0.520522 0
M  V30 6752 H 646.522 1.73932 0.764701 0
M  V30 6753 H 644.672 2.19869 3.20296 0
M  V30 6754 H 646.344 4.30379 1.66046 0
M  V30 6755 H 644.587 4.07169 1.49652 0
M  V30 6756 H 645.258 4.60752 3.03993 0
M  V30 6757 H 647.734 2.68561 3.17827 0
M  V30 6758 H 646.61 3.19189 4.46553 0
M  V30 6759 H 646.871 1.48092 4.16559 0
M  V30 6760 N 645.93 -0.909495 1.28709 0
M  V30 6761 C 646.86 -2.0291 1.15542 0
M  V30 6762 C 647.841 -1.7002 0.0521017 0
M  V30 6763 O 649.026 -1.92835 0.229849 0
M  V30 6764 C 646.156 -3.37458 0.820935 0
M  V30 6765 C 645.11 -3.84524 1.87949 0
M  V30 6766 C 644.436 -5.16086 1.39854 0
M  V30 6767 C 645.736 -4.05918 3.28676 0
M  V30 6768 H 647.43 -2.14183 2.09203 0
M  V30 6769 H 644.976 -1.02913 1.00722 0
M  V30 6770 H 646.929 -4.1528 0.715571 0
M  V30 6771 H 645.653 -3.26249 -0.151374 0
M  V30 6772 H 644.312 -3.08911 1.97408 0
M  V30 6773 H 643.96 -5.01284 0.41518 0
M  V30 6774 H 643.66 -5.48547 2.1064 0
M  V30 6775 H 645.184 -5.96459 1.30649 0
M  V30 6776 H 646.598 -4.74252 3.22115 0
M  V30 6777 H 644.995 -4.49717 3.97334 0
M  V30 6778 H 646.065 -3.10583 3.72379 0
M  V30 6779 N 647.408 -1.11026 -1.11852 0
M  V30 6780 C 648.355 -0.764662 -2.17765 0
M  V30 6781 C 649.325 0.261854 -1.64023 0
M  V30 6782 O 650.51 0.139748 -1.90288 0
M  V30 6783 C 647.65 -0.209317 -3.44465 0
M  V30 6784 C 646.763 -1.29187 -4.12231 0
M  V30 6785 C 645.898 -0.697523 -5.266 0
M  V30 6786 C 644.937 -1.76023 -5.86244 0
M  V30 6787 N 644.074 -1.18569 -6.92016 0
M  V30 6788 H 648.914 -1.67202 -2.46673 0
M  V30 6789 H 646.451 -0.835065 -1.21099 0
M  V30 6790 H 648.409 0.130599 -4.16996 0
M  V30 6791 H 647.039 0.661251 -3.15955 0
M  V30 6792 H 646.091 -1.74881 -3.37818 0
M  V30 6793 H 647.403 -2.09607 -4.52622 0
M  V30 6794 H 646.557 -0.307412 -6.05921 0
M  V30 6795 H 645.296 0.138044 -4.87505 0
M  V30 6796 H 644.301 -2.1597 -5.05606 0
M  V30 6797 H 645.526 -2.59875 -6.27409 0
M  V30 6798 H 643.472 -0.371695 -6.54946 0
M  V30 6799 H 643.389 -1.92666 -7.31038 0
M  V30 6800 H 644.657 -0.82233 -7.7515 0
M  V30 6801 N 648.886 1.2938 -0.899927 0
M  V30 6802 C 650.163 1.9046 -0.445443 0
M  V30 6803 C 650.543 1.81683 1.07492 0
M  V30 6804 O 649.891 1.24371 1.91688 0
M  V30 6805 C 650.101 3.35529 -0.960279 0
M  V30 6806 C 651.449 4.12556 -1.00412 0
M  V30 6807 O 652.473 3.44434 -0.907965 0
M  V30 6808 O 651.332 5.34294 -1.14857 0
M  V30 6809 H 648.426 0.815253 -0.138893 0
M  V30 6810 H 650.972 1.37844 -0.989808 0
M  V30 6811 H 649.744 3.36074 -2.00425 0
M  V30 6812 H 649.367 3.95624 -0.395939 0
M  V30 6813 N 650.364 0.662433 1.43002 0
M  V30 6814 C 651.612 0.179237 2.01304 0
M  V30 6815 C 651.933 -1.21428 1.52579 0
M  V30 6816 O 651.203 -1.81294 0.742252 0
M  V30 6817 H 649.783 0.0632725 0.744316 0
M  V30 6818 H 652.445 0.856169 1.75088 0
M  V30 6819 H 651.541 0.170957 3.11631 0
M  V30 6820 N 651.842 -1.52309 0.404946 0
M  V30 6821 C 653.089 -2.01767 -0.1722 0
M  V30 6822 C 653.417 -1.29075 -1.45498 0
M  V30 6823 O 652.672 -0.3843 -1.9189 0
M  V30 6824 C 652.971 -3.54284 -0.470895 0
M  V30 6825 C 652.637 -4.45079 0.722194 0
M  V30 6826 C 651.299 -4.69617 1.04946 0
M  V30 6827 C 653.651 -4.98555 1.51962 0
M  V30 6828 C 650.979 -5.44878 2.17543 0
M  V30 6829 C 653.331 -5.75049 2.63632 0
M  V30 6830 C 651.995 -5.9786 2.9685 0
M  V30 6831 H 651.265 -0.738316 -0.0630125 0
M  V30 6832 H 653.912 -1.83566 0.545506 0
M  V30 6833 H 652.217 -3.70642 -1.27012 0
M  V30 6834 H 653.914 -3.90058 -0.930346 0
M  V30 6835 H 650.504 -4.26155 0.457131 0
M  V30 6836 H 654.688 -4.79509 1.28002 0
M  V30 6837 H 649.944 -5.60762 2.43631 0
M  V30 6838 H 654.118 -6.15483 3.25813 0
M  V30 6839 H 651.745 -6.5596 3.84215 0
M  V30 6840 N 653.32 -0.135238 -1.57019 0
M  V30 6841 C 654.252 0.839675 -2.13265 0
M  V30 6842 C 655.265 1.21887 -1.07923 0
M  V30 6843 O 656.454 1.16499 -1.35241 0
M  V30 6844 C 653.554 2.13647 -2.63075 0
M  V30 6845 C 652.727 1.92646 -3.92691 0
M  V30 6846 C 651.786 3.06205 -4.27931 0
M  V30 6847 O 650.812 2.78409 -4.96465 0
M  V30 6848 N 652.014 4.33072 -3.86561 0
M  V30 6849 H 654.779 0.359026 -2.97542 0
M  V30 6850 H 652.34 0.0486979 -1.61827 0
M  V30 6851 H 654.332 2.88641 -2.8367 0
M  V30 6852 H 652.902 2.5301 -1.83588 0
M  V30 6853 H 652.122 1.01754 -3.80841 0
M  V30 6854 H 653.41 1.75939 -4.77413 0
M  V30 6855 H 652.808 4.58526 -3.31316 0
M  V30 6856 H 651.365 5.04885 -4.12231 0
M  V30 6857 N 654.798 1.5699 0.138552 0
M  V30 6858 C 656.209 1.73171 0.697754 0
M  V30 6859 C 656.56 0.750952 1.8126 0
M  V30 6860 O 655.685 -0.080549 2.1625 0
M  V30 6861 C 656.28 3.13996 1.27248 0
M  V30 6862 C 654.839 3.3175 1.77816 0
M  V30 6863 C 653.986 2.69084 0.669991 0
M  V30 6864 H 656.937 1.5846 -0.0871979 0
M  V30 6865 H 656.958 3.14463 2.14227 0
M  V30 6866 H 656.47 3.85354 0.460855 0
M  V30 6867 H 654.571 2.65403 2.61519 0
M  V30 6868 H 654.684 4.39768 1.90107 0
M  V30 6869 H 653.048 2.29782 1.09874 0
M  V30 6870 H 653.831 3.43053 -0.130329 0
M  V30 6871 N 656.276 -0.40816 1.52223 0
M  V30 6872 C 657.501 -1.18127 1.70472 0
M  V30 6873 C 657.926 -1.83491 0.41384 0
M  V30 6874 O 657.284 -1.70047 -0.628778 0
M  V30 6875 C 657.332 -2.21935 2.84213 0
M  V30 6876 O 656.436 -3.28099 2.4985 0
M  V30 6877 H 655.777 -0.344781 0.56747 0
M  V30 6878 H 658.307 -0.478328 1.9893 0
M  V30 6879 H 658.317 -2.66248 3.09153 0
M  V30 6880 H 656.992 -1.73744 3.7787 0
M  V30 6881 H 655.569 -2.89058 2.35584 0
M  V30 6882 N 657.755 -1.42862 -0.66545 0
M  V30 6883 C 659.171 -1.25993 -0.979687 0
M  V30 6884 C 659.371 -0.170831 -2.00775 0
M  V30 6885 O 658.427 0.454827 -2.4837 0
M  V30 6886 C 659.74 -2.62005 -1.47559 0
M  V30 6887 C 661.288 -2.69437 -1.59288 0
M  V30 6888 C 661.763 -4.05838 -2.12272 0
M  V30 6889 N 663.254 -4.0784 -2.19592 0
M  V30 6890 C 663.989 -5.10205 -2.61684 0
M  V30 6891 N 663.485 -6.22949 -3.03161 0
M  V30 6892 N 665.278 -4.9756 -2.61516 0
M  V30 6893 H 657.429 -2.12395 0.0150493 0
M  V30 6894 H 659.692 -0.946355 -0.0558187 0
M  V30 6895 H 659.398 -3.42605 -0.794654 0
M  V30 6896 H 659.272 -2.86566 -2.45275 0
M  V30 6897 H 661.659 -1.89178 -2.26486 0
M  V30 6898 H 661.74 -2.48655 -0.600374 0
M  V30 6899 H 661.384 -4.86559 -1.4568 0
M  V30 6900 H 661.314 -4.23977 -3.12331 0
M  V30 6901 H 663.805 -3.26452 -1.90361 0
M  V30 6902 H 664.118 -6.96899 -3.33993 0
M  V30 6903 H 662.463 -6.2644 -3.00995 0
M  V30 6904 H 665.654 -4.08551 -2.28481 0
M  V30 6905 H 665.827 -5.77468 -2.93999 0
M  V30 6906 N 659.233 0.902656 -1.29189 0
M  V30 6907 C 660.458 1.69167 -1.19989 0
M  V30 6908 C 660.883 1.86607 0.236495 0
M  V30 6909 O 660.241 1.38425 1.17082 0
M  V30 6910 C 660.289 3.05532 -1.91527 0
M  V30 6911 O 659.393 3.93621 -1.2303 0
M  V30 6912 H 658.734 0.517584 -0.415936 0
M  V30 6913 H 661.264 1.12785 -1.70706 0
M  V30 6914 H 661.274 3.55693 -1.99866 0
M  V30 6915 H 659.949 2.92156 -2.96003 0
M  V30 6916 H 658.526 3.52055 -1.22928 0
M  V30 6917 N 660.711 1.11618 1.11262 0
M  V30 6918 C 661.96 0.860934 1.82403 0
M  V30 6919 C 662.273 -0.615303 1.8567 0
M  V30 6920 O 663.479 -0.986861 2.52929 0
M  V30 6921 C 661.935 1.49048 3.27586 0
M  V30 6922 C 661.543 3.00089 3.32642 0
M  V30 6923 C 663.287 1.31515 4.03614 0
M  V30 6924 C 661.194 3.56019 4.72234 0
M  V30 6925 H 660.124 0.318423 0.683464 0
M  V30 6926 H 662.775 1.34165 1.25188 0
M  V30 6927 H 661.157 0.937434 3.84744 0
M  V30 6928 H 662.331 3.61813 2.85356 0
M  V30 6929 H 660.646 3.16919 2.70096 0
M  V30 6930 H 663.243 1.70732 5.0671 0
M  V30 6931 H 663.586 0.257917 4.155 0
M  V30 6932 H 664.119 1.83694 3.52848 0
M  V30 6933 H 660.858 4.61463 4.65545 0
M  V30 6934 H 660.378 2.99066 5.19923 0
M  V30 6935 H 662.057 3.54568 5.41193 0
M  V30 6936 N 662.189 -1.289 0.906776 0
M  V30 6937 C 663.438 -1.9455 0.532262 0
M  V30 6938 C 663.751 -1.72219 -0.927353 0
M  V30 6939 O 664.957 -2.32033 -1.40971 0
M  V30 6940 C 663.413 -3.48438 0.901041 0
M  V30 6941 C 663.021 -3.79558 2.37991 0
M  V30 6942 C 664.765 -4.20284 0.596777 0
M  V30 6943 C 662.672 -5.26723 2.68918 0
M  V30 6944 H 661.602 -0.728259 0.195333 0
M  V30 6945 H 664.253 -1.46519 1.10474 0
M  V30 6946 H 662.635 -3.95162 0.257419 0
M  V30 6947 H 663.809 -3.43668 3.06967 0
M  V30 6948 H 662.124 -3.20868 2.65391 0
M  V30 6949 H 664.721 -5.28612 0.8046 0
M  V30 6950 H 665.064 -4.13694 -0.465072 0
M  V30 6951 H 665.597 -3.79315 1.19855 0
M  V30 6952 H 662.336 -5.38384 3.73928 0
M  V30 6953 H 661.856 -5.63836 2.04571 0
M  V30 6954 H 663.535 -5.94391 2.55555 0
M  V30 6955 N 663.667 -0.670007 -1.42649 0
M  V30 6956 C 664.914 -0.190286 -2.01604 0
M  V30 6957 C 665.242 1.20155 -1.52948 0
M  V30 6958 O 664.497 1.81964 -0.72026 0
M  V30 6959 C 664.796 -0.168298 -3.57004 0
M  V30 6960 C 664.462 -1.50415 -4.25072 0
M  V30 6961 C 663.124 -1.86992 -4.43382 0
M  V30 6962 C 665.476 -2.38414 -4.63474 0
M  V30 6963 C 662.804 -3.11203 -4.97363 0
M  V30 6964 C 665.156 -3.61933 -5.18833 0
M  V30 6965 C 663.82 -3.98685 -5.35356 0
M  V30 6966 H 663.09 -0.0696305 -0.737721 0
M  V30 6967 H 665.737 -0.864044 -1.70899 0
M  V30 6968 H 664.042 0.588958 -3.87348 0
M  V30 6969 H 665.739 0.22001 -4.00396 0
M  V30 6970 H 662.329 -1.20959 -4.11177 0
M  V30 6971 H 666.513 -2.11442 -4.49006 0
M  V30 6972 H 661.769 -3.39705 -5.08341 0
M  V30 6973 H 665.943 -4.30326 -5.47533 0
M  V30 6974 H 663.57 -4.95009 -5.76949 0
M  V30 6975 N 665.145 1.52092 -0.413018 0
M  V30 6976 C 666.108 2.25706 0.398687 0
M  V30 6977 C 667.108 1.28221 0.970368 0
M  V30 6978 O 668.298 1.52131 0.848635 0
M  V30 6979 C 665.43 3.03029 1.5616 0
M  V30 6980 H 666.623 2.98888 -0.246131 0
M  V30 6981 H 664.176 1.5542 -0.165622 0
M  V30 6982 H 664.911 2.34205 2.24317 0
M  V30 6983 H 664.696 3.74606 1.15812 0
M  V30 6984 H 666.186 3.58857 2.13569 0
M  V30 6985 N 666.623 0.143563 1.56945 0
M  V30 6986 C 667.848 -0.518701 2.00809 0
M  V30 6987 C 668.273 -1.5785 1.02298 0
M  V30 6988 O 667.631 -1.813 -0.0017839 0
M  V30 6989 C 667.679 -1.09929 3.43436 0
M  V30 6990 O 666.783 -2.21425 3.47915 0
M  V30 6991 H 666.124 -0.127215 0.6517 0
M  V30 6992 H 668.654 0.239283 2.03196 0
M  V30 6993 H 668.664 -1.4288 3.82164 0
M  V30 6994 H 667.339 -0.323162 4.14643 0
M  V30 6995 H 665.916 -1.89728 3.21026 0
M  V30 6996 N 668.101 -1.57061 -0.130224 0
M  V30 6997 C 669.347 -1.85412 -0.836295 0
M  V30 6998 C 669.702 -0.729831 -1.7802 0
M  V30 6999 O 668.995 0.271021 -1.89673 0
M  V30 7000 C 669.189 -3.17878 -1.63365 0
M  V30 7001 C 669.018 -4.43086 -0.768453 0
M  V30 7002 C 667.788 -5.03488 -0.427598 0
M  V30 7003 C 669.986 -5.14219 -0.0911495 0
M  V30 7004 N 667.968 -6.12253 0.449439 0
M  V30 7005 C 669.339 -6.16632 0.645341 0
M  V30 7006 C 671.394 -4.97898 -0.0135625 0
M  V30 7007 C 670.097 -7.0449 1.45212 0
M  V30 7008 C 672.123 -5.86234 0.780001 0
M  V30 7009 C 671.485 -6.88141 1.50472 0
M  V30 7010 H 667.584 -0.728875 -0.283311 0
M  V30 7011 H 670.168 -1.9444 -0.100662 0
M  V30 7012 H 668.339 -3.09967 -2.3404 0
M  V30 7013 H 670.071 -3.34076 -2.28419 0
M  V30 7014 H 666.826 -4.67344 -0.767264 0
M  V30 7015 H 667.25 -6.71263 0.879476 0
M  V30 7016 H 671.892 -4.19082 -0.559511 0
M  V30 7017 H 669.61 -7.82722 2.00926 0
M  V30 7018 H 673.196 -5.75671 0.842246 0
M  V30 7019 H 672.076 -7.55311 2.1089 0
M  V30 7020 N 669.579 0.400081 -1.52437 0
M  V30 7021 C 670.804 1.17221 -1.71096 0
M  V30 7022 C 671.229 1.83269 -0.423565 0
M  V30 7023 O 670.587 1.70378 0.619751 0
M  V30 7024 C 670.635 2.20425 -2.85386 0
M  V30 7025 O 669.739 3.26769 -2.51586 0
M  V30 7026 H 669.08 0.341766 -0.569291 0
M  V30 7027 H 671.61 0.467772 -1.99181 0
M  V30 7028 H 671.62 2.64605 -3.10561 0
M  V30 7029 H 670.295 1.71737 -3.78786 0
M  V30 7030 H 668.872 2.87804 -2.37114 0
M  V30 7031 N 671.057 1.43213 0.657864 0
M  V30 7032 C 672.02 1.47687 1.75275 0
M  V30 7033 C 673.02 0.362179 1.56668 0
M  V30 7034 O 674.21 0.623734 1.62651 0
M  V30 7035 C 671.342 1.32497 3.14098 0
M  V30 7036 H 672.535 2.4519 1.7269 0
M  V30 7037 H 670.088 1.2991 0.869087 0
M  V30 7038 H 670.823 0.359831 3.22298 0
M  V30 7039 H 670.608 2.13299 3.29008 0
M  V30 7040 H 672.098 1.38549 3.93946 0
M  V30 7041 N 672.536 -0.895792 1.29666 0
M  V30 7042 C 673.784 -1.64339 1.17631 0
M  V30 7043 C 674.105 -1.93099 -0.271643 0
M  V30 7044 O 673.375 -1.55981 -1.18518 0
M  V30 7045 H 671.955 -0.609162 0.432354 0
M  V30 7046 H 674.617 -1.07389 1.62646 0
M  V30 7047 H 673.713 -2.59815 1.72924 0
M  V30 7048 N 674.014 -1.12206 -1.10668 0
M  V30 7049 C 675.291 -0.787382 -1.79052 0
M  V30 7050 C 675.671 0.723267 -1.98323 0
M  V30 7051 O 675.019 1.6561 -1.57434 0
M  V30 7052 C 675.229 -1.55968 -3.1221 0
M  V30 7053 C 676.577 -1.74413 -3.87125 0
M  V30 7054 O 677.601 -1.5246 -3.21923 0
M  V30 7055 O 676.46 -2.10952 -5.04144 0
M  V30 7056 H 673.554 -0.286137 -0.775922 0
M  V30 7057 H 676.1 -1.22595 -1.1734 0
M  V30 7058 H 674.872 -2.58692 -2.93588 0
M  V30 7059 H 674.495 -1.1152 -3.8164 0
M  V30 7060 N 675.492 1.28418 -0.913599 0
M  V30 7061 C 676.739 1.94981 -0.546674 0
M  V30 7062 C 677.067 1.7192 0.909606 0
M  V30 7063 O 676.322 1.03314 1.66207 0
M  V30 7064 C 676.621 3.48283 -0.802099 0
M  V30 7065 C 676.287 3.91444 -2.2379 0
M  V30 7066 C 674.949 4.02939 -2.63046 0
M  V30 7067 C 677.301 4.13542 -3.17227 0
M  V30 7068 C 674.629 4.3391 -3.94891 0
M  V30 7069 C 676.981 4.45992 -4.48636 0
M  V30 7070 C 675.645 4.55698 -4.87746 0
M  V30 7071 H 674.915 0.713487 -0.200042 0
M  V30 7072 H 677.562 1.52756 -1.15489 0
M  V30 7073 H 675.867 3.91643 -0.111076 0
M  V30 7074 H 677.564 3.97903 -0.497375 0
M  V30 7075 H 674.154 3.83024 -1.9233 0
M  V30 7076 H 678.338 4.04114 -2.88107 0
M  V30 7077 H 673.594 4.39631 -4.24894 0
M  V30 7078 H 677.768 4.62038 -5.21051 0
M  V30 7079 H 675.395 4.79451 -5.89942 0
M  V30 7080 N 676.97 0.677563 1.42291 0
M  V30 7081 C 678.218 0.200578 2.01102 0
M  V30 7082 C 678.539 -1.19803 1.53858 0
M  V30 7083 O 677.809 -1.80496 0.761439 0
M  V30 7084 H 676.389 0.0711634 0.743603 0
M  V30 7085 H 679.051 0.874691 1.7417 0
M  V30 7086 H 678.147 0.204 3.11433 0
M  V30 7087 N 678.448 -1.51871 0.421078 0
M  V30 7088 C 679.673 -2.0684 -0.152371 0
M  V30 7089 C 680.098 -1.28802 -1.37083 0
M  V30 7090 O 679.456 -0.321482 -1.78427 0
M  V30 7091 C 679.504 -3.57532 -0.469368 0
M  V30 7092 O 678.608 -3.81818 -1.55848 0
M  V30 7093 H 677.949 -0.663939 -0.00898586 0
M  V30 7094 H 680.479 -1.95674 0.597724 0
M  V30 7095 H 680.489 -4.01515 -0.724553 0
M  V30 7096 H 679.164 -4.13761 0.421276 0
M  V30 7097 H 677.741 -3.49709 -1.29453 0
M  V30 7098 N 679.926 -0.151884 -1.56866 0
M  V30 7099 C 681.172 0.498742 -1.96572 0
M  V30 7100 C 681.505 1.64194 -1.03702 0
M  V30 7101 O 680.78 1.94334 -0.0803432 0
M  V30 7102 C 681.063 1.00027 -3.45929 0
M  V30 7103 C 680.916 -0.141767 -4.49577 0
M  V30 7104 C 682.235 1.88044 -3.97904 0
M  V30 7105 H 679.354 0.17982 -0.714726 0
M  V30 7106 H 681.996 -0.234097 -1.88552 0
M  V30 7107 H 680.146 1.62476 -3.52894 0
M  V30 7108 H 681.818 -0.778269 -4.54687 0
M  V30 7109 H 680.061 -0.80019 -4.26356 0
M  V30 7110 H 680.732 0.250947 -5.51429 0
M  V30 7111 H 683.208 1.35416 -3.93449 0
M  V30 7112 H 682.084 2.20043 -5.02864 0
M  V30 7113 H 682.345 2.81916 -3.40552 0
M  V30 7114 N 681.404 1.57128 0.121893 0
M  V30 7115 C 682.652 1.84335 0.828548 0
M  V30 7116 C 682.973 0.736632 1.80551 0
M  V30 7117 O 682.243 -0.23962 1.94429 0
M  V30 7118 H 680.823 0.680108 0.30897 0
M  V30 7119 H 683.485 1.9459 0.109906 0
M  V30 7120 H 682.581 2.80152 1.37554 0
M  V30 7121 N 682.882 -0.391992 1.52647 0
M  V30 7122 C 683.845 -1.46135 1.7657 0
M  V30 7123 C 684.845 -1.47701 0.635698 0
M  V30 7124 O 686.035 -1.48924 0.903728 0
M  V30 7125 C 683.167 -2.85443 1.86374 0
M  V30 7126 H 684.36 -1.26208 2.72051 0
M  V30 7127 H 681.913 -0.623549 1.43323 0
M  V30 7128 H 682.648 -3.10718 0.928685 0
M  V30 7129 H 682.433 -2.85708 2.68539 0
M  V30 7130 H 683.923 -3.62933 2.06566 0
M  V30 7131 N 684.36 -1.4356 -0.65026 0
M  V30 7132 C 685.588 -1.48779 -1.43779 0
M  V30 7133 C 686.003 -0.106593 -1.88499 0
M  V30 7134 O 685.36 0.883766 -1.59674 0
M  V30 7135 C 685.411 -2.43618 -2.67081 0
M  V30 7136 O 685.132 -3.76367 -2.24231 0
M  V30 7137 C 686.633 -2.5811 -3.60409 0
M  V30 7138 H 683.853 -0.50521 -0.441593 0
M  V30 7139 H 686.397 -1.88332 -0.796941 0
M  V30 7140 H 684.552 -2.07253 -3.273 0
M  V30 7141 H 684.966 -4.27394 -3.0403 0
M  V30 7142 H 686.44 -3.28539 -4.43583 0
M  V30 7143 H 686.917 -1.627 -4.07953 0
M  V30 7144 H 687.523 -2.95298 -3.0607 0
M  V30 7145 N 685.838 0.888903 -1.30139 0
M  V30 7146 C 686.748 2.02705 -1.18101 0
M  V30 7147 C 687.764 1.73702 -0.101809 0
M  V30 7148 O 688.94 1.98906 -0.315984 0
M  V30 7149 C 686.005 3.35616 -0.869651 0
M  V30 7150 C 685.066 3.78067 -2.03381 0
M  V30 7151 C 684.299 5.04635 -1.73721 0
M  V30 7152 O 684.522 5.66531 -0.663267 0
M  V30 7153 O 683.456 5.43399 -2.58845 0
M  V30 7154 H 687.282 2.15788 -2.13704 0
M  V30 7155 H 684.867 1.01426 -1.09695 0
M  V30 7156 H 686.749 4.15358 -0.711043 0
M  V30 7157 H 685.424 3.23651 0.0565002 0
M  V30 7158 H 684.331 2.99046 -2.24772 0
M  V30 7159 H 685.664 3.94631 -2.94155 0
M  V30 7160 N 687.317 1.12792 1.10072 0
M  V30 7161 C 688.563 0.89679 1.82563 0
M  V30 7162 C 688.918 -0.571152 1.83727 0
M  V30 7163 O 688.211 -1.41697 1.28967 0
M  V30 7164 C 688.405 1.4102 3.28403 0
M  V30 7165 C 688.234 2.92652 3.41445 0
M  V30 7166 C 687.004 3.60928 3.53637 0
M  V30 7167 C 689.202 3.9063 3.34534 0
M  V30 7168 N 687.184 5.00638 3.55295 0
M  V30 7169 C 688.555 5.16492 3.42981 0
M  V30 7170 C 690.61 3.82989 3.18157 0
M  V30 7171 C 689.313 6.35609 3.3674 0
M  V30 7172 C 691.339 5.01633 3.13239 0
M  V30 7173 C 690.701 6.26355 3.22272 0
M  V30 7174 H 686.8 0.381482 0.682638 0
M  V30 7175 H 689.384 1.43491 1.31599 0
M  V30 7176 H 687.555 0.899077 3.77851 0
M  V30 7177 H 689.287 1.12075 3.88872 0
M  V30 7178 H 686.042 3.11429 3.56803 0
M  V30 7179 H 686.466 5.73521 3.59725 0
M  V30 7180 H 691.108 2.87454 3.10049 0
M  V30 7181 H 688.826 7.31407 3.43613 0
M  V30 7182 H 692.412 4.97454 3.01713 0
M  V30 7183 H 691.292 7.1662 3.18473 0
M  V30 7184 N 688.795 -1.27931 0.920396 0
M  V30 7185 C 689.725 -2.29487 0.431024 0
M  V30 7186 C 690.706 -1.62435 -0.504861 0
M  V30 7187 O 691.891 -1.89797 -0.411176 0
M  V30 7188 C 689.021 -3.45788 -0.323709 0
M  V30 7189 C 687.975 -4.24784 0.523658 0
M  V30 7190 C 687.301 -5.33488 -0.359809 0
M  V30 7191 C 688.601 -4.90874 1.78437 0
M  V30 7192 H 690.295 -2.70671 1.27975 0
M  V30 7193 H 687.841 -1.30121 0.616813 0
M  V30 7194 H 689.794 -4.15927 -0.676952 0
M  V30 7195 H 688.518 -3.03502 -1.2064 0
M  V30 7196 H 687.177 -3.56382 0.85951 0
M  V30 7197 H 686.825 -4.87445 -1.24124 0
M  V30 7198 H 686.525 -5.87247 0.203605 0
M  V30 7199 H 688.049 -6.06472 -0.708787 0
M  V30 7200 H 689.463 -5.53339 1.49963 0
M  V30 7201 H 687.86 -5.54659 2.29071 0
M  V30 7202 H 688.93 -4.14988 2.50824 0
M  V30 7203 N 690.273 -0.685099 -1.4193 0
M  V30 7204 C 691.183 -0.013404 -2.34596 0
M  V30 7205 C 692.199 0.777589 -1.55658 0
M  V30 7206 O 693.375 0.717553 -1.88184 0
M  V30 7207 C 690.44 0.919031 -3.34297 0
M  V30 7208 C 689.501 0.121417 -4.29128 0
M  V30 7209 C 688.734 1.00944 -5.24067 0
M  V30 7210 O 688.957 2.24898 -5.24192 0
M  V30 7211 O 687.891 0.464724 -6.00103 0
M  V30 7212 H 691.717 -0.776978 -2.93593 0
M  V30 7213 H 689.302 -0.445379 -1.42607 0
M  V30 7214 H 691.184 1.45402 -3.9552 0
M  V30 7215 H 689.859 1.66228 -2.77759 0
M  V30 7216 H 688.766 -0.45792 -3.71287 0
M  V30 7217 H 690.099 -0.582937 -4.88736 0
M  V30 7218 N 691.751 1.51645 -0.429126 0
M  V30 7219 C 692.999 2.01616 0.139802 0
M  V30 7220 C 693.32 1.31568 1.43927 0
M  V30 7221 O 692.59 0.447688 1.90716 0
M  V30 7222 H 691.17 0.744998 0.054654 0
M  V30 7223 H 693.832 1.8638 -0.569952 0
M  V30 7224 H 692.928 3.10439 0.321609 0
M  V30 7225 N 693.229 0.160201 1.56784 0
M  V30 7226 C 694.459 -0.493449 2.00621 0
M  V30 7227 C 694.867 -1.5809 1.03943 0
M  V30 7228 O 694.21 -1.83675 0.0305343 0
M  V30 7229 C 694.272 -1.14169 3.4089 0
M  V30 7230 C 693.936 -0.197243 4.56574 0
M  V30 7231 C 694.933 0.580174 5.16653 0
M  V30 7232 C 692.618 -0.0963038 5.02208 0
M  V30 7233 C 694.612 1.44584 6.20785 0
M  V30 7234 C 692.299 0.772959 6.06192 0
M  V30 7235 C 693.297 1.54263 6.65351 0
M  V30 7236 O 692.985 2.39738 7.67321 0
M  V30 7237 H 692.717 -0.131764 0.663034 0
M  V30 7238 H 695.271 0.255728 2.03802 0
M  V30 7239 H 693.501 -1.93877 3.34587 0
M  V30 7240 H 695.19 -1.69641 3.6875 0
M  V30 7241 H 695.956 0.5123 4.82287 0
M  V30 7242 H 691.835 -0.685143 4.5588 0
M  V30 7243 H 695.379 2.04706 6.66889 0
M  V30 7244 H 691.276 0.842077 6.39984 0
M  V30 7245 H 692.044 2.33131 7.84597 0
M  V30 7246 N 694.707 -1.5719 -0.113559 0
M  V30 7247 C 695.637 -2.03772 -1.14013 0
M  V30 7248 C 696.618 -0.923176 -1.42869 0
M  V30 7249 O 697.803 -1.19325 -1.53216 0
M  V30 7250 C 694.933 -2.44663 -2.4649 0
M  V30 7251 C 693.887 -3.59612 -2.32085 0
M  V30 7252 C 693.213 -3.8642 -3.69573 0
M  V30 7253 C 694.513 -4.91149 -1.7768 0
M  V30 7254 H 696.207 -2.89785 -0.752665 0
M  V30 7255 H 693.753 -1.39412 -0.360609 0
M  V30 7256 H 695.706 -2.75857 -3.18561 0
M  V30 7257 H 694.43 -1.55628 -2.87137 0
M  V30 7258 H 693.089 -3.28636 -1.62461 0
M  V30 7259 H 692.737 -2.94581 -4.07715 0
M  V30 7260 H 692.437 -4.63797 -3.60786 0
M  V30 7261 H 693.961 -4.2007 -4.4314 0
M  V30 7262 H 695.375 -5.20843 -2.39574 0
M  V30 7263 H 693.772 -5.72562 -1.79701 0
M  V30 7264 H 694.842 -4.79301 -0.734776 0
M  V30 7265 N 696.185 0.383891 -1.52853 0
M  V30 7266 C 697.41 1.154 -1.7233 0
M  V30 7267 C 697.835 1.82809 -0.44298 0
M  V30 7268 O 697.193 1.71026 0.601645 0
M  V30 7269 C 697.241 2.17386 -2.87708 0
M  V30 7270 O 696.345 3.24082 -2.55038 0
M  V30 7271 H 695.686 0.335709 -0.572883 0
M  V30 7272 H 698.216 0.44662 -1.99666 0
M  V30 7273 H 698.226 2.61296 -3.1335 0
M  V30 7274 H 696.901 1.6771 -3.80587 0
M  V30 7275 H 695.478 2.85273 -2.40153 0
M  V30 7276 N 697.663 1.43903 0.642637 0
M  V30 7277 C 698.888 1.49758 1.43483 0
M  V30 7278 C 699.313 0.119911 1.87717 0
M  V30 7279 O 698.671 -0.888558 1.58033 0
M  V30 7280 C 698.719 2.45744 2.63898 0
M  V30 7281 O 697.823 1.95101 3.63331 0
M  V30 7282 H 697.164 0.506138 0.429791 0
M  V30 7283 H 699.694 1.88923 0.785438 0
M  V30 7284 H 699.704 2.63399 3.11584 0
M  V30 7285 H 698.379 3.45818 2.31046 0
M  V30 7286 H 696.956 1.87158 3.22531 0
M  V30 7287 N 699.141 -0.881989 1.30609 0
M  V30 7288 C 700.071 -2.00413 1.1982 0
M  V30 7289 C 701.052 -1.69871 0.0881538 0
M  V30 7290 O 702.237 -1.92304 0.2707 0
M  V30 7291 C 699.367 -3.35641 0.89233 0
M  V30 7292 C 698.321 -3.80451 1.96064 0
M  V30 7293 C 697.647 -5.13003 1.5077 0
M  V30 7294 C 698.947 -3.98855 3.37213 0
M  V30 7295 H 700.641 -2.09698 2.13699 0
M  V30 7296 H 698.187 -1.00754 1.02882 0
M  V30 7297 H 700.14 -4.13669 0.803497 0
M  V30 7298 H 698.864 -3.26497 -0.0821381 0
M  V30 7299 H 697.523 -3.04654 2.03916 0
M  V30 7300 H 697.171 -5.0029 0.521417 0
M  V30 7301 H 696.871 -5.43956 2.22229 0
M  V30 7302 H 698.395 -5.93554 1.43271 0
M  V30 7303 H 699.809 -4.67312 3.32103 0
M  V30 7304 H 698.206 -4.41188 4.06784 0
M  V30 7305 H 699.276 -3.02614 3.78883 0
M  V30 7306 N 700.619 -1.13374 -1.09472 0
M  V30 7307 C 701.569 -0.77946 -2.14263 0
M  V30 7308 C 702.553 0.226271 -1.59301 0
M  V30 7309 O 703.745 0.0302581 -1.76974 0
M  V30 7310 C 700.874 -0.246635 -3.42413 0
M  V30 7311 C 699.96 -1.28124 -4.04283 0
M  V30 7312 N 700.351 -2.48201 -4.40715 0
M  V30 7313 C 698.649 -1.12892 -4.31476 0
M  V30 7314 C 699.35 -3.14347 -4.8945 0
M  V30 7315 N 698.326 -2.41771 -4.86876 0
M  V30 7316 H 702.128 -1.69305 -2.40235 0
M  V30 7317 H 699.642 -1.01598 -1.26695 0
M  V30 7318 H 701.639 0.0254131 -4.16892 0
M  V30 7319 H 700.299 0.661287 -3.17895 0
M  V30 7320 H 701.31 -2.85511 -4.32093 0
M  V30 7321 H 697.987 -0.279117 -4.16566 0
M  V30 7322 H 699.377 -4.16663 -5.27107 0
M  V30 7323 N 702.098 1.27442 -0.927168 0
M  V30 7324 C 703.028 2.29256 -0.443188 0
M  V30 7325 C 704.009 1.62701 0.49624 0
M  V30 7326 O 705.194 1.90013 0.401105 0
M  V30 7327 C 702.324 3.45955 0.305366 0
M  V30 7328 C 701.278 4.24501 -0.546178 0
M  V30 7329 C 700.604 5.33671 0.331512 0
M  V30 7330 C 701.904 4.89921 -1.81037 0
M  V30 7331 H 703.598 2.69988 -1.29409 0
M  V30 7332 H 701.144 1.29792 -0.623705 0
M  V30 7333 H 703.097 4.1628 0.654885 0
M  V30 7334 H 701.821 3.04138 1.19029 0
M  V30 7335 H 700.48 3.55921 -0.878398 0
M  V30 7336 H 700.128 4.88096 1.21537 0
M  V30 7337 H 699.828 5.87131 -0.234746 0
M  V30 7338 H 701.352 6.0684 0.676614 0
M  V30 7339 H 702.766 5.52536 -1.52895 0
M  V30 7340 H 701.163 5.53436 -2.32009 0
M  V30 7341 H 702.233 4.13652 -2.53021 0
M  V30 7342 N 703.576 0.692616 1.41565 0
M  V30 7343 C 704.523 0.0254264 2.30786 0
M  V30 7344 C 705.493 -0.774347 1.46946 0
M  V30 7345 O 706.678 -0.742981 1.7574 0
M  V30 7346 C 703.818 -0.907123 3.32964 0
M  V30 7347 C 702.931 -0.0992784 4.31886 0
M  V30 7348 C 702.066 -1.0292 5.21134 0
M  V30 7349 C 701.105 -0.214088 6.11725 0
M  V30 7350 N 700.242 -1.09766 6.93467 0
M  V30 7351 H 705.082 0.792036 2.87282 0
M  V30 7352 H 702.619 0.4023 1.41492 0
M  V30 7353 H 704.577 -1.46181 3.90752 0
M  V30 7354 H 703.207 -1.64016 2.78026 0
M  V30 7355 H 702.259 0.572287 3.76071 0
M  V30 7356 H 703.571 0.532782 4.95946 0
M  V30 7357 H 702.725 -1.65321 5.83741 0
M  V30 7358 H 701.464 -1.69512 4.57293 0
M  V30 7359 H 700.469 0.42302 5.4817 0
M  V30 7360 H 701.694 0.447995 6.77621 0
M  V30 7361 H 699.64 -1.74965 6.32237 0
M  V30 7362 H 699.557 -0.521099 7.54202 0
M  V30 7363 H 700.825 -1.70858 7.60544 0
M  V30 7364 N 705.054 -1.51416 0.437162 0
M  V30 7365 C 706.017 -2.26312 -0.362729 0
M  V30 7366 C 707.017 -1.29748 -0.949847 0
M  V30 7367 O 708.207 -1.53462 -0.824325 0
M  V30 7368 C 705.339 -3.05475 -1.5132 0
M  V30 7369 H 706.532 -2.98459 0.29365 0
M  V30 7370 H 704.085 -1.55137 0.190327 0
M  V30 7371 H 704.82 -2.37744 -2.20563 0
M  V30 7372 H 704.605 -3.76401 -1.09838 0
M  V30 7373 H 706.095 -3.62209 -2.07833 0
M  V30 7374 N 706.532 -0.168513 -1.56696 0
M  V30 7375 C 707.779 0.477158 -1.96798 0
M  V30 7376 C 708.107 1.63442 -1.05437 0
M  V30 7377 O 707.362 1.95503 -0.0878903 0
M  V30 7378 C 707.661 1.00441 -3.42996 0
M  V30 7379 C 707.327 -0.0366556 -4.50885 0
M  V30 7380 C 705.989 -0.322785 -4.80116 0
M  V30 7381 C 708.341 -0.743447 -5.1587 0
M  V30 7382 C 705.669 -1.32114 -5.71632 0
M  V30 7383 C 708.021 -1.73077 -6.08463 0
M  V30 7384 C 706.685 -2.02437 -6.36062 0
M  V30 7385 H 705.955 0.174604 -0.720135 0
M  V30 7386 H 708.602 -0.259884 -1.89728 0
M  V30 7387 H 706.907 1.81922 -3.47004 0
M  V30 7388 H 708.604 1.51294 -3.71364 0
M  V30 7389 H 705.194 0.196532 -4.28149 0
M  V30 7390 H 709.378 -0.535602 -4.93401 0
M  V30 7391 H 704.634 -1.55482 -5.913 0
M  V30 7392 H 708.808 -2.28382 -6.57886 0
M  V30 7393 H 706.435 -2.79946 -7.06777 0
M  V30 7394 N 708.01 1.57248 0.105221 0
M  V30 7395 C 709.238 1.89768 0.82437 0
M  V30 7396 C 709.653 0.761192 1.72775 0
M  V30 7397 O 709.01 -0.267342 1.80531 0
M  V30 7398 C 709.061 3.2184 1.64625 0
M  V30 7399 O 708.782 4.31115 0.779217 0
M  V30 7400 C 710.283 3.68155 2.46935 0
M  V30 7401 H 707.503 0.628031 0.236259 0
M  V30 7402 H 710.047 2.04321 0.085485 0
M  V30 7403 H 708.202 3.08915 2.33775 0
M  V30 7404 H 708.616 5.06897 1.34745 0
M  V30 7405 H 710.09 4.6329 3.00111 0
M  V30 7406 H 710.567 2.95492 3.24932 0
M  V30 7407 H 711.173 3.83914 1.83002 0
M  V30 7408 N 709.488 -0.375779 1.53054 0
M  V30 7409 C 710.718 -1.1387 1.72386 0
M  V30 7410 C 711.126 -1.8382 0.447966 0
M  V30 7411 O 710.469 -1.74027 -0.588244 0
M  V30 7412 C 710.531 -2.22047 2.82728 0
M  V30 7413 C 710.195 -1.71951 4.23417 0
M  V30 7414 C 711.192 -1.18909 5.06119 0
M  V30 7415 C 708.877 -1.77773 4.69789 0
M  V30 7416 C 710.871 -0.723529 6.3328 0
M  V30 7417 C 708.558 -1.30829 5.96931 0
M  V30 7418 C 709.556 -0.782077 6.78508 0
M  V30 7419 O 709.244 -0.319529 8.03265 0
M  V30 7420 H 708.976 -0.346835 0.580242 0
M  V30 7421 H 711.53 -0.443748 2.00549 0
M  V30 7422 H 709.76 -2.95006 2.50017 0
M  V30 7423 H 711.449 -2.83654 2.90336 0
M  V30 7424 H 712.215 -1.13758 4.7147 0
M  V30 7425 H 708.094 -2.17673 4.06373 0
M  V30 7426 H 711.638 -0.312126 6.96901 0
M  V30 7427 H 707.535 -1.3567 6.31081 0
M  V30 7428 H 708.303 -0.439796 8.17318 0
M  V30 7429 N 710.966 -1.44241 -0.634997 0
M  V30 7430 C 712.215 -1.46102 -1.39058 0
M  V30 7431 C 712.528 -0.0959909 -1.95364 0
M  V30 7432 O 713.734 0.00788751 -2.71499 0
M  V30 7433 C 712.19 -2.57195 -2.51751 0
M  V30 7434 C 711.798 -3.99888 -2.01974 0
M  V30 7435 C 713.542 -2.68272 -3.28984 0
M  V30 7436 C 711.449 -5.02412 -3.11987 0
M  V30 7437 H 710.379 -0.543556 -0.522554 0
M  V30 7438 H 713.03 -1.70294 -0.683538 0
M  V30 7439 H 711.412 -2.26237 -3.25012 0
M  V30 7440 H 712.586 -4.40396 -1.35604 0
M  V30 7441 H 710.901 -3.93019 -1.37568 0
M  V30 7442 H 713.498 -3.42042 -4.10988 0
M  V30 7443 H 713.841 -1.73957 -3.78212 0
M  V30 7444 H 714.374 -2.98622 -2.62812 0
M  V30 7445 H 711.113 -5.98342 -2.67707 0
M  V30 7446 H 710.633 -4.66501 -3.77011 0
M  V30 7447 H 712.312 -5.25939 -3.76825 0
M  V30 7448 N 712.444 0.87505 -1.31075 0
M  V30 7449 C 713.392 2.00317 -1.18219 0
M  V30 7450 C 714.386 1.69152 -0.0916872 0
M  V30 7451 O 715.592 1.7821 -0.253229 0
M  V30 7452 H 711.967 0.656981 -0.365895 0
M  V30 7453 H 713.938 2.08293 -2.13674 0
M  V30 7454 C 712.687 3.35821 -0.901095 0
M  V30 7455 H 712.01 3.6032 -1.73233 0
M  V30 7456 H 713.45 4.15366 -0.851295 0
M  V30 7457 C 711.909 3.34563 0.396114 0
M  V30 7458 O 712.439 3.75971 1.41452 0
M  V30 7459 N 710.645 2.87681 0.410832 0
M  V30 7460 H 710.192 2.54179 -0.418415 0
M  V30 7461 H 710.15 2.87223 1.27869 0
M  V30 7462 N 713.922 1.13953 1.08869 0
M  V30 7463 C 714.852 0.844824 2.17681 0
M  V30 7464 C 715.833 -0.198213 1.68941 0
M  V30 7465 O 717.018 -0.0559073 1.9412 0
M  V30 7466 C 714.148 0.316325 3.45856 0
M  V30 7467 C 713.102 1.29426 4.07962 0
M  V30 7468 C 712.428 0.625275 5.31031 0
M  V30 7469 C 713.728 2.65484 4.49795 0
M  V30 7470 H 715.422 1.75471 2.42591 0
M  V30 7471 H 712.968 0.845116 1.16592 0
M  V30 7472 H 714.921 0.0977876 4.21287 0
M  V30 7473 H 713.645 -0.628972 3.20486 0
M  V30 7474 H 712.304 1.49889 3.34558 0
M  V30 7475 H 711.952 -0.325678 5.01945 0
M  V30 7476 H 711.652 1.27777 5.73539 0
M  V30 7477 H 713.176 0.416152 6.0918 0
M  V30 7478 H 714.59 2.48957 5.16424 0
M  V30 7479 H 712.987 3.26963 5.03205 0
M  V30 7480 H 714.057 3.22717 3.61914 0
M  V30 7481 N 715.4 -1.26948 0.933913 0
M  V30 7482 C 716.677 -1.89212 0.495784 0
M  V30 7483 C 717.057 -1.84469 -1.02637 0
M  V30 7484 O 716.405 -1.29409 -1.88323 0
M  V30 7485 C 716.615 -3.32865 1.0489 0
M  V30 7486 C 717.963 -4.09749 1.11315 0
M  V30 7487 O 718.987 -3.41905 0.998966 0
M  V30 7488 O 717.846 -5.31061 1.28983 0
M  V30 7489 H 714.94 -0.811284 0.160459 0
M  V30 7490 H 717.486 -1.35171 1.02601 0
M  V30 7491 H 716.258 -3.30642 2.09265 0
M  V30 7492 H 715.881 -3.94435 0.500692 0
M  V30 7493 N 716.879 -0.700114 -1.41195 0
M  V30 7494 C 717.826 -0.0376652 -2.30769 0
M  V30 7495 C 718.796 0.766544 -1.47354 0
M  V30 7496 O 719.981 0.73365 -1.76131 0
M  V30 7497 C 717.121 0.889452 -3.33441 0
M  V30 7498 C 716.234 0.076373 -4.31932 0
M  V30 7499 C 715.369 1.00155 -5.21673 0
M  V30 7500 C 714.408 0.181644 -6.1183 0
M  V30 7501 N 713.545 1.06087 -6.94039 0
M  V30 7502 H 718.385 -0.80726 -2.86858 0
M  V30 7503 H 715.922 -0.409798 -1.41277 0
M  V30 7504 H 717.88 1.44107 -3.91522 0
M  V30 7505 H 716.51 1.6254 -2.78892 0
M  V30 7506 H 715.562 -0.592223 -3.75762 0
M  V30 7507 H 716.874 -0.559076 -4.95657 0
M  V30 7508 H 716.028 1.62223 -5.8461 0
M  V30 7509 H 714.767 1.67085 -4.58186 0
M  V30 7510 H 713.772 -0.452085 -5.47938 0
M  V30 7511 H 714.997 -0.483925 -6.77374 0
M  V30 7512 H 712.943 1.7161 -6.33156 0
M  V30 7513 H 712.86 0.481094 -7.54468 0
M  V30 7514 H 714.128 1.66822 -7.6144 0
M  V30 7515 N 718.357 1.51182 -0.445186 0
M  V30 7516 C 719.32 2.26501 0.350722 0
M  V30 7517 C 720.32 1.3025 0.942952 0
M  V30 7518 O 721.51 1.53897 0.816175 0
M  V30 7519 C 718.642 3.06274 1.49697 0
M  V30 7520 H 719.835 2.98299 -0.309474 0
M  V30 7521 H 717.388 1.55034 -0.198551 0
M  V30 7522 H 718.123 2.38911 2.19299 0
M  V30 7523 H 717.908 3.76979 1.0784 0
M  V30 7524 H 719.398 3.63306 2.05909 0
M  V30 7525 N 719.835 0.176821 1.56605 0
M  V30 7526 C 721.081 -0.467406 1.9734 0
M  V30 7527 C 721.414 -1.62523 1.06301 0
M  V30 7528 O 720.689 -1.94182 0.11125 0
M  V30 7529 C 720.972 -0.945106 3.47476 0
M  V30 7530 C 720.825 0.213273 4.49294 0
M  V30 7531 C 722.144 -1.8169 4.00845 0
M  V30 7532 H 719.263 -0.168426 0.717497 0
M  V30 7533 H 721.905 0.264065 1.88156 0
M  V30 7534 H 720.055 -1.56841 3.55434 0
M  V30 7535 H 721.727 0.850508 4.53392 0
M  V30 7536 H 719.97 0.867918 4.25029 0
M  V30 7537 H 720.641 -0.163187 5.51759 0
M  V30 7538 H 723.117 -1.29139 3.95553 0
M  V30 7539 H 721.993 -2.12015 5.06301 0
M  V30 7540 H 722.254 -2.76463 3.44994 0
M  V30 7541 N 721.313 -1.57302 -0.09688 0
M  V30 7542 C 722.243 -2.0497 -1.11846 0
M  V30 7543 C 723.224 -0.938278 -1.41882 0
M  V30 7544 O 724.409 -1.20943 -1.51942 0
M  V30 7545 C 721.539 -2.47264 -2.43881 0
M  V30 7546 C 720.493 -3.62053 -2.28257 0
M  V30 7547 C 719.819 -3.90318 -3.65453 0
M  V30 7548 C 721.119 -4.93005 -1.72461 0
M  V30 7549 H 722.813 -2.90567 -0.721888 0
M  V30 7550 H 720.359 -1.39786 -0.345803 0
M  V30 7551 H 722.312 -2.7922 -3.15617 0
M  V30 7552 H 721.036 -1.58664 -2.8547 0
M  V30 7553 H 719.695 -3.30341 -1.58967 0
M  V30 7554 H 719.343 -2.98889 -4.04567 0
M  V30 7555 H 719.043 -4.67597 -3.55846 0
M  V30 7556 H 720.567 -4.24747 -4.3866 0
M  V30 7557 H 721.981 -5.23354 -2.34036 0
M  V30 7558 H 720.378 -5.74436 -1.73618 0
M  V30 7559 H 721.448 -4.80053 -0.683898 0
M  V30 7560 N 722.791 0.367657 -1.53252 0
M  V30 7561 C 724.039 1.10832 -1.68999 0
M  V30 7562 C 724.36 1.89894 -0.443306 0
M  V30 7563 O 723.63 1.88235 0.54262 0
M  V30 7564 H 722.21 0.412153 -0.623008 0
M  V30 7565 H 724.872 0.414775 -1.90435 0
M  V30 7566 H 723.968 1.7993 -2.55013 0
M  V30 7567 N 724.269 1.44576 0.627338 0
M  V30 7568 C 725.497 1.51048 1.41394 0
M  V30 7569 C 725.912 0.136568 1.88305 0
M  V30 7570 O 725.269 -0.858251 1.6106 0
M  V30 7571 C 725.32 2.47837 2.63172 0
M  V30 7572 O 725.041 3.79887 2.18215 0
M  V30 7573 C 726.542 2.63811 3.56257 0
M  V30 7574 H 723.762 0.512171 0.4335 0
M  V30 7575 H 726.306 1.89576 0.766878 0
M  V30 7576 H 724.461 2.12433 3.23961 0
M  V30 7577 H 724.875 4.32177 2.97192 0
M  V30 7578 H 726.349 3.35554 4.38301 0
M  V30 7579 H 726.826 1.69169 4.05313 0
M  V30 7580 H 727.432 3.0013 3.01333 0
M  V30 7581 N 725.747 -0.868086 1.31537 0
M  V30 7582 C 726.972 -1.65926 1.24432 0
M  V30 7583 C 727.397 -1.87169 -0.186936 0
M  V30 7584 O 726.755 -1.4148 -1.13371 0
M  V30 7585 C 726.803 -3.00347 1.9956 0
M  V30 7586 O 725.907 -3.90221 1.33422 0
M  V30 7587 H 725.248 -0.506375 0.429512 0
M  V30 7588 H 727.778 -1.0822 1.73637 0
M  V30 7589 H 727.788 -3.50269 2.09226 0
M  V30 7590 H 726.463 -2.84205 3.03645 0
M  V30 7591 H 725.04 -3.48672 1.32219 0
M  V30 7592 N 727.225 -1.14528 -1.08264 0
M  V30 7593 C 728.173 -0.829201 -2.17318 0
M  V30 7594 C 729.167 0.193521 -1.68291 0
M  V30 7595 O 730.373 0.0494744 -1.79932 0
M  V30 7596 H 726.748 -0.250435 -0.709074 0
M  V30 7597 H 728.719 -1.75683 -2.41201 0
M  V30 7598 C 727.468 -0.324663 -3.46181 0
M  V30 7599 H 726.791 -1.10299 -3.84284 0
M  V30 7600 H 728.231 -0.142059 -4.23762 0
M  V30 7601 C 726.69 0.952033 -3.23169 0
M  V30 7602 O 727.22 2.02549 -3.46896 0
M  V30 7603 N 725.426 0.887854 -2.76705 0
M  V30 7604 H 724.973 0.0141402 -2.57596 0
M  V30 7605 H 724.931 1.74263 -2.61686 0
M  V30 7606 N 728.703 1.26451 -0.940633 0
M  V30 7607 C 729.95 1.93778 -0.587909 0
M  V30 7608 C 730.278 1.73811 0.872935 0
M  V30 7609 O 729.533 1.06816 1.63978 0
M  V30 7610 C 729.832 3.46503 -0.875794 0
M  V30 7611 C 729.498 3.86609 -2.32043 0
M  V30 7612 C 728.16 3.97269 -2.71534 0
M  V30 7613 C 730.512 4.0672 -3.25927 0
M  V30 7614 C 727.84 4.25436 -4.04006 0
M  V30 7615 C 730.192 4.36375 -4.57995 0
M  V30 7616 C 728.856 4.45249 -4.97302 0
M  V30 7617 H 728.126 0.709084 -0.215131 0
M  V30 7618 H 730.773 1.50272 -1.18704 0
M  V30 7619 H 729.078 3.91319 -0.194124 0
M  V30 7620 H 730.775 3.96759 -0.581665 0
M  V30 7621 H 727.365 3.78858 -2.00411 0
M  V30 7622 H 731.549 3.97912 -2.96614 0
M  V30 7623 H 726.805 4.30519 -4.34124 0
M  V30 7624 H 730.979 4.50882 -5.30734 0
M  V30 7625 H 728.606 4.66829 -5.99979 0
M  V30 7626 N 730.181 0.707592 1.40822 0
M  V30 7627 C 731.128 0.0499029 2.30746 0
M  V30 7628 C 732.098 -0.758718 1.47759 0
M  V30 7629 O 733.283 -0.724299 1.76518 0
M  V30 7630 C 730.423 -0.871756 3.33908 0
M  V30 7631 C 729.536 -0.0534655 4.31967 0
M  V30 7632 C 728.671 -0.973869 5.22197 0
M  V30 7633 C 727.71 -0.149194 6.11918 0
M  V30 7634 N 726.847 -1.02404 6.94592 0
M  V30 7635 H 731.687 0.822461 2.86426 0
M  V30 7636 H 729.224 0.417285 1.41057 0
M  V30 7637 H 731.182 -1.42028 3.9228 0
M  V30 7638 H 729.812 -1.61058 2.7975 0
M  V30 7639 H 728.864 0.612142 3.75442 0
M  V30 7640 H 730.176 0.585354 4.95353 0
M  V30 7641 H 729.33 -1.59121 5.85462 0
M  V30 7642 H 728.069 -1.64652 4.59065 0
M  V30 7643 H 727.074 0.481137 5.47691 0
M  V30 7644 H 728.299 0.519841 6.77107 0
M  V30 7645 H 726.245 -1.6825 6.34057 0
M  V30 7646 H 726.162 -0.441076 7.54712 0
M  V30 7647 H 727.43 -1.62782 7.62314 0
M  V30 7648 N 731.66 -1.50943 0.453197 0
M  V30 7649 C 732.906 -2.02512 -0.108082 0
M  V30 7650 C 733.239 -1.33574 -1.40967 0
M  V30 7651 O 732.514 -0.455671 -1.89087 0
M  V30 7652 C 732.797 -3.58759 -0.310453 0
M  V30 7653 C 732.65 -4.38293 1.0109 0
M  V30 7654 C 733.969 -4.26816 -1.07313 0
M  V30 7655 H 731.088 -0.73603 -0.0378064 0
M  V30 7656 H 733.73 -1.80433 0.595295 0
M  V30 7657 H 731.88 -3.77702 -0.909582 0
M  V30 7658 H 733.552 -4.30964 1.64523 0
M  V30 7659 H 731.795 -4.02745 1.61179 0
M  V30 7660 H 732.466 -5.45828 0.82315 0
M  V30 7661 H 734.942 -4.1224 -0.565473 0
M  V30 7662 H 733.818 -5.35989 -1.1835 0
M  V30 7663 H 734.079 -3.88757 -2.10525 0
M  V30 7664 N 733.138 -0.185124 -1.56509 0
M  V30 7665 C 734.363 0.465278 -2.02114 0
M  V30 7666 C 734.788 1.55083 -1.06447 0
M  V30 7667 O 734.146 1.81241 -0.0462852 0
M  V30 7668 C 734.194 1.00784 -3.46229 0
M  V30 7669 O 733.298 2.12123 -3.53663 0
M  V30 7670 H 732.639 0.109891 -0.654843 0
M  V30 7671 H 735.169 -0.293072 -2.0249 0
M  V30 7672 H 735.179 1.32697 -3.85818 0
M  V30 7673 H 733.854 0.213113 -4.15354 0
M  V30 7674 H 732.431 1.8115 -3.25943 0
M  V30 7675 N 734.616 1.57351 0.0885366 0
M  V30 7676 C 735.579 2.01557 1.09121 0
M  V30 7677 C 736.579 0.910052 1.3257 0
M  V30 7678 O 737.769 1.17537 1.28572 0
M  V30 7679 C 734.901 2.38189 2.43883 0
M  V30 7680 H 736.094 2.91361 0.710562 0
M  V30 7681 H 733.647 1.52694 0.333779 0
M  V30 7682 H 734.382 1.5136 2.86811 0
M  V30 7683 H 734.167 3.18846 2.28209 0
M  V30 7684 H 735.657 2.73025 3.15986 0
M  V30 7685 N 736.094 -0.359525 1.53444 0
M  V30 7686 C 737.319 -1.12644 1.74144 0
M  V30 7687 C 737.744 -1.82082 0.472007 0
M  V30 7688 O 737.102 -1.71962 -0.57436 0
M  V30 7689 C 737.15 -2.12781 2.9113 0
M  V30 7690 O 736.254 -3.19984 2.60162 0
M  V30 7691 H 735.595 -0.326553 0.578152 0
M  V30 7692 H 738.125 -0.414798 2.00351 0
M  V30 7693 H 738.135 -2.56278 3.17467 0
M  V30 7694 H 736.81 -1.61634 3.83207 0
M  V30 7695 H 735.387 -2.81417 2.44661 0
M  V30 7696 N 737.572 -1.44907 -0.619662 0
M  V30 7697 C 738.983 -1.42905 -1.20146 0
M  V30 7698 C 739.334 -0.150341 -1.95623 0
M  V30 7699 O 738.459 0.748732 -2.03034 0
M  V30 7700 C 739.054 -2.58889 -2.18545 0
M  V30 7701 C 737.613 -2.60046 -2.72127 0
M  V30 7702 C 736.76 -2.3493 -1.4732 0
M  V30 7703 H 739.711 -1.53321 -0.409666 0
M  V30 7704 H 739.732 -2.32298 -3.0136 0
M  V30 7705 H 739.244 -3.51941 -1.63583 0
M  V30 7706 H 737.345 -1.70968 -3.3106 0
M  V30 7707 H 737.458 -3.58893 -3.17384 0
M  V30 7708 H 735.822 -1.84248 -1.75855 0
M  V30 7709 H 736.605 -3.3011 -0.942442 0
M  V30 7710 N 739.05 0.861098 -1.31996 0
M  V30 7711 C 739.98 1.98482 -1.22993 0
M  V30 7712 C 740.961 1.6971 -0.115168 0
M  V30 7713 O 742.146 1.91849 -0.30126 0
M  V30 7714 C 739.276 3.34179 -0.945615 0
M  V30 7715 C 738.23 3.77284 -2.02091 0
M  V30 7716 C 737.556 5.1054 -1.58912 0
M  V30 7717 C 738.856 3.93439 -3.43515 0
M  V30 7718 H 740.55 2.06271 -2.17008 0
M  V30 7719 H 738.096 0.991043 -1.04472 0
M  V30 7720 H 740.049 4.12338 -0.869206 0
M  V30 7721 H 738.773 3.26586 0.0301849 0
M  V30 7722 H 737.432 3.01371 -2.08737 0
M  V30 7723 H 737.08 4.99397 -0.600942 0
M  V30 7724 H 736.78 5.40352 -2.30854 0
M  V30 7725 H 738.304 5.91199 -1.52696 0
M  V30 7726 H 739.718 4.6197 -3.39495 0
M  V30 7727 H 738.115 4.34661 -4.13751 0
M  V30 7728 H 739.185 2.96548 -3.8365 0
M  V30 7729 N 740.528 1.15101 1.07655 0
M  V30 7730 C 741.458 0.867864 2.16773 0
M  V30 7731 C 742.439 -0.180283 1.69142 0
M  V30 7732 O 743.624 -0.0353152 1.94168 0
M  V30 7733 C 740.754 0.35299 3.45501 0
M  V30 7734 C 739.708 1.33746 4.06566 0
M  V30 7735 C 739.034 0.681562 5.30338 0
M  V30 7736 C 740.334 2.7024 4.46954 0
M  V30 7737 H 742.028 1.78034 2.40716 0
M  V30 7738 H 739.574 0.857435 1.15689 0
M  V30 7739 H 741.527 0.142465 4.21159 0
M  V30 7740 H 740.251 -0.594945 3.21135 0
M  V30 7741 H 738.91 1.53429 3.32949 0
M  V30 7742 H 738.558 -0.272422 5.02262 0
M  V30 7743 H 738.258 1.33853 5.72151 0
M  V30 7744 H 739.782 0.48074 6.08705 0
M  V30 7745 H 741.196 2.5442 5.13754 0
M  V30 7746 H 739.593 3.32282 4.99709 0
M  V30 7747 H 740.663 3.26537 3.58471 0
M  V30 7748 N 742.006 -1.2595 0.947325 0
M  V30 7749 C 743.236 -1.97258 0.614235 0
M  V30 7750 C 743.644 -1.70682 -0.816355 0
M  V30 7751 O 742.987 -0.97527 -1.55673 0
M  V30 7752 C 743.049 -3.50845 0.784081 0
M  V30 7753 C 742.713 -4.01084 2.19045 0
M  V30 7754 C 743.71 -4.12347 3.16648 0
M  V30 7755 C 741.395 -4.34936 2.51268 0
M  V30 7756 C 743.389 -4.56766 4.44572 0
M  V30 7757 C 741.076 -4.79043 3.79422 0
M  V30 7758 C 742.074 -4.89919 4.75887 0
M  V30 7759 O 741.762 -5.3305 6.01758 0
M  V30 7760 H 741.494 -0.635738 0.22981 0
M  V30 7761 H 744.048 -1.61268 1.27207 0
M  V30 7762 H 742.278 -3.86638 0.069101 0
M  V30 7763 H 743.967 -4.03363 0.453135 0
M  V30 7764 H 744.733 -3.86432 2.93079 0
M  V30 7765 H 740.612 -4.25702 1.76916 0
M  V30 7766 H 744.156 -4.6517 5.19868 0
M  V30 7767 H 740.053 -5.04402 4.02802 0
M  V30 7768 H 740.821 -5.51255 6.05029 0
M  V30 7769 N 743.484 -0.715051 -1.40445 0
M  V30 7770 C 744.712 -0.263959 -2.05209 0
M  V30 7771 C 745.127 1.09403 -1.53871 0
M  V30 7772 O 744.484 1.68746 -0.695064 0
M  V30 7773 C 744.535 -0.234545 -3.60738 0
M  V30 7774 O 744.256 -1.53891 -4.10182 0
M  V30 7775 C 745.757 0.235164 -4.42676 0
M  V30 7776 H 742.977 -0.11876 -0.660407 0
M  V30 7777 H 745.521 -0.973107 -1.79864 0
M  V30 7778 H 743.676 0.425563 -3.85055 0
M  V30 7779 H 744.09 -1.43903 -5.04373 0
M  V30 7780 H 745.564 0.204598 -5.51621 0
M  V30 7781 H 746.041 1.27724 -4.20218 0
M  V30 7782 H 746.647 -0.394649 -4.23465 0
M  V30 7783 N 744.962 1.50701 -0.461195 0
M  V30 7784 C 745.892 2.31182 0.328184 0
M  V30 7785 C 746.873 1.37644 0.999408 0
M  V30 7786 O 748.058 1.66565 0.99848 0
M  V30 7787 C 745.188 3.17113 1.41621 0
M  V30 7788 C 744.142 4.19124 0.867148 0
M  V30 7789 C 743.468 4.93728 2.05272 0
M  V30 7790 C 744.768 5.22174 -0.114808 0
M  V30 7791 H 746.462 2.97423 -0.343501 0
M  V30 7792 H 744.008 1.43033 -0.166641 0
M  V30 7793 H 745.961 3.72208 1.97584 0
M  V30 7794 H 744.685 2.48739 2.11652 0
M  V30 7795 H 743.344 3.65116 0.329557 0
M  V30 7796 H 742.992 4.21835 2.73978 0
M  V30 7797 H 742.692 5.62724 1.69161 0
M  V30 7798 H 744.216 5.51654 2.61744 0
M  V30 7799 H 745.63 5.72198 0.355316 0
M  V30 7800 H 744.027 5.98833 -0.389689 0
M  V30 7801 H 745.097 4.7353 -1.04391 0
M  V30 7802 N 746.441 0.193421 1.56409 0
M  V30 7803 C 747.69 -0.445995 1.96707 0
M  V30 7804 C 748.003 -1.62876 1.08309 0
M  V30 7805 O 749.209 -2.33586 1.38383 0
M  V30 7806 C 747.665 -0.844863 3.49843 0
M  V30 7807 C 747.273 0.31352 4.46902 0
M  V30 7808 C 749.017 -1.45146 3.98915 0
M  V30 7809 C 746.924 -0.106214 5.91305 0
M  V30 7810 H 745.854 -0.170398 0.734493 0
M  V30 7811 H 748.505 0.285172 1.81271 0
M  V30 7812 H 746.887 -1.63265 3.60778 0
M  V30 7813 H 748.061 1.09103 4.47698 0
M  V30 7814 H 746.376 0.8315 4.08014 0
M  V30 7815 H 748.973 -1.77792 5.04276 0
M  V30 7816 H 749.316 -2.35734 3.43126 0
M  V30 7817 H 749.849 -0.727675 3.91088 0
M  V30 7818 H 746.588 0.765442 6.51016 0
M  V30 7819 H 746.108 -0.848623 5.93766 0
M  V30 7820 H 747.787 -0.542588 6.44721 0
M  V30 7821 N 747.919 -1.57396 -0.0801906 0
M  V30 7822 C 748.829 -2.06451 -1.11423 0
M  V30 7823 C 749.845 -0.992352 -1.42928 0
M  V30 7824 O 751.021 -1.30651 -1.53272 0
M  V30 7825 C 748.086 -2.49164 -2.41077 0
M  V30 7826 C 747.147 -3.70641 -2.16619 0
M  V30 7827 C 746.38 -4.11307 -3.40092 0
M  V30 7828 O 746.603 -3.51922 -4.48895 0
M  V30 7829 O 745.537 -5.04157 -3.288 0
M  V30 7830 H 749.363 -2.94857 -0.727519 0
M  V30 7831 H 746.948 -1.46484 -0.293743 0
M  V30 7832 H 748.83 -2.77196 -3.17396 0
M  V30 7833 H 747.505 -1.6389 -2.79145 0
M  V30 7834 H 746.412 -3.47703 -1.38033 0
M  V30 7835 H 747.745 -4.5674 -1.83437 0
M  V30 7836 N 749.397 0.351382 -1.53633 0
M  V30 7837 C 750.344 1.43115 -1.81071 0
M  V30 7838 C 751.314 1.52601 -0.655913 0
M  V30 7839 O 752.499 1.68264 -0.89955 0
M  V30 7840 C 749.639 2.79874 -2.01903 0
M  V30 7841 C 748.752 2.79242 -3.29618 0
M  V30 7842 C 747.887 4.07667 -3.40559 0
M  V30 7843 C 746.926 4.01233 -4.62254 0
M  V30 7844 N 746.063 5.21334 -4.70271 0
M  V30 7845 H 750.903 1.19017 -2.73201 0
M  V30 7846 H 748.44 0.576691 -1.35324 0
M  V30 7847 H 750.398 3.5934 -2.11969 0
M  V30 7848 H 749.028 3.0234 -1.13094 0
M  V30 7849 H 748.08 1.91927 -3.28433 0
M  V30 7850 H 749.392 2.70363 -4.19172 0
M  V30 7851 H 748.546 4.95555 -3.50015 0
M  V30 7852 H 747.285 4.19317 -2.49047 0
M  V30 7853 H 746.29 3.11732 -4.52884 0
M  V30 7854 H 747.515 3.91173 -5.55122 0
M  V30 7855 H 745.461 5.33543 -3.81665 0
M  V30 7856 H 745.378 5.14681 -5.5375 0
M  V30 7857 H 746.646 6.11014 -4.84027 0
M  V30 7858 N 750.875 1.45233 0.611969 0
M  V30 7859 C 752.103 1.52539 1.39784 0
M  V30 7860 C 752.518 0.156533 1.8815 0
M  V30 7861 O 751.875 -0.84112 1.61961 0
M  V30 7862 C 751.926 2.50614 2.60528 0
M  V30 7863 O 751.647 3.8218 2.14173 0
M  V30 7864 C 753.148 2.67574 3.53439 0
M  V30 7865 H 750.368 0.51674 0.428043 0
M  V30 7866 H 752.912 1.90379 0.746727 0
M  V30 7867 H 751.067 2.15858 3.2169 0
M  V30 7868 H 751.481 4.35305 2.92592 0
M  V30 7869 H 752.955 3.40184 4.34717 0
M  V30 7870 H 753.432 1.73458 4.03496 0
M  V30 7871 H 754.038 3.0331 2.98133 0
M  V30 7872 N 752.353 -0.854086 1.3245 0
M  V30 7873 C 753.286 -1.96654 1.15768 0
M  V30 7874 C 754.264 -1.625 0.0569975 0
M  V30 7875 O 755.448 -1.87254 0.216412 0
M  V30 7876 C 752.575 -3.29776 0.772361 0
M  V30 7877 C 751.621 -3.82909 1.87837 0
M  V30 7878 S 752.454 -4.0643 3.48675 0
M  V30 7879 C 753.61 -5.42526 3.12116 0
M  V30 7880 H 753.843 -2.10504 2.09942 0
M  V30 7881 H 751.376 -1.00612 1.17118 0
M  V30 7882 H 753.334 -4.06706 0.556809 0
M  V30 7883 H 751.995 -3.13739 -0.150519 0
M  V30 7884 H 751.188 -4.79192 1.56177 0
M  V30 7885 H 750.79 -3.12825 2.0498 0
M  V30 7886 H 753.082 -6.24792 2.61996 0
M  V30 7887 H 754.025 -5.79148 4.07422 0
M  V30 7888 H 754.433 -5.06556 2.49121 0
M  V30 7889 N 753.831 -1.1567 -1.07043 0
M  V30 7890 C 754.763 -0.814095 -2.14255 0
M  V30 7891 C 755.776 0.175293 -1.61854 0
M  V30 7892 O 756.965 -0.0483984 -1.78434 0
M  V30 7893 C 754.065 -0.190082 -3.38367 0
M  V30 7894 C 753.238 -1.21768 -4.20109 0
M  V30 7895 C 752.297 -0.614863 -5.22595 0
M  V30 7896 O 751.323 -1.28167 -5.54583 0
M  V30 7897 N 752.525 0.601955 -5.77371 0
M  V30 7898 H 755.29 -1.73677 -2.44247 0
M  V30 7899 H 752.851 -1.05301 -1.22977 0
M  V30 7900 H 754.843 0.22604 -4.04068 0
M  V30 7901 H 753.413 0.635992 -3.06062 0
M  V30 7902 H 752.633 -1.81025 -3.50177 0
M  V30 7903 H 753.921 -1.9114 -4.71533 0
M  V30 7904 H 753.319 1.162 -5.53637 0
M  V30 7905 H 751.876 0.96039 -6.44686 0
M  V30 7906 N 755.309 1.25446 -0.953992 0
M  V30 7907 C 756.257 2.27909 -0.46478 0
M  V30 7908 C 757.251 1.62904 0.464607 0
M  V30 7909 O 758.457 1.76733 0.341407 0
M  V30 7910 H 754.832 0.74036 -0.131798 0
M  V30 7911 H 756.803 2.66559 -1.34122 0
M  V30 7912 C 755.552 3.46853 0.242589 0
M  V30 7913 H 754.875 3.97105 -0.463418 0
M  V30 7914 H 756.315 4.20432 0.548919 0
M  V30 7915 C 754.774 3.03386 1.46487 0
M  V30 7916 O 755.304 3.09342 2.56262 0
M  V30 7917 N 753.51 2.58584 1.32599 0
M  V30 7918 H 753.057 2.53938 0.432834 0
M  V30 7919 H 753.015 2.29866 2.14497 0
M  V30 7920 N 756.787 0.722489 1.40064 0
M  V30 7921 C 758.033 0.265371 2.01056 0
M  V30 7922 C 758.366 -1.14062 1.57174 0
M  V30 7923 O 757.641 -1.77514 0.794916 0
M  V30 7924 C 757.924 0.353157 3.58364 0
M  V30 7925 C 757.777 1.79802 4.123 0
M  V30 7926 C 759.096 -0.271677 4.39261 0
M  V30 7927 H 756.215 0.0979002 0.730469 0
M  V30 7928 H 758.857 0.916289 1.66446 0
M  V30 7929 H 757.007 -0.201037 3.87979 0
M  V30 7930 H 758.679 2.40813 3.93455 0
M  V30 7931 H 756.922 2.32348 3.66329 0
M  V30 7932 H 757.593 1.81079 5.21454 0
M  V30 7933 H 760.069 0.200607 4.15616 0
M  V30 7934 H 758.945 -0.179843 5.48605 0
M  V30 7935 H 759.206 -1.35611 4.20787 0
M  V30 7936 N 758.265 -1.50454 0.469181 0
M  V30 7937 C 759.212 -2.28486 -0.325982 0
M  V30 7938 C 760.182 -1.33455 -0.988893 0
M  V30 7939 O 761.367 -1.6239 -1.0017 0
M  V30 7940 C 758.507 -3.15288 -1.40313 0
M  V30 7941 C 757.62 -4.25348 -0.755183 0
M  V30 7942 C 756.755 -4.9941 -1.81006 0
M  V30 7943 C 755.794 -6.01348 -1.14226 0
M  V30 7944 N 754.931 -6.68695 -2.1399 0
M  V30 7945 H 759.771 -2.95987 0.345753 0
M  V30 7946 H 757.308 -1.45965 0.182355 0
M  V30 7947 H 759.266 -3.63964 -2.03927 0
M  V30 7948 H 757.896 -2.49837 -2.04405 0
M  V30 7949 H 756.948 -3.80399 -0.00651901 0
M  V30 7950 H 758.26 -4.98279 -0.227941 0
M  V30 7951 H 757.414 -5.51794 -2.52206 0
M  V30 7952 H 756.153 -4.26181 -2.3711 0
M  V30 7953 H 755.158 -5.48225 -0.415876 0
M  V30 7954 H 756.383 -6.76548 -0.588135 0
M  V30 7955 H 754.329 -5.98258 -2.69115 0
M  V30 7956 H 754.246 -7.37495 -1.66246 0
M  V30 7957 H 755.514 -7.25697 -2.84576 0
M  V30 7958 N 759.743 -0.201713 -1.56304 0
M  V30 7959 C 760.693 0.729444 -2.16016 0
M  V30 7960 C 761.677 1.17164 -1.10279 0
M  V30 7961 O 762.869 1.12893 -1.36324 0
M  V30 7962 C 759.998 1.94594 -2.82822 0
M  V30 7963 C 759.084 1.52434 -3.95758 0
M  V30 7964 N 759.475 0.814106 -4.99205 0
M  V30 7965 C 757.773 1.81314 -4.07481 0
M  V30 7966 C 758.474 0.601896 -5.78578 0
M  V30 7967 N 757.45 1.15263 -5.3124 0
M  V30 7968 H 761.252 0.178163 -2.93359 0
M  V30 7969 H 758.766 -0.00218038 -1.624 0
M  V30 7970 H 760.763 2.62357 -3.23998 0
M  V30 7971 H 759.423 2.50188 -2.06969 0
M  V30 7972 H 760.434 0.468872 -5.15773 0
M  V30 7973 H 757.111 2.3837 -3.42762 0
M  V30 7974 H 758.501 0.0380119 -6.71889 0
M  V30 7975 N 761.222 1.57436 0.0718424 0
M  V30 7976 C 762.633 1.75975 0.623678 0
M  V30 7977 C 762.984 0.827155 1.77912 0
M  V30 7978 O 762.109 0.0112425 2.16397 0
M  V30 7979 C 762.704 3.1911 1.13816 0
M  V30 7980 C 761.263 3.38994 1.63586 0
M  V30 7981 C 760.41 2.71684 0.555261 0
M  V30 7982 H 763.361 1.57948 -0.154328 0
M  V30 7983 H 763.382 3.23267 2.00696 0
M  V30 7984 H 762.894 3.86962 0.296998 0
M  V30 7985 H 760.995 2.76256 2.50027 0
M  V30 7986 H 761.108 4.47436 1.71283 0
M  V30 7987 H 759.472 2.34236 1.00029 0
M  V30 7988 H 760.255 3.42191 -0.275712 0
M  V30 7989 N 762.7 -0.34323 1.53817 0
M  V30 7990 C 763.946 -1.08504 1.71332 0
M  V30 7991 C 764.279 -1.88294 0.475285 0
M  V30 7992 O 763.554 -1.87205 -0.527688 0
M  V30 7993 C 763.837 -2.02597 2.97702 0
M  V30 7994 C 763.69 -1.26268 4.31713 0
M  V30 7995 C 765.009 -3.0241 3.19744 0
M  V30 7996 H 762.128 -0.393072 0.623429 0
M  V30 7997 H 764.77 -0.363579 1.86489 0
M  V30 7998 H 762.92 -2.64118 2.8491 0
M  V30 7999 H 764.592 -0.673594 4.56356 0
M  V30 8000 H 762.835 -0.564696 4.30109 0
M  V30 8001 H 763.506 -1.95253 5.16314 0
M  V30 8002 H 765.982 -2.51004 3.31868 0
M  V30 8003 H 764.858 -3.65449 4.09558 0
M  V30 8004 H 765.119 -3.73806 2.36054 0
M  V30 8005 N 764.178 -1.45556 -0.604258 0
M  V30 8006 C 765.406 -1.53278 -1.38973 0
M  V30 8007 C 765.821 -0.166509 -1.88064 0
M  V30 8008 O 765.178 0.832519 -1.62405 0
M  V30 8009 C 765.229 -2.51992 -2.59195 0
M  V30 8010 O 764.95 -3.8331 -2.12143 0
M  V30 8011 C 766.451 -2.69445 -3.52015 0
M  V30 8012 H 763.671 -0.519003 -0.425297 0
M  V30 8013 H 766.215 -1.90773 -0.736621 0
M  V30 8014 H 764.37 -2.17561 -3.2054 0
M  V30 8015 H 764.784 -4.3685 -2.90279 0
M  V30 8016 H 766.258 -3.42485 -4.32907 0
M  V30 8017 H 766.735 -1.75596 -4.0257 0
M  V30 8018 H 767.341 -3.04886 -2.9652 0
M  V30 8019 N 765.656 0.84705 -1.32902 0
M  V30 8020 C 766.904 1.5986 -1.2365 0
M  V30 8021 C 767.225 1.93974 0.199789 0
M  V30 8022 O 766.495 1.60273 1.12648 0
M  V30 8023 H 765.075 0.592696 -0.454665 0
M  V30 8024 H 767.737 1.01278 -1.66519 0
M  V30 8025 H 766.833 2.53218 -1.82448 0
M  V30 8026 N 767.134 1.16236 1.06428 0
M  V30 8027 C 768.066 0.825446 2.1382 0
M  V30 8028 C 769.079 -0.166707 1.61944 0
M  V30 8029 O 770.268 0.0578606 1.78406 0
M  V30 8030 C 767.368 0.208023 3.38261 0
M  V30 8031 C 766.541 1.23994 4.19457 0
M  V30 8032 C 765.6 0.642569 5.22262 0
M  V30 8033 O 764.626 1.31106 5.53895 0
M  V30 8034 N 765.828 -0.571327 5.77682 0
M  V30 8035 H 768.593 1.7497 2.43322 0
M  V30 8036 H 766.154 1.05951 1.22417 0
M  V30 8037 H 768.146 -0.204608 4.04182 0
M  V30 8038 H 766.716 -0.619752 3.06395 0
M  V30 8039 H 765.936 1.82879 3.49212 0
M  V30 8040 H 767.224 1.93638 4.70512 0
M  V30 8041 H 766.622 -1.13263 5.54245 0
M  V30 8042 H 765.179 -0.926187 6.45186 0
M  V30 8043 N 768.612 -1.24939 0.960631 0
M  V30 8044 C 769.859 -1.92818 0.618663 0
M  V30 8045 C 770.187 -1.75177 -0.845173 0
M  V30 8046 O 769.442 -1.09412 -1.62258 0
M  V30 8047 C 769.741 -3.45066 0.930809 0
M  V30 8048 C 769.407 -3.82869 2.38164 0
M  V30 8049 C 768.069 -3.92899 2.7782 0
M  V30 8050 C 770.421 -4.01483 3.32356 0
M  V30 8051 C 767.749 -4.18955 4.10723 0
M  V30 8052 C 770.101 -4.29033 4.6488 0
M  V30 8053 C 768.765 -4.37282 5.04322 0
M  V30 8054 H 768.035 -0.705571 0.226385 0
M  V30 8055 H 770.682 -1.48365 1.21079 0
M  V30 8056 H 768.987 -3.9096 0.256355 0
M  V30 8057 H 770.684 -3.95783 0.644712 0
M  V30 8058 H 767.274 -3.75622 2.06413 0
M  V30 8059 H 771.458 -3.93143 3.02907 0
M  V30 8060 H 766.714 -4.23558 4.40918 0
M  V30 8061 H 770.888 -4.42381 5.3784 0
M  V30 8062 H 768.515 -4.57225 6.0733 0
M  V30 8063 N 770.09 -0.729906 -1.39679 0
M  V30 8064 C 771.02 -0.101618 -2.33279 0
M  V30 8065 C 772.001 0.729854 -1.53646 0
M  V30 8066 O 773.186 0.67587 -1.82059 0
M  V30 8067 C 770.316 0.81024 -3.37716 0
M  V30 8068 C 769.27 0.0833126 -4.27919 0
M  V30 8069 C 768.596 1.11185 -5.23012 0
M  V30 8070 C 769.896 -1.07107 -5.112 0
M  V30 8071 H 771.59 -0.883452 -2.86069 0
M  V30 8072 H 769.136 -0.426283 -1.37546 0
M  V30 8073 H 771.089 1.25927 -4.02145 0
M  V30 8074 H 769.813 1.62413 -2.83354 0
M  V30 8075 H 768.472 -0.346043 -3.64963 0
M  V30 8076 H 768.12 1.91917 -4.64948 0
M  V30 8077 H 767.82 0.63026 -5.8421 0
M  V30 8078 H 769.344 1.56068 -5.90318 0
M  V30 8079 H 770.758 -0.700726 -5.69002 0
M  V30 8080 H 769.155 -1.48196 -5.81514 0
M  V30 8081 H 770.225 -1.89513 -4.46332 0
M  V30 8082 N 771.568 1.50203 -0.477153 0
M  V30 8083 C 772.798 2.0647 0.0731427 0
M  V30 8084 C 773.206 1.3405 1.33518 0
M  V30 8085 O 772.549 0.405164 1.79176 0
M  V30 8086 C 772.611 3.57025 0.421121 0
M  V30 8087 C 772.275 4.50973 -0.739765 0
M  V30 8088 C 773.272 4.939 -1.62353 0
M  V30 8089 C 770.957 4.93581 -0.93181 0
M  V30 8090 C 772.951 5.78149 -2.6837 0
M  V30 8091 C 770.638 5.77612 -1.99519 0
M  V30 8092 C 771.636 6.19798 -2.86949 0
M  V30 8093 O 771.324 7.02152 -3.91456 0
M  V30 8094 H 771.056 0.675969 -0.00648243 0
M  V30 8095 H 773.61 1.94278 -0.66673 0
M  V30 8096 H 771.84 3.67141 1.21426 0
M  V30 8097 H 773.529 3.95632 0.907213 0
M  V30 8098 H 774.295 4.61646 -1.48687 0
M  V30 8099 H 770.174 4.60262 -0.260739 0
M  V30 8100 H 773.718 6.10997 -3.36643 0
M  V30 8101 H 769.615 6.09279 -2.13189 0
M  V30 8102 H 770.383 7.20414 -3.88518 0
M  V30 8103 N 773.046 0.209999 1.56195 0
M  V30 8104 C 773.978 -0.736967 2.17029 0
M  V30 8105 C 774.991 -1.16599 1.13616 0
M  V30 8106 O 776.18 -1.09914 1.40646 0
M  V30 8107 C 773.28 -2.00852 2.72969 0
M  V30 8108 C 772.453 -1.73691 4.01435 0
M  V30 8109 C 771.512 -2.85439 4.42053 0
M  V30 8110 O 770.538 -2.54405 5.09183 0
M  V30 8111 N 771.74 -4.14135 4.06783 0
M  V30 8112 H 774.505 -0.216656 2.98916 0
M  V30 8113 H 772.066 0.0285672 1.61875 0
M  V30 8114 H 774.058 -2.74778 2.97118 0
M  V30 8115 H 772.628 -2.43963 1.95451 0
M  V30 8116 H 771.848 -0.834676 3.85262 0
M  V30 8117 H 773.136 -1.52961 4.85263 0
M  V30 8118 H 772.534 -4.42196 3.52816 0
M  V30 8119 H 771.091 -4.84642 4.35851 0
M  V30 8120 N 774.524 -1.57472 -0.0634922 0
M  V30 8121 C 775.801 -1.78736 -0.794538 0
M  V30 8122 C 776.181 -0.799645 -1.95369 0
M  V30 8123 O 775.529 0.165521 -2.279 0
M  V30 8124 C 775.739 -3.25471 -1.25975 0
M  V30 8125 C 777.087 -3.89528 -1.68976 0
M  V30 8126 O 778.111 -3.29412 -1.35521 0
M  V30 8127 O 776.97 -4.95305 -2.30944 0
M  V30 8128 H 774.064 -0.733813 -0.381376 0
M  V30 8129 H 776.61 -1.69646 -0.0429258 0
M  V30 8130 H 775.382 -3.88922 -0.430721 0
M  V30 8131 H 775.005 -3.39317 -2.07243 0
M  V30 8132 N 776.003 0.335068 -1.53997 0
M  V30 8133 C 777.228 1.09859 -1.75914 0
M  V30 8134 C 777.653 1.81308 -0.500915 0
M  V30 8135 O 777.011 1.72854 0.54693 0
M  V30 8136 C 777.059 2.08122 -2.94478 0
M  V30 8137 O 776.163 3.15805 -2.65219 0
M  V30 8138 H 775.504 0.317313 -0.583274 0
M  V30 8139 H 778.034 0.382872 -2.00986 0
M  V30 8140 H 778.044 2.51195 -3.21504 0
M  V30 8141 H 776.719 1.55517 -3.8573 0
M  V30 8142 H 775.296 2.77489 -2.49107 0
M  V30 8143 N 777.481 1.45874 0.596531 0
M  V30 8144 C 778.429 1.55739 1.72766 0
M  V30 8145 C 779.423 0.426666 1.63939 0
M  V30 8146 O 780.629 0.60301 1.69599 0
M  V30 8147 H 777.004 0.489386 0.570968 0
M  V30 8148 H 778.975 2.50871 1.61575 0
M  V30 8149 C 777.724 1.55174 3.11153 0
M  V30 8150 H 777.047 2.41511 3.1861 0
M  V30 8151 H 778.487 1.66133 3.90097 0
M  V30 8152 C 776.946 0.278001 3.35751 0
M  V30 8153 O 777.476 -0.637557 3.96608 0
M  V30 8154 N 775.682 0.170227 2.90101 0
M  V30 8155 H 775.229 0.916159 2.40758 0
M  V30 8156 H 775.187 -0.68117 3.06932 0
M  V30 8157 N 778.959 -0.83999 1.33349 0
M  V30 8158 C 780.205 -1.59724 1.25936 0
M  V30 8159 C 780.56 -1.91616 -0.173563 0
M  V30 8160 O 779.853 -1.55791 -1.11534 0
M  V30 8161 C 780.047 -2.91571 2.06691 0
M  V30 8162 C 779.876 -2.72556 3.57691 0
M  V30 8163 C 778.646 -2.70174 4.27006 0
M  V30 8164 C 780.844 -2.45272 4.52047 0
M  V30 8165 N 778.826 -2.42525 5.63964 0
M  V30 8166 C 780.197 -2.27163 5.76885 0
M  V30 8167 C 782.252 -2.30859 4.41144 0
M  V30 8168 C 780.955 -1.96105 6.92052 0
M  V30 8169 C 782.981 -2.01194 5.56125 0
M  V30 8170 C 782.343 -1.83897 6.79972 0
M  V30 8171 H 778.442 -0.587568 0.516031 0
M  V30 8172 H 781.026 -0.986169 1.67877 0
M  V30 8173 H 779.197 -3.5063 1.67073 0
M  V30 8174 H 780.929 -3.56762 1.91057 0
M  V30 8175 H 777.684 -2.8364 3.7927 0
M  V30 8176 H 778.108 -2.31588 6.36157 0
M  V30 8177 H 782.75 -2.42946 3.46031 0
M  V30 8178 H 780.468 -1.82756 7.87163 0
M  V30 8179 H 784.054 -1.90799 5.49624 0
M  V30 8180 H 782.934 -1.61271 7.67438 0
M  V30 8181 N 780.437 -1.16799 -1.0581 0
M  V30 8182 C 781.4 -0.881396 -2.11575 0
M  V30 8183 C 782.4 0.12574 -1.60308 0
M  V30 8184 O 783.59 -0.105716 -1.73879 0
M  V30 8185 C 780.722 -0.319037 -3.39404 0
M  V30 8186 H 781.915 -1.81907 -2.38432 0
M  V30 8187 H 779.468 -0.977597 -1.21954 0
M  V30 8188 H 780.203 0.626082 -3.18199 0
M  V30 8189 H 779.988 -1.04481 -3.77923 0
M  V30 8190 H 781.478 -0.13663 -4.17376 0
M  V30 8191 N 781.915 1.24427 -0.967243 0
M  V30 8192 C 783.14 1.9708 -0.646069 0
M  V30 8193 C 783.565 1.71272 0.777665 0
M  V30 8194 O 782.923 0.976179 1.52776 0
M  V30 8195 C 782.971 3.48501 -0.926266 0
M  V30 8196 O 782.075 4.12398 -0.0114653 0
M  V30 8197 H 781.416 0.617423 -0.244304 0
M  V30 8198 H 783.946 1.58215 -1.29727 0
M  V30 8199 H 783.956 3.98885 -0.857619 0
M  V30 8200 H 782.631 3.66613 -1.96386 0
M  V30 8201 H 781.208 3.72661 -0.133396 0
M  V30 8202 N 783.393 0.737304 1.3929 0
M  V30 8203 C 784.34 0.0988364 2.30588 0
M  V30 8204 C 785.31 -0.727206 1.49335 0
M  V30 8205 O 786.495 -0.686694 1.78014 0
M  V30 8206 C 783.635 -0.800734 3.35682 0
M  V30 8207 C 782.748 0.0381731 4.31983 0
M  V30 8208 C 781.883 -0.862884 5.24145 0
M  V30 8209 C 780.922 -0.0193639 6.12097 0
M  V30 8210 N 780.059 -0.87648 6.96608 0
M  V30 8211 H 784.899 0.883031 2.84617 0
M  V30 8212 H 782.436 0.447111 1.4014 0
M  V30 8213 H 784.394 -1.33676 3.95205 0
M  V30 8214 H 783.024 -1.55088 2.83103 0
M  V30 8215 H 782.076 0.691641 3.74059 0
M  V30 8216 H 783.388 0.690294 4.94 0
M  V30 8217 H 782.542 -1.46667 5.88705 0
M  V30 8218 H 781.281 -1.54878 4.62454 0
M  V30 8219 H 780.286 0.597202 5.46547 0
M  V30 8220 H 781.511 0.663348 6.75852 0
M  V30 8221 H 779.457 -1.54762 6.37483 0
M  V30 8222 H 779.374 -0.280892 7.55478 0
M  V30 8223 H 780.642 -1.46575 7.65595 0
M  V30 8224 N 784.871 -1.49948 0.485112 0
M  V30 8225 C 786.117 -2.02695 -0.0651022 0
M  V30 8226 C 786.45 -1.36534 -1.38102 0
M  V30 8227 O 785.725 -0.495677 -1.88078 0
M  V30 8228 C 786.008 -3.59337 -0.234285 0
M  V30 8229 C 785.861 -4.3605 1.10364 0
M  V30 8230 C 787.18 -4.28996 -0.982351 0
M  V30 8231 H 784.299 -0.736666 -0.0221856 0
M  V30 8232 H 786.941 -1.7913 0.633433 0
M  V30 8233 H 785.091 -3.79546 -0.829262 0
M  V30 8234 H 786.763 -4.27377 1.73627 0
M  V30 8235 H 785.006 -3.99236 1.69686 0
M  V30 8236 H 785.677 -5.43959 0.938743 0
M  V30 8237 H 788.153 -4.13346 -0.477904 0
M  V30 8238 H 787.029 -5.38379 -1.06955 0
M  V30 8239 H 787.29 -3.93135 -2.02231 0
M  V30 8240 N 786.349 -0.21828 -1.56081 0
M  V30 8241 C 787.259 0.704602 -2.23769 0
M  V30 8242 C 788.275 1.21633 -1.24425 0
M  V30 8243 O 789.451 1.25862 -1.57228 0
M  V30 8244 C 786.516 1.89725 -2.90182 0
M  V30 8245 C 785.577 1.42782 -4.0486 0
M  V30 8246 C 784.81 2.56361 -4.68097 0
M  V30 8247 O 785.033 3.74417 -4.30312 0
M  V30 8248 O 783.967 2.2775 -5.57148 0
M  V30 8249 H 787.793 0.158007 -3.03289 0
M  V30 8250 H 785.378 0.0120279 -1.49395 0
M  V30 8251 H 787.26 2.59382 -3.32113 0
M  V30 8252 H 785.935 2.432 -2.13624 0
M  V30 8253 H 784.842 0.699359 -3.67505 0
M  V30 8254 H 786.175 0.939474 -4.83151 0
M  V30 8255 N 787.827 1.57504 0.0551401 0
M  V30 8256 C 788.774 2.04825 1.06373 0
M  V30 8257 C 789.744 0.932108 1.37481 0
M  V30 8258 O 790.929 1.20093 1.48265 0
M  V30 8259 C 788.069 2.51091 2.36743 0
M  V30 8260 C 787.182 3.76392 2.12021 0
M  V30 8261 C 786.317 4.11373 3.36074 0
M  V30 8262 C 785.356 5.29666 3.0679 0
M  V30 8263 N 784.493 5.60205 4.2322 0
M  V30 8264 H 789.333 2.90753 0.653216 0
M  V30 8265 H 786.87 1.43776 0.310951 0
M  V30 8266 H 788.828 2.75973 3.12881 0
M  V30 8267 H 787.458 1.68118 2.75565 0
M  V30 8268 H 786.51 3.58751 1.26498 0
M  V30 8269 H 787.822 4.62662 1.86401 0
M  V30 8270 H 786.976 4.37245 4.20597 0
M  V30 8271 H 785.715 3.23704 3.64784 0
M  V30 8272 H 784.72 5.03574 2.20664 0
M  V30 8273 H 785.945 6.18968 2.79385 0
M  V30 8274 H 783.891 4.75495 4.5193 0
M  V30 8275 H 783.808 6.40928 4.00933 0
M  V30 8276 H 785.076 5.90637 5.08692 0
M  V30 8277 N 789.305 -0.326896 1.54172 0
M  V30 8278 C 790.235 -1.40741 1.86317 0
M  V30 8279 C 791.216 -1.54125 0.719684 0
M  V30 8280 O 792.401 -1.6806 0.973117 0
M  V30 8281 C 789.531 -2.77557 2.08757 0
M  V30 8282 C 788.485 -2.78965 3.24596 0
M  V30 8283 C 787.811 -4.18824 3.32401 0
M  V30 8284 C 789.111 -2.4301 4.62324 0
M  V30 8285 H 790.805 -1.14088 2.76811 0
M  V30 8286 H 788.351 -0.547389 1.3319 0
M  V30 8287 H 790.304 -3.53209 2.29829 0
M  V30 8288 H 789.028 -3.0568 1.15009 0
M  V30 8289 H 787.687 -2.05767 3.03406 0
M  V30 8290 H 787.335 -4.44083 2.36218 0
M  V30 8291 H 787.035 -4.20673 4.10253 0
M  V30 8292 H 788.559 -4.96294 3.55703 0
M  V30 8293 H 789.973 -3.08375 4.83299 0
M  V30 8294 H 788.37 -2.56116 5.42701 0
M  V30 8295 H 789.44 -1.38165 4.64799 0
M  V30 8296 N 790.784 -1.46188 -0.588786 0
M  V30 8297 C 792.012 -1.54743 -1.37339 0
M  V30 8298 C 792.427 -0.186446 -1.87877 0
M  V30 8299 O 791.784 0.815247 -1.63279 0
M  V30 8300 C 791.835 -2.54727 -2.56508 0
M  V30 8301 O 791.556 -3.85539 -2.08066 0
M  V30 8302 C 793.057 -2.73163 -3.49137 0
M  V30 8303 H 790.277 -0.523484 -0.419768 0
M  V30 8304 H 792.821 -1.91543 -0.716345 0
M  V30 8305 H 790.976 -2.20948 -3.18215 0
M  V30 8306 H 791.39 -4.39905 -2.85629 0
M  V30 8307 H 792.864 -3.47057 -4.2925 0
M  V30 8308 H 793.341 -1.79856 -4.00685 0
M  V30 8309 H 793.947 -3.08014 -2.9327 0
M  V30 8310 N 792.262 0.832906 -1.33792 0
M  V30 8311 C 793.192 1.95828 -1.27176 0
M  V30 8312 C 794.173 1.69427 -0.15114 0
M  V30 8313 O 795.358 1.91167 -0.341886 0
M  V30 8314 C 792.488 3.32098 -1.01629 0
M  V30 8315 C 791.442 3.72912 -2.10049 0
M  V30 8316 C 790.768 5.07054 -1.69706 0
M  V30 8317 C 792.068 3.86064 -3.51783 0
M  V30 8318 H 793.762 2.01622 -2.21334 0
M  V30 8319 H 791.308 0.96866 -1.0655 0
M  V30 8320 H 793.261 4.10402 -0.956474 0
M  V30 8321 H 791.985 3.26577 -0.0390956 0
M  V30 8322 H 790.644 2.96876 -2.15082 0
M  V30 8323 H 790.292 4.9801 -0.706737 0
M  V30 8324 H 789.992 5.35333 -2.42264 0
M  V30 8325 H 791.516 5.87827 -1.65202 0
M  V30 8326 H 792.93 4.54665 -3.49218 0
M  V30 8327 H 791.327 4.25787 -4.22878 0
M  V30 8328 H 792.397 2.88344 -3.89854 0
M  V30 8329 N 793.74 1.17359 1.05189 0
M  V30 8330 C 795.017 0.871914 1.75091 0
M  V30 8331 C 795.397 -0.627821 2.01548 0
M  V30 8332 O 794.745 -1.5791 1.65156 0
M  V30 8333 C 794.955 1.70687 3.04413 0
M  V30 8334 C 796.303 1.92684 3.78362 0
M  V30 8335 O 797.327 1.67645 3.14282 0
M  V30 8336 O 796.186 2.34765 4.93505 0
M  V30 8337 H 793.28 0.322831 0.761386 0
M  V30 8338 H 795.826 1.28054 1.11357 0
M  V30 8339 H 794.598 2.72405 2.80911 0
M  V30 8340 H 794.221 1.29602 3.75884 0
M  V30 8341 N 795.218 -1.23913 0.973828 0
M  V30 8342 C 796.166 -2.27141 0.50098 0
M  V30 8343 C 797.16 -1.63623 -0.438631 0
M  V30 8344 O 798.366 -1.77253 -0.313247 0
M  V30 8345 H 794.741 -0.73817 0.14356 0
M  V30 8346 H 796.712 -2.64392 1.38346 0
M  V30 8347 C 795.461 -3.47195 -0.187377 0
M  V30 8348 H 794.784 -3.96318 0.526535 0
M  V30 8349 H 796.224 -4.21252 -0.481962 0
M  V30 8350 C 794.683 -3.05678 -1.41642 0
M  V30 8351 O 795.213 -3.1338 -2.51309 0
M  V30 8352 N 793.419 -2.60661 -1.28469 0
M  V30 8353 H 792.966 -2.54594 -0.39238 0
M  V30 8354 H 792.924 -2.33249 -2.10813 0
M  V30 8355 N 796.696 -0.74468 -1.38897 0
M  V30 8356 C 797.659 -0.11945 -2.28889 0
M  V30 8357 C 798.659 0.656942 -1.46768 0
M  V30 8358 O 799.849 0.484525 -1.67326 0
M  V30 8359 C 796.981 0.839635 -3.30398 0
M  V30 8360 H 798.174 -0.912414 -2.85683 0
M  V30 8361 H 795.727 -0.511119 -1.47707 0
M  V30 8362 H 796.462 1.6586 -2.78677 0
M  V30 8363 H 796.247 0.285432 -3.9106 0
M  V30 8364 H 797.737 1.27337 -3.97712 0
M  V30 8365 N 798.174 1.49689 -0.493057 0
M  V30 8366 C 799.137 2.27502 0.278485 0
M  V30 8367 C 800.137 1.33184 0.901037 0
M  V30 8368 O 801.327 1.56415 0.766801 0
M  V30 8369 C 798.459 3.10881 1.39878 0
M  V30 8370 H 799.652 2.97163 -0.404219 0
M  V30 8371 H 797.205 1.54324 -0.247774 0
M  V30 8372 H 797.94 2.45767 2.11587 0
M  V30 8373 H 797.725 3.80219 0.957924 0
M  V30 8374 H 799.215 3.69673 1.94247 0
M  V30 8375 N 799.652 0.226554 1.55963 0
M  V30 8376 C 800.899 -0.403789 1.98433 0
M  V30 8377 C 801.227 -1.59416 1.1143 0
M  V30 8378 O 800.482 -1.95042 0.160389 0
M  V30 8379 C 800.781 -0.87642 3.46488 0
M  V30 8380 C 800.447 0.203973 4.50438 0
M  V30 8381 C 799.109 0.500754 4.78587 0
M  V30 8382 C 801.461 0.934396 5.12756 0
M  V30 8383 C 798.789 1.53239 5.66334 0
M  V30 8384 C 801.141 1.9554 6.0162 0
M  V30 8385 C 799.805 2.25905 6.28111 0
M  V30 8386 H 799.075 -0.147757 0.726119 0
M  V30 8387 H 801.722 0.330121 1.88633 0
M  V30 8388 H 800.027 -1.68918 3.53517 0
M  V30 8389 H 801.724 -1.37407 3.76723 0
M  V30 8390 H 798.314 -0.0374917 4.28584 0
M  V30 8391 H 802.498 0.718355 4.91074 0
M  V30 8392 H 797.754 1.77321 5.85122 0
M  V30 8393 H 801.928 2.52642 6.48957 0
M  V30 8394 H 799.555 3.05985 6.959 0
M  V30 8395 N 801.13 -1.57531 -0.0467866 0
M  V30 8396 C 802.541 -1.76945 -0.595603 0
M  V30 8397 C 802.892 -0.855354 -1.76573 0
M  V30 8398 O 802.017 -0.045668 -2.16352 0
M  V30 8399 C 802.612 -3.20881 -1.08725 0
M  V30 8400 C 801.171 -3.41553 -1.58172 0
M  V30 8401 C 800.318 -2.72533 -0.511968 0
M  V30 8402 H 803.269 -1.57682 0.179436 0
M  V30 8403 H 803.29 -3.26419 -1.95528 0
M  V30 8404 H 802.802 -3.87385 -0.235398 0
M  V30 8405 H 800.903 -2.80199 -2.456 0
M  V30 8406 H 801.016 -4.50104 -1.64143 0
M  V30 8407 H 799.38 -2.35797 -0.962899 0
M  V30 8408 H 800.163 -3.41709 0.330117 0
M  V30 8409 N 802.608 0.318715 -1.54344 0
M  V30 8410 C 803.855 1.05608 -1.72781 0
M  V30 8411 C 804.183 1.87854 -0.504083 0
M  V30 8412 O 803.438 1.88826 0.51414 0
M  V30 8413 C 803.737 2.00514 -2.95853 0
M  V30 8414 C 803.403 1.34385 -4.30409 0
M  V30 8415 C 802.065 1.16081 -4.66989 0
M  V30 8416 C 804.417 0.869627 -5.13894 0
M  V30 8417 C 801.745 0.490114 -5.84649 0
M  V30 8418 C 804.097 0.212735 -6.32242 0
M  V30 8419 C 802.761 0.0175882 -6.67498 0
M  V30 8420 H 802.031 0.386449 -0.632249 0
M  V30 8421 H 804.678 0.332729 -1.88587 0
M  V30 8422 H 802.983 2.79317 -2.74753 0
M  V30 8423 H 804.68 2.57605 -3.07312 0
M  V30 8424 H 801.27 1.49634 -4.01631 0
M  V30 8425 H 805.454 0.998809 -4.86146 0
M  V30 8426 H 800.71 0.327767 -6.10521 0
M  V30 8427 H 804.884 -0.162699 -6.9621 0
M  V30 8428 H 802.511 -0.504137 -7.58527 0
M  V30 8429 N 804.086 1.46499 0.581025 0
M  V30 8430 C 805.016 1.60052 1.70017 0
M  V30 8431 C 805.997 0.450788 1.64018 0
M  V30 8432 O 807.182 0.677237 1.82009 0
M  V30 8433 C 804.312 1.5921 3.08658 0
M  V30 8434 C 803.266 2.73169 3.29488 0
M  V30 8435 C 802.592 2.57389 4.68674 0
M  V30 8436 C 803.892 4.14978 3.1716 0
M  V30 8437 H 805.586 2.53735 1.5893 0
M  V30 8438 H 803.132 1.22113 0.763173 0
M  V30 8439 H 805.085 1.67285 3.86773 0
M  V30 8440 H 803.809 0.620718 3.20647 0
M  V30 8441 H 802.468 2.64566 2.53773 0
M  V30 8442 H 802.116 1.58331 4.77431 0
M  V30 8443 H 801.816 3.33826 4.83564 0
M  V30 8444 H 803.34 2.67358 5.48956 0
M  V30 8445 H 804.754 4.24684 3.85119 0
M  V30 8446 H 803.151 4.92016 3.4357 0
M  V30 8447 H 804.221 4.35016 2.14218 0
M  V30 8448 N 805.565 -0.825799 1.34232 0
M  V30 8449 C 806.528 -1.91808 1.25468 0
M  V30 8450 C 807.528 -1.59893 0.170567 0
M  V30 8451 O 808.718 -1.68986 0.422996 0
M  V30 8452 C 805.85 -3.27786 0.93644 0
M  V30 8453 H 807.043 -2.01003 2.22571 0
M  V30 8454 H 804.596 -1.01944 1.18479 0
M  V30 8455 H 805.331 -3.24285 -0.0315408 0
M  V30 8456 H 805.116 -3.52333 1.72057 0
M  V30 8457 H 806.606 -4.07782 0.900214 0
M  V30 8458 N 807.043 -1.17915 -1.04565 0
M  V30 8459 C 808.273 -0.994716 -1.81077 0
M  V30 8460 C 808.681 0.460146 -1.83519 0
M  V30 8461 O 808.024 1.33136 -1.26572 0
M  V30 8462 C 808.086 -1.46698 -3.28207 0
M  V30 8463 C 807.75 -2.94523 -3.49436 0
M  V30 8464 C 808.747 -3.92414 -3.41038 0
M  V30 8465 C 806.432 -3.32841 -3.76194 0
M  V30 8466 C 808.426 -5.2662 -3.59096 0
M  V30 8467 C 806.113 -4.67212 -3.93899 0
M  V30 8468 C 807.111 -5.6391 -3.8535 0
M  V30 8469 O 806.799 -6.95849 -4.02554 0
M  V30 8470 H 806.531 -0.351797 -0.577248 0
M  V30 8471 H 809.085 -1.56772 -1.32709 0
M  V30 8472 H 807.315 -0.837592 -3.7752 0
M  V30 8473 H 809.004 -1.24724 -3.86263 0
M  V30 8474 H 809.77 -3.64157 -3.20336 0
M  V30 8475 H 805.649 -2.58139 -3.81949 0
M  V30 8476 H 809.193 -6.02082 -3.52339 0
M  V30 8477 H 805.09 -4.95172 -4.14095 0
M  V30 8478 H 805.858 -7.02679 -4.19743 0
M  V30 8479 N 808.521 1.23394 -0.980386 0
M  V30 8480 C 809.746 1.96384 -0.666935 0
M  V30 8481 C 810.171 1.72087 0.759456 0
M  V30 8482 O 809.529 0.992328 1.51732 0
M  V30 8483 C 809.577 3.47499 -0.963177 0
M  V30 8484 O 808.681 4.12363 -0.0552051 0
M  V30 8485 H 808.022 0.614797 -0.250839 0
M  V30 8486 H 810.552 1.56831 -1.31398 0
M  V30 8487 H 810.562 3.97953 -0.899877 0
M  V30 8488 H 809.237 3.6451 -2.00264 0
M  V30 8489 H 807.814 3.72499 -0.172914 0
M  V30 8490 N 809.999 0.752036 1.385 0
M  V30 8491 C 811.247 0.306895 1.99756 0
M  V30 8492 C 811.568 -1.11478 1.59992 0
M  V30 8493 O 810.838 -1.76206 0.856045 0
M  V30 8494 H 809.418 0.11048 0.738785 0
M  V30 8495 H 812.08 0.965785 1.69289 0
M  V30 8496 H 811.176 0.368797 3.09913 0
M  V30 8497 N 811.477 -1.49425 0.500989 0
M  V30 8498 C 812.726 -2.01649 -0.04538 0
M  V30 8499 C 813.039 -1.38572 -1.38047 0
M  V30 8500 O 814.245 -1.82124 -2.01353 0
M  V30 8501 C 812.701 -3.5966 -0.131337 0
M  V30 8502 C 812.309 -4.3171 1.19711 0
M  V30 8503 C 814.053 -4.19828 -0.628071 0
M  V30 8504 C 811.96 -5.81579 1.07332 0
M  V30 8505 H 810.89 -0.753715 -0.0207329 0
M  V30 8506 H 813.541 -1.71962 0.640407 0
M  V30 8507 H 811.923 -3.86063 -0.881574 0
M  V30 8508 H 813.097 -4.17008 1.96064 0
M  V30 8509 H 811.412 -3.83286 1.62729 0
M  V30 8510 H 814.009 -5.2958 -0.738198 0
M  V30 8511 H 814.352 -3.83194 -1.6269 0
M  V30 8512 H 814.885 -3.97746 0.0656314 0
M  V30 8513 H 811.624 -6.22738 2.04642 0
M  V30 8514 H 811.144 -5.98774 0.350679 0
M  V30 8515 H 812.823 -6.42614 0.752047 0
M  V30 8516 N 812.955 -0.234822 -1.55841 0
M  V30 8517 C 814.366 0.270588 -1.84729 0
M  V30 8518 C 814.717 1.58494 -1.15646 0
M  V30 8519 O 813.842 2.12071 -0.430667 0
M  V30 8520 C 814.437 0.497733 -3.35124 0
M  V30 8521 C 812.996 0.947428 -3.64281 0
M  V30 8522 C 812.143 0.01787 -2.77294 0
M  V30 8523 H 815.094 -0.457691 -1.51957 0
M  V30 8524 H 815.115 1.34199 -3.56049 0
M  V30 8525 H 814.627 -0.459037 -3.85376 0
M  V30 8526 H 812.728 1.91709 -3.19497 0
M  V30 8527 H 812.841 0.812651 -4.72158 0
M  V30 8528 H 811.205 0.527071 -2.49187 0
M  V30 8529 H 811.988 -0.934056 -3.30349 0
M  V30 8530 N 814.433 1.57553 0.0384317 0
M  V30 8531 C 815.396 2.04927 1.02653 0
M  V30 8532 C 816.396 0.951768 1.29607 0
M  V30 8533 O 817.586 1.21568 1.24768 0
M  V30 8534 C 814.718 2.45828 2.36181 0
M  V30 8535 H 815.911 2.93474 0.617508 0
M  V30 8536 H 813.464 1.53679 0.285031 0
M  V30 8537 H 814.199 1.60408 2.8185 0
M  V30 8538 H 813.984 3.25945 2.1795 0
M  V30 8539 H 815.474 2.82939 3.0714 0
M  V30 8540 N 815.911 -0.310526 1.54511 0
M  V30 8541 C 817.157 -1.04846 1.73595 0
M  V30 8542 C 817.49 -1.87244 0.515118 0
M  V30 8543 O 816.765 -1.88282 -0.48786 0
M  V30 8544 C 817.048 -1.96237 3.01932 0
M  V30 8545 C 816.901 -1.17082 4.34295 0
M  V30 8546 C 818.22 -2.9556 3.26086 0
M  V30 8547 H 815.339 -0.37976 0.631626 0
M  V30 8548 H 817.981 -0.32394 1.87218 0
M  V30 8549 H 816.131 -2.58015 2.90449 0
M  V30 8550 H 817.803 -0.576643 4.57682 0
M  V30 8551 H 816.046 -0.473336 4.3121 0
M  V30 8552 H 816.717 -1.84257 5.20339 0
M  V30 8553 H 819.193 -2.43908 3.37117 0
M  V30 8554 H 818.069 -3.5668 4.17218 0
M  V30 8555 H 818.33 -3.68715 2.4393 0
M  V30 8556 N 817.389 -1.46805 -0.573248 0
M  V30 8557 C 818.614 -1.56433 -1.36175 0
M  V30 8558 C 819.039 -0.209336 -1.86932 0
M  V30 8559 O 818.397 0.812146 -1.62092 0
M  V30 8560 C 818.445 -2.58055 -2.51873 0
M  V30 8561 O 817.549 -2.12214 -3.53609 0
M  V30 8562 H 816.89 -0.526068 -0.405153 0
M  V30 8563 H 819.42 -1.92456 -0.694405 0
M  V30 8564 H 819.43 -2.77966 -2.98662 0
M  V30 8565 H 818.105 -3.56448 -2.14284 0
M  V30 8566 H 816.682 -2.02333 -3.13234 0
M  V30 8567 N 818.867 0.818669 -1.34668 0
M  V30 8568 C 820.114 1.57512 -1.27264 0
M  V30 8569 C 820.442 1.93871 0.156254 0
M  V30 8570 O 819.697 1.60582 1.11857 0
M  V30 8571 C 819.996 2.88245 -2.11304 0
M  V30 8572 C 819.662 2.71159 -3.60255 0
M  V30 8573 C 818.324 2.66207 -4.00858 0
M  V30 8574 C 820.676 2.54538 -4.54819 0
M  V30 8575 C 818.004 2.4256 -5.34211 0
M  V30 8576 C 820.356 2.32421 -5.88356 0
M  V30 8577 C 819.02 2.25884 -6.28118 0
M  V30 8578 H 818.29 0.576378 -0.465692 0
M  V30 8579 H 820.937 0.9469 -1.66451 0
M  V30 8580 H 819.242 3.55381 -1.64958 0
M  V30 8581 H 820.939 3.45869 -2.02919 0
M  V30 8582 H 817.529 2.75856 -3.28027 0
M  V30 8583 H 821.713 2.57384 -4.24343 0
M  V30 8584 H 816.969 2.35959 -5.64033 0
M  V30 8585 H 821.143 2.18548 -6.61218 0
M  V30 8586 H 818.77 2.07322 -7.31383 0
M  V30 8587 N 820.346 1.18468 1.03938 0
M  V30 8588 C 821.586 0.991823 1.78724 0
M  V30 8589 C 821.95 -0.470115 1.86156 0
M  V30 8590 O 823.151 -0.782451 2.5716 0
M  V30 8591 C 821.422 1.63018 3.18056 0
M  V30 8592 S 822.981 1.58527 4.09163 0
M  V30 8593 H 819.799 0.356137 0.615376 0
M  V30 8594 H 822.401 1.50634 1.24618 0
M  V30 8595 H 821.105 2.68642 3.10258 0
M  V30 8596 H 820.636 1.11601 3.77238 0
M  V30 8597 H 822.651 0.602059 4.92534 0
M  V30 8598 N 821.824 -1.22873 0.986916 0
M  V30 8599 C 823.071 -1.91462 0.659424 0
M  V30 8600 C 823.399 -1.76931 -0.807825 0
M  V30 8601 O 822.654 -1.12829 -1.59901 0
M  V30 8602 C 822.953 -3.43014 1.00379 0
M  V30 8603 C 822.619 -3.77731 2.46232 0
M  V30 8604 C 821.281 -3.86918 2.86091 0
M  V30 8605 C 823.633 -3.94343 3.40798 0
M  V30 8606 C 820.961 -4.10149 4.19518 0
M  V30 8607 C 823.313 -4.19076 4.73875 0
M  V30 8608 C 821.977 -4.26486 5.13484 0
M  V30 8609 H 821.247 -0.700611 0.2413 0
M  V30 8610 H 823.894 -1.45763 1.24199 0
M  V30 8611 H 822.199 -3.90329 0.339226 0
M  V30 8612 H 823.896 -3.94327 0.728518 0
M  V30 8613 H 820.486 -3.71159 2.14334 0
M  V30 8614 H 824.67 -3.86629 3.11178 0
M  V30 8615 H 819.926 -4.1411 4.49803 0
M  V30 8616 H 824.1 -4.30873 5.47102 0
M  V30 8617 H 821.727 -4.4424 6.16891 0
M  V30 8618 N 823.302 -0.75937 -1.38099 0
M  V30 8619 C 824.542 -0.323116 -2.0183 0
M  V30 8620 C 824.906 1.07658 -1.58977 0
M  V30 8621 O 826.107 1.61227 -2.1508 0
M  V30 8622 C 824.378 -0.448234 -3.54578 0
M  V30 8623 S 825.937 -0.0954152 -4.38696 0
M  V30 8624 H 822.755 -0.125013 -0.699923 0
M  V30 8625 H 825.357 -0.991262 -1.68506 0
M  V30 8626 H 824.061 -1.46778 -3.83255 0
M  V30 8627 H 823.592 0.236895 -3.92686 0
M  V30 8628 H 825.607 1.11312 -4.83554 0
M  V30 8629 N 824.78 1.49157 -0.508906 0
M  V30 8630 C 825.69 2.33045 0.269656 0
M  V30 8631 C 826.706 1.45143 0.959662 0
M  V30 8632 O 827.882 1.78155 0.939295 0
M  V30 8633 C 824.947 3.20772 1.31554 0
M  V30 8634 C 824.008 4.24531 0.638131 0
M  V30 8635 C 823.241 5.08065 1.63418 0
M  V30 8636 O 823.464 4.93238 2.86483 0
M  V30 8637 O 822.398 5.90117 1.18516 0
M  V30 8638 H 826.224 3.00821 -0.417183 0
M  V30 8639 H 823.809 1.46938 -0.270119 0
M  V30 8640 H 825.691 3.75095 1.92047 0
M  V30 8641 H 824.366 2.55681 1.98516 0
M  V30 8642 H 823.273 3.74099 -0.00674357 0
M  V30 8643 H 824.606 4.92199 0.0108155 0
M  V30 8644 N 826.258 0.243083 1.55714 0
M  V30 8645 C 827.535 -0.432851 1.90751 0
M  V30 8646 C 827.915 -1.76153 1.16333 0
M  V30 8647 O 827.263 -2.26783 0.279565 0
M  V30 8648 C 827.473 -0.604685 3.43722 0
M  V30 8649 C 828.821 -0.90231 4.14902 0
M  V30 8650 O 829.845 -0.690689 3.49439 0
M  V30 8651 O 828.704 -1.3051 5.30688 0
M  V30 8652 H 825.798 -0.231835 0.79384 0
M  V30 8653 H 828.344 0.286867 1.67258 0
M  V30 8654 H 827.116 0.331655 3.89892 0
M  V30 8655 H 826.739 -1.37509 3.73065 0
M  V30 8656 N 827.736 -1.57571 -0.0300757 0
M  V30 8657 C 828.964 -1.93485 -0.732891 0
M  V30 8658 C 829.379 -0.842758 -1.68947 0
M  V30 8659 O 828.736 0.180904 -1.81601 0
M  V30 8660 C 828.787 -3.29328 -1.49082 0
M  V30 8661 O 828.508 -4.34341 -0.572639 0
M  V30 8662 C 830.009 -3.79517 -2.29088 0
M  V30 8663 H 827.229 -0.638588 -0.206026 0
M  V30 8664 H 829.773 -2.04496 0.0120966 0
M  V30 8665 H 827.928 -3.19716 -2.1877 0
M  V30 8666 H 828.342 -5.12748 -1.10406 0
M  V30 8667 H 829.816 -4.77081 -2.77665 0
M  V30 8668 H 830.293 -3.10659 -3.10464 0
M  V30 8669 H 830.899 -3.92208 -1.64477 0
M  V30 8670 N 829.214 0.302327 -1.54673 0
M  V30 8671 C 830.491 1.05721 -1.64567 0
M  V30 8672 C 830.871 2.0526 -0.493108 0
M  V30 8673 O 830.219 2.22729 0.510315 0
M  V30 8674 C 830.429 1.74025 -3.02517 0
M  V30 8675 C 831.777 2.26271 -3.59286 0
M  V30 8676 O 832.801 1.8406 -3.0496 0
M  V30 8677 O 831.66 3.0361 -4.54404 0
M  V30 8678 H 828.754 0.488577 -0.667249 0
M  V30 8679 H 831.3 0.300521 -1.67018 0
M  V30 8680 H 830.072 1.0174 -3.77842 0
M  V30 8681 H 829.695 2.56454 -3.03838 0
M  V30 8682 N 830.692 1.47107 0.565454 0
M  V30 8683 C 831.922 1.56681 1.34664 0
M  V30 8684 C 832.33 0.213011 1.87997 0
M  V30 8685 O 831.673 -0.802629 1.65238 0
M  V30 8686 C 831.735 2.52528 2.55871 0
M  V30 8687 C 831.399 3.98403 2.23883 0
M  V30 8688 C 832.396 4.87125 1.81673 0
M  V30 8689 C 830.081 4.43674 2.35496 0
M  V30 8690 C 832.075 6.19135 1.51494 0
M  V30 8691 C 829.762 5.75714 2.0493 0
M  V30 8692 C 830.76 6.63266 1.62996 0
M  V30 8693 O 830.448 7.92853 1.32813 0
M  V30 8694 H 830.18 0.531967 0.417117 0
M  V30 8695 H 832.734 1.93368 0.692669 0
M  V30 8696 H 830.964 2.10893 3.24131 0
M  V30 8697 H 832.653 2.5232 3.17945 0
M  V30 8698 H 833.419 4.534 1.72201 0
M  V30 8699 H 829.298 3.7574 2.67096 0
M  V30 8700 H 832.842 6.87429 1.1869 0
M  V30 8701 H 828.739 6.08983 2.14031 0
M  V30 8702 H 829.507 8.0528 1.46513 0
M  V30 8703 N 832.17 -0.811516 1.35101 0
M  V30 8704 C 833.581 -1.38515 1.25182 0
M  V30 8705 C 833.932 -1.95846 -0.117883 0
M  V30 8706 O 833.057 -1.90925 -1.01866 0
M  V30 8707 C 833.652 -2.51813 2.26662 0
M  V30 8708 C 832.211 -3.05052 2.20499 0
M  V30 8709 C 831.358 -1.77987 2.12641 0
M  V30 8710 H 834.309 -0.614959 1.46301 0
M  V30 8711 H 834.33 -3.30228 1.89023 0
M  V30 8712 H 833.842 -2.10057 3.2634 0
M  V30 8713 H 831.943 -3.51285 1.24215 0
M  V30 8714 H 832.056 -3.63368 3.1225 0
M  V30 8715 H 830.42 -1.99342 1.5854 0
M  V30 8716 H 831.203 -1.38389 3.14171 0
M  V30 8717 N 833.648 -1.19017 -1.03309 0
M  V30 8718 C 834.878 -1.01387 -1.80012 0
M  V30 8719 C 835.286 0.440655 -1.83997 0
M  V30 8720 O 834.629 1.31786 -1.27977 0
M  V30 8721 C 834.691 -1.50171 -3.26633 0
M  V30 8722 C 834.355 -2.98213 -3.46292 0
M  V30 8723 C 835.352 -3.96009 -3.36857 0
M  V30 8724 C 833.037 -3.36812 -3.72643 0
M  V30 8725 C 835.031 -5.30399 -3.5349 0
M  V30 8726 C 832.718 -4.71363 -3.88922 0
M  V30 8727 C 833.716 -5.67966 -3.79347 0
M  V30 8728 O 833.404 -7.00079 -3.95151 0
M  V30 8729 H 833.136 -0.357899 -0.573484 0
M  V30 8730 H 835.69 -1.58171 -1.31039 0
M  V30 8731 H 833.92 -0.877586 -3.7661 0
M  V30 8732 H 835.609 -1.28814 -3.84918 0
M  V30 8733 H 836.375 -3.67534 -3.16455 0
M  V30 8734 H 832.254 -2.62175 -3.7919 0
M  V30 8735 H 835.798 -6.05786 -3.45933 0
M  V30 8736 H 831.695 -4.99536 -4.0882 0
M  V30 8737 H 832.463 -7.07092 -4.12266 0
M  V30 8738 N 835.127 1.22348 -0.993418 0
M  V30 8739 C 836.057 2.26584 -0.564088 0
M  V30 8740 C 837.038 1.65102 0.409298 0
M  V30 8741 O 838.223 1.91872 0.299819 0
M  V30 8742 C 835.353 3.47087 0.121554 0
M  V30 8743 C 834.307 4.21009 -0.770429 0
M  V30 8744 C 833.633 5.34678 0.0481586 0
M  V30 8745 C 834.933 4.79636 -2.06752 0
M  V30 8746 H 836.627 2.62749 -1.43538 0
M  V30 8747 H 834.173 1.26303 -0.691628 0
M  V30 8748 H 836.126 4.19166 0.433303 0
M  V30 8749 H 834.85 3.1002 1.0274 0
M  V30 8750 H 833.509 3.50764 -1.06583 0
M  V30 8751 H 833.157 4.93852 0.954933 0
M  V30 8752 H 832.857 5.85061 -0.545641 0
M  V30 8753 H 834.381 6.09573 0.353991 0
M  V30 8754 H 835.795 5.43654 -1.81969 0
M  V30 8755 H 834.192 5.4036 -2.61019 0
M  V30 8756 H 835.262 3.99659 -2.74592 0
M  V30 8757 N 836.605 0.766683 1.37694 0
M  V30 8758 C 837.853 0.328065 1.9942 0
M  V30 8759 C 838.174 -1.09775 1.61166 0
M  V30 8760 O 837.444 -1.75288 0.874686 0
M  V30 8761 H 836.024 0.11831 0.737572 0
M  V30 8762 H 838.686 0.983686 1.68255 0
M  V30 8763 H 837.782 0.401647 3.09505 0
M  V30 8764 N 838.083 -1.48885 0.516809 0
M  V30 8765 C 839.311 -2.06892 -0.0184017 0
M  V30 8766 C 839.726 -1.37511 -1.29368 0
M  V30 8767 O 839.083 -0.458409 -1.76649 0
M  V30 8768 C 839.134 -3.60566 -0.259673 0
M  V30 8769 O 838.855 -4.27338 0.965065 0
M  V30 8770 C 840.356 -4.35331 -0.836751 0
M  V30 8771 H 837.576 -0.670433 0.0275743 0
M  V30 8772 H 840.12 -1.91455 0.718689 0
M  V30 8773 H 838.275 -3.75653 -0.94678 0
M  V30 8774 H 838.689 -5.19287 0.737647 0
M  V30 8775 H 840.163 -5.43675 -0.955065 0
M  V30 8776 H 840.64 -3.9887 -1.83845 0
M  V30 8777 H 841.246 -4.2489 -0.186622 0
M  V30 8778 N 839.561 -0.251338 -1.55583 0
M  V30 8779 C 840.789 0.376187 -2.03451 0
M  V30 8780 C 841.204 1.51215 -1.13047 0
M  V30 8781 O 840.561 1.81917 -0.145769 0
M  V30 8782 C 840.612 0.879779 -3.50631 0
M  V30 8783 O 840.333 -0.210917 -4.37592 0
M  V30 8784 C 841.834 1.57754 -4.14281 0
M  V30 8785 H 839.054 0.0888722 -0.665089 0
M  V30 8786 H 841.598 -0.376497 -2.01004 0
M  V30 8787 H 839.753 1.58263 -3.53598 0
M  V30 8788 H 840.167 0.172203 -5.24217 0
M  V30 8789 H 841.641 1.88158 -5.18942 0
M  V30 8790 H 842.118 2.50103 -3.61034 0
M  V30 8791 H 842.724 0.919154 -4.15249 0
M  V30 8792 N 841.039 1.57585 0.0217189 0
M  V30 8793 C 841.972 2.02435 1.05334 0
M  V30 8794 C 842.95 0.91006 1.34747 0
M  V30 8795 O 844.134 1.17648 1.47279 0
M  V30 8796 C 841.261 2.40362 2.38629 0
M  V30 8797 C 840.307 3.62307 2.25025 0
M  V30 8798 S 841.14 5.11141 1.59673 0
M  V30 8799 C 842.296 5.52316 2.94444 0
M  V30 8800 H 842.529 2.89621 0.671354 0
M  V30 8801 H 840.062 1.52648 0.231925 0
M  V30 8802 H 842.02 2.62883 3.15282 0
M  V30 8803 H 840.681 1.53615 2.73973 0
M  V30 8804 H 839.874 3.86523 3.23443 0
M  V30 8805 H 839.476 3.39675 1.56515 0
M  V30 8806 H 841.768 5.53449 3.90768 0
M  V30 8807 H 842.711 6.52539 2.74952 0
M  V30 8808 H 843.119 4.79834 2.97355 0
M  V30 8809 N 842.517 -0.29412 1.54831 0
M  V30 8810 C 843.794 -1.04847 1.65126 0
M  V30 8811 C 844.174 -2.04996 0.503986 0
M  V30 8812 O 843.522 -2.22996 -0.498496 0
M  V30 8813 C 843.732 -1.72418 3.03435 0
M  V30 8814 C 845.08 -2.24362 3.60481 0
M  V30 8815 O 846.104 -1.8244 3.05932 0
M  V30 8816 O 844.963 -3.01196 4.56008 0
M  V30 8817 H 842.057 -0.485032 0.669831 0
M  V30 8818 H 844.603 -0.291659 1.67175 0
M  V30 8819 H 843.375 -0.997351 3.78376 0
M  V30 8820 H 842.998 -2.54839 3.05193 0
M  V30 8821 N 843.995 -1.47404 -0.557645 0
M  V30 8822 C 845.223 -1.57622 -1.34026 0
M  V30 8823 C 845.638 -0.226256 -1.87439 0
M  V30 8824 O 844.995 0.78043 -1.64971 0
M  V30 8825 C 845.046 -2.60111 -2.51047 0
M  V30 8826 O 844.767 -3.89866 -1.99841 0
M  V30 8827 C 846.268 -2.80508 -3.43264 0
M  V30 8828 H 843.488 -0.532271 -0.40857 0
M  V30 8829 H 846.032 -1.93019 -0.675555 0
M  V30 8830 H 844.187 -2.27648 -3.13457 0
M  V30 8831 H 844.601 -4.45864 -2.76234 0
M  V30 8832 H 846.075 -3.56084 -4.21792 0
M  V30 8833 H 846.552 -1.88314 -3.9678 0
M  V30 8834 H 847.158 -3.14166 -2.86671 0
M  V30 8835 N 845.473 0.80434 -1.35529 0
M  V30 8836 C 846.703 1.59052 -1.31856 0
M  V30 8837 C 847.111 1.88905 0.105549 0
M  V30 8838 O 846.454 1.49422 1.06858 0
M  V30 8839 C 846.516 2.94626 -2.06 0
M  V30 8840 C 846.18 2.87576 -3.55175 0
M  V30 8841 C 847.177 2.60856 -4.49722 0
M  V30 8842 C 844.862 3.06623 -3.97854 0
M  V30 8843 C 846.856 2.53262 -5.84925 0
M  V30 8844 C 844.543 2.98652 -5.33151 0
M  V30 8845 C 845.541 2.72007 -6.26499 0
M  V30 8846 O 845.229 2.64003 -7.59314 0
M  V30 8847 H 844.961 0.500486 -0.454411 0
M  V30 8848 H 847.515 1.0074 -1.78999 0
M  V30 8849 H 845.745 3.5493 -1.53498 0
M  V30 8850 H 847.434 3.55785 -1.95376 0
M  V30 8851 H 848.2 2.45858 -4.18066 0
M  V30 8852 H 844.079 3.26372 -3.2558 0
M  V30 8853 H 847.623 2.32386 -6.57756 0
M  V30 8854 H 843.52 3.13208 -5.64421 0
M  V30 8855 H 844.288 2.79595 -7.69265 0
M  V30 8856 N 846.951 1.19563 1.02676 0
M  V30 8857 C 847.898 0.935291 2.11 0
M  V30 8858 C 848.868 -0.130685 1.65585 0
M  V30 8859 O 850.053 0.0119062 1.90796 0
M  V30 8860 C 847.193 0.482384 3.41712 0
M  V30 8861 C 846.306 1.61537 4.00662 0
M  V30 8862 C 845.441 1.11378 5.19392 0
M  V30 8863 C 844.48 2.22052 5.70403 0
M  V30 8864 N 843.617 1.73185 6.80405 0
M  V30 8865 H 848.457 1.86275 2.32606 0
M  V30 8866 H 845.994 0.928656 1.14081 0
M  V30 8867 H 847.952 0.20118 4.16715 0
M  V30 8868 H 846.582 -0.408086 3.2021 0
M  V30 8869 H 845.634 2.01173 3.22852 0
M  V30 8870 H 846.946 2.44912 4.34534 0
M  V30 8871 H 846.1 0.787935 6.01562 0
M  V30 8872 H 844.839 0.249789 4.8706 0
M  V30 8873 H 843.844 2.55465 4.86845 0
M  V30 8874 H 845.069 3.08911 6.04774 0
M  V30 8875 H 843.015 0.890973 6.49921 0
M  V30 8876 H 842.932 2.50148 7.13416 0
M  V30 8877 H 844.2 1.4357 7.66164 0
M  V30 8878 N 848.429 -1.21819 0.999893 0
M  V30 8879 C 849.339 -2.27691 0.565159 0
M  V30 8880 C 850.355 -1.69587 -0.389398 0
M  V30 8881 O 851.531 -1.99786 -0.254499 0
M  V30 8882 C 848.596 -3.46537 -0.106432 0
M  V30 8883 C 847.657 -4.19932 0.891964 0
M  V30 8884 C 846.89 -5.33103 0.252327 0
M  V30 8885 O 847.113 -5.62398 -0.952103 0
M  V30 8886 O 846.047 -5.94184 0.960698 0
M  V30 8887 H 849.873 -2.67059 1.44613 0
M  V30 8888 H 847.458 -1.28119 0.768499 0
M  V30 8889 H 849.34 -4.18631 -0.482301 0
M  V30 8890 H 848.015 -3.09079 -0.961865 0
M  V30 8891 H 846.922 -3.5008 1.3189 0
M  V30 8892 H 848.255 -4.61287 1.71682 0
M  V30 8893 N 849.908 -0.773975 -1.37286 0
M  V30 8894 C 850.838 -0.175782 -2.32837 0
M  V30 8895 C 851.819 0.680603 -1.5589 0
M  V30 8896 O 853.004 0.617607 -1.84117 0
M  V30 8897 C 850.134 0.702388 -3.40123 0
M  V30 8898 C 849.088 -0.0528687 -4.27967 0
M  V30 8899 C 848.414 0.944891 -5.26285 0
M  V30 8900 C 849.714 -1.23316 -5.07534 0
M  V30 8901 H 851.408 -0.974016 -2.83114 0
M  V30 8902 H 848.954 -0.469826 -1.3612 0
M  V30 8903 H 850.907 1.13069 -4.05947 0
M  V30 8904 H 849.631 1.53316 -2.88378 0
M  V30 8905 H 848.29 -0.461978 -3.63678 0
M  V30 8906 H 847.938 1.77028 -4.70819 0
M  V30 8907 H 847.638 0.444079 -5.8592 0
M  V30 8908 H 849.162 1.37209 -5.94984 0
M  V30 8909 H 850.576 -0.881395 -5.66484 0
M  V30 8910 H 848.973 -1.66621 -5.76504 0
M  V30 8911 H 850.043 -2.03617 -4.40077 0
M  V30 8912 N 851.386 1.48609 -0.524698 0
M  V30 8913 C 852.635 2.01696 0.0132937 0
M  V30 8914 C 852.948 1.40751 1.35825 0
M  V30 8915 O 854.154 1.85304 1.9843 0
M  V30 8916 C 852.61 3.59824 0.0741012 0
M  V30 8917 C 852.218 4.2975 -1.26564 0
M  V30 8918 C 853.962 4.20774 0.5612 0
M  V30 8919 C 851.869 5.79798 -1.16571 0
M  V30 8920 H 850.799 0.753949 0.00873931 0
M  V30 8921 H 853.45 1.70922 -0.667684 0
M  V30 8922 H 851.832 3.87416 0.820043 0
M  V30 8923 H 853.006 4.13836 -2.02674 0
M  V30 8924 H 851.321 3.80649 -1.68806 0
M  V30 8925 H 853.918 5.30687 0.653853 0
M  V30 8926 H 854.261 3.85734 1.56573 0
M  V30 8927 H 854.794 3.97591 -0.128901 0
M  V30 8928 H 851.533 6.19403 -2.14523 0
M  V30 8929 H 851.053 5.9814 -0.445894 0
M  V30 8930 H 852.732 6.41337 -0.854186 0
M  V30 8931 N 852.864 0.259585 1.55447 0
M  V30 8932 C 853.774 -0.645026 2.25558 0
M  V30 8933 C 854.79 -1.18291 1.27606 0
M  V30 8934 O 855.966 -1.21649 1.6051 0
M  V30 8935 C 853.031 -1.81964 2.9511 0
M  V30 8936 C 852.092 -1.31997 4.08504 0
M  V30 8937 C 851.325 -2.43861 4.74729 0
M  V30 8938 O 851.548 -3.62876 4.40088 0
M  V30 8939 O 850.482 -2.12898 5.6299 0
M  V30 8940 H 854.308 -0.0775399 3.03601 0
M  V30 8941 H 851.893 0.0275859 1.49375 0
M  V30 8942 H 853.775 -2.50485 3.38873 0
M  V30 8943 H 852.45 -2.37451 2.19997 0
M  V30 8944 H 851.357 -0.601676 3.6923 0
M  V30 8945 H 852.69 -0.811045 4.85472 0
M  V30 8946 N 854.342 -1.57594 -0.0133615 0
M  V30 8947 C 855.758 -1.5527 -0.369255 0
M  V30 8948 C 855.958 -0.987751 -1.7563 0
M  V30 8949 O 855.014 -0.615683 -2.44879 0
M  V30 8950 C 856.327 -2.99602 -0.25672 0
M  V30 8951 C 857.875 -3.11227 -0.332647 0
M  V30 8952 C 858.35 -4.57321 -0.249387 0
M  V30 8953 N 859.841 -4.62177 -0.3077 0
M  V30 8954 C 860.576 -5.72781 -0.26641 0
M  V30 8955 N 860.072 -6.92575 -0.176494 0
M  V30 8956 N 861.865 -5.61204 -0.317295 0
M  V30 8957 H 854.016 -1.92662 0.894154 0
M  V30 8958 H 856.279 -0.884352 0.341505 0
M  V30 8959 H 855.985 -3.44723 0.697072 0
M  V30 8960 H 855.859 -3.6246 -1.04415 0
M  V30 8961 H 858.246 -2.66045 -1.27688 0
M  V30 8962 H 858.327 -2.51171 0.484412 0
M  V30 8963 H 857.971 -5.03174 0.691242 0
M  V30 8964 H 857.901 -5.15306 -1.08476 0
M  V30 8965 H 860.392 -3.75994 -0.379069 0
M  V30 8966 H 860.705 -7.72653 -0.150518 0
M  V30 8967 H 859.05 -6.94854 -0.142314 0
M  V30 8968 H 862.241 -4.66509 -0.385643 0
M  V30 8969 H 862.414 -6.47388 -0.28165 0
M  V30 8970 N 855.82 0.285905 -1.54985 0
M  V30 8971 C 857.069 1.01691 -1.74189 0
M  V30 8972 C 857.382 1.87908 -0.543135 0
M  V30 8973 O 858.588 2.64389 -0.617305 0
M  V30 8974 C 857.044 1.85785 -3.0824 0
M  V30 8975 C 856.652 1.04497 -4.35642 0
M  V30 8976 C 858.396 2.58393 -3.36798 0
M  V30 8977 C 856.303 1.87955 -5.60738 0
M  V30 8978 H 855.233 0.383396 -0.649248 0
M  V30 8979 H 857.884 0.27317 -1.81455 0
M  V30 8980 H 856.266 2.64205 -2.94978 0
M  V30 8981 H 857.44 0.305847 -4.59784 0
M  V30 8982 H 855.755 0.434023 -4.14132 0
M  V30 8983 H 858.352 3.21214 -4.27464 0
M  V30 8984 H 858.695 3.28011 -2.56349 0
M  V30 8985 H 859.228 1.87012 -3.511 0
M  V30 8986 H 855.967 1.22781 -6.43898 0
M  V30 8987 H 855.487 2.59499 -5.40759 0
M  V30 8988 H 857.166 2.45636 -5.98558 0
M  V30 8989 N 857.298 1.47698 0.54982 0
M  V30 8990 C 858.709 1.48474 1.13191 0
M  V30 8991 C 859.06 0.243504 1.94683 0
M  V30 8992 O 858.185 -0.651009 2.06375 0
M  V30 8993 C 858.78 2.69022 2.05944 0
M  V30 8994 C 857.339 2.72733 2.5941 0
M  V30 8995 C 856.486 2.41691 1.35944 0
M  V30 8996 H 859.437 1.55101 0.336048 0
M  V30 8997 H 859.458 2.46412 2.89934 0
M  V30 8998 H 858.97 3.59345 1.46605 0
M  V30 8999 H 857.071 1.86568 3.22526 0
M  V30 9000 H 857.184 3.73628 2.99899 0
M  V30 9001 H 855.548 1.92428 1.66864 0
M  V30 9002 H 856.331 3.34231 0.783869 0
M  V30 9003 N 858.776 -0.797141 1.35954 0
M  V30 9004 C 859.686 -1.94088 1.31784 0
M  V30 9005 C 860.702 -1.72588 0.221227 0
M  V30 9006 O 861.878 -1.96256 0.452255 0
M  V30 9007 C 858.943 -3.28828 1.09878 0
M  V30 9008 C 858.004 -3.63158 2.28942 0
M  V30 9009 C 857.237 -4.91469 2.08072 0
M  V30 9010 O 857.46 -5.60616 1.05196 0
M  V30 9011 O 856.394 -5.24277 2.95664 0
M  V30 9012 H 860.22 -2.00554 2.28061 0
M  V30 9013 H 857.805 -0.936288 1.16422 0
M  V30 9014 H 859.687 -4.09473 0.995485 0
M  V30 9015 H 858.362 -3.23271 0.16659 0
M  V30 9016 H 857.269 -2.82851 2.44839 0
M  V30 9017 H 858.602 -3.7343 3.20641 0
M  V30 9018 N 860.254 -1.20106 -1.0204 0
M  V30 9019 C 861.184 -0.970301 -2.12385 0
M  V30 9020 C 862.165 0.099378 -1.69809 0
M  V30 9021 O 863.35 -0.057365 -1.94115 0
M  V30 9022 C 860.48 -0.517431 -3.43424 0
M  V30 9023 C 859.434 -1.52992 -3.99722 0
M  V30 9024 C 858.76 -0.933817 -5.26483 0
M  V30 9025 C 860.06 -2.91257 -4.33551 0
M  V30 9026 H 861.754 -1.89316 -2.31948 0
M  V30 9027 H 859.3 -0.911655 -1.11467 0
M  V30 9028 H 861.253 -0.343243 -4.2 0
M  V30 9029 H 859.977 0.441049 -3.23608 0
M  V30 9030 H 858.636 -1.6914 -3.2525 0
M  V30 9031 H 858.284 0.0324763 -5.0299 0
M  V30 9032 H 857.984 -1.60999 -5.65113 0
M  V30 9033 H 859.508 -0.770614 -6.05718 0
M  V30 9034 H 860.922 -2.78642 -5.0103 0
M  V30 9035 H 859.319 -3.55745 -4.83286 0
M  V30 9036 H 860.389 -3.43269 -3.42483 0
M  V30 9037 N 861.732 1.21287 -1.00634 0
M  V30 9038 C 862.68 2.25733 -0.561026 0
M  V30 9039 C 863.674 1.64728 0.395095 0
M  V30 9040 O 864.88 1.78022 0.266141 0
M  V30 9041 H 861.255 0.734104 -0.163081 0
M  V30 9042 H 863.226 2.60631 -1.45307 0
M  V30 9043 C 861.975 3.47569 0.0952587 0
M  V30 9044 H 861.298 3.94782 -0.631427 0
M  V30 9045 H 862.738 4.22382 0.370105 0
M  V30 9046 C 861.197 3.09326 1.33488 0
M  V30 9047 O 861.727 3.19933 2.42912 0
M  V30 9048 N 859.933 2.63976 1.21512 0
M  V30 9049 H 859.48 2.55545 0.324741 0
M  V30 9050 H 859.438 2.38757 2.04555 0
M  V30 9051 N 863.21 0.781244 1.36873 0
M  V30 9052 C 864.157 0.172146 2.30157 0
M  V30 9053 C 865.127 -0.679328 1.51573 0
M  V30 9054 O 866.312 -0.629713 1.80109 0
M  V30 9055 C 863.452 -0.693534 3.38059 0
M  V30 9056 C 862.565 0.175586 4.31643 0
M  V30 9057 C 861.7 -0.695695 5.26625 0
M  V30 9058 C 860.739 0.17538 6.11849 0
M  V30 9059 N 859.876 -0.654416 6.99043 0
M  V30 9060 H 864.716 0.973133 2.81663 0
M  V30 9061 H 862.253 0.491469 1.38647 0
M  V30 9062 H 864.211 -1.21035 3.99257 0
M  V30 9063 H 862.841 -1.46003 2.87894 0
M  V30 9064 H 861.893 0.810295 3.7167 0
M  V30 9065 H 863.205 0.847107 4.91554 0
M  V30 9066 H 862.359 -1.27863 5.93073 0
M  V30 9067 H 861.098 -1.40087 4.67148 0
M  V30 9068 H 860.103 0.77078 5.4437 0
M  V30 9069 H 861.328 0.87803 6.734 0
M  V30 9070 H 859.274 -1.34403 6.42084 0
M  V30 9071 H 859.191 -0.0403998 7.55989 0
M  V30 9072 H 860.459 -1.22144 7.69871 0
M  V30 9073 N 864.689 -1.48329 0.532571 0
M  V30 9074 C 865.935 -2.028 -0.000583219 0
M  V30 9075 C 866.268 -1.40858 -1.33688 0
M  V30 9076 O 865.543 -0.555261 -1.86406 0
M  V30 9077 C 865.826 -3.59901 -0.119846 0
M  V30 9078 C 865.679 -4.32318 1.2418 0
M  V30 9079 C 866.998 -4.31904 -0.845372 0
M  V30 9080 H 864.117 -0.736999 0.00126205 0
M  V30 9081 H 866.759 -1.77024 0.690102 0
M  V30 9082 H 864.909 -3.81993 -0.708092 0
M  V30 9083 H 866.581 -4.21637 1.87136 0
M  V30 9084 H 864.824 -3.93635 1.82301 0
M  V30 9085 H 865.495 -5.40697 1.11132 0
M  V30 9086 H 867.971 -4.14658 -0.346159 0
M  V30 9087 H 866.847 -5.41509 -0.897723 0
M  V30 9088 H 867.108 -3.99369 -1.89622 0
M  V30 9089 N 866.167 -0.267825 -1.55308 0
M  V30 9090 C 867.13 0.60965 -2.20943 0
M  V30 9091 C 868.13 1.0869 -1.18504 0
M  V30 9092 O 869.32 0.988248 -1.43455 0
M  V30 9093 C 866.452 1.84027 -2.86961 0
M  V30 9094 H 867.645 0.0366806 -2.99878 0
M  V30 9095 H 865.198 -0.0183941 -1.56289 0
M  V30 9096 H 865.933 2.45394 -2.1202 0
M  V30 9097 H 865.718 1.50605 -3.62023 0
M  V30 9098 H 867.208 2.46442 -3.37129 0
M  V30 9099 N 867.645 1.57599 0.00500368 0
M  V30 9100 C 869.061 1.55463 0.361015 0
M  V30 9101 C 869.261 0.997051 1.75103 0
M  V30 9102 O 868.317 0.628661 2.44549 0
M  V30 9103 C 869.63 2.99734 0.240828 0
M  V30 9104 C 871.178 3.11399 0.316138 0
M  V30 9105 C 871.653 4.57446 0.22513 0
M  V30 9106 N 873.144 4.62334 0.283186 0
M  V30 9107 C 873.879 5.72914 0.23603 0
M  V30 9108 N 873.375 6.92659 0.139762 0
M  V30 9109 N 875.168 5.61364 0.287529 0
M  V30 9110 H 867.319 1.92185 -0.904359 0
M  V30 9111 H 869.582 0.882529 -0.34619 0
M  V30 9112 H 869.288 3.44348 -0.715343 0
M  V30 9113 H 869.162 3.63009 1.02491 0
M  V30 9114 H 871.549 2.66718 1.26275 0
M  V30 9115 H 871.63 2.50911 -0.497725 0
M  V30 9116 H 871.274 5.02801 -0.717917 0
M  V30 9117 H 871.204 5.15874 1.05742 0
M  V30 9118 H 873.695 3.7619 0.359123 0
M  V30 9119 H 874.008 7.72722 0.10954 0
M  V30 9120 H 872.353 6.9492 0.105462 0
M  V30 9121 H 875.544 4.66707 0.360897 0
M  V30 9122 H 875.717 6.47528 0.247313 0
M  V30 9123 N 869.123 -0.277682 1.55134 0
M  V30 9124 C 870.086 -1.32635 1.86924 0
M  V30 9125 C 871.086 -1.42578 0.743507 0
M  V30 9126 O 872.276 -1.4181 1.01171 0
M  V30 9127 C 869.408 -2.70832 2.07034 0
M  V30 9128 H 870.601 -1.0568 2.80663 0
M  V30 9129 H 868.154 -0.515517 1.47554 0
M  V30 9130 H 868.889 -3.02974 1.15661 0
M  V30 9131 H 868.674 -2.65001 2.88993 0
M  V30 9132 H 870.164 -3.46611 2.32918 0
M  V30 9133 N 870.601 -1.47988 -0.541979 0
M  V30 9134 C 871.564 -1.61148 -1.62984 0
M  V30 9135 C 872.564 -0.48553 -1.53295 0
M  V30 9136 O 873.754 -0.751012 -1.5718 0
M  V30 9137 C 870.886 -1.57038 -3.02576 0
M  V30 9138 H 872.079 -2.58138 -1.52659 0
M  V30 9139 H 869.632 -1.36405 -0.763106 0
M  V30 9140 H 870.367 -0.614807 -3.18419 0
M  V30 9141 H 870.152 -2.38769 -3.11018 0
M  V30 9142 H 871.642 -1.69416 -3.81691 0
M  V30 9143 N 872.079 0.78992 -1.36375 0
M  V30 9144 C 873.042 1.88414 -1.30509 0
M  V30 9145 C 874.042 1.59384 -0.2129 0
M  V30 9146 O 875.232 1.67805 -0.467651 0
M  V30 9147 C 872.364 3.25188 -1.02302 0
M  V30 9148 H 873.557 1.95031 -2.27822 0
M  V30 9149 H 871.11 0.987664 -1.2114 0
M  V30 9150 H 871.845 3.24254 -0.0544486 0
M  V30 9151 H 871.63 3.47647 -1.81338 0
M  V30 9152 H 873.12 4.05252 -1.00801 0
M  V30 9153 N 873.557 1.20646 1.01402 0
M  V30 9154 C 874.467 0.973385 2.13453 0
M  V30 9155 C 875.483 -0.0715865 1.73853 0
M  V30 9156 O 876.659 0.116438 2.01063 0
M  V30 9157 C 873.724 0.531285 3.42605 0
M  V30 9158 C 872.785 1.64741 3.96433 0
M  V30 9159 C 872.018 1.22631 5.1942 0
M  V30 9160 O 872.241 0.0960891 5.70319 0
M  V30 9161 O 871.175 2.03474 5.66465 0
M  V30 9162 H 875.001 1.91164 2.35987 0
M  V30 9163 H 872.586 0.990553 1.11841 0
M  V30 9164 H 874.468 0.294095 4.20373 0
M  V30 9165 H 873.143 -0.378358 3.21481 0
M  V30 9166 H 872.05 1.93891 3.19933 0
M  V30 9167 H 873.383 2.53415 4.2195 0
M  V30 9168 N 875.035 -1.20752 1.01276 0
M  V30 9169 C 876.281 -1.90302 0.700924 0
M  V30 9170 C 876.614 -1.78406 -0.767142 0
M  V30 9171 O 875.889 -1.16575 -1.55694 0
M  V30 9172 C 876.172 -3.41831 1.13242 0
M  V30 9173 C 876.025 -3.6268 2.66051 0
M  V30 9174 C 877.344 -4.34486 0.700738 0
M  V30 9175 H 874.463 -0.69107 0.256107 0
M  V30 9176 H 877.105 -1.42227 1.25982 0
M  V30 9177 H 875.255 -3.82906 0.656902 0
M  V30 9178 H 876.927 -3.30882 3.21426 0
M  V30 9179 H 875.17 -3.06281 3.07204 0
M  V30 9180 H 875.841 -4.68882 2.91296 0
M  V30 9181 H 878.317 -4.01036 1.10948 0
M  V30 9182 H 877.193 -5.39136 1.03073 0
M  V30 9183 H 877.454 -4.40307 -0.39778 0
M  V30 9184 N 876.513 -0.788492 -1.36457 0
M  V30 9185 C 877.476 -0.192209 -2.28393 0
M  V30 9186 C 878.476 0.609916 -1.48784 0
M  V30 9187 O 879.666 0.431046 -1.68783 0
M  V30 9188 C 876.798 0.734096 -3.32902 0
M  V30 9189 H 877.991 -1.00284 -2.82636 0
M  V30 9190 H 875.544 -0.557852 -1.46006 0
M  V30 9191 H 876.279 1.5691 -2.83813 0
M  V30 9192 H 876.064 0.160875 -3.9177 0
M  V30 9193 H 877.554 1.1462 -4.01562 0
M  V30 9194 N 877.991 1.48044 -0.54043 0
M  V30 9195 C 879.239 2.02097 -0.0101367 0
M  V30 9196 C 879.56 1.41881 1.33771 0
M  V30 9197 O 878.83 0.587923 1.8687 0
M  V30 9198 H 877.41 0.747 -0.000758716 0
M  V30 9199 H 880.072 1.81639 -0.706634 0
M  V30 9200 H 879.168 3.11969 0.0904474 0
M  V30 9201 N 879.47 0.276058 1.55163 0
M  V30 9202 C 880.402 -0.644254 2.19959 0
M  V30 9203 C 881.415 -1.11675 1.18459 0
M  V30 9204 O 882.604 -1.0385 1.45181 0
M  V30 9205 C 879.704 -1.89093 2.81242 0
M  V30 9206 C 878.877 -1.56509 4.08441 0
M  V30 9207 C 877.936 -2.66433 4.53762 0
M  V30 9208 O 876.962 -2.32579 5.19515 0
M  V30 9209 N 878.164 -3.96509 4.23982 0
M  V30 9210 H 880.929 -0.0896808 2.99566 0
M  V30 9211 H 878.49 0.0971981 1.61608 0
M  V30 9212 H 880.482 -2.61929 3.08505 0
M  V30 9213 H 879.052 -2.35453 2.05622 0
M  V30 9214 H 878.272 -0.670522 3.88455 0
M  V30 9215 H 879.56 -1.32242 4.91314 0
M  V30 9216 H 878.958 -4.26834 3.71254 0
M  V30 9217 H 877.515 -4.6572 4.56014 0
M  V30 9218 N 880.948 -1.576 0.00335426 0
M  V30 9219 C 882.195 -1.90713 -0.680791 0
M  V30 9220 C 882.523 -0.877263 -1.73592 0
M  V30 9221 O 881.778 0.117497 -1.95347 0
M  V30 9222 C 882.077 -3.3058 -1.35837 0
M  V30 9223 C 881.743 -4.48786 -0.436111 0
M  V30 9224 C 880.405 -4.80855 -0.182195 0
M  V30 9225 C 882.757 -5.20821 0.198677 0
M  V30 9226 C 880.085 -5.8233 0.714747 0
M  V30 9227 C 882.437 -6.23252 1.08351 0
M  V30 9228 C 881.101 -6.53776 1.34658 0
M  V30 9229 H 880.371 -0.697869 -0.249119 0
M  V30 9230 H 883.018 -1.91407 0.0596011 0
M  V30 9231 H 881.323 -3.26026 -2.17289 0
M  V30 9232 H 883.02 -3.53462 -1.89383 0
M  V30 9233 H 879.61 -4.23731 -0.644186 0
M  V30 9234 H 883.794 -4.96298 0.0155259 0
M  V30 9235 H 879.05 -6.04339 0.926529 0
M  V30 9236 H 883.224 -6.78199 1.58172 0
M  V30 9237 H 880.851 -7.32225 2.04328 0
M  V30 9238 N 882.426 0.269451 -1.5528 0
M  V30 9239 C 883.672 1.00206 -1.76314 0
M  V30 9240 C 884.005 1.85812 -0.564581 0
M  V30 9241 O 883.28 1.89509 0.437769 0
M  V30 9242 C 883.563 1.88163 -3.07029 0
M  V30 9243 C 883.416 1.05527 -4.37246 0
M  V30 9244 C 884.735 2.8681 -3.33808 0
M  V30 9245 H 881.854 0.36288 -0.641473 0
M  V30 9246 H 884.496 0.274188 -1.88011 0
M  V30 9247 H 882.646 2.50224 -2.97187 0
M  V30 9248 H 884.318 0.455094 -4.5905 0
M  V30 9249 H 882.561 0.358842 -4.32313 0
M  V30 9250 H 883.232 1.70397 -5.25042 0
M  V30 9251 H 885.708 2.34884 -3.43466 0
M  V30 9252 H 884.584 3.45492 -4.26528 0
M  V30 9253 H 884.845 3.62118 -2.5362 0
M  V30 9254 N 883.904 1.48273 0.534124 0
M  V30 9255 C 885.153 1.55334 1.28663 0
M  V30 9256 C 885.466 0.230345 1.94239 0
M  V30 9257 O 886.672 0.179161 2.70908 0
M  V30 9258 C 885.128 2.73927 2.33435 0
M  V30 9259 C 884.736 4.12852 1.73947 0
M  V30 9260 C 886.48 2.90298 3.09722 0
M  V30 9261 C 884.387 5.22711 2.76636 0
M  V30 9262 H 883.317 0.578262 0.483869 0
M  V30 9263 H 885.968 1.74598 0.564602 0
M  V30 9264 H 884.35 2.48089 3.08655 0
M  V30 9265 H 885.524 4.48691 1.04944 0
M  V30 9266 H 883.839 4.01562 1.10167 0
M  V30 9267 H 886.436 3.69542 3.86449 0
M  V30 9268 H 886.779 1.99598 3.6533 0
M  V30 9269 H 887.312 3.16017 2.41616 0
M  V30 9270 H 884.051 6.15362 2.25852 0
M  V30 9271 H 883.571 4.91364 3.43979 0
M  V30 9272 H 885.25 5.50648 3.39699 0
M  V30 9273 N 885.382 -0.782676 1.36792 0
M  V30 9274 C 886.329 -1.89558 1.31667 0
M  V30 9275 C 887.299 -1.65076 0.184147 0
M  V30 9276 O 888.484 -1.87143 0.371753 0
M  V30 9277 C 885.624 -3.26469 1.11858 0
M  V30 9278 C 884.737 -3.62978 2.34245 0
M  V30 9279 C 883.872 -4.89041 2.07394 0
M  V30 9280 C 882.911 -5.18249 3.25706 0
M  V30 9281 N 882.048 -6.35497 2.98476 0
M  V30 9282 H 886.888 -1.93274 2.26824 0
M  V30 9283 H 884.425 -0.945057 1.12726 0
M  V30 9284 H 886.383 -4.05431 0.983968 0
M  V30 9285 H 885.013 -3.22158 0.203531 0
M  V30 9286 H 884.065 -2.79087 2.58485 0
M  V30 9287 H 885.377 -3.80507 3.22514 0
M  V30 9288 H 884.531 -5.75883 1.90901 0
M  V30 9289 H 883.27 -4.73594 1.16446 0
M  V30 9290 H 882.275 -4.29887 3.4275 0
M  V30 9291 H 883.5 -5.35611 4.1749 0
M  V30 9292 H 881.446 -6.21429 2.10146 0
M  V30 9293 H 881.363 -6.5339 3.80286 0
M  V30 9294 H 882.631 -7.25304 2.85577 0
M  V30 9295 N 886.86 -1.21182 -1.00761 0
M  V30 9296 C 887.79 -0.992773 -2.11344 0
M  V30 9297 C 888.771 0.0813618 -1.69905 0
M  V30 9298 O 889.956 -0.0779503 -1.94043 0
M  V30 9299 C 887.086 -0.553826 -3.42856 0
M  V30 9300 C 886.04 -1.57223 -3.98077 0
M  V30 9301 C 885.366 -0.989605 -5.25463 0
M  V30 9302 C 886.666 -2.95839 -4.30438 0
M  V30 9303 H 888.36 -1.91766 -2.29927 0
M  V30 9304 H 885.906 -0.923426 -1.10494 0
M  V30 9305 H 887.859 -0.387771 -4.19612 0
M  V30 9306 H 886.583 0.406702 -3.24058 0
M  V30 9307 H 885.242 -1.7258 -3.23437 0
M  V30 9308 H 884.89 -0.0208743 -5.02996 0
M  V30 9309 H 884.59 -1.66984 -5.63374 0
M  V30 9310 H 886.114 -0.834815 -6.04866 0
M  V30 9311 H 887.528 -2.8394 -4.98047 0
M  V30 9312 H 885.925 -3.60851 -4.79486 0
M  V30 9313 H 886.995 -3.46882 -3.38823 0
M  V30 9314 N 888.338 1.20213 -1.01915 0
M  V30 9315 C 889.566 1.93622 -0.729255 0
M  V30 9316 C 889.981 1.74923 0.710444 0
M  V30 9317 O 889.338 1.06484 1.48214 0
M  V30 9318 C 889.389 3.45651 -1.05865 0
M  V30 9319 O 889.11 3.63741 -2.44181 0
M  V30 9320 C 890.611 4.36201 -0.790176 0
M  V30 9321 H 887.831 0.615333 -0.267594 0
M  V30 9322 H 890.375 1.52633 -1.36101 0
M  V30 9323 H 888.53 3.84511 -0.47225 0
M  V30 9324 H 888.944 4.57702 -2.56143 0
M  V30 9325 H 890.418 5.41516 -1.07071 0
M  V30 9326 H 890.895 4.38334 0.275609 0
M  V30 9327 H 891.501 4.03008 -1.35885 0
M  V30 9328 N 889.816 0.795718 1.36037 0
M  V30 9329 C 890.766 0.171437 2.27355 0
M  V30 9330 C 891.75 -0.648346 1.47259 0
M  V30 9331 O 892.942 -0.507386 1.69572 0
M  V30 9332 C 890.071 -0.687876 3.36338 0
M  V30 9333 C 889.157 0.141041 4.23865 0
M  V30 9334 N 889.548 1.19868 4.91391 0
M  V30 9335 C 887.846 -0.0791045 4.4593 0
M  V30 9336 C 888.547 1.70382 5.56188 0
M  V30 9337 N 887.523 1.01202 5.34097 0
M  V30 9338 H 891.325 0.980846 2.7705 0
M  V30 9339 H 888.839 0.635798 1.49437 0
M  V30 9340 H 890.836 -1.15107 4.00694 0
M  V30 9341 H 889.496 -1.49576 2.88196 0
M  V30 9342 H 890.507 1.58119 4.93172 0
M  V30 9343 H 887.184 -0.856993 4.0861 0
M  V30 9344 H 888.574 2.58715 6.20093 0
M  V30 9345 N 891.294 -1.47756 0.548274 0
M  V30 9346 C 892.571 -1.9555 -0.0443603 0
M  V30 9347 C 892.951 -1.49079 -1.49462 0
M  V30 9348 O 892.299 -0.725538 -2.16675 0
M  V30 9349 C 892.509 -3.48879 0.0918425 0
M  V30 9350 C 893.857 -4.2456 -0.0580879 0
M  V30 9351 O 894.881 -3.56195 0.018946 0
M  V30 9352 O 893.74 -5.46048 -0.222261 0
M  V30 9353 H 890.834 -0.824106 -0.0691235 0
M  V30 9354 H 893.38 -1.58196 0.614166 0
M  V30 9355 H 892.152 -3.7548 1.10137 0
M  V30 9356 H 891.775 -3.92975 -0.604704 0
M  V30 9357 N 892.772 -0.284283 -1.55015 0
M  V30 9358 C 894.018 0.330352 -2.00091 0
M  V30 9359 C 894.351 1.54814 -1.17244 0
M  V30 9360 O 893.626 1.92954 -0.244753 0
M  V30 9361 C 893.909 0.703492 -3.53161 0
M  V30 9362 C 893.762 -0.522275 -4.46758 0
M  V30 9363 C 895.081 1.53645 -4.12409 0
M  V30 9364 H 892.2 0.118599 -0.727395 0
M  V30 9365 H 894.842 -0.393054 -1.8589 0
M  V30 9366 H 892.992 1.31983 -3.65394 0
M  V30 9367 H 894.664 -1.16082 -4.46456 0
M  V30 9368 H 892.907 -1.15865 -4.1804 0
M  V30 9369 H 893.578 -0.217295 -5.51572 0
M  V30 9370 H 896.054 1.01583 -4.0351 0
M  V30 9371 H 894.93 1.76633 -5.19704 0
M  V30 9372 H 895.191 2.5204 -3.63219 0
M  V30 9373 N 894.251 1.57596 -0.0117121 0
M  V30 9374 C 895.161 2.12596 0.991964 0
M  V30 9375 C 896.177 1.07399 1.36899 0
M  V30 9376 O 897.353 1.39365 1.45394 0
M  V30 9377 C 894.418 2.62796 2.2614 0
M  V30 9378 C 893.479 3.8264 1.94642 0
M  V30 9379 C 892.712 4.30435 3.15533 0
M  V30 9380 O 892.935 3.77495 4.27614 0
M  V30 9381 O 891.869 5.22469 2.98847 0
M  V30 9382 H 895.695 2.98597 0.554371 0
M  V30 9383 H 893.28 1.47947 0.207839 0
M  V30 9384 H 895.162 2.9523 3.00695 0
M  V30 9385 H 893.837 1.79886 2.69114 0
M  V30 9386 H 892.744 3.5516 1.17526 0
M  V30 9387 H 894.077 4.66658 1.56496 0
M  V30 9388 N 895.729 -0.261212 1.5542 0
M  V30 9389 C 896.659 -1.32712 1.92119 0
M  V30 9390 C 897.64 -1.50934 0.784406 0
M  V30 9391 O 898.825 -1.63781 1.04352 0
M  V30 9392 C 895.955 -2.68453 2.20341 0
M  V30 9393 C 894.909 -2.64947 3.36136 0
M  V30 9394 C 894.235 -4.04349 3.49865 0
M  V30 9395 C 895.535 -2.23182 4.72215 0
M  V30 9396 H 897.229 -1.02245 2.81401 0
M  V30 9397 H 894.775 -0.490406 1.35392 0
M  V30 9398 H 896.728 -3.43144 2.44603 0
M  V30 9399 H 895.452 -3.00527 1.27871 0
M  V30 9400 H 894.111 -1.92714 3.11861 0
M  V30 9401 H 893.759 -4.33665 2.5484 0
M  V30 9402 H 893.459 -4.02895 4.27726 0
M  V30 9403 H 894.983 -4.80761 3.76432 0
M  V30 9404 H 896.397 -2.87599 4.95943 0
M  V30 9405 H 894.794 -2.32867 5.53076 0
M  V30 9406 H 895.864 -1.18327 4.70241 0
M  V30 9407 N 897.207 -1.48554 -0.526253 0
M  V30 9408 C 898.155 -1.63804 -1.65139 0
M  V30 9409 C 899.149 -0.504398 -1.61716 0
M  V30 9410 O 900.355 -0.683241 -1.66529 0
M  V30 9411 H 896.73 -0.516071 -0.546969 0
M  V30 9412 H 898.701 -2.58294 -1.49421 0
M  V30 9413 C 897.45 -1.69843 -3.03395 0
M  V30 9414 H 896.773 -2.56438 -3.06724 0
M  V30 9415 H 898.213 -1.84555 -3.81727 0
M  V30 9416 C 896.672 -0.437875 -3.34042 0
M  V30 9417 O 897.202 0.447604 -3.99198 0
M  V30 9418 N 895.408 -0.308444 -2.88958 0
M  V30 9419 H 894.955 -1.02998 -2.36112 0
M  V30 9420 H 894.913 0.533952 -3.09833 0
M  V30 9421 N 898.685 0.775411 -1.37205 0
M  V30 9422 C 899.615 1.90258 -1.35367 0
M  V30 9423 C 900.596 1.68634 -0.222864 0
M  V30 9424 O 901.781 1.89545 -0.422659 0
M  V30 9425 C 898.911 3.27488 -1.15623 0
M  V30 9426 C 897.865 3.63668 -2.25676 0
M  V30 9427 C 897.191 4.994 -1.91059 0
M  V30 9428 C 898.491 3.70797 -3.67841 0
M  V30 9429 H 900.185 1.92053 -2.29687 0
M  V30 9430 H 897.731 0.922597 -1.10563 0
M  V30 9431 H 899.684 4.05976 -1.12968 0
M  V30 9432 H 898.408 3.26117 -0.177573 0
M  V30 9433 H 897.067 2.87486 -2.2748 0
M  V30 9434 H 896.715 4.94565 -0.917324 0
M  V30 9435 H 896.415 5.24576 -2.64751 0
M  V30 9436 H 897.939 5.80291 -1.89985 0
M  V30 9437 H 899.353 4.39444 -3.68187 0
M  V30 9438 H 897.75 4.07468 -4.40556 0
M  V30 9439 H 898.82 2.71549 -4.01732 0
M  V30 9440 N 900.163 1.21714 1.00117 0
M  V30 9441 C 901.44 0.945391 1.71236 0
M  V30 9442 C 901.82 -0.541772 2.0403 0
M  V30 9443 O 901.168 -1.50763 1.71705 0
M  V30 9444 C 901.378 1.83444 2.96899 0
M  V30 9445 C 902.726 2.08558 3.69849 0
M  V30 9446 O 903.75 1.80824 3.06889 0
M  V30 9447 O 902.609 2.55485 4.83104 0
M  V30 9448 H 899.703 0.354834 0.747009 0
M  V30 9449 H 902.249 1.32661 1.05825 0
M  V30 9450 H 901.021 2.84075 2.69105 0
M  V30 9451 H 900.644 1.45428 3.70049 0
M  V30 9452 N 901.641 -1.19671 1.02551 0
M  V30 9453 C 902.871 -1.92952 0.738441 0
M  V30 9454 C 903.279 -1.75528 -0.706155 0
M  V30 9455 O 902.622 -1.0723 -1.49156 0
M  V30 9456 C 902.684 -3.45149 1.00562 0
M  V30 9457 C 902.348 -3.86341 2.44109 0
M  V30 9458 C 903.345 -3.91374 3.42231 0
M  V30 9459 C 901.03 -4.18076 2.7842 0
M  V30 9460 C 903.024 -4.27568 4.7272 0
M  V30 9461 C 900.711 -4.53943 4.0912 0
M  V30 9462 C 901.709 -4.58663 5.06081 0
M  V30 9463 O 901.397 -4.93701 6.3444 0
M  V30 9464 H 901.129 -0.619836 0.269776 0
M  V30 9465 H 903.683 -1.52852 1.37206 0
M  V30 9466 H 901.913 -3.85416 0.314849 0
M  V30 9467 H 903.602 -3.99664 0.708742 0
M  V30 9468 H 904.368 -3.67011 3.17061 0
M  V30 9469 H 900.247 -4.13589 2.03631 0
M  V30 9470 H 903.791 -4.31166 5.48399 0
M  V30 9471 H 899.688 -4.77764 4.34064 0
M  V30 9472 H 900.456 -5.11662 6.38862 0
M  V30 9473 N 903.119 -0.802921 -1.35613 0
M  V30 9474 C 904.029 -0.212177 -2.33639 0
M  V30 9475 C 905.045 0.642871 -1.61689 0
M  V30 9476 O 906.221 0.555485 -1.93588 0
M  V30 9477 C 903.286 0.632406 -3.40883 0
M  V30 9478 C 902.347 -0.242708 -4.28613 0
M  V30 9479 C 901.58 0.56166 -5.30736 0
M  V30 9480 O 901.803 1.79664 -5.41366 0
M  V30 9481 O 900.737 -0.0455387 -6.01883 0
M  V30 9482 H 904.563 -1.023 -2.85952 0
M  V30 9483 H 902.148 -0.564636 -1.38319 0
M  V30 9484 H 904.03 1.11358 -4.0642 0
M  V30 9485 H 902.705 1.42089 -2.90848 0
M  V30 9486 H 901.612 -0.77094 -3.6607 0
M  V30 9487 H 902.945 -0.995046 -4.82037 0
M  V30 9488 N 904.597 1.47463 -0.556102 0
M  V30 9489 C 906.013 1.58134 -0.21579 0
M  V30 9490 C 906.213 1.55486 1.28166 0
M  V30 9491 O 905.269 1.45768 2.06174 0
M  V30 9492 C 906.582 2.88686 -0.841464 0
M  V30 9493 C 908.13 3.02268 -0.812591 0
M  V30 9494 C 908.605 4.35518 -1.41731 0
M  V30 9495 N 910.096 4.42151 -1.38045 0
M  V30 9496 C 910.831 5.43817 -1.81799 0
M  V30 9497 N 910.327 6.52299 -2.33404 0
M  V30 9498 N 912.12 5.34855 -1.72877 0
M  V30 9499 H 904.271 1.47428 -1.52901 0
M  V30 9500 H 906.534 0.701586 -0.637559 0
M  V30 9501 H 906.24 2.96358 -1.8938 0
M  V30 9502 H 906.114 3.7572 -0.333846 0
M  V30 9503 H 908.501 2.94194 0.231056 0
M  V30 9504 H 908.582 2.16779 -1.35796 0
M  V30 9505 H 908.226 4.44348 -2.46002 0
M  V30 9506 H 908.156 5.19737 -0.847402 0
M  V30 9507 H 910.647 3.64348 -1.00296 0
M  V30 9508 H 910.96 7.26047 -2.64717 0
M  V30 9509 H 909.305 6.53192 -2.37414 0
M  V30 9510 H 912.496 4.49004 -1.32338 0
M  V30 9511 H 912.669 6.13949 -2.07294 0
M  V30 9512 N 906.075 0.2925 1.54862 0
M  V30 9513 C 907.305 -0.321646 2.04081 0
M  V30 9514 C 907.713 -1.48712 1.16967 0
M  V30 9515 O 907.056 -1.82755 0.18609 0
M  V30 9516 C 907.118 -0.848678 3.49339 0
M  V30 9517 C 906.782 0.190416 4.56603 0
M  V30 9518 C 907.779 1.01595 5.09877 0
M  V30 9519 C 905.464 0.329666 5.01217 0
M  V30 9520 C 907.458 1.96676 6.06298 0
M  V30 9521 C 905.145 1.28393 5.9746 0
M  V30 9522 C 906.143 2.10097 6.49883 0
M  V30 9523 O 905.831 3.03907 7.44242 0
M  V30 9524 H 905.563 -0.075098 0.671816 0
M  V30 9525 H 908.117 0.427531 2.00901 0
M  V30 9526 H 906.347 -1.64823 3.49815 0
M  V30 9527 H 908.036 -1.37779 3.81801 0
M  V30 9528 H 908.802 0.919197 4.7621 0
M  V30 9529 H 904.681 -0.296317 4.60047 0
M  V30 9530 H 908.225 2.60488 6.47141 0
M  V30 9531 H 904.122 1.38144 6.30545 0
M  V30 9532 H 904.89 2.98787 7.62016 0
M  V30 9533 N 907.553 -1.57587 0.0200696 0
M  V30 9534 C 908.501 -2.10814 -0.982868 0
M  V30 9535 C 909.495 -1.03263 -1.34287 0
M  V30 9536 O 910.701 -1.21708 -1.32617 0
M  V30 9537 H 907.076 -0.673409 -0.334701 0
M  V30 9538 H 909.047 -2.94034 -0.50856 0
M  V30 9539 C 907.796 -2.64301 -2.25921 0
M  V30 9540 H 907.119 -3.46703 -1.99091 0
M  V30 9541 H 908.559 -3.052 -2.94328 0
M  V30 9542 C 907.018 -1.56628 -2.98277 0
M  V30 9543 O 907.548 -0.960825 -3.9004 0
M  V30 9544 N 905.754 -1.28889 -2.60453 0
M  V30 9545 H 905.301 -1.7831 -1.85912 0
M  V30 9546 H 905.259 -0.570697 -3.09177 0
M  V30 9547 N 909.032 0.252966 -1.55557 0
M  V30 9548 C 910.257 1.0038 -1.8149 0
M  V30 9549 C 910.682 1.78397 -0.596318 0
M  V30 9550 O 910.04 1.7551 0.454535 0
M  V30 9551 C 910.088 1.9222 -3.05096 0
M  V30 9552 O 909.192 3.01302 -2.81587 0
M  V30 9553 H 908.533 0.285949 -0.599274 0
M  V30 9554 H 911.063 0.275795 -2.02733 0
M  V30 9555 H 911.073 2.338 -3.34368 0
M  V30 9556 H 909.748 1.34852 -3.93431 0
M  V30 9557 H 908.325 2.63894 -2.63466 0
M  V30 9558 N 910.51 1.48831 0.518367 0
M  V30 9559 C 911.442 1.60317 1.63802 0
M  V30 9560 C 912.455 0.486771 1.55352 0
M  V30 9561 O 913.644 0.758111 1.61601 0
M  V30 9562 C 910.744 1.52771 3.02513 0
M  V30 9563 C 909.917 2.79649 3.36326 0
M  V30 9564 C 908.976 2.65396 4.54369 0
M  V30 9565 O 908.002 3.39304 4.57013 0
M  V30 9566 N 909.204 1.75784 5.53245 0
M  V30 9567 H 911.969 2.56878 1.54383 0
M  V30 9568 H 909.53 1.45701 0.705889 0
M  V30 9569 H 911.522 1.40914 3.79375 0
M  V30 9570 H 910.092 0.641381 3.05949 0
M  V30 9571 H 909.312 3.05985 2.48529 0
M  V30 9572 H 910.6 3.63799 3.55707 0
M  V30 9573 H 909.998 1.14961 5.53896 0
M  V30 9574 H 908.555 1.69859 6.29278 0
M  V30 9575 N 911.988 -0.768124 1.37614 0
M  V30 9576 C 912.918 -1.89537 1.36374 0
M  V30 9577 C 913.899 -1.68513 0.231803 0
M  V30 9578 O 915.084 -1.89318 0.432705 0
M  V30 9579 C 912.214 -3.26871 1.17358 0
M  V30 9580 C 911.168 -3.62466 2.27602 0
M  V30 9581 C 910.494 -4.9838 1.93705 0
M  V30 9582 C 911.794 -3.68841 3.69802 0
M  V30 9583 H 913.488 -1.90832 2.30702 0
M  V30 9584 H 911.034 -0.91672 1.11051 0
M  V30 9585 H 912.987 -4.05371 1.15119 0
M  V30 9586 H 911.711 -3.26018 0.194865 0
M  V30 9587 H 910.37 -2.86276 2.29002 0
M  V30 9588 H 910.018 -4.94071 0.943539 0
M  V30 9589 H 909.718 -5.23165 2.6753 0
M  V30 9590 H 911.242 -5.79276 1.93059 0
M  V30 9591 H 912.656 -4.37485 3.70513 0
M  V30 9592 H 911.053 -4.05126 4.42711 0
M  V30 9593 H 912.123 -2.69415 4.03167 0
M  V30 9594 N 913.466 -1.22244 -0.994698 0
M  V30 9595 C 914.396 -1.01513 -2.10279 0
M  V30 9596 C 915.377 0.0633365 -1.69982 0
M  V30 9597 O 916.562 -0.0985268 -1.9395 0
M  V30 9598 C 913.692 -0.59016 -3.42249 0
M  V30 9599 C 912.646 -1.61436 -3.96387 0
M  V30 9600 C 911.972 -1.04528 -5.24383 0
M  V30 9601 C 913.272 -3.00388 -4.27276 0
M  V30 9602 H 914.966 -1.94194 -2.2788 0
M  V30 9603 H 912.512 -0.935094 -1.09508 0
M  V30 9604 H 914.465 -0.432254 -4.19177 0
M  V30 9605 H 913.189 0.372308 -3.24471 0
M  V30 9606 H 911.848 -1.76001 -3.21589 0
M  V30 9607 H 911.496 -0.0742225 -5.02945 0
M  V30 9608 H 911.196 -1.72949 -5.61571 0
M  V30 9609 H 912.72 -0.898922 -6.03947 0
M  V30 9610 H 914.134 -2.89207 -4.95007 0
M  V30 9611 H 912.531 -3.65916 -4.75631 0
M  V30 9612 H 913.601 -3.50456 -3.35125 0
M  V30 9613 N 914.944 1.19125 -1.03184 0
M  V30 9614 C 916.169 1.93379 -0.749628 0
M  V30 9615 C 916.594 1.75153 0.685785 0
M  V30 9616 O 915.952 1.05579 1.47386 0
M  V30 9617 C 916 3.43101 -1.1097 0
M  V30 9618 O 915.104 4.11758 -0.230053 0
M  V30 9619 H 914.445 0.603605 -0.276689 0
M  V30 9620 H 916.975 1.51116 -1.37931 0
M  V30 9621 H 916.985 3.93778 -1.06785 0
M  V30 9622 H 915.66 3.55688 -2.15544 0
M  V30 9623 H 914.237 3.7143 -0.330748 0
M  V30 9624 N 916.422 0.810101 1.35185 0
M  V30 9625 C 917.669 0.392117 1.98667 0
M  V30 9626 C 917.997 -1.0416 1.64259 0
M  V30 9627 O 917.252 -1.73795 0.899647 0
M  V30 9628 C 917.551 0.526561 3.535 0
M  V30 9629 C 917.217 1.92411 4.07785 0
M  V30 9630 C 915.879 2.30644 4.22323 0
M  V30 9631 C 918.231 2.83827 4.37141 0
M  V30 9632 C 915.559 3.59655 4.63536 0
M  V30 9633 C 917.911 4.12287 4.79794 0
M  V30 9634 C 916.575 4.50515 4.92536 0
M  V30 9635 H 915.845 0.143486 0.726975 0
M  V30 9636 H 918.492 1.03157 1.61341 0
M  V30 9637 H 916.797 -0.19633 3.91308 0
M  V30 9638 H 918.494 0.183871 4.00578 0
M  V30 9639 H 915.084 1.61707 3.96924 0
M  V30 9640 H 919.268 2.55536 4.25459 0
M  V30 9641 H 914.524 3.89117 4.71591 0
M  V30 9642 H 918.698 4.83221 5.01468 0
M  V30 9643 H 916.325 5.50535 5.24229 0
M  V30 9644 N 917.9 -1.47166 0.563914 0
M  V30 9645 C 919.146 -2.02756 0.0424338 0
M  V30 9646 C 919.479 -1.43662 -1.3067 0
M  V30 9647 O 918.754 -0.594676 -1.85186 0
M  V30 9648 C 919.037 -3.60074 -0.0434793 0
M  V30 9649 C 918.89 -4.29587 1.33323 0
M  V30 9650 C 920.209 -4.336 -0.753568 0
M  V30 9651 H 917.328 -0.736806 0.0168946 0
M  V30 9652 H 919.97 -1.75521 0.727496 0
M  V30 9653 H 918.12 -3.83409 -0.626906 0
M  V30 9654 H 919.792 -4.17573 1.96037 0
M  V30 9655 H 918.035 -3.8968 1.9061 0
M  V30 9656 H 918.706 -5.38218 1.22576 0
M  V30 9657 H 921.182 -4.15299 -0.258126 0
M  V30 9658 H 920.058 -5.43291 -0.782659 0
M  V30 9659 H 920.319 -4.03302 -1.81108 0
M  V30 9660 N 919.378 -0.300708 -1.54705 0
M  V30 9661 C 920.794 0.0526874 -1.59513 0
M  V30 9662 C 920.994 1.52444 -1.31769 0
M  V30 9663 O 920.05 2.27716 -1.09096 0
M  V30 9664 C 921.363 -0.344989 -2.98714 0
M  V30 9665 C 922.911 -0.29373 -3.11619 0
M  V30 9666 C 923.386 -0.666225 -4.53129 0
M  V30 9667 N 924.877 -0.618749 -4.59049 0
M  V30 9668 C 925.612 -0.879447 -5.66616 0
M  V30 9669 N 925.108 -1.2061 -6.82221 0
M  V30 9670 N 926.901 -0.806528 -5.56284 0
M  V30 9671 H 919.052 -1.25988 -1.71 0
M  V30 9672 H 921.315 -0.510758 -0.798643 0
M  V30 9673 H 921.021 -1.36953 -3.2394 0
M  V30 9674 H 920.895 0.301507 -3.75993 0
M  V30 9675 H 923.282 0.72156 -2.86142 0
M  V30 9676 H 923.363 -0.974844 -2.36496 0
M  V30 9677 H 923.007 -1.67932 -4.79334 0
M  V30 9678 H 922.937 0.0369575 -5.26587 0
M  V30 9679 H 925.428 -0.377202 -3.76013 0
M  V30 9680 H 925.741 -1.391 -7.60178 0
M  V30 9681 H 924.086 -1.24413 -6.83774 0
M  V30 9682 H 927.277 -0.550993 -4.64846 0
M  V30 9683 H 927.45 -1.01307 -6.40032 0
M  V30 9684 N 920.856 1.57574 -0.0284266 0
M  V30 9685 C 922.133 1.83064 0.688979 0
M  V30 9686 C 922.513 0.91219 1.90374 0
M  V30 9687 O 921.861 -0.0323672 2.28477 0
M  V30 9688 C 922.071 3.32262 1.06785 0
M  V30 9689 C 923.419 3.98717 1.45978 0
M  V30 9690 O 924.443 3.36753 1.16085 0
M  V30 9691 O 923.302 5.07927 2.01673 0
M  V30 9692 H 920.396 0.7548 0.337944 0
M  V30 9693 H 922.942 1.69607 -0.0560555 0
M  V30 9694 H 921.714 3.90772 0.203235 0
M  V30 9695 H 921.337 3.50823 1.87107 0
M  V30 9696 N 922.334 -0.244713 1.55689 0
M  V30 9697 C 923.264 -1.30667 1.93516 0
M  V30 9698 C 924.245 -1.50094 0.800371 0
M  V30 9699 O 925.43 -1.62665 1.06083 0
M  V30 9700 C 922.56 -2.66101 2.23176 0
M  V30 9701 C 921.514 -2.61366 3.38927 0
M  V30 9702 C 920.84 -4.00616 3.54134 0
M  V30 9703 C 922.14 -2.18161 4.74555 0
M  V30 9704 H 923.834 -0.992546 2.82469 0
M  V30 9705 H 921.38 -0.476018 1.35905 0
M  V30 9706 H 923.333 -3.4053 2.48228 0
M  V30 9707 H 922.057 -2.99154 1.31051 0
M  V30 9708 H 920.716 -1.89395 3.13887 0
M  V30 9709 H 920.364 -4.30938 2.59426 0
M  V30 9710 H 920.064 -3.98335 4.31975 0
M  V30 9711 H 921.588 -4.76741 3.8151 0
M  V30 9712 H 923.002 -2.82323 4.98965 0
M  V30 9713 H 921.399 -2.26988 5.55515 0
M  V30 9714 H 922.469 -1.13333 4.7147 0
M  V30 9715 N 923.813 -1.49104 -0.510467 0
M  V30 9716 C 924.761 -1.65547 -1.63392 0
M  V30 9717 C 925.755 -0.521522 -1.61172 0
M  V30 9718 O 926.961 -0.700865 -1.65795 0
M  V30 9719 H 923.336 -0.521843 -0.541464 0
M  V30 9720 H 925.307 -2.59864 -1.46673 0
M  V30 9721 C 924.056 -1.73051 -3.01577 0
M  V30 9722 H 923.379 -2.59676 -3.03987 0
M  V30 9723 H 924.819 -1.88594 -3.79748 0
M  V30 9724 C 923.278 -0.47328 -3.33559 0
M  V30 9725 O 923.808 0.405239 -3.99651 0
M  V30 9726 N 922.014 -0.339074 -2.88615 0
M  V30 9727 H 921.561 -1.05497 -2.35007 0
M  V30 9728 H 921.519 0.501061 -3.10382 0
M  V30 9729 N 925.291 0.760815 -1.38019 0
M  V30 9730 C 926.223 1.88387 -1.30549 0
M  V30 9731 C 927.236 1.61319 -0.219119 0
M  V30 9732 O 928.425 1.72033 -0.476122 0
M  V30 9733 C 925.525 3.23863 -0.998291 0
M  V30 9734 C 924.698 3.78492 -2.19232 0
M  V30 9735 C 923.757 4.92468 -1.85368 0
M  V30 9736 O 922.783 5.0748 -2.57785 0
M  V30 9737 N 923.985 5.74901 -0.804319 0
M  V30 9738 H 926.75 1.95308 -2.27322 0
M  V30 9739 H 924.311 0.940423 -1.31786 0
M  V30 9740 H 926.303 3.97644 -0.7524 0
M  V30 9741 H 924.873 3.12374 -0.11877 0
M  V30 9742 H 924.093 2.96361 -2.5993 0
M  V30 9743 H 925.381 4.11722 -2.98935 0
M  V30 9744 H 924.779 5.65333 -0.203628 0
M  V30 9745 H 923.336 6.48861 -0.618301 0
M  V30 9746 N 926.769 1.22769 0.988202 0
M  V30 9747 C 927.999 1.07998 1.76125 0
M  V30 9748 C 928.407 -0.372062 1.85506 0
M  V30 9749 O 927.75 -1.26946 1.3278 0
M  V30 9750 C 927.812 1.6219 3.20834 0
M  V30 9751 C 927.476 3.1086 3.34986 0
M  V30 9752 C 928.473 4.08239 3.21927 0
M  V30 9753 C 926.158 3.50411 3.59886 0
M  V30 9754 C 928.152 5.43154 3.33561 0
M  V30 9755 C 925.839 4.85473 3.71159 0
M  V30 9756 C 926.837 5.81653 3.58006 0
M  V30 9757 O 926.525 7.14263 3.68895 0
M  V30 9758 H 926.257 0.378937 0.559806 0
M  V30 9759 H 928.811 1.62925 1.25078 0
M  V30 9760 H 927.041 1.01676 3.73094 0
M  V30 9761 H 928.73 1.43011 3.79872 0
M  V30 9762 H 929.496 3.79025 3.02597 0
M  V30 9763 H 925.375 2.76068 3.69198 0
M  V30 9764 H 928.919 6.18207 3.23211 0
M  V30 9765 H 924.816 5.14365 3.89998 0
M  V30 9766 H 925.584 7.21906 3.85739 0
M  V30 9767 N 928.247 -1.18576 1.03814 0
M  V30 9768 C 929.663 -1.4051 0.756909 0
M  V30 9769 C 929.863 -1.9057 -0.654631 0
M  V30 9770 O 928.919 -2.0884 -1.41922 0
M  V30 9771 C 930.232 -2.4081 1.80087 0
M  V30 9772 C 931.78 -2.54541 1.82148 0
M  V30 9773 C 932.255 -3.58102 2.85529 0
M  V30 9774 N 933.746 -3.65607 2.84404 0
M  V30 9775 C 934.481 -4.45458 3.61047 0
M  V30 9776 N 933.977 -5.28937 4.47434 0
M  V30 9777 N 935.77 -4.40196 3.49548 0
M  V30 9778 H 927.921 -0.844075 1.94908 0
M  V30 9779 H 930.184 -0.433287 0.843188 0
M  V30 9780 H 929.89 -2.1107 2.81322 0
M  V30 9781 H 929.764 -3.4012 1.63089 0
M  V30 9782 H 932.151 -2.83598 0.815855 0
M  V30 9783 H 932.232 -1.55352 2.03223 0
M  V30 9784 H 931.876 -3.29786 3.86269 0
M  V30 9785 H 931.806 -4.56963 2.6171 0
M  V30 9786 H 934.297 -3.05994 2.21756 0
M  V30 9787 H 934.61 -5.8701 5.02632 0
M  V30 9788 H 932.955 -5.28366 4.51503 0
M  V30 9789 H 936.146 -3.74026 2.81464 0
M  V30 9790 H 936.319 -5.02186 4.09528 0
M  V30 9791 N 929.725 -0.817259 -1.34754 0
M  V30 9792 C 930.688 -0.240611 -2.27934 0
M  V30 9793 C 931.688 0.578219 -1.50044 0
M  V30 9794 O 932.878 0.395148 -1.69659 0
M  V30 9795 C 930.01 0.663318 -3.34384 0
M  V30 9796 H 931.203 -1.06257 -2.80445 0
M  V30 9797 H 928.756 -0.588697 -1.4479 0
M  V30 9798 H 929.491 1.50855 -2.87077 0
M  V30 9799 H 929.276 0.0777388 -3.92023 0
M  V30 9800 H 930.766 1.06076 -4.03903 0
M  V30 9801 N 931.203 1.46865 -0.571711 0
M  V30 9802 C 932.48 1.95596 0.0132445 0
M  V30 9803 C 932.86 1.51438 1.47071 0
M  V30 9804 O 932.208 0.759917 2.15494 0
M  V30 9805 C 932.418 3.48689 -0.147335 0
M  V30 9806 C 933.766 4.24599 -0.00946329 0
M  V30 9807 O 934.79 3.5612 -0.0756112 0
M  V30 9808 O 933.649 5.46332 0.135361 0
M  V30 9809 H 930.743 0.825102 0.0560039 0
M  V30 9810 H 933.289 1.57199 -0.639256 0
M  V30 9811 H 932.061 3.73681 -1.16096 0
M  V30 9812 H 931.684 3.93887 0.542109 0
M  V30 9813 N 932.681 0.308908 1.54543 0
M  V30 9814 C 933.93 -0.298854 1.99474 0
M  V30 9815 C 934.243 -1.54393 1.20093 0
M  V30 9816 O 935.449 -2.22677 1.55329 0
M  V30 9817 C 933.905 -0.58303 3.55146 0
M  V30 9818 C 933.513 0.644157 4.43345 0
M  V30 9819 C 935.257 -1.15155 4.08582 0
M  V30 9820 C 933.164 0.332694 5.90463 0
M  V30 9821 H 932.094 -0.115445 0.74511 0
M  V30 9822 H 934.745 0.418848 1.78656 0
M  V30 9823 H 933.127 -1.36053 3.71894 0
M  V30 9824 H 934.301 1.42012 4.38371 0
M  V30 9825 H 932.616 1.13186 4.00722 0
M  V30 9826 H 935.213 -1.39896 5.16075 0
M  V30 9827 H 935.556 -2.09632 3.59667 0
M  V30 9828 H 936.089 -0.435571 3.95408 0
M  V30 9829 H 932.828 1.24624 6.43544 0
M  V30 9830 H 932.348 -0.405844 5.98425 0
M  V30 9831 H 934.027 -0.0628545 6.46969 0
M  V30 9832 N 934.159 -1.57557 0.0367827 0
M  V30 9833 C 935.106 -2.10679 -0.942499 0
M  V30 9834 C 936.076 -1.01068 -1.31812 0
M  V30 9835 O 937.261 -1.28533 -1.41011 0
M  V30 9836 C 934.401 -2.64467 -2.21701 0
M  V30 9837 C 933.514 -3.88114 -1.89715 0
M  V30 9838 C 932.649 -4.30268 -3.11518 0
M  V30 9839 C 931.688 -5.46652 -2.75387 0
M  V30 9840 N 930.825 -5.83927 -3.89838 0
M  V30 9841 H 935.665 -2.94066 -0.482588 0
M  V30 9842 H 933.202 -1.45344 -0.226597 0
M  V30 9843 H 935.16 -2.93745 -2.96259 0
M  V30 9844 H 933.79 -1.83898 -2.65295 0
M  V30 9845 H 932.842 -3.65516 -1.05366 0
M  V30 9846 H 934.154 -4.72743 -1.5911 0
M  V30 9847 H 933.308 -4.61023 -3.94389 0
M  V30 9848 H 932.047 -3.44421 -3.4529 0
M  V30 9849 H 931.052 -5.15583 -1.90929 0
M  V30 9850 H 932.277 -6.34204 -2.42822 0
M  V30 9851 H 930.223 -5.01035 -4.23438 0
M  V30 9852 H 930.14 -6.63214 -3.62883 0
M  V30 9853 H 931.408 -6.19291 -4.73391 0
M  V30 9854 N 935.637 0.236453 -1.55816 0
M  V30 9855 C 936.547 1.31418 -1.94336 0
M  V30 9856 C 937.563 1.52095 -0.845164 0
M  V30 9857 O 938.739 1.65515 -1.14746 0
M  V30 9858 C 935.804 2.6468 -2.23932 0
M  V30 9859 C 934.865 2.52435 -3.47239 0
M  V30 9860 C 934.098 3.79342 -3.75414 0
M  V30 9861 O 934.321 4.81694 -3.05495 0
M  V30 9862 O 933.255 3.77347 -4.68927 0
M  V30 9863 H 937.081 1.01739 -2.86152 0
M  V30 9864 H 934.666 0.438084 -1.42833 0
M  V30 9865 H 936.548 3.4341 -2.44228 0
M  V30 9866 H 935.223 2.94071 -1.35292 0
M  V30 9867 H 934.13 1.71955 -3.32238 0
M  V30 9868 H 935.463 2.27987 -4.36214 0
M  V30 9869 N 937.115 1.49373 0.502552 0
M  V30 9870 C 938.048 1.60529 1.6219 0
M  V30 9871 C 939.026 0.454431 1.56121 0
M  V30 9872 O 940.21 0.669768 1.762 0
M  V30 9873 C 937.337 1.55879 3.00698 0
M  V30 9874 C 936.383 2.76143 3.25034 0
M  V30 9875 S 937.216 4.37831 3.08325 0
M  V30 9876 C 938.372 4.35824 4.49231 0
M  V30 9877 H 938.605 2.55219 1.52482 0
M  V30 9878 H 936.138 1.38244 0.687594 0
M  V30 9879 H 938.096 1.53882 3.80566 0
M  V30 9880 H 936.757 0.624791 3.07823 0
M  V30 9881 H 935.95 2.69104 4.26144 0
M  V30 9882 H 935.552 2.75544 2.52886 0
M  V30 9883 H 937.844 4.07447 5.41288 0
M  V30 9884 H 938.787 5.37206 4.6132 0
M  V30 9885 H 939.195 3.65923 4.29838 0
M  V30 9886 N 938.594 -0.753485 1.38421 0
M  V30 9887 C 939.842 -1.50962 1.34368 0
M  V30 9888 C 940.163 -1.94889 -0.0656895 0
M  V30 9889 O 939.433 -1.67652 -1.01339 0
M  V30 9890 H 938.013 -0.559967 0.494415 0
M  V30 9891 H 940.675 -0.895665 1.73101 0
M  V30 9892 H 939.771 -2.40048 1.99458 0
M  V30 9893 N 940.072 -1.23292 -0.981677 0
M  V30 9894 C 941.002 -1.03738 -2.09191 0
M  V30 9895 C 941.983 0.0453041 -1.7004 0
M  V30 9896 O 943.168 -0.119092 -1.93834 0
M  V30 9897 C 940.298 -0.626426 -3.41604 0
M  V30 9898 C 939.252 -1.65631 -3.94652 0
M  V30 9899 C 938.578 -1.10084 -5.23245 0
M  V30 9900 C 939.878 -3.04903 -4.24066 0
M  V30 9901 H 941.572 -1.966 -2.25807 0
M  V30 9902 H 939.118 -0.946656 -1.0851 0
M  V30 9903 H 941.071 -0.476689 -4.18695 0
M  V30 9904 H 939.795 0.337873 -3.24848 0
M  V30 9905 H 938.454 -1.79402 -3.19704 0
M  V30 9906 H 938.102 -0.127562 -5.02838 0
M  V30 9907 H 937.802 -1.78896 -5.59705 0
M  V30 9908 H 939.326 -0.962928 -6.02959 0
M  V30 9909 H 940.74 -2.94441 -4.91912 0
M  V30 9910 H 939.137 -3.70941 -4.71724 0
M  V30 9911 H 940.207 -3.53991 -3.31389 0
M  V30 9912 N 941.55 1.18024 -1.04442 0
M  V30 9913 C 942.775 1.92573 -0.770097 0
M  V30 9914 C 943.2 1.75871 0.667169 0
M  V30 9915 O 942.558 1.07136 1.46258 0
M  V30 9916 C 942.606 3.41904 -1.14602 0
M  V30 9917 O 941.71 4.11491 -0.273712 0
M  V30 9918 H 941.051 0.600636 -0.283076 0
M  V30 9919 H 943.581 1.49645 -1.39526 0
M  V30 9920 H 943.591 3.92623 -1.10956 0
M  V30 9921 H 942.266 3.53382 -2.19304 0
M  V30 9922 H 940.843 3.71059 -0.370124 0
M  V30 9923 N 943.028 0.824394 1.34319 0
M  V30 9924 C 943.958 0.262077 2.32025 0
M  V30 9925 C 944.939 -0.622277 1.58309 0
M  V30 9926 O 946.124 -0.548848 1.86283 0
M  V30 9927 C 943.254 -0.57567 3.42496 0
M  V30 9928 C 942.208 0.21167 4.27476 0
M  V30 9929 C 941.534 -0.748913 5.29429 0
M  V30 9930 C 942.834 1.42068 5.02607 0
M  V30 9931 H 944.528 1.07842 2.79304 0
M  V30 9932 H 942.074 0.520022 1.34282 0
M  V30 9933 H 944.027 -0.979251 4.09864 0
M  V30 9934 H 942.751 -1.42508 2.93869 0
M  V30 9935 H 941.41 0.596636 3.61712 0
M  V30 9936 H 941.058 -1.59432 4.77064 0
M  V30 9937 H 940.758 -0.226313 5.87164 0
M  V30 9938 H 942.282 -1.15032 5.99667 0
M  V30 9939 H 943.696 1.09103 5.62823 0
M  V30 9940 H 942.093 1.87903 5.69923 0
M  V30 9941 H 943.163 2.1981 4.32217 0
M  V30 9942 N 944.506 -1.46559 0.579492 0
M  V30 9943 C 945.438 -2.28383 -0.19337 0
M  V30 9944 C 946.451 -1.38324 -0.858511 0
M  V30 9945 O 947.64 -1.62952 -0.728615 0
M  V30 9946 C 944.74 -3.13262 -1.29306 0
M  V30 9947 C 943.913 -4.31426 -0.720459 0
M  V30 9948 C 942.972 -4.97728 -1.70744 0
M  V30 9949 O 941.998 -5.55423 -1.24476 0
M  V30 9950 N 943.2 -4.94445 -3.04146 0
M  V30 9951 H 945.965 -2.95353 0.508611 0
M  V30 9952 H 943.526 -1.56436 0.417046 0
M  V30 9953 H 945.518 -3.54483 -1.95254 0
M  V30 9954 H 944.088 -2.48388 -1.89795 0
M  V30 9955 H 943.308 -3.94028 0.116398 0
M  V30 9956 H 944.596 -5.07808 -0.31763 0
M  V30 9957 H 943.994 -4.4881 -3.44363 0
M  V30 9958 H 942.551 -5.39616 -3.65592 0
M  V30 9959 N 945.984 -0.3171 -1.54377 0
M  V30 9960 C 947.23 0.280631 -2.01455 0
M  V30 9961 C 947.585 1.50282 -1.20138 0
M  V30 9962 O 946.878 1.89634 -0.273785 0
M  V30 9963 C 947.072 0.672917 -3.51008 0
M  V30 9964 C 946.901 -0.509709 -4.46802 0
M  V30 9965 C 945.671 -1.00679 -4.95168 0
M  V30 9966 C 947.869 -1.35984 -4.95997 0
M  V30 9967 N 945.851 -2.1545 -5.74852 0
M  V30 9968 C 947.222 -2.35481 -5.73541 0
M  V30 9969 C 949.277 -1.38836 -4.78152 0
M  V30 9970 C 947.98 -3.37625 -6.35139 0
M  V30 9971 C 950.006 -2.39847 -5.40581 0
M  V30 9972 C 949.368 -3.38071 -6.1797 0
M  V30 9973 H 945.467 0.0667107 -0.779149 0
M  V30 9974 H 948.051 -0.450672 -1.89412 0
M  V30 9975 H 946.222 1.37336 -3.63309 0
M  V30 9976 H 947.954 1.25156 -3.84861 0
M  V30 9977 H 944.709 -0.579125 -4.70046 0
M  V30 9978 H 945.133 -2.73324 -6.19373 0
M  V30 9979 H 949.775 -0.642643 -4.17887 0
M  V30 9980 H 947.493 -4.13106 -6.94528 0
M  V30 9981 H 951.079 -2.42847 -5.28693 0
M  V30 9982 H 949.959 -4.14953 -6.6542 0
M  V30 9983 N 947.462 1.57535 -0.0451378 0
M  V30 9984 C 948.392 2.14208 0.929372 0
M  V30 9985 C 949.373 1.06221 1.32858 0
M  V30 9986 O 950.558 1.34132 1.40436 0
M  V30 9987 C 947.688 2.68217 2.20629 0
M  V30 9988 C 946.642 3.81134 1.94734 0
M  V30 9989 C 945.968 4.21636 3.28828 0
M  V30 9990 C 947.268 5.06531 1.27374 0
M  V30 9991 H 948.962 2.95886 0.457348 0
M  V30 9992 H 946.508 1.42332 0.218544 0
M  V30 9993 H 948.461 3.06502 2.89196 0
M  V30 9994 H 947.185 1.83722 2.70026 0
M  V30 9995 H 945.844 3.43312 1.28579 0
M  V30 9996 H 945.492 3.34099 3.76014 0
M  V30 9997 H 945.192 4.97736 3.12302 0
M  V30 9998 H 946.716 4.62516 3.98637 0
M  V30 9999 H 948.13 5.423 1.85967 0
M  V30 10000 H 946.527 5.87735 1.21194 0
M  V30 10001 H 947.597 4.84261 0.248913 0
M  V30 10002 N 948.94 -0.228186 1.55939 0
M  V30 10003 C 950.17 -0.969211 1.82455 0
M  V30 10004 C 950.578 -1.78714 0.621133 0
M  V30 10005 O 949.921 -1.78841 -0.419694 0
M  V30 10006 C 949.983 -1.94088 3.02605 0
M  V30 10007 C 949.647 -1.30811 4.37878 0
M  V30 10008 C 950.644 -0.701275 5.15149 0
M  V30 10009 C 948.329 -1.32187 4.84595 0
M  V30 10010 C 950.323 -0.116631 6.37293 0
M  V30 10011 C 948.01 -0.733375 6.06683 0
M  V30 10012 C 949.008 -0.131804 6.82873 0
M  V30 10013 O 948.696 0.447549 8.02653 0
M  V30 10014 H 948.428 -0.289951 0.610659 0
M  V30 10015 H 950.982 -0.250576 2.03866 0
M  V30 10016 H 949.212 -2.69833 2.76996 0
M  V30 10017 H 950.901 -2.5469 3.1605 0
M  V30 10018 H 951.667 -0.683022 4.80166 0
M  V30 10019 H 947.546 -1.77949 4.25271 0
M  V30 10020 H 951.09 0.353539 6.96704 0
M  V30 10021 H 946.987 -0.749019 6.4114 0
M  V30 10022 H 947.755 0.341224 8.17788 0
M  V30 10023 N 950.418 -1.49637 -0.494624 0
M  V30 10024 C 951.643 -1.63431 -1.27691 0
M  V30 10025 C 952.068 -0.30813 -1.85559 0
M  V30 10026 O 951.426 0.725083 -1.66169 0
M  V30 10027 C 951.474 -2.71043 -2.3784 0
M  V30 10028 O 950.578 -2.3066 -3.41862 0
M  V30 10029 H 949.919 -0.546804 -0.376698 0
M  V30 10030 H 952.449 -1.95866 -0.591413 0
M  V30 10031 H 952.459 -2.93406 -2.83508 0
M  V30 10032 H 951.134 -3.67306 -1.95088 0
M  V30 10033 H 949.711 -2.18652 -3.02069 0
M  V30 10034 N 951.896 0.746133 -1.38819 0
M  V30 10035 C 952.859 1.84167 -1.36437 0
M  V30 10036 C 953.859 1.58626 -0.263499 0
M  V30 10037 O 955.049 1.66233 -0.520801 0
M  V30 10038 C 952.181 3.21769 -1.12596 0
M  V30 10039 H 953.374 1.87684 -2.33912 0
M  V30 10040 H 950.927 0.948625 -1.24221 0
M  V30 10041 H 951.662 3.23917 -0.15758 0
M  V30 10042 H 951.447 3.41702 -1.92307 0
M  V30 10043 H 952.937 4.0184 -1.13643 0
M  V30 10044 N 953.375 1.23811 0.975125 0
M  V30 10045 C 954.791 1.0019 1.24234 0
M  V30 10046 C 954.991 -0.293811 1.99346 0
M  V30 10047 O 954.047 -1.01189 2.31337 0
M  V30 10048 C 955.36 2.21218 2.03674 0
M  V30 10049 C 956.908 2.25764 2.16793 0
M  V30 10050 C 957.383 3.46394 2.99626 0
M  V30 10051 N 958.874 3.46665 3.07209 0
M  V30 10052 C 959.609 4.3666 3.71639 0
M  V30 10053 N 959.105 5.36899 4.37849 0
M  V30 10054 N 960.898 4.2439 3.68578 0
M  V30 10055 H 953.049 2.07087 0.472076 0
M  V30 10056 H 955.312 0.90838 0.271201 0
M  V30 10057 H 955.018 3.15277 1.55862 0
M  V30 10058 H 954.892 2.22733 3.04417 0
M  V30 10059 H 957.279 1.32242 2.63811 0
M  V30 10060 H 957.36 2.28279 1.15422 0
M  V30 10061 H 957.004 4.40227 2.53304 0
M  V30 10062 H 956.934 3.41121 4.01178 0
M  V30 10063 H 959.425 2.74142 2.60105 0
M  V30 10064 H 959.738 6.01816 4.84807 0
M  V30 10065 H 958.083 5.40793 4.36541 0
M  V30 10066 H 961.274 3.4532 3.16025 0
M  V30 10067 H 961.447 4.94727 4.18508 0
M  V30 10068 N 954.853 -1.17469 1.05066 0
M  V30 10069 C 956.101 -1.87327 0.758485 0
M  V30 10070 C 956.422 -1.81358 -0.716549 0
M  V30 10071 O 955.692 -1.23868 -1.51768 0
M  V30 10072 H 954.272 -0.693512 0.277579 0
M  V30 10073 H 956.934 -1.4251 1.32954 0
M  V30 10074 H 956.03 -2.93101 1.0723 0
M  V30 10075 N 956.331 -0.831506 -1.3388 0
M  V30 10076 C 957.608 -0.345907 -1.92517 0
M  V30 10077 C 957.988 1.16784 -1.75854 0
M  V30 10078 O 957.336 1.97889 -1.14245 0
M  V30 10079 C 957.546 -0.784692 -3.40064 0
M  V30 10080 C 958.894 -0.78846 -4.17215 0
M  V30 10081 O 959.918 -0.727823 -3.48685 0
M  V30 10082 O 958.777 -0.869481 -5.39539 0
M  V30 10083 H 955.871 -0.0963568 -0.821367 0
M  V30 10084 H 958.417 -0.916868 -1.42799 0
M  V30 10085 H 957.189 -1.82697 -3.46031 0
M  V30 10086 H 956.812 -0.189897 -3.97146 0
M  V30 10087 N 957.809 1.4625 -0.587256 0
M  V30 10088 C 959.056 2.02363 -0.0745746 0
M  V30 10089 C 959.384 1.4582 1.28712 0
M  V30 10090 O 958.639 0.614922 1.85788 0
M  V30 10091 C 958.938 3.57382 0.036328 0
M  V30 10092 C 958.604 4.32985 -1.25837 0
M  V30 10093 C 957.266 4.53358 -1.61306 0
M  V30 10094 C 959.618 4.76361 -2.11494 0
M  V30 10095 C 956.946 5.14361 -2.82223 0
M  V30 10096 C 959.298 5.38699 -3.31641 0
M  V30 10097 C 957.962 5.57299 -3.67388 0
M  V30 10098 H 957.232 0.740497 -0.0272888 0
M  V30 10099 H 959.879 1.75565 -0.764804 0
M  V30 10100 H 958.184 3.83342 0.809712 0
M  V30 10101 H 959.881 3.9848 0.448838 0
M  V30 10102 H 956.471 4.17427 -0.972251 0
M  V30 10103 H 960.655 4.60372 -1.85394 0
M  V30 10104 H 955.911 5.26952 -3.10051 0
M  V30 10105 H 960.085 5.71267 -3.9828 0
M  V30 10106 H 957.712 6.04338 -4.61173 0
M  V30 10107 N 959.287 0.325282 1.54207 0
M  V30 10108 C 960.534 -0.276775 2.006 0
M  V30 10109 C 960.862 -1.52007 1.21343 0
M  V30 10110 O 960.117 -1.93627 0.284104 0
M  V30 10111 C 960.416 -0.654292 3.5136 0
M  V30 10112 C 960.082 0.490023 4.48229 0
M  V30 10113 C 958.744 0.804104 4.74434 0
M  V30 10114 C 961.096 1.2586 5.05775 0
M  V30 10115 C 958.424 1.88945 5.55443 0
M  V30 10116 C 960.776 2.33405 5.87967 0
M  V30 10117 C 959.44 2.65393 6.12473 0
M  V30 10118 H 958.71 -0.101279 0.734046 0
M  V30 10119 H 961.357 0.449416 1.86152 0
M  V30 10120 H 959.662 -1.46093 3.63544 0
M  V30 10121 H 961.359 -1.13171 3.84699 0
M  V30 10122 H 957.949 0.235147 4.27954 0
M  V30 10123 H 962.133 1.02921 4.85511 0
M  V30 10124 H 957.389 2.14174 5.7266 0
M  V30 10125 H 961.563 2.93402 6.31576 0
M  V30 10126 H 959.19 3.49622 6.75032 0
M  V30 10127 N 960.765 -1.57509 0.0534917 0
M  V30 10128 C 962.181 -1.56696 -0.303067 0
M  V30 10129 C 962.381 -1.06135 -1.71282 0
M  V30 10130 O 961.437 -0.71899 -2.42047 0
M  V30 10131 C 962.75 -3.00421 -0.129418 0
M  V30 10132 C 964.298 -3.12358 -0.200346 0
M  V30 10133 C 964.773 -4.57967 -0.0551971 0
M  V30 10134 N 966.264 -4.63066 -0.111398 0
M  V30 10135 C 966.999 -5.73395 -0.0232344 0
M  V30 10136 N 966.495 -6.92701 0.11741 0
M  V30 10137 N 968.288 -5.62045 -0.078984 0
M  V30 10138 H 960.439 -1.88696 0.975064 0
M  V30 10139 H 962.702 -0.869072 0.378706 0
M  V30 10140 H 962.408 -3.41456 0.842653 0
M  V30 10141 H 962.282 -3.66563 -0.889476 0
M  V30 10142 H 964.669 -2.71221 -1.16289 0
M  V30 10143 H 964.75 -2.48891 0.590506 0
M  V30 10144 H 964.394 -4.9979 0.904034 0
M  V30 10145 H 964.324 -5.19443 -0.865223 0
M  V30 10146 H 966.815 -3.77263 -0.219256 0
M  V30 10147 H 967.128 -7.72597 0.177326 0
M  V30 10148 H 965.473 -6.94833 0.152526 0
M  V30 10149 H 968.664 -4.67725 -0.187434 0
M  V30 10150 H 968.837 -6.48 -0.00681731 0
M  V30 10151 N 962.243 0.219913 -1.56058 0
M  V30 10152 C 963.206 1.25606 -1.91718 0
M  V30 10153 C 964.206 1.39721 -0.795912 0
M  V30 10154 O 965.396 1.37958 -1.06364 0
M  V30 10155 C 962.528 2.62961 -2.16943 0
M  V30 10156 H 963.721 0.951909 -2.84392 0
M  V30 10157 H 961.274 0.460398 -1.49365 0
M  V30 10158 H 962.009 2.98472 -1.26826 0
M  V30 10159 H 961.794 2.54093 -2.98629 0
M  V30 10160 H 963.284 3.37727 -2.45622 0
M  V30 10161 N 963.721 1.49897 0.486681 0
M  V30 10162 C 964.949 1.63837 1.26353 0
M  V30 10163 C 965.364 0.315428 1.86146 0
M  V30 10164 O 964.721 -0.700831 1.68507 0
M  V30 10165 C 964.772 2.71792 2.38351 0
M  V30 10166 O 964.493 3.98956 1.81013 0
M  V30 10167 C 965.994 2.96566 3.2949 0
M  V30 10168 H 963.214 0.551158 0.382709 0
M  V30 10169 H 965.758 1.96023 0.582694 0
M  V30 10170 H 963.913 2.42344 3.02238 0
M  V30 10171 H 964.327 4.58536 2.54647 0
M  V30 10172 H 965.801 3.75803 4.04322 0
M  V30 10173 H 966.278 2.07031 3.87343 0
M  V30 10174 H 966.884 3.27485 2.71355 0
M  V30 10175 N 965.199 -0.738761 1.39212 0
M  V30 10176 C 966.424 -1.5331 1.39681 0
M  V30 10177 C 966.849 -1.88098 -0.00768715 0
M  V30 10178 O 966.207 -1.51642 -0.993699 0
M  V30 10179 C 966.255 -2.79958 2.27279 0
M  V30 10180 O 965.359 -3.75727 1.70008 0
M  V30 10181 H 964.7 -0.463131 0.475821 0
M  V30 10182 H 967.23 -0.911768 1.83161 0
M  V30 10183 H 967.24 -3.28732 2.41659 0
M  V30 10184 H 965.915 -2.5397 3.29351 0
M  V30 10185 H 964.492 -3.34483 1.64851 0
M  V30 10186 N 966.677 -1.24326 -0.968545 0
M  V30 10187 C 968.093 -1.00847 -1.23701 0
M  V30 10188 C 968.293 0.283235 -1.99499 0
M  V30 10189 O 967.349 0.999607 -2.31871 0
M  V30 10190 C 968.662 -2.22295 -2.02498 0
M  V30 10191 C 970.21 -2.26911 -2.15593 0
M  V30 10192 C 970.685 -3.47978 -2.97784 0
M  V30 10193 N 972.176 -3.48289 -3.05367 0
M  V30 10194 C 972.911 -4.38625 -3.69318 0
M  V30 10195 N 972.407 -5.39213 -4.34995 0
M  V30 10196 N 974.2 -4.26339 -3.66322 0
M  V30 10197 H 966.351 -2.07335 -0.461087 0
M  V30 10198 H 968.614 -0.909805 -0.26638 0
M  V30 10199 H 968.32 -3.161 -1.54188 0
M  V30 10200 H 968.194 -2.24344 -3.03232 0
M  V30 10201 H 970.581 -1.33639 -2.63106 0
M  V30 10202 H 970.662 -2.28888 -1.14209 0
M  V30 10203 H 970.306 -4.41564 -2.50965 0
M  V30 10204 H 970.236 -3.43244 -3.99364 0
M  V30 10205 H 972.727 -2.75517 -2.58648 0
M  V30 10206 H 973.04 -6.04378 -4.81608 0
M  V30 10207 H 971.385 -5.43101 -4.33667 0
M  V30 10208 H 974.576 -3.46991 -3.14189 0
M  V30 10209 H 974.749 -4.9694 -4.15878 0
M  V30 10210 N 968.156 1.1691 -1.05688 0
M  V30 10211 C 969.086 2.23275 -0.683402 0
M  V30 10212 C 970.067 1.6704 0.321206 0
M  V30 10213 O 971.252 1.93191 0.197691 0
M  V30 10214 C 968.382 3.47244 -0.0626006 0
M  V30 10215 C 967.336 4.16333 -0.992513 0
M  V30 10216 C 966.662 5.34182 -0.23533 0
M  V30 10217 C 967.962 4.68002 -2.31886 0
M  V30 10218 H 969.656 2.54771 -1.57264 0
M  V30 10219 H 967.202 1.2246 -0.757606 0
M  V30 10220 H 969.155 4.20874 0.210503 0
M  V30 10221 H 967.879 3.1503 0.861616 0
M  V30 10222 H 966.538 3.44622 -1.25026 0
M  V30 10223 H 966.186 4.9822 0.69181 0
M  V30 10224 H 965.886 5.81346 -0.855002 0
M  V30 10225 H 967.41 6.10592 0.0303717 0
M  V30 10226 H 968.824 5.33244 -2.10531 0
M  V30 10227 H 967.221 5.25764 -2.89296 0
M  V30 10228 H 968.291 3.84541 -2.95391 0
M  V30 10229 N 969.634 0.838594 1.33437 0
M  V30 10230 C 970.862 0.447644 2.01999 0
M  V30 10231 C 971.277 -0.951053 1.63096 0
M  V30 10232 O 970.634 -1.61802 0.844169 0
M  V30 10233 C 970.685 0.558378 3.57162 0
M  V30 10234 O 970.406 1.90196 3.94661 0
M  V30 10235 C 971.907 0.164348 4.42995 0
M  V30 10236 H 969.127 0.177736 0.647032 0
M  V30 10237 H 971.671 1.13109 1.70372 0
M  V30 10238 H 969.826 -0.0771563 3.87323 0
M  V30 10239 H 970.24 1.88729 4.89369 0
M  V30 10240 H 971.714 0.292876 5.51222 0
M  V30 10241 H 972.191 -0.893713 4.30011 0
M  V30 10242 H 972.797 0.774306 4.18192 0
M  V30 10243 N 971.112 -1.45937 0.595003 0
M  V30 10244 C 972.34 -2.06698 0.091293 0
M  V30 10245 C 972.755 -1.44176 -1.21897 0
M  V30 10246 O 972.112 -0.551402 -1.73971 0
M  V30 10247 C 972.163 -3.61436 -0.0681801 0
M  V30 10248 O 971.884 -4.21622 1.19023 0
M  V30 10249 C 973.385 -4.39155 -0.604814 0
M  V30 10250 H 970.605 -0.668029 0.0630737 0
M  V30 10251 H 973.149 -1.87376 0.819165 0
M  V30 10252 H 971.304 -3.80143 -0.746324 0
M  V30 10253 H 971.718 -5.14647 1.01187 0
M  V30 10254 H 973.192 -5.47973 -0.665532 0
M  V30 10255 H 973.669 -4.08055 -1.62444 0
M  V30 10256 H 974.275 -4.25282 0.0388658 0
M  V30 10257 N 972.59 -0.333456 -1.54032 0
M  V30 10258 C 973.867 0.320902 -1.9295 0
M  V30 10259 C 974.247 1.69071 -1.26405 0
M  V30 10260 O 973.595 2.24768 -0.411311 0
M  V30 10261 C 973.805 0.403257 -3.46662 0
M  V30 10262 C 975.153 0.658875 -4.19457 0
M  V30 10263 O 976.177 0.485781 -3.52872 0
M  V30 10264 O 975.036 0.993475 -5.37394 0
M  V30 10265 H 972.13 0.185158 -0.806006 0
M  V30 10266 H 974.676 -0.383895 -1.65301 0
M  V30 10267 H 973.448 -0.558409 -3.87295 0
M  V30 10268 H 973.071 1.15524 -3.80447 0
M  V30 10269 N 974.068 1.57479 -0.061844 0
M  V30 10270 C 975.315 1.93108 0.60954 0
M  V30 10271 C 975.643 0.941086 1.70217 0
M  V30 10272 O 974.898 -0.044914 1.95648 0
M  V30 10273 C 975.197 3.35394 1.23474 0
M  V30 10274 C 974.863 4.50095 0.269247 0
M  V30 10275 C 973.525 4.812 0.00360316 0
M  V30 10276 C 975.877 5.19725 -0.391839 0
M  V30 10277 C 973.205 5.79276 -0.930383 0
M  V30 10278 C 975.557 6.18801 -1.31408 0
M  V30 10279 C 974.221 6.48328 -1.58829 0
M  V30 10280 H 973.491 0.706634 0.223046 0
M  V30 10281 H 976.138 1.91054 -0.1306 0
M  V30 10282 H 974.443 3.33866 2.05039 0
M  V30 10283 H 976.14 3.60247 1.76134 0
M  V30 10284 H 972.73 4.2583 0.486477 0
M  V30 10285 H 976.914 4.95898 -0.199713 0
M  V30 10286 H 972.17 6.00484 -1.15019 0
M  V30 10287 H 976.344 6.71862 -1.83234 0
M  V30 10288 H 973.971 7.24137 -2.31363 0
M  V30 10289 N 975.546 -0.211634 1.56173 0
M  V30 10290 C 976.794 -0.932704 1.7929 0
M  V30 10291 C 977.115 -1.84472 0.632076 0
M  V30 10292 O 976.385 -1.92739 -0.350519 0
M  V30 10293 H 974.965 -0.347393 0.661307 0
M  V30 10294 H 977.627 -0.22111 1.93642 0
M  V30 10295 H 976.723 -1.53365 2.71819 0
M  V30 10296 N 977.024 -1.50153 -0.478725 0
M  V30 10297 C 977.972 -1.68975 -1.59844 0
M  V30 10298 C 978.966 -0.555591 -1.6003 0
M  V30 10299 O 980.172 -0.735875 -1.64271 0
M  V30 10300 H 976.547 -0.533211 -0.530274 0
M  V30 10301 H 978.518 -2.62917 -1.41128 0
M  V30 10302 C 977.267 -1.79409 -2.97838 0
M  V30 10303 H 976.59 -2.66066 -2.98411 0
M  V30 10304 H 978.03 -1.96606 -3.75662 0
M  V30 10305 C 976.489 -0.543927 -3.3248 0
M  V30 10306 O 977.019 0.320376 -4.0042 0
M  V30 10307 N 975.225 -0.400217 -2.87831 0
M  V30 10308 H 974.772 -1.10458 -2.32716 0
M  V30 10309 H 974.73 0.435111 -3.11375 0
M  V30 10310 N 978.502 0.731368 -1.39602 0
M  V30 10311 C 979.465 1.8271 -1.38383 0
M  V30 10312 C 980.465 1.58338 -0.280309 0
M  V30 10313 O 981.655 1.65671 -0.538402 0
M  V30 10314 C 978.787 3.20556 -1.16002 0
M  V30 10315 H 979.98 1.85193 -2.35889 0
M  V30 10316 H 977.533 0.935396 -1.2522 0
M  V30 10317 H 978.268 3.23732 -0.191927 0
M  V30 10318 H 978.053 3.39643 -1.9592 0
M  V30 10319 H 979.543 4.00612 -1.17899 0
M  V30 10320 N 979.98 1.24838 0.961938 0
M  V30 10321 C 980.89 1.06304 2.09133 0
M  V30 10322 C 981.906 0.00221475 1.74 0
M  V30 10323 O 983.082 0.201611 2.00388 0
M  V30 10324 C 980.147 0.676117 3.40043 0
M  V30 10325 C 979.208 1.81407 3.89089 0
M  V30 10326 C 978.441 1.44551 5.13752 0
M  V30 10327 O 978.664 0.337894 5.69398 0
M  V30 10328 O 977.598 2.27316 5.57325 0
M  V30 10329 H 981.424 2.01001 2.27667 0
M  V30 10330 H 979.009 1.0371 1.07539 0
M  V30 10331 H 980.891 0.472124 4.18747 0
M  V30 10332 H 979.566 -0.241667 3.22797 0
M  V30 10333 H 978.473 2.07286 3.11421 0
M  V30 10334 H 979.806 2.71083 4.10822 0
M  V30 10335 N 981.458 -1.16348 1.06306 0
M  V30 10336 C 982.405 -2.20741 0.673962 0
M  V30 10337 C 983.375 -1.628 -0.329454 0
M  V30 10338 O 984.56 -1.89547 -0.218313 0
M  V30 10339 C 981.7 -3.45036 0.0667008 0
M  V30 10340 C 980.813 -4.17221 1.12031 0
M  V30 10341 C 979.948 -5.29034 0.479176 0
M  V30 10342 C 978.987 -5.93021 1.51631 0
M  V30 10343 N 978.124 -6.96327 0.898528 0
M  V30 10344 H 982.964 -2.53376 1.56859 0
M  V30 10345 H 980.501 -1.24449 0.784276 0
M  V30 10346 H 982.459 -4.16099 -0.302916 0
M  V30 10347 H 981.089 -3.1295 -0.791333 0
M  V30 10348 H 980.141 -3.4476 1.60763 0
M  V30 10349 H 981.453 -4.60902 1.90712 0
M  V30 10350 H 980.607 -6.06674 0.0565993 0
M  V30 10351 H 979.346 -4.86517 -0.33951 0
M  V30 10352 H 978.351 -5.14104 1.94878 0
M  V30 10353 H 979.576 -6.37618 2.3371 0
M  V30 10354 H 977.522 -6.55923 0.100555 0
M  V30 10355 H 977.439 -7.38379 1.62272 0
M  V30 10356 H 978.707 -7.77888 0.5011 0
M  V30 10357 N 982.937 -0.845659 -1.3299 0
M  V30 10358 C 984.165 -0.45835 -2.01759 0
M  V30 10359 C 984.58 0.94239 -1.63598 0
M  V30 10360 O 983.937 1.61353 -0.852738 0
M  V30 10361 C 983.988 -0.577311 -3.5686 0
M  V30 10362 O 983.709 -1.92287 -3.93646 0
M  V30 10363 C 985.21 -0.187839 -4.42902 0
M  V30 10364 H 982.43 -0.181165 -0.646081 0
M  V30 10365 H 984.974 -1.14011 -1.6977 0
M  V30 10366 H 983.129 0.0566146 -3.87359 0
M  V30 10367 H 983.543 -1.91322 -4.88361 0
M  V30 10368 H 985.017 -0.322105 -5.51059 0
M  V30 10369 H 985.494 0.870896 -4.30479 0
M  V30 10370 H 986.1 -0.796473 -4.17776 0
M  V30 10371 N 984.415 1.45619 -0.602734 0
M  V30 10372 C 985.692 1.9558 -0.0282472 0
M  V30 10373 C 986.072 1.54523 1.43826 0
M  V30 10374 O 985.42 0.805456 2.13833 0
M  V30 10375 C 985.63 3.48298 -0.221263 0
M  V30 10376 C 986.978 4.24483 -0.0995249 0
M  V30 10377 O 988.002 3.55879 -0.151132 0
M  V30 10378 O 986.861 5.46497 0.0194454 0
M  V30 10379 H 983.955 0.826104 0.0384897 0
M  V30 10380 H 986.501 1.55808 -0.672456 0
M  V30 10381 H 985.273 3.71134 -1.23997 0
M  V30 10382 H 984.896 3.94948 0.458437 0
M  V30 10383 N 985.893 0.34162 1.53853 0
M  V30 10384 C 987.309 -0.0103769 1.59597 0
M  V30 10385 C 987.509 -1.48897 1.35764 0
M  V30 10386 O 986.565 -2.24743 1.15095 0
M  V30 10387 C 987.878 0.424067 2.97695 0
M  V30 10388 C 989.426 0.376247 3.1073 0
M  V30 10389 C 989.901 0.786129 4.51203 0
M  V30 10390 N 991.392 0.74024 4.57247 0
M  V30 10391 C 992.127 1.02937 5.64085 0
M  V30 10392 N 991.623 1.38655 6.78783 0
M  V30 10393 N 993.416 0.953734 5.5395 0
M  V30 10394 H 985.567 1.30477 1.67599 0
M  V30 10395 H 987.83 0.531753 0.78482 0
M  V30 10396 H 987.536 1.45493 3.20195 0
M  V30 10397 H 987.41 -0.201713 3.7666 0
M  V30 10398 H 989.797 -0.645441 2.87955 0
M  V30 10399 H 989.878 1.0372 2.33828 0
M  V30 10400 H 989.522 1.80582 4.74713 0
M  V30 10401 H 989.452 0.102671 5.265 0
M  V30 10402 H 991.943 0.476763 3.7488 0
M  V30 10403 H 992.256 1.59206 7.56223 0
M  V30 10404 H 990.601 1.42498 6.80235 0
M  V30 10405 H 993.792 0.674044 4.63222 0
M  V30 10406 H 993.965 1.18241 6.37121 0
M  V30 10407 N 987.371 -1.57444 0.0701946 0
M  V30 10408 C 988.618 -1.93429 -0.59929 0
M  V30 10409 C 988.946 -0.9501 -1.69715 0
M  V30 10410 O 988.201 0.0345377 -1.9567 0
M  V30 10411 C 988.5 -3.36044 -1.21694 0
M  V30 10412 C 988.166 -4.50232 -0.245374 0
M  V30 10413 C 986.828 -4.81195 0.0219161 0
M  V30 10414 C 989.18 -5.1951 0.419396 0
M  V30 10415 C 986.508 -5.78775 0.96109 0
M  V30 10416 C 988.86 -6.18095 1.34688 0
M  V30 10417 C 987.524 -6.47477 1.62265 0
M  V30 10418 H 986.794 -0.707807 -0.219296 0
M  V30 10419 H 989.441 -1.90982 0.14073 0
M  V30 10420 H 987.746 -3.34948 -2.03265 0
M  V30 10421 H 989.443 -3.61176 -1.74221 0
M  V30 10422 H 986.033 -4.26082 -0.463887 0
M  V30 10423 H 990.217 -4.95785 0.226009 0
M  V30 10424 H 985.473 -5.99865 1.18202 0
M  V30 10425 H 989.647 -6.7088 1.86795 0
M  V30 10426 H 987.274 -7.229 2.352 0
M  V30 10427 N 988.849 0.203349 -1.56283 0
M  V30 10428 C 990.095 0.926381 -1.80405 0
M  V30 10429 C 990.428 1.8325 -0.642883 0
M  V30 10430 O 989.703 1.91196 0.356998 0
M  V30 10431 C 989.986 1.74972 -3.14733 0
M  V30 10432 C 989.839 0.868866 -4.41328 0
M  V30 10433 C 991.158 2.72394 -3.45672 0
M  V30 10434 H 988.277 0.335346 -0.656286 0
M  V30 10435 H 990.919 0.1942 -1.89005 0
M  V30 10436 H 989.069 2.37394 -3.07533 0
M  V30 10437 H 990.741 0.259986 -4.60567 0
M  V30 10438 H 988.984 0.175161 -4.33446 0
M  V30 10439 H 989.655 1.47975 -5.31796 0
M  V30 10440 H 992.131 2.20105 -3.53119 0
M  V30 10441 H 991.007 3.27091 -4.40798 0
M  V30 10442 H 991.268 3.51035 -2.6875 0
M  V30 10443 N 990.327 1.50405 0.470755 0
M  V30 10444 C 991.26 1.63933 1.58749 0
M  V30 10445 C 992.238 0.487444 1.55122 0
M  V30 10446 O 993.422 0.706992 1.74739 0
M  V30 10447 C 990.549 1.62222 2.97324 0
M  V30 10448 C 989.595 2.82975 3.19104 0
M  V30 10449 S 990.428 4.44272 2.98969 0
M  V30 10450 C 991.584 4.45254 4.39886 0
M  V30 10451 H 991.817 2.58396 1.47034 0
M  V30 10452 H 989.35 1.39672 0.658115 0
M  V30 10453 H 991.308 1.6192 3.77217 0
M  V30 10454 H 989.969 0.689944 3.06429 0
M  V30 10455 H 989.162 2.78083 4.2034 0
M  V30 10456 H 988.764 2.80846 2.46984 0
M  V30 10457 H 991.056 4.18837 5.32524 0
M  V30 10458 H 991.999 5.4687 4.49821 0
M  V30 10459 H 992.407 3.74958 4.2198 0
M  V30 10460 N 991.805 -0.723954 1.39988 0
M  V30 10461 C 992.752 -1.83803 1.39589 0
M  V30 10462 C 993.722 -1.64146 0.253996 0
M  V30 10463 O 994.907 -1.85398 0.450793 0
M  V30 10464 C 992.047 -3.21431 1.25604 0
M  V30 10465 C 991.16 -3.52717 2.49429 0
M  V30 10466 C 990.295 -4.79805 2.27949 0
M  V30 10467 C 989.334 -5.03968 3.47394 0
M  V30 10468 N 988.471 -6.22266 3.25161 0
M  V30 10469 H 993.311 -1.83479 2.34818 0
M  V30 10470 H 990.848 -0.896396 1.16633 0
M  V30 10471 H 992.806 -4.00892 1.15504 0
M  V30 10472 H 991.436 -3.21005 0.339986 0
M  V30 10473 H 990.488 -2.67872 2.7009 0
M  V30 10474 H 991.8 -3.66486 3.38363 0
M  V30 10475 H 990.954 -5.67268 2.15155 0
M  V30 10476 H 989.693 -4.68229 1.36428 0
M  V30 10477 H 988.698 -4.14963 3.60674 0
M  V30 10478 H 989.923 -5.17422 4.39831 0
M  V30 10479 H 987.869 -6.11957 2.36314 0
M  V30 10480 H 987.786 -6.36673 4.07656 0
M  V30 10481 H 989.054 -7.12539 3.16083 0
M  V30 10482 N 993.283 -1.25346 -0.955304 0
M  V30 10483 C 994.23 -1.05672 -2.05188 0
M  V30 10484 C 995.2 0.0339217 -1.66065 0
M  V30 10485 O 996.385 -0.123126 -1.90402 0
M  V30 10486 C 993.525 -0.680791 -3.38318 0
M  V30 10487 C 992.638 -1.84622 -3.90562 0
M  V30 10488 C 991.773 -1.41471 -5.12015 0
M  V30 10489 C 990.812 -2.54931 -5.56486 0
M  V30 10490 N 989.949 -2.1256 -6.69151 0
M  V30 10491 H 994.789 -1.9952 -2.2135 0
M  V30 10492 H 992.326 -0.993588 -1.08472 0
M  V30 10493 H 994.284 -0.443794 -4.14833 0
M  V30 10494 H 992.914 0.2207 -3.22045 0
M  V30 10495 H 991.966 -2.19654 -3.10574 0
M  V30 10496 H 993.278 -2.6983 -4.19515 0
M  V30 10497 H 992.432 -1.13732 -5.95945 0
M  V30 10498 H 991.171 -0.533334 -4.84775 0
M  V30 10499 H 990.176 -2.83415 -4.71122 0
M  V30 10500 H 991.401 -3.43645 -5.85734 0
M  V30 10501 H 989.347 -1.26838 -6.43621 0
M  V30 10502 H 989.264 -2.91317 -6.97618 0
M  V30 10503 H 990.532 -1.87996 -7.5649 0
M  V30 10504 N 994.761 1.15782 -1.06922 0
M  V30 10505 C 995.691 2.22538 -0.707045 0
M  V30 10506 C 996.672 1.67371 0.303471 0
M  V30 10507 O 997.857 1.9339 0.177189 0
M  V30 10508 C 994.987 3.47158 -0.0994269 0
M  V30 10509 C 993.941 4.15257 -1.03661 0
M  V30 10510 C 993.267 5.33902 -0.291974 0
M  V30 10511 C 994.567 4.65516 -2.36837 0
M  V30 10512 H 996.261 2.53089 -1.59958 0
M  V30 10513 H 993.807 1.21649 -0.770552 0
M  V30 10514 H 995.76 4.21073 0.165852 0
M  V30 10515 H 994.484 3.15926 0.828155 0
M  V30 10516 H 993.143 3.43276 -1.28674 0
M  V30 10517 H 992.791 4.98926 0.638928 0
M  V30 10518 H 992.491 5.80407 -0.916613 0
M  V30 10519 H 994.015 6.1059 -0.0343915 0
M  V30 10520 H 995.429 5.30981 -2.16175 0
M  V30 10521 H 993.826 5.22666 -2.94856 0
M  V30 10522 H 994.896 3.81387 -2.99453 0
M  V30 10523 N 996.239 0.8527 1.3254 0
M  V30 10524 C 997.187 0.284659 2.30852 0
M  V30 10525 C 998.181 -0.5909 1.5876 0
M  V30 10526 O 999.387 -0.478922 1.73512 0
M  V30 10527 H 995.762 0.0733452 0.748415 0
M  V30 10528 H 997.733 1.1281 2.76254 0
M  V30 10529 C 996.482 -0.51379 3.43883 0
M  V30 10530 H 995.805 0.150644 3.99516 0
M  V30 10531 H 997.245 -0.876866 4.14834 0
M  V30 10532 C 995.704 -1.69823 2.90967 0
M  V30 10533 O 996.234 -2.79727 2.88298 0
M  V30 10534 N 994.44 -1.52465 2.47392 0
M  V30 10535 H 993.987 -0.630599 2.49762 0
M  V30 10536 H 993.945 -2.31859 2.12341 0
M  V30 10537 N 997.718 -1.45297 0.610449 0
M  V30 10538 C 998.995 -1.95562 0.0386189 0
M  V30 10539 C 999.375 -1.55284 -1.43004 0
M  V30 10540 O 998.723 -0.816785 -2.13403 0
M  V30 10541 C 998.933 -3.48176 0.239731 0
M  V30 10542 C 1000.28 -4.24425 0.122035 0
M  V30 10543 O 1001.3 -3.55794 0.170003 0
M  V30 10544 O 1000.16 -5.46499 0.00953695 0
M  V30 10545 H 997.258 -0.826296 -0.0341081 0
M  V30 10546 H 999.804 -1.55449 0.68071 0
M  V30 10547 H 998.576 -3.70471 1.25963 0
M  V30 10548 H 998.199 -3.95186 -0.437486 0
M  V30 10549 N 999.196 -0.349774 -1.5367 0
M  V30 10550 C 1000.61 0.00191293 -1.596 0
M  V30 10551 C 1000.81 1.48175 -1.36552 0
M  V30 10552 O 999.868 2.24129 -1.16285 0
M  V30 10553 C 1001.18 -0.439848 -2.97466 0
M  V30 10554 C 1002.73 -0.392721 -3.10526 0
M  V30 10555 C 1003.2 -0.810047 -4.5078 0
M  V30 10556 N 1004.69 -0.764478 -4.56848 0
M  V30 10557 C 1005.43 -1.05927 -5.63531 0
M  V30 10558 N 1004.93 -1.42253 -6.78038 0
M  V30 10559 N 1006.72 -0.983098 -5.53436 0
M  V30 10560 H 998.87 -1.31364 -1.66905 0
M  V30 10561 H 1001.13 -0.535908 -0.781989 0
M  V30 10562 H 1000.84 -1.47189 -3.19419 0
M  V30 10563 H 1000.71 0.181735 -3.76762 0
M  V30 10564 H 1003.1 0.630161 -2.88293 0
M  V30 10565 H 1003.18 -1.04959 -2.33275 0
M  V30 10566 H 1002.82 -1.83097 -4.73749 0
M  V30 10567 H 1002.75 -0.130591 -5.26438 0
M  V30 10568 H 1005.25 -0.496637 -3.74622 0
M  V30 10569 H 1005.56 -1.63215 -7.55368 0
M  V30 10570 H 1003.9 -1.46104 -6.79469 0
M  V30 10571 H 1007.09 -0.698601 -4.62858 0
M  V30 10572 H 1007.27 -1.21618 -6.36485 0
M  V30 10573 N 1000.67 1.57404 -0.0785433 0
M  V30 10574 C 1001.92 1.94031 0.589896 0
M  V30 10575 C 1002.25 0.959297 1.68852 0
M  V30 10576 O 1001.53 -0.0103978 1.94497 0
M  V30 10577 C 1001.81 3.40886 1.16055 0
M  V30 10578 C 1001.66 4.49748 0.0681072 0
M  V30 10579 C 1002.98 3.88699 2.06401 0
M  V30 10580 H 1000.1 0.70556 0.212965 0
M  V30 10581 H 1002.74 1.89439 -0.145886 0
M  V30 10582 H 1000.89 3.4493 1.78761 0
M  V30 10583 H 1002.57 4.57823 -0.565318 0
M  V30 10584 H 1000.81 4.29625 -0.600431 0
M  V30 10585 H 1001.48 5.49658 0.507906 0
M  V30 10586 H 1003.96 3.86703 1.53622 0
M  V30 10587 H 1002.83 4.92052 2.43261 0
M  V30 10588 H 1003.09 3.2703 2.97496 0
M  V30 10589 N 1002.15 -0.195058 1.56388 0
M  V30 10590 C 1003.08 -1.26978 1.8961 0
M  V30 10591 C 1004.06 -1.43946 0.756199 0
M  V30 10592 O 1005.25 -1.59335 1.0072 0
M  V30 10593 C 1002.37 -2.63638 2.12632 0
M  V30 10594 C 1001.42 -2.6354 3.35334 0
M  V30 10595 S 1002.25 -2.1497 4.90457 0
M  V30 10596 C 1003.41 -3.53454 5.16547 0
M  V30 10597 H 1003.64 -0.986091 2.8047 0
M  V30 10598 H 1001.17 -0.398552 1.49167 0
M  V30 10599 H 1003.13 -3.42304 2.26579 0
M  V30 10600 H 1001.79 -2.89218 1.22522 0
M  V30 10601 H 1000.99 -3.64027 3.48569 0
M  V30 10602 H 1000.59 -1.92956 3.20381 0
M  V30 10603 H 1002.88 -4.49318 5.0707 0
M  V30 10604 H 1003.82 -3.45113 6.18306 0
M  V30 10605 H 1004.23 -3.48368 4.44185 0
M  V30 10606 N 1003.63 -1.50653 -0.462772 0
M  V30 10607 C 1005.05 -1.38263 -0.797213 0
M  V30 10608 C 1005.25 -0.445172 -1.96521 0
M  V30 10609 O 1004.3 0.10913 -2.52264 0
M  V30 10610 C 1005.61 -2.798 -1.10146 0
M  V30 10611 C 1007.16 -2.88774 -1.20742 0
M  V30 10612 C 1007.64 -4.31163 -1.54476 0
M  V30 10613 N 1009.13 -4.34152 -1.61451 0
M  V30 10614 C 1009.86 -5.4133 -1.89074 0
M  V30 10615 N 1009.36 -6.58705 -2.1466 0
M  V30 10616 N 1011.15 -5.28783 -1.90645 0
M  V30 10617 H 1003.3 -2.10172 0.30684 0
M  V30 10618 H 1005.57 -0.945046 0.0747862 0
M  V30 10619 H 1005.27 -3.50276 -0.316207 0
M  V30 10620 H 1005.15 -3.17559 -2.03559 0
M  V30 10621 H 1007.53 -2.18512 -1.98334 0
M  V30 10622 H 1007.61 -2.54547 -0.252904 0
M  V30 10623 H 1007.26 -5.01965 -0.774207 0
M  V30 10624 H 1007.19 -4.62883 -2.51092 0
M  V30 10625 H 1009.68 -3.49519 -1.43684 0
M  V30 10626 H 1009.99 -7.36192 -2.35035 0
M  V30 10627 H 1008.34 -6.61866 -2.12035 0
M  V30 10628 H 1011.53 -4.36078 -1.70158 0
M  V30 10629 H 1011.7 -6.12396 -2.11836 0
M  V30 10630 N 1005.11 0.71652 -1.4037 0
M  V30 10631 C 1006.35 1.47857 -1.38803 0
M  V30 10632 C 1006.69 1.94197 0.0100536 0
M  V30 10633 O 1005.96 1.68093 0.978521 0
M  V30 10634 C 1006.25 2.7053 -2.37667 0
M  V30 10635 C 1006.1 2.3009 -3.86496 0
M  V30 10636 C 1007.42 3.72684 -2.34082 0
M  V30 10637 H 1004.54 0.53632 -0.505499 0
M  V30 10638 H 1007.18 0.817824 -1.71498 0
M  V30 10639 H 1005.33 3.26906 -2.09916 0
M  V30 10640 H 1007 1.79202 -4.2507 0
M  V30 10641 H 1005.24 1.62102 -4.02375 0
M  V30 10642 H 1005.91 3.18018 -4.51186 0
M  V30 10643 H 1008.39 3.25935 -2.58661 0
M  V30 10644 H 1007.27 4.56157 -3.05306 0
M  V30 10645 H 1007.53 4.20916 -1.35213 0
M  V30 10646 N 1006.59 1.25851 0.948643 0
M  V30 10647 C 1007.5 1.08516 2.07994 0
M  V30 10648 C 1008.51 0.0206696 1.73988 0
M  V30 10649 O 1009.69 0.222854 2.00163 0
M  V30 10650 C 1006.75 0.712145 3.39307 0
M  V30 10651 C 1005.81 1.85523 3.87143 0
M  V30 10652 C 1005.05 1.49992 5.1219 0
M  V30 10653 O 1005.27 0.398268 5.69008 0
M  V30 10654 O 1004.2 2.33215 5.54882 0
M  V30 10655 H 1008.03 2.03405 2.25522 0
M  V30 10656 H 1005.62 1.04844 1.06433 0
M  V30 10657 H 1007.5 0.516512 4.18223 0
M  V30 10658 H 1006.17 -0.207416 3.23035 0
M  V30 10659 H 1005.08 2.10578 3.09205 0
M  V30 10660 H 1006.41 2.75425 4.07924 0
M  V30 10661 N 1008.06 -1.15214 1.07534 0
M  V30 10662 C 1009.29 -1.89647 0.819614 0
M  V30 10663 C 1009.7 -1.78365 -0.631072 0
M  V30 10664 O 1009.05 -1.1346 -1.44474 0
M  V30 10665 C 1009.11 -3.40573 1.1511 0
M  V30 10666 C 1008.77 -3.7564 2.60276 0
M  V30 10667 C 1009.77 -3.76507 3.58523 0
M  V30 10668 C 1007.45 -4.05891 2.95901 0
M  V30 10669 C 1009.45 -4.07133 4.9043 0
M  V30 10670 C 1007.13 -4.36182 4.28005 0
M  V30 10671 C 1008.13 -4.36785 5.25079 0
M  V30 10672 O 1007.82 -4.66348 6.54809 0
M  V30 10673 H 1007.55 -0.607836 0.295822 0
M  V30 10674 H 1010.11 -1.46895 1.43565 0
M  V30 10675 H 1008.34 -3.83734 0.478033 0
M  V30 10676 H 1010.03 -3.96299 0.877615 0
M  V30 10677 H 1010.79 -3.53233 3.32342 0
M  V30 10678 H 1006.67 -4.0458 2.20989 0
M  V30 10679 H 1010.21 -4.07519 5.66193 0
M  V30 10680 H 1006.11 -4.58924 4.53937 0
M  V30 10681 H 1006.88 -4.84105 6.59988 0
M  V30 10682 N 1009.54 -0.859717 -1.32086 0
M  V30 10683 C 1010.49 -0.279715 -2.26278 0
M  V30 10684 C 1011.48 0.577348 -1.50185 0
M  V30 10685 O 1012.67 0.425903 -1.71799 0
M  V30 10686 C 1009.8 0.526622 -3.39237 0
M  V30 10687 C 1008.88 -0.343112 -4.2271 0
M  V30 10688 N 1009.27 -1.43176 -4.85113 0
M  V30 10689 C 1007.57 -0.133744 -4.45799 0
M  V30 10690 C 1008.27 -1.96725 -5.47425 0
M  V30 10691 N 1007.25 -1.26569 -5.2866 0
M  V30 10692 H 1011.05 -1.11191 -2.72055 0
M  V30 10693 H 1008.57 -0.706372 -1.46233 0
M  V30 10694 H 1010.56 0.958587 -4.0573 0
M  V30 10695 H 1009.22 1.35655 -2.95005 0
M  V30 10696 H 1010.23 -1.81469 -4.85066 0
M  V30 10697 H 1006.91 0.661064 -4.12233 0
M  V30 10698 H 1008.3 -2.88006 -6.07044 0
M  V30 10699 N 1011.02 1.44971 -0.618145 0
M  V30 10700 C 1012.27 2.02159 -0.117482 0
M  V30 10701 C 1012.6 1.48517 1.2559 0
M  V30 10702 O 1011.85 0.654192 1.84442 0
M  V30 10703 C 1012.15 3.57378 -0.0394861 0
M  V30 10704 C 1011.82 4.30218 -1.34993 0
M  V30 10705 C 1010.48 4.49835 -1.70886 0
M  V30 10706 C 1012.83 4.71768 -2.21551 0
M  V30 10707 C 1010.16 5.08258 -2.9307 0
M  V30 10708 C 1012.51 5.31543 -3.42993 0
M  V30 10709 C 1011.17 5.49381 -3.79126 0
M  V30 10710 H 1010.44 0.739752 -0.0429897 0
M  V30 10711 H 1013.09 1.73903 -0.801871 0
M  V30 10712 H 1011.4 3.84973 0.728217 0
M  V30 10713 H 1013.09 3.99343 0.364213 0
M  V30 10714 H 1009.68 4.15271 -1.06057 0
M  V30 10715 H 1013.87 4.56336 -1.95117 0
M  V30 10716 H 1009.12 5.20257 -3.21158 0
M  V30 10717 H 1013.3 5.62691 -4.10308 0
M  V30 10718 H 1010.92 5.94419 -4.73888 0
M  V30 10719 N 1012.5 0.357919 1.53482 0
M  V30 10720 C 1013.43 -0.484231 2.28424 0
M  V30 10721 C 1014.41 -1.09046 1.30548 0
M  V30 10722 O 1015.59 -1.10916 1.59409 0
M  V30 10723 C 1012.72 -1.62803 3.06778 0
M  V30 10724 C 1011.68 -1.14943 4.12277 0
M  V30 10725 C 1011 -2.38287 4.78669 0
M  V30 10726 C 1012.3 -0.239627 5.2175 0
M  V30 10727 H 1014 0.140979 2.99068 0
M  V30 10728 H 1011.54 0.069244 1.43833 0
M  V30 10729 H 1013.5 -2.22374 3.57949 0
M  V30 10730 H 1012.22 -2.28036 2.3381 0
M  V30 10731 H 1010.88 -0.576442 3.6204 0
M  V30 10732 H 1010.53 -3.01959 4.02281 0
M  V30 10733 H 1010.23 -2.06939 5.49955 0
M  V30 10734 H 1011.75 -2.98558 5.32631 0
M  V30 10735 H 1013.17 -0.742597 5.6847 0
M  V30 10736 H 1011.56 -0.0173747 6.00097 0
M  V30 10737 H 1012.63 0.720333 4.7952 0
M  V30 10738 N 1013.98 -1.5736 0.0868897 0
M  V30 10739 C 1015.2 -1.98809 -0.590757 0
M  V30 10740 C 1015.63 -0.965407 -1.61436 0
M  V30 10741 O 1014.98 0.067143 -1.81176 0
M  V30 10742 C 1015.03 -3.39249 -1.22238 0
M  V30 10743 O 1014.14 -3.39706 -2.33824 0
M  V30 10744 H 1013.48 -0.64669 -0.150626 0
M  V30 10745 H 1016.01 -2.03927 0.165873 0
M  V30 10746 H 1016.02 -3.76765 -1.56564 0
M  V30 10747 H 1014.69 -4.13208 -0.472434 0
M  V30 10748 H 1013.27 -3.13977 -2.01178 0
M  V30 10749 N 1015.45 0.186762 -1.56489 0
M  V30 10750 C 1016.87 0.750675 -1.70944 0
M  V30 10751 C 1017.22 1.83483 -0.694858 0
M  V30 10752 O 1016.34 2.159 0.147009 0
M  V30 10753 C 1016.94 1.36843 -3.09934 0
M  V30 10754 C 1015.5 1.87934 -3.26125 0
M  V30 10755 C 1014.64 0.75242 -2.66897 0
M  V30 10756 H 1017.59 -0.0384292 -1.58653 0
M  V30 10757 H 1017.61 2.23795 -3.07727 0
M  V30 10758 H 1017.13 0.579135 -3.83755 0
M  V30 10759 H 1015.23 2.69556 -2.57235 0
M  V30 10760 H 1015.34 2.0354 -4.33715 0
M  V30 10761 H 1013.7 1.16888 -2.26295 0
M  V30 10762 H 1014.49 -0.0247769 -3.43291 0
M  V30 10763 N 1016.93 1.50896 0.454776 0
M  V30 10764 C 1018.16 1.66239 1.22671 0
M  V30 10765 C 1018.57 0.351876 1.85899 0
M  V30 10766 O 1017.91 -0.677848 1.70736 0
M  V30 10767 C 1017.98 2.70812 2.36434 0
M  V30 10768 C 1017.64 4.13913 1.93714 0
M  V30 10769 C 1018.64 4.99259 1.45039 0
M  V30 10770 C 1016.32 4.59921 2.01937 0
M  V30 10771 C 1018.32 6.28667 1.05151 0
M  V30 10772 C 1016 5.89329 1.6166 0
M  V30 10773 C 1017 6.73529 1.13347 0
M  V30 10774 O 1016.69 8.0052 0.736354 0
M  V30 10775 H 1016.42 0.561443 0.376508 0
M  V30 10776 H 1018.97 1.97974 0.547325 0
M  V30 10777 H 1017.2 2.34355 3.07595 0
M  V30 10778 H 1018.89 2.7521 2.98353 0
M  V30 10779 H 1019.66 4.64925 1.38095 0
M  V30 10780 H 1015.54 3.94518 2.38488 0
M  V30 10781 H 1019.08 6.94339 0.673711 0
M  V30 10782 H 1014.98 6.23182 1.68269 0
M  V30 10783 H 1015.75 8.1393 0.863759 0
M  V30 10784 N 1018.41 -0.709066 1.40748 0
M  V30 10785 C 1019.66 -1.47119 1.39585 0
M  V30 10786 C 1019.99 -1.942 0.000245323 0
M  V30 10787 O 1019.26 -1.68609 -0.969593 0
M  V30 10788 C 1019.55 -2.69266 2.39099 0
M  V30 10789 C 1019.4 -2.28037 3.8771 0
M  V30 10790 C 1020.72 -3.71438 2.36055 0
M  V30 10791 H 1017.84 -0.533632 0.508336 0
M  V30 10792 H 1020.48 -0.808718 1.7193 0
M  V30 10793 H 1018.63 -3.25788 2.11647 0
M  V30 10794 H 1020.3 -1.76946 4.26014 0
M  V30 10795 H 1018.55 -1.59966 4.03229 0
M  V30 10796 H 1019.22 -3.15621 4.52866 0
M  V30 10797 H 1021.69 -3.24559 2.60385 0
M  V30 10798 H 1020.57 -4.54532 3.07721 0
M  V30 10799 H 1020.83 -4.20193 1.37443 0
M  V30 10800 N 1019.89 -1.26353 -0.941956 0
M  V30 10801 C 1021.11 -1.14731 -1.72776 0
M  V30 10802 C 1021.54 0.293766 -1.85792 0
M  V30 10803 O 1020.9 1.21284 -1.34759 0
M  V30 10804 C 1020.95 -1.82041 -3.11277 0
M  V30 10805 O 1020.05 -1.10867 -3.97218 0
M  V30 10806 H 1019.39 -0.399823 -0.53013 0
M  V30 10807 H 1021.92 -1.67157 -1.17981 0
M  V30 10808 H 1021.93 -1.88834 -3.61671 0
M  V30 10809 H 1020.61 -2.86879 -3.0112 0
M  V30 10810 H 1019.18 -1.12044 -3.55669 0
M  V30 10811 N 1021.37 1.14642 -1.08144 0
M  V30 10812 C 1022.78 1.6719 -0.830923 0
M  V30 10813 C 1023.13 1.85373 0.642749 0
M  V30 10814 O 1022.25 1.56293 1.49671 0
M  V30 10815 C 1022.85 3.03697 -1.50179 0
M  V30 10816 C 1021.41 3.5329 -1.29858 0
M  V30 10817 C 1020.56 2.28828 -1.5663 0
M  V30 10818 H 1023.51 0.987441 -1.24239 0
M  V30 10819 H 1023.53 3.69023 -0.9275 0
M  V30 10820 H 1023.04 2.90431 -2.57432 0
M  V30 10821 H 1021.14 3.71783 -0.246626 0
M  V30 10822 H 1021.25 4.34231 -2.02436 0
M  V30 10823 H 1019.62 2.34769 -0.987716 0
M  V30 10824 H 1020.4 2.18141 -2.65084 0
M  V30 10825 N 1022.85 0.866709 1.31628 0
M  V30 10826 C 1023.79 0.318169 2.28596 0
M  V30 10827 C 1024.76 -0.581558 1.55586 0
M  V30 10828 O 1025.95 -0.513895 1.83749 0
M  V30 10829 C 1023.09 -0.477137 3.41786 0
M  V30 10830 C 1022.2 0.449739 4.29653 0
M  V30 10831 C 1021.34 -0.359373 5.29983 0
M  V30 10832 C 1020.37 0.564138 6.09495 0
M  V30 10833 N 1019.51 -0.208526 7.0179 0
M  V30 10834 H 1024.35 1.15029 2.74904 0
M  V30 10835 H 1021.89 0.578649 1.35241 0
M  V30 10836 H 1023.85 -0.953985 4.06146 0
M  V30 10837 H 1022.48 -1.27398 2.96597 0
M  V30 10838 H 1021.53 1.04502 3.65764 0
M  V30 10839 H 1022.84 1.158 4.85172 0
M  V30 10840 H 1021.99 -0.89887 6.00004 0
M  V30 10841 H 1020.73 -1.10094 4.75111 0
M  V30 10842 H 1019.74 1.11542 5.38366 0
M  V30 10843 H 1020.96 1.30451 6.66453 0
M  V30 10844 H 1018.91 -0.932969 6.49332 0
M  V30 10845 H 1018.83 0.440463 7.54716 0
M  V30 10846 H 1020.09 -0.72936 7.7608 0
M  V30 10847 N 1024.32 -1.44642 0.625825 0
M  V30 10848 C 1025.23 -2.34451 -0.0836134 0
M  V30 10849 C 1026.25 -1.5231 -0.841289 0
M  V30 10850 O 1027.43 -1.85056 -0.794754 0
M  V30 10851 C 1024.49 -3.30211 -1.05648 0
M  V30 10852 C 1023.55 -4.28259 -0.298759 0
M  V30 10853 C 1022.78 -5.19444 -1.22528 0
M  V30 10854 O 1023.01 -5.14444 -2.46382 0
M  V30 10855 O 1021.94 -5.97668 -0.71247 0
M  V30 10856 H 1025.77 -2.96555 0.654912 0
M  V30 10857 H 1023.35 -1.44327 0.386029 0
M  V30 10858 H 1025.23 -3.8917 -1.61632 0
M  V30 10859 H 1023.91 -2.70648 -1.77571 0
M  V30 10860 H 1022.82 -3.72863 0.304001 0
M  V30 10861 H 1024.15 -4.90728 0.380345 0
M  V30 10862 N 1025.8 -0.366053 -1.5329 0
M  V30 10863 C 1027.03 0.226839 -2.06156 0
M  V30 10864 C 1027.45 1.41637 -1.23776 0
M  V30 10865 O 1026.81 1.7947 -0.256948 0
M  V30 10866 C 1026.86 0.597956 -3.55608 0
M  V30 10867 O 1025.96 1.69512 -3.75951 0
M  V30 10868 H 1025.3 0.0329156 -0.663184 0
M  V30 10869 H 1027.83 -0.526793 -1.97702 0
M  V30 10870 H 1027.84 0.868831 -3.98642 0
M  V30 10871 H 1026.52 -0.271838 -4.15011 0
M  V30 10872 H 1025.09 1.41976 -3.44815 0
M  V30 10873 N 1027.28 1.57312 -0.0952337 0
M  V30 10874 C 1028.69 1.81589 0.433875 0
M  V30 10875 C 1029.04 1.01086 1.68155 0
M  V30 10876 O 1028.17 0.240272 2.15062 0
M  V30 10877 C 1028.76 3.29366 0.793931 0
M  V30 10878 C 1027.32 3.54407 1.26778 0
M  V30 10879 C 1026.47 2.76035 0.264518 0
M  V30 10880 H 1029.42 1.55426 -0.320675 0
M  V30 10881 H 1029.44 3.42697 1.65345 0
M  V30 10882 H 1028.95 3.87932 -0.114334 0
M  V30 10883 H 1027.05 3.01173 2.19376 0
M  V30 10884 H 1027.17 4.63055 1.22952 0
M  V30 10885 H 1025.53 2.43509 0.746691 0
M  V30 10886 H 1026.31 3.37349 -0.636429 0
M  V30 10887 N 1028.76 -0.17846 1.56586 0
M  V30 10888 C 1030 -0.896235 1.81587 0
M  V30 10889 C 1030.33 -1.82553 0.671168 0
M  V30 10890 O 1029.59 -1.92688 -0.342046 0
M  V30 10891 C 1029.89 -1.73063 3.12704 0
M  V30 10892 C 1029.55 -0.950877 4.4076 0
M  V30 10893 C 1028.21 -0.735647 4.75544 0
M  V30 10894 C 1030.57 -0.403419 5.19636 0
M  V30 10895 C 1027.89 0.0382562 5.86688 0
M  V30 10896 C 1030.25 0.357359 6.3159 0
M  V30 10897 C 1028.91 0.583455 6.64945 0
M  V30 10898 H 1028.18 -0.327956 0.664474 0
M  V30 10899 H 1030.83 -0.161586 1.90817 0
M  V30 10900 H 1029.13 -2.53446 2.98785 0
M  V30 10901 H 1030.83 -2.28891 3.29257 0
M  V30 10902 H 1027.42 -1.12866 4.13472 0
M  V30 10903 H 1031.6 -0.557059 4.93164 0
M  V30 10904 H 1026.86 0.223237 6.10992 0
M  V30 10905 H 1031.03 0.788861 6.91918 0
M  V30 10906 H 1028.66 1.18502 7.50907 0
M  V30 10907 N 1030.24 -1.51135 -0.446768 0
M  V30 10908 C 1031.65 -1.39101 -0.782504 0
M  V30 10909 C 1031.85 -0.46599 -1.96038 0
M  V30 10910 O 1030.91 0.0823679 -2.52366 0
M  V30 10911 C 1032.22 -2.80953 -1.07173 0
M  V30 10912 C 1033.77 -2.90038 -1.17673 0
M  V30 10913 C 1034.24 -4.32777 -1.49894 0
M  V30 10914 N 1035.73 -4.3584 -1.56837 0
M  V30 10915 C 1036.47 -5.43305 -1.83322 0
M  V30 10916 N 1035.97 -6.60945 -2.07662 0
M  V30 10917 N 1037.76 -5.30775 -1.85026 0
M  V30 10918 H 1029.91 -2.09835 0.329114 0
M  V30 10919 H 1032.17 -0.944199 0.0848054 0
M  V30 10920 H 1031.88 -3.50591 -0.279037 0
M  V30 10921 H 1031.75 -3.197 -2.00179 0
M  V30 10922 H 1034.14 -2.20603 -1.96005 0
M  V30 10923 H 1034.22 -2.54801 -0.225892 0
M  V30 10924 H 1033.86 -5.02757 -0.720924 0
M  V30 10925 H 1033.79 -4.6552 -2.46168 0
M  V30 10926 H 1036.29 -3.51023 -1.39968 0
M  V30 10927 H 1036.6 -7.38643 -2.27214 0
M  V30 10928 H 1034.94 -6.64077 -2.05003 0
M  V30 10929 H 1038.13 -4.37858 -1.65523 0
M  V30 10930 H 1038.31 -6.14609 -2.05329 0
M  V30 10931 N 1031.71 0.701592 -1.41122 0
M  V30 10932 C 1032.66 1.80755 -1.38966 0
M  V30 10933 C 1033.65 1.58703 -0.264964 0
M  V30 10934 O 1034.84 1.69638 -0.505168 0
M  V30 10935 C 1031.97 3.1901 -1.26836 0
M  V30 10936 C 1031.05 3.46777 -2.44144 0
M  V30 10937 N 1031.45 3.45278 -3.69617 0
M  V30 10938 C 1029.74 3.77299 -2.37826 0
M  V30 10939 C 1030.44 3.71782 -4.47385 0
M  V30 10940 N 1029.42 3.91228 -3.77415 0
M  V30 10941 H 1033.22 1.7795 -2.33904 0
M  V30 10942 H 1030.74 0.901325 -1.35092 0
M  V30 10943 H 1032.73 3.98227 -1.23373 0
M  V30 10944 H 1031.39 3.23031 -0.328777 0
M  V30 10945 H 1032.4 3.258 -4.02585 0
M  V30 10946 H 1029.08 3.88727 -1.52309 0
M  V30 10947 H 1030.47 3.7681 -5.56295 0
M  V30 10948 N 1033.19 1.2685 0.935242 0
M  V30 10949 C 1034.44 1.12912 1.6846 0
M  V30 10950 C 1034.77 -0.325708 1.91449 0
M  V30 10951 O 1034.05 -1.23884 1.49944 0
M  V30 10952 C 1034.33 1.90513 3.05576 0
M  V30 10953 C 1034.18 3.43936 2.89876 0
M  V30 10954 C 1035.5 1.70363 4.05789 0
M  V30 10955 H 1032.62 0.411559 0.611382 0
M  V30 10956 H 1035.26 1.55917 1.08582 0
M  V30 10957 H 1033.41 1.53963 3.5669 0
M  V30 10958 H 1035.08 3.90272 2.45939 0
M  V30 10959 H 1033.33 3.70659 2.25376 0
M  V30 10960 H 1034 3.93467 3.87153 0
M  V30 10961 H 1036.47 2.02217 3.63659 0
M  V30 10962 H 1035.35 2.27066 4.99732 0
M  V30 10963 H 1035.61 0.649674 4.373 0
M  V30 10964 N 1034.67 -1.14067 1.0875 0
M  V30 10965 C 1035.92 -1.85185 0.819317 0
M  V30 10966 C 1036.25 -1.8314 -0.654969 0
M  V30 10967 O 1035.5 -1.25974 -1.49763 0
M  V30 10968 C 1035.8 -3.33273 1.29089 0
M  V30 10969 C 1035.47 -3.55504 2.77359 0
M  V30 10970 C 1034.13 -3.61279 3.17853 0
M  V30 10971 C 1036.48 -3.64041 3.72992 0
M  V30 10972 C 1033.81 -3.73119 4.52768 0
M  V30 10973 C 1036.16 -3.77407 5.07687 0
M  V30 10974 C 1034.82 -3.81433 5.47782 0
M  V30 10975 H 1034.09 -0.67764 0.299809 0
M  V30 10976 H 1036.74 -1.34713 1.36106 0
M  V30 10977 H 1035.05 -3.86049 0.668811 0
M  V30 10978 H 1036.74 -3.86734 1.06009 0
M  V30 10979 H 1033.33 -3.51659 2.45019 0
M  V30 10980 H 1037.52 -3.58866 3.42825 0
M  V30 10981 H 1032.77 -3.74499 4.83281 0
M  V30 10982 H 1036.95 -3.82956 5.81651 0
M  V30 10983 H 1034.57 -3.9036 6.52321 0
M  V30 10984 N 1036.15 -0.873678 -1.31166 0
M  V30 10985 C 1037.39 -0.496513 -1.97247 0
M  V30 10986 C 1037.75 0.941605 -1.67784 0
M  V30 10987 O 1037.04 1.65469 -0.965947 0
M  V30 10988 C 1037.24 -0.69462 -3.50585 0
M  V30 10989 C 1037.07 -2.15044 -3.94951 0
M  V30 10990 C 1035.84 -2.79278 -4.21108 0
M  V30 10991 C 1038.03 -3.1231 -4.08616 0
M  V30 10992 N 1036.02 -4.15574 -4.51853 0
M  V30 10993 C 1037.39 -4.33646 -4.43115 0
M  V30 10994 C 1039.44 -3.08251 -3.91006 0
M  V30 10995 C 1038.14 -5.51447 -4.61842 0
M  V30 10996 C 1040.17 -4.25314 -4.10929 0
M  V30 10997 C 1039.53 -5.45413 -4.45763 0
M  V30 10998 H 1035.63 -0.230797 -0.747166 0
M  V30 10999 H 1038.22 -1.12905 -1.58621 0
M  V30 11000 H 1036.39 -0.0916484 -3.88292 0
M  V30 11001 H 1038.12 -0.285475 -4.03692 0
M  V30 11002 H 1034.87 -2.30207 -4.13886 0
M  V30 11003 H 1035.3 -4.85932 -4.7138 0
M  V30 11004 H 1039.94 -2.16505 -3.6316 0
M  V30 11005 H 1037.66 -6.43707 -4.88535 0
M  V30 11006 H 1041.24 -4.2363 -3.98785 0
M  V30 11007 H 1040.12 -6.34487 -4.60865 0
M  V30 11008 N 1037.63 1.44308 -0.633487 0
M  V30 11009 C 1038.87 2.01624 -0.138643 0
M  V30 11010 C 1039.2 1.50101 1.24477 0
M  V30 11011 O 1038.47 0.705575 1.82752 0
M  V30 11012 H 1037.05 0.745439 -0.0482636 0
M  V30 11013 H 1039.71 1.76777 -0.820719 0
M  V30 11014 H 1038.8 3.11913 -0.108136 0
M  V30 11015 N 1039.1 0.374177 1.53094 0
M  V30 11016 C 1040.33 -0.215903 2.06273 0
M  V30 11017 C 1040.75 -1.40979 1.24526 0
M  V30 11018 O 1040.11 -1.79331 0.266462 0
M  V30 11019 C 1040.16 -0.579089 3.5592 0
M  V30 11020 O 1039.26 -1.67516 3.76845 0
M  V30 11021 H 1038.61 -0.0293981 0.663349 0
M  V30 11022 H 1041.14 0.537271 1.9742 0
M  V30 11023 H 1041.15 -0.847678 3.99097 0
M  V30 11024 H 1039.82 0.293843 4.14861 0
M  V30 11025 H 1038.4 -1.40146 3.45563 0
M  V30 11026 N 1040.58 -1.57259 0.103575 0
M  V30 11027 C 1041.83 -1.94272 -0.557024 0
M  V30 11028 C 1042.15 -0.986739 -1.68192 0
M  V30 11029 O 1041.42 -0.0402818 -1.95859 0
M  V30 11030 H 1040 -0.717237 -0.208757 0
M  V30 11031 H 1042.66 -1.94167 0.168898 0
M  V30 11032 H 1041.76 -2.96914 -0.961691 0
M  V30 11033 N 1042.06 0.170153 -1.56679 0
M  V30 11034 C 1043.29 0.90618 -1.86556 0
M  V30 11035 C 1043.71 1.74986 -0.690044 0
M  V30 11036 O 1043.07 1.77672 0.360862 0
M  V30 11037 C 1043.12 1.75777 -3.14857 0
M  V30 11038 O 1042.22 2.85952 -2.97162 0
M  V30 11039 H 1041.56 0.253781 -0.613589 0
M  V30 11040 H 1044.09 0.167943 -2.0391 0
M  V30 11041 H 1044.1 2.15747 -3.46291 0
M  V30 11042 H 1042.78 1.13807 -4.00026 0
M  V30 11043 H 1041.35 2.49557 -2.77084 0
M  V30 11044 N 1043.54 1.5137 0.438746 0
M  V30 11045 C 1044.49 1.68966 1.53083 0
M  V30 11046 C 1045.47 0.543669 1.51437 0
M  V30 11047 O 1046.66 0.799519 1.57914 0
M  V30 11048 C 1043.79 1.8168 2.91286 0
M  V30 11049 C 1042.88 3.02059 2.97693 0
M  V30 11050 N 1043.27 4.25254 2.73848 0
M  V30 11051 C 1041.57 3.01284 3.28852 0
M  V30 11052 C 1042.27 5.06501 2.86062 0
M  V30 11053 N 1041.25 4.41119 3.17671 0
M  V30 11054 H 1045.05 2.61883 1.33397 0
M  V30 11055 H 1042.56 1.48997 0.64603 0
M  V30 11056 H 1044.56 1.92396 3.6985 0
M  V30 11057 H 1043.22 0.899438 3.11994 0
M  V30 11058 H 1044.23 4.54222 2.48803 0
M  V30 11059 H 1040.91 2.19174 3.55344 0
M  V30 11060 H 1042.3 6.14563 2.71592 0
M  V30 11061 N 1045.02 -0.694098 1.41492 0
M  V30 11062 C 1046.24 -1.48286 1.44288 0
M  V30 11063 C 1046.66 -1.88737 0.0485783 0
M  V30 11064 O 1046.02 -1.56881 -0.932449 0
M  V30 11065 C 1046.07 -2.74446 2.3529 0
M  V30 11066 O 1045.79 -2.35698 3.69294 0
M  V30 11067 C 1047.29 -3.68175 2.46905 0
M  V30 11068 H 1044.51 -0.45692 0.491391 0
M  V30 11069 H 1047.05 -0.854477 1.85793 0
M  V30 11070 H 1045.21 -3.33518 1.9709 0
M  V30 11071 H 1045.62 -3.17029 4.17843 0
M  V30 11072 H 1047.1 -4.53476 3.14743 0
M  V30 11073 H 1047.57 -4.12763 1.50078 0
M  V30 11074 H 1048.18 -3.15006 2.85747 0
M  V30 11075 N 1046.49 -1.27344 -0.928501 0
M  V30 11076 C 1047.42 -1.12517 -2.04602 0
M  V30 11077 C 1048.41 -0.0268563 -1.70079 0
M  V30 11078 O 1049.59 -0.201197 -1.93155 0
M  V30 11079 C 1046.72 -0.770749 -3.3864 0
M  V30 11080 C 1045.67 -1.8222 -3.87272 0
M  V30 11081 C 1045 -1.32178 -5.18105 0
M  V30 11082 C 1046.3 -3.22614 -4.10752 0
M  V30 11083 H 1047.99 -2.06 -2.17265 0
M  V30 11084 H 1045.54 -0.991827 -1.04397 0
M  V30 11085 H 1047.49 -0.653843 -4.16297 0
M  V30 11086 H 1046.22 0.19979 -3.25988 0
M  V30 11087 H 1044.88 -1.928 -3.11807 0
M  V30 11088 H 1044.52 -0.340719 -5.01845 0
M  V30 11089 H 1044.22 -2.02474 -5.51614 0
M  V30 11090 H 1045.75 -1.2178 -5.98333 0
M  V30 11091 H 1047.16 -3.1504 -4.78981 0
M  V30 11092 H 1045.56 -3.90614 -4.55566 0
M  V30 11093 H 1046.63 -3.67727 -3.16077 0
M  V30 11094 N 1047.97 1.13488 -1.09353 0
M  V30 11095 C 1049.38 1.66299 -0.848609 0
M  V30 11096 C 1049.73 1.86044 0.623051 0
M  V30 11097 O 1048.86 1.57871 1.48005 0
M  V30 11098 C 1049.45 3.02087 -1.53391 0
M  V30 11099 C 1048.01 3.51893 -1.33598 0
M  V30 11100 C 1047.16 2.27154 -1.59048 0
M  V30 11101 H 1050.11 0.974208 -1.25279 0
M  V30 11102 H 1050.13 3.68018 -0.966587 0
M  V30 11103 H 1049.64 2.87684 -2.60498 0
M  V30 11104 H 1047.75 3.715 -0.286045 0
M  V30 11105 H 1047.86 4.32059 -2.0703 0
M  V30 11106 H 1046.22 2.33708 -1.01256 0
M  V30 11107 H 1047.01 2.15317 -2.67383 0
M  V30 11108 N 1049.45 0.880621 1.30701 0
M  V30 11109 C 1050.41 0.349087 2.26526 0
M  V30 11110 C 1051.41 -0.505973 1.52632 0
M  V30 11111 O 1052.6 -0.313751 1.71351 0
M  V30 11112 C 1049.74 -0.503023 3.37168 0
M  V30 11113 H 1050.93 1.19516 2.75056 0
M  V30 11114 H 1048.48 0.657107 1.41816 0
M  V30 11115 H 1049.22 -1.36986 2.93948 0
M  V30 11116 H 1049 0.109389 3.91947 0
M  V30 11117 H 1050.49 -0.866845 4.08504 0
M  V30 11118 N 1050.93 -1.4397 0.641131 0
M  V30 11119 C 1051.86 -2.33458 -0.04446 0
M  V30 11120 C 1052.84 -1.48781 -0.824507 0
M  V30 11121 O 1054.03 -1.77477 -0.788397 0
M  V30 11122 C 1051.16 -3.31989 -1.01984 0
M  V30 11123 C 1050.11 -4.2656 -0.350745 0
M  V30 11124 C 1049.44 -5.15036 -1.43673 0
M  V30 11125 C 1050.74 -5.16897 0.749299 0
M  V30 11126 H 1052.43 -2.91034 0.702832 0
M  V30 11127 H 1049.98 -1.39942 0.339435 0
M  V30 11128 H 1051.93 -3.93483 -1.50828 0
M  V30 11129 H 1050.65 -2.72643 -1.79815 0
M  V30 11130 H 1049.31 -3.66413 0.117139 0
M  V30 11131 H 1048.96 -4.52037 -2.20617 0
M  V30 11132 H 1048.66 -5.79125 -0.994358 0
M  V30 11133 H 1050.18 -5.79403 -1.92678 0
M  V30 11134 H 1051.6 -5.7227 0.343534 0
M  V30 11135 H 1049.99 -5.89643 1.11541 0
M  V30 11136 H 1051.06 -4.5731 1.61232 0
M  V30 11137 N 1052.41 -0.382291 -1.52893 0
M  V30 11138 C 1053.34 0.447829 -2.29165 0
M  V30 11139 C 1054.32 1.06956 -1.32267 0
M  V30 11140 O 1055.5 1.08365 -1.61154 0
M  V30 11141 C 1052.63 1.57902 -3.09329 0
M  V30 11142 C 1051.59 1.08369 -4.14053 0
M  V30 11143 C 1050.91 2.30641 -4.82399 0
M  V30 11144 C 1052.21 0.156591 -5.22065 0
M  V30 11145 H 1053.91 -0.188541 -2.98806 0
M  V30 11146 H 1051.45 -0.0921179 -1.43705 0
M  V30 11147 H 1053.41 2.16652 -3.61442 0
M  V30 11148 H 1052.13 2.24287 -2.37409 0
M  V30 11149 H 1050.79 0.518772 -3.62911 0
M  V30 11150 H 1050.44 2.9552 -4.07034 0
M  V30 11151 H 1050.14 1.98163 -5.53177 0
M  V30 11152 H 1051.66 2.90047 -5.37313 0
M  V30 11153 H 1053.08 0.652065 -5.6958 0
M  V30 11154 H 1051.47 -0.0780978 -6.00049 0
M  V30 11155 H 1052.54 -0.796529 -4.78313 0
M  V30 11156 N 1053.89 1.57202 -0.111913 0
M  V30 11157 C 1054.8 2.18475 0.854753 0
M  V30 11158 C 1055.81 1.15888 1.29792 0
M  V30 11159 O 1056.99 1.48329 1.36237 0
M  V30 11160 C 1054.05 2.76645 2.0897 0
M  V30 11161 C 1053.11 3.94244 1.69913 0
M  V30 11162 C 1052.35 4.49631 2.8752 0
M  V30 11163 O 1052.57 4.03926 4.02741 0
M  V30 11164 O 1051.5 5.40417 2.65015 0
M  V30 11165 H 1055.33 3.01519 0.363352 0
M  V30 11166 H 1052.91 1.4897 0.113329 0
M  V30 11167 H 1054.8 3.13755 2.81311 0
M  V30 11168 H 1053.47 1.96637 2.5713 0
M  V30 11169 H 1052.38 3.61915 0.947013 0
M  V30 11170 H 1053.71 4.75666 1.26501 0
M  V30 11171 N 1055.36 -0.161842 1.56767 0
M  V30 11172 C 1056.31 -1.21948 1.98069 0
M  V30 11173 C 1057.31 -1.45303 0.870835 0
M  V30 11174 O 1058.51 -1.45771 1.05598 0
M  V30 11175 H 1054.89 -0.410145 0.630306 0
M  V30 11176 H 1056.86 -0.844336 2.86205 0
M  V30 11177 C 1055.61 -2.549 2.36477 0
M  V30 11178 H 1054.93 -2.37755 3.21423 0
M  V30 11179 H 1056.37 -3.27568 2.69212 0
M  V30 11180 C 1054.83 -3.14353 1.21176 0
M  V30 11181 O 1055.36 -3.98519 0.504499 0
M  V30 11182 N 1053.56 -2.73582 0.979855 0
M  V30 11183 H 1053.11 -2.05239 1.55675 0
M  V30 11184 H 1053.07 -3.13696 0.21025 0
M  V30 11185 N 1056.84 -1.516 -0.430713 0
M  V30 11186 C 1057.77 -1.76342 -1.53054 0
M  V30 11187 C 1058.75 -0.61349 -1.58652 0
M  V30 11188 O 1059.94 -0.856888 -1.74273 0
M  V30 11189 C 1057.07 -1.8945 -2.91077 0
M  V30 11190 C 1056.02 -3.04928 -3.00339 0
M  V30 11191 C 1055.35 -3.03228 -4.40405 0
M  V30 11192 C 1056.65 -4.44777 -2.73808 0
M  V30 11193 H 1058.34 -2.68435 -1.326 0
M  V30 11194 H 1055.89 -1.29171 -0.636466 0
M  V30 11195 H 1057.84 -2.05343 -3.67984 0
M  V30 11196 H 1056.56 -0.940114 -3.12777 0
M  V30 11197 H 1055.22 -2.88751 -2.25872 0
M  V30 11198 H 1054.87 -2.05553 -4.59083 0
M  V30 11199 H 1054.57 -3.80776 -4.47531 0
M  V30 11200 H 1056.1 -3.21222 -5.19277 0
M  V30 11201 H 1057.51 -4.6127 -3.40445 0
M  V30 11202 H 1055.91 -5.2408 -2.92335 0
M  V30 11203 H 1056.98 -4.54358 -1.69372 0
M  V30 11204 N 1058.32 0.686584 -1.41858 0
M  V30 11205 C 1059.27 1.80038 -1.44413 0
M  V30 11206 C 1060.24 1.63415 -0.297427 0
M  V30 11207 O 1061.42 1.84138 -0.499789 0
M  V30 11208 C 1058.56 3.17988 -1.34082 0
M  V30 11209 C 1057.67 3.45979 -2.58693 0
M  V30 11210 C 1056.81 4.73592 -2.4059 0
M  V30 11211 C 1055.85 4.94581 -3.60633 0
M  V30 11212 N 1054.99 6.13426 -3.41545 0
M  V30 11213 H 1059.83 1.77189 -2.396 0
M  V30 11214 H 1057.36 0.865158 -1.18968 0
M  V30 11215 H 1059.32 3.97689 -1.26092 0
M  V30 11216 H 1057.95 3.1999 -0.424975 0
M  V30 11217 H 1057 2.60617 -2.77097 0
M  V30 11218 H 1058.31 3.57386 -3.47961 0
M  V30 11219 H 1057.47 5.61364 -2.30119 0
M  V30 11220 H 1056.21 4.64448 -1.48794 0
M  V30 11221 H 1055.21 4.05254 -3.71549 0
M  V30 11222 H 1056.44 5.05578 -4.53395 0
M  V30 11223 H 1054.38 6.05477 -2.52456 0
M  V30 11224 H 1054.3 6.25641 -4.24393 0
M  V30 11225 H 1055.57 7.03908 -3.34864 0
M  V30 11226 N 1059.8 1.27835 0.921735 0
M  V30 11227 C 1060.73 1.136 2.04003 0
M  V30 11228 C 1061.71 0.0358756 1.70062 0
M  V30 11229 O 1062.89 0.211438 1.93046 0
M  V30 11230 C 1060.02 0.788697 3.38226 0
M  V30 11231 C 1058.98 1.84272 3.863 0
M  V30 11232 C 1058.3 1.34923 5.17397 0
M  V30 11233 C 1059.6 3.24788 4.09035 0
M  V30 11234 H 1061.3 2.07149 2.1617 0
M  V30 11235 H 1058.84 0.997349 1.0387 0
M  V30 11236 H 1060.8 0.675911 4.15944 0
M  V30 11237 H 1059.52 -0.182499 3.2609 0
M  V30 11238 H 1058.18 1.94451 3.1078 0
M  V30 11239 H 1057.83 0.367328 5.01657 0
M  V30 11240 H 1057.53 2.05397 5.50532 0
M  V30 11241 H 1059.05 1.24951 5.97678 0
M  V30 11242 H 1060.47 3.17575 4.77304 0
M  V30 11243 H 1058.86 3.93025 4.53488 0
M  V30 11244 H 1059.93 3.69398 3.14122 0
M  V30 11245 N 1061.28 -1.12907 1.09954 0
M  V30 11246 C 1062.69 -1.363 0.830326 0
M  V30 11247 C 1062.89 -1.93772 -0.552694 0
M  V30 11248 O 1061.95 -2.1607 -1.30652 0
M  V30 11249 C 1063.26 -2.30925 1.92598 0
M  V30 11250 C 1064.81 -2.44528 1.95385 0
M  V30 11251 C 1065.28 -3.42464 3.0411 0
M  V30 11252 N 1066.77 -3.50018 3.03384 0
M  V30 11253 C 1067.51 -4.25693 3.84152 0
M  V30 11254 N 1067.01 -5.04476 4.74843 0
M  V30 11255 N 1068.8 -4.21049 3.7239 0
M  V30 11256 H 1060.95 -0.739571 1.99108 0
M  V30 11257 H 1063.21 -0.387983 0.86497 0
M  V30 11258 H 1062.92 -1.95861 2.92115 0
M  V30 11259 H 1062.79 -3.30997 1.80889 0
M  V30 11260 H 1065.18 -2.78875 0.965037 0
M  V30 11261 H 1065.26 -1.44361 2.11172 0
M  V30 11262 H 1064.9 -3.08847 4.03207 0
M  V30 11263 H 1064.83 -4.42448 2.85565 0
M  V30 11264 H 1067.33 -2.93809 2.37665 0
M  V30 11265 H 1067.64 -5.59541 5.33042 0
M  V30 11266 H 1065.98 -5.0369 4.78875 0
M  V30 11267 H 1069.17 -3.5858 3.00895 0
M  V30 11268 H 1069.35 -4.79771 4.35572 0
M  V30 11269 N 1062.75 -0.88754 -1.30232 0
M  V30 11270 C 1063.7 -0.354497 -2.28061 0
M  V30 11271 C 1064.67 0.556732 -1.56492 0
M  V30 11272 O 1065.86 0.484597 -1.84543 0
M  V30 11273 C 1063 0.422701 -3.42501 0
M  V30 11274 C 1062.11 -0.518036 -4.28883 0
M  V30 11275 C 1061.24 0.275011 -5.30488 0
M  V30 11276 C 1060.28 -0.661032 -6.0852 0
M  V30 11277 N 1059.42 0.0968509 -7.02033 0
M  V30 11278 H 1064.26 -1.19388 -2.73039 0
M  V30 11279 H 1061.8 -0.600091 -1.34303 0
M  V30 11280 H 1063.75 0.889249 -4.07613 0
M  V30 11281 H 1062.38 1.22664 -2.98586 0
M  V30 11282 H 1061.44 -1.10308 -3.64055 0
M  V30 11283 H 1062.75 -1.23504 -4.83268 0
M  V30 11284 H 1061.9 0.803301 -6.01358 0
M  V30 11285 H 1060.64 1.02522 -4.76802 0
M  V30 11286 H 1059.65 -1.20093 -5.36524 0
M  V30 11287 H 1060.87 -1.41037 -6.64293 0
M  V30 11288 H 1058.82 0.829548 -6.50734 0
M  V30 11289 H 1058.73 -0.560476 -7.5392 0
M  V30 11290 H 1060 0.6058 -7.77142 0
M  V30 11291 N 1064.23 1.43628 -0.648757 0
M  V30 11292 C 1065.16 2.29045 0.0841858 0
M  V30 11293 C 1066.18 1.42262 0.791537 0
M  V30 11294 O 1067.37 1.66243 0.650039 0
M  V30 11295 C 1064.47 3.19075 1.14212 0
M  V30 11296 C 1063.64 4.34372 0.513799 0
M  V30 11297 C 1062.7 5.05307 1.46803 0
M  V30 11298 O 1061.72 5.60729 0.978346 0
M  V30 11299 N 1062.93 5.08393 2.80209 0
M  V30 11300 H 1065.69 2.9259 -0.648948 0
M  V30 11301 H 1063.25 1.54268 -0.491209 0
M  V30 11302 H 1065.24 3.63395 1.78119 0
M  V30 11303 H 1063.81 2.57161 1.77728 0
M  V30 11304 H 1063.03 3.93024 -0.304262 0
M  V30 11305 H 1064.32 5.08745 0.0749871 0
M  V30 11306 H 1063.72 4.64729 3.22557 0
M  V30 11307 H 1062.28 5.56445 3.3943 0
M  V30 11308 N 1065.71 0.390394 1.52688 0
M  V30 11309 C 1066.66 -0.4591 2.28024 0
M  V30 11310 C 1067.65 -1.06212 1.31967 0
M  V30 11311 O 1068.86 -1.00247 1.49501 0
M  V30 11312 H 1065.23 -0.16681 0.733266 0
M  V30 11313 H 1067.2 0.197747 2.97744 0
M  V30 11314 C 1065.95 -1.5737 3.10048 0
M  V30 11315 H 1065.28 -1.11901 3.83821 0
M  V30 11316 H 1066.72 -2.1423 3.65898 0
M  V30 11317 C 1065.18 -2.53036 2.22429 0
M  V30 11318 O 1065.71 -3.5647 1.85181 0
M  V30 11319 N 1063.91 -2.22802 1.86567 0
M  V30 11320 H 1063.46 -1.38723 2.17057 0
M  V30 11321 H 1063.42 -2.87061 1.28233 0
M  V30 11322 N 1067.19 -1.57141 0.120249 0
M  V30 11323 C 1068.14 -2.16638 -0.846809 0
M  V30 11324 C 1069.13 -1.11594 -1.27449 0
M  V30 11325 O 1070.34 -1.29895 -1.24608 0
M  V30 11326 H 1066.71 -0.693331 -0.291197 0
M  V30 11327 H 1068.68 -2.96673 -0.320536 0
M  V30 11328 C 1067.43 -2.78134 -2.08655 0
M  V30 11329 H 1066.75 -3.58662 -1.76639 0
M  V30 11330 H 1068.19 -3.23301 -2.74322 0
M  V30 11331 C 1066.65 -1.7528 -2.87713 0
M  V30 11332 O 1067.18 -1.20693 -3.8314 0
M  V30 11333 N 1065.39 -1.45192 -2.51729 0
M  V30 11334 H 1064.94 -1.89773 -1.74195 0
M  V30 11335 H 1064.89 -0.766166 -3.04922 0
M  V30 11336 N 1068.67 0.153526 -1.5685 0
M  V30 11337 C 1069.91 0.865519 -1.82629 0
M  V30 11338 C 1070.24 1.81999 -0.700105 0
M  V30 11339 O 1069.51 1.93907 0.278744 0
M  V30 11340 H 1068.09 0.32261 -0.673745 0
M  V30 11341 H 1070.75 0.149088 -1.94329 0
M  V30 11342 H 1069.84 1.43171 -2.77324 0
M  V30 11343 N 1070.14 1.51827 0.422667 0
M  V30 11344 C 1071.11 1.7359 1.49663 0
M  V30 11345 C 1072.11 0.605811 1.48952 0
M  V30 11346 O 1073.3 0.87354 1.50715 0
M  V30 11347 C 1070.43 1.80585 2.8914 0
M  V30 11348 H 1071.62 2.69453 1.31664 0
M  V30 11349 H 1069.18 1.42038 0.652298 0
M  V30 11350 H 1069.91 0.865895 3.12526 0
M  V30 11351 H 1069.7 2.62729 2.9106 0
M  V30 11352 H 1071.19 1.99212 3.67021 0
M  V30 11353 N 1071.62 -0.679052 1.4222 0
M  V30 11354 C 1072.87 -1.43912 1.42463 0
M  V30 11355 C 1073.2 -1.9446 0.0395574 0
M  V30 11356 O 1072.45 -1.71019 -0.951365 0
M  V30 11357 C 1072.75 -2.65528 2.39227 0
M  V30 11358 C 1072.42 -2.33545 3.85704 0
M  V30 11359 C 1071.08 -2.24534 4.25603 0
M  V30 11360 C 1073.43 -2.07496 4.78116 0
M  V30 11361 C 1070.76 -1.87592 5.55901 0
M  V30 11362 C 1073.11 -1.72059 6.08752 0
M  V30 11363 C 1071.78 -1.61555 6.47654 0
M  V30 11364 H 1071.05 -0.52661 0.521309 0
M  V30 11365 H 1073.69 -0.774661 1.75132 0
M  V30 11366 H 1072 -3.36985 1.9987 0
M  V30 11367 H 1073.69 -3.23702 2.36681 0
M  V30 11368 H 1070.28 -2.4146 3.54112 0
M  V30 11369 H 1074.47 -2.13393 4.48082 0
M  V30 11370 H 1069.72 -1.78026 5.84908 0
M  V30 11371 H 1073.9 -1.50926 6.79849 0
M  V30 11372 H 1071.53 -1.32699 7.48529 0
M  V30 11373 N 1073.1 -1.28322 -0.914942 0
M  V30 11374 C 1074.05 -1.12003 -2.03858 0
M  V30 11375 C 1075.04 -0.0396287 -1.69354 0
M  V30 11376 O 1076.25 -0.198309 -1.78904 0
M  V30 11377 H 1072.62 -0.34552 -0.667922 0
M  V30 11378 H 1074.59 -2.07168 -2.14765 0
M  V30 11379 C 1073.34 -0.797402 -3.38433 0
M  V30 11380 H 1072.67 -1.62071 -3.65476 0
M  V30 11381 H 1074.11 -0.723165 -4.17787 0
M  V30 11382 C 1072.57 0.498807 -3.33187 0
M  V30 11383 O 1073.1 1.52946 -3.71444 0
M  V30 11384 N 1071.3 0.499101 -2.86282 0
M  V30 11385 H 1070.85 -0.340056 -2.55346 0
M  V30 11386 H 1070.81 1.36641 -2.83155 0
M  V30 11387 N 1074.58 1.12322 -1.10551 0
M  V30 11388 C 1075.49 2.21678 -0.767862 0
M  V30 11389 C 1076.5 1.72404 0.235132 0
M  V30 11390 O 1077.68 2.01266 0.0735912 0
M  V30 11391 C 1074.75 3.46087 -0.205999 0
M  V30 11392 C 1073.81 4.10195 -1.26642 0
M  V30 11393 C 1073.04 5.28666 -0.731274 0
M  V30 11394 O 1073.26 5.68686 0.44189 0
M  V30 11395 O 1072.2 5.83121 -1.49176 0
M  V30 11396 H 1076.02 2.52955 -1.6807 0
M  V30 11397 H 1073.61 1.2068 -0.880728 0
M  V30 11398 H 1075.49 4.21273 0.103435 0
M  V30 11399 H 1074.16 3.16484 0.679685 0
M  V30 11400 H 1073.07 3.36784 -1.62873 0
M  V30 11401 H 1074.4 4.43957 -2.12516 0
M  V30 11402 N 1076.06 0.894434 1.2976 0
M  V30 11403 C 1077.28 0.532916 1.99919 0
M  V30 11404 C 1077.7 -0.881022 1.66983 0
M  V30 11405 O 1077.06 -1.58076 0.912035 0
M  V30 11406 C 1077.11 0.70936 3.54472 0
M  V30 11407 O 1076.83 2.06764 3.86239 0
M  V30 11408 C 1078.33 0.352089 4.419 0
M  V30 11409 H 1075.55 0.205019 0.638912 0
M  V30 11410 H 1078.09 1.20233 1.65421 0
M  V30 11411 H 1076.25 0.0871901 3.87302 0
M  V30 11412 H 1076.66 2.09315 4.80924 0
M  V30 11413 H 1078.14 0.526405 5.49484 0
M  V30 11414 H 1078.61 -0.710527 4.33415 0
M  V30 11415 H 1079.22 0.950979 4.14532 0
M  V30 11416 N 1077.53 -1.43282 0.656365 0
M  V30 11417 C 1078.46 -2.33492 -0.0196962 0
M  V30 11418 C 1079.45 -1.49647 -0.80868 0
M  V30 11419 O 1080.63 -1.78303 -0.769529 0
M  V30 11420 C 1077.76 -3.33052 -0.984574 0
M  V30 11421 C 1076.71 -4.26908 -0.305483 0
M  V30 11422 C 1076.04 -5.16531 -1.38202 0
M  V30 11423 C 1077.34 -5.16073 0.804081 0
M  V30 11424 H 1079.03 -2.90272 0.733661 0
M  V30 11425 H 1076.58 -1.39574 0.354259 0
M  V30 11426 H 1078.53 -3.9506 -1.46647 0
M  V30 11427 H 1077.26 -2.74535 -1.76913 0
M  V30 11428 H 1075.92 -3.66268 0.155995 0
M  V30 11429 H 1075.56 -4.54351 -2.1581 0
M  V30 11430 H 1075.26 -5.80148 -0.932878 0
M  V30 11431 H 1076.79 -5.81414 -1.86522 0
M  V30 11432 H 1078.2 -5.71873 0.404212 0
M  V30 11433 H 1076.6 -5.88427 1.17789 0
M  V30 11434 H 1077.67 -4.55574 1.66073 0
M  V30 11435 N 1079.01 -0.398486 -1.52479 0
M  V30 11436 C 1080.26 0.180752 -2.01692 0
M  V30 11437 C 1080.59 1.46044 -1.28457 0
M  V30 11438 O 1079.84 1.92051 -0.376162 0
M  V30 11439 C 1080.14 0.485909 -3.54081 0
M  V30 11440 C 1079.81 -0.703321 -4.45381 0
M  V30 11441 C 1078.47 -1.02955 -4.70057 0
M  V30 11442 C 1080.82 -1.49848 -4.99194 0
M  V30 11443 C 1078.15 -2.15231 -5.45795 0
M  V30 11444 C 1080.5 -2.61192 -5.76161 0
M  V30 11445 C 1079.17 -2.94313 -5.99113 0
M  V30 11446 H 1078.44 0.0661417 -0.738042 0
M  V30 11447 H 1081.08 -0.53772 -1.83796 0
M  V30 11448 H 1079.39 1.28582 -3.701 0
M  V30 11449 H 1081.09 0.946872 -3.89661 0
M  V30 11450 H 1077.68 -0.439062 -4.26345 0
M  V30 11451 H 1081.86 -1.25968 -4.80048 0
M  V30 11452 H 1077.12 -2.41252 -5.61789 0
M  V30 11453 H 1081.29 -3.23201 -6.16858 0
M  V30 11454 H 1078.92 -3.81431 -6.57583 0
M  V30 11455 N 1080.49 1.57075 -0.12858 0
M  V30 11456 C 1081.91 1.57964 0.227961 0
M  V30 11457 C 1082.11 1.14186 1.66023 0
M  V30 11458 O 1081.16 0.833655 2.38341 0
M  V30 11459 C 1082.48 3.00697 -0.0140648 0
M  V30 11460 C 1084.02 3.12958 0.0510876 0
M  V30 11461 C 1084.5 4.57709 -0.163368 0
M  V30 11462 N 1085.99 4.6307 -0.109663 0
M  V30 11463 C 1086.73 5.72853 -0.250366 0
M  V30 11464 N 1086.22 6.91351 -0.447772 0
M  V30 11465 N 1088.01 5.61781 -0.189265 0
M  V30 11466 H 1080.17 1.83829 -1.06398 0
M  V30 11467 H 1082.43 0.850014 -0.419739 0
M  V30 11468 H 1082.13 3.37047 -1.00461 0
M  V30 11469 H 1082.01 3.70389 0.713571 0
M  V30 11470 H 1084.4 2.7646 1.03216 0
M  V30 11471 H 1084.48 2.4579 -0.708583 0
M  V30 11472 H 1084.12 4.94907 -1.14146 0
M  V30 11473 H 1084.05 5.2298 0.616405 0
M  V30 11474 H 1086.54 3.7788 0.0390086 0
M  V30 11475 H 1086.85 7.70871 -0.54574 0
M  V30 11476 H 1085.2 6.93314 -0.483866 0
M  V30 11477 H 1088.39 4.68086 -0.0359374 0
M  V30 11478 H 1088.56 6.47294 -0.302359 0
M  V30 11479 N 1081.97 -0.145205 1.5693 0
M  V30 11480 C 1082.92 -1.19841 1.99351 0
M  V30 11481 C 1083.91 -1.44371 0.886197 0
M  V30 11482 O 1085.12 -1.44642 1.07138 0
M  V30 11483 H 1081.49 -0.403437 0.63462 0
M  V30 11484 H 1083.46 -0.813932 2.87085 0
M  V30 11485 C 1082.21 -2.52377 2.39167 0
M  V30 11486 H 1081.54 -2.34332 3.23927 0
M  V30 11487 H 1082.98 -3.24694 2.72671 0
M  V30 11488 C 1081.43 -3.1305 1.24503 0
M  V30 11489 O 1081.96 -3.97962 0.546739 0
M  V30 11490 N 1080.17 -2.72528 1.00882 0
M  V30 11491 H 1079.72 -2.03576 1.57843 0
M  V30 11492 H 1079.68 -3.13456 0.24351 0
M  V30 11493 N 1083.45 -1.52049 -0.414609 0
M  V30 11494 C 1084.38 -1.7122 -1.52369 0
M  V30 11495 C 1085.39 -0.592634 -1.5163 0
M  V30 11496 O 1086.58 -0.867634 -1.55995 0
M  V30 11497 C 1083.68 -1.73247 -2.91271 0
M  V30 11498 C 1082.85 -3.02153 -3.16263 0
M  V30 11499 C 1081.91 -2.96066 -4.35007 0
M  V30 11500 O 1080.94 -3.69981 -4.32554 0
M  V30 11501 N 1082.14 -2.13478 -5.39822 0
M  V30 11502 H 1084.91 -2.66902 -1.3632 0
M  V30 11503 H 1082.47 -1.50218 -0.603842 0
M  V30 11504 H 1084.46 -1.66714 -3.68766 0
M  V30 11505 H 1083.03 -0.85062 -3.00804 0
M  V30 11506 H 1082.25 -3.22379 -2.2686 0
M  V30 11507 H 1083.54 -3.87439 -3.29801 0
M  V30 11508 H 1082.94 -1.52844 -5.44661 0
M  V30 11509 H 1081.49 -2.12805 -6.16082 0
M  V30 11510 N 1084.93 0.6715 -1.42579 0
M  V30 11511 C 1085.86 1.79693 -1.49107 0
M  V30 11512 C 1086.84 1.66516 -0.347338 0
M  V30 11513 O 1088.02 1.85887 -0.562094 0
M  V30 11514 C 1085.15 3.1801 -1.39596 0
M  V30 11515 C 1084.11 3.45926 -2.5203 0
M  V30 11516 C 1083.43 4.83852 -2.27577 0
M  V30 11517 C 1084.73 3.4249 -3.94333 0
M  V30 11518 H 1086.43 1.74486 -2.433 0
M  V30 11519 H 1083.97 0.838042 -1.17102 0
M  V30 11520 H 1085.92 3.96478 -1.42771 0
M  V30 11521 H 1084.65 3.23901 -0.418989 0
M  V30 11522 H 1083.31 2.6982 -2.48178 0
M  V30 11523 H 1082.96 4.86398 -1.28165 0
M  V30 11524 H 1082.66 5.03493 -3.02934 0
M  V30 11525 H 1084.18 5.646 -2.32506 0
M  V30 11526 H 1085.59 4.10922 -3.9977 0
M  V30 11527 H 1083.99 3.73666 -4.69568 0
M  V30 11528 H 1085.06 2.41002 -4.20768 0
M  V30 11529 N 1086.4 1.28806 0.908124 0
M  V30 11530 C 1087.37 1.13228 1.99279 0
M  V30 11531 C 1088.37 0.0702456 1.60646 0
M  V30 11532 O 1089.56 0.316494 1.71301 0
M  V30 11533 C 1086.69 0.729629 3.33 0
M  V30 11534 H 1087.88 2.09566 2.14528 0
M  V30 11535 H 1085.43 1.11872 1.09153 0
M  V30 11536 H 1086.17 -0.234268 3.23453 0
M  V30 11537 H 1085.95 1.49688 3.62403 0
M  V30 11538 H 1087.44 0.643449 4.12613 0
M  V30 11539 N 1087.88 -1.11734 1.11145 0
M  V30 11540 C 1088.81 -2.1976 0.789152 0
M  V30 11541 C 1089.79 -1.68382 -0.241143 0
M  V30 11542 O 1090.98 -1.93914 -0.105292 0
M  V30 11543 C 1088.11 -3.46549 0.228204 0
M  V30 11544 C 1087.06 -4.11123 1.19002 0
M  V30 11545 C 1086.39 -5.32451 0.489928 0
M  V30 11546 C 1087.69 -4.56406 2.53951 0
M  V30 11547 H 1089.38 -2.46978 1.69241 0
M  V30 11548 H 1086.93 -1.18705 0.81517 0
M  V30 11549 H 1088.88 -4.21399 -0.00945908 0
M  V30 11550 H 1087.6 -3.18782 -0.71033 0
M  V30 11551 H 1086.26 -3.38264 1.41326 0
M  V30 11552 H 1085.91 -5.00953 -0.453315 0
M  V30 11553 H 1085.61 -5.76605 1.1314 0
M  V30 11554 H 1087.14 -6.10042 0.260984 0
M  V30 11555 H 1088.55 -5.22592 2.35733 0
M  V30 11556 H 1086.95 -5.11363 3.14051 0
M  V30 11557 H 1088.02 -3.7001 3.13402 0
M  V30 11558 N 1089.36 -0.901303 -1.29284 0
M  V30 11559 C 1090.32 -0.385081 -2.25942 0
M  V30 11560 C 1091.32 0.481626 -1.53418 0
M  V30 11561 O 1092.51 0.286451 -1.71829 0
M  V30 11562 C 1089.64 0.449319 -3.37926 0
M  V30 11563 H 1090.84 -1.23877 -2.7312 0
M  V30 11564 H 1088.39 -0.679586 -1.40753 0
M  V30 11565 H 1089.13 1.32292 -2.9609 0
M  V30 11566 H 1088.91 -0.171731 -3.91724 0
M  V30 11567 H 1090.4 0.801746 -4.09831 0
M  V30 11568 N 1090.84 1.42931 -0.663954 0
M  V30 11569 C 1092.07 2.06028 -0.189808 0
M  V30 11570 C 1092.48 1.49827 1.14879 0
M  V30 11571 O 1091.84 0.633778 1.71142 0
M  V30 11572 C 1091.89 3.61349 -0.104343 0
M  V30 11573 O 1091.61 4.15463 -1.39004 0
M  V30 11574 C 1093.11 4.4154 0.394599 0
M  V30 11575 H 1090.33 0.664259 -0.0948744 0
M  V30 11576 H 1092.87 1.83255 -0.907632 0
M  V30 11577 H 1091.03 3.83271 0.564103 0
M  V30 11578 H 1091.44 5.09233 -1.25626 0
M  V30 11579 H 1092.92 5.50525 0.403329 0
M  V30 11580 H 1093.39 4.1534 1.4279 0
M  V30 11581 H 1094 4.24612 -0.241729 0
M  V30 11582 N 1092.32 0.406567 1.52266 0
M  V30 11583 C 1093.56 -0.1627 2.02748 0
M  V30 11584 C 1093.92 -1.43022 1.28695 0
M  V30 11585 O 1093.21 -1.87715 0.383881 0
M  V30 11586 C 1093.4 -0.467124 3.54334 0
M  V30 11587 C 1093.23 0.76934 4.4307 0
M  V30 11588 C 1092 1.29377 4.88456 0
M  V30 11589 C 1094.2 1.64671 4.87225 0
M  V30 11590 N 1092.18 2.48599 5.61313 0
M  V30 11591 C 1093.55 2.68519 5.58836 0
M  V30 11592 C 1095.61 1.66477 4.69244 0
M  V30 11593 C 1094.31 3.74081 6.14374 0
M  V30 11594 C 1096.34 2.70956 5.25677 0
M  V30 11595 C 1095.7 3.73525 5.97209 0
M  V30 11596 H 1091.8 -0.0211706 0.781713 0
M  V30 11597 H 1094.38 0.560338 1.86463 0
M  V30 11598 H 1092.55 -1.15921 3.70698 0
M  V30 11599 H 1094.29 -1.02505 3.91503 0
M  V30 11600 H 1091.04 0.85219 4.6587 0
M  V30 11601 H 1091.46 3.0897 6.02384 0
M  V30 11602 H 1096.11 0.88519 4.1343 0
M  V30 11603 H 1093.82 4.52896 6.69261 0
M  V30 11604 H 1097.41 2.73258 5.13635 0
M  V30 11605 H 1096.29 4.53043 6.40095 0
M  V30 11606 N 1093.79 -1.57004 0.136909 0
M  V30 11607 C 1095.02 -2.00156 -0.523936 0
M  V30 11608 C 1095.44 -1.01688 -1.59075 0
M  V30 11609 O 1094.79 -0.0123678 -1.82496 0
M  V30 11610 C 1094.85 -3.4326 -1.13379 0
M  V30 11611 O 1094.57 -4.37963 -0.109598 0
M  V30 11612 C 1096.07 -4.01637 -1.87623 0
M  V30 11613 H 1093.29 -0.65681 -0.137263 0
M  V30 11614 H 1095.83 -2.03219 0.228522 0
M  V30 11615 H 1093.99 -3.4108 -1.83693 0
M  V30 11616 H 1094.4 -5.21555 -0.55503 0
M  V30 11617 H 1095.87 -5.03795 -2.25597 0
M  V30 11618 H 1096.35 -3.41781 -2.75831 0
M  V30 11619 H 1096.96 -4.07417 -1.22031 0
M  V30 11620 N 1095.27 0.136881 -1.57004 0
M  V30 11621 C 1096.52 0.846257 -1.83088 0
M  V30 11622 C 1096.83 1.81876 -0.719765 0
M  V30 11623 O 1098.04 2.57302 -0.866494 0
M  V30 11624 C 1096.5 1.55559 -3.24545 0
M  V30 11625 C 1096.1 0.624989 -4.43619 0
M  V30 11626 C 1097.85 2.25115 -3.59893 0
M  V30 11627 C 1095.76 1.33653 -5.761 0
M  V30 11628 H 1094.69 0.319768 -0.682836 0
M  V30 11629 H 1097.34 0.0989741 -1.83233 0
M  V30 11630 H 1095.72 2.34887 -3.18817 0
M  V30 11631 H 1096.89 -0.133783 -4.60606 0
M  V30 11632 H 1095.21 0.0373216 -4.16383 0
M  V30 11633 H 1097.8 2.79008 -4.56134 0
M  V30 11634 H 1098.15 3.02084 -2.86446 0
M  V30 11635 H 1098.68 1.52696 -3.67327 0
M  V30 11636 H 1095.42 0.608495 -6.5267 0
M  V30 11637 H 1094.94 2.06776 -5.63031 0
M  V30 11638 H 1096.62 1.87467 -6.19246 0
M  V30 11639 N 1096.75 1.52266 0.40654 0
M  V30 11640 C 1097.68 1.72025 1.51459 0
M  V30 11641 C 1098.7 0.600667 1.51314 0
M  V30 11642 O 1099.88 0.875894 1.55532 0
M  V30 11643 C 1096.98 1.7479 2.90348 0
M  V30 11644 C 1096.16 3.03826 3.14656 0
M  V30 11645 C 1095.22 2.98369 4.33431 0
M  V30 11646 O 1094.24 3.7227 4.30586 0
M  V30 11647 N 1095.44 2.16338 5.38682 0
M  V30 11648 H 1098.21 2.67622 1.34903 0
M  V30 11649 H 1095.77 1.50536 0.595867 0
M  V30 11650 H 1097.76 1.68667 3.67877 0
M  V30 11651 H 1096.33 0.86656 3.00349 0
M  V30 11652 H 1095.55 3.23577 2.25148 0
M  V30 11653 H 1096.84 3.89182 3.27742 0
M  V30 11654 H 1096.24 1.55731 5.43842 0
M  V30 11655 H 1094.8 2.1607 6.14945 0
M  V30 11656 N 1098.23 -0.663929 1.42933 0
M  V30 11657 C 1099.48 -1.42111 1.43697 0
M  V30 11658 C 1099.8 -1.94913 0.0583858 0
M  V30 11659 O 1099.07 -1.73757 -0.904719 0
M  V30 11660 H 1097.65 -0.527391 0.529026 0
M  V30 11661 H 1100.31 -0.783766 1.78446 0
M  V30 11662 H 1099.41 -2.26877 2.1432 0
M  V30 11663 N 1099.71 -1.29285 -0.901281 0
M  V30 11664 C 1100.67 -1.14283 -1.98676 0
M  V30 11665 C 1101.67 -0.0787641 -1.60607 0
M  V30 11666 O 1102.86 -0.325574 -1.71131 0
M  V30 11667 C 1099.99 -0.747279 -3.32609 0
M  V30 11668 H 1101.18 -2.10701 -2.13413 0
M  V30 11669 H 1098.74 -1.12449 -1.08558 0
M  V30 11670 H 1099.47 0.217111 -3.23572 0
M  V30 11671 H 1099.26 -1.51608 -3.61604 0
M  V30 11672 H 1100.75 -0.665322 -4.12266 0
M  V30 11673 N 1101.18 1.11143 -1.11736 0
M  V30 11674 C 1102.15 2.15456 -0.78174 0
M  V30 11675 C 1103.15 1.59547 0.200383 0
M  V30 11676 O 1104.34 1.74183 -0.0244893 0
M  V30 11677 C 1101.47 3.40523 -0.160364 0
M  V30 11678 H 1102.66 2.46658 -1.70586 0
M  V30 11679 H 1100.22 1.26381 -0.919644 0
M  V30 11680 H 1100.95 3.14932 0.773835 0
M  V30 11681 H 1100.74 3.82386 -0.867378 0
M  V30 11682 H 1102.23 4.17559 0.0582175 0
M  V30 11683 N 1102.66 0.908147 1.28804 0
M  V30 11684 C 1103.61 0.382315 2.29437 0
M  V30 11685 C 1104.6 -0.523033 1.61123 0
M  V30 11686 O 1105.81 -0.404898 1.75387 0
M  V30 11687 H 1102.19 0.105022 0.74463 0
M  V30 11688 H 1104.16 1.24425 2.71221 0
M  V30 11689 C 1102.91 -0.367475 3.45753 0
M  V30 11690 H 1102.23 0.319957 3.98518 0
M  V30 11691 H 1103.67 -0.700131 4.1818 0
M  V30 11692 C 1102.13 -1.57329 2.97908 0
M  V30 11693 O 1102.66 -2.67248 2.99902 0
M  V30 11694 N 1100.86 -1.41835 2.53636 0
M  V30 11695 H 1100.41 -0.524099 2.52212 0
M  V30 11696 H 1100.37 -2.22645 2.21984 0
M  V30 11697 N 1104.14 -1.42577 0.671525 0
M  V30 11698 C 1105.1 -2.292 0.000392482 0
M  V30 11699 C 1106.1 -1.43158 -0.732294 0
M  V30 11700 O 1107.29 -1.64583 -0.570789 0
M  V30 11701 C 1104.43 -3.25591 -1.01013 0
M  V30 11702 H 1105.62 -2.90037 0.762783 0
M  V30 11703 H 1103.17 -1.50162 0.433703 0
M  V30 11704 H 1103.91 -2.69685 -1.80112 0
M  V30 11705 H 1103.69 -3.89049 -0.488183 0
M  V30 11706 H 1105.18 -3.90561 -1.47824 0
M  V30 11707 N 1105.62 -0.414636 -1.52048 0
M  V30 11708 C 1106.55 0.399119 -2.30064 0
M  V30 11709 C 1107.53 1.04126 -1.34506 0
M  V30 11710 O 1108.71 1.04923 -1.63416 0
M  V30 11711 C 1105.84 1.51305 -3.12608 0
M  V30 11712 C 1104.8 0.995621 -4.16259 0
M  V30 11713 C 1104.12 2.20357 -4.87183 0
M  V30 11714 C 1105.42 0.0458178 -5.2228 0
M  V30 11715 H 1107.12 -0.251879 -2.98339 0
M  V30 11716 H 1104.66 -0.122579 -1.43477 0
M  V30 11717 H 1106.62 2.08936 -3.65956 0
M  V30 11718 H 1105.34 2.19201 -2.42113 0
M  V30 11719 H 1104 0.441676 -3.6393 0
M  V30 11720 H 1103.65 2.8682 -4.13211 0
M  V30 11721 H 1103.35 1.86385 -5.57256 0
M  V30 11722 H 1104.87 2.78584 -5.43345 0
M  V30 11723 H 1106.29 0.531102 -5.70835 0
M  V30 11724 H 1104.68 -0.20536 -5.99749 0
M  V30 11725 H 1105.75 -0.897807 -4.76516 0
M  V30 11726 N 1107.1 1.56929 -0.145233 0
M  V30 11727 C 1108.32 2.00864 0.516564 0
M  V30 11728 C 1108.75 1.02466 1.57741 0
M  V30 11729 O 1108.1 0.000145439 1.813 0
M  V30 11730 C 1108.15 3.43552 1.09563 0
M  V30 11731 O 1107.26 3.4815 2.21055 0
M  V30 11732 H 1106.6 0.651835 0.126521 0
M  V30 11733 H 1109.13 2.0317 -0.241445 0
M  V30 11734 H 1109.14 3.82316 1.42473 0
M  V30 11735 H 1107.81 4.14677 0.318749 0
M  V30 11736 H 1106.39 3.21228 1.89387 0
M  V30 11737 N 1108.58 -0.128553 1.57075 0
M  V30 11738 C 1109.82 -0.836355 1.83982 0
M  V30 11739 C 1110.14 -1.80862 0.728971 0
M  V30 11740 O 1109.41 -1.94326 -0.247859 0
M  V30 11741 H 1107.99 -0.31185 0.678792 0
M  V30 11742 H 1110.66 -0.118153 1.94542 0
M  V30 11743 H 1109.75 -1.38741 2.79567 0
M  V30 11744 N 1110.05 -1.5248 -0.398459 0
M  V30 11745 C 1111.33 -1.57634 -1.15805 0
M  V30 11746 C 1111.71 -0.363785 -2.07942 0
M  V30 11747 O 1111.06 0.648598 -2.19101 0
M  V30 11748 C 1111.27 -2.91042 -1.92602 0
M  V30 11749 C 1112.62 -3.44433 -2.48296 0
M  V30 11750 O 1113.64 -2.92853 -2.0277 0
M  V30 11751 O 1112.5 -4.34529 -3.31432 0
M  V30 11752 H 1109.59 -0.63539 -0.529347 0
M  V30 11753 H 1112.14 -1.64812 -0.404376 0
M  V30 11754 H 1110.91 -3.7074 -1.25169 0
M  V30 11755 H 1110.53 -2.87206 -2.74952 0
M  V30 11756 N 1111.53 0.65634 -1.43283 0
M  V30 11757 C 1112.78 1.41837 -1.44949 0
M  V30 11758 C 1113.11 1.94065 -0.0723212 0
M  V30 11759 O 1112.39 1.72092 0.906346 0
M  V30 11760 C 1112.67 2.60206 -2.48927 0
M  V30 11761 C 1112.52 2.1349 -3.95907 0
M  V30 11762 C 1113.84 3.62421 -2.49678 0
M  V30 11763 H 1110.96 0.514398 -0.527792 0
M  V30 11764 H 1113.6 0.74435 -1.74813 0
M  V30 11765 H 1111.75 3.17708 -2.23592 0
M  V30 11766 H 1113.42 1.61012 -4.32288 0
M  V30 11767 H 1111.67 1.4489 -4.08888 0
M  V30 11768 H 1112.34 2.98596 -4.64268 0
M  V30 11769 H 1114.81 3.14671 -2.72252 0
M  V30 11770 H 1113.69 4.42798 -3.24378 0
M  V30 11771 H 1113.95 4.14802 -1.52944 0
M  V30 11772 N 1113.01 1.29761 0.894412 0
M  V30 11773 C 1114.26 1.19224 1.64794 0
M  V30 11774 C 1114.61 -0.252648 1.90734 0
M  V30 11775 O 1113.9 -1.17881 1.51045 0
M  V30 11776 C 1114.1 1.94458 2.99868 0
M  V30 11777 C 1113.93 3.46115 2.87114 0
M  V30 11778 C 1112.7 4.15469 2.87599 0
M  V30 11779 C 1114.89 4.41518 2.63754 0
M  V30 11780 N 1112.88 5.53453 2.65637 0
M  V30 11781 C 1114.25 5.66999 2.50823 0
M  V30 11782 C 1116.3 4.31221 2.48903 0
M  V30 11783 C 1115.01 6.83351 2.24554 0
M  V30 11784 C 1117.03 5.4733 2.24018 0
M  V30 11785 C 1116.39 6.71786 2.11856 0
M  V30 11786 H 1112.49 0.491294 0.608403 0
M  V30 11787 H 1115.08 1.63656 1.05474 0
M  V30 11788 H 1113.25 1.52432 3.57238 0
M  V30 11789 H 1114.98 1.76142 3.64357 0
M  V30 11790 H 1111.73 3.67217 2.9908 0
M  V30 11791 H 1112.16 6.26037 2.57695 0
M  V30 11792 H 1116.8 3.35689 2.57046 0
M  V30 11793 H 1114.52 7.78933 2.15149 0
M  V30 11794 H 1118.1 5.41265 2.13363 0
M  V30 11795 H 1116.98 7.60113 1.92867 0
M  V30 11796 N 1114.49 -1.10549 1.12324 0
M  V30 11797 C 1115.76 -1.78968 0.789287 0
M  V30 11798 C 1116.14 -1.984 -0.721156 0
M  V30 11799 O 1115.49 -1.5761 -1.65443 0
M  V30 11800 C 1115.7 -3.12044 1.563 0
M  V30 11801 C 1117.05 -3.86939 1.74825 0
M  V30 11802 O 1118.07 -3.21761 1.52802 0
M  V30 11803 O 1116.93 -5.0392 2.11488 0
M  V30 11804 H 1114.03 -0.775617 0.286962 0
M  V30 11805 H 1116.57 -1.17209 1.2272 0
M  V30 11806 H 1115.35 -2.93313 2.59005 0
M  V30 11807 H 1114.97 -3.81521 1.11926 0
M  V30 11808 N 1115.97 -0.914965 -1.28321 0
M  V30 11809 C 1117.21 -0.544639 -1.94208 0
M  V30 11810 C 1117.53 0.916368 -1.72806 0
M  V30 11811 O 1118.73 1.39491 -2.32926 0
M  V30 11812 C 1117.19 -0.923209 -3.47858 0
M  V30 11813 C 1116.8 -2.40403 -3.78035 0
M  V30 11814 C 1118.54 -0.623526 -4.19896 0
M  V30 11815 C 1116.45 -2.72266 -5.25 0
M  V30 11816 H 1115.38 -0.199966 -0.727 0
M  V30 11817 H 1118.03 -1.11405 -1.45812 0
M  V30 11818 H 1116.41 -0.282576 -3.94991 0
M  V30 11819 H 1117.59 -3.09149 -3.41706 0
M  V30 11820 H 1115.9 -2.67429 -3.19172 0
M  V30 11821 H 1118.5 -0.838243 -5.28089 0
M  V30 11822 H 1118.84 0.438721 -4.13982 0
M  V30 11823 H 1119.37 -1.22268 -3.78544 0
M  V30 11824 H 1116.11 -3.77349 -5.35993 0
M  V30 11825 H 1115.63 -2.08157 -5.62522 0
M  V30 11826 H 1117.31 -2.59334 -5.92752 0
M  V30 11827 N 1117.44 1.42219 -0.679077 0
M  V30 11828 C 1118.72 1.95155 -0.13188 0
M  V30 11829 C 1119.1 1.6193 1.35433 0
M  V30 11830 O 1118.45 0.917672 2.09263 0
M  V30 11831 C 1118.66 3.46635 -0.405578 0
M  V30 11832 C 1120.01 4.23359 -0.324394 0
M  V30 11833 O 1121.03 3.54578 -0.339564 0
M  V30 11834 O 1119.89 5.45831 -0.270268 0
M  V30 11835 H 1116.98 0.826983 -0.00535438 0
M  V30 11836 H 1119.53 1.52024 -0.754101 0
M  V30 11837 H 1118.3 3.6404 -1.43495 0
M  V30 11838 H 1117.92 3.96823 0.248439 0
M  V30 11839 N 1118.92 0.422693 1.51826 0
M  V30 11840 C 1119.87 -0.41063 2.28947 0
M  V30 11841 C 1120.86 -1.03389 1.34191 0
M  V30 11842 O 1122.07 -0.970533 1.51594 0
M  V30 11843 H 1118.44 -0.151219 0.736639 0
M  V30 11844 H 1120.42 0.260859 2.97258 0
M  V30 11845 C 1119.16 -1.50758 3.13317 0
M  V30 11846 H 1118.49 -1.03734 3.86108 0
M  V30 11847 H 1119.93 -2.0642 3.7036 0
M  V30 11848 C 1118.39 -2.48261 2.27746 0
M  V30 11849 O 1118.92 -3.52462 1.92701 0
M  V30 11850 N 1117.12 -2.18795 1.91251 0
M  V30 11851 H 1116.67 -1.34088 2.1995 0
M  V30 11852 H 1116.63 -2.84276 1.34293 0
M  V30 11853 N 1120.4 -1.5685 0.153553 0
M  V30 11854 C 1121.31 -2.20664 -0.796528 0
M  V30 11855 C 1122.33 -1.19289 -1.26674 0
M  V30 11856 O 1123.5 -1.51889 -1.32256 0
M  V30 11857 C 1120.57 -2.82088 -2.01561 0
M  V30 11858 C 1119.63 -3.9861 -1.59401 0
M  V30 11859 C 1118.86 -4.57096 -2.75498 0
M  V30 11860 O 1119.08 -4.14462 -3.9189 0
M  V30 11861 O 1118.02 -5.47254 -2.50593 0
M  V30 11862 H 1121.84 -3.02376 -0.283282 0
M  V30 11863 H 1119.43 -1.49218 -0.0737927 0
M  V30 11864 H 1121.31 -3.21103 -2.72893 0
M  V30 11865 H 1119.99 -2.03385 -2.51826 0
M  V30 11866 H 1118.89 -3.64299 -0.850725 0
M  V30 11867 H 1120.23 -4.78853 -1.13845 0
M  V30 11868 N 1121.88 0.120221 -1.57141 0
M  V30 11869 C 1123.12 0.828222 -1.84788 0
M  V30 11870 C 1123.45 1.79936 -0.738459 0
M  V30 11871 O 1122.71 1.93824 0.270295 0
M  V30 11872 C 1123.01 1.61338 -3.18912 0
M  V30 11873 C 1122.67 0.786637 -4.43985 0
M  V30 11874 C 1121.33 0.558645 -4.77946 0
M  V30 11875 C 1123.69 0.210281 -5.20776 0
M  V30 11876 C 1121.01 -0.255975 -5.86141 0
M  V30 11877 C 1123.37 -0.591523 -6.29828 0
M  V30 11878 C 1122.03 -0.829843 -6.62322 0
M  V30 11879 H 1121.3 0.303068 -0.676188 0
M  V30 11880 H 1123.95 0.0906538 -1.91285 0
M  V30 11881 H 1122.25 2.42182 -3.07986 0
M  V30 11882 H 1123.95 2.16513 -3.37525 0
M  V30 11883 H 1120.54 0.974426 -4.17376 0
M  V30 11884 H 1124.72 0.373641 -4.94892 0
M  V30 11885 H 1119.98 -0.449849 -6.09743 0
M  V30 11886 H 1124.15 -1.04512 -6.88513 0
M  V30 11887 H 1121.78 -1.4629 -7.45992 0
M  V30 11888 O 1123.39 1.59318 0.264567 0
M  V30 11889 H 1124.09 1.71039 0.909141 0
M  V30 END ATOM
M  V30 BEGIN BOND
M  V30 END BOND
M  V30 END CTAB
M  END
$$$$
