drugbank_target|P02753 Retinol-binding protein 4 (DB00755)
 OpenBabel12092119293D

  0  0  0     0  0            999 V3000
M  V30 BEGIN CTAB
M  V30 COUNTS 3180 3216 0 0 0
M  V30 BEGIN ATOM
M  V30 1 H -0.908 1.98254 -0.117106 0
M  V30 2 N 0 1.576 0 0
M  V30 3 C 0.933 2.03868 1.02534 0
M  V30 4 C 1.911 0.928543 1.3348 0
M  V30 5 O 3.095 1.19667 1.45644 0
M  V30 6 C 0.222 2.43627 2.35294 0
M  V30 7 C -0.732 3.65373 2.2001 0
M  V30 8 S 0.101 5.13292 1.52614 0
M  V30 9 C 1.257 5.56322 2.86805 0
M  V30 10 H 1.49 2.90518 0.631377 0
M  V30 11 H -0.977 1.52953 0.210867 0
M  V30 12 H 0.981 2.67203 3.11629 0
M  V30 13 H -0.358 1.57376 2.7183 0
M  V30 14 H -1.165 3.90944 3.18086 0
M  V30 15 H -1.563 3.418 1.51819 0
M  V30 16 H 0.729 5.58782 3.83104 0
M  V30 17 H 1.672 6.56266 2.65933 0
M  V30 18 H 2.08 4.83886 2.90714 0
M  V30 19 N 1.4781 -0.272755 1.55222 0
M  V30 20 C 2.4251 -1.33716 1.88119 0
M  V30 21 C 3.3951 -1.49066 0.73271 0
M  V30 22 O 4.5801 -1.63469 0.984002 0
M  V30 23 C 1.7201 -2.69238 2.15882 0
M  V30 24 C 0.8331 -2.62108 3.43399 0
M  V30 25 C -0.0319 -3.89811 3.60861 0
M  V30 26 C -0.9929 -3.77193 4.8207 0
M  V30 27 N -1.8559 -4.9673 4.96189 0
M  V30 28 H 2.9841 -1.04962 2.78903 0
M  V30 29 H 0.5211 -0.507088 1.38083 0
M  V30 30 H 2.4791 -3.48089 2.29978 0
M  V30 31 H 1.1091 -2.96194 1.28331 0
M  V30 32 H 0.1611 -1.74967 3.37773 0
M  V30 33 H 1.4731 -2.48685 4.32386 0
M  V30 34 H 0.6271 -4.77103 3.74777 0
M  V30 35 H -0.6339 -4.06102 2.7006 0
M  V30 36 H -1.6289 -2.88284 4.68159 0
M  V30 37 H -0.4039 -3.62421 5.74307 0
M  V30 38 H -2.4579 -5.13431 4.08319 0
M  V30 39 H -2.5409 -4.85839 5.79221 0
M  V30 40 H -1.2729 -5.85594 5.1449 0
M  V30 41 N 2.9562 -1.48159 -0.537278 0
M  V30 42 C 4.2022 -1.57015 -1.29297 0
M  V30 43 C 4.5572 -0.237791 -1.90925 0
M  V30 44 O 3.8502 0.758621 -1.75942 0
M  V30 45 C 4.0442 -2.63956 -2.40961 0
M  V30 46 C 3.8732 -4.07461 -1.90278 0
M  V30 47 C 2.6432 -4.74685 -1.73213 0
M  V30 48 C 4.8412 -4.93858 -1.43556 0
M  V30 49 N 2.8232 -6.02633 -1.17078 0
M  V30 50 C 4.1942 -6.11993 -0.993204 0
M  V30 51 C 6.2492 -4.80141 -1.31792 0
M  V30 52 C 4.9522 -7.17923 -0.444872 0
M  V30 53 C 6.9782 -5.86186 -0.783585 0
M  V30 54 C 6.3402 -7.03524 -0.351261 0
M  V30 55 H 2.4392 -0.629154 -0.464423 0
M  V30 56 H 5.0232 -1.85006 -0.606705 0
M  V30 57 H 3.1942 -2.378 -3.07093 0
M  V30 58 H 4.9262 -2.62539 -3.07986 0
M  V30 59 H 1.6812 -4.30902 -1.9652 0
M  V30 60 H 2.1052 -6.7085 -0.910421 0
M  V30 61 H 6.7472 -3.89772 -1.63823 0
M  V30 62 H 4.4652 -8.08022 -0.11222 0
M  V30 63 H 8.0512 -5.77624 -0.695835 0
M  V30 64 H 6.9312 -7.8418 0.055777 0
M  V30 65 N 4.4343 0.785586 -1.36625 0
M  V30 66 C 5.6803 1.54591 -1.31261 0
M  V30 67 C 6.0133 1.93906 0.106823 0
M  V30 68 O 5.2883 1.63007 1.06108 0
M  V30 69 C 5.5713 2.82038 -2.23889 0
M  V30 70 C 5.4243 2.49066 -3.74548 0
M  V30 71 C 6.7433 3.83887 -2.15217 0
M  V30 72 H 3.8623 0.560846 -0.478143 0
M  V30 73 H 6.5043 0.902278 -1.67209 0
M  V30 74 H 4.6543 3.36961 -1.93363 0
M  V30 75 H 6.3263 2.00164 -4.15611 0
M  V30 76 H 4.5693 1.81954 -3.93796 0
M  V30 77 H 5.2403 3.40109 -4.34776 0
M  V30 78 H 7.7163 3.38421 -2.42096 0
M  V30 79 H 6.5923 4.70806 -2.82193 0
M  V30 80 H 6.8533 4.27131 -1.14068 0
M  V30 81 N 5.9124 1.20967 1.01018 0
M  V30 82 C 7.1584 1.0353 1.7508 0
M  V30 83 C 7.5134 -0.42734 1.87594 0
M  V30 84 O 6.8064 -1.31298 1.3954 0
M  V30 85 C 7.0004 1.65997 3.16512 0
M  V30 86 C 6.8294 3.18184 3.17788 0
M  V30 87 C 5.5994 3.87198 3.24662 0
M  V30 88 C 7.7974 4.15334 3.03319 0
M  V30 89 N 5.7794 5.26618 3.15509 0
M  V30 90 C 7.1504 5.41472 3.02007 0
M  V30 91 C 9.2054 4.06449 2.87583 0
M  V30 92 C 7.9084 6.5975 2.86571 0
M  V30 93 C 9.9344 5.24357 2.73503 0
M  V30 94 C 9.2964 6.49404 2.72862 0
M  V30 95 H 5.3954 0.433137 0.651089 0
M  V30 96 H 7.9794 1.5324 1.20107 0
M  V30 97 H 6.1504 1.18863 3.69765 0
M  V30 98 H 7.8824 1.41816 3.79039 0
M  V30 99 H 4.6374 3.38093 3.31648 0
M  V30 100 H 5.0614 5.99626 3.14289 0
M  V30 101 H 9.7034 3.10573 2.86887 0
M  V30 102 H 7.4214 7.55792 2.86015 0
M  V30 103 H 11.0074 5.19299 2.62334 0
M  V30 104 H 9.8874 7.39105 2.62093 0
M  V30 105 N 7.3905 -1.2043 1.01659 0
M  V30 106 C 8.3535 -2.21433 0.591616 0
M  V30 107 C 9.3535 -1.57203 -0.338226 0
M  V30 108 O 10.5435 -1.73737 -0.126918 0
M  V30 109 C 7.6755 -3.40628 -0.136058 0
M  V30 110 H 8.8685 -2.60545 1.48514 0
M  V30 111 H 6.4215 -1.33893 0.806379 0
M  V30 112 H 7.1565 -3.07019 -1.04449 0
M  V30 113 H 6.9415 -3.88475 0.531917 0
M  V30 114 H 8.4315 -4.15475 -0.420735 0
M  V30 115 N 8.8686 -0.792821 -1.36206 0
M  V30 116 C 9.7986 -0.207853 -2.32573 0
M  V30 117 C 10.7796 0.659055 -1.56813 0
M  V30 118 O 11.9646 0.592176 -1.84951 0
M  V30 119 C 9.0946 0.655449 -3.41059 0
M  V30 120 C 8.0486 -0.111842 -4.27854 0
M  V30 121 C 7.3746 0.872274 -5.27537 0
M  V30 122 C 8.6746 -1.30299 -5.05786 0
M  V30 123 H 10.3686 -1.01294 -2.81744 0
M  V30 124 H 7.9146 -0.48854 -1.3546 0
M  V30 125 H 9.8676 1.07464 -4.07467 0
M  V30 126 H 8.5916 1.49328 -2.90463 0
M  V30 127 H 7.2506 -0.512053 -3.63006 0
M  V30 128 H 6.8986 1.70523 -4.73214 0
M  V30 129 H 6.5986 0.363291 -5.86476 0
M  V30 130 H 8.1226 1.28996 -5.96818 0
M  V30 131 H 9.5366 -0.959379 -5.65216 0
M  V30 132 H 7.9336 -1.7455 -5.74154 0
M  V30 133 H 9.0036 -2.09663 -4.37229 0
M  V30 134 N 10.3467 1.47872 -0.545128 0
M  V30 135 C 11.2767 2.32661 0.197793 0
M  V30 136 C 12.2577 1.43041 0.920504 0
M  V30 137 O 13.4427 1.71912 0.90333 0
M  V30 138 C 10.5727 3.24569 1.23582 0
M  V30 139 C 9.5267 4.23333 0.630323 0
M  V30 140 C 8.8527 5.0448 1.77211 0
M  V30 141 C 10.1527 5.20704 -0.407974 0
M  V30 142 H 11.8467 2.95024 -0.510045 0
M  V30 143 H 9.3927 1.4187 -0.246731 0
M  V30 144 H 11.3457 3.8272 1.76362 0
M  V30 145 H 10.0697 2.60236 1.97344 0
M  V30 146 H 8.7287 3.6639 0.123922 0
M  V30 147 H 8.3767 4.36561 2.49847 0
M  V30 148 H 8.0767 5.71339 1.37281 0
M  V30 149 H 9.6007 5.65487 2.3034 0
M  V30 150 H 11.0147 5.7329 0.033305 0
M  V30 151 H 9.4117 5.95699 -0.725486 0
M  V30 152 H 10.4817 4.66917 -1.30828 0
M  V30 153 N 11.8248 0.280983 1.55075 0
M  V30 154 C 12.7548 -0.597469 2.25727 0
M  V30 155 C 13.7358 -1.15417 1.24952 0
M  V30 156 O 14.9208 -1.18722 1.53684 0
M  V30 157 C 12.0508 -1.7789 2.98283 0
M  V30 158 C 11.0048 -1.35347 4.06036 0
M  V30 159 C 10.3308 -2.61846 4.66198 0
M  V30 160 C 11.6308 -0.499354 5.19907 0
M  V30 161 H 13.3248 -0.00824265 2.99399 0
M  V30 162 H 10.8708 -0.0025244 1.44 0
M  V30 163 H 12.8238 -2.39937 3.46422 0
M  V30 164 H 11.5478 -2.39405 2.22155 0
M  V30 165 H 10.2068 -0.756156 3.58717 0
M  V30 166 H 9.8548 -3.21632 3.86732 0
M  V30 167 H 9.5548 -2.3409 5.38958 0
M  V30 168 H 11.0788 -3.24732 5.1709 0
M  V30 169 H 12.4928 -1.02498 5.64063 0
M  V30 170 H 10.8898 -0.316424 5.99265 0
M  V30 171 H 11.9598 0.480459 4.82514 0
M  V30 172 N 13.3029 -1.57598 0.00835791 0
M  V30 173 C 14.2329 -2.1198 -0.979113 0
M  V30 174 C 15.2139 -1.03091 -1.35301 0
M  V30 175 O 16.3989 -1.30818 -1.43528 0
M  V30 176 C 13.5289 -2.62995 -2.26828 0
M  V30 177 C 12.4829 -3.76485 -2.03576 0
M  V30 178 C 11.8089 -4.13846 -3.38579 0
M  V30 179 C 13.1089 -5.0342 -1.39161 0
M  V30 180 H 14.8029 -2.94738 -0.526281 0
M  V30 181 H 12.3489 -1.41783 -0.251704 0
M  V30 182 H 14.3019 -2.99669 -2.96271 0
M  V30 183 H 13.0259 -1.7737 -2.7424 0
M  V30 184 H 11.6849 -3.40217 -1.36557 0
M  V30 185 H 11.3329 -3.25232 -3.83709 0
M  V30 186 H 11.0329 -4.90312 -3.23834 0
M  V30 187 H 12.5569 -4.53086 -4.09323 0
M  V30 188 H 13.9709 -5.37812 -1.98573 0
M  V30 189 H 12.3679 -5.84746 -1.34878 0
M  V30 190 H 13.4379 -4.83548 -0.361868 0
M  V30 191 N 14.781 0.264519 -1.55364 0
M  V30 192 C 15.744 1.31046 -1.88042 0
M  V30 193 C 16.744 1.41943 -0.755569 0
M  V30 194 O 17.934 1.40947 -1.02369 0
M  V30 195 C 15.066 2.69067 -2.09323 0
M  V30 196 H 16.259 1.03297 -2.81549 0
M  V30 197 H 13.812 0.502989 -1.47986 0
M  V30 198 H 14.547 3.01982 -1.18226 0
M  V30 199 H 14.332 2.62542 -2.91229 0
M  V30 200 H 15.822 3.44623 -2.35848 0
M  V30 201 N 16.2591 1.48442 0.529413 0
M  V30 202 C 17.2221 1.62524 1.61612 0
M  V30 203 C 18.2221 0.498509 1.52877 0
M  V30 204 O 19.4121 0.76431 1.56537 0
M  V30 205 C 16.5441 1.59597 3.01233 0
M  V30 206 H 17.7371 2.59423 1.50465 0
M  V30 207 H 15.2901 1.37047 0.751514 0
M  V30 208 H 16.0251 0.641781 3.17886 0
M  V30 209 H 15.8101 2.41397 3.08982 0
M  V30 210 H 17.3001 1.72646 3.80241 0
M  V30 211 N 17.7372 -0.778329 1.37039 0
M  V30 212 C 18.6672 -1.90546 1.34962 0
M  V30 213 C 19.6482 -1.68681 0.219274 0
M  V30 214 O 20.8332 -1.89634 0.418624 0
M  V30 215 C 17.9632 -3.27734 1.14925 0
M  V30 216 C 16.9172 -3.64147 2.24902 0
M  V30 217 C 16.2432 -4.99806 1.89996 0
M  V30 218 C 17.5432 -3.71579 3.67051 0
M  V30 219 H 19.2372 -1.92541 2.29277 0
M  V30 220 H 16.7832 -0.924948 1.10366 0
M  V30 221 H 18.7362 -4.06215 1.12104 0
M  V30 222 H 17.4602 -3.26154 0.170631 0
M  V30 223 H 16.1192 -2.8797 2.26868 0
M  V30 224 H 15.7672 -4.94759 0.906796 0
M  V30 225 H 15.4672 -5.25139 2.63634 0
M  V30 226 H 16.9912 -5.80694 1.88749 0
M  V30 227 H 18.4052 -4.40227 3.67251 0
M  V30 228 H 16.8022 -4.08405 4.39688 0
M  V30 229 H 17.8722 -2.72404 4.01154 0
M  V30 230 N 19.2153 -1.21501 -1.00376 0
M  V30 231 C 20.4633 -1.03095 -1.73827 0
M  V30 232 C 20.7843 0.436341 -1.90055 0
M  V30 233 O 20.0543 1.31466 -1.45236 0
M  V30 234 H 18.6343 -0.378487 -0.644016 0
M  V30 235 H 21.2963 -1.52831 -1.20949 0
M  V30 236 H 20.3923 -1.49991 -2.73695 0
M  V30 237 N 20.6934 1.19889 -1.02296 0
M  V30 238 C 21.9184 1.9393 -0.735237 0
M  V30 239 C 22.3434 1.74639 0.698782 0
M  V30 240 O 21.7014 1.04481 1.48167 0
M  V30 241 C 21.7494 3.43916 -1.08417 0
M  V30 242 O 20.8534 4.11917 -0.199446 0
M  V30 243 H 20.1944 0.605645 -0.272196 0
M  V30 244 H 22.7244 1.52137 -1.36804 0
M  V30 245 H 22.7344 3.9456 -1.03856 0
M  V30 246 H 21.4094 3.5728 -2.12894 0
M  V30 247 H 19.9864 3.71666 -0.303136 0
M  V30 248 N 22.1715 0.800033 1.35784 0
M  V30 249 C 23.4195 0.376597 1.9856 0
M  V30 250 C 23.7405 -1.05812 1.63795 0
M  V30 251 O 23.0105 -1.73103 0.917171 0
M  V30 252 H 21.5905 0.136261 0.734467 0
M  V30 253 H 24.2525 1.02442 1.65806 0
M  V30 254 H 23.3485 0.477002 3.08433 0
M  V30 255 N 23.6496 -1.47581 0.552962 0
M  V30 256 C 25.0656 -1.5818 0.212424 0
M  V30 257 C 25.2656 -1.55213 -1.28496 0
M  V30 258 O 24.3216 -1.45329 -2.06484 0
M  V30 259 C 25.6346 -2.88865 0.835318 0
M  V30 260 C 27.1826 -3.0244 0.806156 0
M  V30 261 C 27.6576 -4.35819 1.40804 0
M  V30 262 N 29.1486 -4.42444 1.37103 0
M  V30 263 C 29.8836 -5.44202 1.80641 0
M  V30 264 N 29.3796 -6.52795 2.32015 0
M  V30 265 N 31.1726 -5.35222 1.71738 0
M  V30 266 H 23.3236 -1.47753 1.52587 0
M  V30 267 H 25.5866 -0.702941 0.636064 0
M  V30 268 H 25.2926 -2.9676 1.88749 0
M  V30 269 H 25.1666 -3.7579 0.325848 0
M  V30 270 H 27.5536 -2.94144 -0.237317 0
M  V30 271 H 27.6346 -2.17068 1.35334 0
M  V30 272 H 27.2786 -4.44871 2.45056 0
M  V30 273 H 27.2086 -5.19916 0.836338 0
M  V30 274 H 29.6996 -3.6456 0.995202 0
M  V30 275 H 30.0126 -7.26609 2.63171 0
M  V30 276 H 28.3576 -6.53696 2.36023 0
M  V30 277 H 31.5486 -4.49284 1.31382 0
M  V30 278 H 31.7216 -6.14389 2.05987 0
M  V30 279 N 25.1277 -0.289203 -1.54924 0
M  V30 280 C 26.0907 0.579144 -2.21762 0
M  V30 281 C 27.0907 1.07047 -1.1999 0
M  V30 282 O 28.2807 0.968384 -1.44803 0
M  V30 283 C 25.4127 1.80055 -2.8947 0
M  V30 284 H 26.6057 -0.00464908 -2.999 0
M  V30 285 H 24.1587 -0.0399306 -1.56249 0
M  V30 286 H 24.8937 2.42449 -2.15381 0
M  V30 287 H 24.6787 1.45602 -3.64064 0
M  V30 288 H 26.1687 2.41773 -3.40493 0
M  V30 289 N 26.6058 1.57591 -0.0167156 0
M  V30 290 C 27.5158 2.1291 0.98521 0
M  V30 291 C 28.5318 1.07834 1.36557 0
M  V30 292 O 29.7078 1.39826 1.44951 0
M  V30 293 C 26.7728 2.63512 2.25305 0
M  V30 294 C 25.8338 3.83256 1.93426 0
M  V30 295 C 25.0668 4.31435 3.14165 0
M  V30 296 O 25.2898 3.78851 4.26413 0
M  V30 297 O 24.2238 5.23416 2.97186 0
M  V30 298 H 28.0498 2.98772 0.544888 0
M  V30 299 H 25.6348 1.48012 0.203141 0
M  V30 300 H 27.5168 2.96183 2.99756 0
M  V30 301 H 26.1918 1.8074 2.68542 0
M  V30 302 H 25.0988 3.55531 1.16398 0
M  V30 303 H 26.4318 4.67153 1.55013 0
M  V30 304 N 28.0839 -0.256276 1.55502 0
M  V30 305 C 29.4999 -0.604325 1.47716 0
M  V30 306 C 29.6999 -1.88763 0.705039 0
M  V30 307 O 28.7559 -2.51445 0.230613 0
M  V30 308 C 30.0689 -0.715756 2.92057 0
M  V30 309 C 31.6169 -0.808706 3.02372 0
M  V30 310 C 32.0919 -0.951777 4.48001 0
M  V30 311 N 33.5829 -1.01688 4.519 0
M  V30 312 C 34.3179 -1.14668 5.61817 0
M  V30 313 N 33.8139 -1.24261 6.81565 0
M  V30 314 N 35.6069 -1.1791 5.49594 0
M  V30 315 H 27.7579 0.586291 2.04148 0
M  V30 316 H 30.0209 0.201015 0.926443 0
M  V30 317 H 29.7269 0.157027 3.51349 0
M  V30 318 H 29.6009 -1.59071 3.42018 0
M  V30 319 H 31.9879 -1.67195 2.43166 0
M  V30 320 H 32.0689 0.0912063 2.55637 0
M  V30 321 H 31.7129 -0.0931291 5.07815 0
M  V30 322 H 31.6429 -1.86659 4.92408 0
M  V30 323 H 34.1339 -0.954468 3.65648 0
M  V30 324 H 34.4469 -1.34046 7.61086 0
M  V30 325 H 32.7919 -1.21236 6.84344 0
M  V30 326 H 35.9829 -1.10057 4.54978 0
M  V30 327 H 36.1559 -1.27681 6.35296 0
M  V30 328 N 29.562 -1.4872 -0.521534 0
M  V30 329 C 30.839 -1.4766 -1.2828 0
M  V30 330 C 31.219 -0.19292 -2.10217 0
M  V30 331 O 30.567 0.825193 -2.13079 0
M  V30 332 C 30.777 -2.74358 -2.15705 0
M  V30 333 C 32.125 -3.23028 -2.75569 0
M  V30 334 O 33.149 -2.75333 -2.25987 0
M  V30 335 O 32.008 -4.0604 -3.65778 0
M  V30 336 H 29.102 -0.590085 -0.579421 0
M  V30 337 H 31.648 -1.60963 -0.537492 0
M  V30 338 H 30.42 -3.59292 -1.54999 0
M  V30 339 H 30.043 -2.63816 -2.97467 0
M  V30 340 N 31.0401 0.771051 -1.3745 0
M  V30 341 C 32.2801 1.54264 -1.34096 0
M  V30 342 C 32.6441 1.91858 0.0737639 0
M  V30 343 O 33.8451 2.67797 0.23203 0
M  V30 344 C 32.1161 2.77326 -2.25445 0
M  V30 345 S 33.6751 3.67383 -2.39948 0
M  V30 346 H 30.4931 0.528122 -0.476034 0
M  V30 347 H 33.0951 0.906633 -1.73206 0
M  V30 348 H 31.7991 2.47788 -3.27153 0
M  V30 349 H 31.3301 3.45886 -1.87421 0
M  V30 350 H 33.3451 4.69334 -1.61059 0
M  V30 351 N 32.5182 1.22032 0.997298 0
M  V30 352 C 33.9342 0.979326 1.26021 0
M  V30 353 C 34.1342 -0.32972 1.98784 0
M  V30 354 O 33.1902 -1.05345 2.29475 0
M  V30 355 C 34.5032 2.17509 2.07631 0
M  V30 356 C 36.0512 2.21817 2.2083 0
M  V30 357 C 36.5262 3.40933 3.05825 0
M  V30 358 N 38.0172 3.41067 3.13412 0
M  V30 359 C 38.7522 4.29885 3.79455 0
M  V30 360 N 38.2482 5.28914 4.47462 0
M  V30 361 N 40.0412 4.17673 3.76173 0
M  V30 362 H 32.1922 2.06202 0.509352 0
M  V30 363 H 34.4552 0.90334 0.287541 0
M  V30 364 H 34.1612 3.12415 1.61524 0
M  V30 365 H 34.0352 2.17206 3.08385 0
M  V30 366 H 36.4222 1.27462 2.66153 0
M  V30 367 H 36.5032 2.2616 1.1952 0
M  V30 368 H 36.1472 4.35586 2.61203 0
M  V30 369 H 36.0772 3.33829 4.07266 0
M  V30 370 H 38.5682 2.69406 2.65007 0
M  V30 371 H 38.8812 5.92973 4.95583 0
M  V30 372 H 37.2262 5.32831 4.46224 0
M  V30 373 H 40.4172 3.39564 3.22202 0
M  V30 374 H 40.5902 4.87098 4.27363 0
M  V30 375 N 33.9963 -1.19345 1.0293 0
M  V30 376 C 35.2423 -1.89318 0.727083 0
M  V30 377 C 35.5753 -1.79446 -0.742483 0
M  V30 378 O 34.8503 -1.1871 -1.54072 0
M  V30 379 C 35.1333 -3.40238 1.17942 0
M  V30 380 C 34.9863 -3.58979 2.71024 0
M  V30 381 C 36.3053 -4.33479 0.760548 0
M  V30 382 H 33.4243 -0.687475 0.265606 0
M  V30 383 H 36.0663 -1.40477 1.2793 0
M  V30 384 H 34.2163 -3.81964 0.709608 0
M  V30 385 H 35.8883 -3.26421 3.25955 0
M  V30 386 H 34.1313 -3.02018 3.11396 0
M  V30 387 H 34.8023 -4.64823 2.9773 0
M  V30 388 H 37.2783 -3.99469 1.16464 0
M  V30 389 H 36.1543 -5.37664 1.10493 0
M  V30 390 H 36.4153 -4.40813 -0.337063 0
M  V30 391 N 35.4744 -0.807222 -1.35358 0
M  V30 392 C 36.6994 -0.399309 -2.0352 0
M  V30 393 C 37.1244 0.981986 -1.60433 0
M  V30 394 O 36.4824 1.63601 -0.781299 0
M  V30 395 C 36.5304 -0.491552 -3.57234 0
M  V30 396 O 35.6344 0.494754 -4.09421 0
M  V30 397 H 34.9754 -0.166682 -0.642739 0
M  V30 398 H 37.5054 -1.09328 -1.72941 0
M  V30 399 H 37.5154 -0.361588 -4.06395 0
M  V30 400 H 36.1904 -1.49907 -3.87944 0
M  V30 401 H 34.7674 0.324977 -3.71481 0
M  V30 402 N 36.9525 1.47285 -0.560781 0
M  V30 403 C 38.1775 2.07359 -0.0410566 0
M  V30 404 C 38.6025 1.41017 1.24483 0
M  V30 405 O 37.9605 0.486368 1.74654 0
M  V30 406 C 38.0085 3.6035 0.134123 0
M  V30 407 O 37.1125 3.94681 1.19587 0
M  V30 408 H 36.4535 0.661887 -0.0529291 0
M  V30 409 H 38.9835 1.89252 -0.777482 0
M  V30 410 H 38.9935 4.0652 0.347207 0
M  V30 411 H 37.6685 4.08034 -0.805047 0
M  V30 412 H 36.2455 3.60251 0.962987 0
M  V30 413 N 38.4306 0.297415 1.54768 0
M  V30 414 C 39.6776 -0.312913 2.00068 0
M  V30 415 C 40.0056 -1.54171 1.18582 0
M  V30 416 O 39.2606 -1.94108 0.249133 0
M  V30 417 C 39.5596 -0.717561 3.50123 0
M  V30 418 C 39.2256 0.409095 4.4904 0
M  V30 419 C 37.8876 0.718399 4.75807 0
M  V30 420 C 40.2396 1.16717 5.07963 0
M  V30 421 C 37.5676 1.78896 5.5876 0
M  V30 422 C 39.9196 2.22762 5.92081 0
M  V30 423 C 38.5836 2.54303 6.1716 0
M  V30 424 H 37.8536 -0.114503 0.7321 0
M  V30 425 H 40.5006 0.415767 1.86932 0
M  V30 426 H 38.8056 -1.52627 3.60849 0
M  V30 427 H 40.5026 -1.20091 3.82595 0
M  V30 428 H 37.0926 0.157918 4.28309 0
M  V30 429 H 41.2766 0.941466 4.87289 0
M  V30 430 H 36.5326 2.0381 5.7643 0
M  V30 431 H 40.7066 2.81962 6.36765 0
M  V30 432 H 38.3336 3.3739 6.81229 0
M  V30 433 N 39.9087 -1.5758 0.0250728 0
M  V30 434 C 41.3247 -1.56124 -0.331282 0
M  V30 435 C 41.5247 -1.03029 -1.73169 0
M  V30 436 O 40.5807 -0.675215 -2.43305 0
M  V30 437 C 41.8937 -3.00139 -0.183584 0
M  V30 438 C 43.4417 -3.11946 -0.256654 0
M  V30 439 C 43.9167 -4.57793 -0.137792 0
M  V30 440 N 45.4077 -4.6279 -0.194904 0
M  V30 441 C 46.1427 -5.7326 -0.126655 0
M  V30 442 N 45.6387 -6.928 -0.00755288 0
M  V30 443 N 47.4317 -5.61811 -0.180348 0
M  V30 444 H 39.5827 -1.90424 0.94087 0
M  V30 445 H 41.8457 -0.875761 0.362968 0
M  V30 446 H 41.5517 -3.4292 0.780927 0
M  V30 447 H 41.4257 -3.64899 -0.955448 0
M  V30 448 H 43.8127 -2.69079 -1.21162 0
M  V30 449 H 43.8937 -2.49915 0.545517 0
M  V30 450 H 43.5377 -5.01339 0.813739 0
M  V30 451 H 43.4677 -5.17798 -0.958775 0
M  V30 452 H 45.9587 -3.76807 -0.287267 0
M  V30 453 H 46.2717 -7.72791 0.0379428 0
M  V30 454 H 44.6167 -6.94995 0.0271731 0
M  V30 455 H 47.8077 -4.6731 -0.271767 0
M  V30 456 H 47.9807 -6.47882 -0.123697 0
M  V30 457 N 41.3868 0.248026 -1.55636 0
M  V30 458 C 42.6328 0.97767 -1.77678 0
M  V30 459 C 42.9658 1.85016 -0.590135 0
M  V30 460 O 42.2408 1.90095 0.411611 0
M  V30 461 C 42.5238 1.83914 -3.09593 0
M  V30 462 C 42.3768 0.99491 -4.38659 0
M  V30 463 C 43.6958 2.82183 -3.37729 0
M  V30 464 H 40.8148 0.354005 -0.646413 0
M  V30 465 H 43.4568 0.248253 -1.88371 0
M  V30 466 H 41.6068 2.46104 -3.00608 0
M  V30 467 H 43.2788 0.391789 -4.59633 0
M  V30 468 H 41.5218 0.299231 -4.32767 0
M  V30 469 H 42.1928 1.63145 -5.2734 0
M  V30 470 H 44.6688 2.30129 -3.4667 0
M  V30 471 H 43.5448 3.39582 -4.31249 0
M  V30 472 H 43.8058 3.58588 -2.58586 0
M  V30 473 N 42.8649 1.48995 0.513639 0
M  V30 474 C 43.8119 1.6473 1.61656 0
M  V30 475 C 44.7819 0.488984 1.58739 0
M  V30 476 O 45.9669 0.714478 1.76918 0
M  V30 477 C 43.1069 1.7082 2.99858 0
M  V30 478 C 42.2199 2.9787 3.12885 0
M  V30 479 C 41.3549 2.95017 4.41744 0
M  V30 480 C 40.3939 4.16702 4.48359 0
M  V30 481 N 39.5309 4.11832 5.68629 0
M  V30 482 H 44.3709 2.58909 1.47547 0
M  V30 483 H 41.9079 1.28382 0.71808 0
M  V30 484 H 43.8659 1.72331 3.79944 0
M  V30 485 H 42.4959 0.801181 3.12699 0
M  V30 486 H 41.5479 3.06029 2.25944 0
M  V30 487 H 42.8599 3.8786 3.13633 0
M  V30 488 H 42.0139 2.95021 5.30139 0
M  V30 489 H 40.7529 2.02784 4.43542 0
M  V30 490 H 39.7579 4.16955 3.58369 0
M  V30 491 H 40.9829 5.10113 4.48287 0
M  V30 492 H 38.9289 3.22428 5.71293 0
M  V30 493 H 38.8459 4.95543 5.7094 0
M  V30 494 H 40.1139 4.1592 6.59266 0
M  V30 495 N 44.343 -0.763751 1.37857 0
M  V30 496 C 45.253 -1.90817 1.36478 0
M  V30 497 C 46.269 -1.71997 0.263248 0
M  V30 498 O 47.445 -1.95095 0.499979 0
M  V30 499 C 44.51 -3.2605 1.17864 0
M  V30 500 C 43.571 -3.57467 2.3773 0
M  V30 501 C 42.804 -4.86249 2.19995 0
M  V30 502 O 43.027 -5.57884 1.18836 0
M  V30 503 O 41.961 -5.16911 3.08361 0
M  V30 504 H 45.787 -1.94933 2.32884 0
M  V30 505 H 43.372 -0.907619 1.1867 0
M  V30 506 H 45.254 -4.06924 1.09504 0
M  V30 507 H 43.929 -3.22769 0.245372 0
M  V30 508 H 42.836 -2.76796 2.51664 0
M  V30 509 H 44.169 -3.655 3.29652 0
M  V30 510 N 45.8211 -1.22559 -0.990812 0
M  V30 511 C 46.7691 -0.994798 -2.10253 0
M  V30 512 C 47.7631 0.0627798 -1.69284 0
M  V30 513 O 48.9691 -0.0898392 -1.79776 0
M  V30 514 H 45.3441 -0.304527 -0.687581 0
M  V30 515 H 47.3151 -1.93812 -2.26891 0
M  V30 516 C 46.0641 -0.591439 -3.42633 0
M  V30 517 H 45.3871 -1.3969 -3.74602 0
M  V30 518 H 46.8271 -0.469385 -4.21394 0
M  V30 519 C 45.2861 0.699232 -3.29564 0
M  V30 520 O 45.8161 1.75112 -3.61523 0
M  V30 521 N 44.0221 0.671182 -2.82743 0
M  V30 522 H 43.5691 -0.185136 -2.56934 0
M  V30 523 H 43.5271 1.53502 -2.7438 0
M  V30 524 N 47.2992 1.18797 -1.03562 0
M  V30 525 C 48.5462 1.8865 -0.736023 0
M  V30 526 C 48.8742 1.80041 0.735889 0
M  V30 527 O 48.1292 1.19179 1.55225 0
M  V30 528 C 48.4282 3.38692 -1.14117 0
M  V30 529 C 48.0942 3.67504 -2.6125 0
M  V30 530 C 46.7562 3.75078 -3.01447 0
M  V30 531 C 49.1082 3.80293 -3.56408 0
M  V30 532 C 46.4362 3.92915 -4.35701 0
M  V30 533 C 48.7882 3.99645 -4.90374 0
M  V30 534 C 47.4522 4.05453 -5.30249 0
M  V30 535 H 46.7222 0.690321 -0.26933 0
M  V30 536 H 49.3692 1.40641 -1.29971 0
M  V30 537 H 47.6742 3.88645 -0.496202 0
M  V30 538 H 49.3712 3.91072 -0.886789 0
M  V30 539 H 45.9612 3.62223 -2.29113 0
M  V30 540 H 50.1452 3.73779 -3.26501 0
M  V30 541 H 45.4012 3.95653 -4.66121 0
M  V30 542 H 49.5752 4.08482 -5.64017 0
M  V30 543 H 47.2022 4.19027 -6.34288 0
M  V30 544 N 48.7773 0.814389 1.34928 0
M  V30 545 C 50.0543 0.321363 1.92942 0
M  V30 546 C 50.4343 -1.19014 1.74353 0
M  V30 547 O 49.7823 -1.99328 1.11716 0
M  V30 548 C 49.9923 0.741323 3.41036 0
M  V30 549 C 51.3403 0.735266 4.18185 0
M  V30 550 O 52.3643 0.68336 3.49584 0
M  V30 551 O 51.2233 0.800703 5.40602 0
M  V30 552 H 48.3173 0.0858893 0.822528 0
M  V30 553 H 50.8633 0.898609 1.43955 0
M  V30 554 H 49.6353 1.78276 3.4833 0
M  V30 555 H 49.2583 0.139307 3.97356 0
M  V30 556 N 50.2554 -1.46986 0.568584 0
M  V30 557 C 51.2024 -2.30153 -0.172707 0
M  V30 558 C 52.1724 -1.39759 -0.897586 0
M  V30 559 O 53.3574 -1.68716 -0.891044 0
M  V30 560 C 50.4974 -3.23952 -1.1895 0
M  V30 561 C 49.6104 -4.29441 -0.469517 0
M  V30 562 C 48.7454 -5.1038 -1.47259 0
M  V30 563 C 47.7844 -6.07632 -0.738225 0
M  V30 564 N 46.9214 -6.8149 -1.68868 0
M  V30 565 H 51.7614 -2.93019 0.542596 0
M  V30 566 H 49.2984 -1.44422 0.279401 0
M  V30 567 H 51.2564 -3.76767 -1.79173 0
M  V30 568 H 49.8864 -2.62926 -1.87269 0
M  V30 569 H 48.9384 -3.79594 0.247467 0
M  V30 570 H 50.2504 -4.98689 0.105241 0
M  V30 571 H 49.4044 -5.67402 -2.14803 0
M  V30 572 H 48.1434 -4.4106 -2.08128 0
M  V30 573 H 47.1484 -5.49778 -0.0489293 0
M  V30 574 H 48.3734 -6.78966 -0.135129 0
M  V30 575 H 46.3194 -6.14891 -2.28573 0
M  V30 576 H 46.2364 -7.46948 -1.16636 0
M  V30 577 H 47.5044 -7.43078 -2.3549 0
M  V30 578 N 51.7335 -0.305618 -1.54608 0
M  V30 579 C 52.6965 0.555591 -2.22364 0
M  V30 580 C 53.6965 1.05768 -1.21119 0
M  V30 581 O 54.8865 0.952972 -1.45822 0
M  V30 582 C 52.0185 1.76974 -2.91364 0
M  V30 583 H 53.2115 -0.0364572 -2.99878 0
M  V30 584 H 50.7645 -0.0565007 -1.56198 0
M  V30 585 H 51.4995 2.40151 -2.17941 0
M  V30 586 H 51.2845 1.41732 -3.65588 0
M  V30 587 H 52.7745 2.38148 -3.43038 0
M  V30 588 N 53.2116 1.57565 -0.0334293 0
M  V30 589 C 54.6276 1.56297 0.322997 0
M  V30 590 C 54.8276 1.03945 1.7262 0
M  V30 591 O 53.8836 0.688109 2.42943 0
M  V30 592 C 55.1966 3.00232 0.167664 0
M  V30 593 C 56.7446 3.12078 0.240107 0
M  V30 594 C 57.2196 4.57859 0.113513 0
M  V30 595 N 58.7106 4.62887 0.170359 0
M  V30 596 C 59.4456 5.73319 0.0962517 0
M  V30 597 N 58.9416 6.92794 -0.0291881 0
M  V30 598 N 60.7346 5.61898 0.150551 0
M  V30 599 H 52.8856 1.89923 -0.950956 0
M  V30 600 H 55.1486 0.873824 -0.367608 0
M  V30 601 H 54.8546 3.42501 -0.799102 0
M  V30 602 H 54.7286 3.654 0.936083 0
M  V30 603 H 57.1156 2.69718 1.19733 0
M  V30 604 H 57.1966 2.49623 -0.558763 0
M  V30 605 H 56.8406 5.009 -0.840314 0
M  V30 606 H 56.7706 5.18299 0.931302 0
M  V30 607 H 59.2616 3.76954 0.26728 0
M  V30 608 H 59.5746 7.7276 -0.0789252 0
M  V30 609 H 57.9196 6.94971 -0.0640299 0
M  V30 610 H 61.1106 4.67448 0.246981 0
M  V30 611 H 61.2836 6.47938 0.0893365 0
M  V30 612 N 54.6897 -0.239769 1.55765 0
M  V30 613 C 55.9367 -0.966801 1.7793 0
M  V30 614 C 56.2647 -1.85046 0.599015 0
M  V30 615 O 55.5197 -1.91197 -0.417395 0
M  V30 616 C 55.8187 -1.852 3.05672 0
M  V30 617 C 55.4847 -1.1231 4.36689 0
M  V30 618 C 54.1467 -0.921689 4.72291 0
M  V30 619 C 56.4987 -0.607019 5.17653 0
M  V30 620 C 53.8267 -0.191996 5.86386 0
M  V30 621 C 56.1787 0.109241 6.32506 0
M  V30 622 C 54.8427 0.322073 6.66723 0
M  V30 623 H 54.1127 -0.353778 0.651093 0
M  V30 624 H 56.7597 -0.23634 1.90036 0
M  V30 625 H 55.0647 -2.64975 2.8861 0
M  V30 626 H 56.7617 -2.41635 3.20021 0
M  V30 627 H 53.3517 -1.29004 4.08725 0
M  V30 628 H 57.5357 -0.750153 4.90598 0
M  V30 629 H 52.7917 -0.0166949 6.11398 0
M  V30 630 H 56.9657 0.516737 6.9448 0
M  V30 631 H 54.5927 0.88944 7.54979 0
M  V30 632 N 56.1678 -1.49265 -0.50573 0
M  V30 633 C 57.3928 -1.62478 -1.28902 0
M  V30 634 C 57.8178 -0.294332 -1.85783 0
M  V30 635 O 57.1758 0.737412 -1.65626 0
M  V30 636 C 57.2238 -2.69268 -2.39848 0
M  V30 637 O 56.3278 -2.28113 -3.43567 0
M  V30 638 H 55.6688 -0.54399 -0.380751 0
M  V30 639 H 58.1988 -1.95421 -0.605952 0
M  V30 640 H 58.2088 -2.91291 -2.85681 0
M  V30 641 H 56.8838 -3.65846 -1.97812 0
M  V30 642 H 55.4608 -2.16401 -3.03685 0
M  V30 643 N 57.6459 0.756429 -1.3826 0
M  V30 644 C 58.8939 1.51248 -1.34047 0
M  V30 645 C 59.2149 1.94875 0.0698372 0
M  V30 646 O 58.4849 1.67436 1.01696 0
M  V30 647 H 57.0649 0.561018 -0.493222 0
M  V30 648 H 59.7269 0.899347 -1.7291 0
M  V30 649 H 58.8229 2.40472 -1.98947 0
M  V30 650 N 59.124 1.23083 0.984299 0
M  V30 651 C 60.352 1.08714 1.76037 0
M  V30 652 C 60.767 -0.361691 1.85303 0
M  V30 653 O 60.124 -1.25034 1.32939 0
M  V30 654 C 60.175 1.70206 3.18923 0
M  V30 655 O 59.896 3.09423 3.10144 0
M  V30 656 C 61.397 1.61227 4.12941 0
M  V30 657 H 58.617 0.380664 0.552572 0
M  V30 658 H 61.161 1.62853 1.23689 0
M  V30 659 H 59.316 1.20109 3.6831 0
M  V30 660 H 59.73 3.39188 4.00065 0
M  V30 661 H 61.204 2.08962 5.10919 0
M  V30 662 H 61.681 0.570375 4.35481 0
M  V30 663 H 62.287 2.10671 3.69456 0
M  V30 664 N 60.6021 -1.18246 1.0419 0
M  V30 665 C 61.8481 -1.88793 0.75689 0
M  V30 666 C 62.2031 -1.78909 -0.707767 0
M  V30 667 O 61.4961 -1.1794 -1.50999 0
M  V30 668 C 61.6901 -3.38082 1.15911 0
M  V30 669 C 61.5191 -3.62496 2.66133 0
M  V30 670 C 60.2891 -3.7979 3.33298 0
M  V30 671 C 62.4871 -3.62976 3.64353 0
M  V30 672 N 60.4691 -3.91955 4.72487 0
M  V30 673 C 61.8401 -3.80869 4.89222 0
M  V30 674 C 63.8951 -3.46071 3.57965 0
M  V30 675 C 62.5981 -3.83608 6.08471 0
M  V30 676 C 64.6241 -3.50093 4.76643 0
M  V30 677 C 63.9861 -3.68484 6.00332 0
M  V30 678 H 60.0851 -0.709406 0.32904 0
M  V30 679 H 62.6691 -1.42022 1.33183 0
M  V30 680 H 60.8401 -3.83544 0.612238 0
M  V30 681 H 62.5721 -3.96202 0.824989 0
M  V30 682 H 59.3271 -3.79224 2.83701 0
M  V30 683 H 59.7511 -4.01857 5.44831 0
M  V30 684 H 64.3931 -3.30797 2.63311 0
M  V30 685 H 62.1111 -3.97669 7.0348 0
M  V30 686 H 65.6971 -3.38285 4.73344 0
M  V30 687 H 64.5771 -3.71488 6.90627 0
M  V30 688 N 62.0802 -0.821533 -1.34494 0
M  V30 689 C 63.3102 -0.421272 -2.02259 0
M  V30 690 C 63.7182 0.977047 -1.6202 0
M  V30 691 O 63.0612 1.64348 -0.820703 0
M  V30 692 C 63.1232 -0.44231 -3.56769 0
M  V30 693 C 62.7872 -1.79372 -4.20327 0
M  V30 694 C 63.7842 -2.75435 -4.40944 0
M  V30 695 C 61.4692 -2.08182 -4.57127 0
M  V30 696 C 63.4632 -3.98482 -4.97484 0
M  V30 697 C 61.1502 -3.31489 -5.13379 0
M  V30 698 C 62.1482 -4.26457 -5.33501 0
M  V30 699 O 61.8362 -5.47585 -5.88562 0
M  V30 700 H 61.5682 -0.167473 -0.654927 0
M  V30 701 H 64.1222 -1.11073 -1.72777 0
M  V30 702 H 62.3522 0.303836 -3.85505 0
M  V30 703 H 64.0412 -0.0622925 -4.05852 0
M  V30 704 H 64.8072 -2.54473 -4.12878 0
M  V30 705 H 60.6862 -1.35066 -4.4077 0
M  V30 706 H 64.2302 -4.72618 -5.13106 0
M  V30 707 H 60.1272 -3.52316 -5.40873 0
M  V30 708 H 60.8952 -5.49086 -6.06998 0
M  V30 709 N 63.5583 1.46682 -0.576371 0
M  V30 710 C 64.5213 2.28707 0.150239 0
M  V30 711 C 65.5213 1.38035 0.824794 0
M  V30 712 O 66.7113 1.60476 0.677719 0
M  V30 713 C 63.8433 3.18248 1.22192 0
M  V30 714 H 65.0363 2.94423 -0.570521 0
M  V30 715 H 62.5893 1.52688 -0.334078 0
M  V30 716 H 63.3243 2.57265 1.97447 0
M  V30 717 H 63.1093 3.85 0.742812 0
M  V30 718 H 64.5993 3.80001 1.73172 0
M  V30 719 N 65.0364 0.313813 1.54444 0
M  V30 720 C 65.9694 -0.598866 2.20202 0
M  V30 721 C 66.9474 -1.12318 1.17573 0
M  V30 722 O 68.1314 -1.18899 1.46271 0
M  V30 723 C 65.2584 -1.82071 2.85601 0
M  V30 724 C 64.3044 -1.42851 4.01865 0
M  V30 725 S 65.1374 -0.473512 5.33402 0
M  V30 726 C 66.2934 -1.70286 6.0229 0
M  V30 727 H 66.5264 -0.0402532 2.97273 0
M  V30 728 H 64.0594 0.0979165 1.54089 0
M  V30 729 H 66.0174 -2.52184 3.23904 0
M  V30 730 H 64.6784 -2.3505 2.08351 0
M  V30 731 H 63.8714 -2.33871 4.46453 0
M  V30 732 H 63.4734 -0.807198 3.65185 0
M  V30 733 H 65.7654 -2.64168 6.23876 0
M  V30 734 H 66.7084 -1.29932 6.96077 0
M  V30 735 H 67.1164 -1.88541 5.32083 0
M  V30 736 N 66.5145 -1.57545 0.0417849 0
M  V30 737 C 67.4775 -2.09885 -0.92093 0
M  V30 738 C 68.4775 -1.01648 -1.24596 0
M  V30 739 O 69.6675 -1.27759 -1.1842 0
M  V30 740 C 66.7995 -2.57527 -2.23367 0
M  V30 741 H 67.9925 -2.96236 -0.467382 0
M  V30 742 H 65.5455 -1.5493 -0.206467 0
M  V30 743 H 66.2805 -1.74542 -2.73323 0
M  V30 744 H 66.0655 -3.36613 -2.01083 0
M  V30 745 H 67.5555 -2.98201 -2.92346 0
M  V30 746 N 67.9926 0.231505 -1.5589 0
M  V30 747 C 68.9396 1.28682 -1.91598 0
M  V30 748 C 69.9096 1.47071 -0.771974 0
M  V30 749 O 71.0946 1.60802 -1.027 0
M  V30 750 C 68.2346 2.6342 -2.22944 0
M  V30 751 C 67.3476 2.52912 -3.50228 0
M  V30 752 C 66.4826 3.80106 -3.7107 0
M  V30 753 C 65.5216 3.64279 -4.91902 0
M  V30 754 N 64.6586 4.834 -5.09184 0
M  V30 755 H 69.4986 0.975305 -2.81588 0
M  V30 756 H 67.0356 0.470299 -1.39379 0
M  V30 757 H 68.9936 3.41869 -2.39126 0
M  V30 758 H 67.6236 2.92687 -1.36139 0
M  V30 759 H 66.6756 1.6595 -3.42294 0
M  V30 760 H 67.9876 2.37133 -4.38827 0
M  V30 761 H 67.1416 4.66999 -3.87295 0
M  V30 762 H 65.8806 3.98799 -2.80733 0
M  V30 763 H 64.8856 2.7577 -4.75637 0
M  V30 764 H 66.1106 3.47067 -5.83714 0
M  V30 765 H 64.0566 5.02425 -4.21788 0
M  V30 766 H 63.9736 4.70311 -5.91898 0
M  V30 767 H 65.2416 5.71747 -5.29835 0
M  V30 768 N 69.4707 1.49531 0.497807 0
M  V30 769 C 70.4177 1.66436 1.59899 0
M  V30 770 C 71.3877 0.505793 1.58212 0
M  V30 771 O 72.5727 0.733202 1.7615 0
M  V30 772 C 69.7127 1.7399 2.98029 0
M  V30 773 C 68.8257 3.01172 3.09708 0
M  V30 774 C 67.9607 2.99686 4.38591 0
M  V30 775 C 66.9997 4.21434 4.43914 0
M  V30 776 N 66.1367 4.1784 5.64229 0
M  V30 777 H 70.9767 2.60459 1.44793 0
M  V30 778 H 68.5137 1.29137 0.704423 0
M  V30 779 H 70.4717 1.76352 3.78095 0
M  V30 780 H 69.1017 0.834301 3.11832 0
M  V30 781 H 68.1537 3.08408 2.22685 0
M  V30 782 H 69.4657 3.91165 3.09502 0
M  V30 783 H 68.6197 3.00628 5.2698 0
M  V30 784 H 67.3587 2.07477 4.41367 0
M  V30 785 H 66.3637 4.20733 3.53926 0
M  V30 786 H 67.5887 5.14839 4.42851 0
M  V30 787 H 65.5347 3.28469 5.67841 0
M  V30 788 H 65.4517 5.01571 5.65652 0
M  V30 789 H 66.7197 4.22889 6.54817 0
M  V30 790 N 70.9488 -0.749086 1.3866 0
M  V30 791 C 72.2258 -1.4992 1.25632 0
M  V30 792 C 72.6058 -2.10633 -0.140317 0
M  V30 793 O 71.9538 -1.97437 -1.15025 0
M  V30 794 C 72.1638 -2.56195 2.36992 0
M  V30 795 C 73.5118 -3.22972 2.75634 0
M  V30 796 O 74.5358 -2.66502 2.36337 0
M  V30 797 O 73.3948 -4.25122 3.43415 0
M  V30 798 H 70.4888 -0.665067 0.491544 0
M  V30 799 H 73.0348 -0.784113 1.50498 0
M  V30 800 H 71.8068 -2.09612 3.30422 0
M  V30 801 H 71.4298 -3.35279 2.13714 0
M  V30 802 N 72.4269 -1.23603 -0.977757 0
M  V30 803 C 73.8379 -1.06424 -1.53398 0
M  V30 804 C 74.1889 0.367578 -1.92726 0
M  V30 805 O 73.3139 1.25465 -1.76316 0
M  V30 806 C 73.9089 -1.92568 -2.78753 0
M  V30 807 C 72.4679 -1.79642 -3.30765 0
M  V30 808 C 71.6149 -1.88111 -2.03739 0
M  V30 809 H 74.5659 -1.37227 -0.797152 0
M  V30 810 H 74.5869 -1.45203 -3.51705 0
M  V30 811 H 74.0989 -2.96771 -2.50098 0
M  V30 812 H 72.1999 -0.782325 -3.64294 0
M  V30 813 H 72.3129 -2.63174 -4.00345 0
M  V30 814 H 70.6769 -1.31723 -2.17994 0
M  V30 815 H 71.4599 -2.93875 -1.77461 0
M  V30 816 N 73.905 1.17692 -1.04816 0
M  V30 817 C 74.815 2.25229 -0.65643 0
M  V30 818 C 75.831 1.71018 0.320761 0
M  V30 819 O 77.007 2.00649 0.173805 0
M  V30 820 C 74.072 3.46684 -0.0332629 0
M  V30 821 C 73.133 4.15997 -1.06042 0
M  V30 822 C 72.366 5.31654 -0.466893 0
M  V30 823 O 72.589 5.65777 0.724758 0
M  V30 824 O 71.523 5.89831 -1.1993 0
M  V30 825 H 75.349 2.61016 -1.55255 0
M  V30 826 H 72.934 1.24919 -0.81949 0
M  V30 827 H 74.816 4.20234 0.313256 0
M  V30 828 H 73.491 3.12703 0.836566 0
M  V30 829 H 72.398 3.44482 -1.45886 0
M  V30 830 H 73.731 4.53996 -1.90127 0
M  V30 831 N 75.3831 0.828654 1.34056 0
M  V30 832 C 76.6311 0.41863 1.97717 0
M  V30 833 C 76.9521 -1.02314 1.66002 0
M  V30 834 O 76.2221 -1.71119 0.953683 0
M  V30 835 H 74.8021 0.151809 0.731412 0
M  V30 836 H 77.4641 1.05936 1.63596 0
M  V30 837 H 76.5601 0.542318 3.07352 0
M  V30 838 N 76.8612 -1.46375 0.584142 0
M  V30 839 C 77.7912 -2.33103 -0.136037 0
M  V30 840 C 78.7722 -1.45431 -0.882255 0
M  V30 841 O 79.9572 -1.74246 -0.857434 0
M  V30 842 C 77.0872 -3.27731 -1.14933 0
M  V30 843 C 76.0412 -4.24855 -0.517862 0
M  V30 844 C 75.3672 -5.09001 -1.63773 0
M  V30 845 C 76.6672 -5.19439 0.545886 0
M  V30 846 H 78.3612 -2.93568 0.588086 0
M  V30 847 H 75.9072 -1.41166 0.284259 0
M  V30 848 H 77.8602 -3.87261 -1.66153 0
M  V30 849 H 76.5842 -2.65377 -1.90375 0
M  V30 850 H 75.2432 -3.6659 -0.0267361 0
M  V30 851 H 74.8912 -4.43031 -2.38185 0
M  V30 852 H 74.5912 -5.74777 -1.22085 0
M  V30 853 H 76.1152 -5.71396 -2.15266 0
M  V30 854 H 77.5292 -5.73177 0.118704 0
M  V30 855 H 75.9262 -5.93566 0.88317 0
M  V30 856 H 76.9962 -4.63285 1.43162 0
M  V30 857 N 78.3393 -0.321999 -1.54275 0
M  V30 858 C 79.5863 0.281044 -2.0054 0
M  V30 859 C 79.9143 1.52265 -1.21019 0
M  V30 860 O 79.1693 1.93687 -0.279982 0
M  V30 861 C 79.4683 0.661769 -3.5122 0
M  V30 862 C 79.1343 -0.480482 -4.48333 0
M  V30 863 C 77.7963 -0.794005 -4.74604 0
M  V30 864 C 80.1483 -1.24783 -5.06042 0
M  V30 865 C 77.4763 -1.87763 -5.55844 0
M  V30 866 C 79.8283 -2.32153 -5.88462 0
M  V30 867 C 78.4923 -2.64089 -6.13036 0
M  V30 868 H 77.7623 0.102841 -0.733829 0
M  V30 869 H 80.4093 -0.445453 -1.86247 0
M  V30 870 H 78.7143 1.46867 -3.63232 0
M  V30 871 H 80.4113 1.13989 -3.84457 0
M  V30 872 H 77.0013 -0.226039 -4.28004 0
M  V30 873 H 81.1853 -1.01887 -4.85729 0
M  V30 874 H 76.4413 -2.12954 -5.73115 0
M  V30 875 H 80.6153 -2.92057 -6.32199 0
M  V30 876 H 78.2423 -3.48185 -6.75775 0
M  V30 877 N 79.8174 1.5752 -0.0501392 0
M  V30 878 C 80.7474 2.14502 0.922566 0
M  V30 879 C 81.7284 1.06642 1.3252 0
M  V30 880 O 82.9134 1.34577 1.4001 0
M  V30 881 C 80.0434 2.68916 2.19776 0
M  V30 882 C 78.9974 3.8175 1.93523 0
M  V30 883 C 78.3234 4.22677 3.27487 0
M  V30 884 C 79.6234 5.06932 1.25765 0
M  V30 885 H 81.3174 2.9603 0.447952 0
M  V30 886 H 78.8634 1.42401 0.214024 0
M  V30 887 H 80.8164 3.07419 2.88222 0
M  V30 888 H 79.5404 1.84578 2.69441 0
M  V30 889 H 78.1994 3.43718 1.27489 0
M  V30 890 H 77.8474 3.35291 3.74952 0
M  V30 891 H 77.5474 4.98725 3.1072 0
M  V30 892 H 79.0714 4.63779 3.97166 0
M  V30 893 H 80.4854 5.42888 1.84244 0
M  V30 894 H 78.8824 5.88116 1.19328 0
M  V30 895 H 79.9524 4.84337 0.233536 0
M  V30 896 N 81.2955 -0.223234 1.56011 0
M  V30 897 C 82.2275 -1.30006 1.88762 0
M  V30 898 C 83.2405 -1.43129 0.775746 0
M  V30 899 O 84.4295 -1.44057 1.05403 0
M  V30 900 C 81.5295 -2.67589 2.07965 0
M  V30 901 C 80.7025 -2.76434 3.38973 0
M  V30 902 C 79.7615 -3.95019 3.47629 0
M  V30 903 O 78.7875 -3.83436 4.20672 0
M  V30 904 N 79.9895 -5.09249 2.78649 0
M  V30 905 H 82.7545 -1.02238 2.81722 0
M  V30 906 H 80.3155 -0.413278 1.56536 0
M  V30 907 H 82.3075 -3.45297 2.11073 0
M  V30 908 H 80.8775 -2.87964 1.21638 0
M  V30 909 H 80.0975 -1.85216 3.47978 0
M  V30 910 H 81.3855 -2.79313 4.25278 0
M  V30 911 H 80.7835 -5.21556 2.19081 0
M  V30 912 H 79.3405 -5.85007 2.8742 0
M  V30 913 N 82.7736 -1.49793 -0.48987 0
M  V30 914 C 84.0506 -1.50348 -1.25119 0
M  V30 915 C 84.4306 -0.237466 -2.0976 0
M  V30 916 O 83.7786 0.77981 -2.14782 0
M  V30 917 C 83.9886 -2.78872 -2.09837 0
M  V30 918 C 85.3366 -3.288 -2.68655 0
M  V30 919 O 86.3606 -2.80065 -2.20096 0
M  V30 920 O 85.2196 -4.13707 -3.57083 0
M  V30 921 H 82.3136 -0.602242 -0.566775 0
M  V30 922 H 84.8596 -1.62067 -0.503229 0
M  V30 923 H 83.6316 -3.62499 -1.47343 0
M  V30 924 H 83.2546 -2.70066 -2.91805 0
M  V30 925 N 84.2517 0.741722 -1.39055 0
M  V30 926 C 85.1997 1.87702 -1.3737 0
M  V30 927 C 86.1937 1.67427 -0.257812 0
M  V30 928 O 87.3997 1.7485 -0.427489 0
M  V30 929 H 83.7747 0.617757 -0.428812 0
M  V30 930 H 85.7457 1.86239 -2.33147 0
M  V30 931 C 84.4947 3.25315 -1.22741 0
M  V30 932 H 83.8177 3.41509 -2.07873 0
M  V30 933 H 85.2577 4.04964 -1.25618 0
M  V30 934 C 83.7167 3.36838 0.0647316 0
M  V30 935 O 84.2467 3.88073 1.03741 0
M  V30 936 N 82.4527 2.90329 0.125544 0
M  V30 937 H 81.9997 2.48823 -0.666682 0
M  V30 938 H 81.9577 2.98418 0.989639 0
M  V30 939 N 85.7298 1.2412 0.971189 0
M  V30 940 C 86.9788 1.07284 1.70801 0
M  V30 941 C 87.2918 -0.388902 1.91695 0
M  V30 942 O 88.4978 -0.677379 2.62914 0
M  V30 943 C 86.9538 1.87145 3.07416 0
M  V30 944 C 86.5618 3.37707 2.94377 0
M  V30 945 C 88.3058 1.78828 3.84995 0
M  V30 946 C 86.2128 4.09925 4.26281 0
M  V30 947 H 85.1428 0.397854 0.64049 0
M  V30 948 H 87.7938 1.4817 1.0825 0
M  V30 949 H 86.1758 1.39071 3.70777 0
M  V30 950 H 87.3498 3.93335 2.4005 0
M  V30 951 H 85.6648 3.46938 2.30267 0
M  V30 952 H 88.2618 2.30089 4.82662 0
M  V30 953 H 88.6048 0.75284 4.09436 0
M  V30 954 H 89.1378 2.24563 3.28354 0
M  V30 955 H 85.8768 5.13813 4.07033 0
M  V30 956 H 85.3968 3.59083 4.80437 0
M  V30 957 H 87.0758 4.1673 4.94919 0
M  V30 958 N 87.2079 -1.17134 1.05439 0
M  V30 959 C 88.4539 -1.87733 0.767077 0
M  V30 960 C 88.7869 -1.8098 -0.704253 0
M  V30 961 O 88.0619 -1.21951 -1.5152 0
M  V30 962 C 88.3449 -3.37659 1.25133 0
M  V30 963 C 88.1979 -3.53149 2.78578 0
M  V30 964 C 89.5169 -4.31768 0.852324 0
M  V30 965 H 86.6359 -0.681687 0.280129 0
M  V30 966 H 89.2779 -1.37732 1.30881 0
M  V30 967 H 87.4279 -3.80373 0.790469 0
M  V30 968 H 89.0999 -3.19434 3.32806 0
M  V30 969 H 87.3429 -2.95345 3.17732 0
M  V30 970 H 88.0139 -4.58403 3.07523 0
M  V30 971 H 90.4899 -3.96909 1.24911 0
M  V30 972 H 89.3659 -5.35199 1.21873 0
M  V30 973 H 89.6269 -4.41429 -0.243485 0
M  V30 974 N 88.686 -0.835752 -1.33615 0
M  V30 975 C 89.649 -0.272 -2.2758 0
M  V30 976 C 90.649 0.557487 -1.50827 0
M  V30 977 O 91.839 0.37173 -1.70188 0
M  V30 978 C 88.971 0.617173 -3.35267 0
M  V30 979 H 90.164 -1.10111 -2.78954 0
M  V30 980 H 87.717 -0.608594 -1.43965 0
M  V30 981 H 88.452 1.46884 -2.89129 0
M  V30 982 H 88.237 0.0237066 -3.92093 0
M  V30 983 H 89.727 1.005 -4.05326 0
M  V30 984 N 90.1641 1.46063 -0.591896 0
M  V30 985 C 91.0741 2.34192 0.13831 0
M  V30 986 C 92.0901 1.50305 0.876608 0
M  V30 987 O 93.2661 1.8315 0.837728 0
M  V30 988 C 90.3311 3.27656 1.13326 0
M  V30 989 C 89.3921 4.27445 0.39863 0
M  V30 990 C 88.6251 5.16443 1.34618 0
M  V30 991 O 88.8481 5.08553 2.58321 0
M  V30 992 O 87.7821 5.95843 0.851768 0
M  V30 993 H 91.6081 2.98002 -0.58552 0
M  V30 994 H 89.1931 1.45188 -0.352239 0
M  V30 995 H 91.0751 3.85291 1.70671 0
M  V30 996 H 89.7501 2.6643 1.83839 0
M  V30 997 H 88.6571 3.73471 -0.216895 0
M  V30 998 H 89.9901 4.91482 -0.265709 0
M  V30 999 N 91.6422 0.330177 1.54103 0
M  V30 1000 C 92.8892 -0.270405 2.00686 0
M  V30 1001 C 93.2172 -1.51621 1.21825 0
M  V30 1002 O 92.4722 -1.93536 0.29025 0
M  V30 1003 C 92.7712 -0.643134 3.51566 0
M  V30 1004 C 92.4372 0.504251 4.48072 0
M  V30 1005 C 91.0992 0.819163 4.74176 0
M  V30 1006 C 93.4512 1.27465 5.05373 0
M  V30 1007 C 90.7792 1.90708 5.5484 0
M  V30 1008 C 93.1312 2.35271 5.87223 0
M  V30 1009 C 91.7952 2.67336 6.11627 0
M  V30 1010 H 91.0652 -0.0989482 0.734364 0
M  V30 1011 H 93.7122 0.455324 1.86008 0
M  V30 1012 H 92.0172 -1.44938 3.64006 0
M  V30 1013 H 93.7142 -1.11949 3.85056 0
M  V30 1014 H 90.3042 0.248733 4.27878 0
M  V30 1015 H 94.4882 1.04462 4.85182 0
M  V30 1016 H 89.7442 2.15991 5.71977 0
M  V30 1017 H 93.9182 2.95405 6.30641 0
M  V30 1018 H 91.5452 3.51763 6.73919 0
M  V30 1019 N 93.1203 -1.57491 0.0584922 0
M  V30 1020 C 94.3453 -1.97711 -0.62652 0
M  V30 1021 C 94.7703 -0.936132 -1.63151 0
M  V30 1022 O 94.1283 0.099811 -1.81025 0
M  V30 1023 C 94.1763 -3.36989 -1.28338 0
M  V30 1024 O 93.2803 -3.35433 -2.39913 0
M  V30 1025 H 92.6213 -0.643868 -0.162266 0
M  V30 1026 H 95.1513 -2.04193 0.129064 0
M  V30 1027 H 95.1613 -3.73879 -1.63335 0
M  V30 1028 H 93.8363 -4.12289 -0.546889 0
M  V30 1029 H 92.4133 -3.10298 -2.06809 0
M  V30 1030 N 94.5984 0.214957 -1.56127 0
M  V30 1031 C 95.8444 0.939762 -1.79712 0
M  V30 1032 C 96.1774 1.83723 -0.629247 0
M  V30 1033 O 95.4524 1.90925 0.371197 0
M  V30 1034 C 95.7354 1.77306 -3.13424 0
M  V30 1035 C 95.5884 0.90164 -4.40671 0
M  V30 1036 C 96.9074 2.74956 -3.43638 0
M  V30 1037 H 94.0264 0.340214 -0.653776 0
M  V30 1038 H 96.6684 0.20824 -1.88855 0
M  V30 1039 H 94.8184 2.39673 -3.0576 0
M  V30 1040 H 96.4904 0.294206 -4.60361 0
M  V30 1041 H 94.7334 0.207368 -4.33304 0
M  V30 1042 H 95.4044 1.51923 -5.30682 0
M  V30 1043 H 97.8804 2.22724 -3.51473 0
M  V30 1044 H 96.7564 3.30358 -4.38355 0
M  V30 1045 H 97.0174 3.53023 -2.66134 0
M  V30 1046 N 96.0765 1.50051 0.48192 0
M  V30 1047 C 97.3535 1.51009 1.2432 0
M  V30 1048 C 97.7335 0.248587 2.09631 0
M  V30 1049 O 97.0815 -0.768409 2.15192 0
M  V30 1050 C 97.2915 2.79981 2.08355 0
M  V30 1051 C 98.6395 3.3022 2.66908 0
M  V30 1052 O 99.6635 2.81228 2.18607 0
M  V30 1053 O 98.5225 4.15595 3.54884 0
M  V30 1054 H 95.6165 0.605239 0.563573 0
M  V30 1055 H 98.1625 1.62332 0.494627 0
M  V30 1056 H 96.9345 3.63275 1.45419 0
M  V30 1057 H 96.5575 2.7161 2.90368 0
M  V30 1058 N 97.5546 -0.734337 1.39446 0
M  V30 1059 C 98.4646 -1.87879 1.40495 0
M  V30 1060 C 99.4806 -1.714 0.299672 0
M  V30 1061 O 100.657 -1.93991 0.541249 0
M  V30 1062 C 97.7216 -3.23477 1.24754 0
M  V30 1063 C 96.7826 -3.52344 2.45259 0
M  V30 1064 C 96.0156 -4.81473 2.30259 0
M  V30 1065 O 96.2386 -5.55237 1.30643 0
M  V30 1066 O 95.1726 -5.10254 3.19256 0
M  V30 1067 H 98.9986 -1.89949 2.36966 0
M  V30 1068 H 96.5836 -0.882243 1.20569 0
M  V30 1069 H 98.4656 -4.04509 1.18111 0
M  V30 1070 H 97.1406 -3.22176 0.313781 0
M  V30 1071 H 96.0476 -2.71396 2.57478 0
M  V30 1072 H 97.3806 -3.58426 3.37331 0
M  V30 1073 N 99.0327 -1.24633 -0.964593 0
M  V30 1074 C 100.261 -1.11501 -1.74285 0
M  V30 1075 C 100.676 0.332165 -1.85855 0
M  V30 1076 O 100.033 1.22903 -1.34911 0
M  V30 1077 C 100.084 -1.75258 -3.16175 0
M  V30 1078 O 99.8047 -3.14318 -3.05182 0
M  V30 1079 C 101.306 -1.67776 -4.10324 0
M  V30 1080 H 98.5257 -0.389407 -0.546446 0
M  V30 1081 H 101.07 -1.64801 -1.21083 0
M  V30 1082 H 99.2247 -1.25954 -3.66353 0
M  V30 1083 H 99.6387 -3.4551 -3.94618 0
M  V30 1084 H 101.113 -2.17064 -5.0753 0
M  V30 1085 H 101.59 -0.639584 -4.34518 0
M  V30 1086 H 102.196 -2.16522 -3.66058 0
M  V30 1087 N 100.511 1.16574 -1.06058 0
M  V30 1088 C 101.759 1.86677 -0.77434 0
M  V30 1089 C 102.08 1.81959 0.701147 0
M  V30 1090 O 101.35 1.2515 1.50713 0
M  V30 1091 H 99.9298 0.691134 -0.283449 0
M  V30 1092 H 102.592 1.41378 -1.34158 0
M  V30 1093 H 101.688 2.92181 -1.09711 0
M  V30 1094 N 101.989 0.842826 1.3317 0
M  V30 1095 C 102.921 0.236245 2.27979 0
M  V30 1096 C 103.934 -0.585282 1.51915 0
M  V30 1097 O 105.123 -0.411705 1.73687 0
M  V30 1098 C 102.223 -0.685717 3.3189 0
M  V30 1099 C 101.396 0.0973448 4.37292 0
M  V30 1100 C 100.455 -0.748565 5.20848 0
M  V30 1101 O 99.4809 -0.186339 5.68895 0
M  V30 1102 N 100.683 -2.06527 5.42519 0
M  V30 1103 H 103.448 1.05088 2.80672 0
M  V30 1104 H 101.009 0.701667 1.45905 0
M  V30 1105 H 103.001 -1.25669 3.84694 0
M  V30 1106 H 101.571 -1.40105 2.79445 0
M  V30 1107 H 100.791 0.849706 3.84933 0
M  V30 1108 H 102.079 0.635643 5.04814 0
M  V30 1109 H 101.477 -2.54554 5.05192 0
M  V30 1110 H 100.034 -2.58464 5.98364 0
M  V30 1111 N 103.467 -1.45747 0.599634 0
M  V30 1112 C 104.4 -2.27547 -0.172552 0
M  V30 1113 C 105.378 -1.36657 -0.881116 0
M  V30 1114 O 106.562 -1.66081 -0.891595 0
M  V30 1115 C 103.689 -3.14829 -1.24903 0
M  V30 1116 C 102.735 -4.21603 -0.644465 0
M  V30 1117 S 103.568 -5.32754 0.541606 0
M  V30 1118 C 104.724 -6.23604 -0.535656 0
M  V30 1119 H 104.957 -2.92691 0.521468 0
M  V30 1120 H 102.49 -1.49473 0.386947 0
M  V30 1121 H 104.448 -3.65675 -1.86527 0
M  V30 1122 H 103.109 -2.48965 -1.91508 0
M  V30 1123 H 102.302 -4.82566 -1.45417 0
M  V30 1124 H 101.904 -3.73857 -0.103534 0
M  V30 1125 H 104.196 -6.62519 -1.41686 0
M  V30 1126 H 105.139 -7.0809 0.0376246 0
M  V30 1127 H 105.547 -5.58103 -0.84741 0
M  V30 1128 N 104.945 -0.338344 -1.53925 0
M  V30 1129 C 106.17 0.263987 -2.05713 0
M  V30 1130 C 106.595 1.43847 -1.21201 0
M  V30 1131 O 105.953 1.79904 -0.224535 0
M  V30 1132 C 106.001 0.662 -3.54471 0
M  V30 1133 O 105.105 1.76265 -3.72833 0
M  V30 1134 H 104.446 0.0448722 -0.662482 0
M  V30 1135 H 106.976 -0.491048 -1.9862 0
M  V30 1136 H 106.986 0.940594 -3.9701 0
M  V30 1137 H 105.661 -0.196937 -4.15433 0
M  V30 1138 H 104.238 1.48173 -3.42198 0
M  V30 1139 N 106.423 1.57458 -0.0668435 0
M  V30 1140 C 107.386 2.11323 0.887422 0
M  V30 1141 C 108.386 1.03618 1.22964 0
M  V30 1142 O 109.576 1.29626 1.16373 0
M  V30 1143 C 106.708 2.61048 2.19242 0
M  V30 1144 H 107.901 2.96942 0.420194 0
M  V30 1145 H 105.454 1.55239 0.181793 0
M  V30 1146 H 106.189 1.78868 2.70512 0
M  V30 1147 H 105.974 3.39769 1.95702 0
M  V30 1148 H 107.464 3.02814 2.87565 0
M  V30 1149 N 107.901 -0.206675 1.56239 0
M  V30 1150 C 109.129 -0.945345 1.8404 0
M  V30 1151 C 109.544 -1.77336 0.647885 0
M  V30 1152 O 108.901 -1.78425 -0.383511 0
M  V30 1153 C 108.952 -1.8509 3.10522 0
M  V30 1154 O 108.673 -1.05634 4.25174 0
M  V30 1155 C 110.174 -2.70222 3.51418 0
M  V30 1156 H 107.394 -0.276372 0.61144 0
M  V30 1157 H 109.938 -0.217417 2.03341 0
M  V30 1158 H 108.093 -2.53259 2.93153 0
M  V30 1159 H 108.507 -1.67238 4.97124 0
M  V30 1160 H 109.981 -3.29438 4.42916 0
M  V30 1161 H 110.458 -3.43358 2.73864 0
M  V30 1162 H 111.064 -2.07443 3.71278 0
M  V30 1163 N 109.379 -1.50304 -0.473955 0
M  V30 1164 C 110.342 -1.6841 -1.55469 0
M  V30 1165 C 111.342 -0.554905 -1.50922 0
M  V30 1166 O 112.532 -0.821882 -1.53593 0
M  V30 1167 C 109.664 -1.70667 -2.95102 0
M  V30 1168 H 110.857 -2.64828 -1.40733 0
M  V30 1169 H 108.41 -1.39742 -0.700132 0
M  V30 1170 H 109.145 -0.75932 -3.15285 0
M  V30 1171 H 108.93 -2.52698 -2.9981 0
M  V30 1172 H 110.42 -1.8664 -3.73571 0
M  V30 1173 N 110.857 0.726932 -1.39834 0
M  V30 1174 C 111.804 1.841 -1.39197 0
M  V30 1175 C 112.774 1.642 -0.250502 0
M  V30 1176 O 113.959 1.85494 -0.446846 0
M  V30 1177 C 111.099 3.21697 -1.24919 0
M  V30 1178 C 110.212 3.53247 -2.48678 0
M  V30 1179 C 109.347 4.80289 -2.26928 0
M  V30 1180 C 108.386 5.04707 -3.4632 0
M  V30 1181 N 107.523 6.22956 -3.23836 0
M  V30 1182 H 112.363 1.83979 -2.34427 0
M  V30 1183 H 109.9 0.898876 -1.16442 0
M  V30 1184 H 111.858 4.01137 -1.1465 0
M  V30 1185 H 110.488 3.21076 -0.333153 0
M  V30 1186 H 109.54 2.68447 -2.69519 0
M  V30 1187 H 110.852 3.67205 -3.37582 0
M  V30 1188 H 110.006 5.67725 -2.13947 0
M  V30 1189 H 108.745 4.68519 -1.35431 0
M  V30 1190 H 107.75 4.1573 -3.5979 0
M  V30 1191 H 108.975 5.18357 -4.38729 0
M  V30 1192 H 106.921 6.12459 -2.35011 0
M  V30 1193 H 106.838 6.37539 -4.063 0
M  V30 1194 H 108.106 7.1321 -3.14566 0
M  V30 1195 N 112.336 1.25143 0.95797 0
M  V30 1196 C 113.584 1.09476 1.69881 0
M  V30 1197 C 113.905 -0.365502 1.91544 0
M  V30 1198 O 113.175 -1.25985 1.50015 0
M  V30 1199 H 111.755 0.402128 0.629525 0
M  V30 1200 H 114.417 1.57214 1.15194 0
M  V30 1201 H 113.513 1.60046 2.6794 0
M  V30 1202 N 113.814 -1.1601 1.06675 0
M  V30 1203 C 115.23 -1.38622 0.790948 0
M  V30 1204 C 115.43 -1.92109 -0.607965 0
M  V30 1205 O 114.486 -2.12239 -1.36787 0
M  V30 1206 C 115.799 -2.36347 1.85905 0
M  V30 1207 C 117.347 -2.50023 1.88301 0
M  V30 1208 C 117.822 -3.51033 2.94176 0
M  V30 1209 N 119.313 -3.58563 2.93235 0
M  V30 1210 C 120.048 -4.36521 3.71803 0
M  V30 1211 N 119.544 -5.17869 4.602 0
M  V30 1212 N 121.337 -4.31541 3.60178 0
M  V30 1213 H 113.488 -0.796294 1.96908 0
M  V30 1214 H 115.751 -0.412597 0.853503 0
M  V30 1215 H 115.457 -2.04147 2.86386 0
M  V30 1216 H 115.331 -3.36042 1.71334 0
M  V30 1217 H 117.718 -2.81524 0.884769 0
M  V30 1218 H 117.799 -1.5035 2.06951 0
M  V30 1219 H 117.443 -3.20268 3.94196 0
M  V30 1220 H 117.373 -4.50445 2.72776 0
M  V30 1221 H 119.864 -3.00496 2.29152 0
M  V30 1222 H 120.177 -5.74578 5.16797 0
M  V30 1223 H 118.522 -5.17199 4.64253 0
M  V30 1224 H 121.713 -3.67051 2.90502 0
M  V30 1225 H 121.886 -4.9205 4.21653 0
M  V30 1226 N 115.292 -0.849877 -1.32721 0
M  V30 1227 C 116.538 -0.451591 -1.97708 0
M  V30 1228 C 116.871 0.989175 -1.6712 0
M  V30 1229 O 116.146 1.69334 -0.956891 0
M  V30 1230 C 116.429 -0.685598 -3.53513 0
M  V30 1231 C 116.282 -2.17444 -3.93749 0
M  V30 1232 C 117.601 -0.138874 -4.39881 0
M  V30 1233 H 114.72 -0.16555 -0.718166 0
M  V30 1234 H 117.362 -1.06742 -1.57182 0
M  V30 1235 H 115.512 -0.161416 -3.88165 0
M  V30 1236 H 117.184 -2.76433 -3.693 0
M  V30 1237 H 115.427 -2.65476 -3.43081 0
M  V30 1238 H 116.098 -2.28888 -5.02309 0
M  V30 1239 H 118.574 -0.587068 -4.11938 0
M  V30 1240 H 117.45 -0.332213 -5.47894 0
M  V30 1241 H 117.711 0.95806 -4.31594 0
M  V30 1242 N 116.77 1.45427 -0.607355 0
M  V30 1243 C 118.186 1.57283 -0.270985 0
M  V30 1244 C 118.386 1.59875 1.22647 0
M  V30 1245 O 117.442 1.52893 2.00948 0
M  V30 1246 C 118.755 2.85566 -0.941952 0
M  V30 1247 C 120.303 2.9924 -0.917849 0
M  V30 1248 C 120.778 4.30293 -1.56882 0
M  V30 1249 N 122.269 4.37051 -1.5343 0
M  V30 1250 C 123.004 5.37123 -2.00715 0
M  V30 1251 N 122.5 6.43734 -2.56084 0
M  V30 1252 N 124.293 5.28479 -1.91484 0
M  V30 1253 H 116.444 1.41988 -1.57966 0
M  V30 1254 H 118.707 0.67885 -0.661715 0
M  V30 1255 H 118.413 2.8955 -1.99633 0
M  V30 1256 H 118.287 3.74322 -0.465096 0
M  V30 1257 H 120.674 2.94822 0.127984 0
M  V30 1258 H 120.755 2.11895 -1.43297 0
M  V30 1259 H 120.399 4.35469 -2.61398 0
M  V30 1260 H 120.329 5.16454 -1.02873 0
M  V30 1261 H 122.82 3.60615 -1.12982 0
M  V30 1262 H 123.133 7.16341 -2.89958 0
M  V30 1263 H 121.478 6.44485 -2.60122 0
M  V30 1264 H 124.669 4.44098 -1.47967 0
M  V30 1265 H 124.842 6.0632 -2.28648 0
M  V30 1266 N 118.248 0.346503 1.53744 0
M  V30 1267 C 119.178 -0.501193 2.28058 0
M  V30 1268 C 120.159 -1.10014 1.29734 0
M  V30 1269 O 121.344 -1.12097 1.58581 0
M  V30 1270 C 118.474 -1.65078 3.05559 0
M  V30 1271 C 117.428 -1.18003 4.11411 0
M  V30 1272 C 116.754 -2.41837 4.76884 0
M  V30 1273 C 118.054 -0.278394 5.21558 0
M  V30 1274 H 119.748 0.11875 2.99164 0
M  V30 1275 H 117.294 0.0585531 1.43881 0
M  V30 1276 H 119.247 -2.25028 3.56287 0
M  V30 1277 H 117.971 -2.29767 2.32109 0
M  V30 1278 H 116.63 -0.603331 3.61601 0
M  V30 1279 H 116.278 -3.0494 4.00026 0
M  V30 1280 H 115.978 -2.1102 5.48402 0
M  V30 1281 H 117.502 -3.02508 5.30397 0
M  V30 1282 H 118.916 -0.784823 5.67903 0
M  V30 1283 H 117.313 -0.0619707 6.00068 0
M  V30 1284 H 118.383 0.684677 4.80042 0
M  V30 1285 N 119.726 -1.57421 0.075193 0
M  V30 1286 C 120.656 -2.15942 -0.888324 0
M  V30 1287 C 121.637 -1.08737 -1.30806 0
M  V30 1288 O 122.822 -1.36787 -1.37851 0
M  V30 1289 C 119.952 -2.72379 -2.1547 0
M  V30 1290 C 118.906 -3.8478 -1.87425 0
M  V30 1291 C 118.232 -4.27834 -3.20721 0
M  V30 1292 C 119.532 -5.08869 -1.17684 0
M  V30 1293 H 121.226 -2.96705 -0.400799 0
M  V30 1294 H 118.772 -1.42723 -0.191342 0
M  V30 1295 H 120.725 -3.11965 -2.83295 0
M  V30 1296 H 119.449 -1.88841 -2.6647 0
M  V30 1297 H 118.108 -3.45703 -1.22004 0
M  V30 1298 H 117.756 -3.41214 -3.6957 0
M  V30 1299 H 117.456 -5.03605 -3.02746 0
M  V30 1300 H 118.98 -4.70039 -3.89738 0
M  V30 1301 H 120.394 -5.4575 -1.75584 0
M  V30 1302 H 118.791 -5.8994 -1.09956 0
M  V30 1303 H 119.861 -4.84648 -0.156453 0
M  V30 1304 N 121.204 0.198386 -1.56346 0
M  V30 1305 C 122.152 1.26538 -1.95169 0
M  V30 1306 C 123.146 1.47295 -0.836685 0
M  V30 1307 O 124.352 1.48195 -1.02167 0
M  V30 1308 H 120.727 0.424744 -0.620561 0
M  V30 1309 H 122.698 0.910904 -2.84157 0
M  V30 1310 C 121.447 2.6035 -2.30463 0
M  V30 1311 H 120.77 2.45192 -3.15786 0
M  V30 1312 H 122.21 3.33762 -2.61494 0
M  V30 1313 C 120.669 3.17096 -1.13806 0
M  V30 1314 O 121.199 3.99588 -0.41135 0
M  V30 1315 N 119.405 2.75795 -0.915736 0
M  V30 1316 H 118.952 2.08816 -1.50843 0
M  V30 1317 H 118.91 3.14101 -0.136979 0
M  V30 1318 N 122.682 1.50554 0.465978 0
M  V30 1319 C 123.63 1.70324 1.58406 0
M  V30 1320 C 124.624 0.569139 1.59553 0
M  V30 1321 O 125.83 0.749776 1.63641 0
M  V30 1322 H 122.205 0.537688 0.525734 0
M  V30 1323 H 124.176 2.64104 1.38894 0
M  V30 1324 C 122.925 1.81928 2.96307 0
M  V30 1325 H 122.248 2.68586 2.96144 0
M  V30 1326 H 123.688 1.99784 3.73982 0
M  V30 1327 C 122.147 0.572095 3.32007 0
M  V30 1328 O 122.677 -0.286416 4.00678 0
M  V30 1329 N 120.883 0.424606 2.87481 0
M  V30 1330 H 120.43 1.12427 2.31771 0
M  V30 1331 H 120.388 -0.408697 3.11732 0
M  V30 1332 N 124.16 -0.719506 1.40217 0
M  V30 1333 C 125.406 -1.48034 1.39491 0
M  V30 1334 C 125.761 -1.92399 -0.00443536 0
M  V30 1335 O 125.054 -1.64993 -0.974061 0
M  V30 1336 C 125.248 -2.72271 2.31524 0
M  V30 1337 C 125.077 -2.40055 3.80268 0
M  V30 1338 C 123.847 -2.31588 4.49105 0
M  V30 1339 C 126.045 -2.04581 4.71859 0
M  V30 1340 N 124.027 -1.92006 5.83101 0
M  V30 1341 C 125.398 -1.75568 5.94623 0
M  V30 1342 C 127.453 -1.91183 4.59732 0
M  V30 1343 C 126.156 -1.34505 7.06612 0
M  V30 1344 C 128.182 -1.51524 5.71659 0
M  V30 1345 C 127.544 -1.23406 6.93506 0
M  V30 1346 H 123.643 -0.539927 0.565688 0
M  V30 1347 H 126.227 -0.834764 1.75897 0
M  V30 1348 H 124.398 -3.34584 1.97251 0
M  V30 1349 H 126.13 -3.38584 2.21682 0
M  V30 1350 H 122.885 -2.49199 4.02737 0
M  V30 1351 H 123.309 -1.74764 6.54054 0
M  V30 1352 H 127.951 -2.11584 3.66049 0
M  V30 1353 H 125.669 -1.12846 8.00182 0
M  V30 1354 H 129.255 -1.41741 5.6427 0
M  V30 1355 H 128.135 -0.931788 7.78645 0
M  V30 1356 N 125.638 -1.25649 -0.95132 0
M  V30 1357 C 126.915 -1.01361 -1.67288 0
M  V30 1358 C 127.295 0.459135 -2.06046 0
M  V30 1359 O 126.643 1.43723 -1.7764 0
M  V30 1360 C 126.853 -1.95256 -2.89268 0
M  V30 1361 C 128.201 -2.23289 -3.61147 0
M  V30 1362 O 129.225 -1.93041 -2.99355 0
M  V30 1363 O 128.084 -2.74741 -4.72419 0
M  V30 1364 H 125.178 -0.38464 -0.732107 0
M  V30 1365 H 127.724 -1.36817 -1.00395 0
M  V30 1366 H 126.496 -2.94685 -2.57442 0
M  V30 1367 H 126.119 -1.60218 -3.6389 0
M  V30 1368 N 127.117 1.15442 -1.07289 0
M  V30 1369 C 128.363 1.86489 -0.796846 0
M  V30 1370 C 128.696 1.82078 0.675371 0
M  V30 1371 O 127.971 1.24346 1.4956 0
M  V30 1372 C 128.254 3.35626 -1.30489 0
M  V30 1373 C 128.107 3.48673 -2.84161 0
M  V30 1374 C 129.426 4.30357 -0.920907 0
M  V30 1375 H 126.545 0.677144 -0.290939 0
M  V30 1376 H 129.187 1.35633 -1.33056 0
M  V30 1377 H 127.337 3.79068 -0.850883 0
M  V30 1378 H 129.009 3.14099 -3.37846 0
M  V30 1379 H 127.252 2.90253 -3.22391 0
M  V30 1380 H 127.923 4.53453 -3.14777 0
M  V30 1381 H 130.399 3.94871 -1.3121 0
M  V30 1382 H 129.275 5.33193 -1.30372 0
M  V30 1383 H 129.536 4.4176 0.173226 0
M  V30 1384 N 128.595 0.856903 1.32268 0
M  V30 1385 C 129.835 0.467705 1.98977 0
M  V30 1386 C 130.199 -0.959231 1.66321 0
M  V30 1387 O 131.4 -1.4531 2.26138 0
M  V30 1388 C 129.671 0.70256 3.50427 0
M  V30 1389 S 131.23 0.411269 4.36868 0
M  V30 1390 H 128.048 0.175121 0.689096 0
M  V30 1391 H 130.65 1.1101 1.60925 0
M  V30 1392 H 129.354 1.74012 3.71683 0
M  V30 1393 H 128.885 0.0466707 3.93372 0
M  V30 1394 H 130.9 -0.761799 4.90317 0
M  V30 1395 N 130.073 -1.45103 0.615059 0
M  V30 1396 C 131.036 -2.29025 -0.0895485 0
M  V30 1397 C 132.036 -1.40174 -0.787906 0
M  V30 1398 O 133.226 -1.62217 -0.634933 0
M  V30 1399 C 130.358 -3.21376 -1.13711 0
M  V30 1400 H 131.551 -2.92807 0.648382 0
M  V30 1401 H 129.104 -1.51749 0.374444 0
M  V30 1402 H 129.839 -2.6241 -1.90556 0
M  V30 1403 H 129.624 -3.86834 -0.640475 0
M  V30 1404 H 131.114 -3.84459 -1.63036 0
M  V30 1405 N 131.551 -0.354651 -1.53558 0
M  V30 1406 C 132.828 0.294281 -1.93374 0
M  V30 1407 C 133.208 1.67313 -1.28723 0
M  V30 1408 O 132.556 2.24179 -0.442247 0
M  V30 1409 C 132.766 0.355445 -3.47185 0
M  V30 1410 C 134.114 0.601007 -4.20325 0
M  V30 1411 O 135.138 0.437106 -3.53508 0
M  V30 1412 O 133.997 0.919322 -5.38712 0
M  V30 1413 H 131.091 0.174033 -0.808481 0
M  V30 1414 H 133.637 -0.406638 -1.64756 0
M  V30 1415 H 132.409 -0.611729 -3.86489 0
M  V30 1416 H 132.032 1.1027 -3.82003 0
M  V30 1417 N 133.029 1.57378 -0.0835403 0
M  V30 1418 C 133.962 2.09016 0.915833 0
M  V30 1419 C 134.94 0.997993 1.2837 0
M  V30 1420 O 136.124 1.27219 1.39096 0
M  V30 1421 C 133.251 2.55757 2.22049 0
M  V30 1422 C 132.297 3.76522 2.00333 0
M  V30 1423 S 133.13 5.20661 1.25191 0
M  V30 1424 C 134.286 5.70743 2.56912 0
M  V30 1425 H 134.519 2.93457 0.476492 0
M  V30 1426 H 132.052 1.53856 0.129493 0
M  V30 1427 H 134.01 2.83346 2.97027 0
M  V30 1428 H 132.671 1.71564 2.63106 0
M  V30 1429 H 131.864 4.07256 2.96916 0
M  V30 1430 H 131.466 3.49367 1.33488 0
M  V30 1431 H 133.758 5.78304 3.52946 0
M  V30 1432 H 134.701 6.6944 2.30772 0
M  V30 1433 H 135.109 4.98616 2.64655 0
M  V30 1434 N 134.507 -0.190092 1.56449 0
M  V30 1435 C 135.753 -0.911052 1.81184 0
M  V30 1436 C 136.086 -1.82699 0.658396 0
M  V30 1437 O 135.361 -1.91491 -0.340775 0
M  V30 1438 C 135.644 -1.72297 3.16205 0
M  V30 1439 C 135.497 -0.831419 4.42049 0
M  V30 1440 C 136.816 -2.69454 3.47969 0
M  V30 1441 H 133.935 -0.32977 0.659106 0
M  V30 1442 H 136.577 -0.178169 1.89163 0
M  V30 1443 H 134.727 -2.34778 3.09534 0
M  V30 1444 H 136.399 -0.220929 4.60771 0
M  V30 1445 H 134.642 -0.138406 4.33579 0
M  V30 1446 H 135.313 -1.43461 5.33032 0
M  V30 1447 H 137.789 -2.17104 3.54972 0
M  V30 1448 H 136.665 -3.23342 4.43555 0
M  V30 1449 H 136.926 -3.48744 2.71717 0
M  V30 1450 N 135.985 -1.50799 -0.457987 0
M  V30 1451 C 137.233 -1.62121 -1.2067 0
M  V30 1452 C 137.554 -0.329793 -1.92191 0
M  V30 1453 O 136.824 0.653409 -1.84682 0
M  V30 1454 H 135.404 -0.597441 -0.448411 0
M  V30 1455 H 138.066 -1.87637 -0.527096 0
M  V30 1456 H 137.162 -2.43882 -1.94751 0
M  V30 1457 N 137.463 0.71206 -1.40597 0
M  V30 1458 C 138.691 1.50111 -1.42388 0
M  V30 1459 C 139.106 1.88784 -0.0245395 0
M  V30 1460 O 138.463 1.55681 0.952351 0
M  V30 1461 C 138.514 2.7742 -2.31776 0
M  V30 1462 O 138.235 2.40382 -3.66262 0
M  V30 1463 C 139.736 3.7129 -2.42196 0
M  V30 1464 H 136.956 0.46314 -0.485533 0
M  V30 1465 H 139.5 0.878068 -1.8469 0
M  V30 1466 H 137.655 3.36001 -1.92827 0
M  V30 1467 H 138.069 3.22324 -4.13772 0
M  V30 1468 H 139.543 4.57448 -3.08943 0
M  V30 1469 H 140.02 4.14641 -1.44809 0
M  V30 1470 H 140.626 3.18619 -2.81712 0
M  V30 1471 N 138.941 1.26152 0.944643 0
M  V30 1472 C 140.188 1.11492 1.69044 0
M  V30 1473 C 140.516 -0.342366 1.91463 0
M  V30 1474 O 139.771 -1.26812 1.49054 0
M  V30 1475 C 140.07 1.82541 3.07268 0
M  V30 1476 C 139.736 3.32445 3.04616 0
M  V30 1477 C 138.398 3.73337 3.036 0
M  V30 1478 C 140.75 4.28171 2.97185 0
M  V30 1479 C 138.078 5.08348 2.92915 0
M  V30 1480 C 140.43 5.63218 2.88041 0
M  V30 1481 C 139.094 6.03426 2.85366 0
M  V30 1482 H 138.364 0.407977 0.618576 0
M  V30 1483 H 141.011 1.56551 1.10291 0
M  V30 1484 H 139.316 1.29941 3.69625 0
M  V30 1485 H 141.013 1.68642 3.63815 0
M  V30 1486 H 137.603 2.99915 3.06185 0
M  V30 1487 H 141.787 3.97563 2.97081 0
M  V30 1488 H 137.043 5.38667 2.89219 0
M  V30 1489 H 141.217 6.37078 2.81254 0
M  V30 1490 H 138.844 7.07999 2.76842 0
M  V30 1491 N 140.419 -1.14872 1.07899 0
M  V30 1492 C 141.647 -1.89661 0.82683 0
M  V30 1493 C 142.062 -1.78312 -0.620519 0
M  V30 1494 O 141.419 -1.13888 -1.42604 0
M  V30 1495 C 141.47 -3.39817 1.23316 0
M  V30 1496 O 141.191 -3.50845 2.62372 0
M  V30 1497 C 142.692 -4.31615 1.0111 0
M  V30 1498 H 139.912 -0.60092 0.298557 0
M  V30 1499 H 142.456 -1.4551 1.43691 0
M  V30 1500 H 140.611 -3.8161 0.667286 0
M  V30 1501 H 141.025 -4.44076 2.79101 0
M  V30 1502 H 142.499 -5.35367 1.34486 0
M  V30 1503 H 142.976 -4.39169 -0.0522168 0
M  V30 1504 H 143.582 -3.95572 1.56215 0
M  V30 1505 N 141.898 -0.863906 -1.31812 0
M  V30 1506 C 143.175 -0.39275 -1.91616 0
M  V30 1507 C 143.555 1.12461 -1.7865 0
M  V30 1508 O 142.903 1.95045 -1.19037 0
M  V30 1509 C 143.113 -0.867385 -3.38049 0
M  V30 1510 C 144.461 -0.889966 -4.15168 0
M  V30 1511 O 145.485 -0.812635 -3.46806 0
M  V30 1512 O 144.344 -1.00079 -5.37258 0
M  V30 1513 H 141.438 -0.116358 -0.818773 0
M  V30 1514 H 143.984 -0.951418 -1.40521 0
M  V30 1515 H 142.756 -1.91081 -3.41473 0
M  V30 1516 H 142.379 -0.286687 -3.96565 0
M  V30 1517 N 143.376 1.44774 -0.622745 0
M  V30 1518 C 144.604 2.06487 -0.130722 0
M  V30 1519 C 145.019 1.46476 1.19123 0
M  V30 1520 O 144.376 0.584502 1.72887 0
M  V30 1521 C 144.427 3.615 -0.000807207 0
M  V30 1522 O 144.148 4.19274 -1.27048 0
M  V30 1523 C 145.649 4.40229 0.520898 0
M  V30 1524 H 142.869 0.666704 -0.0758106 0
M  V30 1525 H 145.413 1.85779 -0.854774 0
M  V30 1526 H 143.568 3.81498 0.673643 0
M  V30 1527 H 143.982 5.12622 -1.1099 0
M  V30 1528 H 145.456 5.49144 0.560838 0
M  V30 1529 H 145.933 4.1108 1.54627 0
M  V30 1530 H 146.539 4.25131 -0.120018 0
M  V30 1531 N 144.854 0.36279 1.53368 0
M  V30 1532 C 145.764 -0.492994 2.29362 0
M  V30 1533 C 146.78 -1.09507 1.35219 0
M  V30 1534 O 147.956 -1.10662 1.68273 0
M  V30 1535 C 145.021 -1.61855 3.066 0
M  V30 1536 C 144.082 -1.04429 4.16405 0
M  V30 1537 C 143.315 -2.11621 4.89951 0
M  V30 1538 O 143.538 -3.32684 4.63333 0
M  V30 1539 O 142.472 -1.74835 5.75948 0
M  V30 1540 H 146.298 0.125331 3.03441 0
M  V30 1541 H 143.883 0.127253 1.48857 0
M  V30 1542 H 145.765 -2.27302 3.54841 0
M  V30 1543 H 144.44 -2.22233 2.3536 0
M  V30 1544 H 143.347 -0.353819 3.72423 0
M  V30 1545 H 144.68 -0.485113 4.89804 0
M  V30 1546 N 146.332 -1.57332 0.0918853 0
M  V30 1547 C 147.609 -1.85691 -0.614668 0
M  V30 1548 C 147.989 -0.988146 -1.86545 0
M  V30 1549 O 147.337 -0.0597055 -2.28422 0
M  V30 1550 C 147.547 -3.36294 -0.933126 0
M  V30 1551 C 148.895 -4.04275 -1.29796 0
M  V30 1552 O 149.919 -3.41157 -1.02424 0
M  V30 1553 O 148.778 -5.1564 -1.81047 0
M  V30 1554 H 145.872 -0.767802 -0.307261 0
M  V30 1555 H 148.418 -1.69244 0.12434 0
M  V30 1556 H 147.19 -3.91273 -0.0456404 0
M  V30 1557 H 146.813 -3.58076 -1.72822 0
M  V30 1558 N 147.81 0.181792 -1.56548 0
M  V30 1559 C 149.221 0.745244 -1.71181 0
M  V30 1560 C 149.572 1.83262 -0.70068 0
M  V30 1561 O 148.697 2.15946 0.140154 0
M  V30 1562 C 149.292 1.35859 -3.10367 0
M  V30 1563 C 147.851 1.86898 -3.2672 0
M  V30 1564 C 146.998 0.743942 -2.67134 0
M  V30 1565 H 149.949 -0.0434661 -1.5864 0
M  V30 1566 H 149.97 2.22817 -3.08436 0
M  V30 1567 H 149.482 0.566948 -3.83937 0
M  V30 1568 H 147.583 2.68738 -2.5809 0
M  V30 1569 H 147.696 2.02162 -4.34359 0
M  V30 1570 H 146.06 1.16169 -2.26665 0
M  V30 1571 H 146.843 -0.035676 -3.43281 0
M  V30 1572 N 149.288 1.51039 0.449983 0
M  V30 1573 C 150.251 1.70863 1.5277 0
M  V30 1574 C 151.251 0.578846 1.5002 0
M  V30 1575 O 152.441 0.846213 1.52266 0
M  V30 1576 C 149.573 1.75341 2.9235 0
M  V30 1577 H 150.766 2.67034 1.36502 0
M  V30 1578 H 148.319 1.40838 0.677812 0
M  V30 1579 H 149.054 0.809383 3.14037 0
M  V30 1580 H 148.839 2.57436 2.95752 0
M  V30 1581 H 150.329 1.92559 3.70555 0
M  V30 1582 N 150.766 -0.704594 1.40972 0
M  V30 1583 C 151.713 -1.81862 1.42109 0
M  V30 1584 C 152.683 -1.63781 0.276593 0
M  V30 1585 O 153.868 -1.84759 0.4763 0
M  V30 1586 C 151.008 -3.19669 1.30022 0
M  V30 1587 C 150.121 -3.49246 2.54267 0
M  V30 1588 C 149.256 -4.76618 2.3454 0
M  V30 1589 C 148.295 -4.99133 3.54306 0
M  V30 1590 N 147.432 -6.17726 3.33706 0
M  V30 1591 H 152.272 -1.80226 2.37324 0
M  V30 1592 H 149.809 -0.880238 1.17857 0
M  V30 1593 H 151.767 -3.99263 1.21018 0
M  V30 1594 H 150.397 -3.20506 0.384192 0
M  V30 1595 H 149.449 -2.64125 2.73756 0
M  V30 1596 H 150.761 -3.61788 3.43381 0
M  V30 1597 H 149.915 -5.64249 2.22952 0
M  V30 1598 H 148.654 -4.66305 1.42867 0
M  V30 1599 H 147.659 -4.09953 3.66359 0
M  V30 1600 H 148.884 -5.11311 4.4692 0
M  V30 1601 H 146.83 -6.08642 2.44725 0
M  V30 1602 H 146.747 -6.30995 4.16391 0
M  V30 1603 H 148.015 -7.08115 3.25873 0
M  V30 1604 N 152.244 -1.26651 -0.937939 0
M  V30 1605 C 153.491 -1.12387 -1.6845 0
M  V30 1606 C 153.819 0.332208 -1.91642 0
M  V30 1607 O 153.074 1.2602 -1.49725 0
M  V30 1608 C 153.373 -1.84168 -3.06295 0
M  V30 1609 C 153.039 -3.34056 -3.02849 0
M  V30 1610 C 151.701 -3.74942 -3.01616 0
M  V30 1611 C 154.053 -4.29741 -2.9491 0
M  V30 1612 C 151.381 -5.09894 -2.90215 0
M  V30 1613 C 153.733 -5.64738 -2.8505 0
M  V30 1614 C 152.397 -6.0493 -2.82162 0
M  V30 1615 H 151.667 -0.411252 -0.616403 0
M  V30 1616 H 154.314 -1.57134 -1.09459 0
M  V30 1617 H 152.619 -1.319 -3.6893 0
M  V30 1618 H 154.316 -1.70569 -3.62915 0
M  V30 1619 H 150.906 -3.01534 -3.0459 0
M  V30 1620 H 155.09 -3.99133 -2.94969 0
M  V30 1621 H 150.346 -5.40194 -2.86358 0
M  V30 1622 H 154.52 -6.38561 -2.77872 0
M  V30 1623 H 152.147 -7.09457 -2.73084 0
M  V30 1624 N 153.722 1.14298 -1.08507 0
M  V30 1625 C 154.669 2.19414 -0.715965 0
M  V30 1626 C 155.639 1.63399 0.298326 0
M  V30 1627 O 156.824 1.89929 0.182101 0
M  V30 1628 C 153.964 3.44845 -0.132534 0
M  V30 1629 C 153.077 4.15007 -1.19973 0
M  V30 1630 C 152.212 5.28024 -0.580048 0
M  V30 1631 C 151.251 5.9002 -1.62921 0
M  V30 1632 N 150.388 6.94485 -1.03125 0
M  V30 1633 H 155.228 2.50336 -1.61666 0
M  V30 1634 H 152.765 1.2293 -0.807882 0
M  V30 1635 H 154.723 4.16601 0.223454 0
M  V30 1636 H 153.353 3.14403 0.731467 0
M  V30 1637 H 152.405 3.41629 -1.67313 0
M  V30 1638 H 153.717 4.57178 -1.99473 0
M  V30 1639 H 152.871 6.06455 -0.172364 0
M  V30 1640 H 151.61 4.87076 0.246603 0
M  V30 1641 H 150.615 5.10291 -2.04654 0
M  V30 1642 H 151.84 6.33042 -2.45835 0
M  V30 1643 H 149.786 6.55612 -0.225711 0
M  V30 1644 H 149.703 7.35148 -1.76334 0
M  V30 1645 H 150.971 7.7679 -0.649458 0
M  V30 1646 N 155.201 0.870884 1.31352 0
M  V30 1647 C 156.134 0.271983 2.26573 0
M  V30 1648 C 157.112 -0.599385 1.51149 0
M  V30 1649 O 158.296 -0.552605 1.80218 0
M  V30 1650 C 155.423 -0.614801 3.33073 0
M  V30 1651 C 154.469 0.185342 4.26097 0
M  V30 1652 S 155.302 1.56444 5.12138 0
M  V30 1653 C 156.458 0.683807 6.22153 0
M  V30 1654 H 156.691 1.07916 2.77023 0
M  V30 1655 H 154.224 0.669459 1.39132 0
M  V30 1656 H 156.182 -1.12074 3.94905 0
M  V30 1657 H 154.843 -1.39593 2.81376 0
M  V30 1658 H 154.036 -0.490771 5.01605 0
M  V30 1659 H 153.638 0.623415 3.68768 0
M  V30 1660 H 155.93 -0.10521 6.77418 0
M  V30 1661 H 156.873 1.41004 6.93919 0
M  V30 1662 H 157.281 0.250952 5.63942 0
M  V30 1663 N 156.679 -1.44442 0.630414 0
M  V30 1664 C 157.626 -2.30678 -0.0749355 0
M  V30 1665 C 158.596 -1.4344 -0.837502 0
M  V30 1666 O 159.781 -1.72343 -0.818684 0
M  V30 1667 C 156.921 -3.28706 -1.05103 0
M  V30 1668 C 156.034 -4.31046 -0.286954 0
M  V30 1669 C 155.169 -5.16167 -1.2548 0
M  V30 1670 C 154.208 -6.10216 -0.479843 0
M  V30 1671 N 153.345 -6.88039 -1.39811 0
M  V30 1672 H 158.185 -2.90454 0.666386 0
M  V30 1673 H 155.722 -1.43107 0.340404 0
M  V30 1674 H 157.68 -3.84027 -1.63031 0
M  V30 1675 H 156.31 -2.70632 -1.75949 0
M  V30 1676 H 155.362 -3.78203 0.408243 0
M  V30 1677 H 156.674 -4.97794 0.316657 0
M  V30 1678 H 155.828 -5.76002 -1.90544 0
M  V30 1679 H 154.567 -4.49491 -1.89233 0
M  V30 1680 H 153.572 -5.49491 0.184295 0
M  V30 1681 H 154.797 -6.78928 0.152965 0
M  V30 1682 H 152.743 -6.24032 -2.02287 0
M  V30 1683 H 152.66 -7.51223 -0.848508 0
M  V30 1684 H 153.928 -7.52397 -2.03762 0
M  V30 1685 N 158.157 -0.370918 -1.53173 0
M  V30 1686 C 159.387 0.217389 -2.05453 0
M  V30 1687 C 159.795 1.42568 -1.24382 0
M  V30 1688 O 159.138 1.81571 -0.278839 0
M  V30 1689 C 159.2 0.669827 -3.53205 0
M  V30 1690 C 158.864 -0.4225 -4.55043 0
M  V30 1691 C 159.861 -1.27407 -5.04047 0
M  V30 1692 C 157.546 -0.58427 -4.9889 0
M  V30 1693 C 159.54 -2.27271 -5.95505 0
M  V30 1694 C 157.227 -1.58627 -5.90153 0
M  V30 1695 C 158.225 -2.42892 -6.38351 0
M  V30 1696 O 157.913 -3.41382 -7.27814 0
M  V30 1697 H 157.645 0.0408171 -0.674767 0
M  V30 1698 H 160.199 -0.5292 -1.98466 0
M  V30 1699 H 158.429 1.4681 -3.57748 0
M  V30 1700 H 160.118 1.18173 -3.88317 0
M  V30 1701 H 160.884 -1.16031 -4.70916 0
M  V30 1702 H 156.763 0.061851 -4.60959 0
M  V30 1703 H 160.307 -2.93079 -6.33049 0
M  V30 1704 H 156.204 -1.70048 -6.22699 0
M  V30 1705 H 156.972 -3.37173 -7.45826 0
M  V30 1706 N 159.635 1.57281 -0.100228 0
M  V30 1707 C 160.881 1.95626 0.556946 0
M  V30 1708 C 161.236 0.981655 1.65473 0
M  V30 1709 O 160.529 0.00849847 1.91598 0
M  V30 1710 C 160.723 3.38305 1.15259 0
M  V30 1711 C 160.552 4.49555 0.114035 0
M  V30 1712 C 159.322 5.0434 -0.311266 0
M  V30 1713 C 161.52 5.10051 -0.659768 0
M  V30 1714 N 159.502 5.99152 -1.33755 0
M  V30 1715 C 160.873 6.00628 -1.53774 0
M  V30 1716 C 162.928 4.92772 -0.712723 0
M  V30 1717 C 161.631 6.7578 -2.46403 0
M  V30 1718 C 163.657 5.6859 -1.62663 0
M  V30 1719 C 163.019 6.58838 -2.49222 0
M  V30 1720 H 159.118 0.7624 0.173982 0
M  V30 1721 H 161.702 1.93829 -0.183988 0
M  V30 1722 H 159.873 3.40786 1.86332 0
M  V30 1723 H 161.605 3.63817 1.77254 0
M  V30 1724 H 158.36 4.73537 0.0774812 0
M  V30 1725 H 158.784 6.5126 -1.84905 0
M  V30 1726 H 163.426 4.22761 -0.0576648 0
M  V30 1727 H 161.144 7.4505 -3.12931 0
M  V30 1728 H 164.73 5.57233 -1.67281 0
M  V30 1729 H 163.61 7.16479 -3.18791 0
M  V30 1730 N 161.113 -0.173488 1.56642 0
M  V30 1731 C 162.361 -0.888706 1.81512 0
M  V30 1732 C 162.682 -1.82875 0.676872 0
M  V30 1733 O 161.952 -1.93536 -0.303414 0
M  V30 1734 H 160.532 -0.331164 0.669582 0
M  V30 1735 H 163.194 -0.173823 1.94123 0
M  V30 1736 H 162.29 -1.46691 2.75478 0
M  V30 1737 N 162.591 -1.51276 -0.441967 0
M  V30 1738 C 163.837 -1.63958 -1.19355 0
M  V30 1739 C 164.17 -0.352543 -1.90973 0
M  V30 1740 O 163.445 0.647627 -1.83401 0
M  V30 1741 C 163.728 -2.83979 -2.21422 0
M  V30 1742 C 163.581 -4.22646 -1.53918 0
M  V30 1743 C 164.9 -2.99521 -3.22451 0
M  V30 1744 H 162.019 -0.596709 -0.432559 0
M  V30 1745 H 164.661 -1.83748 -0.483398 0
M  V30 1746 H 162.811 -2.67237 -2.81987 0
M  V30 1747 H 164.483 -4.51045 -0.967256 0
M  V30 1748 H 162.726 -4.25558 -0.841615 0
M  V30 1749 H 163.397 -5.02609 -2.28229 0
M  V30 1750 H 165.873 -3.14944 -2.71937 0
M  V30 1751 H 164.749 -3.85072 -3.91166 0
M  V30 1752 H 165.01 -2.11391 -3.88287 0
M  V30 1753 N 164.069 0.697108 -1.41344 0
M  V30 1754 C 165.032 1.79281 -1.42797 0
M  V30 1755 C 166.032 1.57607 -0.318837 0
M  V30 1756 O 167.222 1.64309 -0.578642 0
M  V30 1757 C 164.354 3.17632 -1.23785 0
M  V30 1758 H 165.547 1.79385 -2.40335 0
M  V30 1759 H 163.1 0.904582 -1.27464 0
M  V30 1760 H 163.835 3.23167 -0.270814 0
M  V30 1761 H 163.62 3.34765 -2.04144 0
M  V30 1762 H 165.11 3.97617 -1.27633 0
M  V30 1763 N 165.547 1.27147 0.931209 0
M  V30 1764 C 166.772 1.16191 1.71797 0
M  V30 1765 C 167.197 -0.278004 1.86034 0
M  V30 1766 O 166.555 -1.20137 1.35782 0
M  V30 1767 C 166.603 1.84673 3.09723 0
M  V30 1768 O 165.707 1.14231 3.96264 0
M  V30 1769 H 165.048 0.404303 0.526721 0
M  V30 1770 H 167.578 1.68152 1.1656 0
M  V30 1771 H 167.588 1.91893 3.60057 0
M  V30 1772 H 166.263 2.89421 2.98677 0
M  V30 1773 H 164.84 1.15056 3.54706 0
M  V30 1774 N 167.025 -1.13721 1.09112 0
M  V30 1775 C 168.272 -1.84924 0.825192 0
M  V30 1776 C 168.6 -1.83347 -0.649151 0
M  V30 1777 O 167.855 -1.26449 -1.49362 0
M  V30 1778 C 168.154 -3.32861 1.30146 0
M  V30 1779 C 167.82 -3.54621 2.78486 0
M  V30 1780 C 166.482 -3.60268 3.18999 0
M  V30 1781 C 168.834 -3.62855 3.74146 0
M  V30 1782 C 166.162 -3.71679 4.53951 0
M  V30 1783 C 168.514 -3.75793 5.08883 0
M  V30 1784 C 167.178 -3.79692 5.4899 0
M  V30 1785 H 166.448 -0.676684 0.301959 0
M  V30 1786 H 169.095 -1.3428 1.36533 0
M  V30 1787 H 167.4 -3.85835 0.681064 0
M  V30 1788 H 169.097 -3.86395 1.07236 0
M  V30 1789 H 165.687 -3.50879 2.46134 0
M  V30 1790 H 169.871 -3.57775 3.43963 0
M  V30 1791 H 165.127 -3.72963 4.84467 0
M  V30 1792 H 169.301 -3.81107 5.82864 0
M  V30 1793 H 166.928 -3.88287 6.53558 0
M  V30 1794 N 168.503 -0.877838 -1.30888 0
M  V30 1795 C 169.433 -0.35534 -2.3078 0
M  V30 1796 C 170.414 0.557994 -1.60687 0
M  V30 1797 O 171.599 0.473355 -1.88343 0
M  V30 1798 C 168.729 0.437221 -3.44537 0
M  V30 1799 C 167.683 -0.383715 -4.26276 0
M  V30 1800 C 167.009 0.535014 -5.32017 0
M  V30 1801 C 168.309 -1.62201 -4.96476 0
M  V30 1802 H 170.003 -1.19007 -2.74732 0
M  V30 1803 H 167.549 -0.573698 -1.32078 0
M  V30 1804 H 169.502 0.813334 -4.13477 0
M  V30 1805 H 168.226 1.30553 -2.99372 0
M  V30 1806 H 166.885 -0.741874 -3.59015 0
M  V30 1807 H 166.533 1.40083 -4.831 0
M  V30 1808 H 166.233 -0.0104211 -5.87599 0
M  V30 1809 H 167.757 0.907799 -6.03814 0
M  V30 1810 H 169.171 -1.31689 -5.5797 0
M  V30 1811 H 167.568 -2.10711 -5.61891 0
M  V30 1812 H 168.638 -2.37044 -4.23011 0
M  V30 1813 N 169.982 1.44106 -0.638065 0
M  V30 1814 C 170.914 2.28976 0.101205 0
M  V30 1815 C 171.927 1.4167 0.802088 0
M  V30 1816 O 173.116 1.65755 0.662375 0
M  V30 1817 C 170.216 3.18217 1.16581 0
M  V30 1818 C 169.389 4.33978 0.546066 0
M  V30 1819 C 168.448 5.04202 1.50554 0
M  V30 1820 O 167.474 5.59986 1.01999 0
M  V30 1821 N 168.676 5.06296 2.8398 0
M  V30 1822 H 171.441 2.93064 -0.627186 0
M  V30 1823 H 169.002 1.54629 -0.479731 0
M  V30 1824 H 170.994 3.62061 1.80815 0
M  V30 1825 H 169.564 2.55833 1.79634 0
M  V30 1826 H 168.784 3.93239 -0.275046 0
M  V30 1827 H 170.072 5.08675 0.112793 0
M  V30 1828 H 169.47 4.62319 3.26002 0
M  V30 1829 H 168.027 5.53907 3.43556 0
M  V30 1830 N 171.46 0.379036 1.52974 0
M  V30 1831 C 172.407 -0.461048 2.26148 0
M  V30 1832 C 173.377 -1.06637 1.27349 0
M  V30 1833 O 174.562 -1.09633 1.56157 0
M  V30 1834 C 171.702 -1.58782 3.06402 0
M  V30 1835 C 170.815 -1.00636 4.20115 0
M  V30 1836 C 169.95 -2.10334 4.87784 0
M  V30 1837 C 168.989 -1.49724 5.93506 0
M  V30 1838 N 168.126 -2.5331 6.54812 0
M  V30 1839 H 172.966 0.169429 2.97518 0
M  V30 1840 H 170.503 0.0953806 1.4679 0
M  V30 1841 H 172.461 -2.25174 3.51215 0
M  V30 1842 H 171.091 -2.18876 2.37261 0
M  V30 1843 H 170.143 -0.232332 3.7969 0
M  V30 1844 H 171.455 -0.523343 4.96047 0
M  V30 1845 H 170.609 -2.84519 5.35849 0
M  V30 1846 H 169.348 -2.61992 4.11353 0
M  V30 1847 H 168.353 -0.740598 5.44789 0
M  V30 1848 H 169.578 -0.988732 6.71864 0
M  V30 1849 H 167.524 -3.04156 5.81227 0
M  V30 1850 H 167.441 -2.09734 7.26325 0
M  V30 1851 H 168.709 -3.27155 7.07524 0
M  V30 1852 N 172.938 -1.57226 0.108567 0
M  V30 1853 C 174.186 -1.94448 -0.550853 0
M  V30 1854 C 174.507 -0.992074 -1.67878 0
M  V30 1855 O 173.777 -0.0465 -1.95845 0
M  V30 1856 H 172.357 -0.717897 -0.206479 0
M  V30 1857 H 175.019 -1.94112 0.175062 0
M  V30 1858 H 174.115 -2.97218 -0.952259 0
M  V30 1859 N 174.416 0.165178 -1.56732 0
M  V30 1860 C 175.364 1.22369 -1.97809 0
M  V30 1861 C 176.358 1.45488 -0.867741 0
M  V30 1862 O 177.564 1.45995 -1.05288 0
M  V30 1863 H 173.939 0.411486 -0.629431 0
M  V30 1864 H 175.91 0.850425 -2.86025 0
M  V30 1865 C 174.659 2.55403 -2.35934 0
M  V30 1866 H 173.982 2.38438 -3.20916 0
M  V30 1867 H 175.422 3.2814 -2.68514 0
M  V30 1868 C 173.881 3.14611 -1.20506 0
M  V30 1869 O 174.411 3.98626 -0.496016 0
M  V30 1870 N 172.617 2.7379 -0.97403 0
M  V30 1871 H 172.164 2.0557 -1.55238 0
M  V30 1872 H 172.122 3.1374 -0.203573 0
M  V30 1873 N 175.894 1.51508 0.433938 0
M  V30 1874 C 177.171 1.54888 1.19453 0
M  V30 1875 C 177.551 0.315154 2.08734 0
M  V30 1876 O 176.899 -0.699558 2.17528 0
M  V30 1877 C 177.109 2.86467 1.99342 0
M  V30 1878 C 178.457 3.38545 2.56267 0
M  V30 1879 O 179.481 2.88041 2.0955 0
M  V30 1880 O 178.34 4.26675 3.41483 0
M  V30 1881 H 175.434 0.622863 0.544032 0
M  V30 1882 H 177.98 1.63823 0.442732 0
M  V30 1883 H 176.752 3.67718 1.33788 0
M  V30 1884 H 176.375 2.8071 2.8158 0
M  V30 1885 N 177.372 -0.689602 1.41712 0
M  V30 1886 C 178.649 -1.44457 1.31877 0
M  V30 1887 C 179.029 -2.11039 -0.0508537 0
M  V30 1888 O 178.377 -2.02138 -1.06547 0
M  V30 1889 C 178.587 -2.45913 2.47645 0
M  V30 1890 C 179.935 -3.10991 2.89084 0
M  V30 1891 O 180.959 -2.56238 2.47428 0
M  V30 1892 O 179.818 -4.10174 3.61137 0
M  V30 1893 H 176.912 -0.64362 0.519309 0
M  V30 1894 H 179.458 -0.719576 1.53689 0
M  V30 1895 H 178.23 -1.95409 3.39015 0
M  V30 1896 H 177.853 -3.25913 2.27742 0
M  V30 1897 N 178.85 -1.27639 -0.924453 0
M  V30 1898 C 179.8 -1.07295 -2.01176 0
M  V30 1899 C 180.784 5.77352e-05 -1.609 0
M  V30 1900 O 181.976 -0.218855 -1.75642 0
M  V30 1901 C 179.105 -0.725592 -3.35544 0
M  V30 1902 C 178.191 -1.83691 -3.82254 0
M  V30 1903 N 178.582 -3.07697 -4.01443 0
M  V30 1904 C 176.88 -1.72433 -4.11319 0
M  V30 1905 C 177.581 -3.80037 -4.40394 0
M  V30 1906 N 176.557 -3.0782 -4.48049 0
M  V30 1907 H 180.359 -2.01399 -2.14046 0
M  V30 1908 H 177.873 -1.18401 -1.11153 0
M  V30 1909 H 179.87 -0.560959 -4.13109 0
M  V30 1910 H 178.53 0.207782 -3.24034 0
M  V30 1911 H 179.541 -3.43424 -3.8766 0
M  V30 1912 H 176.218 -0.862005 -4.08504 0
M  V30 1913 H 177.608 -4.86632 -4.63291 0
M  V30 1914 N 180.328 1.1314 -1.09713 0
M  V30 1915 C 181.574 1.84967 -0.846104 0
M  V30 1916 C 181.929 1.82082 0.621601 0
M  V30 1917 O 181.222 1.2501 1.452 0
M  V30 1918 C 181.416 3.32167 -1.3191 0
M  V30 1919 C 181.245 3.49386 -2.83125 0
M  V30 1920 C 180.015 3.63456 -3.51038 0
M  V30 1921 C 182.213 3.45179 -3.81256 0
M  V30 1922 N 180.195 3.68966 -4.9065 0
M  V30 1923 C 181.566 3.57094 -5.06837 0
M  V30 1924 C 183.621 3.28598 -3.74069 0
M  V30 1925 C 182.324 3.5414 -6.26081 0
M  V30 1926 C 184.35 3.26953 -4.92804 0
M  V30 1927 C 183.712 3.39422 -6.17229 0
M  V30 1928 H 179.811 0.692899 -0.362512 0
M  V30 1929 H 182.395 1.35506 -1.39808 0
M  V30 1930 H 180.566 3.80186 -0.794535 0
M  V30 1931 H 182.298 3.91815 -1.01308 0
M  V30 1932 H 179.053 3.65256 -3.01471 0
M  V30 1933 H 179.477 3.75404 -5.63383 0
M  V30 1934 H 184.119 3.17858 -2.78794 0
M  V30 1935 H 181.837 3.63653 -7.21653 0
M  V30 1936 H 185.423 3.15316 -4.88945 0
M  V30 1937 H 184.303 3.38114 -7.07565 0
M  V30 1938 N 181.806 0.884767 1.30421 0
M  V30 1939 C 183.055 0.499164 1.95426 0
M  V30 1940 C 183.368 -0.95645 1.70621 0
M  V30 1941 O 184.574 -1.44889 2.29607 0
M  V30 1942 C 183.03 0.84177 3.49917 0
M  V30 1943 C 182.638 2.31514 3.83543 0
M  V30 1944 C 184.382 0.525355 4.21237 0
M  V30 1945 C 182.289 2.59939 5.31212 0
M  V30 1946 H 181.219 0.182944 0.73147 0
M  V30 1947 H 183.87 1.07971 1.48373 0
M  V30 1948 H 182.252 0.190311 3.95542 0
M  V30 1949 H 183.426 3.0109 3.48829 0
M  V30 1950 H 181.741 2.59907 3.25326 0
M  V30 1951 H 184.338 0.714762 5.29901 0
M  V30 1952 H 184.681 -0.535222 4.12845 0
M  V30 1953 H 185.214 1.134 3.81294 0
M  V30 1954 H 181.953 3.64736 5.44654 0
M  V30 1955 H 181.473 1.94972 5.67227 0
M  V30 1956 H 183.152 2.45429 5.98643 0
M  V30 1957 N 183.284 -1.43765 0.645699 0
M  V30 1958 C 184.53 -2.02197 0.156271 0
M  V30 1959 C 184.863 -1.50776 -1.22393 0
M  V30 1960 O 184.138 -0.697771 -1.81553 0
M  V30 1961 C 184.421 -3.59749 0.158872 0
M  V30 1962 C 184.274 -4.21419 1.57245 0
M  V30 1963 C 185.593 -4.37149 -0.50879 0
M  V30 1964 H 182.712 -0.734694 0.0582602 0
M  V30 1965 H 185.354 -1.71157 0.824951 0
M  V30 1966 H 183.504 -3.86325 -0.410525 0
M  V30 1967 H 185.176 -4.059 2.19186 0
M  V30 1968 H 183.419 -3.78356 2.122 0
M  V30 1969 H 184.09 -5.30482 1.52619 0
M  V30 1970 H 186.566 -4.16093 -0.024412 0
M  V30 1971 H 185.442 -5.4683 -0.476213 0
M  V30 1972 H 185.703 -4.12839 -1.58165 0
M  V30 1973 N 184.763 -0.387143 -1.52771 0
M  V30 1974 C 186.04 0.253197 -1.93954 0
M  V30 1975 C 186.42 1.64545 -1.32243 0
M  V30 1976 O 185.768 2.23191 -0.489699 0
M  V30 1977 C 185.978 0.281722 -3.47861 0
M  V30 1978 C 187.326 0.511715 -4.21505 0
M  V30 1979 O 188.35 0.362023 -3.54356 0
M  V30 1980 O 187.209 0.804847 -5.40541 0
M  V30 1981 H 184.303 0.156845 -0.811991 0
M  V30 1982 H 186.849 -0.441494 -1.63856 0
M  V30 1983 H 185.621 -0.693571 -3.85104 0
M  V30 1984 H 185.244 1.02142 -3.84256 0
M  V30 1985 N 186.241 1.57166 -0.116904 0
M  V30 1986 C 187.469 1.99473 0.549383 0
M  V30 1987 C 187.884 0.996541 1.60357 0
M  V30 1988 O 187.241 -0.0108731 1.82497 0
M  V30 1989 C 187.292 3.41788 1.17741 0
M  V30 1990 O 187.013 4.37788 0.165362 0
M  V30 1991 C 188.514 3.99216 1.92722 0
M  V30 1992 H 185.734 0.655009 0.145616 0
M  V30 1993 H 188.278 2.03494 -0.202625 0
M  V30 1994 H 186.433 3.38713 1.88021 0
M  V30 1995 H 186.847 5.20806 0.621403 0
M  V30 1996 H 188.321 5.00882 2.31995 0
M  V30 1997 H 188.798 3.3824 2.80161 0
M  V30 1998 H 189.404 4.0583 1.27209 0
M  V30 1999 N 187.719 -0.156864 1.56817 0
M  V30 2000 C 188.996 -0.899244 1.73704 0
M  V30 2001 C 189.376 -1.99771 0.682254 0
M  V30 2002 O 188.724 -2.26515 -0.300522 0
M  V30 2003 C 188.934 -1.45075 3.17418 0
M  V30 2004 C 190.282 -1.91802 3.7881 0
M  V30 2005 O 191.306 -1.54838 3.20786 0
M  V30 2006 O 190.165 -2.5994 4.80722 0
M  V30 2007 H 187.259 -0.424267 0.709878 0
M  V30 2008 H 189.805 -0.143561 1.69092 0
M  V30 2009 H 188.577 -0.660846 3.85679 0
M  V30 2010 H 188.2 -2.27021 3.26416 0
M  V30 2011 N 189.197 -1.51736 -0.425897 0
M  V30 2012 C 190.427 -1.68549 -1.19476 0
M  V30 2013 C 190.835 -0.387288 -1.85194 0
M  V30 2014 O 190.178 0.645142 -1.71999 0
M  V30 2015 C 190.24 -2.75275 -2.31223 0
M  V30 2016 C 189.904 -4.17534 -1.8578 0
M  V30 2017 C 190.901 -5.01936 -1.35485 0
M  V30 2018 C 188.586 -4.6369 -1.93123 0
M  V30 2019 C 190.58 -6.30559 -0.931347 0
M  V30 2020 C 188.267 -5.92307 -1.50384 0
M  V30 2021 C 189.265 -6.75569 -1.00473 0
M  V30 2022 O 188.953 -8.0178 -0.583452 0
M  V30 2023 H 188.685 -0.568525 -0.365725 0
M  V30 2024 H 191.239 -1.98982 -0.509444 0
M  V30 2025 H 189.469 -2.40182 -3.03067 0
M  V30 2026 H 191.158 -2.80853 -2.93047 0
M  V30 2027 H 191.924 -4.67475 -1.29197 0
M  V30 2028 H 187.803 -3.98997 -2.30916 0
M  V30 2029 H 191.347 -6.95498 -0.541084 0
M  V30 2030 H 187.244 -6.2628 -1.56346 0
M  V30 2031 H 188.012 -8.1543 -0.708275 0
M  V30 2032 N 190.675 0.682077 -1.42076 0
M  V30 2033 C 191.952 1.43755 -1.32642 0
M  V30 2034 C 192.332 2.11063 0.0396611 0
M  V30 2035 O 191.68 2.02701 1.05474 0
M  V30 2036 C 191.89 2.44596 -2.48946 0
M  V30 2037 C 193.238 3.09454 -2.9073 0
M  V30 2038 O 194.262 2.54922 -2.48783 0
M  V30 2039 O 193.121 4.08253 -3.63307 0
M  V30 2040 H 190.215 0.640857 -0.522715 0
M  V30 2041 H 192.761 0.711415 -1.54068 0
M  V30 2042 H 191.533 1.93609 -3.40046 0
M  V30 2043 H 191.156 3.24701 -2.29467 0
M  V30 2044 N 192.153 1.28127 0.917671 0
M  V30 2045 C 193.381 1.17892 1.70026 0
M  V30 2046 C 193.796 -0.262958 1.8696 0
M  V30 2047 O 193.153 -1.17811 1.3938 0
M  V30 2048 C 193.204 1.86872 3.09453 0
M  V30 2049 O 192.925 3.25428 2.93306 0
M  V30 2050 C 194.426 1.8289 4.03815 0
M  V30 2051 H 191.646 0.40942 0.531617 0
M  V30 2052 H 194.19 1.69181 1.14883 0
M  V30 2053 H 192.345 1.39464 3.61426 0
M  V30 2054 H 192.759 3.59918 3.81523 0
M  V30 2055 H 194.233 2.35751 4.99125 0
M  V30 2056 H 194.71 0.800412 4.31845 0
M  V30 2057 H 195.316 2.29959 3.57769 0
M  V30 2058 N 193.631 -1.12557 1.10312 0
M  V30 2059 C 194.861 -1.87592 0.865617 0
M  V30 2060 C 195.269 -1.79851 -0.587389 0
M  V30 2061 O 194.612 -1.16949 -1.41664 0
M  V30 2062 C 194.674 -3.37665 1.23381 0
M  V30 2063 C 194.338 -3.69181 2.69359 0
M  V30 2064 C 195.335 -3.67652 3.67597 0
M  V30 2065 C 193.02 -3.98555 3.05711 0
M  V30 2066 C 195.014 -3.95053 5.00212 0
M  V30 2067 C 192.701 -4.25616 4.38514 0
M  V30 2068 C 193.699 -4.23851 5.35574 0
M  V30 2069 O 193.387 -4.50242 6.65986 0
M  V30 2070 H 193.119 -0.600442 0.310557 0
M  V30 2071 H 195.673 -1.4335 1.47105 0
M  V30 2072 H 193.903 -3.82454 0.571467 0
M  V30 2073 H 195.592 -3.94041 0.973994 0
M  V30 2074 H 196.358 -3.45024 3.40857 0
M  V30 2075 H 192.237 -3.99071 2.30789 0
M  V30 2076 H 195.781 -3.93591 5.75962 0
M  V30 2077 H 191.678 -4.47718 4.64994 0
M  V30 2078 H 192.446 -4.67867 6.71597 0
M  V30 2079 N 195.109 -0.891671 -1.2995 0
M  V30 2080 C 196.072 -0.36828 -2.26222 0
M  V30 2081 C 197.072 0.493014 -1.53056 0
M  V30 2082 O 198.262 0.299213 -1.71611 0
M  V30 2083 C 195.394 0.47442 -3.37583 0
M  V30 2084 H 196.587 -1.21844 -2.74033 0
M  V30 2085 H 194.14 -0.669107 -1.41254 0
M  V30 2086 H 194.875 1.34489 -2.95099 0
M  V30 2087 H 194.66 -0.142615 -3.91841 0
M  V30 2088 H 196.15 0.83218 -4.09224 0
M  V30 2089 N 196.587 1.43421 -0.653314 0
M  V30 2090 C 197.833 2.02111 -0.166992 0
M  V30 2091 C 198.166 1.51423 1.21592 0
M  V30 2092 O 197.441 0.707389 1.8118 0
M  V30 2093 C 197.724 3.5966 -0.177948 0
M  V30 2094 C 197.577 4.20579 -1.59478 0
M  V30 2095 C 198.896 4.37413 0.4856 0
M  V30 2096 H 196.015 0.734374 -0.0621557 0
M  V30 2097 H 198.657 1.70717 -0.834016 0
M  V30 2098 H 196.807 3.86537 0.390032 0
M  V30 2099 H 198.479 4.04732 -2.21336 0
M  V30 2100 H 196.722 3.77226 -2.14204 0
M  V30 2101 H 197.393 5.29665 -1.5543 0
M  V30 2102 H 199.869 4.161 0.00234528 0
M  V30 2103 H 198.745 5.47075 0.447207 0
M  V30 2104 H 199.006 4.13672 1.55974 0
M  V30 2105 N 198.065 0.39524 1.52563 0
M  V30 2106 C 198.997 -0.472201 2.24283 0
M  V30 2107 C 200.01 -1.02178 1.26742 0
M  V30 2108 O 201.199 -0.923097 1.52778 0
M  V30 2109 C 198.299 -1.66775 2.95024 0
M  V30 2110 C 197.472 -1.2445 4.19322 0
M  V30 2111 C 196.531 -2.30539 4.7301 0
M  V30 2112 O 195.557 -1.91702 5.35947 0
M  V30 2113 N 196.759 -3.6253 4.53379 0
M  V30 2114 H 199.524 0.142282 2.99362 0
M  V30 2115 H 197.085 0.2219 1.60372 0
M  V30 2116 H 199.077 -2.37283 3.27839 0
M  V30 2117 H 197.647 -2.18845 2.23217 0
M  V30 2118 H 196.867 -0.368069 3.92478 0
M  V30 2119 H 198.155 -0.938457 5.0007 0
M  V30 2120 H 197.553 -3.96841 4.03154 0
M  V30 2121 H 196.11 -4.29055 4.90668 0
M  V30 2122 N 199.544 -1.57102 0.125237 0
M  V30 2123 C 200.774 -1.99472 -0.538015 0
M  V30 2124 C 201.182 -1.00395 -1.60366 0
M  V30 2125 O 200.525 0.0103875 -1.83697 0
M  V30 2126 C 200.587 -3.38262 -1.21734 0
M  V30 2127 C 200.251 -4.56021 -0.298897 0
M  V30 2128 C 201.248 -5.17817 0.464943 0
M  V30 2129 C 198.933 -5.01869 -0.208149 0
M  V30 2130 C 200.927 -6.23852 1.3072 0
M  V30 2131 C 198.614 -6.07763 0.637736 0
M  V30 2132 C 199.612 -6.68622 1.39403 0
M  V30 2133 O 199.3 -7.7247 2.22586 0
M  V30 2134 H 199.032 -0.659934 -0.146501 0
M  V30 2135 H 201.586 -2.04321 0.210267 0
M  V30 2136 H 199.816 -3.30185 -2.01282 0
M  V30 2137 H 201.505 -3.6488 -1.77813 0
M  V30 2138 H 202.271 -4.83308 0.404741 0
M  V30 2139 H 198.15 -4.54241 -0.786522 0
M  V30 2140 H 201.694 -6.71284 1.898 0
M  V30 2141 H 197.591 -6.41701 0.699309 0
M  V30 2142 H 198.359 -7.89595 2.15596 0
M  V30 2143 N 201.022 0.148545 -1.56898 0
M  V30 2144 C 202.247 0.880385 -1.87787 0
M  V30 2145 C 202.672 1.74018 -0.714093 0
M  V30 2146 O 202.03 1.78153 0.336343 0
M  V30 2147 C 202.078 1.71422 -3.17249 0
M  V30 2148 O 201.182 2.8183 -3.01074 0
M  V30 2149 H 200.523 0.245301 -0.617028 0
M  V30 2150 H 203.053 0.139826 -2.04122 0
M  V30 2151 H 203.063 2.10954 -3.49231 0
M  V30 2152 H 201.738 1.08284 -4.01556 0
M  V30 2153 H 200.315 2.45715 -2.80497 0
M  V30 2154 N 202.5 1.5196 0.417844 0
M  V30 2155 C 203.74 1.67262 1.17486 0
M  V30 2156 C 204.104 0.38983 1.88001 0
M  V30 2157 O 205.305 0.418845 2.65517 0
M  V30 2158 C 203.576 2.85526 2.14965 0
M  V30 2159 S 205.135 3.21263 2.98891 0
M  V30 2160 H 201.953 0.589077 0.398132 0
M  V30 2161 H 204.555 1.89927 0.463452 0
M  V30 2162 H 203.259 3.77145 1.61833 0
M  V30 2163 H 202.79 2.65107 2.90657 0
M  V30 2164 H 204.805 2.69208 4.16823 0
M  V30 2165 N 203.978 -0.674533 1.42435 0
M  V30 2166 C 205.394 -0.98769 1.25367 0
M  V30 2167 C 205.594 -2.00879 0.158044 0
M  V30 2168 O 204.65 -2.48075 -0.470633 0
M  V30 2169 C 205.963 -1.49224 2.6106 0
M  V30 2170 C 207.511 -1.61 2.68417 0
M  V30 2171 C 207.986 -2.14852 4.04478 0
M  V30 2172 N 209.477 -2.22185 4.06434 0
M  V30 2173 C 210.212 -2.64928 5.08528 0
M  V30 2174 N 209.708 -3.07121 6.21006 0
M  V30 2175 N 211.501 -2.64679 4.95885 0
M  V30 2176 H 203.652 0.00152503 2.124 0
M  V30 2177 H 205.915 -0.0618434 0.945981 0
M  V30 2178 H 205.621 -0.816453 3.42092 0
M  V30 2179 H 205.495 -2.47094 2.84999 0
M  V30 2180 H 207.882 -2.27686 1.87732 0
M  V30 2181 H 207.963 -0.616195 2.48267 0
M  V30 2182 H 207.607 -1.48775 4.85622 0
M  V30 2183 H 207.537 -3.15024 4.2198 0
M  V30 2184 H 210.028 -1.92435 3.25234 0
M  V30 2185 H 210.341 -3.38423 6.94759 0
M  V30 2186 H 208.686 -3.04978 6.24511 0
M  V30 2187 H 211.877 -2.31078 4.07088 0
M  V30 2188 H 212.05 -2.9767 5.75584 0
M  V30 2189 N 205.456 -1.28612 -0.910864 0
M  V30 2190 C 206.386 -1.15326 -2.03032 0
M  V30 2191 C 207.367 -0.0502924 -1.70026 0
M  V30 2192 O 208.552 -0.227797 -1.92859 0
M  V30 2193 C 205.682 -0.817343 -3.37545 0
M  V30 2194 C 204.636 -1.8754 -3.84724 0
M  V30 2195 C 203.962 -1.39305 -5.16235 0
M  V30 2196 C 205.262 -3.28244 -4.06267 0
M  V30 2197 H 206.956 -2.08975 -2.14406 0
M  V30 2198 H 204.502 -1.00612 -1.03021 0
M  V30 2199 H 206.455 -0.711151 -4.15356 0
M  V30 2200 H 205.179 0.154846 -3.26233 0
M  V30 2201 H 203.838 -1.97079 -3.09121 0
M  V30 2202 H 203.486 -0.409846 -5.01328 0
M  V30 2203 H 203.186 -2.10057 -5.48771 0
M  V30 2204 H 204.71 -1.30014 -5.96598 0
M  V30 2205 H 206.124 -3.21611 -4.74594 0
M  V30 2206 H 204.521 -3.96855 -4.5014 0
M  V30 2207 H 205.591 -3.72048 -3.10979 0
M  V30 2208 N 206.934 1.1197 -1.10907 0
M  V30 2209 C 207.864 2.19928 -0.784473 0
M  V30 2210 C 208.845 1.6833 0.244726 0
M  V30 2211 O 210.03 1.93892 0.109418 0
M  V30 2212 C 207.16 3.46597 -0.220827 0
M  V30 2213 C 206.114 4.11376 -1.18127 0
M  V30 2214 C 205.44 5.32554 -0.478594 0
M  V30 2215 C 206.74 4.56945 -2.52979 0
M  V30 2216 H 208.434 2.47337 -1.68715 0
M  V30 2217 H 205.98 1.18879 -0.812642 0
M  V30 2218 H 207.933 4.21396 0.0184278 0
M  V30 2219 H 206.657 3.1863 0.717113 0
M  V30 2220 H 205.316 3.38564 -1.40606 0
M  V30 2221 H 204.964 5.00856 0.463976 0
M  V30 2222 H 204.664 5.76844 -1.11912 0
M  V30 2223 H 206.188 6.10096 -0.248 0
M  V30 2224 H 207.602 5.23093 -2.3462 0
M  V30 2225 H 205.999 5.1203 -3.12962 0
M  V30 2226 H 207.069 3.70676 -3.12614 0
M  V30 2227 N 208.412 0.89855 1.29475 0
M  V30 2228 C 209.36 0.365253 2.29714 0
M  V30 2229 C 210.354 -0.534993 1.6073 0
M  V30 2230 O 211.56 -0.417921 1.75081 0
M  V30 2231 H 207.935 0.0994853 0.74539 0
M  V30 2232 H 209.906 1.22406 2.72138 0
M  V30 2233 C 208.655 -0.393159 3.4547 0
M  V30 2234 H 207.978 0.290332 3.98744 0
M  V30 2235 H 209.418 -0.731189 4.17648 0
M  V30 2236 C 207.877 -1.59539 2.9673 0
M  V30 2237 O 208.407 -2.69469 2.97908 0
M  V30 2238 N 206.613 -1.43716 2.52575 0
M  V30 2239 H 206.16 -0.542828 2.51816 0
M  V30 2240 H 206.118 -2.24288 2.20323 0
M  V30 2241 N 209.89 -1.43072 0.660911 0
M  V30 2242 C 210.82 -2.33497 -0.0122829 0
M  V30 2243 C 211.801 -1.49903 -0.803925 0
M  V30 2244 O 212.986 -1.78546 -0.763864 0
M  V30 2245 C 210.116 -3.33363 -0.973994 0
M  V30 2246 C 209.07 -4.27003 -0.291928 0
M  V30 2247 C 208.396 -5.16967 -1.36562 0
M  V30 2248 C 209.696 -5.15816 0.820462 0
M  V30 2249 H 211.39 -2.90038 0.742873 0
M  V30 2250 H 208.936 -1.39461 0.358688 0
M  V30 2251 H 210.889 -3.95524 -1.45392 0
M  V30 2252 H 209.613 -2.75095 -1.7604 0
M  V30 2253 H 208.272 -3.66217 0.167623 0
M  V30 2254 H 207.92 -4.55034 -2.14366 0
M  V30 2255 H 207.62 -5.80441 -0.914454 0
M  V30 2256 H 209.144 -5.82003 -1.84675 0
M  V30 2257 H 210.558 -5.71742 0.422366 0
M  V30 2258 H 208.955 -5.8805 1.19656 0
M  V30 2259 H 210.025 -4.55045 1.67518 0
M  V30 2260 N 211.368 -0.403325 -1.52352 0
M  V30 2261 C 212.645 0.232611 -1.94212 0
M  V30 2262 C 213.025 1.63133 -1.33981 0
M  V30 2263 O 212.373 2.22659 -0.513344 0
M  V30 2264 C 212.583 0.244811 -3.4814 0
M  V30 2265 C 213.931 0.46698 -4.22024 0
M  V30 2266 O 214.955 0.324419 -3.5472 0
M  V30 2267 O 213.814 0.74747 -5.41364 0
M  V30 2268 H 210.908 0.148223 -0.813609 0
M  V30 2269 H 213.454 -0.458848 -1.63379 0
M  V30 2270 H 212.226 -0.734378 -3.84347 0
M  V30 2271 H 211.849 0.980611 -3.85318 0
M  V30 2272 N 212.846 1.57033 -0.133567 0
M  V30 2273 C 214.094 1.953 0.519848 0
M  V30 2274 C 214.415 1.01866 1.66278 0
M  V30 2275 O 213.685 0.0776513 1.95746 0
M  V30 2276 H 212.265 0.721091 0.195032 0
M  V30 2277 H 214.927 1.93809 -0.205921 0
M  V30 2278 H 214.023 2.98695 0.904854 0
M  V30 2279 N 214.325 -0.140222 1.56975 0
M  V30 2280 C 215.553 -0.866437 1.87884 0
M  V30 2281 C 215.968 -1.74428 0.722517 0
M  V30 2282 O 215.325 -1.79891 -0.30749 0
M  V30 2283 C 215.376 -1.71753 3.18093 0
M  V30 2284 O 215.097 -0.875056 4.29272 0
M  V30 2285 C 216.598 -2.55074 3.62563 0
M  V30 2286 H 213.818 -0.25019 0.622612 0
M  V30 2287 H 216.362 -0.130977 2.0408 0
M  V30 2288 H 214.517 -2.40598 3.03631 0
M  V30 2289 H 214.931 -1.46002 5.03769 0
M  V30 2290 H 216.405 -3.10356 4.5649 0
M  V30 2291 H 216.882 -3.31434 2.88181 0
M  V30 2292 H 217.488 -1.91509 3.79743 0
M  V30 2293 N 215.803 -1.52179 -0.40978 0
M  V30 2294 C 217.043 -1.67882 -1.16597 0
M  V30 2295 C 217.407 -0.399795 -1.87791 0
M  V30 2296 O 218.608 -0.43292 -2.65291 0
M  V30 2297 C 216.879 -2.86662 -2.13448 0
M  V30 2298 S 218.438 -3.22843 -2.97183 0
M  V30 2299 H 215.256 -0.59118 -0.395002 0
M  V30 2300 H 217.858 -1.9017 -0.453373 0
M  V30 2301 H 216.562 -3.77998 -1.59831 0
M  V30 2302 H 216.093 -2.66645 -2.89247 0
M  V30 2303 H 218.108 -2.71415 -4.15389 0
M  V30 2304 N 217.281 0.66697 -1.42791 0
M  V30 2305 C 218.244 1.76211 -1.46568 0
M  V30 2306 C 219.244 1.56896 -0.352196 0
M  V30 2307 O 220.434 1.63044 -0.613364 0
M  V30 2308 C 217.566 3.14935 -1.30494 0
M  V30 2309 H 218.759 1.74247 -2.44086 0
M  V30 2310 H 216.312 0.877342 -1.29354 0
M  V30 2311 H 217.047 3.2252 -0.339301 0
M  V30 2312 H 216.832 3.30359 -2.11199 0
M  V30 2313 H 218.322 3.94821 -1.36038 0
M  V30 2314 N 218.759 1.29093 0.90403 0
M  V30 2315 C 220.036 1.075 1.63411 0
M  V30 2316 C 220.416 -0.382346 2.07609 0
M  V30 2317 O 219.764 -1.37031 1.82851 0
M  V30 2318 C 219.974 2.05858 2.81822 0
M  V30 2319 C 221.322 2.36539 3.52611 0
M  V30 2320 O 222.346 2.04019 2.91984 0
M  V30 2321 O 221.205 2.92085 4.61897 0
M  V30 2322 H 218.299 0.411547 0.717327 0
M  V30 2323 H 220.845 1.40449 0.952479 0
M  V30 2324 H 219.617 3.04037 2.46327 0
M  V30 2325 H 219.24 1.73613 3.57693 0
M  V30 2326 N 220.237 -1.11381 1.11499 0
M  V30 2327 C 221.462 -1.87475 0.887019 0
M  V30 2328 C 221.887 -1.79639 -0.557796 0
M  V30 2329 O 221.245 -1.15924 -1.39396 0
M  V30 2330 C 221.293 -3.34213 1.35403 0
M  V30 2331 O 220.397 -4.0903 0.526146 0
M  V30 2332 H 219.738 -0.582099 0.319463 0
M  V30 2333 H 222.268 -1.40785 1.48461 0
M  V30 2334 H 222.278 -3.8506 1.34881 0
M  V30 2335 H 220.953 -3.39232 2.40612 0
M  V30 2336 H 219.53 -3.68082 0.597522 0
M  V30 2337 N 221.715 -0.905404 -1.28997 0
M  V30 2338 C 222.945 -0.549049 -1.99171 0
M  V30 2339 C 223.353 0.87203 -1.67906 0
M  V30 2340 O 222.696 1.58796 -0.923561 0
M  V30 2341 C 222.758 -0.668306 -3.53234 0
M  V30 2342 C 222.422 -2.0574 -4.08069 0
M  V30 2343 C 223.419 -3.0292 -4.22534 0
M  V30 2344 C 221.104 -2.36833 -4.42962 0
M  V30 2345 C 223.098 -4.29314 -4.71135 0
M  V30 2346 C 220.785 -3.63467 -4.91258 0
M  V30 2347 C 221.783 -4.59522 -5.053 0
M  V30 2348 O 221.471 -5.83907 -5.52546 0
M  V30 2349 H 221.203 -0.208784 -0.64295 0
M  V30 2350 H 223.757 -1.21836 -1.65363 0
M  V30 2351 H 221.987 0.0580547 -3.86656 0
M  V30 2352 H 223.676 -0.320273 -4.04634 0
M  V30 2353 H 224.442 -2.80216 -3.95859 0
M  V30 2354 H 220.321 -1.62824 -4.31288 0
M  V30 2355 H 223.865 -5.04293 -4.8201 0
M  V30 2356 H 219.762 -3.86 -5.17372 0
M  V30 2357 H 220.53 -5.86578 -5.70849 0
M  V30 2358 N 223.193 1.4272 -0.668489 0
M  V30 2359 C 224.418 2.06484 -0.194758 0
M  V30 2360 C 224.843 1.49862 1.13679 0
M  V30 2361 O 224.201 0.614582 1.70565 0
M  V30 2362 C 224.249 3.60353 -0.133546 0
M  V30 2363 O 223.353 4.02464 0.899806 0
M  V30 2364 H 222.694 0.656137 -0.10188 0
M  V30 2365 H 225.224 1.82964 -0.915722 0
M  V30 2366 H 225.234 4.07976 0.0447041 0
M  V30 2367 H 223.909 4.00938 -1.1055 0
M  V30 2368 H 222.486 3.66402 0.693109 0
M  V30 2369 N 224.671 0.411399 1.52136 0
M  V30 2370 C 225.918 -0.163645 2.01838 0
M  V30 2371 C 226.246 -1.4495 1.29691 0
M  V30 2372 O 225.501 -1.91725 0.392431 0
M  V30 2373 C 225.8 -0.455872 3.54481 0
M  V30 2374 C 225.466 0.741055 4.44769 0
M  V30 2375 C 224.128 1.06936 4.69167 0
M  V30 2376 C 226.48 1.54075 4.97906 0
M  V30 2377 C 223.808 2.19851 5.43951 0
M  V30 2378 C 226.16 2.66067 5.73926 0
M  V30 2379 C 224.824 2.99381 5.96596 0
M  V30 2380 H 224.094 -0.0598821 0.738576 0
M  V30 2381 H 226.741 0.553283 1.83333 0
M  V30 2382 H 225.046 -1.2544 3.71177 0
M  V30 2383 H 226.743 -0.913802 3.90449 0
M  V30 2384 H 223.333 0.475192 4.25958 0
M  V30 2385 H 227.517 1.30033 4.78963 0
M  V30 2386 H 222.773 2.46006 5.59724 0
M  V30 2387 H 226.947 3.28419 6.14096 0
M  V30 2388 H 224.574 3.86992 6.54325 0
M  V30 2389 N 226.149 -1.5696 0.141893 0
M  V30 2390 C 227.395 -1.9625 -0.511248 0
M  V30 2391 C 227.728 -1.02654 -1.64851 0
M  V30 2392 O 227.003 -0.0679676 -1.94381 0
M  V30 2393 C 227.286 -3.45285 -1.02227 0
M  V30 2394 C 227.139 -4.49658 0.113138 0
M  V30 2395 C 228.458 -3.96698 -1.90574 0
M  V30 2396 H 225.577 -0.713567 -0.184367 0
M  V30 2397 H 228.219 -1.88698 0.222087 0
M  V30 2398 H 226.369 -3.51852 -1.64719 0
M  V30 2399 H 228.041 -4.55174 0.749302 0
M  V30 2400 H 226.284 -4.26857 0.773026 0
M  V30 2401 H 226.955 -5.51258 -0.286053 0
M  V30 2402 H 229.431 -3.92578 -1.37918 0
M  V30 2403 H 228.307 -5.01453 -2.2324 0
M  V30 2404 H 228.568 -3.3875 -2.84079 0
M  V30 2405 N 227.627 0.131896 -1.57047 0
M  V30 2406 C 228.874 0.841932 -1.84168 0
M  V30 2407 C 229.202 1.8048 -0.725066 0
M  V30 2408 O 228.457 1.93618 0.284692 0
M  V30 2409 C 228.756 1.63703 -3.17704 0
M  V30 2410 C 228.422 0.81961 -4.43388 0
M  V30 2411 C 227.084 0.594148 -4.77518 0
M  V30 2412 C 229.436 0.248977 -5.20605 0
M  V30 2413 C 226.764 -0.212409 -5.86315 0
M  V30 2414 C 229.116 -0.544701 -6.30251 0
M  V30 2415 C 227.78 -0.780599 -6.6292 0
M  V30 2416 H 227.05 0.308085 -0.673917 0
M  V30 2417 H 229.697 0.104867 -1.91213 0
M  V30 2418 H 228.002 2.44464 -3.06177 0
M  V30 2419 H 229.699 2.19015 -3.35907 0
M  V30 2420 H 226.289 1.00542 -4.16641 0
M  V30 2421 H 230.473 0.410408 -4.946 0
M  V30 2422 H 225.729 -0.404524 -6.1006 0
M  V30 2423 H 229.903 -0.993922 -6.89271 0
M  V30 2424 H 227.53 -1.40742 -7.47058 0
M  V30 2425 N 229.106 1.52395 0.401703 0
M  V30 2426 C 230.331 1.70972 1.17403 0
M  V30 2427 C 230.756 0.421615 1.83314 0
M  V30 2428 O 230.114 -0.621564 1.70312 0
M  V30 2429 C 230.162 2.85151 2.20728 0
M  V30 2430 O 229.266 2.51238 3.27037 0
M  V30 2431 H 228.607 0.568927 0.342372 0
M  V30 2432 H 231.137 1.99131 0.469891 0
M  V30 2433 H 231.147 3.10279 2.64936 0
M  V30 2434 H 229.822 3.78603 1.7214 0
M  V30 2435 H 228.399 2.36808 2.88057 0
M  V30 2436 N 230.584 -0.659388 1.43143 0
M  V30 2437 C 232 -0.974337 1.26407 0
M  V30 2438 C 232.2 -2.007 0.179341 0
M  V30 2439 O 231.256 -2.4856 -0.444295 0
M  V30 2440 C 232.569 -1.46447 2.62628 0
M  V30 2441 C 234.117 -1.58144 2.7011 0
M  V30 2442 C 234.592 -2.1055 4.06734 0
M  V30 2443 N 236.083 -2.17861 4.08767 0
M  V30 2444 C 236.818 -2.59519 5.1131 0
M  V30 2445 N 236.314 -3.00518 6.24228 0
M  V30 2446 N 238.107 -2.59404 4.98664 0
M  V30 2447 H 230.258 0.0240528 2.12386 0
M  V30 2448 H 232.521 -0.0518065 0.946583 0
M  V30 2449 H 232.227 -0.780123 3.42939 0
M  V30 2450 H 232.101 -2.44058 2.87603 0
M  V30 2451 H 234.488 -2.25682 1.90136 0
M  V30 2452 H 234.569 -0.589828 2.48907 0
M  V30 2453 H 234.213 -1.43616 4.87172 0
M  V30 2454 H 234.143 -3.10531 4.25298 0
M  V30 2455 H 236.634 -1.88975 3.27257 0
M  V30 2456 H 236.947 -3.31036 6.98309 0
M  V30 2457 H 235.292 -2.98337 6.2771 0
M  V30 2458 H 238.483 -2.26747 4.09516 0
M  V30 2459 H 238.656 -2.91548 5.78709 0
M  V30 2460 N 232.062 -1.29571 -0.897171 0
M  V30 2461 C 233.339 -1.08365 -1.62839 0
M  V30 2462 C 233.719 0.371331 -2.07808 0
M  V30 2463 O 233.067 1.3606 -1.83576 0
M  V30 2464 C 233.277 -2.0735 -2.80726 0
M  V30 2465 C 234.625 -2.38406 -3.51351 0
M  V30 2466 O 235.649 -2.05564 -2.90898 0
M  V30 2467 O 234.508 -2.9453 -4.60341 0
M  V30 2468 H 231.602 -0.415345 -0.715134 0
M  V30 2469 H 234.148 -1.40952 -0.945018 0
M  V30 2470 H 232.92 -3.05339 -2.44711 0
M  V30 2471 H 232.543 -1.75507 -3.56767 0
M  V30 2472 N 233.54 1.10788 -1.12088 0
M  V30 2473 C 234.951 1.64181 -0.88891 0
M  V30 2474 C 235.302 1.87508 0.577498 0
M  V30 2475 O 234.427 1.61434 1.44112 0
M  V30 2476 C 235.022 2.98257 -1.60712 0
M  V30 2477 C 233.581 3.4853 -1.42139 0
M  V30 2478 C 232.728 2.23208 -1.6454 0
M  V30 2479 H 235.679 0.943368 -1.27618 0
M  V30 2480 H 235.7 3.65552 -1.05604 0
M  V30 2481 H 235.212 2.81246 -2.67436 0
M  V30 2482 H 233.313 3.70692 -0.376552 0
M  V30 2483 H 233.426 4.26882 -2.17505 0
M  V30 2484 H 231.79 2.31169 -1.06925 0
M  V30 2485 H 232.573 2.08733 -2.72554 0
M  V30 2486 N 235.018 0.912232 1.28515 0
M  V30 2487 C 235.966 0.389597 2.29314 0
M  V30 2488 C 236.96 -0.517915 1.61289 0
M  V30 2489 O 238.166 -0.399328 1.75515 0
M  V30 2490 H 234.541 0.107386 0.744293 0
M  V30 2491 H 236.512 1.25286 2.70825 0
M  V30 2492 C 235.261 -0.356496 3.45868 0
M  V30 2493 H 234.584 0.332608 3.98414 0
M  V30 2494 H 236.024 -0.686851 4.184 0
M  V30 2495 C 234.483 -1.56383 2.98406 0
M  V30 2496 O 235.013 -2.66294 3.00749 0
M  V30 2497 N 233.219 -1.41029 2.54085 0
M  V30 2498 H 232.766 -0.516089 2.52377 0
M  V30 2499 H 232.724 -2.21939 2.22689 0
M  V30 2500 N 236.496 -1.42363 0.676048 0
M  V30 2501 C 237.744 -2.01123 0.198437 0
M  V30 2502 C 238.065 -1.53731 -1.19966 0
M  V30 2503 O 237.335 -0.759518 -1.80577 0
M  V30 2504 H 235.915 -0.743678 0.0703721 0
M  V30 2505 H 238.577 -1.74263 0.872837 0
M  V30 2506 H 237.673 -3.11454 0.200686 0
M  V30 2507 N 237.974 -0.419461 -1.51915 0
M  V30 2508 C 238.904 0.391813 -2.30189 0
M  V30 2509 C 239.885 1.03699 -1.34836 0
M  V30 2510 O 241.07 1.04403 -1.63748 0
M  V30 2511 C 238.2 1.50312 -3.13087 0
M  V30 2512 C 237.154 0.9824 -4.16573 0
M  V30 2513 C 236.48 2.18809 -4.8788 0
M  V30 2514 C 237.78 0.0292356 -5.22292 0
M  V30 2515 H 239.474 -0.26135 -2.98257 0
M  V30 2516 H 237.02 -0.127134 -1.43438 0
M  V30 2517 H 238.973 2.07773 -3.66617 0
M  V30 2518 H 237.697 2.18431 -2.42807 0
M  V30 2519 H 236.356 0.430119 -3.64068 0
M  V30 2520 H 236.004 2.85507 -4.14119 0
M  V30 2521 H 235.704 1.84615 -5.57845 0
M  V30 2522 H 237.228 2.76858 -5.44226 0
M  V30 2523 H 238.642 0.512976 -5.71 0
M  V30 2524 H 237.039 -0.2244 -5.9968 0
M  V30 2525 H 238.109 -0.912931 -4.76228 0
M  V30 2526 N 239.452 1.56882 -0.150215 0
M  V30 2527 C 240.863 1.82995 0.370076 0
M  V30 2528 C 241.214 1.06907 1.64515 0
M  V30 2529 O 240.339 0.315369 2.1409 0
M  V30 2530 C 240.934 3.31942 0.678208 0
M  V30 2531 C 239.493 3.58625 1.14301 0
M  V30 2532 C 238.64 2.76792 0.167778 0
M  V30 2533 H 241.591 1.54209 -0.374858 0
M  V30 2534 H 241.612 3.48272 1.53254 0
M  V30 2535 H 241.124 3.87294 -0.249991 0
M  V30 2536 H 239.225 3.08664 2.08704 0
M  V30 2537 H 239.338 4.67073 1.06676 0
M  V30 2538 H 237.702 2.45972 0.661037 0
M  V30 2539 H 238.485 3.34916 -0.754069 0
M  V30 2540 N 240.93 -0.123565 1.57115 0
M  V30 2541 C 242.341 -0.681198 1.73829 0
M  V30 2542 C 242.692 -1.80535 0.768214 0
M  V30 2543 O 241.817 -2.16317 -0.0599103 0
M  V30 2544 C 242.412 -1.24246 3.15196 0
M  V30 2545 C 240.971 -1.74643 3.33432 0
M  V30 2546 C 240.118 -0.644284 2.69711 0
M  V30 2547 H 243.069 0.102315 1.5837 0
M  V30 2548 H 243.09 -2.11216 3.16493 0
M  V30 2549 H 242.602 -0.424062 3.85776 0
M  V30 2550 H 240.703 -2.58974 2.67886 0
M  V30 2551 H 240.816 -1.85902 4.41562 0
M  V30 2552 H 239.18 -1.07676 2.3082 0
M  V30 2553 H 239.963 0.163058 3.42913 0
M  V30 2554 N 242.408 -1.52605 -0.393616 0
M  V30 2555 C 243.318 -1.79971 -1.50492 0
M  V30 2556 C 244.334 -0.686181 -1.59899 0
M  V30 2557 O 245.51 -0.973274 -1.76322 0
M  V30 2558 C 242.575 -1.95867 -2.86072 0
M  V30 2559 C 241.636 -3.19781 -2.86424 0
M  V30 2560 C 240.869 -3.34909 -4.15538 0
M  V30 2561 O 241.092 -2.54948 -5.10253 0
M  V30 2562 O 240.026 -4.28141 -4.23059 0
M  V30 2563 H 243.852 -2.74328 -1.30299 0
M  V30 2564 H 241.437 -1.3764 -0.581005 0
M  V30 2565 H 243.319 -2.08056 -3.66457 0
M  V30 2566 H 241.994 -1.04699 -3.063 0
M  V30 2567 H 240.901 -3.13038 -2.04837 0
M  V30 2568 H 242.234 -4.1078 -2.71147 0
M  V30 2569 N 243.887 0.651787 -1.4349 0
M  V30 2570 C 244.85 1.74647 -1.48429 0
M  V30 2571 C 245.85 1.56513 -0.368817 0
M  V30 2572 O 247.04 1.62385 -0.630623 0
M  V30 2573 C 244.172 3.13533 -1.33827 0
M  V30 2574 H 245.365 1.71649 -2.4592 0
M  V30 2575 H 242.918 0.863573 -1.30277 0
M  V30 2576 H 243.653 3.22142 -0.37349 0
M  V30 2577 H 243.438 3.28101 -2.14691 0
M  V30 2578 H 244.928 3.93356 -1.40218 0
M  V30 2579 N 245.365 1.30045 0.890287 0
M  V30 2580 C 246.297 1.11786 2.00091 0
M  V30 2581 C 247.31 0.0626307 1.62679 0
M  V30 2582 O 248.499 0.308112 1.75821 0
M  V30 2583 C 245.599 0.681527 3.31977 0
M  V30 2584 C 244.772 1.81735 3.97858 0
M  V30 2585 C 243.831 1.37045 5.08041 0
M  V30 2586 O 242.857 2.07677 5.29961 0
M  V30 2587 N 244.059 0.246525 5.79976 0
M  V30 2588 H 246.824 2.07441 2.16306 0
M  V30 2589 H 244.385 1.2211 1.06305 0
M  V30 2590 H 246.377 0.365675 4.03045 0
M  V30 2591 H 244.947 -0.182828 3.12065 0
M  V30 2592 H 244.167 2.30159 3.20032 0
M  V30 2593 H 245.455 2.57865 4.38615 0
M  V30 2594 H 244.853 -0.34215 5.64664 0
M  V30 2595 H 243.41 -0.00990438 6.51799 0
M  V30 2596 N 246.843 -1.10192 1.12674 0
M  V30 2597 C 247.79 -2.16606 0.796906 0
M  V30 2598 C 248.76 -1.64394 -0.237476 0
M  V30 2599 O 249.945 -1.90474 -0.111484 0
M  V30 2600 C 247.085 -3.44116 0.26043 0
M  V30 2601 C 246.198 -4.10268 1.35293 0
M  V30 2602 C 245.333 -5.25507 0.775621 0
M  V30 2603 C 244.372 -5.83567 1.84706 0
M  V30 2604 N 243.509 -6.90179 1.28829 0
M  V30 2605 H 248.349 -2.44163 1.70846 0
M  V30 2606 H 245.886 -1.19846 0.85295 0
M  V30 2607 H 247.844 -4.17143 -0.0686814 0
M  V30 2608 H 246.474 -3.16901 -0.614274 0
M  V30 2609 H 245.526 -3.35184 1.79877 0
M  V30 2610 H 246.838 -4.4946 2.16303 0
M  V30 2611 H 245.992 -6.05398 0.397327 0
M  V30 2612 H 244.731 -4.87656 -0.0656581 0
M  V30 2613 H 243.736 -5.02344 2.23452 0
M  V30 2614 H 244.961 -6.23482 2.69161 0
M  V30 2615 H 242.907 -6.54322 0.468881 0
M  V30 2616 H 242.824 -7.28097 2.03497 0
M  V30 2617 H 244.092 -7.73844 0.937311 0
M  V30 2618 N 248.321 -0.919034 -1.28029 0
M  V30 2619 C 249.57 -0.550802 -1.94034 0
M  V30 2620 C 249.883 0.910877 -1.73096 0
M  V30 2621 O 251.089 1.3875 -2.33368 0
M  V30 2622 C 249.545 -0.934249 -3.47563 0
M  V30 2623 C 249.153 -2.41602 -3.7727 0
M  V30 2624 C 250.897 -0.636854 -4.19696 0
M  V30 2625 C 248.804 -2.73932 -5.24133 0
M  V30 2626 H 247.734 -0.202273 -0.726362 0
M  V30 2627 H 250.385 -1.11867 -1.45458 0
M  V30 2628 H 248.767 -0.295115 -3.94899 0
M  V30 2629 H 249.941 -3.10233 -3.40723 0
M  V30 2630 H 248.256 -2.68441 -3.18321 0
M  V30 2631 H 250.853 -0.855005 -5.2782 0
M  V30 2632 H 251.196 0.425575 -4.14119 0
M  V30 2633 H 251.729 -1.23469 -3.78154 0
M  V30 2634 H 248.468 -3.79049 -5.34792 0
M  V30 2635 H 247.988 -2.09942 -5.61858 0
M  V30 2636 H 249.667 -2.61215 -5.91925 0
M  V30 2637 N 249.799 1.42003 -0.683588 0
M  V30 2638 C 251.045 2.01712 -0.209825 0
M  V30 2639 C 251.378 1.53968 1.18353 0
M  V30 2640 O 250.653 0.745661 1.79639 0
M  V30 2641 C 250.936 3.59202 -0.254197 0
M  V30 2642 C 250.789 4.17102 -1.68363 0
M  V30 2643 C 252.108 4.38344 0.392709 0
M  V30 2644 H 249.227 0.732891 -0.0777189 0
M  V30 2645 H 251.869 1.68909 -0.87004 0
M  V30 2646 H 250.019 3.87278 0.307954 0
M  V30 2647 H 251.691 3.99946 -2.29871 0
M  V30 2648 H 249.934 3.72597 -2.22157 0
M  V30 2649 H 250.605 5.26249 -1.6663 0
M  V30 2650 H 253.081 4.16011 -0.0859162 0
M  V30 2651 H 251.957 5.47901 0.331063 0
M  V30 2652 H 252.218 4.16887 1.47164 0
M  V30 2653 N 251.277 0.427512 1.51691 0
M  V30 2654 C 252.693 0.0792977 1.59403 0
M  V30 2655 C 252.893 -1.41035 1.43914 0
M  V30 2656 O 251.949 -2.17922 1.27539 0
M  V30 2657 C 253.262 0.590636 2.94842 0
M  V30 2658 C 254.81 0.550215 3.08126 0
M  V30 2659 C 255.285 1.03836 4.46074 0
M  V30 2660 N 256.776 0.995943 4.52366 0
M  V30 2661 C 257.511 1.34463 5.57411 0
M  V30 2662 N 257.007 1.76569 6.69922 0
M  V30 2663 N 258.8 1.26343 5.47717 0
M  V30 2664 H 250.951 1.39687 1.60004 0
M  V30 2665 H 253.214 0.575003 0.753708 0
M  V30 2666 H 252.92 1.63251 3.11516 0
M  V30 2667 H 252.794 0.0102061 3.77199 0
M  V30 2668 H 255.181 -0.482654 2.91126 0
M  V30 2669 H 255.262 1.16693 2.27632 0
M  V30 2670 H 254.906 2.06965 4.63819 0
M  V30 2671 H 254.836 0.398286 5.25092 0
M  V30 2672 H 257.327 0.68661 3.7161 0
M  V30 2673 H 257.64 2.01438 7.46085 0
M  V30 2674 H 255.985 1.80488 6.71155 0
M  V30 2675 H 259.176 0.933209 4.58703 0
M  V30 2676 H 259.349 1.53846 6.29472 0
M  V30 2677 N 252.755 -1.56801 0.158532 0
M  V30 2678 C 253.687 -2.14488 -0.807923 0
M  V30 2679 C 254.7 -1.09721 -1.20271 0
M  V30 2680 O 255.889 -1.36956 -1.14478 0
M  V30 2681 C 252.989 -2.66217 -2.09718 0
M  V30 2682 C 252.162 -3.95507 -1.86796 0
M  V30 2683 C 251.221 -4.3243 -2.99818 0
M  V30 2684 O 250.247 -5.00543 -2.71008 0
M  V30 2685 N 251.449 -3.92947 -4.27285 0
M  V30 2686 H 254.214 -2.98042 -0.314816 0
M  V30 2687 H 251.775 -1.61881 -0.0246692 0
M  V30 2688 H 253.767 -2.87924 -2.84398 0
M  V30 2689 H 252.337 -1.87324 -2.50257 0
M  V30 2690 H 251.557 -3.82309 -0.96089 0
M  V30 2691 H 252.845 -4.79972 -1.68833 0
M  V30 2692 H 252.243 -3.38087 -4.53557 0
M  V30 2693 H 250.8 -4.19681 -4.9871 0
M  V30 2694 N 254.233 0.115231 -1.57178 0
M  V30 2695 C 255.649 0.468877 -1.52557 0
M  V30 2696 C 255.849 1.81649 -0.872125 0
M  V30 2697 O 254.905 2.48347 -0.45606 0
M  V30 2698 C 256.218 0.4499 -2.97315 0
M  V30 2699 C 257.766 0.533185 -3.08425 0
M  V30 2700 C 258.241 0.54456 -4.54751 0
M  V30 2701 N 259.732 0.605892 -4.5922 0
M  V30 2702 C 260.467 0.636203 -5.6986 0
M  V30 2703 N 259.963 0.623931 -6.89985 0
M  V30 2704 N 261.756 0.679496 -5.57978 0
M  V30 2705 H 253.907 -0.767712 -1.9804 0
M  V30 2706 H 256.17 -0.283609 -0.904583 0
M  V30 2707 H 255.876 -0.472721 -3.48509 0
M  V30 2708 H 255.75 1.27632 -3.5495 0
M  V30 2709 H 258.137 1.44623 -2.57232 0
M  V30 2710 H 258.218 -0.320995 -2.53778 0
M  V30 2711 H 257.862 -0.364452 -5.06591 0
M  V30 2712 H 257.792 1.41568 -5.07214 0
M  V30 2713 H 260.283 0.621386 -3.72756 0
M  V30 2714 H 260.596 0.649787 -7.70063 0
M  V30 2715 H 258.941 0.591296 -6.9248 0
M  V30 2716 H 262.132 0.686472 -4.63039 0
M  V30 2717 H 262.305 0.69965 -6.44212 0
M  V30 2718 N 255.711 1.52812 0.385517 0
M  V30 2719 C 256.643 1.74096 1.49074 0
M  V30 2720 C 257.656 0.621462 1.50472 0
M  V30 2721 O 258.845 0.897245 1.54311 0
M  V30 2722 C 255.945 1.78774 2.87911 0
M  V30 2723 C 255.118 3.08134 3.10439 0
M  V30 2724 C 254.177 3.04313 4.29278 0
M  V30 2725 O 253.203 3.78168 4.25415 0
M  V30 2726 N 254.405 2.23741 5.35649 0
M  V30 2727 H 257.17 2.69455 1.31202 0
M  V30 2728 H 254.731 1.51343 0.575065 0
M  V30 2729 H 256.723 1.73721 3.65518 0
M  V30 2730 H 255.293 0.907869 2.99126 0
M  V30 2731 H 254.513 3.26649 2.20667 0
M  V30 2732 H 255.801 3.93662 3.22347 0
M  V30 2733 H 255.199 1.63211 5.41645 0
M  V30 2734 H 253.756 2.24524 6.11909 0
M  V30 2735 N 257.189 -0.644168 1.43834 0
M  V30 2736 C 258.099 -1.78563 1.52159 0
M  V30 2737 C 259.115 -1.69147 0.408069 0
M  V30 2738 O 260.291 -1.90156 0.663524 0
M  V30 2739 C 257.356 -3.14888 1.45073 0
M  V30 2740 C 256.417 -3.36034 2.6717 0
M  V30 2741 C 255.65 -4.65855 2.60413 0
M  V30 2742 O 255.873 -5.45805 1.65689 0
M  V30 2743 O 254.807 -4.88918 3.5106 0
M  V30 2744 H 258.633 -1.74494 2.48567 0
M  V30 2745 H 256.218 -0.80378 1.25935 0
M  V30 2746 H 258.1 -3.96179 1.43597 0
M  V30 2747 H 256.775 -3.19528 0.518037 0
M  V30 2748 H 255.682 -2.54472 2.74217 0
M  V30 2749 H 257.015 -3.36247 3.59442 0
M  V30 2750 N 258.668 -1.30515 -0.883378 0
M  V30 2751 C 259.578 -1.18959 -2.02203 0
M  V30 2752 C 260.594 -0.109172 -1.73657 0
M  V30 2753 O 261.77 -0.324413 -1.9877 0
M  V30 2754 C 258.835 -0.883871 -3.35244 0
M  V30 2755 C 257.896 -2.04982 -3.77201 0
M  V30 2756 C 257.129 -1.75859 -5.03894 0
M  V30 2757 O 257.352 -0.687276 -5.66244 0
M  V30 2758 O 256.286 -2.61146 -5.42297 0
M  V30 2759 H 260.112 -2.14616 -2.1488 0
M  V30 2760 H 257.697 -1.10124 -1.0096 0
M  V30 2761 H 259.579 -0.728644 -4.15053 0
M  V30 2762 H 258.254 0.0427798 -3.23672 0
M  V30 2763 H 257.161 -2.26038 -2.9809 0
M  V30 2764 H 258.494 -2.95825 -3.93381 0
M  V30 2765 N 260.146 1.09593 -1.13257 0
M  V30 2766 C 261.076 2.18214 -0.830946 0
M  V30 2767 C 262.057 1.68812 0.208966 0
M  V30 2768 O 263.242 1.9408 0.0682666 0
M  V30 2769 C 260.372 3.46051 -0.294296 0
M  V30 2770 C 259.326 4.08778 -1.26826 0
M  V30 2771 C 258.652 5.31419 -0.591449 0
M  V30 2772 C 259.952 4.51476 -2.62615 0
M  V30 2773 H 261.646 2.43703 -1.73923 0
M  V30 2774 H 259.192 1.17128 -0.837675 0
M  V30 2775 H 261.145 4.2134 -0.0709606 0
M  V30 2776 H 259.869 3.20079 0.649366 0
M  V30 2777 H 258.528 3.35505 -1.47756 0
M  V30 2778 H 258.176 5.01727 0.357633 0
M  V30 2779 H 257.876 5.74341 -1.24123 0
M  V30 2780 H 259.4 6.09433 -0.377355 0
M  V30 2781 H 260.814 5.17999 -2.45663 0
M  V30 2782 H 259.211 5.05277 -3.23752 0
M  V30 2783 H 260.281 3.63962 -3.20406 0
M  V30 2784 N 261.624 0.925811 1.2754 0
M  V30 2785 C 262.864 0.572521 1.96218 0
M  V30 2786 C 263.228 -0.869719 1.71172 0
M  V30 2787 O 264.429 -1.33119 2.33523 0
M  V30 2788 C 262.7 0.887325 3.4621 0
M  V30 2789 S 264.259 0.642266 4.34074 0
M  V30 2790 H 261.077 0.211403 0.678845 0
M  V30 2791 H 263.679 1.19384 1.54815 0
M  V30 2792 H 262.383 1.93469 3.61936 0
M  V30 2793 H 261.914 0.255123 3.92572 0
M  V30 2794 H 263.929 -0.500822 4.93666 0
M  V30 2795 N 263.102 -1.41638 0.69111 0
M  V30 2796 C 264.032 -2.3347 0.037248 0
M  V30 2797 C 265.013 -1.51575 -0.771947 0
M  V30 2798 O 266.198 -1.80126 -0.72582 0
M  V30 2799 C 263.328 -3.35354 -0.903064 0
M  V30 2800 C 262.282 -4.27526 -0.201288 0
M  V30 2801 C 261.608 -5.19747 -1.25565 0
M  V30 2802 C 262.908 -5.13959 0.929689 0
M  V30 2803 H 264.602 -2.88397 0.804227 0
M  V30 2804 H 262.148 -1.38669 0.388189 0
M  V30 2805 H 264.101 -3.98519 -1.36969 0
M  V30 2806 H 262.825 -2.78767 -1.70166 0
M  V30 2807 H 261.484 -3.65779 0.245265 0
M  V30 2808 H 261.132 -4.59479 -2.04666 0
M  V30 2809 H 260.832 -5.8225 -0.791128 0
M  V30 2810 H 262.356 -5.85789 -1.72288 0
M  V30 2811 H 263.77 -5.70718 0.543546 0
M  V30 2812 H 262.167 -5.85379 1.32103 0
M  V30 2813 H 263.237 -4.51389 1.77133 0
M  V30 2814 N 264.58 -0.43555 -1.51462 0
M  V30 2815 C 265.543 0.365137 -2.26273 0
M  V30 2816 C 266.543 0.951227 -1.29647 0
M  V30 2817 O 267.733 0.825958 -1.53374 0
M  V30 2818 C 264.865 1.51645 -3.05314 0
M  V30 2819 H 266.058 -0.290474 -2.9849 0
M  V30 2820 H 263.611 -0.188676 -1.55157 0
M  V30 2821 H 264.346 2.20816 -2.3751 0
M  V30 2822 H 264.131 1.10238 -3.76284 0
M  V30 2823 H 265.621 2.08218 -3.61987 0
M  V30 2824 N 266.058 1.56714 -0.166846 0
M  V30 2825 C 267.474 1.58473 0.189372 0
M  V30 2826 C 267.674 1.18201 1.63189 0
M  V30 2827 O 266.73 0.891528 2.36237 0
M  V30 2828 C 268.043 3.00573 -0.0873872 0
M  V30 2829 C 269.591 3.1299 -0.0252443 0
M  V30 2830 C 270.066 4.57174 -0.274934 0
M  V30 2831 N 271.557 4.62665 -0.222553 0
M  V30 2832 C 272.292 5.72072 -0.389985 0
M  V30 2833 N 271.788 6.90054 -0.616229 0
M  V30 2834 N 273.581 5.61153 -0.326202 0
M  V30 2835 H 265.732 1.8118 -1.10849 0
M  V30 2836 H 267.995 0.839525 -0.440342 0
M  V30 2837 H 267.701 3.34497 -1.0865 0
M  V30 2838 H 267.575 3.72019 0.623037 0
M  V30 2839 H 269.962 2.78895 0.96444 0
M  V30 2840 H 270.043 2.43989 -0.768309 0
M  V30 2841 H 269.687 4.91976 -1.26181 0
M  V30 2842 H 269.617 5.24328 0.48869 0
M  V30 2843 H 272.108 3.77863 -0.0531512 0
M  V30 2844 H 272.421 7.69311 -0.733559 0
M  V30 2845 H 270.766 6.91927 -0.652791 0
M  V30 2846 H 273.957 4.67859 -0.150072 0
M  V30 2847 H 274.13 6.46364 -0.460116 0
M  V30 2848 N 267.536 -0.106894 1.57237 0
M  V30 2849 C 268.468 -1.15646 1.97885 0
M  V30 2850 C 269.481 -1.36981 0.879779 0
M  V30 2851 O 270.67 -1.35841 1.15799 0
M  V30 2852 C 267.77 -2.51425 2.27241 0
M  V30 2853 C 266.943 -2.50529 3.58545 0
M  V30 2854 C 266.002 -3.68145 3.75973 0
M  V30 2855 O 265.028 -3.51176 4.47956 0
M  V30 2856 N 266.23 -4.87177 3.15656 0
M  V30 2857 H 268.995 -0.81059 2.8853 0
M  V30 2858 H 266.556 -0.296024 1.59171 0
M  V30 2859 H 268.548 -3.28689 2.36105 0
M  V30 2860 H 267.118 -2.78147 1.42663 0
M  V30 2861 H 266.338 -1.58894 3.60758 0
M  V30 2862 H 267.626 -2.46997 4.44826 0
M  V30 2863 H 267.024 -5.03868 2.57165 0
M  V30 2864 H 265.581 -5.62075 3.30023 0
M  V30 2865 N 269.014 -1.53014 -0.377408 0
M  V30 2866 C 270.244 -1.72265 -1.14054 0
M  V30 2867 C 270.652 -0.44601 -1.83868 0
M  V30 2868 O 269.995 0.590095 -1.73964 0
M  V30 2869 C 270.057 -2.82492 -2.22348 0
M  V30 2870 C 269.721 -4.23233 -1.72402 0
M  V30 2871 C 270.718 -5.05992 -1.19448 0
M  V30 2872 C 268.403 -4.696 -1.78273 0
M  V30 2873 C 270.397 -6.33203 -0.730268 0
M  V30 2874 C 268.084 -5.96792 -1.31464 0
M  V30 2875 C 269.082 -6.78424 -0.789297 0
M  V30 2876 O 268.77 -8.0323 -0.328077 0
M  V30 2877 H 268.502 -0.579873 -0.347453 0
M  V30 2878 H 271.056 -2.00502 -0.445882 0
M  V30 2879 H 269.286 -2.49702 -2.95272 0
M  V30 2880 H 270.975 -2.90034 -2.83963 0
M  V30 2881 H 271.741 -4.71349 -1.14259 0
M  V30 2882 H 267.62 -4.06142 -2.18106 0
M  V30 2883 H 271.164 -6.96868 -0.319542 0
M  V30 2884 H 267.061 -6.30937 -1.36342 0
M  V30 2885 H 267.829 -8.1727 -0.448493 0
M  V30 2886 N 270.492 0.636531 -1.44174 0
M  V30 2887 C 271.908 0.954104 -1.27941 0
M  V30 2888 C 272.108 2.0039 -0.211248 0
M  V30 2889 O 271.164 2.49236 0.404695 0
M  V30 2890 C 272.477 1.4225 -2.64925 0
M  V30 2891 C 274.025 1.53827 -2.72592 0
M  V30 2892 C 274.5 2.04053 -4.10032 0
M  V30 2893 N 275.991 2.11331 -4.12182 0
M  V30 2894 C 276.726 2.51352 -5.15374 0
M  V30 2895 N 276.222 2.90549 -6.2893 0
M  V30 2896 N 278.015 2.51438 -5.02728 0
M  V30 2897 H 270.166 -0.0578386 -2.12321 0
M  V30 2898 H 272.429 0.0367406 -0.947288 0
M  V30 2899 H 272.135 0.725466 -3.44136 0
M  V30 2900 H 272.009 2.39451 -2.9145 0
M  V30 2901 H 274.396 2.22628 -1.93702 0
M  V30 2902 H 274.477 0.550154 -2.49814 0
M  V30 2903 H 274.121 1.35848 -4.89395 0
M  V30 2904 H 274.051 3.03726 -4.30184 0
M  V30 2905 H 276.542 1.83745 -3.30222 0
M  V30 2906 H 276.855 3.19884 -7.03487 0
M  V30 2907 H 275.2 2.88313 -6.32377 0
M  V30 2908 H 278.391 2.20203 -4.13072 0
M  V30 2909 H 278.564 2.82304 -5.83274 0
M  V30 2910 N 271.97 1.30982 0.876444 0
M  V30 2911 C 272.9 1.20668 1.99903 0
M  V30 2912 C 273.881 0.095354 1.69833 0
M  V30 2913 O 275.066 0.27885 1.92188 0
M  V30 2914 C 272.196 0.90655 3.3526 0
M  V30 2915 C 271.15 1.97675 3.79617 0
M  V30 2916 C 270.476 1.52943 5.1236 0
M  V30 2917 C 271.776 3.389 3.97422 0
M  V30 2918 H 273.47 2.14586 2.0879 0
M  V30 2919 H 271.016 1.03308 1.00317 0
M  V30 2920 H 272.969 0.821025 4.13324 0
M  V30 2921 H 271.693 -0.0682969 3.26529 0
M  V30 2922 H 270.352 2.05205 3.03787 0
M  V30 2923 H 270 0.54262 5.00065 0
M  V30 2924 H 269.7 2.24532 5.43009 0
M  V30 2925 H 271.224 1.45786 5.92941 0
M  V30 2926 H 272.638 3.34081 4.659 0
M  V30 2927 H 271.035 4.0865 4.3946 0
M  V30 2928 H 272.105 3.80163 3.01006 0
M  V30 2929 N 273.449 -1.08991 1.13837 0
M  V30 2930 C 274.698 -1.80631 0.897509 0
M  V30 2931 C 275.011 -1.86872 -0.57777 0
M  V30 2932 O 276.217 -2.54866 -0.935701 0
M  V30 2933 C 274.673 -3.24517 1.55618 0
M  V30 2934 C 274.281 -3.26529 3.0673 0
M  V30 2935 C 276.025 -4.00882 1.3962 0
M  V30 2936 C 273.932 -4.64965 3.65461 0
M  V30 2937 H 272.862 -0.67691 0.332129 0
M  V30 2938 H 275.513 -1.2246 1.3666 0
M  V30 2939 H 273.895 -3.82778 1.01476 0
M  V30 2940 H 275.069 -2.78008 3.67489 0
M  V30 2941 H 273.384 -2.63656 3.22296 0
M  V30 2942 H 275.981 -5.03167 1.80906 0
M  V30 2943 H 276.324 -4.14896 0.341578 0
M  V30 2944 H 276.857 -3.49075 1.90766 0
M  V30 2945 H 273.596 -4.56153 4.70749 0
M  V30 2946 H 273.116 -5.13792 3.09481 0
M  V30 2947 H 274.795 -5.3394 3.654 0
M  V30 2948 N 274.927 -0.932562 -1.27047 0
M  V30 2949 C 276.173 -0.576412 -1.94436 0
M  V30 2950 C 276.506 0.880891 -1.73072 0
M  V30 2951 O 275.781 1.62905 -1.06264 0
M  V30 2952 C 276.064 -0.909031 -3.48437 0
M  V30 2953 C 275.917 -2.42044 -3.79123 0
M  V30 2954 C 277.236 -0.418341 -4.38107 0
M  V30 2955 H 274.355 -0.210888 -0.706184 0
M  V30 2956 H 276.997 -1.16522 -1.50075 0
M  V30 2957 H 275.147 -0.407947 -3.86352 0
M  V30 2958 H 276.819 -2.99359 -3.50973 0
M  V30 2959 H 275.062 -2.86758 -3.25503 0
M  V30 2960 H 275.733 -2.6037 -4.86736 0
M  V30 2961 H 278.209 -0.847856 -4.0737 0
M  V30 2962 H 277.085 -0.679981 -5.44672 0
M  V30 2963 H 277.346 0.681642 -4.36814 0
M  V30 2964 N 276.405 1.4127 -0.698611 0
M  V30 2965 C 277.355 2.27997 -0.0119836 0
M  V30 2966 C 278.339 1.42363 0.749765 0
M  V30 2967 O 279.531 1.65607 0.624758 0
M  V30 2968 C 276.66 3.30702 0.921458 0
M  V30 2969 C 275.746 4.23814 0.155796 0
M  V30 2970 N 276.137 4.98572 -0.852015 0
M  V30 2971 C 274.435 4.44284 0.390836 0
M  V30 2972 C 275.136 5.66744 -1.3106 0
M  V30 2973 N 274.112 5.39867 -0.635944 0
M  V30 2974 H 277.914 2.83232 -0.784649 0
M  V30 2975 H 275.428 1.53518 -0.529711 0
M  V30 2976 H 277.425 3.91661 1.42854 0
M  V30 2977 H 276.085 2.77028 1.69369 0
M  V30 2978 H 277.096 5.03024 -1.23235 0
M  V30 2979 H 273.773 4.01614 1.14071 0
M  V30 2980 H 275.163 6.36672 -2.14707 0
M  V30 2981 N 277.883 0.443576 1.51229 0
M  V30 2982 C 278.831 -0.37904 2.29491 0
M  V30 2983 C 279.825 -1.0153 1.35603 0
M  V30 2984 O 281.031 -0.94955 1.52917 0
M  V30 2985 H 277.406 -0.141053 0.738653 0
M  V30 2986 H 279.377 0.301799 2.9687 0
M  V30 2987 C 278.126 -1.46426 3.15364 0
M  V30 2988 H 277.449 -0.984037 3.87501 0
M  V30 2989 H 278.889 -2.01297 3.7317 0
M  V30 2990 C 277.348 -2.45099 2.31146 0
M  V30 2991 O 277.878 -3.49773 1.9754 0
M  V30 2992 N 276.084 -2.16139 1.94249 0
M  V30 2993 H 275.631 -1.31044 2.21777 0
M  V30 2994 H 275.589 -2.82398 1.38198 0
M  V30 2995 N 279.361 -1.56624 0.175154 0
M  V30 2996 C 280.609 -1.96609 -0.467885 0
M  V30 2997 C 280.93 -1.06238 -1.63519 0
M  V30 2998 O 280.2 -0.129523 -1.95471 0
M  V30 2999 H 278.78 -0.726008 -0.175845 0
M  V30 3000 H 281.442 -1.93195 0.257234 0
M  V30 3001 H 280.538 -3.00989 -0.825342 0
M  V30 3002 N 280.839 0.0985539 -1.57292 0
M  V30 3003 C 282.069 0.815135 -1.8984 0
M  V30 3004 C 282.477 1.7297 -0.766679 0
M  V30 3005 O 281.82 1.81698 0.270483 0
M  V30 3006 C 281.882 1.6842 -3.17608 0
M  V30 3007 C 281.546 0.94182 -4.4719 0
M  V30 3008 C 282.543 0.273212 -5.19182 0
M  V30 3009 C 280.228 0.916927 -4.9386 0
M  V30 3010 C 282.222 -0.410361 -6.36078 0
M  V30 3011 C 279.909 0.229567 -6.10669 0
M  V30 3012 C 280.907 -0.432902 -6.81627 0
M  V30 3013 O 280.595 -1.10925 -7.9621 0
M  V30 3014 H 280.327 0.238501 -0.632529 0
M  V30 3015 H 282.881 0.0812659 -2.05239 0
M  V30 3016 H 281.111 2.46022 -2.98345 0
M  V30 3017 H 282.8 2.27704 -3.36015 0
M  V30 3018 H 283.566 0.283927 -4.84168 0
M  V30 3019 H 279.445 1.42201 -4.3852 0
M  V30 3020 H 282.989 -0.928013 -6.914 0
M  V30 3021 H 278.886 0.216686 -6.45136 0
M  V30 3022 H 279.654 -1.01579 -8.12172 0
M  V30 3023 N 282.317 1.53212 0.369288 0
M  V30 3024 C 283.557 1.70915 1.12105 0
M  V30 3025 C 283.921 0.449444 1.86665 0
M  V30 3026 O 285.122 0.503105 2.6405 0
M  V30 3027 C 283.393 2.9222 2.05772 0
M  V30 3028 S 284.952 3.30609 2.88519 0
M  V30 3029 H 281.77 0.601445 0.379189 0
M  V30 3030 H 284.372 1.91306 0.402794 0
M  V30 3031 H 283.076 3.82103 1.49752 0
M  V30 3032 H 282.607 2.7422 2.82076 0
M  V30 3033 H 284.622 2.82333 4.08047 0
M  V30 3034 N 283.795 -0.628877 1.44509 0
M  V30 3035 C 285.072 -1.38733 1.37886 0
M  V30 3036 C 285.452 -2.11065 0.0387008 0
M  V30 3037 O 284.8 -2.06476 -0.97878 0
M  V30 3038 C 285.01 -2.35188 2.57852 0
M  V30 3039 C 286.358 -2.9845 3.02014 0
M  V30 3040 O 287.382 -2.45513 2.58073 0
M  V30 3041 O 286.241 -3.94487 3.78209 0
M  V30 3042 H 283.335 -0.621015 0.54614 0
M  V30 3043 H 285.881 -0.653744 1.56602 0
M  V30 3044 H 284.653 -1.80855 3.46998 0
M  V30 3045 H 284.276 -3.1596 2.4136 0
M  V30 3046 N 285.273 -1.31445 -0.869486 0
M  V30 3047 C 286.521 -1.20918 -1.61936 0
M  V30 3048 C 286.842 0.232683 -1.93607 0
M  V30 3049 O 286.112 1.15352 -1.58338 0
M  V30 3050 H 284.692 -0.44454 -0.600328 0
M  V30 3051 H 287.354 -1.64776 -1.0409 0
M  V30 3052 H 286.45 -1.78124 -2.56278 0
M  V30 3053 N 286.751 1.08385 -1.14413 0
M  V30 3054 C 288.167 1.32844 -0.884563 0
M  V30 3055 C 288.367 1.95841 0.474181 0
M  V30 3056 O 287.423 2.21158 1.21842 0
M  V30 3057 C 288.736 2.22978 -2.01745 0
M  V30 3058 C 290.284 2.36458 -2.05077 0
M  V30 3059 C 290.759 3.29934 -3.1766 0
M  V30 3060 N 292.25 3.37511 -3.17239 0
M  V30 3061 C 292.985 4.09871 -4.0099 0
M  V30 3062 N 292.481 4.84936 -4.94781 0
M  V30 3063 N 294.274 4.05704 -3.89051 0
M  V30 3064 H 286.425 0.658756 -2.01926 0
M  V30 3065 H 288.688 0.352821 -0.879899 0
M  V30 3066 H 288.394 1.83934 -2.99769 0
M  V30 3067 H 288.268 3.23441 -1.94077 0
M  V30 3068 H 290.655 2.7476 -1.0766 0
M  V30 3069 H 290.736 1.35736 -2.16816 0
M  V30 3070 H 290.38 2.92352 -4.15322 0
M  V30 3071 H 290.31 4.30584 -3.03158 0
M  V30 3072 H 292.801 2.83996 -2.49308 0
M  V30 3073 H 293.114 5.37612 -5.55151 0
M  V30 3074 H 291.459 4.83988 -4.98779 0
M  V30 3075 H 294.65 3.46167 -3.15097 0
M  V30 3076 H 294.823 4.61834 -4.54547 0
M  V30 3077 N 288.23 0.939286 1.26551 0
M  V30 3078 C 289.455 0.602008 1.98471 0
M  V30 3079 C 289.88 -0.815624 1.69497 0
M  V30 3080 O 289.238 -1.54912 0.941905 0
M  V30 3081 C 289.286 0.848407 3.50477 0
M  V30 3082 O 288.39 -0.0804009 4.12322 0
M  V30 3083 H 287.731 0.23049 0.622712 0
M  V30 3084 H 290.261 1.2617 1.61066 0
M  V30 3085 H 290.271 0.768553 4.00696 0
M  V30 3086 H 288.946 1.88171 3.70897 0
M  V30 3087 H 287.523 0.0503508 3.72866 0
M  V30 3088 N 289.708 -1.40897 0.706093 0
M  V30 3089 C 290.618 -2.3455 0.0482286 0
M  V30 3090 C 291.634 -1.56796 -0.754396 0
M  V30 3091 O 292.81 -1.89228 -0.689538 0
M  V30 3092 C 289.875 -3.35625 -0.869303 0
M  V30 3093 C 288.936 -4.29261 -0.0576994 0
M  V30 3094 C 288.169 -5.25508 -0.931531 0
M  V30 3095 O 288.392 -5.27472 -2.17092 0
M  V30 3096 O 287.326 -6.00727 -0.375587 0
M  V30 3097 H 291.152 -2.92407 0.820476 0
M  V30 3098 H 288.737 -1.4193 0.4665 0
M  V30 3099 H 290.619 -3.97635 -1.39514 0
M  V30 3100 H 289.294 -2.80196 -1.62086 0
M  V30 3101 H 288.201 -3.70566 0.512988 0
M  V30 3102 H 289.534 -4.87817 0.655426 0
M  V30 3103 N 291.186 -0.45159 -1.50991 0
M  V30 3104 C 292.602 -0.104647 -1.59257 0
M  V30 3105 C 292.802 1.38728 -1.4614 0
M  V30 3106 O 291.858 2.15866 -1.30989 0
M  V30 3107 C 293.171 -0.637468 -2.93865 0
M  V30 3108 C 294.719 -0.599166 -3.07212 0
M  V30 3109 C 295.194 -1.1092 -4.44366 0
M  V30 3110 N 296.685 -1.06778 -4.50725 0
M  V30 3111 C 297.42 -1.43314 -5.55201 0
M  V30 3112 N 296.916 -1.87204 -6.67028 0
M  V30 3113 N 298.709 -1.3504 -5.45638 0
M  V30 3114 H 290.86 -1.42214 -1.57762 0
M  V30 3115 H 293.123 -0.586921 -0.744465 0
M  V30 3116 H 292.829 -1.68187 -3.08879 0
M  V30 3117 H 292.703 -0.0702139 -3.77135 0
M  V30 3118 H 295.09 0.436277 -2.91857 0
M  V30 3119 H 295.171 -1.20299 -2.25747 0
M  V30 3120 H 294.815 -2.14318 -4.60467 0
M  V30 3121 H 294.745 -0.481773 -5.24392 0
M  V30 3122 H 297.236 -0.745643 -3.70471 0
M  V30 3123 H 297.549 -2.13282 -7.42786 0
M  V30 3124 H 295.894 -1.91142 -6.68199 0
M  V30 3125 H 299.085 -1.00607 -4.57161 0
M  V30 3126 H 299.258 -1.63841 -6.26945 0
M  V30 3127 N 292.664 1.56529 -0.183458 0
M  V30 3128 C 293.612 2.19873 0.758845 0
M  V30 3129 C 294.606 1.16638 1.22849 0
M  V30 3130 O 295.812 1.3481 1.19274 0
M  V30 3131 H 292.187 0.7045 0.263029 0
M  V30 3132 H 294.158 2.97724 0.200755 0
M  V30 3133 C 292.907 2.86314 1.9728 0
M  V30 3134 H 292.23 3.65487 1.62047 0
M  V30 3135 H 293.67 3.3409 2.61075 0
M  V30 3136 C 292.129 1.86729 2.80418 0
M  V30 3137 O 292.659 1.36031 3.77966 0
M  V30 3138 N 290.865 1.55216 2.45675 0
M  V30 3139 H 290.412 1.96636 1.66409 0
M  V30 3140 H 290.37 0.888388 3.01588 0
M  V30 3141 N 294.142 -0.090211 1.57342 0
M  V30 3142 C 295.072 -1.10976 2.05443 0
M  V30 3143 C 296.053 -1.41482 0.944284 0
M  V30 3144 O 297.238 -1.51428 1.21586 0
M  V30 3145 C 294.368 -2.42831 2.48295 0
M  V30 3146 C 293.322 -2.26721 3.63018 0
M  V30 3147 C 292.648 -3.63796 3.91863 0
M  V30 3148 C 293.948 -1.7037 4.93732 0
M  V30 3149 H 295.642 -0.709564 2.9087 0
M  V30 3150 H 293.188 -0.339874 1.39932 0
M  V30 3151 H 295.141 -3.14431 2.80555 0
M  V30 3152 H 293.865 -2.84795 1.59873 0
M  V30 3153 H 292.524 -1.57565 3.31012 0
M  V30 3154 H 292.172 -4.03297 3.00601 0
M  V30 3155 H 291.872 -3.53861 4.69101 0
M  V30 3156 H 293.396 -4.36855 4.26603 0
M  V30 3157 H 294.81 -2.31816 5.24342 0
M  V30 3158 H 293.207 -1.71181 5.75167 0
M  V30 3159 H 294.277 -0.663542 4.80339 0
M  V30 3160 N 295.62 -1.53406 -0.361157 0
M  V30 3161 C 296.55 -1.83136 -1.44857 0
M  V30 3162 C 297.531 -0.685174 -1.5569 0
M  V30 3163 O 298.716 -0.93544 -1.70186 0
M  V30 3164 C 295.846 -2.02522 -2.82138 0
M  V30 3165 C 294.8 -3.18302 -2.86126 0
M  V30 3166 C 294.126 -3.22989 -4.26125 0
M  V30 3167 C 295.426 -4.56796 -2.53248 0
M  V30 3168 H 297.12 -2.74201 -1.20226 0
M  V30 3169 H 294.666 -1.31938 -0.576922 0
M  V30 3170 H 296.619 -2.21904 -3.58241 0
M  V30 3171 H 295.343 -1.08172 -3.08166 0
M  V30 3172 H 294.002 -2.98747 -2.12475 0
M  V30 3173 H 293.65 -2.26267 -4.49235 0
M  V30 3174 H 293.35 -4.00781 -4.29708 0
M  V30 3175 H 294.874 -3.44559 -5.04094 0
M  V30 3176 H 296.288 -4.7631 -3.19064 0
M  V30 3177 H 294.685 -5.36862 -2.68141 0
M  V30 3178 H 295.755 -4.61606 -1.48484 0
M  V30 3179 O 297.137 0.507134 -1.53331 0
M  V30 3180 H 297.828 1.16207 -1.5497 0
M  V30 END ATOM
M  V30 BEGIN BOND
M  V30 END BOND
M  V30 END CTAB
M  END
$$$$
