drugbank_target|P02765 Alpha-2-HS-glycoprotein (DB01593; DB09130; DB14487; DB14533; DB14548)
 OpenBabel12092121073D

  0  0  0     0  0            999 V3000
M  V30 BEGIN CTAB
M  V30 COUNTS 5482 5556 0 0 0
M  V30 BEGIN ATOM
M  V30 1 H -0.908 1.98254 -0.117106 0
M  V30 2 N 0 1.576 0 0
M  V30 3 C 0.933 2.03868 1.02534 0
M  V30 4 C 1.911 0.928543 1.3348 0
M  V30 5 O 3.095 1.19667 1.45644 0
M  V30 6 C 0.222 2.43627 2.35294 0
M  V30 7 C -0.732 3.65373 2.2001 0
M  V30 8 S 0.101 5.13292 1.52614 0
M  V30 9 C 1.257 5.56322 2.86805 0
M  V30 10 H 1.49 2.90518 0.631377 0
M  V30 11 H -0.977 1.52953 0.210867 0
M  V30 12 H 0.981 2.67203 3.11629 0
M  V30 13 H -0.358 1.57376 2.7183 0
M  V30 14 H -1.165 3.90944 3.18086 0
M  V30 15 H -1.563 3.418 1.51819 0
M  V30 16 H 0.729 5.58782 3.83104 0
M  V30 17 H 1.672 6.56266 2.65933 0
M  V30 18 H 2.08 4.83886 2.90714 0
M  V30 19 N 1.4781 -0.272755 1.55222 0
M  V30 20 C 2.4251 -1.33716 1.88119 0
M  V30 21 C 3.3951 -1.49066 0.73271 0
M  V30 22 O 4.5801 -1.63469 0.984002 0
M  V30 23 C 1.7201 -2.69238 2.15882 0
M  V30 24 C 0.8331 -2.62108 3.43399 0
M  V30 25 C -0.0319 -3.89811 3.60861 0
M  V30 26 C -0.9929 -3.77193 4.8207 0
M  V30 27 N -1.8559 -4.9673 4.96189 0
M  V30 28 H 2.9841 -1.04962 2.78903 0
M  V30 29 H 0.5211 -0.507088 1.38083 0
M  V30 30 H 2.4791 -3.48089 2.29978 0
M  V30 31 H 1.1091 -2.96194 1.28331 0
M  V30 32 H 0.1611 -1.74967 3.37773 0
M  V30 33 H 1.4731 -2.48685 4.32386 0
M  V30 34 H 0.6271 -4.77103 3.74777 0
M  V30 35 H -0.6339 -4.06102 2.7006 0
M  V30 36 H -1.6289 -2.88284 4.68159 0
M  V30 37 H -0.4039 -3.62421 5.74307 0
M  V30 38 H -2.4579 -5.13431 4.08319 0
M  V30 39 H -2.5409 -4.85839 5.79221 0
M  V30 40 H -1.2729 -5.85594 5.1449 0
M  V30 41 N 2.9562 -1.48159 -0.537278 0
M  V30 42 C 4.1812 -1.59707 -1.32319 0
M  V30 43 C 4.6062 -0.254859 -1.86365 0
M  V30 44 O 3.9642 0.772378 -1.64024 0
M  V30 45 C 4.0122 -2.6412 -2.45505 0
M  V30 46 O 3.1162 -2.20774 -3.48328 0
M  V30 47 H 2.4572 -0.535791 -0.392204 0
M  V30 48 H 4.9872 -1.94092 -0.647268 0
M  V30 49 H 4.9972 -2.85166 -2.91795 0
M  V30 50 H 3.6722 -3.61567 -2.05528 0
M  V30 51 H 2.2492 -2.09911 -3.08207 0
M  V30 52 N 4.4343 0.785586 -1.36625 0
M  V30 53 C 5.3643 1.91259 -1.33949 0
M  V30 54 C 6.3453 1.68795 -0.210325 0
M  V30 55 O 7.5303 1.89854 -0.408561 0
M  V30 56 C 4.6603 3.28339 -1.13186 0
M  V30 57 C 3.6143 3.65335 -2.22967 0
M  V30 58 C 2.9403 5.00806 -1.87342 0
M  V30 59 C 4.2403 3.7352 -3.65075 0
M  V30 60 H 5.9343 1.93755 -2.28253 0
M  V30 61 H 3.4803 0.930788 -1.09874 0
M  V30 62 H 5.4333 4.06804 -1.09948 0
M  V30 63 H 4.1573 3.2624 -0.153332 0
M  V30 64 H 2.8163 2.89169 -2.25337 0
M  V30 65 H 2.4643 4.95233 -0.880545 0
M  V30 66 H 2.1643 5.26529 -2.60846 0
M  V30 67 H 3.6883 5.81687 -1.85667 0
M  V30 68 H 5.1023 4.42168 -3.64911 0
M  V30 69 H 3.4993 4.10731 -4.37516 0
M  V30 70 H 4.5693 2.74527 -3.99703 0
M  V30 71 N 5.9124 1.20967 1.01018 0
M  V30 72 C 7.1584 1.02526 1.74975 0
M  V30 73 C 7.4914 -0.4408 1.89131 0
M  V30 74 O 6.7664 -1.32718 1.42184 0
M  V30 75 C 7.0494 1.71699 3.1653 0
M  V30 76 C 6.9024 3.25791 3.10129 0
M  V30 77 C 8.2214 1.45531 4.15342 0
M  V30 78 H 5.3404 0.373863 0.635134 0
M  V30 79 H 7.9824 1.49071 1.17805 0
M  V30 80 H 6.1324 1.32128 3.65341 0
M  V30 81 H 7.8044 3.74697 2.69072 0
M  V30 82 H 6.0474 3.56363 2.47362 0
M  V30 83 H 6.7184 3.69353 4.10222 0
M  V30 84 H 9.1944 1.79872 3.75213 0
M  V30 85 H 8.0704 1.96453 5.1254 0
M  V30 86 H 8.3314 0.384237 4.40427 0
M  V30 87 N 7.3905 -1.2043 1.01659 0
M  V30 88 C 8.3205 -2.25466 0.607226 0
M  V30 89 C 9.3015 -1.65853 -0.377716 0
M  V30 90 O 10.4865 -1.92409 -0.263149 0
M  V30 91 C 7.6165 -3.47256 -0.0552949 0
M  V30 92 C 6.5705 -4.19462 0.850632 0
M  V30 93 C 5.8965 -5.34673 0.0538859 0
M  V30 94 C 7.1965 -4.75603 2.15868 0
M  V30 95 H 8.8905 -2.59962 1.48526 0
M  V30 96 H 6.4365 -1.2496 0.715605 0
M  V30 97 H 8.3895 -4.19917 -0.353233 0
M  V30 98 H 7.1135 -3.11924 -0.968045 0
M  V30 99 H 5.7725 -3.48667 1.13257 0
M  V30 100 H 5.4205 -4.95585 -0.860514 0
M  V30 101 H 5.1205 -5.83913 0.657192 0
M  V30 102 H 6.6445 -6.10138 -0.237598 0
M  V30 103 H 8.0585 -5.40083 1.92311 0
M  V30 104 H 6.4555 -5.3528 2.71284 0
M  V30 105 H 7.5255 -3.94346 2.82169 0
M  V30 106 N 8.8686 -0.792821 -1.36206 0
M  V30 107 C 9.7986 -0.207853 -2.32573 0
M  V30 108 C 10.7796 0.659055 -1.56813 0
M  V30 109 O 11.9646 0.592176 -1.84951 0
M  V30 110 C 9.0946 0.655449 -3.41059 0
M  V30 111 C 8.0486 -0.111842 -4.27854 0
M  V30 112 C 7.3746 0.872274 -5.27537 0
M  V30 113 C 8.6746 -1.30299 -5.05786 0
M  V30 114 H 10.3686 -1.01294 -2.81744 0
M  V30 115 H 7.9146 -0.48854 -1.3546 0
M  V30 116 H 9.8676 1.07464 -4.07467 0
M  V30 117 H 8.5916 1.49328 -2.90463 0
M  V30 118 H 7.2506 -0.512053 -3.63006 0
M  V30 119 H 6.8986 1.70523 -4.73214 0
M  V30 120 H 6.5986 0.363291 -5.86476 0
M  V30 121 H 8.1226 1.28996 -5.96818 0
M  V30 122 H 9.5366 -0.959379 -5.65216 0
M  V30 123 H 7.9336 -1.7455 -5.74154 0
M  V30 124 H 9.0036 -2.09663 -4.37229 0
M  V30 125 N 10.3467 1.47872 -0.545128 0
M  V30 126 C 11.2767 2.32661 0.197793 0
M  V30 127 C 12.2577 1.43041 0.920504 0
M  V30 128 O 13.4427 1.71912 0.90333 0
M  V30 129 C 10.5727 3.24569 1.23582 0
M  V30 130 C 9.5267 4.23333 0.630323 0
M  V30 131 C 8.8527 5.0448 1.77211 0
M  V30 132 C 10.1527 5.20704 -0.407974 0
M  V30 133 H 11.8467 2.95024 -0.510045 0
M  V30 134 H 9.3927 1.4187 -0.246731 0
M  V30 135 H 11.3457 3.8272 1.76362 0
M  V30 136 H 10.0697 2.60236 1.97344 0
M  V30 137 H 8.7287 3.6639 0.123922 0
M  V30 138 H 8.3767 4.36561 2.49847 0
M  V30 139 H 8.0767 5.71339 1.37281 0
M  V30 140 H 9.6007 5.65487 2.3034 0
M  V30 141 H 11.0147 5.7329 0.033305 0
M  V30 142 H 9.4117 5.95699 -0.725486 0
M  V30 143 H 10.4817 4.66917 -1.30828 0
M  V30 144 N 11.8248 0.280983 1.55075 0
M  V30 145 C 13.0648 -0.335234 2.01632 0
M  V30 146 C 13.4288 -1.5261 1.16508 0
M  V30 147 O 14.6298 -2.21235 1.52672 0
M  V30 148 C 12.9008 -0.702172 3.50434 0
M  V30 149 S 14.4598 -1.30409 4.18974 0
M  V30 150 H 11.2778 -0.103967 0.703358 0
M  V30 151 H 13.8798 0.404187 1.91276 0
M  V30 152 H 12.5838 0.17333 4.10034 0
M  V30 153 H 12.1148 -1.4729 3.64786 0
M  V30 154 H 14.1298 -2.59253 4.23087 0
M  V30 155 N 13.3029 -1.57598 0.00835791 0
M  V30 156 C 14.2329 -2.1198 -0.979113 0
M  V30 157 C 15.2139 -1.03091 -1.35301 0
M  V30 158 O 16.3989 -1.30818 -1.43528 0
M  V30 159 C 13.5289 -2.62995 -2.26828 0
M  V30 160 C 12.4829 -3.76485 -2.03576 0
M  V30 161 C 11.8089 -4.13846 -3.38579 0
M  V30 162 C 13.1089 -5.0342 -1.39161 0
M  V30 163 H 14.8029 -2.94738 -0.526281 0
M  V30 164 H 12.3489 -1.41783 -0.251704 0
M  V30 165 H 14.3019 -2.99669 -2.96271 0
M  V30 166 H 13.0259 -1.7737 -2.7424 0
M  V30 167 H 11.6849 -3.40217 -1.36557 0
M  V30 168 H 11.3329 -3.25232 -3.83709 0
M  V30 169 H 11.0329 -4.90312 -3.23834 0
M  V30 170 H 12.5569 -4.53086 -4.09323 0
M  V30 171 H 13.9709 -5.37812 -1.98573 0
M  V30 172 H 12.3679 -5.84746 -1.34878 0
M  V30 173 H 13.4379 -4.83548 -0.361868 0
M  V30 174 N 14.781 0.264519 -1.55364 0
M  V30 175 C 15.744 1.31046 -1.88042 0
M  V30 176 C 16.744 1.41943 -0.755569 0
M  V30 177 O 17.934 1.40947 -1.02369 0
M  V30 178 C 15.066 2.69067 -2.09323 0
M  V30 179 H 16.259 1.03297 -2.81549 0
M  V30 180 H 13.812 0.502989 -1.47986 0
M  V30 181 H 14.547 3.01982 -1.18226 0
M  V30 182 H 14.332 2.62542 -2.91229 0
M  V30 183 H 15.822 3.44623 -2.35848 0
M  V30 184 N 16.2591 1.48442 0.529413 0
M  V30 185 C 17.1911 1.59095 1.64989 0
M  V30 186 C 18.2041 0.475212 1.5571 0
M  V30 187 O 19.3931 0.746081 1.6216 0
M  V30 188 C 16.4931 1.50518 3.0364 0
M  V30 189 C 15.6661 2.77142 3.38395 0
M  V30 190 C 14.7251 2.62012 4.56329 0
M  V30 191 O 13.7511 3.35898 4.59522 0
M  V30 192 N 14.9531 1.71667 5.54536 0
M  V30 193 H 17.7181 2.55723 1.56287 0
M  V30 194 H 15.2791 1.45173 0.716697 0
M  V30 195 H 17.2711 1.38091 3.80412 0
M  V30 196 H 15.8411 0.618627 3.06418 0
M  V30 197 H 15.0611 3.0413 2.50796 0
M  V30 198 H 16.3491 3.61146 3.58401 0
M  V30 199 H 15.7471 1.10841 5.54735 0
M  V30 200 H 14.3041 1.65178 6.30523 0
M  V30 201 N 17.7372 -0.778329 1.37039 0
M  V30 202 C 18.6672 -1.90546 1.34962 0
M  V30 203 C 19.6482 -1.68681 0.219274 0
M  V30 204 O 20.8332 -1.89634 0.418624 0
M  V30 205 C 17.9632 -3.27734 1.14925 0
M  V30 206 C 16.9172 -3.64147 2.24902 0
M  V30 207 C 16.2432 -4.99806 1.89996 0
M  V30 208 C 17.5432 -3.71579 3.67051 0
M  V30 209 H 19.2372 -1.92541 2.29277 0
M  V30 210 H 16.7832 -0.924948 1.10366 0
M  V30 211 H 18.7362 -4.06215 1.12104 0
M  V30 212 H 17.4602 -3.26154 0.170631 0
M  V30 213 H 16.1192 -2.8797 2.26868 0
M  V30 214 H 15.7672 -4.94759 0.906796 0
M  V30 215 H 15.4672 -5.25139 2.63634 0
M  V30 216 H 16.9912 -5.80694 1.88749 0
M  V30 217 H 18.4052 -4.40227 3.67251 0
M  V30 218 H 16.8022 -4.08405 4.39688 0
M  V30 219 H 17.8722 -2.72404 4.01154 0
M  V30 220 N 19.2153 -1.21501 -1.00376 0
M  V30 221 C 20.4613 -1.04457 -1.74529 0
M  V30 222 C 20.8163 0.417386 -1.87818 0
M  V30 223 O 20.1093 1.30556 -1.40234 0
M  V30 224 C 20.3033 -1.67673 -3.15627 0
M  V30 225 C 20.1323 -3.19865 -3.16096 0
M  V30 226 C 18.9023 -3.88915 -3.22604 0
M  V30 227 C 21.1003 -4.16936 -3.01112 0
M  V30 228 N 19.0823 -5.28284 -3.12712 0
M  V30 229 C 20.4533 -5.43066 -2.99131 0
M  V30 230 C 22.5083 -4.07968 -2.85423 0
M  V30 231 C 21.2113 -6.6126 -2.83068 0
M  V30 232 C 23.2373 -5.258 -2.70718 0
M  V30 233 C 22.5993 -6.50842 -2.69414 0
M  V30 234 H 18.6983 -0.436584 -0.648782 0
M  V30 235 H 21.2823 -1.53875 -1.19293 0
M  V30 236 H 19.4533 -1.20822 -3.6913 0
M  V30 237 H 21.1853 -1.43824 -3.78281 0
M  V30 238 H 17.9403 -3.39847 -3.2985 0
M  V30 239 H 18.3643 -6.01284 -3.11105 0
M  V30 240 H 23.0063 -3.1209 -2.85236 0
M  V30 241 H 20.7243 -7.57298 -2.82002 0
M  V30 242 H 24.3103 -5.20683 -2.59577 0
M  V30 243 H 23.1903 -7.40485 -2.5817 0
M  V30 244 N 20.6934 1.19889 -1.02296 0
M  V30 245 C 21.9414 1.89046 -0.714558 0
M  V30 246 C 22.2624 1.79636 0.758681 0
M  V30 247 O 21.5324 1.20292 1.54618 0
M  V30 248 H 20.1124 0.699802 -0.261317 0
M  V30 249 H 22.7744 1.45574 -1.29592 0
M  V30 250 H 21.8704 2.95524 -1.0036 0
M  V30 251 N 22.1715 0.800033 1.35784 0
M  V30 252 C 23.4115 0.382891 2.00782 0
M  V30 253 C 23.7755 -1.02891 1.62103 0
M  V30 254 O 24.9765 -1.54771 2.19771 0
M  V30 255 C 23.2475 0.553299 3.53091 0
M  V30 256 S 24.8065 0.225608 4.3822 0
M  V30 257 H 21.6245 0.145737 0.695904 0
M  V30 258 H 24.2265 1.04085 1.65489 0
M  V30 259 H 22.9305 1.58091 3.78729 0
M  V30 260 H 22.4615 -0.120214 3.93216 0
M  V30 261 H 24.4765 -0.969074 4.86645 0
M  V30 262 N 23.6496 -1.47581 0.552962 0
M  V30 263 C 24.5996 -2.26961 -0.217423 0
M  V30 264 C 25.5836 -1.34099 -0.889168 0
M  V30 265 O 26.7756 -1.58483 -0.788176 0
M  V30 266 C 23.9046 -3.19756 -1.24944 0
M  V30 267 C 22.9906 -4.20097 -0.581327 0
M  V30 268 N 23.3816 -5.04614 0.346171 0
M  V30 269 C 21.6796 -4.38099 -0.835767 0
M  V30 270 C 22.3806 -5.77052 0.733854 0
M  V30 271 N 21.3566 -5.43526 0.0896567 0
M  V30 272 H 25.1586 -2.89688 0.495761 0
M  V30 273 H 22.6726 -1.58068 0.372597 0
M  V30 274 H 24.6696 -3.75305 -1.81527 0
M  V30 275 H 23.3296 -2.58585 -1.96376 0
M  V30 276 H 24.3406 -5.12869 0.720098 0
M  V30 277 H 21.0176 -3.88102 -1.53892 0
M  V30 278 H 22.4076 -6.5504 1.49574 0
M  V30 279 N 25.1277 -0.289203 -1.54924 0
M  V30 280 C 26.3527 0.329299 -2.04769 0
M  V30 281 C 26.7777 1.4763 -1.16564 0
M  V30 282 O 26.1357 1.80527 -0.167186 0
M  V30 283 C 26.1837 0.774438 -3.52186 0
M  V30 284 O 25.2877 1.88038 -3.67036 0
M  V30 285 H 24.6287 0.0659259 -0.660719 0
M  V30 286 H 27.1587 -0.42761 -2.00082 0
M  V30 287 H 27.1687 1.06642 -3.93816 0
M  V30 288 H 25.8437 -0.0646707 -4.1585 0
M  V30 289 H 24.4207 1.58985 -3.3731 0
M  V30 290 N 26.6058 1.57591 -0.0167156 0
M  V30 291 C 27.5688 2.08393 0.954204 0
M  V30 292 C 28.5688 0.996531 1.26198 0
M  V30 293 O 29.7588 1.25858 1.20438 0
M  V30 294 C 26.8908 2.5394 2.27436 0
M  V30 295 H 28.0838 2.95455 0.514451 0
M  V30 296 H 25.6368 1.54582 0.231089 0
M  V30 297 H 26.3718 1.70171 2.76066 0
M  V30 298 H 26.1568 3.33371 2.06412 0
M  V30 299 H 27.6468 2.93512 2.97053 0
M  V30 300 N 28.0839 -0.256276 1.55502 0
M  V30 301 C 29.4949 -0.826068 1.67431 0
M  V30 302 C 29.8459 -1.86396 0.612446 0
M  V30 303 O 28.9709 -2.15031 -0.243025 0
M  V30 304 C 29.5659 -1.50512 3.03532 0
M  V30 305 C 28.1249 -2.02273 3.17431 0
M  V30 306 C 27.2719 -0.870548 2.63281 0
M  V30 307 H 30.2229 -0.0322728 1.58667 0
M  V30 308 H 30.2439 -2.37279 2.97454 0
M  V30 309 H 29.7559 -0.749484 3.80794 0
M  V30 310 H 27.8569 -2.80746 2.44974 0
M  V30 311 H 27.9699 -2.22655 4.24219 0
M  V30 312 H 26.3339 -1.26851 2.20864 0
M  V30 313 H 27.1169 -0.128149 3.43061 0
M  V30 314 N 29.562 -1.4872 -0.521534 0
M  V30 315 C 30.512 -1.60269 -1.62166 0
M  V30 316 C 31.496 -0.45935 -1.54204 0
M  V30 317 O 32.688 -0.711241 -1.62081 0
M  V30 318 C 29.817 -1.65344 -3.00859 0
M  V30 319 C 28.903 -2.85187 -3.13894 0
M  V30 320 N 29.294 -4.09509 -2.96877 0
M  V30 321 C 27.592 -2.82695 -3.44963 0
M  V30 322 C 28.293 -4.89959 -3.13552 0
M  V30 323 N 27.269 -4.22934 -3.41508 0
M  V30 324 H 31.071 -2.5413 -1.47632 0
M  V30 325 H 28.585 -1.45209 -0.727194 0
M  V30 326 H 30.582 -1.71713 -3.79895 0
M  V30 327 H 29.242 -0.726058 -3.16478 0
M  V30 328 H 30.253 -4.39814 -2.73467 0
M  V30 329 H 26.93 -1.99249 -3.66887 0
M  V30 330 H 28.32 -5.98654 -3.05061 0
M  V30 331 N 31.0401 0.771051 -1.3745 0
M  V30 332 C 32.2881 1.52661 -1.32435 0
M  V30 333 C 32.6091 1.9479 0.0905024 0
M  V30 334 O 31.8791 1.66348 1.03466 0
M  V30 335 H 30.4591 0.566218 -0.487244 0
M  V30 336 H 33.1211 0.917636 -1.71946 0
M  V30 337 H 32.2171 2.42568 -1.96385 0
M  V30 338 N 32.5182 1.22032 0.997298 0
M  V30 339 C 33.9292 1.0397 1.55071 0
M  V30 340 C 34.2802 -0.398192 1.92117 0
M  V30 341 O 33.4052 -1.28254 1.74298 0
M  V30 342 C 34.0002 1.88109 2.81781 0
M  V30 343 C 32.5592 1.74357 3.33581 0
M  V30 344 C 31.7062 1.84846 2.06706 0
M  V30 345 H 34.6572 1.35941 0.818883 0
M  V30 346 H 34.6782 1.39589 3.53971 0
M  V30 347 H 34.1902 2.92754 2.54787 0
M  V30 348 H 32.2912 0.72427 3.65493 0
M  V30 349 H 32.4042 2.56772 4.04481 0
M  V30 350 H 30.7682 1.28238 2.20062 0
M  V30 351 H 31.5512 2.91014 1.82114 0
M  V30 352 N 33.9963 -1.19345 1.0293 0
M  V30 353 C 35.2443 -1.88665 0.724574 0
M  V30 354 C 35.5653 -1.80036 -0.749144 0
M  V30 355 O 34.8353 -1.2111 -1.53978 0
M  V30 356 H 33.4153 -0.698406 0.265025 0
M  V30 357 H 36.0773 -1.44885 1.30362 0
M  V30 358 H 35.1733 -2.94987 1.01926 0
M  V30 359 N 35.4744 -0.807222 -1.35358 0
M  V30 360 C 36.4044 -0.232509 -2.3234 0
M  V30 361 C 37.3854 0.642386 -1.57504 0
M  V30 362 O 38.5704 0.572526 -1.85569 0
M  V30 363 C 35.7004 0.619238 -3.41735 0
M  V30 364 C 34.6544 -0.157215 -4.27711 0
M  V30 365 C 33.9804 0.816273 -5.28433 0
M  V30 366 C 35.2804 -1.35656 -5.04376 0
M  V30 367 H 36.9744 -1.04276 -2.80654 0
M  V30 368 H 34.5204 -0.50288 -1.34934 0
M  V30 369 H 36.4734 1.03137 -4.08584 0
M  V30 370 H 35.1974 1.46239 -2.92031 0
M  V30 371 H 33.8564 -0.550525 -3.62443 0
M  V30 372 H 33.5044 1.65494 -4.74996 0
M  V30 373 H 33.2044 0.301067 -5.86828 0
M  V30 374 H 34.7284 1.22659 -5.98153 0
M  V30 375 H 36.1424 -1.01927 -5.64166 0
M  V30 376 H 34.5394 -1.8063 -5.7227 0
M  V30 377 H 35.6094 -2.14288 -4.34981 0
M  V30 378 N 36.9525 1.47285 -0.560781 0
M  V30 379 C 38.2015 2.01668 -0.035895 0
M  V30 380 C 38.5145 1.44021 1.32353 0
M  V30 381 O 39.7205 1.90088 1.93853 0
M  V30 382 C 38.1765 3.59897 -0.0136659 0
M  V30 383 C 37.7845 4.26536 -1.37006 0
M  V30 384 C 39.5285 4.22017 0.458425 0
M  V30 385 C 37.4355 5.76782 -1.30675 0
M  V30 386 H 36.3655 0.753938 -0.00964879 0
M  V30 387 H 39.0165 1.69243 -0.709166 0
M  V30 388 H 37.3985 3.89301 0.725325 0
M  V30 389 H 38.5725 4.0877 -2.12705 0
M  V30 390 H 36.8875 3.76419 -1.78038 0
M  V30 391 H 39.4845 5.32124 0.524247 0
M  V30 392 H 39.8275 3.89437 1.4712 0
M  V30 393 H 40.3605 3.97159 -0.225818 0
M  V30 394 H 37.0995 6.13988 -2.29564 0
M  V30 395 H 36.6195 5.96875 -0.591622 0
M  V30 396 H 38.2985 6.39063 -1.01033 0
M  V30 397 N 38.4306 0.297415 1.54768 0
M  V30 398 C 39.6606 -0.315165 2.04182 0
M  V30 399 C 40.0686 -1.4834 1.17439 0
M  V30 400 O 39.4116 -1.82695 0.191891 0
M  V30 401 C 39.4736 -0.837583 3.49607 0
M  V30 402 C 39.1376 0.204912 4.5654 0
M  V30 403 C 40.1346 1.03214 5.09552 0
M  V30 404 C 37.8196 0.345578 5.0111 0
M  V30 405 C 39.8136 1.986 6.05671 0
M  V30 406 C 37.5006 1.30289 5.97049 0
M  V30 407 C 38.4986 2.12159 6.49213 0
M  V30 408 O 38.1866 3.06268 7.43273 0
M  V30 409 H 37.9186 -0.0729646 0.672051 0
M  V30 410 H 40.4726 0.433907 2.00765 0
M  V30 411 H 38.7026 -1.63712 3.50336 0
M  V30 412 H 40.3916 -1.36566 3.82236 0
M  V30 413 H 41.1576 0.934312 4.75916 0
M  V30 414 H 37.0366 -0.28171 4.60138 0
M  V30 415 H 40.5806 2.62542 6.46311 0
M  V30 416 H 36.4776 1.40145 6.30103 0
M  V30 417 H 37.2456 3.01205 7.61064 0
M  V30 418 N 39.9087 -1.5758 0.0250728 0
M  V30 419 C 41.3247 -1.56124 -0.331282 0
M  V30 420 C 41.5247 -1.03029 -1.73169 0
M  V30 421 O 40.5807 -0.675215 -2.43305 0
M  V30 422 C 41.8937 -3.00139 -0.183584 0
M  V30 423 C 43.4417 -3.11946 -0.256654 0
M  V30 424 C 43.9167 -4.57793 -0.137792 0
M  V30 425 N 45.4077 -4.6279 -0.194904 0
M  V30 426 C 46.1427 -5.7326 -0.126655 0
M  V30 427 N 45.6387 -6.928 -0.00755288 0
M  V30 428 N 47.4317 -5.61811 -0.180348 0
M  V30 429 H 39.5827 -1.90424 0.94087 0
M  V30 430 H 41.8457 -0.875761 0.362968 0
M  V30 431 H 41.5517 -3.4292 0.780927 0
M  V30 432 H 41.4257 -3.64899 -0.955448 0
M  V30 433 H 43.8127 -2.69079 -1.21162 0
M  V30 434 H 43.8937 -2.49915 0.545517 0
M  V30 435 H 43.5377 -5.01339 0.813739 0
M  V30 436 H 43.4677 -5.17798 -0.958775 0
M  V30 437 H 45.9587 -3.76807 -0.287267 0
M  V30 438 H 46.2717 -7.72791 0.0379428 0
M  V30 439 H 44.6167 -6.94995 0.0271731 0
M  V30 440 H 47.8077 -4.6731 -0.271767 0
M  V30 441 H 47.9807 -6.47882 -0.123697 0
M  V30 442 N 41.3868 0.248026 -1.55636 0
M  V30 443 C 42.3188 1.32993 -1.8667 0
M  V30 444 C 43.3318 1.44345 -0.752877 0
M  V30 445 O 44.5208 1.45715 -1.03098 0
M  V30 446 C 41.6208 2.70863 -2.03682 0
M  V30 447 C 40.7938 2.81792 -3.34532 0
M  V30 448 C 39.8528 4.005 -3.41301 0
M  V30 449 O 38.8788 3.9008 -4.14519 0
M  V30 450 N 40.0808 5.13618 -2.70512 0
M  V30 451 H 42.8458 1.06707 -2.8006 0
M  V30 452 H 40.4068 0.438129 -1.55859 0
M  V30 453 H 42.3988 3.48612 -2.05553 0
M  V30 454 H 40.9688 2.89862 -1.17041 0
M  V30 455 H 40.1888 1.90729 -3.44987 0
M  V30 456 H 41.4768 2.86043 -4.20781 0
M  V30 457 H 40.8748 5.24975 -2.10755 0
M  V30 458 H 39.4318 5.89505 -2.78077 0
M  V30 459 N 42.8649 1.48995 0.513639 0
M  V30 460 C 44.2759 1.5119 1.09537 0
M  V30 461 C 44.6269 0.290906 1.94031 0
M  V30 462 O 43.7519 -0.60049 2.07902 0
M  V30 463 C 44.3469 2.73964 1.99322 0
M  V30 464 C 42.9059 2.78978 2.52682 0
M  V30 465 C 42.0529 2.44934 1.30009 0
M  V30 466 H 45.0039 1.55875 0.298125 0
M  V30 467 H 45.0249 2.53409 2.83838 0
M  V30 468 H 44.5369 3.62813 1.37799 0
M  V30 469 H 42.6379 1.94378 3.1788 0
M  V30 470 H 42.7509 3.8083 2.90698 0
M  V30 471 H 41.1149 1.9644 1.62122 0
M  V30 472 H 41.8979 3.36043 0.702131 0
M  V30 473 N 44.343 -0.763751 1.37857 0
M  V30 474 C 45.291 -1.89864 1.34367 0
M  V30 475 C 46.285 -1.67816 0.231143 0
M  V30 476 O 47.491 -1.75508 0.399617 0
M  V30 477 H 43.866 -0.624501 0.41893 0
M  V30 478 H 45.837 -1.89925 2.30155 0
M  V30 479 C 44.586 -3.27227 1.1755 0
M  V30 480 H 43.909 -3.44773 2.02414 0
M  V30 481 H 45.349 -4.06911 1.1916 0
M  V30 482 C 43.808 -3.36692 -0.118311 0
M  V30 483 O 44.338 -3.86374 -1.09902 0
M  V30 484 N 42.544 -2.90092 -0.171717 0
M  V30 485 H 42.091 -2.49853 0.627012 0
M  V30 486 H 42.049 -2.96806 -1.03699 0
M  V30 487 N 45.8211 -1.22559 -0.990812 0
M  V30 488 C 47.0611 -1.06302 -1.74583 0
M  V30 489 C 47.4251 0.394737 -1.87898 0
M  V30 490 O 48.6261 0.678214 -2.60103 0
M  V30 491 C 46.8971 -1.75699 -3.11231 0
M  V30 492 S 48.4561 -1.74882 -4.02445 0
M  V30 493 H 45.2741 -0.380639 -0.600529 0
M  V30 494 H 47.8761 -1.55532 -1.18449 0
M  V30 495 H 46.5801 -2.80923 -2.99183 0
M  V30 496 H 46.1111 -1.26708 -3.72436 0
M  V30 497 H 48.1261 -0.799997 -4.89709 0
M  V30 498 N 47.2992 1.18797 -1.03562 0
M  V30 499 C 48.5762 1.84469 -0.650434 0
M  V30 500 C 48.9562 1.92319 0.870433 0
M  V30 501 O 48.3042 1.44528 1.76986 0
M  V30 502 C 48.5142 3.2306 -1.32036 0
M  V30 503 C 49.8622 3.9915 -1.44792 0
M  V30 504 O 50.8862 3.32481 -1.27806 0
M  V30 505 O 49.7452 5.18587 -1.72423 0
M  V30 506 H 46.8392 0.795251 -0.226946 0
M  V30 507 H 49.3852 1.26231 -1.13419 0
M  V30 508 H 48.1572 3.1222 -2.3587 0
M  V30 509 H 47.7802 3.88949 -0.8249 0
M  V30 510 N 48.7773 0.814389 1.34928 0
M  V30 511 C 50.0543 0.321363 1.92942 0
M  V30 512 C 50.4343 -1.19014 1.74353 0
M  V30 513 O 49.7823 -1.99328 1.11716 0
M  V30 514 C 49.9923 0.741323 3.41036 0
M  V30 515 C 51.3403 0.735266 4.18185 0
M  V30 516 O 52.3643 0.68336 3.49584 0
M  V30 517 O 51.2233 0.800703 5.40602 0
M  V30 518 H 48.3173 0.0858893 0.822528 0
M  V30 519 H 50.8633 0.898609 1.43955 0
M  V30 520 H 49.6353 1.78276 3.4833 0
M  V30 521 H 49.2583 0.139307 3.97356 0
M  V30 522 N 50.2554 -1.46986 0.568584 0
M  V30 523 C 51.6664 -1.86188 0.138219 0
M  V30 524 C 52.0174 -1.47388 -1.29504 0
M  V30 525 O 51.1424 -0.88219 -1.97602 0
M  V30 526 C 51.7374 -3.3792 0.244065 0
M  V30 527 C 50.2964 -3.76171 -0.131335 0
M  V30 528 C 49.4434 -2.71027 0.586465 0
M  V30 529 H 52.3944 -1.38342 0.777645 0
M  V30 530 H 52.4154 -3.76729 -0.534351 0
M  V30 531 H 51.9274 -3.66128 1.28731 0
M  V30 532 H 50.0284 -3.5358 -1.17526 0
M  V30 533 H 50.1414 -4.78523 0.235146 0
M  V30 534 H 48.5054 -2.54684 0.0282722 0
M  V30 535 H 49.2884 -3.02077 1.63109 0
M  V30 536 N 51.7335 -0.305618 -1.54608 0
M  V30 537 C 52.6435 0.57778 -2.27374 0
M  V30 538 C 53.6595 1.14451 -1.31061 0
M  V30 539 O 54.8355 1.16831 -1.6405 0
M  V30 540 C 51.9005 1.73123 -3.00382 0
M  V30 541 C 50.9615 1.19812 -4.12242 0
M  V30 542 C 50.1945 2.2966 -4.81759 0
M  V30 543 O 50.4175 3.49651 -4.50666 0
M  V30 544 O 49.3515 1.96091 -5.69062 0
M  V30 545 H 53.1775 -0.012624 -3.03697 0
M  V30 546 H 50.7625 -0.0719184 -1.49227 0
M  V30 547 H 52.6445 2.40315 -3.4616 0
M  V30 548 H 51.3195 2.30815 -2.26949 0
M  V30 549 H 50.2265 0.491798 -3.70853 0
M  V30 550 H 51.5595 0.666566 -4.87666 0
M  V30 551 N 53.2116 1.57565 -0.0334293 0
M  V30 552 C 54.4396 1.9628 0.654347 0
M  V30 553 C 54.8546 0.910138 1.65414 0
M  V30 554 O 54.2116 -0.107595 1.82183 0
M  V30 555 C 54.2626 3.35067 1.35693 0
M  V30 556 O 53.9836 4.36296 0.397191 0
M  V30 557 C 55.4846 3.88439 2.13613 0
M  V30 558 H 52.7046 0.646369 0.180132 0
M  V30 559 H 55.2486 2.04282 -0.0944721 0
M  V30 560 H 53.4036 3.2827 2.05712 0
M  V30 561 H 53.8176 5.1678 0.896597 0
M  V30 562 H 55.2916 4.8788 2.58219 0
M  V30 563 H 55.7686 3.22914 2.97696 0
M  V30 564 H 56.3746 3.98516 1.48543 0
M  V30 565 N 54.6897 -0.239769 1.55765 0
M  V30 566 C 55.5997 -1.31831 1.94056 0
M  V30 567 C 56.6157 -1.52275 0.841925 0
M  V30 568 O 57.7917 -1.65759 1.14394 0
M  V30 569 C 54.8567 -2.65156 2.23368 0
M  V30 570 C 53.9177 -2.53173 3.46701 0
M  V30 571 C 53.1507 -3.8014 3.74606 0
M  V30 572 O 53.3737 -4.82343 3.04469 0
M  V30 573 O 52.3077 -3.78344 4.68123 0
M  V30 574 H 56.1337 -1.02347 2.85935 0
M  V30 575 H 53.7187 -0.441123 1.42739 0
M  V30 576 H 55.6007 -3.43929 2.43497 0
M  V30 577 H 54.2757 -2.94358 1.34666 0
M  V30 578 H 53.1827 -1.72662 3.31871 0
M  V30 579 H 54.5157 -2.28915 4.35728 0
M  V30 580 N 56.1678 -1.49265 -0.50573 0
M  V30 581 C 57.0778 -1.68312 -1.63427 0
M  V30 582 C 58.0938 -0.565682 -1.64548 0
M  V30 583 O 59.2698 -0.839801 -1.83055 0
M  V30 584 C 56.3348 -1.74107 -2.99813 0
M  V30 585 C 55.3958 -2.97653 -3.09356 0
M  V30 586 C 54.6288 -3.03163 -4.39236 0
M  V30 587 O 54.8518 -2.16396 -5.27758 0
M  V30 588 O 53.7858 -3.9558 -4.53652 0
M  V30 589 H 57.6118 -2.63907 -1.50289 0
M  V30 590 H 55.1968 -1.32951 -0.681502 0
M  V30 591 H 57.0788 -1.803 -3.80881 0
M  V30 592 H 55.7538 -0.816901 -3.13223 0
M  V30 593 H 54.6608 -2.96981 -2.27493 0
M  V30 594 H 55.9938 -3.89535 -3.00871 0
M  V30 595 N 57.6459 0.756429 -1.3826 0
M  V30 596 C 58.6089 1.85176 -1.35065 0
M  V30 597 C 59.6089 1.58818 -0.251703 0
M  V30 598 O 60.7989 1.66615 -0.508433 0
M  V30 599 C 57.9309 3.22596 -1.10201 0
M  V30 600 H 59.1239 1.89417 -2.3251 0
M  V30 601 H 56.6769 0.95783 -1.23512 0
M  V30 602 H 57.4119 3.24025 -0.133504 0
M  V30 603 H 57.1969 3.43122 -1.89762 0
M  V30 604 H 58.6869 4.02673 -1.10654 0
M  V30 605 N 59.124 1.23083 0.984299 0
M  V30 606 C 60.087 1.00979 2.05757 0
M  V30 607 C 61.087 -0.0269573 1.60777 0
M  V30 608 O 62.277 0.212403 1.729 0
M  V30 609 C 59.409 0.527072 3.36801 0
M  V30 610 H 60.602 1.9622 2.26799 0
M  V30 611 H 58.155 1.05072 1.15714 0
M  V30 612 H 58.89 -0.429294 3.21446 0
M  V30 613 H 58.675 1.27515 3.70786 0
M  V30 614 H 60.165 0.392942 4.15747 0
M  V30 615 N 60.6021 -1.18246 1.0419 0
M  V30 616 C 61.5321 -2.24127 0.654914 0
M  V30 617 C 62.5131 -1.66617 -0.342451 0
M  V30 618 O 63.6981 -1.92924 -0.222277 0
M  V30 619 C 60.8281 -3.47295 0.0183757 0
M  V30 620 C 59.7821 -4.17563 0.939414 0
M  V30 621 C 59.1081 -5.34438 0.167286 0
M  V30 622 C 60.4081 -4.70917 2.25908 0
M  V30 623 H 62.1021 -2.56753 1.54007 0
M  V30 624 H 59.6481 -1.23414 0.74195 0
M  V30 625 H 61.6011 -4.20572 -0.264082 0
M  V30 626 H 60.3251 -3.13907 -0.901664 0
M  V30 627 H 58.9841 -3.46186 1.20628 0
M  V30 628 H 58.6321 -4.97298 -0.7552 0
M  V30 629 H 58.3321 -5.82388 0.780901 0
M  V30 630 H 59.8561 -6.10504 -0.108125 0
M  V30 631 H 61.2701 -5.35882 2.03724 0
M  V30 632 H 59.6671 -5.29406 2.82577 0
M  V30 633 H 60.7371 -3.88272 2.9047 0
M  V30 634 N 62.0802 -0.821533 -1.34494 0
M  V30 635 C 63.3262 -0.409552 -1.98622 0
M  V30 636 C 63.6592 1.0244 -1.64984 0
M  V30 637 O 62.9342 1.71325 -0.920758 0
M  V30 638 C 63.2172 -0.610458 -3.54888 0
M  V30 639 C 63.0702 -2.09043 -3.98273 0
M  V30 640 C 64.3892 -0.0455379 -4.40076 0
M  V30 641 H 61.5082 -0.15028 -0.721516 0
M  V30 642 H 64.1502 -1.03384 -1.59411 0
M  V30 643 H 62.3002 -0.079044 -3.8842 0
M  V30 644 H 63.9722 -2.68537 -3.75081 0
M  V30 645 H 62.2152 -2.58139 -3.48635 0
M  V30 646 H 62.8862 -2.18182 -5.07051 0
M  V30 647 H 65.3622 -0.499557 -4.1309 0
M  V30 648 H 64.2382 -0.215922 -5.48475 0
M  V30 649 H 64.4992 1.04939 -4.29465 0
M  V30 650 N 63.5583 1.46682 -0.576371 0
M  V30 651 C 64.5213 2.28707 0.150239 0
M  V30 652 C 65.5213 1.38035 0.824794 0
M  V30 653 O 66.7113 1.60476 0.677719 0
M  V30 654 C 63.8433 3.18248 1.22192 0
M  V30 655 H 65.0363 2.94423 -0.570521 0
M  V30 656 H 62.5893 1.52688 -0.334078 0
M  V30 657 H 63.3243 2.57265 1.97447 0
M  V30 658 H 63.1093 3.85 0.742812 0
M  V30 659 H 64.5993 3.80001 1.73172 0
M  V30 660 N 65.0364 0.313813 1.54444 0
M  V30 661 C 66.2854 -0.292519 1.99568 0
M  V30 662 C 66.5984 -1.54011 1.20582 0
M  V30 663 O 67.8044 -2.22183 1.56035 0
M  V30 664 C 66.2604 -0.571752 3.55329 0
M  V30 665 C 65.8684 0.658229 4.43138 0
M  V30 666 C 67.6124 -1.13857 4.08946 0
M  V30 667 C 65.5194 0.351439 5.90355 0
M  V30 668 H 64.4494 -0.113079 0.745472 0
M  V30 669 H 67.1004 0.424518 1.78522 0
M  V30 670 H 65.4824 -1.34872 3.72325 0
M  V30 671 H 66.6564 1.43403 4.37918 0
M  V30 672 H 64.9714 1.14458 4.0036 0
M  V30 673 H 67.5684 -1.38257 5.16516 0
M  V30 674 H 67.9114 -2.08489 3.6033 0
M  V30 675 H 68.4444 -0.423015 3.95544 0
M  V30 676 H 65.1834 1.26667 6.43145 0
M  V30 677 H 64.7034 -0.386842 5.98551 0
M  V30 678 H 66.3824 -0.0423134 6.46986 0
M  V30 679 N 66.5145 -1.57545 0.0417849 0
M  V30 680 C 67.7915 -1.83642 -0.673433 0
M  V30 681 C 68.1715 -0.928298 -1.89594 0
M  V30 682 O 67.5195 0.0129955 -2.28496 0
M  V30 683 C 67.7295 -3.33155 -1.03964 0
M  V30 684 C 69.0775 -3.99941 -1.42592 0
M  V30 685 O 70.1015 -3.37725 -1.13226 0
M  V30 686 O 68.9605 -5.09619 -1.9736 0
M  V30 687 H 66.0545 -0.757638 -0.331533 0
M  V30 688 H 68.6005 -1.69554 0.070433 0
M  V30 689 H 67.3725 -3.9093 -0.170098 0
M  V30 690 H 66.9955 -3.52396 -1.84126 0
M  V30 691 N 67.9926 0.231505 -1.5589 0
M  V30 692 C 69.2226 0.973092 -1.82248 0
M  V30 693 C 69.6306 1.78845 -0.617328 0
M  V30 694 O 68.9736 1.78752 0.423499 0
M  V30 695 C 69.0356 1.94732 -3.02192 0
M  V30 696 C 68.6996 1.31743 -4.37599 0
M  V30 697 C 69.6966 0.712238 -5.14998 0
M  V30 698 C 67.3816 1.33218 -4.84312 0
M  V30 699 C 69.3756 0.130195 -6.37267 0
M  V30 700 C 67.0626 0.746286 -6.06526 0
M  V30 701 C 68.0606 0.146337 -6.82843 0
M  V30 702 O 67.7486 -0.430465 -8.02747 0
M  V30 703 H 67.4806 0.29125 -0.61004 0
M  V30 704 H 70.0346 0.254915 -2.03812 0
M  V30 705 H 68.2646 2.70422 -2.76422 0
M  V30 706 H 69.9536 2.55362 -3.15508 0
M  V30 707 H 70.7196 0.69324 -4.8002 0
M  V30 708 H 66.5986 1.78854 -4.24891 0
M  V30 709 H 70.1426 -0.33871 -6.96777 0
M  V30 710 H 66.0396 0.762663 -6.40979 0
M  V30 711 H 66.8076 -0.323818 -8.17859 0
M  V30 712 N 69.4707 1.49531 0.497807 0
M  V30 713 C 70.7197 1.58426 1.24837 0
M  V30 714 C 71.0327 0.277643 1.93619 0
M  V30 715 O 72.2387 0.24517 2.70391 0
M  V30 716 C 70.6947 2.79538 2.26686 0
M  V30 717 C 70.3027 4.16971 1.63828 0
M  V30 718 C 72.0467 2.97764 3.0255 0
M  V30 719 C 69.9537 5.29301 2.63807 0
M  V30 720 H 68.8837 0.58989 0.469623 0
M  V30 721 H 71.5347 1.75923 0.521857 0
M  V30 722 H 69.9167 2.55542 3.02514 0
M  V30 723 H 71.0907 4.51116 0.939711 0
M  V30 724 H 69.4057 4.04129 1.00342 0
M  V30 725 H 72.0027 3.78856 3.77323 0
M  V30 726 H 72.3457 2.08448 3.60354 0
M  V30 727 H 72.8787 3.21815 2.33838 0
M  V30 728 H 69.6177 6.20687 2.10779 0
M  V30 729 H 69.1377 4.99606 3.31894 0
M  V30 730 H 70.8167 5.58768 3.2617 0
M  V30 731 N 70.9488 -0.749086 1.3866 0
M  V30 732 C 71.8968 -1.88428 1.36373 0
M  V30 733 C 72.8908 -1.67561 0.248929 0
M  V30 734 O 74.0968 -1.75074 0.41821 0
M  V30 735 H 70.4718 -0.620023 0.42553 0
M  V30 736 H 72.4428 -1.87473 2.32156 0
M  V30 737 C 71.1918 -3.25961 1.21014 0
M  V30 738 H 70.5148 -3.42607 2.06059 0
M  V30 739 H 71.9548 -4.05625 1.23469 0
M  V30 740 C 70.4138 -3.36799 -0.0825941 0
M  V30 741 O 70.9438 -3.87517 -1.05797 0
M  V30 742 N 69.1498 -2.90258 -0.140939 0
M  V30 743 H 68.6968 -2.49174 0.653477 0
M  V30 744 H 68.6548 -2.97889 -1.00545 0
M  V30 745 N 72.4269 -1.23603 -0.977757 0
M  V30 746 C 73.3589 -0.977369 -2.07317 0
M  V30 747 C 74.3719 0.0495845 -1.62724 0
M  V30 748 O 75.5609 -0.186261 -1.77526 0
M  V30 749 C 72.6609 -0.451216 -3.35883 0
M  V30 750 C 71.8339 -1.53896 -4.09432 0
M  V30 751 C 70.8929 -1.01721 -5.16274 0
M  V30 752 O 69.9189 -1.70676 -5.43009 0
M  V30 753 N 71.1209 0.153594 -5.80297 0
M  V30 754 H 73.8859 -1.92047 -2.30082 0
M  V30 755 H 71.4469 -1.14497 -1.14465 0
M  V30 756 H 73.4389 -0.0871574 -4.04606 0
M  V30 757 H 72.0089 0.397368 -3.10064 0
M  V30 758 H 71.2289 -2.07566 -3.35127 0
M  V30 759 H 72.5169 -2.27037 -4.55337 0
M  V30 760 H 71.9149 0.730323 -5.60966 0
M  V30 761 H 70.4719 0.458892 -6.50183 0
M  V30 762 N 73.905 1.17692 -1.04816 0
M  V30 763 C 74.853 2.23632 -0.63966 0
M  V30 764 C 75.847 1.6601 0.337219 0
M  V30 765 O 77.053 1.78844 0.203693 0
M  V30 766 H 73.428 0.727949 -0.188665 0
M  V30 767 H 75.399 2.55387 -1.54337 0
M  V30 768 C 74.148 3.4769 -0.0264051 0
M  V30 769 H 73.471 3.92331 -0.769164 0
M  V30 770 H 74.911 4.23418 0.222098 0
M  V30 771 C 73.37 3.13807 1.22584 0
M  V30 772 O 73.9 3.28236 2.31569 0
M  V30 773 N 72.106 2.68065 1.12202 0
M  V30 774 H 71.653 2.56525 0.235133 0
M  V30 775 H 71.611 2.45767 1.96076 0
M  V30 776 N 75.3831 0.828654 1.34056 0
M  V30 777 C 76.3131 0.269443 2.3194 0
M  V30 778 C 77.2941 -0.617247 1.58506 0
M  V30 779 O 78.4791 -0.542931 1.86456 0
M  V30 780 C 75.6091 -0.564793 3.42677 0
M  V30 781 C 74.5631 0.225241 4.27407 0
M  V30 782 C 73.8891 -0.7321 5.29664 0
M  V30 783 C 75.1891 1.43663 5.02154 0
M  V30 784 H 76.8831 1.08728 2.7896 0
M  V30 785 H 74.4291 0.524283 1.34117 0
M  V30 786 H 76.3821 -0.966233 4.10173 0
M  V30 787 H 75.1061 -1.41574 2.9432 0
M  V30 788 H 73.7651 0.608117 3.61521 0
M  V30 789 H 73.4131 -1.57916 4.77568 0
M  V30 790 H 73.1131 -0.20767 5.87233 0
M  V30 791 H 74.6371 -1.13128 6.00029 0
M  V30 792 H 76.0511 1.1089 5.62473 0
M  V30 793 H 74.4481 1.89711 5.69324 0
M  V30 794 H 75.5181 2.21181 4.31517 0
M  V30 795 N 76.8612 -1.46375 0.584142 0
M  V30 796 C 78.2722 -1.86031 0.157959 0
M  V30 797 C 78.6232 -1.48753 -1.27933 0
M  V30 798 O 77.7482 -0.903098 -1.96655 0
M  V30 799 C 78.3432 -3.37642 0.279892 0
M  V30 800 C 76.9022 -3.76289 -0.09143 0
M  V30 801 C 76.0492 -2.7039 0.615178 0
M  V30 802 H 79.0002 -1.37509 0.792274 0
M  V30 803 H 79.0212 -3.77275 -0.494364 0
M  V30 804 H 78.5332 -3.64742 1.32607 0
M  V30 805 H 76.6342 -3.54806 -1.13769 0
M  V30 806 H 76.7472 -4.78246 0.285886 0
M  V30 807 H 75.1112 -2.5464 0.0552833 0
M  V30 808 H 75.8942 -3.0033 1.66303 0
M  V30 809 N 78.3393 -0.321999 -1.54275 0
M  V30 810 C 79.5853 0.274234 -2.01543 0
M  V30 811 C 79.9403 1.499 -1.20614 0
M  V30 812 O 79.2333 1.89546 -0.279804 0
M  V30 813 C 79.4273 0.661769 -3.5122 0
M  V30 814 C 79.2563 -0.523892 -4.46638 0
M  V30 815 C 78.0263 -1.02251 -4.94846 0
M  V30 816 C 80.2243 -1.37558 -4.95563 0
M  V30 817 N 78.2063 -2.17274 -5.74165 0
M  V30 818 C 79.5773 -2.37301 -5.7279 0
M  V30 819 C 81.6323 -1.40353 -4.77709 0
M  V30 820 C 80.3353 -3.3964 -6.34064 0
M  V30 821 C 82.3613 -2.41562 -5.39817 0
M  V30 822 C 81.7233 -3.40031 -6.16894 0
M  V30 823 H 77.8223 0.0642367 -0.779357 0
M  V30 824 H 80.4063 -0.456683 -1.89268 0
M  V30 825 H 78.5773 1.36182 -3.63743 0
M  V30 826 H 80.3093 1.23934 -3.85256 0
M  V30 827 H 77.0643 -0.594046 -4.6986 0
M  V30 828 H 77.4883 -2.75289 -6.18502 0
M  V30 829 H 82.1303 -0.655907 -4.17681 0
M  V30 830 H 79.8483 -4.15309 -6.93213 0
M  V30 831 H 83.4343 -2.44524 -5.2792 0
M  V30 832 H 82.3143 -4.17063 -6.64099 0
M  V30 833 N 79.8174 1.5752 -0.0501392 0
M  V30 834 C 81.0654 1.9227 0.622642 0
M  V30 835 C 81.3864 0.929083 1.71444 0
M  V30 836 O 80.6564 -0.0262186 1.95882 0
M  V30 837 H 79.2364 0.709739 0.232981 0
M  V30 838 H 81.8984 1.94628 -0.102898 0
M  V30 839 H 80.9944 2.93479 1.06191 0
M  V30 840 N 81.2955 -0.223234 1.56011 0
M  V30 841 C 82.5255 -0.963413 1.82762 0
M  V30 842 C 82.9335 -1.78516 0.626804 0
M  V30 843 O 82.2765 -1.78974 -0.414014 0
M  V30 844 C 82.3385 -1.93126 3.0322 0
M  V30 845 C 82.0025 -1.2942 4.38291 0
M  V30 846 C 82.9995 -0.684916 5.15369 0
M  V30 847 C 80.6845 -1.30647 4.85012 0
M  V30 848 C 82.6785 -0.0963971 6.37327 0
M  V30 849 C 80.3655 -0.71411 6.06913 0
M  V30 850 C 81.3635 -0.110123 6.82911 0
M  V30 851 O 81.0515 0.47303 8.02507 0
M  V30 852 H 80.7835 -0.288011 0.611576 0
M  V30 853 H 83.3375 -0.244103 2.03944 0
M  V30 854 H 81.5675 -2.68952 2.77852 0
M  V30 855 H 83.2565 -2.53685 3.16857 0
M  V30 856 H 84.0225 -0.667774 4.80381 0
M  V30 857 H 79.9015 -1.76598 4.25833 0
M  V30 858 H 83.4455 0.375657 6.96588 0
M  V30 859 H 79.3425 -0.728659 6.41374 0
M  V30 860 H 80.1105 0.367186 8.17676 0
M  V30 861 N 82.7736 -1.49793 -0.48987 0
M  V30 862 C 83.7206 -1.67281 -1.59014 0
M  V30 863 C 84.6906 -0.514177 -1.57941 0
M  V30 864 O 85.8756 -0.742533 -1.75759 0
M  V30 865 C 83.0156 -1.75569 -2.97102 0
M  V30 866 C 82.1286 -3.0281 -3.08107 0
M  V30 867 C 81.2636 -3.02008 -4.36995 0
M  V30 868 C 80.3026 -4.23782 -4.41673 0
M  V30 869 N 79.4396 -4.20826 -5.62005 0
M  V30 870 H 84.2796 -2.61224 -1.43409 0
M  V30 871 H 81.8166 -1.29508 -0.697565 0
M  V30 872 H 83.7746 -1.78354 -3.77155 0
M  V30 873 H 82.4046 -0.850827 -3.11385 0
M  V30 874 H 81.4566 -3.09584 -2.21047 0
M  V30 875 H 82.7686 -3.92801 -3.07423 0
M  V30 876 H 81.9226 -3.03418 -5.25378 0
M  V30 877 H 80.6616 -2.09815 -4.4026 0
M  V30 878 H 79.6666 -4.22604 -3.5169 0
M  V30 879 H 80.8916 -5.17181 -4.40115 0
M  V30 880 H 78.8376 -3.31476 -5.66091 0
M  V30 881 H 78.7546 -5.04564 -5.62984 0
M  V30 882 H 80.0226 -4.26355 -6.52565 0
M  V30 883 N 84.2517 0.741722 -1.39055 0
M  V30 884 C 85.2017 1.84661 -1.33732 0
M  V30 885 C 86.1857 1.59397 -0.219401 0
M  V30 886 O 87.3777 1.71015 -0.456375 0
M  V30 887 C 84.5067 3.22512 -1.17647 0
M  V30 888 C 83.5927 3.53628 -2.34112 0
M  V30 889 N 83.9837 3.55723 -3.59576 0
M  V30 890 C 82.2817 3.83956 -2.26923 0
M  V30 891 C 82.9827 3.84443 -4.36553 0
M  V30 892 N 81.9587 4.01877 -3.66055 0
M  V30 893 H 85.7607 1.84576 -2.28711 0
M  V30 894 H 83.2747 0.939647 -1.32455 0
M  V30 895 H 85.2717 4.01597 -1.11917 0
M  V30 896 H 83.9317 3.2384 -0.236124 0
M  V30 897 H 84.9427 3.37196 -3.93089 0
M  V30 898 H 81.6197 3.92929 -1.41113 0
M  V30 899 H 83.0097 3.92588 -5.45274 0
M  V30 900 N 85.7298 1.2412 0.971189 0
M  V30 901 C 86.9578 1.10575 1.74874 0
M  V30 902 C 87.3728 -0.342017 1.85676 0
M  V30 903 O 86.7298 -1.23617 1.34258 0
M  V30 904 C 86.7808 1.73579 3.171 0
M  V30 905 O 86.5018 3.12695 3.06844 0
M  V30 906 C 88.0028 1.65598 4.11208 0
M  V30 907 H 85.2228 0.386504 0.548503 0
M  V30 908 H 87.7668 1.64156 1.21955 0
M  V30 909 H 85.9218 1.24009 3.67016 0
M  V30 910 H 86.3358 3.43412 3.96445 0
M  V30 911 H 87.8098 2.1437 5.08674 0
M  V30 912 H 88.2868 0.616532 4.34851 0
M  V30 913 H 88.8928 2.14578 3.67201 0
M  V30 914 N 87.2079 -1.17134 1.05439 0
M  V30 915 C 88.1379 -2.2342 0.678649 0
M  V30 916 C 89.1189 -1.66971 -0.32476 0
M  V30 917 O 90.3039 -1.93149 -0.201802 0
M  V30 918 C 87.4339 -3.47256 0.0552099 0
M  V30 919 C 86.3879 -4.16543 0.98365 0
M  V30 920 C 85.7139 -5.34231 0.223961 0
M  V30 921 C 87.0139 -4.68495 2.3089 0
M  V30 922 H 88.7079 -2.55105 1.56722 0
M  V30 923 H 86.2539 -1.2262 0.754998 0
M  V30 924 H 88.2069 -4.20828 -0.21946 0
M  V30 925 H 86.9309 -3.14846 -0.868319 0
M  V30 926 H 85.5899 -3.44887 1.24293 0
M  V30 927 H 85.2379 -4.98071 -0.702412 0
M  V30 928 H 84.9379 -5.81527 0.842627 0
M  V30 929 H 86.4619 -6.10585 -0.0433671 0
M  V30 930 H 87.8759 -5.33691 2.09396 0
M  V30 931 H 86.2729 -5.26379 2.88176 0
M  V30 932 H 87.3429 -3.85169 2.94572 0
M  V30 933 N 88.686 -0.835752 -1.33615 0
M  V30 934 C 89.634 -0.255238 -2.31195 0
M  V30 935 C 90.628 0.61107 -1.57995 0
M  V30 936 O 91.834 0.500979 -1.72888 0
M  V30 937 H 88.209 -0.0638085 -0.749288 0
M  V30 938 H 90.18 -1.09283 -2.77669 0
M  V30 939 C 88.929 0.55754 -3.43201 0
M  V30 940 H 88.252 -0.0997553 -3.99676 0
M  V30 941 H 89.692 0.929622 -4.13683 0
M  V30 942 C 88.151 1.73515 -2.88781 0
M  V30 943 O 88.681 2.83376 -2.84712 0
M  V30 944 N 86.887 1.55603 -2.4543 0
M  V30 945 H 86.434 0.662354 -2.48939 0
M  V30 946 H 86.392 2.34545 -2.09371 0
M  V30 947 N 90.1641 1.46063 -0.591896 0
M  V30 948 C 91.0961 2.28539 0.174001 0
M  V30 949 C 92.1091 1.39047 0.846753 0
M  V30 950 O 93.2981 1.63564 0.714774 0
M  V30 951 C 90.3981 3.14347 1.26645 0
M  V30 952 C 89.5711 4.32021 0.683856 0
M  V30 953 C 88.6301 4.99157 1.66518 0
M  V30 954 O 87.6561 5.56458 1.19763 0
M  V30 955 N 88.8581 4.97005 2.99943 0
M  V30 956 H 91.6231 2.94911 -0.533633 0
M  V30 957 H 89.1841 1.56077 -0.430294 0
M  V30 958 H 91.1761 3.56125 1.92242 0
M  V30 959 H 89.7461 2.49988 1.87682 0
M  V30 960 H 88.9661 3.93915 -0.1498 0
M  V30 961 H 90.2541 5.08059 0.274567 0
M  V30 962 H 89.6521 4.51714 3.40545 0
M  V30 963 H 88.2091 5.42696 3.61004 0
M  V30 964 N 91.6422 0.330177 1.54103 0
M  V30 965 C 92.8912 -0.271336 1.99867 0
M  V30 966 C 93.2042 -1.52723 1.22209 0
M  V30 967 O 94.4102 -2.20515 1.58383 0
M  V30 968 C 92.8662 -0.534032 3.55916 0
M  V30 969 C 92.4742 0.705193 4.42415 0
M  V30 970 C 94.2182 -1.09514 4.1013 0
M  V30 971 C 92.1252 0.414035 5.89949 0
M  V30 972 H 91.0552 -0.105166 0.74663 0
M  V30 973 H 93.7062 0.443429 1.78062 0
M  V30 974 H 92.0882 -1.30915 3.73734 0
M  V30 975 H 93.2622 1.4804 4.36372 0
M  V30 976 H 91.5772 1.18698 3.99124 0
M  V30 977 H 94.1742 -1.3277 5.17954 0
M  V30 978 H 94.5172 -2.04656 3.62521 0
M  V30 979 H 95.0502 -0.381038 3.95971 0
M  V30 980 H 91.7892 1.33481 6.41766 0
M  V30 981 H 91.3092 -0.323336 5.98928 0
M  V30 982 H 92.9882 0.0263105 6.46995 0
M  V30 983 N 93.1203 -1.57491 0.0584922 0
M  V30 984 C 94.3973 -1.84346 -0.653918 0
M  V30 985 C 94.7773 -0.948355 -1.88599 0
M  V30 986 O 94.1253 -0.0112403 -2.28497 0
M  V30 987 C 94.3353 -3.34239 -1.00425 0
M  V30 988 C 95.6833 -4.01431 -1.38342 0
M  V30 989 O 96.7073 -3.38907 -1.09637 0
M  V30 990 O 95.5663 -5.11683 -1.91943 0
M  V30 991 H 92.6603 -0.761112 -0.323478 0
M  V30 992 H 95.2063 -1.6947 0.0884125 0
M  V30 993 H 93.9783 -3.91089 -0.128625 0
M  V30 994 H 93.6013 -3.54329 -1.80378 0
M  V30 995 N 94.5984 0.214957 -1.56127 0
M  V30 996 C 95.5084 1.28727 -1.96129 0
M  V30 997 C 96.5244 1.50916 -0.866044 0
M  V30 998 O 97.7004 1.63918 -1.17016 0
M  V30 999 C 94.7654 2.61569 -2.27558 0
M  V30 1000 C 93.8264 2.47625 -3.50685 0
M  V30 1001 C 93.0594 3.74132 -3.80606 0
M  V30 1002 O 93.2824 4.77438 -3.12104 0
M  V30 1003 O 92.2164 3.70849 -4.74083 0
M  V30 1004 H 96.0424 0.977855 -2.87527 0
M  V30 1005 H 93.6274 0.418358 -1.43423 0
M  V30 1006 H 95.5094 3.40012 -2.48938 0
M  V30 1007 H 94.1844 2.92178 -1.39332 0
M  V30 1008 H 93.0914 1.67361 -3.34576 0
M  V30 1009 H 94.4244 2.21954 -4.39315 0
M  V30 1010 N 96.0765 1.50051 0.48192 0
M  V30 1011 C 97.3225 1.60736 1.2366 0
M  V30 1012 C 97.6555 0.301786 1.91841 0
M  V30 1013 O 96.9305 -0.696025 1.8162 0
M  V30 1014 C 97.2135 2.78009 2.28874 0
M  V30 1015 C 97.0665 4.18416 1.65069 0
M  V30 1016 C 98.3855 2.90867 3.30279 0
M  V30 1017 H 95.5045 0.585031 0.448228 0
M  V30 1018 H 98.1465 1.82402 0.531946 0
M  V30 1019 H 96.2965 2.59667 2.88973 0
M  V30 1020 H 97.9685 4.48322 1.0865 0
M  V30 1021 H 96.2115 4.23177 0.954148 0
M  V30 1022 H 96.8825 4.96381 2.41474 0
M  V30 1023 H 99.3585 3.07623 2.80191 0
M  V30 1024 H 98.2345 3.74566 4.01238 0
M  V30 1025 H 98.4955 2.01021 3.93755 0
M  V30 1026 N 97.5546 -0.734337 1.39446 0
M  V30 1027 C 98.5016 -1.84835 1.38219 0
M  V30 1028 C 99.4716 -1.64331 0.24179 0
M  V30 1029 O 100.657 -1.85728 0.437002 0
M  V30 1030 C 97.7966 -3.22355 1.23212 0
M  V30 1031 C 96.9096 -3.5456 2.46801 0
M  V30 1032 C 96.0446 -4.81485 2.24377 0
M  V30 1033 C 95.0836 -5.06536 3.43639 0
M  V30 1034 N 94.2206 -6.24665 3.20528 0
M  V30 1035 H 99.0606 -1.85219 2.33448 0
M  V30 1036 H 96.5976 -0.905039 1.15963 0
M  V30 1037 H 98.5556 -4.0174 1.12522 0
M  V30 1038 H 97.1856 -3.21248 0.316121 0
M  V30 1039 H 96.2376 -2.69872 2.68092 0
M  V30 1040 H 97.5496 -3.6899 3.3563 0
M  V30 1041 H 96.7036 -5.68852 2.10933 0
M  V30 1042 H 95.4426 -4.6923 1.32944 0
M  V30 1043 H 94.4476 -4.17632 3.5758 0
M  V30 1044 H 95.6726 -5.20676 4.35974 0
M  V30 1045 H 93.6186 -6.13696 2.3176 0
M  V30 1046 H 93.5356 -6.39685 4.02913 0
M  V30 1047 H 94.8036 -7.14868 3.10779 0
M  V30 1048 N 99.0327 -1.24633 -0.964593 0
M  V30 1049 C 100.279 -1.08949 -1.71049 0
M  V30 1050 C 100.612 0.370302 -1.90637 0
M  V30 1051 O 99.8867 1.27349 -1.47011 0
M  V30 1052 C 100.17 -1.83329 -3.0994 0
M  V30 1053 C 100.023 -3.37077 -2.97824 0
M  V30 1054 C 101.342 -1.60846 -4.09654 0
M  V30 1055 H 98.4607 -0.397178 -0.620821 0
M  V30 1056 H 101.103 -1.5334 -1.12191 0
M  V30 1057 H 99.2527 -1.45597 -3.60186 0
M  V30 1058 H 100.925 -3.84425 -2.5498 0
M  V30 1059 H 99.1677 -3.65298 -2.33965 0
M  V30 1060 H 99.8387 -3.84324 -3.96231 0
M  V30 1061 H 102.315 -1.93674 -3.68279 0
M  V30 1062 H 101.191 -2.1534 -5.04896 0
M  V30 1063 H 101.452 -0.547434 -4.38698 0
M  V30 1064 N 100.511 1.16574 -1.06058 0
M  V30 1065 C 101.757 1.87565 -0.78683 0
M  V30 1066 C 102.112 1.80012 0.679214 0
M  V30 1067 O 101.405 1.20327 1.49104 0
M  V30 1068 C 101.599 3.36195 -1.21275 0
M  V30 1069 C 101.428 3.58216 -2.71866 0
M  V30 1070 C 100.198 3.7444 -3.39298 0
M  V30 1071 C 102.396 3.57134 -3.70081 0
M  V30 1072 N 100.378 3.84389 -4.78663 0
M  V30 1073 C 101.749 3.73038 -4.9522 0
M  V30 1074 C 103.804 3.40332 -3.63426 0
M  V30 1075 C 102.507 3.73879 -6.14497 0
M  V30 1076 C 104.533 3.42466 -4.82153 0
M  V30 1077 C 103.895 3.58887 -6.06118 0
M  V30 1078 H 99.9938 0.704081 -0.340284 0
M  V30 1079 H 102.578 1.39885 -1.35426 0
M  V30 1080 H 100.749 3.82522 -0.673179 0
M  V30 1081 H 102.481 3.94839 -0.887917 0
M  V30 1082 H 99.2358 3.74662 -2.89699 0
M  V30 1083 H 99.6598 3.93138 -5.51155 0
M  V30 1084 H 104.302 3.26566 -2.68541 0
M  V30 1085 H 102.02 3.86427 -7.09718 0
M  V30 1086 H 105.606 3.30712 -4.78666 0
M  V30 1087 H 104.486 3.60454 -6.9645 0
M  V30 1088 N 101.989 0.842826 1.3317 0
M  V30 1089 C 103.4 0.496651 1.79973 0
M  V30 1090 C 103.751 -0.984641 1.69703 0
M  V30 1091 O 102.876 -1.76743 1.24863 0
M  V30 1092 C 103.471 0.894727 3.26772 0
M  V30 1093 C 102.03 0.600629 3.71577 0
M  V30 1094 C 101.177 1.10091 2.5451 0
M  V30 1095 H 104.128 1.03116 1.20635 0
M  V30 1096 H 104.149 0.206347 3.7994 0
M  V30 1097 H 103.661 1.97287 3.34215 0
M  V30 1098 H 101.762 -0.467284 3.69658 0
M  V30 1099 H 101.875 1.15863 4.64879 0
M  V30 1100 H 100.239 0.52162 2.49301 0
M  V30 1101 H 101.022 2.18591 2.64713 0
M  V30 1102 N 103.467 -1.45747 0.599634 0
M  V30 1103 C 104.399 -2.28628 -0.161879 0
M  V30 1104 C 105.412 -1.39494 -0.839367 0
M  V30 1105 O 106.601 -1.63941 -0.706089 0
M  V30 1106 C 103.701 -3.15014 -1.24976 0
M  V30 1107 C 102.874 -4.32378 -0.660935 0
M  V30 1108 C 101.933 -5.00033 -1.63869 0
M  V30 1109 O 100.959 -5.57085 -1.1681 0
M  V30 1110 N 102.161 -4.98589 -2.97303 0
M  V30 1111 H 104.926 -2.94624 0.549265 0
M  V30 1112 H 102.487 -1.55847 0.438565 0
M  V30 1113 H 104.479 -3.5714 -1.9035 0
M  V30 1114 H 103.049 -2.5098 -1.86354 0
M  V30 1115 H 102.269 -3.9383 0.170688 0
M  V30 1116 H 103.557 -5.08197 -0.247619 0
M  V30 1117 H 102.955 -4.53514 -3.38145 0
M  V30 1118 H 101.512 -5.44603 -3.58121 0
M  V30 1119 N 104.945 -0.338344 -1.53925 0
M  V30 1120 C 105.877 0.555117 -2.22376 0
M  V30 1121 C 106.89 1.06812 -1.22862 0
M  V30 1122 O 108.079 0.979163 -1.49247 0
M  V30 1123 C 105.179 1.77609 -2.88631 0
M  V30 1124 C 104.352 1.39927 -4.14414 0
M  V30 1125 C 103.411 2.47936 -4.64127 0
M  V30 1126 O 102.437 2.11461 -5.28463 0
M  V30 1127 N 103.639 3.79107 -4.39612 0
M  V30 1128 H 106.404 -0.0310778 -2.99684 0
M  V30 1129 H 103.965 -0.162226 -1.61085 0
M  V30 1130 H 105.957 2.49287 -3.18807 0
M  V30 1131 H 104.527 2.26978 -2.14941 0
M  V30 1132 H 103.747 0.513481 -3.90841 0
M  V30 1133 H 105.035 1.12341 -4.96243 0
M  V30 1134 H 104.433 4.11531 -3.88148 0
M  V30 1135 H 102.99 4.4697 -4.74406 0
M  V30 1136 N 106.423 1.57458 -0.0668435 0
M  V30 1137 C 107.834 1.80776 0.466558 0
M  V30 1138 C 108.185 0.980361 1.69951 0
M  V30 1139 O 107.31 0.201441 2.1546 0
M  V30 1140 C 107.905 3.27881 0.85321 0
M  V30 1141 C 106.464 3.52062 1.3315 0
M  V30 1142 C 105.611 2.75513 0.314264 0
M  V30 1143 H 108.562 1.5598 -0.292588 0
M  V30 1144 H 108.583 3.39659 1.715 0
M  V30 1145 H 108.095 3.88075 -0.0443439 0
M  V30 1146 H 106.196 2.97167 2.24772 0
M  V30 1147 H 106.309 4.60762 1.31285 0
M  V30 1148 H 104.673 2.42123 0.790492 0
M  V30 1149 H 105.456 3.38442 -0.575477 0
M  V30 1150 N 107.901 -0.206675 1.56239 0
M  V30 1151 C 109.126 -0.949474 1.8439 0
M  V30 1152 C 109.551 -1.76549 0.649016 0
M  V30 1153 O 108.909 -1.76782 -0.402231 0
M  V30 1154 C 108.957 -1.83078 3.10668 0
M  V30 1155 O 108.061 -2.9281 2.90407 0
M  V30 1156 H 107.402 -0.268033 0.607499 0
M  V30 1157 H 109.932 -0.215488 2.03462 0
M  V30 1158 H 109.942 -2.2377 3.41161 0
M  V30 1159 H 108.617 -1.23112 3.97261 0
M  V30 1160 H 107.194 -2.55956 2.71184 0
M  V30 1161 N 109.379 -1.50304 -0.473955 0
M  V30 1162 C 110.627 -1.60832 -1.22382 0
M  V30 1163 C 110.948 -0.30939 -1.9253 0
M  V30 1164 O 110.218 0.67296 -1.83978 0
M  V30 1165 H 108.798 -0.592652 -0.454723 0
M  V30 1166 H 111.46 -1.87068 -0.546968 0
M  V30 1167 H 110.556 -2.41803 -1.97327 0
M  V30 1168 N 110.857 0.726932 -1.39834 0
M  V30 1169 C 111.767 1.87131 -1.41489 0
M  V30 1170 C 112.783 1.71239 -0.308757 0
M  V30 1171 O 113.959 1.93701 -0.551529 0
M  V30 1172 C 111.024 3.22811 -1.26468 0
M  V30 1173 C 110.085 3.51039 -2.47124 0
M  V30 1174 C 109.318 4.80245 -2.3281 0
M  V30 1175 O 109.541 5.54537 -1.33585 0
M  V30 1176 O 108.475 5.08554 -3.21957 0
M  V30 1177 H 112.301 1.8869 -2.3797 0
M  V30 1178 H 109.886 0.875837 -1.21035 0
M  V30 1179 H 111.768 4.03877 -1.20255 0
M  V30 1180 H 110.443 3.22005 -0.330862 0
M  V30 1181 H 109.35 2.70027 -2.58914 0
M  V30 1182 H 110.683 3.56632 -3.39227 0
M  V30 1183 N 112.336 1.25143 0.95797 0
M  V30 1184 C 113.266 1.07711 2.07173 0
M  V30 1185 C 114.247 -0.0128462 1.70095 0
M  V30 1186 O 115.432 0.156061 1.93572 0
M  V30 1187 C 112.562 0.691503 3.40346 0
M  V30 1188 C 111.516 1.73132 3.9142 0
M  V30 1189 C 110.842 1.20049 5.21049 0
M  V30 1190 C 112.142 3.1294 4.1817 0
M  V30 1191 H 113.836 2.00873 2.22014 0
M  V30 1192 H 111.382 0.967191 1.06684 0
M  V30 1193 H 113.335 0.556505 4.17709 0
M  V30 1194 H 112.059 -0.275819 3.25433 0
M  V30 1195 H 110.718 1.8547 3.16222 0
M  V30 1196 H 110.366 0.223499 5.02503 0
M  V30 1197 H 110.066 1.89545 5.56189 0
M  V30 1198 H 111.59 1.07782 6.01012 0
M  V30 1199 H 113.004 3.03775 4.86203 0
M  V30 1200 H 111.401 3.79875 4.64559 0
M  V30 1201 H 112.471 3.6025 3.24573 0
M  V30 1202 N 113.814 -1.1601 1.06675 0
M  V30 1203 C 115.061 -1.86633 0.785781 0
M  V30 1204 C 115.389 -1.81929 -0.687896 0
M  V30 1205 O 114.644 -1.23253 -1.52011 0
M  V30 1206 C 114.943 -3.35547 1.23057 0
M  V30 1207 C 114.609 -3.60448 2.70902 0
M  V30 1208 C 113.271 -3.66954 3.11285 0
M  V30 1209 C 115.623 -3.7071 3.66365 0
M  V30 1210 C 112.951 -3.81225 4.45965 0
M  V30 1211 C 115.303 -3.86503 5.00797 0
M  V30 1212 C 113.967 -3.91252 5.40813 0
M  V30 1213 H 113.237 -0.682937 0.287538 0
M  V30 1214 H 115.884 -1.37146 1.33654 0
M  V30 1215 H 114.189 -3.87193 0.59907 0
M  V30 1216 H 115.886 -3.88583 0.990163 0
M  V30 1217 H 112.476 -3.56021 2.38636 0
M  V30 1218 H 116.66 -3.64991 3.36296 0
M  V30 1219 H 111.916 -3.83155 4.76447 0
M  V30 1220 H 116.09 -3.93385 5.74649 0
M  V30 1221 H 113.717 -4.02062 6.45174 0
M  V30 1222 N 115.292 -0.849877 -1.32721 0
M  V30 1223 C 116.202 -0.293791 -2.32753 0
M  V30 1224 C 117.218 0.585906 -1.63839 0
M  V30 1225 O 118.394 0.487413 -1.95413 0
M  V30 1226 C 115.459 0.512752 -3.42887 0
M  V30 1227 C 114.52 -0.39252 -4.27502 0
M  V30 1228 C 113.753 0.375625 -5.32377 0
M  V30 1229 O 113.976 1.60613 -5.4732 0
M  V30 1230 O 112.91 -0.256094 -6.01355 0
M  V30 1231 H 116.736 -1.12242 -2.82197 0
M  V30 1232 H 114.321 -0.612685 -1.36259 0
M  V30 1233 H 116.203 0.970704 -4.10067 0
M  V30 1234 H 114.878 1.31826 -2.95641 0
M  V30 1235 H 113.785 -0.898547 -3.63149 0
M  V30 1236 H 115.118 -1.16309 -4.7826 0
M  V30 1237 N 116.77 1.45427 -0.607355 0
M  V30 1238 C 118.019 2.01452 -0.100036 0
M  V30 1239 C 118.332 1.48159 1.27704 0
M  V30 1240 O 119.538 1.96159 1.87707 0
M  V30 1241 C 117.994 3.59672 -0.128158 0
M  V30 1242 C 117.602 4.21962 -1.50507 0
M  V30 1243 C 119.346 4.23262 0.323932 0
M  V30 1244 C 117.253 5.72333 -1.48959 0
M  V30 1245 H 116.183 0.75325 -0.0336299 0
M  V30 1246 H 118.834 1.66901 -0.76265 0
M  V30 1247 H 117.216 3.91411 0.601105 0
M  V30 1248 H 118.39 4.01796 -2.25602 0
M  V30 1249 H 116.705 3.70565 -1.89923 0
M  V30 1250 H 119.302 5.33522 0.354691 0
M  V30 1251 H 119.645 3.93921 1.34656 0
M  V30 1252 H 120.178 3.96239 -0.352056 0
M  V30 1253 H 116.917 6.06373 -2.48981 0
M  V30 1254 H 116.437 5.94691 -0.781214 0
M  V30 1255 H 118.116 6.35525 -1.21313 0
M  V30 1256 N 118.248 0.346503 1.53744 0
M  V30 1257 C 119.158 -0.517293 2.28826 0
M  V30 1258 C 120.174 -1.10935 1.3405 0
M  V30 1259 O 121.35 -1.1244 1.6709 0
M  V30 1260 C 118.415 -1.65098 3.04866 0
M  V30 1261 C 117.476 -1.0884 4.15274 0
M  V30 1262 C 116.709 -2.16806 4.87679 0
M  V30 1263 O 116.932 -3.3758 4.59778 0
M  V30 1264 O 115.866 -1.80934 5.74061 0
M  V30 1265 H 119.692 0.0931396 3.03557 0
M  V30 1266 H 117.277 0.111458 1.48984 0
M  V30 1267 H 119.159 -2.31053 3.5241 0
M  V30 1268 H 117.834 -2.24717 2.32989 0
M  V30 1269 H 116.741 -0.3933 3.72027 0
M  V30 1270 H 118.074 -0.537036 4.89261 0
M  V30 1271 N 119.726 -1.57421 0.075193 0
M  V30 1272 C 120.975 -1.92794 -0.592731 0
M  V30 1273 C 121.288 -0.957478 -1.70563 0
M  V30 1274 O 122.494 -1.20417 -2.43335 0
M  V30 1275 C 120.95 -3.42495 -1.10569 0
M  V30 1276 C 120.558 -4.47994 -0.0236121 0
M  V30 1277 C 122.302 -3.86864 -1.74748 0
M  V30 1278 C 120.209 -5.88829 -0.550803 0
M  V30 1279 H 119.139 -0.719591 -0.225177 0
M  V30 1280 H 121.79 -1.82902 0.147978 0
M  V30 1281 H 120.172 -3.47471 -1.89947 0
M  V30 1282 H 121.346 -4.54637 0.751099 0
M  V30 1283 H 119.661 -4.13113 0.522159 0
M  V30 1284 H 122.258 -4.8947 -2.15229 0
M  V30 1285 H 122.601 -3.24417 -2.60882 0
M  V30 1286 H 123.134 -3.84504 -1.01986 0
M  V30 1287 H 119.873 -6.54929 0.273457 0
M  V30 1288 H 119.393 -5.85698 -1.29296 0
M  V30 1289 H 121.072 -6.38811 -1.02613 0
M  V30 1290 N 121.204 0.198386 -1.56346 0
M  V30 1291 C 122.481 0.944982 -1.71258 0
M  V30 1292 C 122.861 2.0151 -0.629048 0
M  V30 1293 O 122.209 2.25639 0.360473 0
M  V30 1294 C 122.419 1.5344 -3.1346 0
M  V30 1295 C 123.767 2.01778 -3.73591 0
M  V30 1296 O 124.791 1.63288 -3.16568 0
M  V30 1297 O 123.65 2.72594 -4.73661 0
M  V30 1298 H 120.744 0.442939 -0.69838 0
M  V30 1299 H 123.29 0.188342 -1.68652 0
M  V30 1300 H 122.062 0.762869 -3.83792 0
M  V30 1301 H 121.685 2.35596 -3.20282 0
M  V30 1302 N 122.682 1.50554 0.465978 0
M  V30 1303 C 123.91 1.65563 1.24083 0
M  V30 1304 C 124.325 0.341051 1.85694 0
M  V30 1305 O 123.682 -0.677543 1.69457 0
M  V30 1306 C 123.733 2.75051 2.34583 0
M  V30 1307 O 123.454 4.01413 1.75497 0
M  V30 1308 C 124.955 3.01078 3.25372 0
M  V30 1309 H 122.175 0.55638 0.375077 0
M  V30 1310 H 124.719 1.96807 0.555624 0
M  V30 1311 H 122.874 2.46486 2.9887 0
M  V30 1312 H 123.288 4.62002 2.48303 0
M  V30 1313 H 124.762 3.81339 3.99105 0
M  V30 1314 H 125.239 2.12349 3.84453 0
M  V30 1315 H 125.845 3.31194 2.66816 0
M  V30 1316 N 124.16 -0.719506 1.40217 0
M  V30 1317 C 125.09 -1.8465 1.42922 0
M  V30 1318 C 126.071 -1.67599 0.29062 0
M  V30 1319 O 127.256 -1.87688 0.498677 0
M  V30 1320 C 124.386 -3.22565 1.28722 0
M  V30 1321 C 123.34 -3.54281 2.40144 0
M  V30 1322 C 122.666 -4.91298 2.11023 0
M  V30 1323 C 123.966 -3.55676 3.82481 0
M  V30 1324 H 125.66 -1.82644 2.37237 0
M  V30 1325 H 123.206 -0.877305 1.1419 0
M  V30 1326 H 125.159 -4.01095 1.29232 0
M  V30 1327 H 123.883 -3.25137 0.308811 0
M  V30 1328 H 122.542 -2.78088 2.38877 0
M  V30 1329 H 122.19 -4.90468 1.11582 0
M  V30 1330 H 121.89 -5.13485 2.8567 0
M  V30 1331 H 123.414 -5.72166 2.13209 0
M  V30 1332 H 124.828 -4.24254 3.85592 0
M  V30 1333 H 123.225 -3.89388 4.56614 0
M  V30 1334 H 124.295 -2.55144 4.12346 0
M  V30 1335 N 125.638 -1.25649 -0.95132 0
M  V30 1336 C 126.548 -1.08073 -2.08224 0
M  V30 1337 C 127.564 -0.0169666 -1.73992 0
M  V30 1338 O 128.74 -0.218593 -2.0021 0
M  V30 1339 C 125.805 -0.704922 -3.39458 0
M  V30 1340 C 124.866 -1.84699 -3.87537 0
M  V30 1341 C 124.099 -1.48902 -5.12508 0
M  V30 1342 O 124.322 -0.386156 -5.69091 0
M  V30 1343 O 123.256 -2.32033 -5.55378 0
M  V30 1344 H 127.082 -2.02924 -2.25954 0
M  V30 1345 H 124.667 -1.04618 -1.06656 0
M  V30 1346 H 126.549 -0.507609 -4.18332 0
M  V30 1347 H 125.224 0.214291 -3.2299 0
M  V30 1348 H 124.131 -2.09919 -3.09653 0
M  V30 1349 H 125.464 -2.74557 -4.08509 0
M  V30 1350 N 127.117 1.15442 -1.07289 0
M  V30 1351 C 128.345 1.90096 -0.81676 0
M  V30 1352 C 128.76 1.7798 0.629966 0
M  V30 1353 O 128.117 1.1313 1.43206 0
M  V30 1354 C 128.168 3.40466 -1.21512 0
M  V30 1355 O 127.889 3.52232 -2.60508 0
M  V30 1356 C 129.39 4.32145 -0.988198 0
M  V30 1357 H 126.61 0.602495 -0.295366 0
M  V30 1358 H 129.154 1.4627 -1.42918 0
M  V30 1359 H 127.309 3.81958 -0.647039 0
M  V30 1360 H 127.723 4.45549 -2.76742 0
M  V30 1361 H 129.197 5.36072 -1.31645 0
M  V30 1362 H 129.674 4.39135 0.0755063 0
M  V30 1363 H 130.28 3.96395 -1.54115 0
M  V30 1364 N 128.595 0.856903 1.32268 0
M  V30 1365 C 129.823 0.475439 2.01363 0
M  V30 1366 C 130.238 -0.928486 1.64392 0
M  V30 1367 O 129.595 -1.60624 0.866387 0
M  V30 1368 C 129.646 0.607545 3.56358 0
M  V30 1369 O 129.367 1.95617 3.92002 0
M  V30 1370 C 130.868 0.225382 4.42727 0
M  V30 1371 H 128.088 0.186636 0.644521 0
M  V30 1372 H 130.632 1.15446 1.68797 0
M  V30 1373 H 128.787 -0.0237719 3.87393 0
M  V30 1374 H 129.201 1.95455 4.86721 0
M  V30 1375 H 130.675 0.368813 5.50767 0
M  V30 1376 H 131.152 -0.834369 4.31202 0
M  V30 1377 H 131.758 0.831864 4.17085 0
M  V30 1378 N 130.073 -1.45103 0.615059 0
M  V30 1379 C 131.313 -2.04069 0.116282 0
M  V30 1380 C 131.677 -1.4721 -1.2326 0
M  V30 1381 O 132.878 -1.97577 -1.82255 0
M  V30 1382 C 131.149 -3.57298 0.085482 0
M  V30 1383 S 132.708 -4.37394 -0.351015 0
M  V30 1384 H 129.526 -0.709006 0.0532183 0
M  V30 1385 H 132.128 -1.77709 0.81484 0
M  V30 1386 H 130.832 -3.9619 1.0706 0
M  V30 1387 H 130.363 -3.88244 -0.634835 0
M  V30 1388 H 132.378 -4.69734 -1.59889 0
M  V30 1389 N 131.551 -0.354651 -1.53558 0
M  V30 1390 C 132.501 0.513179 -2.2215 0
M  V30 1391 C 133.485 1.05734 -1.21281 0
M  V30 1392 O 134.677 0.989202 -1.46778 0
M  V30 1393 C 131.806 1.65798 -3.00609 0
M  V30 1394 C 130.892 1.12722 -4.08845 0
M  V30 1395 N 131.283 0.318563 -5.04796 0
M  V30 1396 C 129.581 1.40307 -4.23356 0
M  V30 1397 C 130.282 0.0292224 -5.81693 0
M  V30 1398 N 129.258 0.623891 -5.40008 0
M  V30 1399 H 133.06 -0.111586 -2.93688 0
M  V30 1400 H 130.574 -0.162091 -1.61589 0
M  V30 1401 H 132.571 2.29176 -3.48258 0
M  V30 1402 H 131.231 2.28591 -2.306 0
M  V30 1403 H 132.242 -0.0413091 -5.17884 0
M  V30 1404 H 128.919 2.03458 -3.6457 0
M  V30 1405 H 130.309 -0.623808 -6.68998 0
M  V30 1406 N 133.029 1.57378 -0.0835403 0
M  V30 1407 C 134.275 1.94217 0.583733 0
M  V30 1408 C 134.608 0.964653 1.68547 0
M  V30 1409 O 133.883 -0.00422258 1.945 0
M  V30 1410 C 134.166 3.41253 1.14972 0
M  V30 1411 C 134.019 4.49768 0.0538277 0
M  V30 1412 C 135.338 3.89352 2.05166 0
M  V30 1413 H 132.457 0.706233 0.210724 0
M  V30 1414 H 135.099 1.89392 -0.1519 0
M  V30 1415 H 133.249 3.45496 1.77665 0
M  V30 1416 H 134.921 4.57641 -0.579851 0
M  V30 1417 H 133.164 4.29432 -0.614068 0
M  V30 1418 H 133.835 5.49817 0.490452 0
M  V30 1419 H 136.311 3.87189 1.52393 0
M  V30 1420 H 135.187 4.92822 2.41698 0
M  V30 1421 H 135.448 3.27973 2.96456 0
M  V30 1422 N 134.507 -0.190092 1.56449 0
M  V30 1423 C 135.437 -1.23816 1.97969 0
M  V30 1424 C 136.418 -1.47201 0.852395 0
M  V30 1425 O 137.603 -1.58854 1.1171 0
M  V30 1426 C 134.733 -2.5813 2.3235 0
M  V30 1427 C 133.687 -2.49348 3.47864 0
M  V30 1428 C 133.013 -3.8798 3.67934 0
M  V30 1429 C 134.313 -2.01424 4.81898 0
M  V30 1430 H 136.007 -0.89311 2.85769 0
M  V30 1431 H 133.553 -0.428177 1.37487 0
M  V30 1432 H 135.506 -3.31637 2.59991 0
M  V30 1433 H 134.23 -2.94386 1.41438 0
M  V30 1434 H 132.889 -1.78297 3.20321 0
M  V30 1435 H 132.537 -4.21597 2.74344 0
M  V30 1436 H 132.237 -3.82978 4.45648 0
M  V30 1437 H 133.761 -4.63101 3.97957 0
M  V30 1438 H 135.175 -2.64693 5.08538 0
M  V30 1439 H 133.572 -2.07413 5.63116 0
M  V30 1440 H 134.642 -0.967677 4.75146 0
M  V30 1441 N 135.985 -1.50799 -0.457987 0
M  V30 1442 C 137.262 -1.52968 -1.21902 0
M  V30 1443 C 137.642 -0.281906 -2.09209 0
M  V30 1444 O 136.99 0.734076 -2.16388 0
M  V30 1445 C 137.2 -2.8326 -2.03875 0
M  V30 1446 C 138.548 -3.34425 -2.6162 0
M  V30 1447 O 139.572 -2.8467 -2.14106 0
M  V30 1448 O 138.431 -4.21188 -3.48228 0
M  V30 1449 H 135.525 -0.614129 -0.553873 0
M  V30 1450 H 138.071 -1.63098 -0.468739 0
M  V30 1451 H 136.843 -3.65543 -1.39621 0
M  V30 1452 H 136.466 -2.76195 -2.8601 0
M  V30 1453 N 137.463 0.71206 -1.40597 0
M  V30 1454 C 138.874 1.29135 -1.34837 0
M  V30 1455 C 139.225 1.96186 -0.0235395 0
M  V30 1456 O 138.35 1.97768 0.878444 0
M  V30 1457 C 138.945 2.34827 -2.44217 0
M  V30 1458 C 137.504 2.88371 -2.41907 0
M  V30 1459 C 136.651 1.62202 -2.24913 0
M  V30 1460 H 139.602 0.507944 -1.50352 0
M  V30 1461 H 139.623 3.15749 -2.12327 0
M  V30 1462 H 139.135 1.85996 -3.40627 0
M  V30 1463 H 137.236 3.41422 -1.49204 0
M  V30 1464 H 137.349 3.39925 -3.37621 0
M  V30 1465 H 135.713 1.874 -1.72492 0
M  V30 1466 H 136.496 1.15391 -3.23326 0
M  V30 1467 N 138.941 1.26152 0.944643 0
M  V30 1468 C 140.169 1.14259 1.72489 0
M  V30 1469 C 140.584 -0.302555 1.8636 0
M  V30 1470 O 139.941 -1.20741 1.36849 0
M  V30 1471 C 139.992 1.80266 3.13347 0
M  V30 1472 O 139.713 3.19133 3.00143 0
M  V30 1473 C 141.214 1.74283 4.07603 0
M  V30 1474 H 138.434 0.398051 0.540181 0
M  V30 1475 H 140.978 1.66706 1.18446 0
M  V30 1476 H 139.133 1.31766 3.64303 0
M  V30 1477 H 139.547 3.51744 3.89071 0
M  V30 1478 H 141.021 2.25111 5.04013 0
M  V30 1479 H 141.498 0.708631 4.33446 0
M  V30 1480 H 142.104 2.22319 3.62567 0
M  V30 1481 N 140.419 -1.14872 1.07899 0
M  V30 1482 C 141.83 -1.67367 0.827363 0
M  V30 1483 C 142.181 -1.85236 -0.646693 0
M  V30 1484 O 141.306 -1.55974 -1.50004 0
M  V30 1485 C 141.901 -3.04016 1.49532 0
M  V30 1486 C 140.46 -3.53566 1.29106 0
M  V30 1487 C 139.607 -2.29161 1.56143 0
M  V30 1488 H 142.558 -0.990083 1.24028 0
M  V30 1489 H 142.579 -3.69219 0.919643 0
M  V30 1490 H 142.091 -2.90978 2.56814 0
M  V30 1491 H 140.192 -3.71835 0.238713 0
M  V30 1492 H 140.305 -4.34661 2.01511 0
M  V30 1493 H 138.669 -2.34978 0.982717 0
M  V30 1494 H 139.452 -2.18705 2.64619 0
M  V30 1495 N 141.898 -0.863906 -1.31812 0
M  V30 1496 C 143.144 -0.472535 -1.97218 0
M  V30 1497 C 143.477 0.971394 -1.68159 0
M  V30 1498 O 142.752 1.68309 -0.974798 0
M  V30 1499 C 143.035 -0.723054 -3.52766 0
M  V30 1500 C 142.888 -2.21608 -3.91421 0
M  V30 1501 C 144.207 -0.185522 -4.39709 0
M  V30 1502 H 141.326 -0.173158 -0.71637 0
M  V30 1503 H 143.968 -1.08403 -1.56041 0
M  V30 1504 H 142.118 -0.202577 -3.87971 0
M  V30 1505 H 143.79 -2.80334 -3.66347 0
M  V30 1506 H 142.033 -2.691 -3.40246 0
M  V30 1507 H 142.704 -2.34203 -4.99853 0
M  V30 1508 H 145.18 -0.630726 -4.11292 0
M  V30 1509 H 144.056 -0.390306 -5.47511 0
M  V30 1510 H 144.317 0.912229 -4.32586 0
M  V30 1511 N 143.376 1.44774 -0.622745 0
M  V30 1512 C 144.339 2.29069 0.0774015 0
M  V30 1513 C 145.339 1.4059 0.780461 0
M  V30 1514 O 146.529 1.62551 0.626322 0
M  V30 1515 C 143.661 3.21974 1.12006 0
M  V30 1516 H 144.854 2.92459 -0.663901 0
M  V30 1517 H 142.407 1.51548 -0.382486 0
M  V30 1518 H 143.142 2.63417 1.89162 0
M  V30 1519 H 142.927 3.87168 0.619951 0
M  V30 1520 H 144.417 3.85318 1.60995 0
M  V30 1521 N 144.854 0.36279 1.53368 0
M  V30 1522 C 146.27 0.0116182 1.59596 0
M  V30 1523 C 146.47 -1.47012 1.37803 0
M  V30 1524 O 145.526 -2.23136 1.18181 0
M  V30 1525 C 146.839 0.465052 2.97082 0
M  V30 1526 C 148.387 0.419033 3.10182 0
M  V30 1527 C 148.862 0.848235 4.50077 0
M  V30 1528 N 150.353 0.803183 4.56183 0
M  V30 1529 C 151.088 1.107 5.62613 0
M  V30 1530 N 150.584 1.47996 6.76808 0
M  V30 1531 N 152.377 1.02998 5.52583 0
M  V30 1532 H 144.528 1.32775 1.65785 0
M  V30 1533 H 146.791 0.542518 0.777417 0
M  V30 1534 H 146.497 1.49892 3.18159 0
M  V30 1535 H 146.371 -0.149786 3.76902 0
M  V30 1536 H 148.758 -0.605696 2.88817 0
M  V30 1537 H 148.839 1.06933 2.32377 0
M  V30 1538 H 148.483 1.87107 4.7218 0
M  V30 1539 H 148.413 0.175218 5.26308 0
M  V30 1540 H 150.904 0.52838 3.74188 0
M  V30 1541 H 151.217 1.69613 7.53957 0
M  V30 1542 H 149.562 1.51859 6.78206 0
M  V30 1543 H 152.753 0.737817 4.62249 0
M  V30 1544 H 152.926 1.2701 6.35431 0
M  V30 1545 N 146.332 -1.57332 0.0918853 0
M  V30 1546 C 147.572 -1.96117 -0.575988 0
M  V30 1547 C 147.936 -0.972499 -1.65549 0
M  V30 1548 O 149.137 -1.24872 -2.38034 0
M  V30 1549 C 147.408 -3.39407 -1.11973 0
M  V30 1550 S 148.967 -4.00185 -1.79992 0
M  V30 1551 H 145.785 -0.685682 -0.188045 0
M  V30 1552 H 148.387 -1.94755 0.170525 0
M  V30 1553 H 147.091 -4.09131 -0.322504 0
M  V30 1554 H 146.622 -3.44358 -1.90214 0
M  V30 1555 H 148.637 -3.88728 -3.08391 0
M  V30 1556 N 147.81 0.181792 -1.56548 0
M  V30 1557 C 149.035 0.920019 -1.85877 0
M  V30 1558 C 149.46 1.75494 -0.677021 0
M  V30 1559 O 148.818 1.77399 0.374056 0
M  V30 1560 C 148.866 1.78112 -3.13542 0
M  V30 1561 O 147.97 2.88152 -2.95029 0
M  V30 1562 H 147.311 0.258334 -0.611686 0
M  V30 1563 H 149.841 0.183092 -2.03779 0
M  V30 1564 H 149.851 2.18314 -3.44678 0
M  V30 1565 H 148.526 1.16777 -3.99169 0
M  V30 1566 H 147.103 2.51609 -2.75222 0
M  V30 1567 N 149.288 1.51039 0.449983 0
M  V30 1568 C 150.534 1.63322 1.20223 0
M  V30 1569 C 150.867 0.34241 1.91158 0
M  V30 1570 O 150.142 -0.657344 1.83055 0
M  V30 1571 C 150.425 2.82801 2.22925 0
M  V30 1572 C 150.278 4.21823 1.56157 0
M  V30 1573 C 151.597 2.97807 3.24035 0
M  V30 1574 H 148.716 0.594407 0.435718 0
M  V30 1575 H 151.358 1.83489 0.493136 0
M  V30 1576 H 149.508 2.65738 2.834 0
M  V30 1577 H 151.18 4.50526 0.991162 0
M  V30 1578 H 149.423 4.25105 0.864172 0
M  V30 1579 H 150.094 5.01391 2.30891 0
M  V30 1580 H 152.57 3.13497 2.73603 0
M  V30 1581 H 151.446 3.82992 3.93202 0
M  V30 1582 H 151.707 2.09328 3.89402 0
M  V30 1583 N 150.766 -0.704594 1.40972 0
M  V30 1584 C 152.182 -1.01406 1.23244 0
M  V30 1585 C 152.382 -2.01169 0.115399 0
M  V30 1586 O 151.438 -2.47021 -0.523147 0
M  V30 1587 C 152.751 -1.54728 2.57836 0
M  V30 1588 C 154.299 -1.66658 2.64942 0
M  V30 1589 C 154.774 -2.23383 3.9983 0
M  V30 1590 N 156.265 -2.30756 4.01629 0
M  V30 1591 C 157 -2.75655 5.02794 0
M  V30 1592 N 156.496 -3.20225 6.14352 0
M  V30 1593 N 158.289 -2.75138 4.90159 0
M  V30 1594 H 150.44 -0.0435285 2.12355 0
M  V30 1595 H 152.703 -0.0818951 0.944456 0
M  V30 1596 H 152.409 -0.888832 3.40283 0
M  V30 1597 H 152.283 -2.53084 2.79693 0
M  V30 1598 H 154.67 -2.31617 1.8286 0
M  V30 1599 H 154.751 -0.668717 2.46904 0
M  V30 1600 H 154.395 -1.59043 4.82357 0
M  V30 1601 H 154.325 -3.23904 4.15203 0
M  V30 1602 H 156.816 -1.99291 3.21079 0
M  V30 1603 H 157.129 -3.53084 6.87424 0
M  V30 1604 H 155.474 -3.18156 6.17901 0
M  V30 1605 H 158.665 -2.39661 4.02095 0
M  V30 1606 H 158.838 -3.09812 5.6914 0
M  V30 1607 N 152.244 -1.26651 -0.937939 0
M  V30 1608 C 153.176 -1.04283 -2.04102 0
M  V30 1609 C 154.189 -0.00221014 -1.628 0
M  V30 1610 O 155.378 -0.242645 -1.76843 0
M  V30 1611 C 152.478 -0.557846 -3.34277 0
M  V30 1612 C 151.651 -1.66843 -4.04329 0
M  V30 1613 C 150.71 -1.18095 -5.12777 0
M  V30 1614 O 149.736 -1.87865 -5.37304 0
M  V30 1615 N 150.938 -0.0311006 -5.80492 0
M  V30 1616 H 153.703 -1.9927 -2.23856 0
M  V30 1617 H 151.264 -1.1808 -1.10764 0
M  V30 1618 H 153.256 -0.215836 -4.04124 0
M  V30 1619 H 151.826 0.298523 -3.11171 0
M  V30 1620 H 151.046 -2.18123 -3.28353 0
M  V30 1621 H 152.334 -2.41408 -4.47883 0
M  V30 1622 H 151.732 0.551486 -5.63005 0
M  V30 1623 H 150.289 0.251809 -6.51313 0
M  V30 1624 N 153.722 1.14298 -1.08507 0
M  V30 1625 C 154.652 2.21542 -0.737646 0
M  V30 1626 C 155.633 1.67773 0.280377 0
M  V30 1627 O 156.818 1.93616 0.150521 0
M  V30 1628 C 153.948 3.46988 -0.147259 0
M  V30 1629 C 152.902 4.13789 -1.09374 0
M  V30 1630 C 152.228 5.33449 -0.365524 0
M  V30 1631 C 153.528 4.62208 -2.4323 0
M  V30 1632 H 155.222 2.5086 -1.6343 0
M  V30 1633 H 152.768 1.20576 -0.787243 0
M  V30 1634 H 154.721 4.21262 0.107808 0
M  V30 1635 H 153.445 3.17037 0.784538 0
M  V30 1636 H 152.104 3.4147 -1.33393 0
M  V30 1637 H 151.752 4.99759 0.57011 0
M  V30 1638 H 151.452 5.79088 -0.996512 0
M  V30 1639 H 152.976 6.10485 -0.118534 0
M  V30 1640 H 154.39 5.27952 -2.23472 0
M  V30 1641 H 152.787 5.18553 -3.02031 0
M  V30 1642 H 153.857 3.77224 -3.04681 0
M  V30 1643 N 155.201 0.870884 1.31352 0
M  V30 1644 C 156.148 0.325425 2.28494 0
M  V30 1645 C 157.118 -0.576615 1.5577 0
M  V30 1646 O 158.303 -0.508059 1.83911 0
M  V30 1647 C 155.443 -0.466283 3.41935 0
M  V30 1648 C 154.556 0.463378 4.29508 0
M  V30 1649 C 153.691 -0.342544 5.30094 0
M  V30 1650 C 152.73 0.583486 6.09313 0
M  V30 1651 N 151.867 -0.186244 7.01853 0
M  V30 1652 H 156.707 1.15901 2.74538 0
M  V30 1653 H 154.244 0.58294 1.35056 0
M  V30 1654 H 156.202 -0.941085 4.06447 0
M  V30 1655 H 154.832 -1.26456 2.97 0
M  V30 1656 H 153.884 1.05663 3.65431 0
M  V30 1657 H 155.196 1.1734 4.84802 0
M  V30 1658 H 154.35 -0.879816 6.00287 0
M  V30 1659 H 153.089 -1.08585 4.75458 0
M  V30 1660 H 152.094 1.13251 5.3801 0
M  V30 1661 H 153.319 1.32566 6.66035 0
M  V30 1662 H 151.265 -0.912348 6.49625 0
M  V30 1663 H 151.182 0.464422 7.54572 0
M  V30 1664 H 152.45 -0.704716 7.76308 0
M  V30 1665 N 156.679 -1.44442 0.630414 0
M  V30 1666 C 157.589 -2.34476 -0.0761693 0
M  V30 1667 C 158.605 -1.52576 -0.836449 0
M  V30 1668 O 159.781 -1.85307 -0.788874 0
M  V30 1669 C 156.846 -3.30545 -1.04599 0
M  V30 1670 C 155.907 -4.28352 -0.28516 0
M  V30 1671 C 155.14 -5.19831 -1.20878 0
M  V30 1672 O 155.363 -5.15223 -2.44747 0
M  V30 1673 O 154.297 -5.97892 -0.693491 0
M  V30 1674 H 158.123 -2.96345 0.664324 0
M  V30 1675 H 155.708 -1.44203 0.39061 0
M  V30 1676 H 157.59 -3.89681 -1.60396 0
M  V30 1677 H 156.265 -2.7121 -1.76711 0
M  V30 1678 H 155.172 -3.72764 0.315837 0
M  V30 1679 H 156.505 -4.90605 0.395924 0
M  V30 1680 N 158.157 -0.370918 -1.53173 0
M  V30 1681 C 159.107 0.489588 -2.22681 0
M  V30 1682 C 160.091 1.04442 -1.22395 0
M  V30 1683 O 161.283 0.973578 -1.47819 0
M  V30 1684 C 158.412 1.626 -3.02351 0
M  V30 1685 C 157.498 1.08379 -4.10018 0
M  V30 1686 N 157.889 0.265004 -5.05105 0
M  V30 1687 C 156.187 1.35809 -4.2482 0
M  V30 1688 C 156.888 -0.0324755 -5.81691 0
M  V30 1689 N 155.864 0.566581 -5.40639 0
M  V30 1690 H 159.666 -0.142729 -2.93553 0
M  V30 1691 H 157.18 -0.179221 -1.61408 0
M  V30 1692 H 159.177 2.2547 -3.50669 0
M  V30 1693 H 157.837 2.26132 -2.33011 0
M  V30 1694 H 158.848 -0.0962352 -5.17811 0
M  V30 1695 H 155.525 1.9958 -3.66707 0
M  V30 1696 H 156.915 -0.69473 -6.68299 0
M  V30 1697 N 159.635 1.57281 -0.100228 0
M  V30 1698 C 160.598 2.13158 0.842398 0
M  V30 1699 C 161.598 1.06202 1.20738 0
M  V30 1700 O 162.788 1.32066 1.13597 0
M  V30 1701 C 159.92 2.65639 2.13655 0
M  V30 1702 H 161.113 2.97766 0.357114 0
M  V30 1703 H 158.666 1.5559 0.148823 0
M  V30 1704 H 159.401 1.84566 2.66657 0
M  V30 1705 H 159.186 3.43844 1.88451 0
M  V30 1706 H 160.676 3.08846 2.81077 0
M  V30 1707 N 161.113 -0.173488 1.56642 0
M  V30 1708 C 162.359 -0.891784 1.8214 0
M  V30 1709 C 162.692 -1.8199 0.677736 0
M  V30 1710 O 161.967 -1.91842 -0.320446 0
M  V30 1711 C 162.25 -1.68933 3.18015 0
M  V30 1712 C 162.103 -0.784487 4.42906 0
M  V30 1713 C 163.422 -2.65748 3.50808 0
M  V30 1714 H 160.541 -0.322761 0.662567 0
M  V30 1715 H 163.183 -0.158095 1.89341 0
M  V30 1716 H 161.333 -2.31482 3.12007 0
M  V30 1717 H 163.005 -0.172046 4.60979 0
M  V30 1718 H 161.248 -0.0924117 4.33702 0
M  V30 1719 H 161.919 -1.37799 5.34524 0
M  V30 1720 H 164.395 -2.13327 3.57255 0
M  V30 1721 H 163.271 -3.18619 4.4696 0
M  V30 1722 H 163.532 -3.45842 2.75401 0
M  V30 1723 N 162.591 -1.51276 -0.441967 0
M  V30 1724 C 163.501 -1.75092 -1.56141 0
M  V30 1725 C 164.517 -0.634963 -1.62001 0
M  V30 1726 O 165.693 -0.916686 -1.79329 0
M  V30 1727 C 162.758 -1.86666 -2.92158 0
M  V30 1728 C 161.819 -3.10506 -2.96453 0
M  V30 1729 C 161.052 -3.21519 -4.25982 0
M  V30 1730 O 161.275 -2.38586 -5.18105 0
M  V30 1731 O 160.209 -4.14465 -4.36466 0
M  V30 1732 H 164.035 -2.70044 -1.38961 0
M  V30 1733 H 161.62 -1.35722 -0.624499 0
M  V30 1734 H 163.502 -1.96292 -3.72891 0
M  V30 1735 H 162.177 -0.949014 -3.09476 0
M  V30 1736 H 161.084 -3.06363 -2.14692 0
M  V30 1737 H 162.417 -4.01945 -2.84079 0
M  V30 1738 N 164.069 0.697108 -1.41344 0
M  V30 1739 C 165.317 1.45426 -1.40341 0
M  V30 1740 C 165.638 1.94996 -0.0128787 0
M  V30 1741 O 164.908 1.71599 0.945027 0
M  V30 1742 H 163.488 0.539594 -0.516573 0
M  V30 1743 H 166.15 0.825201 -1.76569 0
M  V30 1744 H 165.246 2.31817 -2.08967 0
M  V30 1745 N 165.547 1.27147 0.931209 0
M  V30 1746 C 166.824 1.0401 1.65654 0
M  V30 1747 C 167.204 -0.426297 2.06751 0
M  V30 1748 O 166.552 -1.40879 1.79904 0
M  V30 1749 C 166.762 1.99834 2.86125 0
M  V30 1750 C 168.11 2.29007 3.57549 0
M  V30 1751 O 169.134 1.97779 2.96246 0
M  V30 1752 O 167.993 2.82222 4.67989 0
M  V30 1753 H 165.087 0.396239 0.725895 0
M  V30 1754 H 167.633 1.38397 0.982056 0
M  V30 1755 H 166.405 2.98744 2.52721 0
M  V30 1756 H 166.028 1.65987 3.61295 0
M  V30 1757 N 167.025 -1.13721 1.09112 0
M  V30 1758 C 168.265 -1.86576 0.834801 0
M  V30 1759 C 168.629 -1.81435 -0.628122 0
M  V30 1760 O 169.83 -2.49497 -1.00024 0
M  V30 1761 C 168.101 -3.30872 1.35124 0
M  V30 1762 S 169.66 -4.21257 1.22832 0
M  V30 1763 H 166.478 -0.643666 0.302017 0
M  V30 1764 H 169.08 -1.37085 1.39385 0
M  V30 1765 H 167.784 -3.32166 2.41027 0
M  V30 1766 H 167.315 -3.85423 0.788185 0
M  V30 1767 H 169.33 -4.95884 0.177191 0
M  V30 1768 N 168.503 -0.877838 -1.30888 0
M  V30 1769 C 169.78 -0.413052 -1.91189 0
M  V30 1770 C 170.16 1.1056 -1.79832 0
M  V30 1771 O 169.508 1.93771 -1.21099 0
M  V30 1772 C 169.718 -0.903191 -3.3711 0
M  V30 1773 C 171.066 -0.93395 -4.14201 0
M  V30 1774 O 172.09 -0.849373 -3.45925 0
M  V30 1775 O 170.949 -1.05772 -5.36167 0
M  V30 1776 H 168.043 -0.125035 -0.817493 0
M  V30 1777 H 170.589 -0.966269 -1.39504 0
M  V30 1778 H 169.361 -1.94692 -3.39427 0
M  V30 1779 H 168.984 -0.328732 -3.96239 0
M  V30 1780 N 169.982 1.44106 -0.638065 0
M  V30 1781 C 171.229 2.01978 -0.14533 0
M  V30 1782 C 171.557 1.50234 1.23532 0
M  V30 1783 O 170.812 0.679548 1.83523 0
M  V30 1784 C 171.111 3.5729 -0.0887327 0
M  V30 1785 C 170.777 4.28317 -1.40909 0
M  V30 1786 C 169.439 4.47437 -1.77069 0
M  V30 1787 C 171.791 4.6867 -2.28031 0
M  V30 1788 C 169.119 5.04171 -3.00047 0
M  V30 1789 C 171.471 5.26766 -3.50286 0
M  V30 1790 C 170.135 5.44104 -3.86661 0
M  V30 1791 H 169.405 0.739089 -0.0531801 0
M  V30 1792 H 172.052 1.72781 -0.825761 0
M  V30 1793 H 170.357 3.8594 0.675095 0
M  V30 1794 H 172.054 3.99807 0.309145 0
M  V30 1795 H 168.644 4.1377 -1.1177 0
M  V30 1796 H 172.828 4.53604 -2.01388 0
M  V30 1797 H 168.084 5.15782 -3.28298 0
M  V30 1798 H 172.258 5.56983 -4.18023 0
M  V30 1799 H 169.885 5.87832 -4.82034 0
M  V30 1800 N 171.46 0.379036 1.52974 0
M  V30 1801 C 172.392 -0.495963 2.2377 0
M  V30 1802 C 173.405 -1.03517 1.25651 0
M  V30 1803 O 174.594 -0.939249 1.51791 0
M  V30 1804 C 171.694 -1.69894 2.93239 0
M  V30 1805 C 170.867 -1.2889 4.17979 0
M  V30 1806 C 169.926 -2.35543 4.70538 0
M  V30 1807 O 168.952 -1.97375 5.33883 0
M  V30 1808 N 170.154 -3.67318 4.49508 0
M  V30 1809 H 172.919 0.110523 2.99496 0
M  V30 1810 H 170.48 0.204878 1.60598 0
M  V30 1811 H 172.472 -2.40747 3.25304 0
M  V30 1812 H 171.042 -2.212 2.20883 0
M  V30 1813 H 170.262 -0.409676 3.92065 0
M  V30 1814 H 171.55 -0.991443 4.99047 0
M  V30 1815 H 170.948 -4.01095 3.98923 0
M  V30 1816 H 169.505 -4.34235 4.8609 0
M  V30 1817 N 172.938 -1.57226 0.108567 0
M  V30 1818 C 173.868 -2.17778 -0.84232 0
M  V30 1819 C 174.849 -1.11487 -1.2847 0
M  V30 1820 O 176.034 -1.39681 -1.34918 0
M  V30 1821 C 173.164 -2.76888 -2.09644 0
M  V30 1822 C 172.118 -3.88669 -1.79221 0
M  V30 1823 C 171.444 -4.34541 -3.11574 0
M  V30 1824 C 172.744 -5.11251 -1.06864 0
M  V30 1825 H 174.438 -2.97489 -0.337774 0
M  V30 1826 H 171.984 -1.43097 -0.161025 0
M  V30 1827 H 173.937 -3.17904 -2.76614 0
M  V30 1828 H 172.661 -1.94451 -2.62405 0
M  V30 1829 H 171.32 -3.48213 -1.14644 0
M  V30 1830 H 170.968 -3.48977 -3.62249 0
M  V30 1831 H 170.668 -5.09914 -2.91996 0
M  V30 1832 H 172.192 -4.782 -3.7968 0
M  V30 1833 H 173.606 -5.49352 -1.63968 0
M  V30 1834 H 172.003 -5.9214 -0.974178 0
M  V30 1835 H 173.073 -4.8487 -0.0536168 0
M  V30 1836 N 174.416 0.165178 -1.56732 0
M  V30 1837 C 175.346 1.20651 -1.99914 0
M  V30 1838 C 176.327 1.45827 -0.875705 0
M  V30 1839 O 177.512 1.57057 -1.14223 0
M  V30 1840 C 174.642 2.54401 -2.36427 0
M  V30 1841 C 173.596 2.43782 -3.51787 0
M  V30 1842 C 172.922 3.82078 -3.7406 0
M  V30 1843 C 174.222 1.93732 -4.85041 0
M  V30 1844 H 175.916 0.847534 -2.87154 0
M  V30 1845 H 173.462 0.40625 -1.38151 0
M  V30 1846 H 175.415 3.27458 -2.65234 0
M  V30 1847 H 174.139 2.92098 -1.46103 0
M  V30 1848 H 172.798 1.73178 -3.23117 0
M  V30 1849 H 172.446 4.17179 -2.81017 0
M  V30 1850 H 172.146 3.7584 -4.51684 0
M  V30 1851 H 173.67 4.56712 -4.05274 0
M  V30 1852 H 175.084 2.56569 -5.12684 0
M  V30 1853 H 173.481 1.98428 -5.66345 0
M  V30 1854 H 174.551 0.891962 -4.76626 0
M  V30 1855 N 175.894 1.51508 0.433938 0
M  V30 1856 C 176.841 1.73068 1.52696 0
M  V30 1857 C 177.811 0.572441 1.55924 0
M  V30 1858 O 178.996 0.807253 1.72882 0
M  V30 1859 C 176.136 1.86474 2.90381 0
M  V30 1860 C 175.249 3.14037 2.96656 0
M  V30 1861 C 174.384 3.18019 4.25485 0
M  V30 1862 C 173.423 4.39882 4.2564 0
M  V30 1863 N 172.56 4.41394 5.45999 0
M  V30 1864 H 177.4 2.66366 1.33615 0
M  V30 1865 H 174.937 1.32008 0.649018 0
M  V30 1866 H 176.895 1.92229 3.70275 0
M  V30 1867 H 175.525 0.965809 3.08013 0
M  V30 1868 H 174.577 3.17575 2.09404 0
M  V30 1869 H 175.889 4.0394 2.92633 0
M  V30 1870 H 175.043 3.22708 5.13755 0
M  V30 1871 H 173.782 2.2601 4.3217 0
M  V30 1872 H 172.787 4.35366 3.35763 0
M  V30 1873 H 174.012 5.33159 4.20617 0
M  V30 1874 H 171.958 3.52258 5.53399 0
M  V30 1875 H 171.875 5.25111 5.4387 0
M  V30 1876 H 173.143 4.50281 6.36292 0
M  V30 1877 N 177.372 -0.689602 1.41712 0
M  V30 1878 C 178.302 -1.81577 1.46806 0
M  V30 1879 C 179.283 -1.66945 0.326105 0
M  V30 1880 O 180.468 -1.86588 0.538377 0
M  V30 1881 C 177.598 -3.19762 1.35535 0
M  V30 1882 C 176.552 -3.49107 2.47605 0
M  V30 1883 C 175.878 -4.86711 2.21397 0
M  V30 1884 C 177.178 -3.47483 3.89939 0
M  V30 1885 H 178.872 -1.7757 2.41058 0
M  V30 1886 H 176.418 -0.852887 1.16025 0
M  V30 1887 H 178.371 -3.98263 1.3771 0
M  V30 1888 H 177.095 -3.24409 0.377708 0
M  V30 1889 H 175.754 -2.72959 2.44722 0
M  V30 1890 H 175.402 -4.8799 1.21961 0
M  V30 1891 H 175.102 -5.0731 2.96497 0
M  V30 1892 H 176.626 -5.67515 2.25297 0
M  V30 1893 H 178.04 -4.1598 3.94505 0
M  V30 1894 H 176.437 -3.79615 4.64771 0
M  V30 1895 H 177.507 -2.46341 4.17665 0
M  V30 1896 N 178.85 -1.27639 -0.924453 0
M  V30 1897 C 180.127 -1.04887 -1.651 0
M  V30 1898 C 180.507 0.415327 -2.06974 0
M  V30 1899 O 179.855 1.39923 -1.80648 0
M  V30 1900 C 180.065 -2.01348 -2.85061 0
M  V30 1901 C 181.413 -2.30899 -3.56329 0
M  V30 1902 O 182.437 -1.99348 -2.95193 0
M  V30 1903 O 181.296 -2.84699 -4.66485 0
M  V30 1904 H 178.39 -0.400083 -0.723784 0
M  V30 1905 H 180.936 -1.38916 -0.974703 0
M  V30 1906 H 179.708 -3.0008 -2.51133 0
M  V30 1907 H 179.331 -1.679 -3.6041 0
M  V30 1908 N 180.328 1.1314 -1.09713 0
M  V30 1909 C 181.576 1.84119 -0.833338 0
M  V30 1910 C 181.897 1.84097 0.642904 0
M  V30 1911 O 181.167 1.29881 1.46655 0
M  V30 1912 H 179.747 0.681766 -0.305293 0
M  V30 1913 H 182.409 1.37038 -1.38588 0
M  V30 1914 H 181.505 2.88543 -1.18951 0
M  V30 1915 N 181.806 0.884767 1.30421 0
M  V30 1916 C 182.753 0.349642 2.28136 0
M  V30 1917 C 183.723 -0.560061 1.56373 0
M  V30 1918 O 184.908 -0.488524 1.8444 0
M  V30 1919 C 182.048 -0.42999 3.42411 0
M  V30 1920 C 181.161 0.508907 4.28992 0
M  V30 1921 C 180.296 -0.286301 5.30428 0
M  V30 1922 C 179.335 0.648079 6.08659 0
M  V30 1923 N 178.472 -0.111792 7.02011 0
M  V30 1924 H 183.312 1.18807 2.73293 0
M  V30 1925 H 180.849 0.597231 1.3443 0
M  V30 1926 H 182.807 -0.897923 4.07423 0
M  V30 1927 H 181.437 -1.23299 2.98324 0
M  V30 1928 H 180.489 1.09533 3.64289 0
M  V30 1929 H 181.801 1.22475 4.8353 0
M  V30 1930 H 180.955 -0.816098 6.01186 0
M  V30 1931 H 179.694 -1.03536 4.76583 0
M  V30 1932 H 178.699 1.18951 5.36778 0
M  V30 1933 H 179.924 1.39623 6.64592 0
M  V30 1934 H 177.87 -0.843395 6.50556 0
M  V30 1935 H 177.787 0.544429 7.54037 0
M  V30 1936 H 179.055 -0.622339 7.77012 0
M  V30 1937 N 183.284 -1.43765 0.645699 0
M  V30 1938 C 184.531 -2.01898 0.15604 0
M  V30 1939 C 184.859 -1.50887 -1.22733 0
M  V30 1940 O 184.114 -0.689271 -1.8316 0
M  V30 1941 C 184.413 -3.57238 0.107679 0
M  V30 1942 C 184.079 -4.27564 1.43178 0
M  V30 1943 C 182.741 -4.46492 1.7944 0
M  V30 1944 C 185.093 -4.67454 2.30513 0
M  V30 1945 C 182.421 -5.02573 3.02716 0
M  V30 1946 C 184.773 -5.24901 3.53074 0
M  V30 1947 C 183.437 -5.42046 3.89541 0
M  V30 1948 H 182.707 -0.738797 0.057099 0
M  V30 1949 H 185.354 -1.72341 0.834912 0
M  V30 1950 H 183.659 -3.86293 -0.654618 0
M  V30 1951 H 185.356 -3.99965 -0.287938 0
M  V30 1952 H 181.946 -4.13171 1.13963 0
M  V30 1953 H 186.13 -4.5253 2.0379 0
M  V30 1954 H 181.386 -5.14033 3.31028 0
M  V30 1955 H 185.56 -5.54758 4.20971 0
M  V30 1956 H 183.187 -5.85268 4.85145 0
M  V30 1957 N 184.763 -0.387143 -1.52771 0
M  V30 1958 C 185.988 0.198407 -2.06449 0
M  V30 1959 C 186.413 1.39918 -1.25716 0
M  V30 1960 O 185.771 1.79099 -0.281657 0
M  V30 1961 C 185.819 0.548893 -3.56398 0
M  V30 1962 O 184.923 1.64315 -3.78252 0
M  V30 1963 H 184.264 0.0237731 -0.663574 0
M  V30 1964 H 186.794 -0.553989 -1.96957 0
M  V30 1965 H 186.804 0.813812 -3.99801 0
M  V30 1966 H 185.479 -0.329005 -4.14597 0
M  V30 1967 H 184.056 1.37211 -3.46738 0
M  V30 1968 N 186.241 1.57166 -0.116904 0
M  V30 1969 C 187.487 1.95412 0.542405 0
M  V30 1970 C 187.82 1.00019 1.66463 0
M  V30 1971 O 187.095 0.0370346 1.94465 0
M  V30 1972 C 187.378 3.43615 1.07708 0
M  V30 1973 C 187.231 4.49781 -0.0415868 0
M  V30 1974 C 188.55 3.93616 1.96861 0
M  V30 1975 H 185.669 0.710543 0.195696 0
M  V30 1976 H 188.311 1.89027 -0.192038 0
M  V30 1977 H 186.461 3.49187 1.70296 0
M  V30 1978 H 188.133 4.56308 -0.676793 0
M  V30 1979 H 186.376 4.28033 -0.705019 0
M  V30 1980 H 187.047 5.50733 0.373717 0
M  V30 1981 H 189.523 3.90335 1.44146 0
M  V30 1982 H 188.399 4.97838 2.3119 0
M  V30 1983 H 188.66 3.34188 2.89432 0
M  V30 1984 N 187.719 -0.156864 1.56817 0
M  V30 1985 C 188.965 -0.872416 1.83076 0
M  V30 1986 C 189.298 -1.81261 0.697001 0
M  V30 1987 O 188.573 -1.92171 -0.30008 0
M  V30 1988 C 188.856 -1.65551 3.19789 0
M  V30 1989 C 188.709 -0.737467 4.43713 0
M  V30 1990 C 190.028 -2.62012 3.53606 0
M  V30 1991 H 187.147 -0.315715 0.665953 0
M  V30 1992 H 189.789 -0.138004 1.89498 0
M  V30 1993 H 187.939 -2.28159 3.14445 0
M  V30 1994 H 189.611 -0.123143 4.61136 0
M  V30 1995 H 187.854 -0.0464067 4.33775 0
M  V30 1996 H 188.525 -1.32122 5.35955 0
M  V30 1997 H 191.001 -2.09525 3.59497 0
M  V30 1998 H 189.877 -3.13861 4.50314 0
M  V30 1999 H 190.138 -3.42902 2.79053 0
M  V30 2000 N 189.197 -1.51736 -0.425897 0
M  V30 2001 C 190.427 -1.68549 -1.19476 0
M  V30 2002 C 190.835 -0.387288 -1.85194 0
M  V30 2003 O 190.178 0.645142 -1.71999 0
M  V30 2004 C 190.24 -2.75275 -2.31223 0
M  V30 2005 C 189.904 -4.17534 -1.8578 0
M  V30 2006 C 190.901 -5.01936 -1.35485 0
M  V30 2007 C 188.586 -4.6369 -1.93123 0
M  V30 2008 C 190.58 -6.30559 -0.931347 0
M  V30 2009 C 188.267 -5.92307 -1.50384 0
M  V30 2010 C 189.265 -6.75569 -1.00473 0
M  V30 2011 O 188.953 -8.0178 -0.583452 0
M  V30 2012 H 188.685 -0.568525 -0.365725 0
M  V30 2013 H 191.239 -1.98982 -0.509444 0
M  V30 2014 H 189.469 -2.40182 -3.03067 0
M  V30 2015 H 191.158 -2.80853 -2.93047 0
M  V30 2016 H 191.924 -4.67475 -1.29197 0
M  V30 2017 H 187.803 -3.98997 -2.30916 0
M  V30 2018 H 191.347 -6.95498 -0.541084 0
M  V30 2019 H 187.244 -6.2628 -1.56346 0
M  V30 2020 H 188.012 -8.1543 -0.708275 0
M  V30 2021 N 190.675 0.682077 -1.42076 0
M  V30 2022 C 191.638 1.77756 -1.44691 0
M  V30 2023 C 192.638 1.5726 -0.335535 0
M  V30 2024 O 193.828 1.63686 -0.596037 0
M  V30 2025 C 190.96 3.16301 -1.27146 0
M  V30 2026 H 192.153 1.76826 -2.42224 0
M  V30 2027 H 189.706 0.891012 -1.28416 0
M  V30 2028 H 190.441 3.22862 -0.305075 0
M  V30 2029 H 190.226 3.32581 -2.07683 0
M  V30 2030 H 191.716 3.96241 -1.31843 0
M  V30 2031 N 192.153 1.28127 0.917671 0
M  V30 2032 C 193.1 1.11717 2.0196 0
M  V30 2033 C 194.07 0.0153929 1.66093 0
M  V30 2034 O 195.255 0.179596 1.89953 0
M  V30 2035 C 192.395 0.780927 3.36148 0
M  V30 2036 C 191.508 1.96135 3.84909 0
M  V30 2037 C 190.643 1.56609 5.0759 0
M  V30 2038 C 189.682 2.71339 5.48673 0
M  V30 2039 N 188.819 2.32332 6.62545 0
M  V30 2040 H 193.659 2.06003 2.15329 0
M  V30 2041 H 191.196 1.02535 1.05475 0
M  V30 2042 H 193.154 0.56675 4.13333 0
M  V30 2043 H 191.784 -0.124998 3.22558 0
M  V30 2044 H 190.836 2.28777 3.03916 0
M  V30 2045 H 192.148 2.82165 4.1132 0
M  V30 2046 H 191.302 1.31374 5.92305 0
M  V30 2047 H 190.041 0.677014 4.82978 0
M  V30 2048 H 189.046 2.97276 4.62501 0
M  V30 2049 H 190.271 3.60882 5.75274 0
M  V30 2050 H 188.217 1.45889 6.39572 0
M  V30 2051 H 188.134 3.11899 6.88662 0
M  V30 2052 H 189.402 2.10371 7.50576 0
M  V30 2053 N 193.631 -1.12557 1.10312 0
M  V30 2054 C 194.871 -1.8568 0.854543 0
M  V30 2055 C 195.235 -1.82091 -0.608843 0
M  V30 2056 O 196.436 -2.50544 -0.973717 0
M  V30 2057 C 194.707 -3.2942 1.38626 0
M  V30 2058 S 196.266 -4.19931 1.27293 0
M  V30 2059 H 193.084 -0.640427 0.308827 0
M  V30 2060 H 195.686 -1.35599 1.40831 0
M  V30 2061 H 194.39 -3.2959 2.44537 0
M  V30 2062 H 193.921 -3.84566 0.82902 0
M  V30 2063 H 195.936 -4.95668 0.229776 0
M  V30 2064 N 195.109 -0.891671 -1.2995 0
M  V30 2065 C 196.386 -0.433307 -1.9074 0
M  V30 2066 C 196.766 1.08646 -1.80995 0
M  V30 2067 O 196.114 1.92476 -1.23147 0
M  V30 2068 C 196.324 -0.938895 -3.36134 0
M  V30 2069 C 197.672 -0.977829 -4.13187 0
M  V30 2070 O 198.696 -0.886015 -3.45005 0
M  V30 2071 O 197.555 -1.11453 -5.35015 0
M  V30 2072 H 194.649 -0.133699 -0.816121 0
M  V30 2073 H 197.195 -0.981011 -1.38471 0
M  V30 2074 H 195.967 -1.98281 -3.37343 0
M  V30 2075 H 195.59 -0.37074 -3.95868 0
M  V30 2076 N 196.587 1.43421 -0.653314 0
M  V30 2077 C 197.812 2.06678 -0.172846 0
M  V30 2078 C 198.237 1.48648 1.15262 0
M  V30 2079 O 197.595 0.596457 1.71208 0
M  V30 2080 C 197.643 3.60474 -0.0953184 0
M  V30 2081 O 196.747 4.01487 0.942442 0
M  V30 2082 H 196.088 0.657181 -0.0949155 0
M  V30 2083 H 198.618 1.83925 -0.896265 0
M  V30 2084 H 198.628 4.07905 0.0879728 0
M  V30 2085 H 197.303 4.02088 -1.06291 0
M  V30 2086 H 195.88 3.65646 0.731932 0
M  V30 2087 N 198.065 0.39524 1.52563 0
M  V30 2088 C 199.29 -0.187456 2.06551 0
M  V30 2089 C 199.715 -1.39249 1.26457 0
M  V30 2090 O 199.073 -1.78947 0.291151 0
M  V30 2091 C 199.121 -0.529985 3.56684 0
M  V30 2092 O 198.225 -1.62307 3.79118 0
M  V30 2093 H 197.566 -0.0202537 0.663691 0
M  V30 2094 H 200.096 0.564426 1.96661 0
M  V30 2095 H 200.106 -0.792598 4.00227 0
M  V30 2096 H 198.781 0.350987 4.14416 0
M  V30 2097 H 197.358 -1.3537 3.47461 0
M  V30 2098 N 199.544 -1.57102 0.125237 0
M  V30 2099 C 200.955 -1.82384 -0.399142 0
M  V30 2100 C 201.306 -1.04276 -1.66195 0
M  V30 2101 O 200.431 -0.281269 -2.14564 0
M  V30 2102 C 201.026 -3.30821 -0.730932 0
M  V30 2103 C 199.585 -3.56762 -1.19992 0
M  V30 2104 C 198.732 -2.7649 -0.211792 0
M  V30 2105 H 201.683 -1.54786 0.350277 0
M  V30 2106 H 201.704 -3.4579 -1.58775 0
M  V30 2107 H 201.216 -3.87643 0.188345 0
M  V30 2108 H 199.317 -3.05305 -2.13588 0
M  V30 2109 H 199.43 -4.65317 -1.14093 0
M  V30 2110 H 197.794 -2.4489 -0.700085 0
M  V30 2111 H 198.577 -3.36073 0.700691 0
M  V30 2112 N 201.022 0.148545 -1.56898 0
M  V30 2113 C 202.299 0.890019 -1.74178 0
M  V30 2114 C 202.679 1.99407 -0.692839 0
M  V30 2115 O 202.027 2.26671 0.288505 0
M  V30 2116 C 202.237 1.43389 -3.18183 0
M  V30 2117 C 203.585 1.89791 -3.79822 0
M  V30 2118 O 204.609 1.53134 -3.21603 0
M  V30 2119 O 203.468 2.57387 -4.82093 0
M  V30 2120 H 200.562 0.420496 -0.712118 0
M  V30 2121 H 203.108 0.134591 -1.69165 0
M  V30 2122 H 201.88 0.640383 -3.86024 0
M  V30 2123 H 201.503 2.25287 -3.27615 0
M  V30 2124 N 202.5 1.5196 0.417844 0
M  V30 2125 C 203.725 1.69717 1.1921 0
M  V30 2126 C 204.15 0.402148 1.83751 0
M  V30 2127 O 203.508 -0.639593 1.69643 0
M  V30 2128 C 203.556 2.82794 2.2374 0
M  V30 2129 O 202.66 2.47756 3.29683 0
M  V30 2130 H 202.001 0.565263 0.348387 0
M  V30 2131 H 204.531 1.98621 0.490985 0
M  V30 2132 H 204.541 3.07452 2.68212 0
M  V30 2133 H 203.216 3.76756 1.76146 0
M  V30 2134 H 201.793 2.33739 2.90552 0
M  V30 2135 N 203.978 -0.674533 1.42435 0
M  V30 2136 C 204.941 -1.76986 1.45632 0
M  V30 2137 C 205.941 -1.5708 0.343871 0
M  V30 2138 O 207.131 -1.63367 0.604709 0
M  V30 2139 C 204.263 -3.15623 1.28822 0
M  V30 2140 H 205.456 -1.75539 2.43158 0
M  V30 2141 H 203.009 -0.884189 1.28887 0
M  V30 2142 H 203.744 -3.22696 0.322193 0
M  V30 2143 H 203.529 -3.31475 2.09444 0
M  V30 2144 H 205.019 -3.95537 1.33942 0
M  V30 2145 N 205.456 -1.28612 -0.910864 0
M  V30 2146 C 206.366 -1.14643 -2.0468 0
M  V30 2147 C 207.382 -0.0723121 -1.7385 0
M  V30 2148 O 208.558 -0.282178 -1.99413 0
M  V30 2149 C 205.623 -0.812561 -3.37044 0
M  V30 2150 C 204.684 -1.96935 -3.81465 0
M  V30 2151 C 203.917 -1.65131 -5.07511 0
M  V30 2152 O 204.14 -0.567013 -5.67575 0
M  V30 2153 O 203.074 -2.49585 -5.47714 0
M  V30 2154 H 206.9 -2.1001 -2.19384 0
M  V30 2155 H 204.485 -1.07958 -1.03274 0
M  V30 2156 H 206.367 -0.640441 -4.16505 0
M  V30 2157 H 205.042 0.111426 -3.23508 0
M  V30 2158 H 203.949 -2.19664 -3.02818 0
M  V30 2159 H 205.282 -2.87414 -3.99567 0
M  V30 2160 N 206.934 1.1197 -1.10907 0
M  V30 2161 C 208.211 1.79959 -0.766432 0
M  V30 2162 C 208.591 1.97466 0.746363 0
M  V30 2163 O 207.939 1.55491 1.67436 0
M  V30 2164 C 208.149 3.14009 -1.52314 0
M  V30 2165 C 209.497 3.89134 -1.69883 0
M  V30 2166 O 210.521 3.2368 -1.48692 0
M  V30 2167 O 209.38 5.06572 -2.05054 0
M  V30 2168 H 206.474 0.779208 -0.277062 0
M  V30 2169 H 209.02 1.18762 -1.21217 0
M  V30 2170 H 207.792 2.96587 -2.55249 0
M  V30 2171 H 207.415 3.82915 -1.07059 0
M  V30 2172 N 208.412 0.89855 1.29475 0
M  V30 2173 C 209.658 0.524658 1.95896 0
M  V30 2174 C 209.991 -0.926468 1.70676 0
M  V30 2175 O 209.266 -1.65665 1.01908 0
M  V30 2176 C 209.549 0.81633 3.50725 0
M  V30 2177 C 209.402 2.31907 3.85408 0
M  V30 2178 C 210.721 0.302038 4.39062 0
M  V30 2179 H 207.84 0.19209 0.711527 0
M  V30 2180 H 210.482 1.12502 1.53112 0
M  V30 2181 H 208.632 0.305369 3.87298 0
M  V30 2182 H 210.304 2.89949 3.58786 0
M  V30 2183 H 208.547 2.78027 3.32992 0
M  V30 2184 H 209.218 2.47373 4.93468 0
M  V30 2185 H 211.694 0.739551 4.09475 0
M  V30 2186 H 210.57 0.535331 5.46283 0
M  V30 2187 H 210.831 -0.797216 4.34853 0
M  V30 2188 N 209.89 -1.43072 0.660911 0
M  V30 2189 C 211.306 -1.56169 0.329173 0
M  V30 2190 C 211.506 -1.64317 -1.16629 0
M  V30 2191 O 210.562 -1.60245 -1.95135 0
M  V30 2192 C 211.875 -2.81873 1.04729 0
M  V30 2193 C 213.423 -2.95627 1.02828 0
M  V30 2194 C 213.898 -4.24174 1.72744 0
M  V30 2195 N 215.389 -4.31055 1.69545 0
M  V30 2196 C 216.124 -5.29304 2.20511 0
M  V30 2197 N 215.62 -6.33786 2.79799 0
M  V30 2198 N 217.413 -5.21008 2.10966 0
M  V30 2199 H 209.564 -1.36027 1.63127 0
M  V30 2200 H 211.827 -0.653823 0.686454 0
M  V30 2201 H 211.533 -2.81942 2.10242 0
M  V30 2202 H 211.407 -3.72338 0.603702 0
M  V30 2203 H 213.794 -2.95094 -0.0184742 0
M  V30 2204 H 213.875 -2.06431 1.51063 0
M  V30 2205 H 213.519 -4.25467 2.7738 0
M  V30 2206 H 213.449 -5.1228 1.2197 0
M  V30 2207 H 215.94 -3.56174 1.26288 0
M  V30 2208 H 216.253 -7.05086 3.16344 0
M  V30 2209 H 214.598 -6.34387 2.83863 0
M  V30 2210 H 217.789 -4.38301 1.64347 0
M  V30 2211 H 217.962 -5.97416 2.50993 0
M  V30 2212 N 211.368 -0.403325 -1.52352 0
M  V30 2213 C 212.315 0.425011 -2.26853 0
M  V30 2214 C 213.285 1.04598 -1.29029 0
M  V30 2215 O 214.47 1.07135 -1.57882 0
M  V30 2216 C 211.61 1.53888 -3.08889 0
M  V30 2217 C 210.723 0.939396 -4.21663 0
M  V30 2218 C 209.858 2.02547 -4.91068 0
M  V30 2219 C 208.897 1.40263 -5.95813 0
M  V30 2220 N 208.034 2.4286 -6.58759 0
M  V30 2221 H 212.874 -0.21674 -2.97211 0
M  V30 2222 H 210.411 -0.118722 -1.4662 0
M  V30 2223 H 212.369 2.19558 -3.54753 0
M  V30 2224 H 210.999 2.15074 -2.40714 0
M  V30 2225 H 210.051 0.171898 -3.80011 0
M  V30 2226 H 211.363 0.44436 -4.96817 0
M  V30 2227 H 210.517 2.75958 -5.40308 0
M  V30 2228 H 209.256 2.55415 -4.15469 0
M  V30 2229 H 208.261 0.653833 -5.45898 0
M  V30 2230 H 209.486 0.881719 -6.73352 0
M  V30 2231 H 207.432 2.94871 -5.85992 0
M  V30 2232 H 207.349 1.98152 -7.2957 0
M  V30 2233 H 208.617 3.15858 -7.12639 0
M  V30 2234 N 212.846 1.57033 -0.133567 0
M  V30 2235 C 214.092 1.95976 0.521649 0
M  V30 2236 C 214.425 1.01779 1.65393 0
M  V30 2237 O 213.7 0.0576581 1.94415 0
M  V30 2238 C 213.983 3.44738 1.04057 0
M  V30 2239 C 213.836 4.49711 -0.0892897 0
M  V30 2240 C 215.155 3.95682 1.92675 0
M  V30 2241 H 212.274 0.712579 0.188149 0
M  V30 2242 H 214.916 1.88813 -0.212076 0
M  V30 2243 H 213.066 3.50973 1.66583 0
M  V30 2244 H 214.738 4.55565 -0.725152 0
M  V30 2245 H 212.981 4.27261 -0.750378 0
M  V30 2246 H 213.652 5.51099 0.315284 0
M  V30 2247 H 216.128 3.91841 1.39998 0
M  V30 2248 H 215.004 5.00262 2.25897 0
M  V30 2249 H 215.265 3.37239 2.85872 0
M  V30 2250 N 214.325 -0.140222 1.56975 0
M  V30 2251 C 215.565 -0.857823 1.85528 0
M  V30 2252 C 215.929 -1.78039 0.718768 0
M  V30 2253 O 217.13 -2.53795 0.885521 0
M  V30 2254 C 215.401 -1.60615 3.19277 0
M  V30 2255 S 216.96 -2.36824 3.69405 0
M  V30 2256 H 213.778 -0.286727 0.650622 0
M  V30 2257 H 216.38 -0.117408 1.95147 0
M  V30 2258 H 215.084 -0.919994 3.99955 0
M  V30 2259 H 214.615 -2.38735 3.12681 0
M  V30 2260 H 216.63 -3.62148 3.3921 0
M  V30 2261 N 215.803 -1.52179 -0.40978 0
M  V30 2262 C 216.735 -1.71703 -1.51825 0
M  V30 2263 C 217.748 -0.597445 -1.51441 0
M  V30 2264 O 218.937 -0.872582 -1.55719 0
M  V30 2265 C 216.037 -1.74171 -2.90719 0
M  V30 2266 C 215.21 -3.03156 -3.15302 0
M  V30 2267 C 214.269 -2.97445 -4.34065 0
M  V30 2268 O 213.295 -3.71352 -4.31377 0
M  V30 2269 N 214.497 -2.15191 -5.39141 0
M  V30 2270 H 217.262 -2.67334 -1.35472 0
M  V30 2271 H 214.823 -1.50409 -0.599069 0
M  V30 2272 H 216.815 -1.67884 -3.68235 0
M  V30 2273 H 215.385 -0.860166 -3.00533 0
M  V30 2274 H 214.605 -3.23097 -2.25836 0
M  V30 2275 H 215.893 -3.88484 -3.28569 0
M  V30 2276 H 215.291 -1.54573 -5.44173 0
M  V30 2277 H 213.848 -2.1476 -6.15403 0
M  V30 2278 N 217.281 0.66697 -1.42791 0
M  V30 2279 C 218.558 1.4234 -1.34159 0
M  V30 2280 C 218.938 2.11093 0.0172729 0
M  V30 2281 O 218.286 2.03808 1.03318 0
M  V30 2282 C 218.496 2.41942 -2.51526 0
M  V30 2283 C 219.844 3.06353 -2.93995 0
M  V30 2284 O 220.868 2.52269 -2.51473 0
M  V30 2285 O 219.727 4.04376 -3.67617 0
M  V30 2286 H 216.821 0.635277 -0.529483 0
M  V30 2287 H 219.367 0.695034 -1.54814 0
M  V30 2288 H 218.139 1.89991 -3.42081 0
M  V30 2289 H 217.762 3.22249 -2.32898 0
M  V30 2290 N 218.759 1.29093 0.90403 0
M  V30 2291 C 219.999 1.18076 1.66845 0
M  V30 2292 C 220.363 -0.26436 1.90171 0
M  V30 2293 O 221.564 -0.497423 2.64157 0
M  V30 2294 C 219.835 1.96722 2.98388 0
M  V30 2295 S 221.394 2.0219 3.89441 0
M  V30 2296 H 218.212 0.421104 0.572881 0
M  V30 2297 H 220.814 1.63322 1.07453 0
M  V30 2298 H 219.518 3.00866 2.7912 0
M  V30 2299 H 219.049 1.52064 3.62823 0
M  V30 2300 H 221.064 1.13545 4.83034 0
M  V30 2301 N 220.237 -1.11381 1.11499 0
M  V30 2302 C 221.648 -1.6465 0.880191 0
M  V30 2303 C 221.999 -1.87199 -0.587434 0
M  V30 2304 O 221.124 -1.60667 -1.44966 0
M  V30 2305 C 221.719 -2.99105 1.59128 0
M  V30 2306 C 220.278 -3.49279 1.40289 0
M  V30 2307 C 219.425 -2.24077 1.63354 0
M  V30 2308 H 222.376 -0.950123 1.27116 0
M  V30 2309 H 222.397 -3.66107 1.03664 0
M  V30 2310 H 221.909 -2.82661 2.65941 0
M  V30 2311 H 220.01 -3.70887 0.356888 0
M  V30 2312 H 220.123 -4.2803 2.15238 0
M  V30 2313 H 218.487 -2.31733 1.05698 0
M  V30 2314 H 219.27 -2.10175 2.71443 0
M  V30 2315 N 221.715 -0.905404 -1.28997 0
M  V30 2316 C 222.645 -0.404212 -2.29975 0
M  V30 2317 C 223.626 0.523784 -1.61835 0
M  V30 2318 O 224.811 0.433298 -1.89304 0
M  V30 2319 C 221.941 0.364042 -3.45387 0
M  V30 2320 C 220.895 -0.474048 -4.25367 0
M  V30 2321 C 220.221 0.422045 -5.33032 0
M  V30 2322 C 221.521 -1.72696 -4.92923 0
M  V30 2323 H 223.215 -1.24807 -2.72146 0
M  V30 2324 H 220.761 -0.601585 -1.30832 0
M  V30 2325 H 222.714 0.725447 -4.15109 0
M  V30 2326 H 221.438 1.24174 -3.02074 0
M  V30 2327 H 220.097 -0.81786 -3.57361 0
M  V30 2328 H 219.745 1.29804 -4.85963 0
M  V30 2329 H 219.445 -0.135057 -5.87445 0
M  V30 2330 H 220.969 0.779517 -6.05604 0
M  V30 2331 H 222.383 -1.43495 -5.55051 0
M  V30 2332 H 220.78 -2.22582 -5.57295 0
M  V30 2333 H 221.85 -2.45964 -4.17887 0
M  V30 2334 N 223.193 1.4272 -0.668489 0
M  V30 2335 C 224.123 2.335 -0.000100175 0
M  V30 2336 C 225.104 1.50328 0.795964 0
M  V30 2337 O 226.289 1.78949 0.754385 0
M  V30 2338 C 223.419 3.33874 0.956302 0
M  V30 2339 C 222.373 4.27152 0.269278 0
M  V30 2340 C 221.699 5.17684 1.33818 0
M  V30 2341 C 222.999 5.15373 -0.847805 0
M  V30 2342 H 224.693 2.89639 -0.758244 0
M  V30 2343 H 222.239 1.39269 -0.366079 0
M  V30 2344 H 224.192 3.9629 1.43292 0
M  V30 2345 H 222.916 2.76025 1.74579 0
M  V30 2346 H 221.575 3.66123 -0.187042 0
M  V30 2347 H 221.223 4.56165 2.1195 0
M  V30 2348 H 220.923 5.80918 0.883659 0
M  V30 2349 H 222.447 5.82974 1.81586 0
M  V30 2350 H 223.861 5.7151 -0.452681 0
M  V30 2351 H 222.258 5.87407 -1.22773 0
M  V30 2352 H 223.328 4.5415 -1.69929 0
M  V30 2353 N 224.671 0.411399 1.52136 0
M  V30 2354 C 225.634 -0.401089 2.25663 0
M  V30 2355 C 226.634 -0.971732 1.28117 0
M  V30 2356 O 227.824 -0.850254 1.52041 0
M  V30 2357 C 224.956 -1.56483 3.02863 0
M  V30 2358 H 226.149 0.24295 2.98914 0
M  V30 2359 H 223.702 0.163968 1.55438 0
M  V30 2360 H 224.437 -2.24567 2.33967 0
M  V30 2361 H 224.222 -1.16211 3.74483 0
M  V30 2362 H 225.712 -2.13951 3.58629 0
M  V30 2363 N 226.149 -1.5696 0.141893 0
M  V30 2364 C 227.56 -1.82797 -0.379776 0
M  V30 2365 C 227.911 -1.06033 -1.6508 0
M  V30 2366 O 227.036 -0.304011 -2.14254 0
M  V30 2367 C 227.631 -3.31578 -0.695802 0
M  V30 2368 C 226.19 -3.58014 -1.16201 0
M  V30 2369 C 225.337 -2.76699 -0.182455 0
M  V30 2370 H 228.288 -1.54406 0.366675 0
M  V30 2371 H 228.309 -3.47454 -1.55099 0
M  V30 2372 H 227.821 -3.87421 0.229449 0
M  V30 2373 H 225.922 -3.07553 -2.10338 0
M  V30 2374 H 226.035 -4.66501 -1.09151 0
M  V30 2375 H 224.399 -2.45618 -0.674072 0
M  V30 2376 H 225.182 -3.35311 0.736297 0
M  V30 2377 N 227.627 0.131896 -1.57047 0
M  V30 2378 C 228.557 1.16384 -2.02428 0
M  V30 2379 C 229.538 1.43936 -0.90644 0
M  V30 2380 O 230.723 1.54599 -1.17528 0
M  V30 2381 C 227.853 2.49328 -2.4177 0
M  V30 2382 C 226.807 2.36266 -3.56879 0
M  V30 2383 C 226.133 3.74057 -3.8208 0
M  V30 2384 C 227.433 1.834 -4.89042 0
M  V30 2385 H 229.127 0.786433 -2.88887 0
M  V30 2386 H 226.673 0.376855 -1.38981 0
M  V30 2387 H 228.626 3.21759 -2.7212 0
M  V30 2388 H 227.35 2.88934 -1.52266 0
M  V30 2389 H 226.009 1.66286 -3.26718 0
M  V30 2390 H 225.657 4.11125 -2.89803 0
M  V30 2391 H 225.357 3.66174 -4.59554 0
M  V30 2392 H 226.881 4.48012 -4.1487 0
M  V30 2393 H 228.295 2.45636 -5.18011 0
M  V30 2394 H 226.692 1.8637 -5.70426 0
M  V30 2395 H 227.762 0.790662 -4.7841 0
M  V30 2396 N 229.106 1.52395 0.401703 0
M  V30 2397 C 230.054 1.7689 1.51039 0
M  V30 2398 C 231.048 0.636298 1.56996 0
M  V30 2399 O 232.254 0.818507 1.60314 0
M  V30 2400 H 228.629 0.559502 0.502456 0
M  V30 2401 H 230.6 2.69757 1.27568 0
M  V30 2402 C 229.349 1.94331 2.88324 0
M  V30 2403 H 228.672 2.80905 2.84486 0
M  V30 2404 H 230.112 2.15466 3.65172 0
M  V30 2405 C 228.571 0.712396 3.29282 0
M  V30 2406 O 229.101 -0.116218 4.01532 0
M  V30 2407 N 227.307 0.546154 2.85422 0
M  V30 2408 H 226.854 1.22156 2.26794 0
M  V30 2409 H 226.812 -0.276113 3.13185 0
M  V30 2410 N 230.584 -0.659388 1.43143 0
M  V30 2411 C 231.861 -1.41627 1.34912 0
M  V30 2412 C 232.241 -2.11099 -0.00607785 0
M  V30 2413 O 231.589 -2.04353 -1.02236 0
M  V30 2414 C 231.799 -2.40604 2.52805 0
M  V30 2415 C 233.147 -3.04789 2.95616 0
M  V30 2416 O 234.171 -2.50932 2.52807 0
M  V30 2417 O 233.03 -4.02421 3.69756 0
M  V30 2418 H 230.124 -0.63246 0.532844 0
M  V30 2419 H 232.67 -0.686814 1.5518 0
M  V30 2420 H 231.442 -1.88174 3.43083 0
M  V30 2421 H 231.065 -3.21009 2.34604 0
M  V30 2422 N 232.062 -1.29571 -0.897171 0
M  V30 2423 C 233.29 -1.20583 -1.68129 0
M  V30 2424 C 233.705 0.233181 -1.87354 0
M  V30 2425 O 233.062 1.15579 -1.41236 0
M  V30 2426 C 233.113 -1.91772 -3.06441 0
M  V30 2427 O 232.834 -3.30053 -2.88091 0
M  V30 2428 C 234.335 -1.89291 -4.00854 0
M  V30 2429 H 231.555 -0.417826 -0.525036 0
M  V30 2430 H 234.099 -1.70987 -1.12177 0
M  V30 2431 H 232.254 -1.45196 -3.59161 0
M  V30 2432 H 232.668 -3.65942 -3.75748 0
M  V30 2433 H 234.142 -2.43662 -4.95311 0
M  V30 2434 H 234.619 -0.869014 -4.30517 0
M  V30 2435 H 235.225 -2.35622 -3.54066 0
M  V30 2436 N 233.54 1.10788 -1.12088 0
M  V30 2437 C 234.956 1.34691 -0.856186 0
M  V30 2438 C 235.156 1.94791 0.515615 0
M  V30 2439 O 234.212 2.18524 1.26505 0
M  V30 2440 C 235.525 2.27208 -1.9697 0
M  V30 2441 C 237.073 2.40755 -2.00016 0
M  V30 2442 C 237.548 3.36598 -3.1059 0
M  V30 2443 N 239.039 3.44164 -3.10008 0
M  V30 2444 C 239.774 4.18284 -3.92206 0
M  V30 2445 N 239.27 4.95322 -4.84384 0
M  V30 2446 N 241.063 4.13865 -3.80357 0
M  V30 2447 H 233.214 0.70144 -2.00483 0
M  V30 2448 H 235.477 0.371405 -0.872217 0
M  V30 2449 H 235.183 1.90251 -2.958 0
M  V30 2450 H 235.057 3.27485 -1.87172 0
M  V30 2451 H 237.444 2.76982 -1.01808 0
M  V30 2452 H 237.525 1.40305 -2.13888 0
M  V30 2453 H 237.169 3.01096 -4.09028 0
M  V30 2454 H 237.099 4.36918 -2.93956 0
M  V30 2455 H 239.59 2.8922 -2.43228 0
M  V30 2456 H 239.903 5.49267 -5.43623 0
M  V30 2457 H 238.248 4.94459 -4.884 0
M  V30 2458 H 241.439 3.52773 -3.07683 0
M  V30 2459 H 241.612 4.71372 -4.44649 0
M  V30 2460 N 235.018 0.912232 1.28515 0
M  V30 2461 C 236.264 0.545405 1.95328 0
M  V30 2462 C 236.597 -0.908313 1.71649 0
M  V30 2463 O 235.872 -1.64575 1.03659 0
M  V30 2464 C 236.155 0.853483 3.4984 0
M  V30 2465 C 236.008 2.35982 3.82926 0
M  V30 2466 C 237.327 0.348589 4.38717 0
M  V30 2467 H 234.446 0.199626 0.709449 0
M  V30 2468 H 237.088 1.1412 1.5191 0
M  V30 2469 H 235.238 0.34643 3.86952 0
M  V30 2470 H 236.91 2.93738 3.55691 0
M  V30 2471 H 235.153 2.81543 3.30024 0
M  V30 2472 H 235.824 2.52593 4.90816 0
M  V30 2473 H 238.3 0.78294 4.08668 0
M  V30 2474 H 237.176 0.593242 5.45685 0
M  V30 2475 H 237.437 -0.751049 4.35674 0
M  V30 2476 N 236.496 -1.42363 0.676048 0
M  V30 2477 C 237.742 -2.0182 0.199125 0
M  V30 2478 C 238.075 -1.53339 -1.19168 0
M  V30 2479 O 237.35 -0.736124 -1.80032 0
M  V30 2480 C 237.633 -3.59331 0.235144 0
M  V30 2481 C 237.486 -4.17989 1.66149 0
M  V30 2482 C 238.805 -4.3813 -0.41595 0
M  V30 2483 H 235.924 -0.733293 0.0738311 0
M  V30 2484 H 238.566 -1.69368 0.86107 0
M  V30 2485 H 236.716 -3.87109 -0.328487 0
M  V30 2486 H 238.388 -4.0116 2.27747 0
M  V30 2487 H 236.631 -3.7377 2.20178 0
M  V30 2488 H 237.302 -5.27126 1.63837 0
M  V30 2489 H 239.778 -4.16051 0.0638529 0
M  V30 2490 H 238.654 -5.47717 -0.360115 0
M  V30 2491 H 238.915 -4.16101 -1.49373 0
M  V30 2492 N 237.974 -0.419461 -1.51915 0
M  V30 2493 C 238.924 0.418496 -2.24126 0
M  V30 2494 C 239.908 1.00495 -1.25656 0
M  V30 2495 O 241.1 0.926058 -1.50842 0
M  V30 2496 C 238.229 1.52899 -3.07371 0
M  V30 2497 C 237.315 0.952797 -4.13258 0
M  V30 2498 N 237.706 0.104175 -5.05693 0
M  V30 2499 C 236.004 1.22224 -4.28926 0
M  V30 2500 C 236.705 -0.21752 -5.81293 0
M  V30 2501 N 235.681 0.394293 -5.42168 0
M  V30 2502 H 239.483 -0.236048 -2.92951 0
M  V30 2503 H 236.997 -0.230481 -1.60756 0
M  V30 2504 H 238.994 2.14199 -3.57665 0
M  V30 2505 H 237.654 2.18605 -2.40088 0
M  V30 2506 H 238.665 -0.260924 -5.17242 0
M  V30 2507 H 235.342 1.87812 -3.72871 0
M  V30 2508 H 236.732 -0.906992 -6.6575 0
M  V30 2509 N 239.452 1.56882 -0.150215 0
M  V30 2510 C 240.415 2.1573 0.774157 0
M  V30 2511 C 241.415 1.0999 1.17298 0
M  V30 2512 O 242.605 1.35613 1.09338 0
M  V30 2513 C 239.737 2.72302 2.05096 0
M  V30 2514 H 240.93 2.98752 0.262201 0
M  V30 2515 H 238.483 1.55985 0.099248 0
M  V30 2516 H 239.218 1.92956 2.6065 0
M  V30 2517 H 239.003 3.49665 1.77416 0
M  V30 2518 H 240.493 3.17632 2.71109 0
M  V30 2519 N 240.93 -0.123565 1.57115 0
M  V30 2520 C 241.893 -1.13583 1.99076 0
M  V30 2521 C 242.893 -1.34564 0.880296 0
M  V30 2522 O 244.083 -1.31158 1.14644 0
M  V30 2523 C 241.215 -2.49128 2.32698 0
M  V30 2524 H 242.408 -0.775287 2.89706 0
M  V30 2525 H 239.961 -0.36771 1.51913 0
M  V30 2526 H 240.696 -2.90111 1.44934 0
M  V30 2527 H 240.481 -2.35255 3.13684 0
M  V30 2528 H 241.971 -3.2199 2.65918 0
M  V30 2529 N 242.408 -1.52605 -0.393616 0
M  V30 2530 C 243.355 -1.77055 -1.48054 0
M  V30 2531 C 244.325 -0.61358 -1.54352 0
M  V30 2532 O 245.51 -0.852806 -1.70681 0
M  V30 2533 C 242.65 -1.94108 -2.85335 0
M  V30 2534 C 241.763 -3.21792 -2.88226 0
M  V30 2535 C 240.898 -3.29188 -4.16904 0
M  V30 2536 C 239.937 -4.51013 -4.13828 0
M  V30 2537 N 239.074 -4.55716 -5.34105 0
M  V30 2538 H 243.914 -2.69815 -1.26506 0
M  V30 2539 H 241.451 -1.33683 -0.61379 0
M  V30 2540 H 243.409 -2.01979 -3.65049 0
M  V30 2541 H 242.039 -1.04713 -3.05344 0
M  V30 2542 H 241.091 -3.23015 -2.00911 0
M  V30 2543 H 242.403 -4.11557 -2.8182 0
M  V30 2544 H 241.557 -3.36216 -5.05018 0
M  V30 2545 H 240.296 -2.37389 -4.26026 0
M  V30 2546 H 239.301 -4.44115 -3.24102 0
M  V30 2547 H 240.526 -5.44123 -4.06333 0
M  V30 2548 H 238.472 -3.66807 -5.43865 0
M  V30 2549 H 238.389 -5.39346 -5.29756 0
M  V30 2550 H 239.657 -4.66993 -6.2413 0
M  V30 2551 N 243.887 0.651787 -1.4349 0
M  V30 2552 C 244.85 1.74647 -1.48429 0
M  V30 2553 C 245.85 1.56513 -0.368817 0
M  V30 2554 O 247.04 1.62385 -0.630623 0
M  V30 2555 C 244.172 3.13533 -1.33827 0
M  V30 2556 H 245.365 1.71649 -2.4592 0
M  V30 2557 H 242.918 0.863573 -1.30277 0
M  V30 2558 H 243.653 3.22142 -0.37349 0
M  V30 2559 H 243.438 3.28101 -2.14691 0
M  V30 2560 H 244.928 3.93356 -1.40218 0
M  V30 2561 N 245.365 1.30045 0.890287 0
M  V30 2562 C 246.328 1.15963 1.977 0
M  V30 2563 C 247.328 0.0923777 1.60534 0
M  V30 2564 O 248.518 0.340071 1.70848 0
M  V30 2565 C 245.65 0.775451 3.31963 0
M  V30 2566 H 246.843 2.12502 2.11619 0
M  V30 2567 H 244.396 1.13366 1.07601 0
M  V30 2568 H 245.131 -0.189671 3.23745 0
M  V30 2569 H 244.916 1.54668 3.60306 0
M  V30 2570 H 246.406 0.700251 4.11687 0
M  V30 2571 N 246.843 -1.10192 1.12674 0
M  V30 2572 C 247.773 -2.18652 0.819362 0
M  V30 2573 C 248.754 -1.68698 -0.217915 0
M  V30 2574 O 249.939 -1.94041 -0.0785581 0
M  V30 2575 C 247.069 -3.46202 0.27594 0
M  V30 2576 C 246.023 -4.09444 1.24656 0
M  V30 2577 C 245.349 -5.31725 0.563258 0
M  V30 2578 C 246.649 -4.52863 2.60217 0
M  V30 2579 H 248.343 -2.44622 1.72628 0
M  V30 2580 H 245.889 -1.17571 0.831451 0
M  V30 2581 H 247.842 -4.21372 0.0486149 0
M  V30 2582 H 246.566 -3.1973 -0.666331 0
M  V30 2583 H 245.225 -3.36284 1.45974 0
M  V30 2584 H 244.873 -5.0153 -0.384235 0
M  V30 2585 H 244.573 -5.74991 1.21075 0
M  V30 2586 H 246.097 -6.09624 0.34503 0
M  V30 2587 H 247.511 -5.19294 2.42913 0
M  V30 2588 H 245.908 -5.06986 3.21068 0
M  V30 2589 H 246.978 -3.65656 3.18471 0
M  V30 2590 N 248.321 -0.919034 -1.28029 0
M  V30 2591 C 249.284 -0.416182 -2.2539 0
M  V30 2592 C 250.284 0.460438 -1.54067 0
M  V30 2593 O 251.474 0.262744 -1.72207 0
M  V30 2594 C 248.606 0.402707 -3.38513 0
M  V30 2595 H 249.799 -1.27629 -2.71387 0
M  V30 2596 H 247.352 -0.698919 -1.39803 0
M  V30 2597 H 248.087 1.282 -2.97885 0
M  V30 2598 H 247.872 -0.225698 -3.9145 0
M  V30 2599 H 249.362 0.745191 -4.10897 0
M  V30 2600 N 249.799 1.42003 -0.683588 0
M  V30 2601 C 250.762 2.29191 -0.0198243 0
M  V30 2602 C 251.762 1.43773 0.72013 0
M  V30 2603 O 252.952 1.65061 0.556815 0
M  V30 2604 C 250.084 3.26435 0.982487 0
M  V30 2605 H 251.277 2.8938 -0.787345 0
M  V30 2606 H 248.83 1.49789 -0.446418 0
M  V30 2607 H 249.565 2.71203 1.77819 0
M  V30 2608 H 249.35 3.89449 0.455182 0
M  V30 2609 H 250.84 3.918 1.44508 0
M  V30 2610 N 251.277 0.427512 1.51691 0
M  V30 2611 C 252.524 -0.142229 2.02 0
M  V30 2612 C 252.852 -1.43566 1.31221 0
M  V30 2613 O 252.107 -1.91298 0.412744 0
M  V30 2614 C 252.406 -0.418249 3.54944 0
M  V30 2615 C 252.072 0.788187 4.43958 0
M  V30 2616 C 250.734 1.11906 4.68007 0
M  V30 2617 C 253.086 1.59347 4.96244 0
M  V30 2618 C 250.414 2.25608 5.41588 0
M  V30 2619 C 252.766 2.7214 5.71072 0
M  V30 2620 C 251.43 3.05692 5.93387 0
M  V30 2621 H 250.7 -0.0520451 0.73917 0
M  V30 2622 H 253.347 0.572697 1.82736 0
M  V30 2623 H 251.652 -1.21496 3.72486 0
M  V30 2624 H 253.349 -0.872339 3.91397 0
M  V30 2625 H 249.939 0.520344 4.2543 0
M  V30 2626 H 254.123 1.35106 4.77556 0
M  V30 2627 H 249.379 2.51929 5.57083 0
M  V30 2628 H 253.553 3.34914 6.10578 0
M  V30 2629 H 251.18 3.9391 6.50184 0
M  V30 2630 N 252.755 -1.56801 0.158532 0
M  V30 2631 C 253.703 -2.18638 -0.793729 0
M  V30 2632 C 254.697 -1.14669 -1.24689 0
M  V30 2633 O 255.903 -1.32895 -1.21403 0
M  V30 2634 H 252.278 -0.700226 -0.274204 0
M  V30 2635 H 254.249 -2.97367 -0.248095 0
M  V30 2636 C 252.998 -2.83139 -2.0181 0
M  V30 2637 H 252.321 -3.62863 -1.67841 0
M  V30 2638 H 253.761 -3.29894 -2.66357 0
M  V30 2639 C 252.22 -1.82244 -2.83353 0
M  V30 2640 O 252.75 -1.3 -3.80083 0
M  V30 2641 N 250.956 -1.51288 -2.48114 0
M  V30 2642 H 250.503 -1.93964 -1.69516 0
M  V30 2643 H 250.461 -0.840296 -3.02963 0
M  V30 2644 N 254.233 0.115231 -1.57178 0
M  V30 2645 C 255.196 1.12526 -1.99676 0
M  V30 2646 C 256.196 1.34095 -0.88742 0
M  V30 2647 O 257.386 1.30548 -1.15337 0
M  V30 2648 C 254.518 2.4789 -2.34015 0
M  V30 2649 H 255.711 0.759912 -2.90113 0
M  V30 2650 H 253.264 0.359648 -1.52106 0
M  V30 2651 H 253.999 2.89339 -1.4647 0
M  V30 2652 H 253.784 2.33588 -3.14927 0
M  V30 2653 H 255.274 3.20575 -2.67622 0
M  V30 2654 N 255.711 1.52812 0.385517 0
M  V30 2655 C 256.643 1.74096 1.49074 0
M  V30 2656 C 257.656 0.621462 1.50472 0
M  V30 2657 O 258.845 0.897245 1.54311 0
M  V30 2658 C 255.945 1.78774 2.87911 0
M  V30 2659 C 255.118 3.08134 3.10439 0
M  V30 2660 C 254.177 3.04313 4.29278 0
M  V30 2661 O 253.203 3.78168 4.25415 0
M  V30 2662 N 254.405 2.23741 5.35649 0
M  V30 2663 H 257.17 2.69455 1.31202 0
M  V30 2664 H 254.731 1.51343 0.575065 0
M  V30 2665 H 256.723 1.73721 3.65518 0
M  V30 2666 H 255.293 0.907869 2.99126 0
M  V30 2667 H 254.513 3.26649 2.20667 0
M  V30 2668 H 255.801 3.93662 3.22347 0
M  V30 2669 H 255.199 1.63211 5.41645 0
M  V30 2670 H 253.756 2.24524 6.11909 0
M  V30 2671 N 257.189 -0.644168 1.43834 0
M  V30 2672 C 258.137 -1.77793 1.49974 0
M  V30 2673 C 259.131 -1.65253 0.372536 0
M  V30 2674 O 260.337 -1.7149 0.546924 0
M  V30 2675 H 256.712 -0.58675 0.47035 0
M  V30 2676 H 258.683 -1.69736 2.45423 0
M  V30 2677 C 257.432 -3.16087 1.4486 0
M  V30 2678 H 256.755 -3.26378 2.30905 0
M  V30 2679 H 258.195 -3.95349 1.53217 0
M  V30 2680 C 256.654 -3.36484 0.167463 0
M  V30 2681 O 257.184 -3.94298 -0.767609 0
M  V30 2682 N 255.39 -2.90504 0.0747556 0
M  V30 2683 H 254.937 -2.4364 0.836507 0
M  V30 2684 H 254.895 -3.04527 -0.781714 0
M  V30 2685 N 258.668 -1.30515 -0.883378 0
M  V30 2686 C 259.616 -1.16941 -2.01066 0
M  V30 2687 C 260.61 -0.0809148 -1.69207 0
M  V30 2688 O 261.816 -0.241877 -1.78367 0
M  V30 2689 H 258.191 -0.361705 -0.659298 0
M  V30 2690 H 260.162 -2.12344 -2.09649 0
M  V30 2691 C 258.911 -0.879694 -3.36388 0
M  V30 2692 H 258.234 -1.70936 -3.61415 0
M  V30 2693 H 259.674 -0.82483 -4.159 0
M  V30 2694 C 258.133 0.417409 -3.34304 0
M  V30 2695 O 258.663 1.43843 -3.75063 0
M  V30 2696 N 256.869 0.429141 -2.87414 0
M  V30 2697 H 256.416 -0.402222 -2.5444 0
M  V30 2698 H 256.374 1.29696 -2.86403 0
M  V30 2699 N 260.146 1.09593 -1.13257 0
M  V30 2700 C 261.394 1.81375 -0.891492 0
M  V30 2701 C 261.715 1.86049 0.584009 0
M  V30 2702 O 260.985 1.34481 1.42449 0
M  V30 2703 H 259.565 0.671708 -0.326828 0
M  V30 2704 H 262.227 1.3256 -1.42877 0
M  V30 2705 H 261.323 2.84612 -1.28071 0
M  V30 2706 N 261.624 0.925811 1.2754 0
M  V30 2707 C 262.849 0.580924 1.99098 0
M  V30 2708 C 263.274 -0.833555 1.68622 0
M  V30 2709 O 262.632 -1.55903 0.925422 0
M  V30 2710 C 262.68 0.811186 3.51358 0
M  V30 2711 O 261.784 -0.124129 4.12213 0
M  V30 2712 H 261.125 0.223873 0.625122 0
M  V30 2713 H 263.655 1.24455 1.62395 0
M  V30 2714 H 263.665 0.72601 4.01489 0
M  V30 2715 H 262.34 1.84227 3.72872 0
M  V30 2716 H 260.917 0.0108006 3.72898 0
M  V30 2717 N 263.102 -1.41638 0.69111 0
M  V30 2718 C 264.05 -2.32597 0.0115199 0
M  V30 2719 C 265.044 -1.5072 -0.773296 0
M  V30 2720 O 266.25 -1.66685 -0.67942 0
M  V30 2721 H 262.625 -0.751849 -0.0150746 0
M  V30 2722 H 264.596 -2.87593 0.795791 0
M  V30 2723 C 263.345 -3.35467 -0.914172 0
M  V30 2724 H 262.668 -3.9852 -0.319687 0
M  V30 2725 H 264.108 -4.01662 -1.35808 0
M  V30 2726 C 262.567 -2.69004 -2.02826 0
M  V30 2727 O 263.097 -2.53444 -3.11655 0
M  V30 2728 N 261.303 -2.2777 -1.80469 0
M  V30 2729 H 260.85 -2.40626 -0.919615 0
M  V30 2730 H 260.808 -1.83635 -2.55197 0
M  V30 2731 N 264.58 -0.43555 -1.51462 0
M  V30 2732 C 265.827 0.131514 -2.02072 0
M  V30 2733 C 266.155 1.42868 -1.31981 0
M  V30 2734 O 265.41 1.91076 -0.422883 0
M  V30 2735 C 265.709 0.39942 -3.55161 0
M  V30 2736 C 265.375 -0.81172 -4.43533 0
M  V30 2737 C 264.037 -1.14387 -4.67407 0
M  V30 2738 C 266.389 -1.61976 -4.95392 0
M  V30 2739 C 263.717 -2.28477 -5.40384 0
M  V30 2740 C 266.069 -2.75164 -5.6962 0
M  V30 2741 C 264.733 -3.08835 -5.91758 0
M  V30 2742 H 264.003 0.0481244 -0.739436 0
M  V30 2743 H 266.65 -0.58238 -1.8243 0
M  V30 2744 H 264.955 1.19519 -3.73125 0
M  V30 2745 H 266.652 0.85157 -3.91854 0
M  V30 2746 H 263.242 -0.542898 -4.25148 0
M  V30 2747 H 267.426 -1.37637 -4.76833 0
M  V30 2748 H 262.682 -2.5488 -5.55739 0
M  V30 2749 H 266.856 -3.38147 -6.08793 0
M  V30 2750 H 264.483 -3.97353 -6.48086 0
M  V30 2751 N 266.058 1.56714 -0.166846 0
M  V30 2752 C 266.99 2.14914 0.796537 0
M  V30 2753 C 268.003 1.10357 1.19688 0
M  V30 2754 O 269.192 1.37561 1.13751 0
M  V30 2755 C 266.292 2.67326 2.08303 0
M  V30 2756 C 265.465 3.96493 1.84696 0
M  V30 2757 C 264.524 4.34014 2.97521 0
M  V30 2758 O 263.55 5.01973 2.6835 0
M  V30 2759 N 264.752 3.95208 4.25196 0
M  V30 2760 H 267.517 2.98205 0.299006 0
M  V30 2761 H 265.078 1.61892 0.0160839 0
M  V30 2762 H 267.07 2.89428 2.82867 0
M  V30 2763 H 265.64 1.88649 2.4926 0
M  V30 2764 H 264.86 3.82814 0.940602 0
M  V30 2765 H 266.148 4.8086 1.66285 0
M  V30 2766 H 265.546 3.40487 4.51758 0
M  V30 2767 H 264.103 4.2232 4.96477 0
M  V30 2768 N 267.536 -0.106894 1.57237 0
M  V30 2769 C 268.466 -1.13148 2.04254 0
M  V30 2770 C 269.447 -1.42476 0.929224 0
M  V30 2771 O 270.632 -1.52709 1.19973 0
M  V30 2772 C 267.762 -2.4545 2.45706 0
M  V30 2773 C 266.716 -2.30558 3.60592 0
M  V30 2774 C 266.042 -3.67931 3.87983 0
M  V30 2775 C 267.342 -1.75597 4.91897 0
M  V30 2776 H 269.036 -0.740374 2.90101 0
M  V30 2777 H 266.582 -0.354696 1.39563 0
M  V30 2778 H 268.535 -3.17389 2.77205 0
M  V30 2779 H 267.259 -2.86475 1.56843 0
M  V30 2780 H 265.918 -1.61067 3.29322 0
M  V30 2781 H 265.566 -4.06462 2.96306 0
M  V30 2782 H 265.266 -3.58817 4.65322 0
M  V30 2783 H 266.79 -4.41356 4.21945 0
M  V30 2784 H 268.204 -2.37364 5.21854 0
M  V30 2785 H 266.601 -1.77272 5.73319 0
M  V30 2786 H 267.671 -0.714451 4.79608 0
M  V30 2787 N 269.014 -1.53014 -0.377408 0
M  V30 2788 C 269.924 -1.81557 -1.48574 0
M  V30 2789 C 270.94 -0.703102 -1.59162 0
M  V30 2790 O 272.116 -0.99192 -1.75279 0
M  V30 2791 C 269.181 -1.9889 -2.83978 0
M  V30 2792 C 268.242 -3.22801 -2.83016 0
M  V30 2793 C 267.475 -3.39298 -4.11962 0
M  V30 2794 O 267.698 -2.60345 -5.0752 0
M  V30 2795 O 266.632 -4.32604 -4.18494 0
M  V30 2796 H 270.458 -2.75695 -1.27382 0
M  V30 2797 H 268.043 -1.38248 -0.566373 0
M  V30 2798 H 269.925 -2.11931 -3.6423 0
M  V30 2799 H 268.6 -1.07942 -3.05172 0
M  V30 2800 H 267.507 -3.15193 -2.01505 0
M  V30 2801 H 268.84 -4.13632 -2.66775 0
M  V30 2802 N 270.492 0.636531 -1.44174 0
M  V30 2803 C 271.402 1.77754 -1.53103 0
M  V30 2804 C 272.418 1.68928 -0.417034 0
M  V30 2805 O 273.594 1.89801 -0.6736 0
M  V30 2806 C 270.659 3.14115 -1.46741 0
M  V30 2807 C 269.72 3.34612 -2.68948 0
M  V30 2808 C 268.953 4.64467 -2.6288 0
M  V30 2809 O 269.176 5.44919 -1.68581 0
M  V30 2810 O 268.11 4.87049 -3.53648 0
M  V30 2811 H 271.936 1.73174 -2.49489 0
M  V30 2812 H 269.521 0.79709 -1.2636 0
M  V30 2813 H 271.403 3.95412 -1.45696 0
M  V30 2814 H 270.078 3.19249 -0.534975 0
M  V30 2815 H 268.985 2.53014 -2.75562 0
M  V30 2816 H 270.318 3.34336 -3.61221 0
M  V30 2817 N 271.97 1.30982 0.876444 0
M  V30 2818 C 273.219 1.19658 1.62373 0
M  V30 2819 C 273.532 -0.245636 1.94052 0
M  V30 2820 O 274.738 -0.48049 2.67214 0
M  V30 2821 C 273.194 2.09433 2.92687 0
M  V30 2822 C 272.802 3.58613 2.68516 0
M  V30 2823 C 274.546 2.06893 3.70669 0
M  V30 2824 C 272.453 4.40416 3.94699 0
M  V30 2825 H 271.383 0.444268 0.609214 0
M  V30 2826 H 274.034 1.55791 0.969605 0
M  V30 2827 H 272.416 1.66191 3.59439 0
M  V30 2828 H 273.59 4.10058 2.10212 0
M  V30 2829 H 271.905 3.63063 2.03898 0
M  V30 2830 H 274.502 2.65258 4.64265 0
M  V30 2831 H 274.845 1.05448 4.02724 0
M  V30 2832 H 275.378 2.48301 3.10792 0
M  V30 2833 H 272.117 5.42591 3.67798 0
M  V30 2834 H 271.637 3.93731 4.52477 0
M  V30 2835 H 273.316 4.52294 4.62644 0
M  V30 2836 N 273.449 -1.08991 1.13837 0
M  V30 2837 C 274.674 -1.85551 0.926585 0
M  V30 2838 C 275.099 -1.80782 -0.519566 0
M  V30 2839 O 274.457 -1.18855 -1.36906 0
M  V30 2840 C 274.505 -3.31266 1.42462 0
M  V30 2841 O 273.609 -4.07822 0.612789 0
M  V30 2842 H 272.95 -0.575192 0.331738 0
M  V30 2843 H 275.48 -1.37604 1.51414 0
M  V30 2844 H 275.49 -3.82112 1.43019 0
M  V30 2845 H 274.165 -3.34052 2.47754 0
M  V30 2846 H 272.742 -3.66731 0.675463 0
M  V30 2847 N 274.927 -0.932562 -1.27047 0
M  V30 2848 C 276.343 -0.633544 -1.46487 0
M  V30 2849 C 276.543 0.815746 -1.84249 0
M  V30 2850 O 275.599 1.59319 -1.95892 0
M  V30 2851 C 276.912 -1.58758 -2.55375 0
M  V30 2852 C 278.46 -1.59634 -2.69232 0
M  V30 2853 C 278.935 -2.53747 -3.81283 0
M  V30 2854 N 280.426 -2.51982 -3.88664 0
M  V30 2855 C 281.161 -3.21491 -4.74796 0
M  V30 2856 N 280.657 -4.00395 -5.65381 0
M  V30 2857 N 282.45 -3.10485 -4.68568 0
M  V30 2858 H 274.601 -1.86946 -1.00821 0
M  V30 2859 H 276.864 -0.802897 -0.504044 0
M  V30 2860 H 276.57 -2.62172 -2.34432 0
M  V30 2861 H 276.444 -1.33301 -3.52861 0
M  V30 2862 H 278.831 -0.569488 -2.89553 0
M  V30 2863 H 278.912 -1.89142 -1.72218 0
M  V30 2864 H 278.556 -3.56545 -3.61715 0
M  V30 2865 H 278.486 -2.21532 -4.77735 0
M  V30 2866 H 280.977 -1.94681 -3.23895 0
M  V30 2867 H 281.29 -4.50406 -6.27976 0
M  V30 2868 H 279.635 -4.04498 -5.65161 0
M  V30 2869 H 282.826 -2.48331 -3.96799 0
M  V30 2870 H 282.999 -3.64925 -5.35475 0
M  V30 2871 N 276.405 1.4127 -0.698611 0
M  V30 2872 C 277.368 2.29158 -0.044132 0
M  V30 2873 C 278.368 1.44529 0.704841 0
M  V30 2874 O 279.558 1.65643 0.539276 0
M  V30 2875 C 276.69 3.27459 0.947809 0
M  V30 2876 H 277.883 2.88529 -0.817994 0
M  V30 2877 H 275.436 1.49307 -0.46228 0
M  V30 2878 H 276.171 2.73073 1.74933 0
M  V30 2879 H 275.956 3.8991 0.41385 0
M  V30 2880 H 277.446 3.93311 1.40344 0
M  V30 2881 N 277.883 0.443576 1.51229 0
M  V30 2882 C 278.815 -0.400608 2.25672 0
M  V30 2883 C 279.828 -0.980945 1.29928 0
M  V30 2884 O 281.017 -0.874024 1.55638 0
M  V30 2885 C 278.117 -1.57304 3.00181 0
M  V30 2886 C 277.29 -1.11046 4.23069 0
M  V30 2887 C 276.349 -2.15374 4.80105 0
M  V30 2888 O 275.375 -1.74554 5.41774 0
M  V30 2889 N 276.577 -3.47922 4.64683 0
M  V30 2890 H 279.342 0.23745 2.98758 0
M  V30 2891 H 276.903 0.272809 1.59585 0
M  V30 2892 H 278.895 -2.26733 3.35223 0
M  V30 2893 H 277.465 -2.11632 2.30066 0
M  V30 2894 H 276.685 -0.243019 3.9345 0
M  V30 2895 H 277.973 -0.778888 5.02803 0
M  V30 2896 H 277.371 -3.83815 4.15575 0
M  V30 2897 H 275.928 -4.13228 5.0407 0
M  V30 2898 N 279.361 -1.56624 0.175154 0
M  V30 2899 C 280.291 -2.21155 -0.749195 0
M  V30 2900 C 281.272 -1.16836 -1.23626 0
M  V30 2901 O 282.457 -1.45277 -1.28873 0
M  V30 2902 C 279.587 -2.8553 -1.97711 0
M  V30 2903 C 278.541 -3.95921 -1.62575 0
M  V30 2904 C 277.867 -4.47365 -2.92864 0
M  V30 2905 C 279.167 -5.15323 -0.850838 0
M  V30 2906 H 280.861 -2.98653 -0.211295 0
M  V30 2907 H 278.407 -1.43651 -0.100188 0
M  V30 2908 H 280.36 -3.2935 -2.62881 0
M  V30 2909 H 279.084 -2.05406 -2.53921 0
M  V30 2910 H 277.743 -3.52762 -0.997719 0
M  V30 2911 H 277.391 -3.64027 -3.47122 0
M  V30 2912 H 277.091 -5.21839 -2.70106 0
M  V30 2913 H 278.615 -4.93873 -3.59056 0
M  V30 2914 H 280.029 -5.55812 -1.40521 0
M  V30 2915 H 278.426 -5.95739 -0.722154 0
M  V30 2916 H 279.496 -4.84661 0.152082 0
M  V30 2917 N 280.839 0.0985539 -1.57292 0
M  V30 2918 C 282.085 0.803867 -1.86188 0
M  V30 2919 C 282.418 1.78549 -0.763794 0
M  V30 2920 O 281.693 1.93153 0.22855 0
M  V30 2921 C 281.976 1.53568 -3.25713 0
M  V30 2922 C 281.829 0.572277 -4.46145 0
M  V30 2923 C 283.148 2.48708 -3.63087 0
M  V30 2924 H 280.267 0.290781 -0.677211 0
M  V30 2925 H 282.909 0.0675783 -1.8988 0
M  V30 2926 H 281.059 2.16332 -3.22696 0
M  V30 2927 H 282.731 -0.0480894 -4.61275 0
M  V30 2928 H 280.974 -0.114618 -4.33649 0
M  V30 2929 H 281.645 1.12139 -5.40489 0
M  V30 2930 H 284.121 1.96039 -3.67026 0
M  V30 2931 H 282.997 2.96932 -4.61652 0
M  V30 2932 H 283.258 3.32309 -2.91588 0
M  V30 2933 N 282.317 1.53212 0.369288 0
M  V30 2934 C 283.728 1.60943 0.946276 0
M  V30 2935 C 284.079 0.47452 1.90375 0
M  V30 2936 O 283.204 -0.399597 2.12679 0
M  V30 2937 C 283.799 2.91715 1.72302 0
M  V30 2938 C 282.358 3.01792 2.24941 0
M  V30 2939 C 281.505 2.56211 1.06072 0
M  V30 2940 H 284.456 1.58007 0.148198 0
M  V30 2941 H 284.477 2.79309 2.58393 0
M  V30 2942 H 283.989 3.74295 1.0259 0
M  V30 2943 H 282.09 2.23791 2.97906 0
M  V30 2944 H 282.203 4.06803 2.53077 0
M  V30 2945 H 280.567 2.10998 1.4266 0
M  V30 2946 H 281.35 3.41206 0.378639 0
M  V30 2947 N 283.795 -0.628877 1.44509 0
M  V30 2948 C 284.725 -1.75187 1.54376 0
M  V30 2949 C 285.706 -1.65411 0.396618 0
M  V30 2950 O 286.891 -1.84137 0.617031 0
M  V30 2951 C 284.021 -3.13725 1.48976 0
M  V30 2952 C 282.975 -3.38291 2.62189 0
M  V30 2953 C 282.301 -4.76883 2.41841 0
M  V30 2954 C 283.601 -3.30632 4.04326 0
M  V30 2955 H 285.295 -1.67187 2.48373 0
M  V30 2956 H 282.841 -0.802909 1.19538 0
M  V30 2957 H 284.794 -3.92064 1.54478 0
M  V30 2958 H 283.518 -3.22515 0.514961 0
M  V30 2959 H 282.177 -2.62334 2.56079 0
M  V30 2960 H 281.825 -4.82378 1.42548 0
M  V30 2961 H 281.525 -4.94278 3.17747 0
M  V30 2962 H 283.049 -5.57449 2.49165 0
M  V30 2963 H 284.463 -3.98873 4.11793 0
M  V30 2964 H 282.86 -3.59561 4.80454 0
M  V30 2965 H 283.93 -2.28404 4.27738 0
M  V30 2966 N 285.273 -1.31445 -0.869486 0
M  V30 2967 C 286.684 -1.19042 -1.43826 0
M  V30 2968 C 287.035 0.202919 -1.95148 0
M  V30 2969 O 286.16 1.10071 -1.86315 0
M  V30 2970 C 286.755 -2.15499 -2.6143 0
M  V30 2971 C 285.314 -2.07028 -3.14351 0
M  V30 2972 C 284.461 -2.04701 -1.87063 0
M  V30 2973 H 287.412 -1.43489 -0.677984 0
M  V30 2974 H 287.433 -1.74488 -3.38134 0
M  V30 2975 H 286.945 -3.16899 -2.24046 0
M  V30 2976 H 285.046 -1.08825 -3.56354 0
M  V30 2977 H 285.159 -2.96157 -3.766 0
M  V30 2978 H 283.523 -1.49724 -2.06046 0
M  V30 2979 H 284.306 -3.07857 -1.51917 0
M  V30 2980 N 286.751 1.08385 -1.14413 0
M  V30 2981 C 288.162 1.62258 -0.923535 0
M  V30 2982 C 288.513 1.88691 0.537595 0
M  V30 2983 O 287.638 1.64454 1.40655 0
M  V30 2984 C 288.233 2.94781 -1.67002 0
M  V30 2985 C 286.792 3.45437 -1.495 0
M  V30 2986 C 285.939 2.19668 -1.69238 0
M  V30 2987 H 288.89 0.916086 -1.2959 0
M  V30 2988 H 288.911 3.63229 -1.13334 0
M  V30 2989 H 288.423 2.7551 -2.73342 0
M  V30 2990 H 286.524 3.6981 -0.455097 0
M  V30 2991 H 286.637 4.22173 -2.2651 0
M  V30 2992 H 285.001 2.28849 -1.11804 0
M  V30 2993 H 285.784 2.02905 -2.7692 0
M  V30 2994 N 288.23 0.939286 1.26551 0
M  V30 2995 C 289.455 0.602008 1.98471 0
M  V30 2996 C 289.88 -0.815624 1.69497 0
M  V30 2997 O 289.238 -1.54912 0.941905 0
M  V30 2998 C 289.286 0.848407 3.50477 0
M  V30 2999 O 288.39 -0.0804009 4.12322 0
M  V30 3000 H 287.731 0.23049 0.622712 0
M  V30 3001 H 290.261 1.2617 1.61066 0
M  V30 3002 H 290.271 0.768553 4.00696 0
M  V30 3003 H 288.946 1.88171 3.70897 0
M  V30 3004 H 287.523 0.0503508 3.72866 0
M  V30 3005 N 289.708 -1.40897 0.706093 0
M  V30 3006 C 290.936 -2.05373 0.250887 0
M  V30 3007 C 291.351 -1.53172 -1.10381 0
M  V30 3008 O 290.708 -0.684305 -1.69185 0
M  V30 3009 C 290.759 -3.6088 0.211571 0
M  V30 3010 O 290.48 -4.11153 1.51276 0
M  V30 3011 C 291.981 -4.42517 -0.263346 0
M  V30 3012 H 289.201 -0.66115 0.114552 0
M  V30 3013 H 291.745 -1.80479 0.961635 0
M  V30 3014 H 289.9 -3.84777 -0.450073 0
M  V30 3015 H 290.314 -5.05279 1.40689 0
M  V30 3016 H 291.788 -5.51479 -0.239718 0
M  V30 3017 H 292.265 -4.19396 -1.30397 0
M  V30 3018 H 292.871 -4.23708 0.367677 0
M  V30 3019 N 291.186 -0.45159 -1.50991 0
M  V30 3020 C 292.416 0.108177 -2.06317 0
M  V30 3021 C 292.824 1.35774 -1.31765 0
M  V30 3022 O 292.167 1.79838 -0.374694 0
M  V30 3023 C 292.229 0.481659 -3.56259 0
M  V30 3024 C 291.893 -0.663114 -4.52163 0
M  V30 3025 C 292.89 -1.53947 -4.96585 0
M  V30 3026 C 290.575 -0.8479 -4.95092 0
M  V30 3027 C 292.569 -2.58518 -5.82621 0
M  V30 3028 C 290.256 -1.89686 -5.80915 0
M  V30 3029 C 291.254 -2.76388 -6.24579 0
M  V30 3030 O 290.942 -3.79482 -7.08695 0
M  V30 3031 H 290.674 0.00499183 -0.675982 0
M  V30 3032 H 293.228 -0.633659 -1.95381 0
M  V30 3033 H 291.458 1.27641 -3.65027 0
M  V30 3034 H 293.147 0.974233 -3.94035 0
M  V30 3035 H 293.913 -1.4083 -4.64103 0
M  V30 3036 H 289.792 -0.18258 -4.60638 0
M  V30 3037 H 293.336 -3.26224 -6.16623 0
M  V30 3038 H 289.233 -2.02817 -6.12809 0
M  V30 3039 H 290.001 -3.76234 -7.26905 0
M  V30 3040 N 292.664 1.56529 -0.183458 0
M  V30 3041 C 293.91 1.97537 0.459036 0
M  V30 3042 C 294.243 1.06989 1.62071 0
M  V30 3043 O 293.518 0.11948 1.94133 0
M  V30 3044 C 293.801 3.47874 0.930368 0
M  V30 3045 C 293.654 4.492 -0.232317 0
M  V30 3046 C 294.973 4.01612 1.79989 0
M  V30 3047 H 292.092 0.718204 0.165383 0
M  V30 3048 H 294.734 1.88042 -0.272038 0
M  V30 3049 H 292.884 3.56095 1.55333 0
M  V30 3050 H 294.556 4.53027 -0.86972 0
M  V30 3051 H 292.799 4.24657 -0.885928 0
M  V30 3052 H 293.47 5.51823 0.139796 0
M  V30 3053 H 295.946 3.96097 1.27461 0
M  V30 3054 H 294.822 5.07195 2.09867 0
M  V30 3055 H 295.083 3.46163 2.74998 0
M  V30 3056 N 294.142 -0.090211 1.57342 0
M  V30 3057 C 295.052 -1.12735 2.05738 0
M  V30 3058 C 296.068 -1.43557 0.983231 0
M  V30 3059 O 297.244 -1.54101 1.29672 0
M  V30 3060 C 294.309 -2.42659 2.47624 0
M  V30 3061 C 293.37 -2.18975 3.69254 0
M  V30 3062 C 292.603 -3.42704 4.09133 0
M  V30 3063 O 292.826 -4.51127 3.49057 0
M  V30 3064 O 291.76 -3.32003 5.02053 0
M  V30 3065 H 295.586 -0.746279 2.94388 0
M  V30 3066 H 293.171 -0.303064 1.46294 0
M  V30 3067 H 295.053 -3.19155 2.7517 0
M  V30 3068 H 293.728 -2.80182 1.62109 0
M  V30 3069 H 292.635 -1.40244 3.46818 0
M  V30 3070 H 293.968 -1.86342 4.55563 0
M  V30 3071 N 295.62 -1.53406 -0.361157 0
M  V30 3072 C 296.867 -1.69802 -1.10333 0
M  V30 3073 C 297.195 -0.452087 -1.89173 0
M  V30 3074 O 296.45 0.566017 -1.87336 0
M  V30 3075 C 296.749 -2.90211 -2.08596 0
M  V30 3076 C 296.415 -4.26539 -1.46203 0
M  V30 3077 C 295.077 -4.6361 -1.28915 0
M  V30 3078 C 297.429 -5.113 -1.01101 0
M  V30 3079 C 294.757 -5.83075 -0.651157 0
M  V30 3080 C 297.109 -6.31415 -0.387007 0
M  V30 3081 C 295.773 -6.67195 -0.201657 0
M  V30 3082 H 295.043 -0.621351 -0.403737 0
M  V30 3083 H 297.69 -1.87598 -0.384609 0
M  V30 3084 H 295.995 -2.66946 -2.86788 0
M  V30 3085 H 297.692 -3.00091 -2.65982 0
M  V30 3086 H 294.282 -3.97352 -1.60653 0
M  V30 3087 H 298.466 -4.83206 -1.13249 0
M  V30 3088 H 293.722 -6.09385 -0.496006 0
M  V30 3089 H 297.896 -6.96394 -0.0293563 0
M  V30 3090 H 295.523 -7.59628 0.294766 0
M  V30 3091 N 297.098 0.621204 -1.44841 0
M  V30 3092 C 298.326 1.40752 -1.51646 0
M  V30 3093 C 298.741 1.88246 -0.144549 0
M  V30 3094 O 298.098 1.61422 0.851416 0
M  V30 3095 C 298.149 2.62119 -2.4895 0
M  V30 3096 O 297.87 2.16602 -3.80808 0
M  V30 3097 C 299.371 3.55135 -2.65319 0
M  V30 3098 H 296.591 0.431325 -0.514004 0
M  V30 3099 H 299.135 0.758835 -1.899 0
M  V30 3100 H 297.29 3.23058 -2.13805 0
M  V30 3101 H 297.704 2.95358 -4.33433 0
M  V30 3102 H 299.178 4.36874 -3.37409 0
M  V30 3103 H 299.655 4.04592 -1.70886 0
M  V30 3104 H 300.261 3.00058 -3.01405 0
M  V30 3105 N 298.576 1.31904 0.862503 0
M  V30 3106 C 299.822 1.22197 1.61851 0
M  V30 3107 C 300.155 -0.217641 1.92977 0
M  V30 3108 O 299.43 -1.15264 1.56666 0
M  V30 3109 C 299.713 2.07378 2.94391 0
M  V30 3110 C 299.566 3.59678 2.70096 0
M  V30 3111 C 300.885 1.92891 3.95577 0
M  V30 3112 H 298.004 0.445255 0.587296 0
M  V30 3113 H 300.646 1.6177 0.99651 0
M  V30 3114 H 298.796 1.73758 3.47477 0
M  V30 3115 H 300.468 4.03472 2.23625 0
M  V30 3116 H 298.711 3.82735 2.04197 0
M  V30 3117 H 299.382 4.14595 3.64438 0
M  V30 3118 H 301.858 2.22327 3.51724 0
M  V30 3119 H 300.734 2.54781 4.86187 0
M  V30 3120 H 300.995 0.894315 4.3296 0
M  V30 3121 N 300.054 -1.07777 1.14986 0
M  V30 3122 C 301.279 -1.84558 0.946213 0
M  V30 3123 C 301.704 -1.81323 -0.500362 0
M  V30 3124 O 301.062 -1.20301 -1.35637 0
M  V30 3125 C 301.11 -3.29736 1.45968 0
M  V30 3126 O 300.214 -4.07149 0.65601 0
M  V30 3127 H 299.555 -0.571641 0.33782 0
M  V30 3128 H 302.085 -1.35991 1.52865 0
M  V30 3129 H 302.095 -3.80574 1.47063 0
M  V30 3130 H 300.77 -3.31406 2.51283 0
M  V30 3131 H 299.347 -3.65994 0.714322 0
M  V30 3132 N 301.532 -0.945985 -1.26051 0
M  V30 3133 C 302.78 -0.594941 -1.93145 0
M  V30 3134 C 303.101 0.86953 -1.7454 0
M  V30 3135 O 302.371 1.61838 -1.10387 0
M  V30 3136 H 300.951 -0.217044 -0.714773 0
M  V30 3137 H 303.613 -1.20235 -1.53393 0
M  V30 3138 H 302.709 -0.816835 -3.01221 0
M  V30 3139 N 303.011 1.40521 -0.713556 0
M  V30 3140 C 304.239 2.05237 -0.261775 0
M  V30 3141 C 304.654 1.53755 1.09567 0
M  V30 3142 O 304.011 0.693268 1.6882 0
M  V30 3143 C 304.062 3.60763 -0.230706 0
M  V30 3144 O 303.783 4.10345 -1.53455 0
M  V30 3145 C 305.284 4.42651 0.239874 0
M  V30 3146 H 302.504 0.660533 -0.118057 0
M  V30 3147 H 305.048 1.79967 -0.971192 0
M  V30 3148 H 303.203 3.8501 0.429661 0
M  V30 3149 H 303.617 5.04526 -1.43366 0
M  V30 3150 H 305.091 5.51599 0.210468 0
M  V30 3151 H 305.568 4.20082 1.28171 0
M  V30 3152 H 306.174 4.23507 -0.390142 0
M  V30 3153 N 304.489 0.459591 1.5075 0
M  V30 3154 C 305.766 -0.160371 1.94941 0
M  V30 3155 C 306.146 -1.58048 1.39943 0
M  V30 3156 O 305.494 -2.206 0.595629 0
M  V30 3157 C 305.704 -0.115432 3.48809 0
M  V30 3158 C 307.052 -0.310026 4.23467 0
M  V30 3159 O 308.076 -0.192543 3.55679 0
M  V30 3160 O 306.935 -0.546031 5.43765 0
M  V30 3161 H 304.029 -0.117925 0.818549 0
M  V30 3162 H 306.575 0.519169 1.61563 0
M  V30 3163 H 305.347 0.87652 3.81357 0
M  V30 3164 H 304.97 -0.836928 3.88692 0
M  V30 3165 N 305.967 -1.56429 0.191757 0
M  V30 3166 C 307.207 -1.99383 -0.450099 0
M  V30 3167 C 307.571 -1.07581 -1.59029 0
M  V30 3168 O 308.772 -1.39758 -2.29611 0
M  V30 3169 C 307.043 -3.45841 -0.901611 0
M  V30 3170 S 308.602 -4.10822 -1.54177 0
M  V30 3171 H 305.42 -0.696253 -0.144057 0
M  V30 3172 H 308.022 -1.93276 0.294036 0
M  V30 3173 H 306.726 -4.10354 -0.0616596 0
M  V30 3174 H 306.257 -3.55757 -1.67929 0
M  V30 3175 H 308.272 -4.07553 -2.83046 0
M  V30 3176 N 307.445 0.0818655 -1.57387 0
M  V30 3177 C 308.691 0.784074 -1.8703 0
M  V30 3178 C 309.024 1.77729 -0.782689 0
M  V30 3179 O 308.299 1.93384 0.208051 0
M  V30 3180 C 308.582 1.50105 -3.27323 0
M  V30 3181 C 308.435 0.524925 -4.46727 0
M  V30 3182 C 309.754 2.44843 -3.65705 0
M  V30 3183 H 306.873 0.283582 -0.680257 0
M  V30 3184 H 309.515 0.0474352 -1.89941 0
M  V30 3185 H 307.665 2.12897 -3.24972 0
M  V30 3186 H 309.337 -0.0970111 -4.61198 0
M  V30 3187 H 307.58 -0.160606 -4.33503 0
M  V30 3188 H 308.251 1.064 -5.41648 0
M  V30 3189 H 310.727 1.92135 -3.69085 0
M  V30 3190 H 309.603 2.92018 -4.64776 0
M  V30 3191 H 309.864 3.29197 -2.95096 0
M  V30 3192 N 308.923 1.53595 0.353017 0
M  V30 3193 C 309.886 1.80232 1.41594 0
M  V30 3194 C 310.886 0.673081 1.46035 0
M  V30 3195 O 312.076 0.941335 1.46576 0
M  V30 3196 C 309.208 1.93578 2.80607 0
M  V30 3197 H 310.401 2.75174 1.19244 0
M  V30 3198 H 307.954 1.44864 0.586872 0
M  V30 3199 H 308.689 1.00746 3.08254 0
M  V30 3200 H 308.474 2.75724 2.78781 0
M  V30 3201 H 309.964 2.15735 3.57558 0
M  V30 3202 N 310.401 -0.613514 1.45168 0
M  V30 3203 C 311.348 -1.72456 1.53387 0
M  V30 3204 C 312.318 -1.6169 0.380191 0
M  V30 3205 O 313.503 -1.81356 0.592836 0
M  V30 3206 C 310.643 -3.10753 1.50088 0
M  V30 3207 C 309.756 -3.32368 2.75963 0
M  V30 3208 C 308.891 -4.60737 2.64376 0
M  V30 3209 C 307.93 -4.7559 3.85332 0
M  V30 3210 N 307.067 -5.95253 3.72315 0
M  V30 3211 H 311.907 -1.64768 2.48305 0
M  V30 3212 H 309.444 -0.803503 1.23216 0
M  V30 3213 H 311.402 -3.90758 1.46164 0
M  V30 3214 H 310.032 -3.17413 0.587243 0
M  V30 3215 H 309.084 -2.4618 2.89999 0
M  V30 3216 H 310.396 -3.39218 3.65695 0
M  V30 3217 H 309.55 -5.48928 2.58385 0
M  V30 3218 H 308.289 -4.56275 1.72233 0
M  V30 3219 H 307.294 -3.85824 3.91688 0
M  V30 3220 H 308.519 -4.81854 4.78533 0
M  V30 3221 H 306.465 -5.91847 2.82937 0
M  V30 3222 H 306.382 -6.03236 4.55677 0
M  V30 3223 H 307.65 -6.85958 3.70246 0
M  V30 3224 N 311.879 -1.3236 -0.855495 0
M  V30 3225 C 312.789 -1.23221 -1.99634 0
M  V30 3226 C 313.805 -0.145983 -1.73387 0
M  V30 3227 O 314.981 -0.366502 -1.98037 0
M  V30 3228 C 312.046 -0.954782 -3.33294 0
M  V30 3229 C 311.107 -2.12937 -3.72769 0
M  V30 3230 C 310.34 -1.86508 -5.00051 0
M  V30 3231 O 310.563 -0.807231 -5.64659 0
M  V30 3232 O 309.497 -2.72591 -5.36636 0
M  V30 3233 H 313.323 -2.19126 -2.1028 0
M  V30 3234 H 310.908 -1.12241 -0.986018 0
M  V30 3235 H 312.79 -0.816519 -4.13414 0
M  V30 3236 H 311.465 -0.0258854 -3.2369 0
M  V30 3237 H 310.372 -2.3231 -2.93228 0
M  V30 3238 H 311.705 -3.04102 -3.87018 0
M  V30 3239 N 313.357 1.07166 -1.15556 0
M  V30 3240 C 314.32 2.12589 -0.856644 0
M  V30 3241 C 315.32 1.6015 0.14444 0
M  V30 3242 O 316.51 1.7399 -0.0854163 0
M  V30 3243 C 313.642 3.39753 -0.279405 0
M  V30 3244 H 314.835 2.40539 -1.79112 0
M  V30 3245 H 312.388 1.23086 -0.963298 0
M  V30 3246 H 313.123 3.17447 0.663174 0
M  V30 3247 H 312.908 3.79117 -1.00063 0
M  V30 3248 H 314.398 4.17507 -0.0879113 0
M  V30 3249 N 314.835 0.952656 1.25548 0
M  V30 3250 C 316.063 0.623496 1.97282 0
M  V30 3251 C 316.478 -0.803987 1.70826 0
M  V30 3252 O 315.835 -1.53755 0.983147 0
M  V30 3253 C 315.886 0.870209 3.5087 0
M  V30 3254 O 315.607 2.24156 3.76412 0
M  V30 3255 C 317.108 0.553164 4.39835 0
M  V30 3256 H 314.328 0.233931 0.628902 0
M  V30 3257 H 316.872 1.27649 1.59768 0
M  V30 3258 H 315.027 0.263652 3.86502 0
M  V30 3259 H 315.441 2.31021 4.70882 0
M  V30 3260 H 316.915 0.776342 5.46513 0
M  V30 3261 H 317.392 -0.512215 4.36203 0
M  V30 3262 H 317.998 1.13896 4.09766 0
M  V30 3263 N 316.313 -1.40141 0.720998 0
M  V30 3264 C 317.223 -2.34486 0.0731031 0
M  V30 3265 C 318.239 -1.57587 -0.737723 0
M  V30 3266 O 319.415 -1.89949 -0.669429 0
M  V30 3267 C 316.48 -3.36528 -0.833656 0
M  V30 3268 C 315.541 -4.29298 -0.0121673 0
M  V30 3269 C 314.774 -5.26466 -0.875742 0
M  V30 3270 O 314.997 -5.29745 -2.11485 0
M  V30 3271 O 313.931 -6.01092 -0.31185 0
M  V30 3272 H 317.757 -2.9152 0.851444 0
M  V30 3273 H 315.342 -1.41427 0.481527 0
M  V30 3274 H 317.224 -3.99093 -1.35289 0
M  V30 3275 H 315.899 -2.81899 -1.59105 0
M  V30 3276 H 314.806 -3.70001 0.552262 0
M  V30 3277 H 316.139 -4.87094 0.707129 0
M  V30 3278 N 317.792 -0.46758 -1.50504 0
M  V30 3279 C 318.755 0.317059 -2.26996 0
M  V30 3280 C 319.755 0.923513 -1.31635 0
M  V30 3281 O 320.945 0.793239 -1.55091 0
M  V30 3282 C 318.077 1.45134 -3.08462 0
M  V30 3283 H 319.27 -0.353723 -2.97807 0
M  V30 3284 H 316.823 -0.221545 -1.54722 0
M  V30 3285 H 317.558 2.15728 -2.4214 0
M  V30 3286 H 317.343 1.02232 -3.78538 0
M  V30 3287 H 318.833 2.00493 -3.66323 0
M  V30 3288 N 319.27 1.56325 -0.20005 0
M  V30 3289 C 320.233 2.18084 0.705132 0
M  V30 3290 C 321.233 1.13666 1.1374 0
M  V30 3291 O 322.423 1.39023 1.04968 0
M  V30 3292 C 319.555 2.78689 1.96329 0
M  V30 3293 H 320.748 2.99435 0.167023 0
M  V30 3294 H 318.301 1.56221 0.0495725 0
M  V30 3295 H 319.036 2.0115 2.5438 0
M  V30 3296 H 318.821 3.55133 1.66202 0
M  V30 3297 H 320.311 3.26096 2.60866 0
M  V30 3298 N 320.748 -0.0735177 1.57428 0
M  V30 3299 C 321.695 -1.08756 2.0357 0
M  V30 3300 C 322.665 -1.38559 0.916 0
M  V30 3301 O 323.85 -1.49656 1.18354 0
M  V30 3302 C 320.99 -2.39657 2.48311 0
M  V30 3303 C 320.103 -2.16399 3.73892 0
M  V30 3304 C 319.238 -3.40852 4.07423 0
M  V30 3305 C 318.277 -3.1295 5.2605 0
M  V30 3306 N 317.414 -4.29729 5.55228 0
M  V30 3307 H 322.254 -0.687104 2.8997 0
M  V30 3308 H 319.791 -0.327709 1.43403 0
M  V30 3309 H 321.749 -3.16081 2.72303 0
M  V30 3310 H 320.379 -2.77508 1.64891 0
M  V30 3311 H 319.431 -1.30676 3.57251 0
M  V30 3312 H 320.743 -1.91788 4.60455 0
M  V30 3313 H 319.897 -4.25671 4.32306 0
M  V30 3314 H 318.636 -3.68537 3.19425 0
M  V30 3315 H 317.641 -2.26526 5.00965 0
M  V30 3316 H 318.866 -2.86589 6.15665 0
M  V30 3317 H 316.812 -4.57448 4.70188 0
M  V30 3318 H 316.729 -4.08385 6.36206 0
M  V30 3319 H 317.997 -5.1555 5.84661 0
M  V30 3320 N 322.226 -1.5378 -0.344866 0
M  V30 3321 C 323.466 -1.72677 -1.09371 0
M  V30 3322 C 323.83 -0.479084 -1.85927 0
M  V30 3323 O 325.031 -0.54505 -2.63216 0
M  V30 3324 C 323.302 -2.95457 -2.01097 0
M  V30 3325 S 324.861 -3.35158 -2.83222 0
M  V30 3326 H 321.679 -0.607402 -0.369573 0
M  V30 3327 H 324.281 -1.91922 -0.372307 0
M  V30 3328 H 322.985 -3.84437 -1.43655 0
M  V30 3329 H 322.516 -2.78673 -2.77678 0
M  V30 3330 H 324.531 -2.88789 -4.03504 0
M  V30 3331 N 323.704 0.605807 -1.45491 0
M  V30 3332 C 324.652 1.73754 -1.54636 0
M  V30 3333 C 325.646 1.64207 -0.416219 0
M  V30 3334 O 326.852 1.69979 -0.592199 0
M  V30 3335 H 323.227 0.574073 -0.485741 0
M  V30 3336 H 325.198 1.63169 -2.49837 0
M  V30 3337 C 323.947 3.12135 -1.53189 0
M  V30 3338 H 323.27 3.20141 -2.39478 0
M  V30 3339 H 324.71 3.91147 -1.63645 0
M  V30 3340 C 323.169 3.35921 -0.256616 0
M  V30 3341 O 323.699 3.96194 0.662798 0
M  V30 3342 N 321.905 2.90204 -0.151751 0
M  V30 3343 H 321.452 2.41336 -0.90081 0
M  V30 3344 H 321.41 3.06492 0.700699 0
M  V30 3345 N 325.182 1.32811 0.848464 0
M  V30 3346 C 326.112 1.24882 1.97299 0
M  V30 3347 C 327.093 0.131357 1.69592 0
M  V30 3348 O 328.278 0.319553 1.91553 0
M  V30 3349 C 325.408 0.97746 3.33261 0
M  V30 3350 C 324.362 2.05682 3.75338 0
M  V30 3351 C 323.688 1.63777 5.09 0
M  V30 3352 C 324.988 3.47254 3.90144 0
M  V30 3353 H 326.682 2.18966 2.04191 0
M  V30 3354 H 324.228 1.05413 0.981029 0
M  V30 3355 H 326.181 0.908513 4.1149 0
M  V30 3356 H 324.905 0.000980011 3.266 0
M  V30 3357 H 323.564 2.11603 2.99366 0
M  V30 3358 H 323.212 0.648569 4.98801 0
M  V30 3359 H 322.912 2.36 5.38124 0
M  V30 3360 H 324.436 1.5833 5.89715 0
M  V30 3361 H 325.85 3.43888 4.58709 0
M  V30 3362 H 324.247 4.1788 4.30693 0
M  V30 3363 H 325.317 3.86462 2.92874 0
M  V30 3364 N 326.66 -1.06551 1.16123 0
M  V30 3365 C 327.59 -2.15935 0.88851 0
M  V30 3366 C 328.571 -1.69306 -0.164135 0
M  V30 3367 O 329.756 -1.94193 -0.0167857 0
M  V30 3368 C 326.886 -3.45149 0.385942 0
M  V30 3369 C 325.84 -4.05271 1.3762 0
M  V30 3370 C 325.166 -5.29664 0.732137 0
M  V30 3371 C 326.466 -4.44355 2.74493 0
M  V30 3372 H 328.16 -2.39006 1.80323 0
M  V30 3373 H 325.706 -1.14866 0.868435 0
M  V30 3374 H 327.659 -4.21004 0.182647 0
M  V30 3375 H 326.383 -3.21689 -0.564274 0
M  V30 3376 H 325.042 -3.3147 1.56599 0
M  V30 3377 H 324.69 -5.02499 -0.224483 0
M  V30 3378 H 324.39 -5.70848 1.39307 0
M  V30 3379 H 325.914 -6.08218 0.538802 0
M  V30 3380 H 327.328 -5.11303 2.59311 0
M  V30 3381 H 325.725 -4.96515 3.37035 0
M  V30 3382 H 326.795 -3.55339 3.29943 0
M  V30 3383 N 328.138 -0.959301 -1.25041 0
M  V30 3384 C 329.101 -0.487677 -2.23952 0
M  V30 3385 C 330.101 0.41119 -1.55454 0
M  V30 3386 O 331.291 0.207825 -1.72956 0
M  V30 3387 C 328.423 0.294807 -3.39623 0
M  V30 3388 H 329.616 -1.36198 -2.67189 0
M  V30 3389 H 327.169 -0.743042 -1.37508 0
M  V30 3390 H 327.904 1.18658 -3.01813 0
M  V30 3391 H 327.689 -0.35012 -3.90534 0
M  V30 3392 H 329.179 0.614089 -4.1306 0
M  V30 3393 N 329.616 1.39756 -0.72842 0
M  V30 3394 C 330.526 2.34444 -0.0855374 0
M  V30 3395 C 331.542 1.57976 0.729356 0
M  V30 3396 O 332.718 1.90301 0.659346 0
M  V30 3397 C 329.783 3.36965 0.815798 0
M  V30 3398 C 328.844 4.29299 -0.0105996 0
M  V30 3399 C 328.077 5.26923 0.84781 0
M  V30 3400 O 328.3 5.30859 2.08673 0
M  V30 3401 O 327.234 6.01249 0.279969 0
M  V30 3402 H 331.06 2.91065 -0.866892 0
M  V30 3403 H 328.645 1.4117 -0.48902 0
M  V30 3404 H 330.527 3.99804 1.33171 0
M  V30 3405 H 329.202 2.82739 1.57608 0
M  V30 3406 H 328.109 3.69703 -0.571877 0
M  V30 3407 H 329.442 4.86712 -0.73295 0
M  V30 3408 N 331.094 0.475555 1.50254 0
M  V30 3409 C 332.041 -0.316293 2.28622 0
M  V30 3410 C 333.011 -0.983227 1.33873 0
M  V30 3411 O 334.196 -0.994805 1.62814 0
M  V30 3412 C 331.336 -1.38975 3.1588 0
M  V30 3413 C 330.449 -0.737146 4.25664 0
M  V30 3414 C 329.584 -1.78887 5.00173 0
M  V30 3415 C 328.623 -1.11676 6.01826 0
M  V30 3416 N 327.76 -2.11154 6.69596 0
M  V30 3417 H 332.6 0.358297 2.95838 0
M  V30 3418 H 330.137 0.188541 1.45887 0
M  V30 3419 H 332.095 -2.02383 3.64825 0
M  V30 3420 H 330.725 -2.03344 2.50701 0
M  V30 3421 H 329.777 0.0096065 3.80399 0
M  V30 3422 H 331.089 -0.206816 4.98371 0
M  V30 3423 H 330.243 -2.49865 5.52859 0
M  V30 3424 H 328.982 -2.35302 4.27182 0
M  V30 3425 H 327.987 -0.392633 5.48396 0
M  V30 3426 H 329.212 -0.55945 6.76792 0
M  V30 3427 H 327.158 -2.66577 5.99394 0
M  V30 3428 H 327.075 -1.63118 7.38193 0
M  V30 3429 H 328.343 -2.81497 7.26897 0
M  V30 3430 N 332.573 -1.56217 0.208337 0
M  V30 3431 C 333.505 -2.1695 -0.739276 0
M  V30 3432 C 334.518 -1.13492 -1.1672 0
M  V30 3433 O 335.707 -1.40529 -1.10063 0
M  V30 3434 C 332.807 -2.72755 -2.01142 0
M  V30 3435 C 331.98 -4.0125 -1.74118 0
M  V30 3436 C 331.039 -4.41749 -2.85909 0
M  V30 3437 O 330.065 -5.08912 -2.54946 0
M  V30 3438 N 331.267 -4.06342 -4.14568 0
M  V30 3439 H 334.032 -2.98893 -0.219837 0
M  V30 3440 H 331.593 -1.61878 0.0268445 0
M  V30 3441 H 333.585 -2.96826 -2.75094 0
M  V30 3442 H 332.155 -1.95191 -2.4417 0
M  V30 3443 H 331.375 -3.85173 -0.838775 0
M  V30 3444 H 332.663 -4.851 -1.53477 0
M  V30 3445 H 332.061 -3.52345 -4.42571 0
M  V30 3446 H 330.618 -4.35335 -4.85105 0
M  V30 3447 N 334.051 0.0651679 -1.57465 0
M  V30 3448 C 335.281 0.774683 -1.91526 0
M  V30 3449 C 335.689 1.71305 -0.803196 0
M  V30 3450 O 335.032 1.82231 0.231881 0
M  V30 3451 C 335.094 1.61645 -3.21109 0
M  V30 3452 C 334.758 0.846753 -4.49087 0
M  V30 3453 C 335.755 0.163024 -5.19644 0
M  V30 3454 C 333.44 0.811966 -4.95694 0
M  V30 3455 C 335.434 -0.54519 -6.35064 0
M  V30 3456 C 333.121 0.0999836 -6.11018 0
M  V30 3457 C 334.119 -0.577388 -6.80555 0
M  V30 3458 O 333.807 -1.27789 -7.93678 0
M  V30 3459 H 333.539 0.225031 -0.637446 0
M  V30 3460 H 336.093 0.0377134 -2.05365 0
M  V30 3461 H 334.323 2.39638 -3.03497 0
M  V30 3462 H 336.012 2.20525 -3.40769 0
M  V30 3463 H 336.778 0.181163 -4.84662 0
M  V30 3464 H 332.657 1.32867 -4.41438 0
M  V30 3465 H 336.201 -1.07446 -6.89276 0
M  V30 3466 H 332.098 0.0797945 -6.45451 0
M  V30 3467 H 332.866 -1.18784 -8.09835 0
M  V30 3468 N 335.529 1.53961 0.336706 0
M  V30 3469 C 336.777 1.71197 1.07405 0
M  V30 3470 C 337.098 0.481475 1.88962 0
M  V30 3471 O 336.368 -0.504585 1.8929 0
M  V30 3472 H 334.948 0.631185 0.399517 0
M  V30 3473 H 337.61 1.91232 0.376323 0
M  V30 3474 H 336.706 2.58587 1.74755 0
M  V30 3475 N 337.007 -0.598083 1.45811 0
M  V30 3476 C 338.254 -1.35681 1.50323 0
M  V30 3477 C 338.582 -1.9393 0.148739 0
M  V30 3478 O 337.837 -1.76094 -0.853787 0
M  V30 3479 C 338.136 -2.51669 2.53766 0
M  V30 3480 C 337.802 -2.11508 3.98215 0
M  V30 3481 C 336.464 -2.0027 4.37545 0
M  V30 3482 C 338.816 -1.80308 4.89018 0
M  V30 3483 C 336.144 -1.56067 5.65562 0
M  V30 3484 C 338.496 -1.37589 6.17456 0
M  V30 3485 C 337.16 -1.24916 6.55708 0
M  V30 3486 H 336.43 -0.496492 0.550069 0
M  V30 3487 H 339.077 -0.675052 1.79207 0
M  V30 3488 H 337.382 -3.25225 2.18486 0
M  V30 3489 H 339.079 -3.09895 2.54492 0
M  V30 3490 H 335.669 -2.21185 3.67117 0
M  V30 3491 H 339.853 -1.87884 4.59362 0
M  V30 3492 H 335.109 -1.44886 5.93985 0
M  V30 3493 H 339.283 -1.12495 6.87254 0
M  V30 3494 H 336.91 -0.904386 7.54801 0
M  V30 3495 N 338.485 -1.33259 -0.841409 0
M  V30 3496 C 339.725 -1.25902 -1.61022 0
M  V30 3497 C 340.089 0.173325 -1.91216 0
M  V30 3498 O 341.29 0.370824 -2.6623 0
M  V30 3499 C 339.561 -2.10735 -2.88662 0
M  V30 3500 S 341.12 -2.20541 -3.79351 0
M  V30 3501 H 337.938 -0.447958 -0.552137 0
M  V30 3502 H 340.54 -1.68263 -0.995382 0
M  V30 3503 H 339.244 -3.1384 -2.64448 0
M  V30 3504 H 338.775 -1.69201 -3.55154 0
M  V30 3505 H 340.79 -1.36462 -4.77067 0
M  V30 3506 N 339.963 1.05934 -1.16686 0
M  V30 3507 C 340.91 2.13499 -0.876748 0
M  V30 3508 C 341.88 1.65162 0.176299 0
M  V30 3509 O 343.065 1.90757 0.0407143 0
M  V30 3510 C 340.205 3.42912 -0.387967 0
M  V30 3511 C 339.318 4.04964 -1.50426 0
M  V30 3512 C 338.453 5.22266 -0.970125 0
M  V30 3513 C 337.492 5.76309 -2.06238 0
M  V30 3514 N 336.629 6.84922 -1.54356 0
M  V30 3515 H 341.469 2.37654 -1.7979 0
M  V30 3516 H 339.006 1.16598 -0.896843 0
M  V30 3517 H 340.964 4.17111 -0.086186 0
M  V30 3518 H 339.594 3.18963 0.496235 0
M  V30 3519 H 338.646 3.28277 -1.92193 0
M  V30 3520 H 339.958 4.41122 -2.32836 0
M  V30 3521 H 339.112 6.03506 -0.621743 0
M  V30 3522 H 337.851 4.87564 -0.115377 0
M  V30 3523 H 336.856 4.93704 -2.41942 0
M  V30 3524 H 338.081 6.13062 -2.92115 0
M  V30 3525 H 336.027 6.52131 -0.711406 0
M  V30 3526 H 335.944 7.20043 -2.30379 0
M  V30 3527 H 337.212 7.69832 -1.22387 0
M  V30 3528 N 341.441 0.965919 1.2453 0
M  V30 3529 C 342.404 0.499547 2.2369 0
M  V30 3530 C 343.404 -0.40294 1.5567 0
M  V30 3531 O 344.594 -0.19865 1.73064 0
M  V30 3532 C 341.726 -0.276792 3.39774 0
M  V30 3533 H 342.919 1.37613 2.66463 0
M  V30 3534 H 340.472 0.750324 1.37112 0
M  V30 3535 H 341.207 -1.17055 3.02438 0
M  V30 3536 H 340.992 0.370826 3.90343 0
M  V30 3537 H 342.482 -0.592175 4.1338 0
M  V30 3538 N 342.919 -1.39368 0.735821 0
M  V30 3539 C 344.147 -2.04795 0.294393 0
M  V30 3540 C 344.562 -1.55478 -1.07107 0
M  V30 3541 O 343.919 -0.720038 -1.67695 0
M  V30 3542 C 343.97 -3.6035 0.288071 0
M  V30 3543 O 343.691 -4.07852 1.59963 0
M  V30 3544 C 345.192 -4.42976 -0.169422 0
M  V30 3545 H 342.412 -0.658571 0.128551 0
M  V30 3546 H 344.956 -1.78399 0.999701 0
M  V30 3547 H 343.111 -3.85645 -0.368355 0
M  V30 3548 H 343.525 -5.02181 1.51375 0
M  V30 3549 H 344.999 -5.51864 -0.122687 0
M  V30 3550 H 345.476 -4.22068 -1.21472 0
M  V30 3551 H 346.082 -4.22832 0.457469 0
M  V30 3552 N 344.397 -0.483516 -1.5 0
M  V30 3553 C 345.327 0.293829 -2.31644 0
M  V30 3554 C 346.308 0.978864 -1.39112 0
M  V30 3555 O 347.493 0.973644 -1.68029 0
M  V30 3556 C 344.623 1.36897 -3.19181 0
M  V30 3557 C 343.577 0.804833 -4.20365 0
M  V30 3558 C 342.903 1.9792 -4.96721 0
M  V30 3559 C 344.203 -0.192313 -5.21946 0
M  V30 3560 H 345.897 -0.387616 -2.9688 0
M  V30 3561 H 343.443 -0.187856 -1.42769 0
M  V30 3562 H 345.396 1.92037 -3.751 0
M  V30 3563 H 344.12 2.07936 -2.51853 0
M  V30 3564 H 342.779 0.275319 -3.65565 0
M  V30 3565 H 342.427 2.67686 -4.25856 0
M  V30 3566 H 342.127 1.60789 -5.65173 0
M  V30 3567 H 343.651 2.53526 -5.55479 0
M  V30 3568 H 345.065 0.270333 -5.72662 0
M  V30 3569 H 343.462 -0.478543 -5.98189 0
M  V30 3570 H 344.532 -1.11409 -4.71928 0
M  V30 3571 N 345.875 1.56104 -0.216619 0
M  V30 3572 C 347.1 2.0301 0.424462 0
M  V30 3573 C 347.525 1.0955 1.52907 0
M  V30 3574 O 346.883 0.0827914 1.81111 0
M  V30 3575 C 346.931 3.4819 0.937883 0
M  V30 3576 O 346.035 3.57865 2.04955 0
M  V30 3577 H 345.376 0.656925 0.0966755 0
M  V30 3578 H 347.906 2.01859 -0.33381 0
M  V30 3579 H 347.916 3.88413 1.24897 0
M  V30 3580 H 346.591 4.15699 0.129387 0
M  V30 3581 H 345.168 3.29527 1.74546 0
M  V30 3582 N 347.353 -0.0568162 1.57498 0
M  V30 3583 C 348.263 -1.08346 2.08083 0
M  V30 3584 C 349.279 -1.41439 1.01346 0
M  V30 3585 O 350.455 -1.51316 1.32912 0
M  V30 3586 C 347.52 -2.37352 2.52715 0
M  V30 3587 C 346.581 -2.11093 3.73816 0
M  V30 3588 C 345.814 -3.33949 4.1631 0
M  V30 3589 O 346.037 -4.43622 3.58547 0
M  V30 3590 O 344.971 -3.21279 5.08983 0
M  V30 3591 H 348.797 -0.683667 2.95905 0
M  V30 3592 H 346.382 -0.271965 1.46904 0
M  V30 3593 H 348.264 -3.13246 2.81877 0
M  V30 3594 H 346.939 -2.76681 1.68016 0
M  V30 3595 H 345.846 -1.32856 3.49714 0
M  V30 3596 H 347.179 -1.76637 4.59413 0
M  V30 3597 N 348.832 -1.54138 -0.328536 0
M  V30 3598 C 349.779 -1.83176 -1.40411 0
M  V30 3599 C 350.749 -0.678494 -1.5161 0
M  V30 3600 O 351.934 -0.92443 -1.6691 0
M  V30 3601 C 349.074 -2.06035 -2.76846 0
M  V30 3602 C 348.187 -3.33727 -2.74318 0
M  V30 3603 C 347.322 -3.46574 -4.02567 0
M  V30 3604 C 346.361 -4.68159 -3.94327 0
M  V30 3605 N 345.498 -4.77959 -5.14296 0
M  V30 3606 H 350.338 -2.74938 -1.14948 0
M  V30 3607 H 347.875 -1.36166 -0.556538 0
M  V30 3608 H 349.833 -2.1728 -3.56153 0
M  V30 3609 H 348.463 -1.1757 -3.00628 0
M  V30 3610 H 347.515 -3.31246 -1.8703 0
M  V30 3611 H 348.827 -4.23139 -2.64111 0
M  V30 3612 H 347.981 -3.57333 -4.90304 0
M  V30 3613 H 346.72 -2.55245 -4.15574 0
M  V30 3614 H 345.725 -4.57461 -3.04974 0
M  V30 3615 H 346.95 -5.60868 -3.82889 0
M  V30 3616 H 344.896 -3.89544 -5.27818 0
M  V30 3617 H 344.813 -5.6133 -5.06404 0
M  V30 3618 H 346.081 -4.93044 -6.03761 0
M  V30 3619 N 350.31 0.590341 -1.46126 0
M  V30 3620 C 351.24 1.71032 -1.58966 0
M  V30 3621 C 352.221 1.64302 -0.440335 0
M  V30 3622 O 353.406 1.82436 -0.665634 0
M  V30 3623 C 350.536 3.09665 -1.57241 0
M  V30 3624 C 349.49 3.31221 -2.71066 0
M  V30 3625 C 348.816 4.70303 -2.54399 0
M  V30 3626 C 350.116 3.19796 -4.1295 0
M  V30 3627 H 351.81 1.60543 -2.52718 0
M  V30 3628 H 349.356 0.770933 -1.21625 0
M  V30 3629 H 351.309 3.87831 -1.64819 0
M  V30 3630 H 350.033 3.21036 -0.600289 0
M  V30 3631 H 348.692 2.55452 -2.62944 0
M  V30 3632 H 348.34 4.78429 -1.55288 0
M  V30 3633 H 348.04 4.85679 -3.30741 0
M  V30 3634 H 349.564 5.50647 -2.63857 0
M  V30 3635 H 350.978 3.87815 -4.22223 0
M  V30 3636 H 349.375 3.46696 -4.89818 0
M  V30 3637 H 350.445 2.16983 -4.33643 0
M  V30 3638 N 351.788 1.33704 0.83433 0
M  V30 3639 C 353.036 1.25169 1.58673 0
M  V30 3640 C 353.357 -0.18127 1.94156 0
M  V30 3641 O 352.627 -1.11113 1.6134 0
M  V30 3642 H 351.207 0.4603 0.58833 0
M  V30 3643 H 353.869 1.67478 0.996847 0
M  V30 3644 H 352.965 1.84856 2.51465 0
M  V30 3645 N 353.266 -1.05314 1.17247 0
M  V30 3646 C 354.514 -1.77941 0.958194 0
M  V30 3647 C 354.835 -1.88089 -0.514556 0
M  V30 3648 O 354.105 -1.39676 -1.37359 0
M  V30 3649 H 352.685 -0.659116 0.351533 0
M  V30 3650 H 355.347 -1.27166 1.47699 0
M  V30 3651 H 354.443 -2.79663 1.38546 0
M  V30 3652 N 354.744 -0.972509 -1.24016 0
M  V30 3653 C 355.707 -0.511403 -2.23422 0
M  V30 3654 C 356.707 0.394679 -1.55881 0
M  V30 3655 O 357.897 0.189469 -1.73167 0
M  V30 3656 C 355.029 0.258769 -3.39916 0
M  V30 3657 H 356.222 -1.39024 -2.6573 0
M  V30 3658 H 353.775 -0.757585 -1.36713 0
M  V30 3659 H 354.51 1.1545 -3.03054 0
M  V30 3660 H 354.295 -0.391522 -3.9014 0
M  V30 3661 H 355.785 0.570244 -4.13688 0
M  V30 3662 N 356.222 1.38976 -0.743202 0
M  V30 3663 C 357.132 2.3434 -0.110399 0
M  V30 3664 C 358.148 1.58741 0.712559 0
M  V30 3665 O 359.324 1.9099 0.639125 0
M  V30 3666 C 356.389 3.37812 0.780012 0
M  V30 3667 C 355.45 4.29263 -0.0561319 0
M  V30 3668 C 354.683 5.27793 0.791875 0
M  V30 3669 O 354.906 5.33043 2.03031 0
M  V30 3670 O 353.84 6.01512 0.216183 0
M  V30 3671 H 357.666 2.90129 -0.897714 0
M  V30 3672 H 355.251 1.40643 -0.503966 0
M  V30 3673 H 357.133 4.01194 1.28923 0
M  V30 3674 H 355.808 2.84395 1.546 0
M  V30 3675 H 354.715 3.69076 -0.611056 0
M  V30 3676 H 356.048 4.85907 -0.784531 0
M  V30 3677 N 357.7 0.491464 1.49741 0
M  V30 3678 C 358.946 -0.0565092 2.02721 0
M  V30 3679 C 359.279 -1.37522 1.37118 0
M  V30 3680 O 358.554 -1.87866 0.503645 0
M  V30 3681 C 358.837 -0.219051 3.59433 0
M  V30 3682 C 358.69 1.12211 4.35579 0
M  V30 3683 C 360.009 -0.964157 4.29409 0
M  V30 3684 H 357.128 -0.0190627 0.736753 0
M  V30 3685 H 359.77 0.641021 1.7886 0
M  V30 3686 H 357.92 -0.813165 3.79895 0
M  V30 3687 H 359.592 1.75437 4.26637 0
M  V30 3688 H 357.835 1.71377 3.98513 0
M  V30 3689 H 358.506 0.961794 5.43556 0
M  V30 3690 H 360.982 -0.460378 4.13545 0
M  V30 3691 H 359.858 -1.04671 5.38828 0
M  V30 3692 H 360.119 -2.00563 3.93988 0
M  V30 3693 N 359.178 -1.55987 0.224894 0
M  V30 3694 C 360.141 -2.19178 -0.670348 0
M  V30 3695 C 361.141 -1.15461 -1.11917 0
M  V30 3696 O 362.331 -1.40675 -1.02743 0
M  V30 3697 C 359.463 -2.81777 -1.9187 0
M  V30 3698 H 360.656 -2.99662 -0.119364 0
M  V30 3699 H 358.209 -1.5628 -0.0247128 0
M  V30 3700 H 358.944 -2.05172 -2.51147 0
M  V30 3701 H 358.729 -3.57732 -1.60531 0
M  V30 3702 H 360.219 -3.30205 -2.55645 0
M  V30 3703 N 360.656 0.0484629 -1.57525 0
M  V30 3704 C 361.902 0.744226 -1.88651 0
M  V30 3705 C 362.235 1.76029 -0.820212 0
M  V30 3706 O 361.51 1.93782 0.166985 0
M  V30 3707 C 361.793 1.43128 -3.30434 0
M  V30 3708 C 361.646 0.43005 -4.47739 0
M  V30 3709 C 362.965 2.37031 -3.70816 0
M  V30 3710 H 360.084 0.269089 -0.68612 0
M  V30 3711 H 362.726 0.00713532 -1.89999 0
M  V30 3712 H 360.876 2.05956 -3.29415 0
M  V30 3713 H 362.548 -0.194816 -4.60888 0
M  V30 3714 H 360.791 -0.252522 -4.33064 0
M  V30 3715 H 361.462 0.948874 -5.43783 0
M  V30 3716 H 363.938 1.84263 -3.73077 0
M  V30 3717 H 362.814 2.82094 -4.70865 0
M  V30 3718 H 363.075 3.22864 -3.02012 0
M  V30 3719 N 362.134 1.5431 0.320358 0
M  V30 3720 C 363.362 1.76636 1.07738 0
M  V30 3721 C 363.777 0.51649 1.81598 0
M  V30 3722 O 363.134 -0.512942 1.75143 0
M  V30 3723 C 363.185 2.96158 2.07299 0
M  V30 3724 O 362.906 4.16313 1.36438 0
M  V30 3725 C 364.407 3.3072 2.95193 0
M  V30 3726 H 361.627 0.589597 0.320339 0
M  V30 3727 H 364.171 2.01207 0.36551 0
M  V30 3728 H 362.326 2.73851 2.74016 0
M  V30 3729 H 362.74 4.83565 2.03138 0
M  V30 3730 H 364.214 4.17643 3.60941 0
M  V30 3731 H 364.691 2.48026 3.62463 0
M  V30 3732 H 365.297 3.55117 2.34034 0
M  V30 3733 N 363.613 -0.582584 1.46437 0
M  V30 3734 C 364.853 -1.35184 1.53312 0
M  V30 3735 C 365.217 -1.9115 0.180508 0
M  V30 3736 O 366.418 -2.68514 0.124017 0
M  V30 3737 C 364.689 -2.45089 2.60127 0
M  V30 3738 S 366.248 -3.32439 2.86408 0
M  V30 3739 H 363.066 -0.460559 0.54167 0
M  V30 3740 H 365.668 -0.669709 1.83671 0
M  V30 3741 H 364.372 -2.02366 3.57038 0
M  V30 3742 H 363.903 -3.18074 2.315 0
M  V30 3743 H 365.918 -4.43924 2.21688 0
M  V30 3744 N 365.091 -1.34144 -0.827227 0
M  V30 3745 C 366.319 -1.29325 -1.61501 0
M  V30 3746 C 366.734 0.13354 -1.88327 0
M  V30 3747 O 366.091 1.0793 -1.47164 0
M  V30 3748 C 366.142 -2.07746 -2.95844 0
M  V30 3749 O 365.863 -3.4486 -2.70191 0
M  V30 3750 C 367.364 -2.10273 -3.90256 0
M  V30 3751 H 364.584 -0.445069 -0.50215 0
M  V30 3752 H 367.128 -1.76693 -1.02955 0
M  V30 3753 H 365.283 -1.6403 -3.5096 0
M  V30 3754 H 365.697 -3.85345 -3.55822 0
M  V30 3755 H 367.171 -2.69575 -4.81698 0
M  V30 3756 H 367.648 -1.096 -4.25305 0
M  V30 3757 H 368.254 -2.54059 -3.41078 0
M  V30 3758 N 366.569 1.04691 -1.17803 0
M  V30 3759 C 367.815 1.78045 -0.970969 0
M  V30 3760 C 368.148 1.87686 0.498751 0
M  V30 3761 O 367.423 1.38035 1.37027 0
M  V30 3762 C 367.706 3.2166 -1.61884 0
M  V30 3763 C 367.559 3.20001 -3.161 0
M  V30 3764 C 368.878 4.1962 -1.3269 0
M  V30 3765 H 365.997 0.64633 -0.354155 0
M  V30 3766 H 368.639 1.22333 -1.45378 0
M  V30 3767 H 366.789 3.69232 -1.20831 0
M  V30 3768 H 368.461 2.80467 -3.66246 0
M  V30 3769 H 366.704 2.58203 -3.48588 0
M  V30 3770 H 367.375 4.21386 -3.56564 0
M  V30 3771 H 369.851 3.80567 -1.68249 0
M  V30 3772 H 368.727 5.18339 -1.80599 0
M  V30 3773 H 368.988 4.414 -0.248622 0
M  V30 3774 N 368.047 0.979072 1.23499 0
M  V30 3775 C 369.294 0.647219 1.91878 0
M  V30 3776 C 369.622 -0.819074 1.76413 0
M  V30 3777 O 368.877 -1.60616 1.11808 0
M  V30 3778 C 369.176 0.981932 3.43646 0
M  V30 3779 C 368.842 2.43822 3.79291 0
M  V30 3780 C 367.504 2.83622 3.88731 0
M  V30 3781 C 369.856 3.3828 3.96505 0
M  V30 3782 C 367.184 4.16897 4.12812 0
M  V30 3783 C 369.536 4.71197 4.22085 0
M  V30 3784 C 368.2 5.10758 4.29747 0
M  V30 3785 H 367.47 0.236834 0.702133 0
M  V30 3786 H 370.117 1.23268 1.46551 0
M  V30 3787 H 368.422 0.314365 3.90537 0
M  V30 3788 H 370.119 0.703395 3.94783 0
M  V30 3789 H 366.709 2.11966 3.72516 0
M  V30 3790 H 370.893 3.0871 3.88603 0
M  V30 3791 H 366.149 4.47157 4.16966 0
M  V30 3792 H 370.323 5.44348 4.34348 0
M  V30 3793 H 367.95 6.1405 4.48159 0
M  V30 3794 N 369.525 -1.3858 0.750561 0
M  V30 3795 C 370.457 -2.29057 0.0810714 0
M  V30 3796 C 371.47 -1.47596 -0.686973 0
M  V30 3797 O 372.659 -1.70495 -0.528563 0
M  V30 3798 C 369.759 -3.26475 -0.909247 0
M  V30 3799 C 368.932 -4.36945 -0.199478 0
M  V30 3800 C 367.991 -5.14572 -1.10011 0
M  V30 3801 O 367.017 -5.66321 -0.57177 0
M  V30 3802 N 368.219 -5.27262 -2.42849 0
M  V30 3803 H 370.984 -2.87153 0.858087 0
M  V30 3804 H 368.545 -1.50328 0.60109 0
M  V30 3805 H 370.537 -3.75285 -1.51471 0
M  V30 3806 H 369.107 -2.69298 -1.58736 0
M  V30 3807 H 368.327 -3.8981 0.586664 0
M  V30 3808 H 369.615 -5.07963 0.291783 0
M  V30 3809 H 369.013 -4.86763 -2.88233 0
M  V30 3810 H 367.57 -5.79456 -2.98453 0
M  V30 3811 N 371.003 -0.499398 -1.49478 0
M  V30 3812 C 372.231 0.0425456 -2.06856 0
M  V30 3813 C 372.646 1.30964 -1.35992 0
M  V30 3814 O 372.003 1.77172 -0.437762 0
M  V30 3815 C 372.054 0.301735 -3.60239 0
M  V30 3816 O 371.775 -0.915127 -4.28436 0
M  V30 3817 C 373.276 0.887499 -4.34325 0
M  V30 3818 H 370.496 -0.0197482 -0.670709 0
M  V30 3819 H 373.04 -0.696297 -1.92281 0
M  V30 3820 H 371.195 0.990556 -3.74522 0
M  V30 3821 H 371.609 -0.676993 -5.20113 0
M  V30 3822 H 373.083 1.01845 -5.42523 0
M  V30 3823 H 373.56 1.88488 -3.96698 0
M  V30 3824 H 374.166 0.236196 -4.24644 0
M  V30 3825 N 372.481 1.55866 -0.233164 0
M  V30 3826 C 373.413 2.18099 0.704668 0
M  V30 3827 C 374.426 1.15334 1.14899 0
M  V30 3828 O 375.615 1.42262 1.07814 0
M  V30 3829 C 372.715 2.7592 1.96777 0
M  V30 3830 C 371.888 4.03969 1.67713 0
M  V30 3831 C 370.947 4.46242 2.78845 0
M  V30 3832 O 369.973 5.12903 2.46818 0
M  V30 3833 N 371.175 4.12886 4.08051 0
M  V30 3834 H 373.94 2.99205 0.172258 0
M  V30 3835 H 371.501 1.61815 -0.0525945 0
M  V30 3836 H 373.493 3.01165 2.70337 0
M  V30 3837 H 372.063 1.99051 2.41034 0
M  V30 3838 H 371.283 3.86459 0.777391 0
M  V30 3839 H 372.571 4.8748 1.4574 0
M  V30 3840 H 371.969 3.59342 4.3691 0
M  V30 3841 H 370.526 4.42997 4.78118 0
M  V30 3842 N 373.959 -0.0401083 1.57549 0
M  V30 3843 C 375.37 -0.588097 1.77196 0
M  V30 3844 C 375.721 -1.76209 0.862832 0
M  V30 3845 O 374.846 -2.16331 0.0548389 0
M  V30 3846 C 375.441 -1.07363 3.21339 0
M  V30 3847 C 374 -1.56723 3.42221 0
M  V30 3848 C 373.147 -0.50041 2.72747 0
M  V30 3849 H 376.098 0.186119 1.57605 0
M  V30 3850 H 376.119 -1.94143 3.27244 0
M  V30 3851 H 375.631 -0.218975 3.87482 0
M  V30 3852 H 373.732 -2.4441 2.81237 0
M  V30 3853 H 373.845 -1.62234 4.50796 0
M  V30 3854 H 372.209 -0.952894 2.36203 0
M  V30 3855 H 372.992 0.344599 3.41566 0
M  V30 3856 N 375.437 -1.54477 -0.31217 0
M  V30 3857 C 376.683 -1.73483 -1.0503 0
M  V30 3858 C 377.016 -0.513125 -1.87298 0
M  V30 3859 O 376.291 0.489864 -1.8823 0
M  V30 3860 C 376.574 -3.01723 -1.96558 0
M  V30 3861 C 376.427 -4.3417 -1.17545 0
M  V30 3862 C 377.746 -3.25772 -2.95907 0
M  V30 3863 H 374.865 -0.631222 -0.380432 0
M  V30 3864 H 377.507 -1.87184 -0.325932 0
M  V30 3865 H 375.657 -2.90174 -2.58324 0
M  V30 3866 H 377.329 -4.5762 -0.581513 0
M  V30 3867 H 375.572 -4.31159 -0.477925 0
M  V30 3868 H 376.243 -5.20143 -1.84811 0
M  V30 3869 H 378.719 -3.36857 -2.44267 0
M  V30 3870 H 377.595 -4.16838 -3.57123 0
M  V30 3871 H 377.856 -2.43537 -3.68974 0
M  V30 3872 N 376.915 0.57481 -1.46744 0
M  V30 3873 C 378.143 1.35856 -1.56047 0
M  V30 3874 C 378.558 1.87691 -0.204365 0
M  V30 3875 O 377.915 1.64049 0.79963 0
M  V30 3876 C 377.966 2.54066 -2.57163 0
M  V30 3877 O 377.687 2.04377 -3.87507 0
M  V30 3878 C 379.188 3.46514 -2.76483 0
M  V30 3879 H 376.408 0.414754 -0.527466 0
M  V30 3880 H 378.952 0.698035 -1.92218 0
M  V30 3881 H 377.107 3.16092 -2.23974 0
M  V30 3882 H 377.521 2.81419 -4.4261 0
M  V30 3883 H 378.995 4.25919 -3.51137 0
M  V30 3884 H 379.472 3.98951 -1.83671 0
M  V30 3885 H 380.078 2.90318 -3.10799 0
M  V30 3886 N 378.394 1.34581 0.820102 0
M  V30 3887 C 379.619 1.30333 1.61332 0
M  V30 3888 C 380.044 -0.119339 1.87721 0
M  V30 3889 O 379.402 -1.08197 1.45475 0
M  V30 3890 C 379.45 2.10258 2.92957 0
M  V30 3891 O 378.554 1.47404 3.85157 0
M  V30 3892 H 377.895 0.447488 0.490561 0
M  V30 3893 H 380.425 1.77425 1.01889 0
M  V30 3894 H 380.435 2.21718 3.42498 0
M  V30 3895 H 379.11 3.13693 2.73074 0
M  V30 3896 H 377.687 1.44703 3.43679 0
M  V30 3897 N 379.872 -1.04064 1.18357 0
M  V30 3898 C 380.804 -2.12114 0.868358 0
M  V30 3899 C 381.817 -1.62247 -0.134045 0
M  V30 3900 O 383.006 -1.78253 0.0937933 0
M  V30 3901 C 380.106 -3.37773 0.276132 0
M  V30 3902 C 379.279 -4.16874 1.3242 0
M  V30 3903 C 378.338 -5.20861 0.747662 0
M  V30 3904 O 377.364 -5.51141 1.42239 0
M  V30 3905 N 378.566 -5.78715 -0.454823 0
M  V30 3906 H 381.331 -2.39748 1.79836 0
M  V30 3907 H 378.892 -1.20258 1.08396 0
M  V30 3908 H 380.884 -4.04513 -0.123133 0
M  V30 3909 H 379.454 -3.07581 -0.557895 0
M  V30 3910 H 378.674 -3.45456 1.89878 0
M  V30 3911 H 379.962 -4.66516 2.03078 0
M  V30 3912 H 379.36 -5.56415 -1.02073 0
M  V30 3913 H 377.917 -6.46921 -0.79601 0
M  V30 3914 N 381.35 -0.985608 -1.22978 0
M  V30 3915 C 382.761 -0.693593 -1.73338 0
M  V30 3916 C 383.112 0.789935 -1.79595 0
M  V30 3917 O 382.237 1.61771 -1.43733 0
M  V30 3918 C 382.832 -1.25235 -3.14804 0
M  V30 3919 C 381.391 -1.00987 -3.626 0
M  V30 3920 C 380.538 -1.37695 -2.40698 0
M  V30 3921 H 383.489 -1.15884 -1.08428 0
M  V30 3922 H 383.51 -0.627329 -3.75293 0
M  V30 3923 H 383.022 -2.33209 -3.10218 0
M  V30 3924 H 381.123 0.0535565 -3.72562 0
M  V30 3925 H 381.236 -1.66812 -4.49122 0
M  V30 3926 H 379.6 -0.795459 -2.4196 0
M  V30 3927 H 380.383 -2.46657 -2.38779 0
M  V30 3928 N 382.828 1.3818 -0.7579 0
M  V30 3929 C 383.76 2.2901 -0.0932177 0
M  V30 3930 C 384.773 1.47958 0.679136 0
M  V30 3931 O 385.962 1.70773 0.519514 0
M  V30 3932 C 383.062 3.26953 0.89192 0
M  V30 3933 C 382.235 4.37045 0.176303 0
M  V30 3934 C 381.294 5.15148 1.07281 0
M  V30 3935 O 380.32 5.66616 0.541728 0
M  V30 3936 N 381.522 5.28542 2.40049 0
M  V30 3937 H 384.287 2.86694 -0.873303 0
M  V30 3938 H 381.848 1.50007 -0.609054 0
M  V30 3939 H 383.84 3.76083 1.49479 0
M  V30 3940 H 382.41 2.70136 1.57306 0
M  V30 3941 H 381.63 3.89493 -0.607328 0
M  V30 3942 H 382.918 5.07801 -0.318718 0
M  V30 3943 H 382.316 4.88285 2.85647 0
M  V30 3944 H 380.873 5.8103 2.95376 0
M  V30 3945 N 384.306 0.507319 1.49211 0
M  V30 3946 C 385.717 0.0611118 1.866 0
M  V30 3947 C 386.068 -1.35488 1.41907 0
M  V30 3948 O 385.193 -2.0108 0.799726 0
M  V30 3949 C 385.788 0.104125 3.3864 0
M  V30 3950 C 384.347 -0.28677 3.75306 0
M  V30 3951 C 383.494 0.473893 2.73221 0
M  V30 3952 H 386.445 0.719775 1.41439 0
M  V30 3953 H 386.466 -0.689672 3.74198 0
M  V30 3954 H 385.978 1.13482 3.71138 0
M  V30 3955 H 384.079 -1.32046 3.48417 0
M  V30 3956 H 384.192 0.0370745 4.79086 0
M  V30 3957 H 382.556 -0.0770644 2.54583 0
M  V30 3958 H 383.339 1.50478 3.08563 0
M  V30 3959 N 385.784 -1.5574 0.241426 0
M  V30 3960 C 386.694 -2.2479 -0.671305 0
M  V30 3961 C 387.71 -1.26217 -1.19772 0
M  V30 3962 O 388.886 -1.59079 -1.23514 0
M  V30 3963 C 385.951 -2.92966 -1.85396 0
M  V30 3964 C 385.012 -4.06935 -1.36756 0
M  V30 3965 C 384.245 -4.71851 -2.49384 0
M  V30 3966 O 384.468 -4.35823 -3.67987 0
M  V30 3967 O 383.402 -5.60467 -2.19454 0
M  V30 3968 H 387.228 -3.0349 -0.112966 0
M  V30 3969 H 384.813 -1.49397 0.0101513 0
M  V30 3970 H 386.695 -3.35927 -2.54423 0
M  V30 3971 H 385.37 -2.17211 -2.40002 0
M  V30 3972 H 384.277 -3.68503 -0.644726 0
M  V30 3973 H 385.61 -4.84492 -0.867647 0
M  V30 3974 N 387.262 0.0317525 -1.57568 0
M  V30 3975 C 388.51 0.721676 -1.88776 0
M  V30 3976 C 388.831 1.76039 -0.838772 0
M  V30 3977 O 388.101 1.95482 0.127935 0
M  V30 3978 H 386.681 0.269534 -0.696678 0
M  V30 3979 H 389.343 -0.00165879 -1.949 0
M  V30 3980 H 388.439 1.21293 -2.87566 0
M  V30 3981 N 388.74 1.54641 0.303973 0
M  V30 3982 C 389.703 1.84646 1.35789 0
M  V30 3983 C 390.703 0.7192 1.4382 0
M  V30 3984 O 391.893 0.987491 1.43507 0
M  V30 3985 C 389.025 2.02407 2.74307 0
M  V30 3986 H 390.218 2.78829 1.10429 0
M  V30 3987 H 387.771 1.46658 0.540487 0
M  V30 3988 H 388.506 1.10502 3.04893 0
M  V30 3989 H 388.291 2.84453 2.69868 0
M  V30 3990 H 389.781 2.27002 3.50514 0
M  V30 3991 N 390.218 -0.567019 1.47046 0
M  V30 3992 C 391.166 -1.69593 1.59188 0
M  V30 3993 C 392.16 -1.63046 0.459609 0
M  V30 3994 O 393.366 -1.6835 0.637058 0
M  V30 3995 H 389.741 -0.560993 0.500791 0
M  V30 3996 H 391.712 -1.56488 2.54075 0
M  V30 3997 C 390.461 -3.07964 1.61411 0
M  V30 3998 H 389.784 -3.13679 2.47881 0
M  V30 3999 H 391.224 -3.86671 1.73958 0
M  V30 4000 C 389.683 -3.35123 0.34559 0
M  V30 4001 O 390.213 -3.97812 -0.557521 0
M  V30 4002 N 388.419 -2.89699 0.22864 0
M  V30 4003 H 387.966 -2.38863 0.964479 0
M  V30 4004 H 387.924 -3.08242 -0.619192 0
M  V30 4005 N 391.696 -1.35014 -0.812953 0
M  V30 4006 C 392.606 -1.2951 -1.95613 0
M  V30 4007 C 393.622 -0.20107 -1.72834 0
M  V30 4008 O 394.798 -0.42932 -1.96771 0
M  V30 4009 C 391.863 -1.06033 -3.30088 0
M  V30 4010 C 390.924 -2.24688 -3.65805 0
M  V30 4011 C 390.157 -2.02322 -4.93864 0
M  V30 4012 O 390.38 -0.986464 -5.61805 0
M  V30 4013 O 389.314 -2.89525 -5.27692 0
M  V30 4014 H 393.14 -2.25705 -2.03202 0
M  V30 4015 H 390.725 -1.15321 -0.949811 0
M  V30 4016 H 392.607 -0.94763 -4.10607 0
M  V30 4017 H 391.282 -0.128852 -3.23443 0
M  V30 4018 H 390.189 -2.41521 -2.85689 0
M  V30 4019 H 391.522 -3.16261 -3.77147 0
M  V30 4020 N 393.175 1.03435 -1.18907 0
M  V30 4021 C 394.138 2.09756 -0.923844 0
M  V30 4022 C 395.138 1.60528 0.093416 0
M  V30 4023 O 396.328 1.73631 -0.140727 0
M  V30 4024 C 393.46 3.38692 -0.387354 0
M  V30 4025 H 394.653 2.34719 -1.86674 0
M  V30 4026 H 392.206 1.19959 -1.00197 0
M  V30 4027 H 392.941 3.19396 0.561845 0
M  V30 4028 H 392.726 3.75742 -1.12074 0
M  V30 4029 H 394.216 4.17016 -0.220694 0
M  V30 4030 N 394.653 0.992116 1.22453 0
M  V30 4031 C 395.899 0.668523 1.91464 0
M  V30 4032 C 396.232 -0.797313 1.77078 0
M  V30 4033 O 395.507 -1.5765 1.13916 0
M  V30 4034 C 395.79 1.07424 3.43703 0
M  V30 4035 C 395.643 2.59857 3.67143 0
M  V30 4036 C 396.962 0.626891 4.35612 0
M  V30 4037 H 394.081 0.244341 0.695318 0
M  V30 4038 H 396.723 1.2355 1.44345 0
M  V30 4039 H 394.873 0.591816 3.83966 0
M  V30 4040 H 396.545 3.15764 3.3629 0
M  V30 4041 H 394.788 3.01961 3.11451 0
M  V30 4042 H 395.459 2.83296 4.73759 0
M  V30 4043 H 397.935 1.04125 4.02861 0
M  V30 4044 H 396.811 0.939076 5.40807 0
M  V30 4045 H 397.072 -0.472457 4.39568 0
M  V30 4046 N 396.131 -1.37776 0.765217 0
M  V30 4047 C 397.542 -1.82521 0.392819 0
M  V30 4048 C 397.893 -1.63789 -1.08017 0
M  V30 4049 O 397.018 -1.14542 -1.83601 0
M  V30 4050 C 397.613 -3.31358 0.706214 0
M  V30 4051 C 396.172 -3.74406 0.386952 0
M  V30 4052 C 395.319 -2.60394 0.953422 0
M  V30 4053 H 398.27 -1.2634 0.960412 0
M  V30 4054 H 398.291 -3.80498 -0.0114706 0
M  V30 4055 H 397.803 -3.44959 1.77833 0
M  V30 4056 H 395.904 -3.66377 -0.678112 0
M  V30 4057 H 396.017 -4.70749 0.890636 0
M  V30 4058 H 394.381 -2.51878 0.378064 0
M  V30 4059 H 395.164 -2.76791 2.03081 0
M  V30 4060 N 397.609 -0.515225 -1.4894 0
M  V30 4061 C 398.837 0.0206034 -2.0689 0
M  V30 4062 C 399.252 1.29514 -1.37374 0
M  V30 4063 O 398.609 1.76698 -0.456529 0
M  V30 4064 C 398.66 0.26351 -3.60538 0
M  V30 4065 O 398.381 -0.960517 -4.27441 0
M  V30 4066 C 399.882 0.841383 -4.35242 0
M  V30 4067 H 397.102 -0.0268608 -0.670462 0
M  V30 4068 H 399.646 -0.716651 -1.91532 0
M  V30 4069 H 397.801 0.950777 -3.75552 0
M  V30 4070 H 398.215 -0.73212 -5.19365 0
M  V30 4071 H 399.689 0.96085 -5.43573 0
M  V30 4072 H 400.166 1.8427 -3.98674 0
M  V30 4073 H 400.772 0.191143 -4.2487 0
M  V30 4074 N 399.087 1.5561 -0.249682 0
M  V30 4075 C 400.498 1.84979 0.252949 0
M  V30 4076 C 400.849 1.17153 1.57384 0
M  V30 4077 O 399.974 0.450884 2.11651 0
M  V30 4078 C 400.569 3.35584 0.465732 0
M  V30 4079 C 399.128 3.65169 0.912624 0
M  V30 4080 C 398.275 2.77299 -0.00859085 0
M  V30 4081 H 401.226 1.51513 -0.47217 0
M  V30 4082 H 401.247 3.57313 1.30795 0
M  V30 4083 H 400.759 3.8492 -0.49579 0
M  V30 4084 H 398.86 3.21312 1.88652 0
M  V30 4085 H 398.973 4.72912 0.767559 0
M  V30 4086 H 397.337 2.49678 0.50327 0
M  V30 4087 H 398.12 3.29442 -0.965537 0
M  V30 4088 N 400.565 -0.0233959 1.57583 0
M  V30 4089 C 401.811 -0.714119 1.89811 0
M  V30 4090 C 402.144 -1.74702 0.848113 0
M  V30 4091 O 401.419 -1.94023 -0.136135 0
M  V30 4092 C 401.702 -1.37853 3.32669 0
M  V30 4093 C 401.555 -0.358764 4.48367 0
M  V30 4094 C 402.874 -2.31101 3.7454 0
M  V30 4095 H 399.993 -0.25814 0.690314 0
M  V30 4096 H 402.635 0.0230927 1.89986 0
M  V30 4097 H 400.785 -2.00689 3.3265 0
M  V30 4098 H 402.457 0.268115 4.6052 0
M  V30 4099 H 400.7 0.321387 4.32608 0
M  V30 4100 H 401.371 -0.862242 5.45224 0
M  V30 4101 H 403.847 -1.78304 3.75961 0
M  V30 4102 H 402.723 -2.74567 4.75294 0
M  V30 4103 H 402.984 -3.18018 3.0711 0
M  V30 4104 N 402.043 -1.548 -0.295768 0
M  V30 4105 C 403.289 -1.74588 -1.03184 0
M  V30 4106 C 403.622 -0.532962 -1.86744 0
M  V30 4107 O 402.897 0.469872 -1.88739 0
M  V30 4108 C 403.18 -3.03791 -1.93347 0
M  V30 4109 C 403.033 -4.35392 -1.12933 0
M  V30 4110 C 404.352 -3.28892 -2.92435 0
M  V30 4111 H 401.471 -0.635221 -0.373715 0
M  V30 4112 H 404.113 -1.87519 -0.30606 0
M  V30 4113 H 402.263 -2.92898 -2.55232 0
M  V30 4114 H 403.935 -4.58211 -0.532943 0
M  V30 4115 H 402.178 -4.31642 -0.432168 0
M  V30 4116 H 402.849 -5.22074 -1.79284 0
M  V30 4117 H 405.325 -3.39429 -2.4068 0
M  V30 4118 H 404.201 -4.20603 -3.52682 0
M  V30 4119 H 404.462 -2.47437 -3.6637 0
M  V30 4120 N 403.521 0.559213 -1.47345 0
M  V30 4121 C 404.798 1.31997 -1.44348 0
M  V30 4122 C 405.178 2.1064 -0.139358 0
M  V30 4123 O 404.526 2.1091 0.879153 0
M  V30 4124 C 404.736 2.22618 -2.68779 0
M  V30 4125 C 406.084 2.83701 -3.1591 0
M  V30 4126 O 407.108 2.32921 -2.69493 0
M  V30 4127 O 405.967 3.75993 -3.966 0
M  V30 4128 H 403.061 0.594251 -0.575147 0
M  V30 4129 H 405.607 0.578282 -1.59543 0
M  V30 4130 H 404.379 1.64093 -3.55231 0
M  V30 4131 H 404.002 3.04085 -2.5616 0
M  V30 4132 N 404.999 1.35443 0.805782 0
M  V30 4133 C 406.41 1.25768 1.37983 0
M  V30 4134 C 406.761 -0.10958 1.95894 0
M  V30 4135 O 405.886 -1.01056 1.91355 0
M  V30 4136 C 406.481 2.27727 2.5085 0
M  V30 4137 C 405.04 2.2179 3.04115 0
M  V30 4138 C 404.187 2.13393 1.77084 0
M  V30 4139 H 407.138 1.4656 0.608752 0
M  V30 4140 H 407.159 1.90422 3.29424 0
M  V30 4141 H 406.671 3.27227 2.08671 0
M  V30 4142 H 404.772 1.25703 3.50756 0
M  V30 4143 H 404.885 3.13788 3.62042 0
M  V30 4144 H 403.249 1.59384 1.98668 0
M  V30 4145 H 404.032 3.14755 1.37056 0
M  V30 4146 N 406.477 -1.02803 1.19454 0
M  V30 4147 C 407.754 -1.73299 0.907013 0
M  V30 4148 C 408.134 -2.02772 -0.587086 0
M  V30 4149 O 407.482 -1.68304 -1.54551 0
M  V30 4150 C 407.692 -3.00912 1.76785 0
M  V30 4151 C 409.04 -3.74403 2.00268 0
M  V30 4152 O 410.064 -3.10841 1.73943 0
M  V30 4153 O 408.923 -4.88675 2.4466 0
M  V30 4154 H 406.017 -0.754727 0.338106 0
M  V30 4155 H 408.563 -1.08754 1.30271 0
M  V30 4156 H 407.335 -2.75366 2.7801 0
M  V30 4157 H 406.958 -3.73197 1.37149 0
M  V30 4158 N 407.956 -0.998596 -1.21925 0
M  V30 4159 C 408.919 -0.558679 -2.22287 0
M  V30 4160 C 409.919 0.361525 -1.56683 0
M  V30 4161 O 411.109 0.152695 -1.73529 0
M  V30 4162 C 408.241 0.18661 -3.40389 0
M  V30 4163 H 409.434 -1.4463 -2.62721 0
M  V30 4164 H 406.987 -0.786413 -1.35075 0
M  V30 4165 H 407.722 1.08996 -3.05435 0
M  V30 4166 H 407.507 -0.474188 -3.89222 0
M  V30 4167 H 408.997 0.482367 -4.14805 0
M  V30 4168 N 409.434 1.37368 -0.772513 0
M  V30 4169 C 410.845 1.8231 -0.402493 0
M  V30 4170 C 411.196 1.6436 1.07146 0
M  V30 4171 O 410.321 1.15514 1.82991 0
M  V30 4172 C 410.916 3.30979 -0.723776 0
M  V30 4173 C 409.475 3.74195 -0.406802 0
M  V30 4174 C 408.622 2.59885 -0.967218 0
M  V30 4175 H 411.573 1.25829 -0.967099 0
M  V30 4176 H 411.594 3.80499 -0.00870832 0
M  V30 4177 H 411.106 3.44011 -1.7966 0
M  V30 4178 H 409.207 3.66732 0.658673 0
M  V30 4179 H 409.32 4.7027 -0.915588 0
M  V30 4180 H 407.684 2.51674 -0.391416 0
M  V30 4181 H 408.467 2.7571 -2.04546 0
M  V30 4182 N 410.912 0.523116 1.48665 0
M  V30 4183 C 412.323 0.0808997 1.86525 0
M  V30 4184 C 412.674 -1.33975 1.43336 0
M  V30 4185 O 411.799 -2.00221 0.821009 0
M  V30 4186 C 412.394 0.140037 3.3851 0
M  V30 4187 C 410.953 -0.246948 3.75589 0
M  V30 4188 C 410.1 0.502845 2.72703 0
M  V30 4189 H 413.051 0.734736 1.40667 0
M  V30 4190 H 413.072 -0.649945 3.74908 0
M  V30 4191 H 412.584 1.17412 3.69914 0
M  V30 4192 H 410.685 -1.28343 3.49798 0
M  V30 4193 H 410.798 0.0878859 4.79019 0
M  V30 4194 H 409.162 -0.0500581 2.54651 0
M  V30 4195 H 409.945 1.53743 3.0695 0
M  V30 4196 N 412.39 -1.55475 0.257931 0
M  V30 4197 C 413.615 -2.04064 -0.370488 0
M  V30 4198 C 414.04 -1.13565 -1.49948 0
M  V30 4199 O 413.398 -0.130781 -1.80828 0
M  V30 4200 C 413.446 -3.50554 -0.845237 0
M  V30 4201 O 412.55 -3.63173 -1.95394 0
M  V30 4202 H 411.891 -0.659257 -0.0792243 0
M  V30 4203 H 414.421 -2.00903 0.387212 0
M  V30 4204 H 414.431 -3.91588 -1.14555 0
M  V30 4205 H 413.106 -4.15896 -0.0191259 0
M  V30 4206 H 411.683 -3.34039 -1.65748 0
M  V30 4207 N 413.868 0.0150385 -1.57593 0
M  V30 4208 C 415.279 0.559832 -1.78109 0
M  V30 4209 C 415.63 1.74814 -0.890756 0
M  V30 4210 O 414.755 2.16216 -0.0892482 0
M  V30 4211 C 415.35 1.02238 -3.23006 0
M  V30 4212 C 413.909 1.51258 -3.44671 0
M  V30 4213 C 413.056 0.456955 -2.73509 0
M  V30 4214 H 416.007 -0.211169 -1.57289 0
M  V30 4215 H 416.028 1.88912 -3.30292 0
M  V30 4216 H 415.54 0.157302 -3.87781 0
M  V30 4217 H 413.641 2.39905 -2.8509 0
M  V30 4218 H 413.754 1.55042 -4.5332 0
M  V30 4219 H 412.118 0.915196 -2.37689 0
M  V30 4220 H 412.901 -0.398896 -3.40975 0
M  V30 4221 N 415.346 1.54954 0.287554 0
M  V30 4222 C 416.757 1.65732 0.859634 0
M  V30 4223 C 417.108 0.574767 1.87592 0
M  V30 4224 O 416.233 -0.286299 2.14498 0
M  V30 4225 C 416.828 3.00438 1.56597 0
M  V30 4226 C 415.387 3.13292 2.08627 0
M  V30 4227 C 414.534 2.61473 0.923416 0
M  V30 4228 H 417.485 1.5857 0.0642338 0
M  V30 4229 H 417.506 2.92613 2.43224 0
M  V30 4230 H 417.018 3.79207 0.826053 0
M  V30 4231 H 415.119 2.39268 2.85625 0
M  V30 4232 H 415.232 4.19647 2.31157 0
M  V30 4233 H 413.596 2.18264 1.31275 0
M  V30 4234 H 414.379 3.42733 0.197241 0
M  V30 4235 N 416.824 -0.551391 1.4764 0
M  V30 4236 C 417.754 -1.66757 1.63445 0
M  V30 4237 C 418.735 -1.63077 0.483742 0
M  V30 4238 O 419.92 -1.80607 0.71377 0
M  V30 4239 C 417.05 -3.05387 1.65396 0
M  V30 4240 C 416.004 -3.23918 2.79752 0
M  V30 4241 C 415.33 -4.63393 2.66779 0
M  V30 4242 C 416.63 -3.08735 4.21284 0
M  V30 4243 H 418.324 -1.53786 2.56886 0
M  V30 4244 H 415.87 -0.738415 1.23626 0
M  V30 4245 H 417.823 -3.83325 1.75043 0
M  V30 4246 H 416.547 -3.19332 0.685195 0
M  V30 4247 H 415.206 -2.48391 2.69625 0
M  V30 4248 H 414.854 -4.74144 1.67918 0
M  V30 4249 H 414.554 -4.7674 3.43501 0
M  V30 4250 H 416.078 -5.43458 2.78364 0
M  V30 4251 H 417.492 -3.76484 4.32357 0
M  V30 4252 H 415.889 -3.33588 4.98838 0
M  V30 4253 H 416.959 -2.0541 4.39243 0
M  V30 4254 N 418.302 -1.35869 -0.798587 0
M  V30 4255 C 419.55 -1.29332 -1.55298 0
M  V30 4256 C 419.871 0.129729 -1.94568 0
M  V30 4257 O 419.141 1.06796 -1.6423 0
M  V30 4258 H 417.721 -0.475737 -0.57592 0
M  V30 4259 H 420.383 -1.70062 -0.952093 0
M  V30 4260 H 419.479 -1.91458 -2.46476 0
M  V30 4261 N 419.78 1.02168 -1.19998 0
M  V30 4262 C 420.743 2.08765 -0.94604 0
M  V30 4263 C 421.743 1.60618 0.0763846 0
M  V30 4264 O 422.933 1.73472 -0.159135 0
M  V30 4265 C 420.065 3.38262 -0.423255 0
M  V30 4266 H 421.258 2.32726 -1.89153 0
M  V30 4267 H 418.811 1.1889 -1.01464 0
M  V30 4268 H 419.546 3.19974 0.527938 0
M  V30 4269 H 419.331 3.74532 -1.16053 0
M  V30 4270 H 420.821 4.16759 -0.264911 0
M  V30 4271 N 421.258 1.00505 1.21394 0
M  V30 4272 C 422.669 0.721082 1.72213 0
M  V30 4273 C 423.02 -0.761263 1.80829 0
M  V30 4274 O 422.145 -1.59464 1.46288 0
M  V30 4275 C 422.74 1.30228 3.12772 0
M  V30 4276 C 421.299 1.06743 3.60947 0
M  V30 4277 C 420.446 1.41507 2.38477 0
M  V30 4278 H 423.397 1.17594 1.06571 0
M  V30 4279 H 423.418 0.686955 3.74247 0
M  V30 4280 H 422.93 2.38115 3.06468 0
M  V30 4281 H 421.031 0.00572162 3.726 0
M  V30 4282 H 421.144 1.73936 4.46411 0
M  V30 4283 H 419.508 0.833852 2.40664 0
M  V30 4284 H 420.291 2.50424 2.34824 0
M  V30 4285 N 422.737 -1.36956 0.779787 0
M  V30 4286 C 423.985 -1.99097 0.347079 0
M  V30 4287 C 424.306 -1.62206 -1.08232 0
M  V30 4288 O 423.576 -0.891373 -1.74446 0
M  V30 4289 H 422.156 -0.736409 0.125342 0
M  V30 4290 H 424.818 -1.67308 0.999696 0
M  V30 4291 H 423.914 -3.09107 0.431162 0
M  V30 4292 N 424.215 -0.530993 -1.48385 0
M  V30 4293 C 425.145 0.219985 -2.32461 0
M  V30 4294 C 426.126 0.934111 -1.42156 0
M  V30 4295 O 427.311 0.919694 -1.71042 0
M  V30 4296 C 424.441 1.26674 -3.23375 0
M  V30 4297 C 423.395 0.67069 -4.22712 0
M  V30 4298 C 422.721 1.82017 -5.02766 0
M  V30 4299 C 424.021 -0.358268 -5.2107 0
M  V30 4300 H 425.715 -0.48187 -2.95497 0
M  V30 4301 H 423.261 -0.233182 -1.42099 0
M  V30 4302 H 425.214 1.80006 -3.81019 0
M  V30 4303 H 423.938 1.99818 -2.58341 0
M  V30 4304 H 422.597 0.158878 -3.66256 0
M  V30 4305 H 422.245 2.54002 -4.34157 0
M  V30 4306 H 421.945 1.42727 -5.70003 0
M  V30 4307 H 423.469 2.35725 -5.63264 0
M  V30 4308 H 424.883 0.0880081 -5.73232 0
M  V30 4309 H 423.28 -0.66861 -5.96364 0
M  V30 4310 H 424.35 -1.26367 -4.68145 0
M  V30 4311 N 425.693 1.55336 -0.266172 0
M  V30 4312 C 427.104 1.85236 0.233315 0
M  V30 4313 C 427.455 1.18816 1.56132 0
M  V30 4314 O 426.58 0.473307 2.11161 0
M  V30 4315 C 427.175 3.36059 0.430113 0
M  V30 4316 C 425.734 3.66116 0.873842 0
M  V30 4317 C 424.881 2.77274 -0.0380016 0
M  V30 4318 H 427.832 1.51004 -0.488214 0
M  V30 4319 H 427.853 3.58681 1.26998 0
M  V30 4320 H 427.365 3.84373 -0.536588 0
M  V30 4321 H 425.466 3.23295 1.85233 0
M  V30 4322 H 425.579 4.73699 0.717358 0
M  V30 4323 H 423.943 2.50198 0.476759 0
M  V30 4324 H 424.726 3.284 -1.00042 0
M  V30 4325 N 427.171 -0.0066808 1.57599 0
M  V30 4326 C 428.582 -0.550379 1.78403 0
M  V30 4327 C 428.933 -1.74339 0.900014 0
M  V30 4328 O 428.058 -2.16166 0.100713 0
M  V30 4329 C 428.653 -1.00523 3.23544 0
M  V30 4330 C 427.212 -1.49428 3.45468 0
M  V30 4331 C 426.359 -0.442444 2.73748 0
M  V30 4332 H 429.31 0.219508 1.57175 0
M  V30 4333 H 429.331 -1.87157 3.31289 0
M  V30 4334 H 428.843 -0.136735 3.87859 0
M  V30 4335 H 426.944 -2.3839 2.86358 0
M  V30 4336 H 427.057 -1.52635 4.54136 0
M  V30 4337 H 425.421 -0.902578 2.38171 0
M  V30 4338 H 426.204 0.416973 3.40758 0
M  V30 4339 N 428.649 -1.55105 -0.279332 0
M  V30 4340 C 429.612 -1.86783 -1.32834 0
M  V30 4341 C 430.612 -0.74199 -1.42657 0
M  V30 4342 O 431.802 -1.0102 -1.41918 0
M  V30 4343 C 428.934 -2.06746 -2.71052 0
M  V30 4344 H 430.127 -2.8055 -1.05979 0
M  V30 4345 H 427.68 -1.47499 -0.517087 0
M  V30 4346 H 428.415 -1.15339 -3.03097 0
M  V30 4347 H 428.2 -2.88711 -2.65309 0
M  V30 4348 H 429.69 -2.32549 -3.46858 0
M  V30 4349 N 430.127 0.543554 -1.4793 0
M  V30 4350 C 431.375 1.29752 -1.54948 0
M  V30 4351 C 431.696 1.93764 -0.219242 0
M  V30 4352 O 430.966 1.80639 0.75805 0
M  V30 4353 H 429.546 0.481874 -0.570795 0
M  V30 4354 H 432.208 0.633636 -1.84312 0
M  V30 4355 H 431.304 2.08392 -2.32334 0
M  V30 4356 N 431.605 1.3629 0.791371 0
M  V30 4357 C 432.83 1.33726 1.58531 0
M  V30 4358 C 433.255 -0.0794933 1.87932 0
M  V30 4359 O 432.613 -1.05087 1.47738 0
M  V30 4360 C 432.661 2.16425 2.88431 0
M  V30 4361 O 431.765 1.5554 3.81944 0
M  V30 4362 H 431.106 0.457793 0.480959 0
M  V30 4363 H 433.636 1.79547 0.981031 0
M  V30 4364 H 433.646 2.28933 3.37718 0
M  V30 4365 H 432.321 3.19415 2.66359 0
M  V30 4366 H 430.898 1.51961 3.40532 0
M  V30 4367 N 433.083 -1.0153 1.20538 0
M  V30 4368 C 434.494 -1.56598 1.01657 0
M  V30 4369 C 434.845 -1.91505 -0.426668 0
M  V30 4370 O 433.97 -1.72375 -1.30827 0
M  V30 4371 C 434.565 -2.84542 1.83905 0
M  V30 4372 C 433.124 -3.36133 1.69386 0
M  V30 4373 C 432.271 -2.09427 1.81757 0
M  V30 4374 H 435.222 -0.838974 1.34711 0
M  V30 4375 H 435.243 -3.56004 1.34319 0
M  V30 4376 H 434.755 -2.59105 2.8894 0
M  V30 4377 H 432.856 -3.66528 0.669933 0
M  V30 4378 H 432.969 -4.08248 2.50739 0
M  V30 4379 H 431.333 -2.21941 1.24957 0
M  V30 4380 H 432.116 -1.86414 2.88279 0
M  V30 4381 N 434.561 -1.01147 -1.20859 0
M  V30 4382 C 435.972 -0.730205 -1.71828 0
M  V30 4383 C 436.323 0.751662 -1.8123 0
M  V30 4384 O 435.448 1.58686 -1.47132 0
M  V30 4385 C 436.043 -1.31885 -3.12077 0
M  V30 4386 C 434.602 -1.08656 -3.60376 0
M  V30 4387 C 433.749 -1.42769 -2.37723 0
M  V30 4388 H 436.7 -1.18158 -1.05945 0
M  V30 4389 H 436.721 -0.706793 -3.73878 0
M  V30 4390 H 436.233 -2.39737 -3.05201 0
M  V30 4391 H 434.334 -0.0254814 -3.72591 0
M  V30 4392 H 434.447 -1.76301 -4.45483 0
M  V30 4393 H 432.811 -0.846603 -2.40218 0
M  V30 4394 H 433.594 -2.51666 -2.33493 0
M  V30 4395 N 436.039 1.36541 -0.78704 0
M  V30 4396 C 437.316 1.9355 -0.282424 0
M  V30 4397 C 437.696 1.71919 1.22503 0
M  V30 4398 O 437.044 1.07677 2.01539 0
M  V30 4399 C 437.254 3.4246 -0.672462 0
M  V30 4400 C 438.602 4.19582 -0.650863 0
M  V30 4401 O 439.626 3.50889 -0.612789 0
M  V30 4402 O 438.485 5.42106 -0.691623 0
M  V30 4403 H 435.579 0.824091 -0.0693 0
M  V30 4404 H 438.125 1.45736 -0.869423 0
M  V30 4405 H 436.897 3.51851 -1.71221 0
M  V30 4406 H 436.52 3.97556 -0.0592211 0
M  V30 4407 N 437.518 0.538854 1.48102 0
M  V30 4408 C 438.743 0.0102694 2.07397 0
M  V30 4409 C 439.168 -1.26562 1.39153 0
M  V30 4410 O 438.526 -1.75357 0.460387 0
M  V30 4411 C 438.574 -0.187602 3.60112 0
M  V30 4412 O 437.678 -1.25432 3.92862 0
M  V30 4413 H 437.019 0.0430975 0.6626 0
M  V30 4414 H 439.549 0.749301 1.90385 0
M  V30 4415 H 439.559 -0.407517 4.0596 0
M  V30 4416 H 438.234 0.744386 4.09184 0
M  V30 4417 H 436.811 -1.01636 3.58782 0
M  V30 4418 N 438.996 -1.55193 0.274407 0
M  V30 4419 C 439.946 -2.19184 -0.627882 0
M  V30 4420 C 440.93 -1.15625 -1.11892 0
M  V30 4421 O 442.122 -1.41441 -1.06411 0
M  V30 4422 C 439.251 -2.91591 -1.81189 0
M  V30 4423 C 438.337 -4.02438 -1.33807 0
M  V30 4424 N 438.728 -5.0246 -0.580349 0
M  V30 4425 C 437.026 -4.15496 -1.62109 0
M  V30 4426 C 437.727 -5.80756 -0.331344 0
M  V30 4427 N 436.703 -5.36038 -0.903556 0
M  V30 4428 H 440.505 -2.93871 -0.0411216 0
M  V30 4429 H 438.019 -1.62213 0.0779348 0
M  V30 4430 H 440.016 -3.35883 -2.46957 0
M  V30 4431 H 438.676 -2.18414 -2.40261 0
M  V30 4432 H 439.687 -5.17399 -0.227762 0
M  V30 4433 H 436.364 -3.53509 -2.22121 0
M  V30 4434 H 437.754 -6.71335 0.275454 0
M  V30 4435 N 440.474 -0.00167713 -1.576 0
M  V30 4436 C 441.72 0.683832 -1.90923 0
M  V30 4437 C 442.053 1.7333 -0.875799 0
M  V30 4438 O 441.328 1.94215 0.10525 0
M  V30 4439 C 441.611 1.32543 -3.3482 0
M  V30 4440 C 441.464 0.287387 -4.48881 0
M  V30 4441 C 442.783 2.25114 -3.78169 0
M  V30 4442 H 439.902 0.247125 -0.694333 0
M  V30 4443 H 442.544 -0.0533149 -1.89925 0
M  V30 4444 H 440.694 1.95372 -3.35801 0
M  V30 4445 H 442.366 -0.341346 -4.60035 0
M  V30 4446 H 440.609 -0.39017 -4.32042 0
M  V30 4447 H 441.28 0.775393 -5.46527 0
M  V30 4448 H 443.756 1.723 -3.7875 0
M  V30 4449 H 442.632 2.66971 -4.79602 0
M  V30 4450 H 442.893 3.13092 -3.12131 0
M  V30 4451 N 441.952 1.55251 0.271103 0
M  V30 4452 C 442.882 1.9127 1.33933 0
M  V30 4453 C 443.863 0.77478 1.5143 0
M  V30 4454 O 445.048 1.03307 1.64442 0
M  V30 4455 C 442.178 2.18627 2.69851 0
M  V30 4456 C 441.132 3.34442 2.67081 0
M  V30 4457 C 440.458 3.47284 4.06569 0
M  V30 4458 C 441.758 4.70784 2.26185 0
M  V30 4459 H 443.452 2.80744 1.04035 0
M  V30 4460 H 440.998 1.35077 0.499017 0
M  V30 4461 H 442.951 2.42413 3.44694 0
M  V30 4462 H 441.675 1.25955 3.01335 0
M  V30 4463 H 440.334 3.10627 1.94695 0
M  V30 4464 H 439.982 2.52074 4.35279 0
M  V30 4465 H 439.682 4.25152 4.0561 0
M  V30 4466 H 441.206 3.73363 4.83148 0
M  V30 4467 H 442.62 4.94102 2.90751 0
M  V30 4468 H 441.017 5.51582 2.36384 0
M  V30 4469 H 442.087 4.69478 1.21319 0
M  V30 4470 N 443.43 -0.535701 1.48216 0
M  V30 4471 C 444.36 -1.65014 1.65204 0
M  V30 4472 C 445.341 -1.62554 0.501011 0
M  V30 4473 O 446.526 -1.7984 0.732886 0
M  V30 4474 C 443.656 -3.03616 1.68626 0
M  V30 4475 C 442.61 -3.20932 2.83172 0
M  V30 4476 C 441.936 -4.60537 2.71679 0
M  V30 4477 C 443.236 -3.04249 4.24535 0
M  V30 4478 H 444.93 -1.51053 2.58502 0
M  V30 4479 H 442.476 -0.725262 1.24402 0
M  V30 4480 H 444.429 -3.81446 1.79099 0
M  V30 4481 H 443.153 -3.18587 0.719026 0
M  V30 4482 H 441.812 -2.45517 2.72244 0
M  V30 4483 H 441.46 -4.72336 1.72937 0
M  V30 4484 H 441.16 -4.73069 3.48538 0
M  V30 4485 H 442.684 -5.40475 2.84112 0
M  V30 4486 H 444.098 -3.71877 4.36326 0
M  V30 4487 H 442.495 -3.28278 5.02348 0
M  V30 4488 H 443.565 -2.00739 4.41397 0
M  V30 4489 N 444.908 -1.36708 -0.784132 0
M  V30 4490 C 445.871 -1.31307 -1.87859 0
M  V30 4491 C 446.871 -0.219654 -1.59293 0
M  V30 4492 O 448.061 -0.47476 -1.67606 0
M  V30 4493 C 445.193 -1.03679 -3.24751 0
M  V30 4494 H 446.386 -2.28647 -1.94064 0
M  V30 4495 H 443.939 -1.21558 -0.98252 0
M  V30 4496 H 444.674 -0.0681936 -3.24228 0
M  V30 4497 H 444.459 -1.82811 -3.46876 0
M  V30 4498 H 445.949 -1.02518 -4.04821 0
M  V30 4499 N 446.386 1.0089 -1.21074 0
M  V30 4500 C 447.349 2.0775 -0.968129 0
M  V30 4501 C 448.349 1.6069 0.0593445 0
M  V30 4502 O 449.539 1.73293 -0.177525 0
M  V30 4503 C 446.671 3.37794 -0.459108 0
M  V30 4504 H 447.864 2.30707 -1.9161 0
M  V30 4505 H 445.417 1.17807 -1.02719 0
M  V30 4506 H 446.152 3.20516 0.49397 0
M  V30 4507 H 445.937 3.7328 -1.20019 0
M  V30 4508 H 447.427 4.16454 -0.309099 0
M  V30 4509 N 447.864 1.01787 1.20321 0
M  V30 4510 C 449.275 0.739307 1.71438 0
M  V30 4511 C 449.626 -0.742041 1.81627 0
M  V30 4512 O 448.751 -1.57903 1.47971 0
M  V30 4513 C 449.346 1.33538 3.11373 0
M  V30 4514 C 447.905 1.10566 3.59795 0
M  V30 4515 C 447.052 1.44028 2.36962 0
M  V30 4516 H 450.003 1.18718 1.05317 0
M  V30 4517 H 450.024 0.726611 3.73498 0
M  V30 4518 H 449.536 2.41352 3.03926 0
M  V30 4519 H 447.637 0.0452405 3.72573 0
M  V30 4520 H 447.75 1.78661 4.44542 0
M  V30 4521 H 446.114 0.85933 2.39766 0
M  V30 4522 H 446.897 2.52901 2.32155 0
M  V30 4523 N 449.342 -1.36122 0.79427 0
M  V30 4524 C 450.753 -1.81646 0.431446 0
M  V30 4525 C 451.104 -1.66043 -1.04518 0
M  V30 4526 O 450.229 -1.1841 -1.8113 0
M  V30 4527 C 450.824 -3.29785 0.776341 0
M  V30 4528 C 449.383 -3.73501 0.466282 0
M  V30 4529 C 448.53 -2.58313 1.00844 0
M  V30 4530 H 451.481 -1.24274 0.986995 0
M  V30 4531 H 451.502 -3.80437 0.0692413 0
M  V30 4532 H 451.014 -3.4111 1.8511 0
M  V30 4533 H 449.115 -3.67733 -0.600245 0
M  V30 4534 H 449.228 -4.68754 0.990288 0
M  V30 4535 H 447.592 -2.5102 0.431406 0
M  V30 4536 H 448.375 -2.72421 2.08906 0
M  V30 4537 N 450.82 -0.546701 -1.47814 0
M  V30 4538 C 452.068 -0.0187037 -2.02091 0
M  V30 4539 C 452.389 1.33168 -1.42447 0
M  V30 4540 O 451.659 1.86619 -0.595839 0
M  V30 4541 H 450.239 -0.00392531 -0.74699 0
M  V30 4542 H 452.901 -0.714327 -1.81338 0
M  V30 4543 H 451.997 0.0772219 -3.12004 0
M  V30 4544 N 452.299 1.55045 -0.282633 0
M  V30 4545 C 453.249 2.19514 0.616249 0
M  V30 4546 C 454.233 1.16216 1.11277 0
M  V30 4547 O 455.425 1.42004 1.05659 0
M  V30 4548 C 452.554 2.92548 1.7964 0
M  V30 4549 C 451.64 4.03142 1.31671 0
M  V30 4550 N 452.031 5.0276 0.553695 0
M  V30 4551 C 450.329 4.1635 1.59903 0
M  V30 4552 C 451.03 5.80923 0.30054 0
M  V30 4553 N 450.006 5.3651 0.875116 0
M  V30 4554 H 453.808 2.93889 0.0255363 0
M  V30 4555 H 451.322 1.62169 -0.0865362 0
M  V30 4556 H 453.319 3.37188 2.45173 0
M  V30 4557 H 451.979 2.19685 2.39099 0
M  V30 4558 H 452.99 5.17512 0.20032 0
M  V30 4559 H 449.667 3.54682 2.20243 0
M  V30 4560 H 451.057 6.7118 -0.311053 0
M  V30 4561 N 453.777 0.010035 1.57597 0
M  V30 4562 C 454.709 -1.00649 2.05918 0
M  V30 4563 C 455.722 -1.30077 0.978964 0
M  V30 4564 O 456.911 -1.26878 1.25556 0
M  V30 4565 C 454.011 -2.33876 2.45265 0
M  V30 4566 C 453.184 -2.23242 3.7614 0
M  V30 4567 C 452.243 -3.39242 4.02245 0
M  V30 4568 O 451.269 -3.1698 4.72771 0
M  V30 4569 N 452.471 -4.6242 3.50924 0
M  V30 4570 H 455.236 -0.594333 2.93748 0
M  V30 4571 H 452.797 -0.17714 1.60928 0
M  V30 4572 H 454.789 -3.1027 2.59836 0
M  V30 4573 H 453.359 -2.66799 1.62902 0
M  V30 4574 H 452.579 -1.31696 3.71551 0
M  V30 4575 H 453.867 -2.13321 4.61922 0
M  V30 4576 H 453.265 -4.83404 2.93832 0
M  V30 4577 H 451.822 -5.36046 3.70807 0
M  V30 4578 N 455.255 -1.55392 -0.262866 0
M  V30 4579 C 456.185 -1.91978 -1.32917 0
M  V30 4580 C 457.166 -0.7828 -1.51017 0
M  V30 4581 O 458.351 -1.04178 -1.63892 0
M  V30 4582 C 455.481 -2.20055 -2.68687 0
M  V30 4583 C 454.435 -3.35854 -2.65304 0
M  V30 4584 C 453.761 -3.49435 -4.04721 0
M  V30 4585 C 455.061 -4.71977 -2.23685 0
M  V30 4586 H 456.755 -2.81292 -1.02544 0
M  V30 4587 H 454.301 -1.3534 -0.491846 0
M  V30 4588 H 456.254 -2.44237 -3.43404 0
M  V30 4589 H 454.978 -1.27551 -3.00663 0
M  V30 4590 H 453.637 -3.11655 -1.93045 0
M  V30 4591 H 453.285 -2.54379 -4.33936 0
M  V30 4592 H 452.985 -4.27297 -4.0335 0
M  V30 4593 H 454.509 -3.7592 -4.81161 0
M  V30 4594 H 455.923 -4.95637 -2.88127 0
M  V30 4595 H 454.32 -5.52828 -2.33456 0
M  V30 4596 H 455.39 -4.70115 -1.18827 0
M  V30 4597 N 456.733 0.527833 -1.48498 0
M  V30 4598 C 457.683 1.62844 -1.5958 0
M  V30 4599 C 458.667 1.54397 -0.452809 0
M  V30 4600 O 459.859 1.62381 -0.704364 0
M  V30 4601 C 456.988 3.01557 -1.64067 0
M  V30 4602 C 456.074 3.151 -2.83853 0
M  V30 4603 N 456.465 2.9861 -4.08247 0
M  V30 4604 C 454.763 3.46158 -2.8123 0
M  V30 4605 C 455.464 3.15626 -4.88626 0
M  V30 4606 N 454.44 3.43298 -4.21483 0
M  V30 4607 H 458.242 1.48708 -2.53502 0
M  V30 4608 H 455.756 0.733343 -1.44899 0
M  V30 4609 H 457.753 3.8062 -1.70101 0
M  V30 4610 H 456.413 3.16783 -0.712636 0
M  V30 4611 H 457.424 2.75329 -4.3865 0
M  V30 4612 H 454.101 3.67728 -1.97692 0
M  V30 4613 H 455.491 3.07596 -5.97356 0
M  V30 4614 N 458.211 1.37122 0.776871 0
M  V30 4615 C 459.627 1.1781 1.07671 0
M  V30 4616 C 459.827 0.0107454 2.01497 0
M  V30 4617 O 458.883 -0.650756 2.4397 0
M  V30 4618 C 460.196 2.49451 1.67913 0
M  V30 4619 C 461.744 2.55927 1.80195 0
M  V30 4620 C 462.219 3.87686 2.43851 0
M  V30 4621 N 463.71 3.891 2.51307 0
M  V30 4622 C 464.445 4.87797 3.014 0
M  V30 4623 N 463.941 5.96888 3.51705 0
M  V30 4624 N 465.734 4.75205 3.00227 0
M  V30 4625 H 457.885 2.11843 0.153778 0
M  V30 4626 H 460.148 0.938927 0.130844 0
M  V30 4627 H 459.854 3.35207 1.06439 0
M  V30 4628 H 459.728 2.66169 2.67271 0
M  V30 4629 H 462.115 1.70582 2.40803 0
M  V30 4630 H 462.196 2.43097 0.796069 0
M  V30 4631 H 461.84 4.73444 1.83884 0
M  V30 4632 H 461.77 3.97817 3.45035 0
M  V30 4633 H 464.261 3.10293 2.157 0
M  V30 4634 H 464.574 6.68155 3.88316 0
M  V30 4635 H 462.919 6.0054 3.49824 0
M  V30 4636 H 466.11 3.89103 2.60224 0
M  V30 4637 H 466.283 5.52279 3.38957 0
M  V30 4638 N 459.689 -1.00246 1.21608 0
M  V30 4639 C 460.652 -2.07233 0.979133 0
M  V30 4640 C 461.652 -1.6072 -0.0508219 0
M  V30 4641 O 462.842 -1.73196 0.186712 0
M  V30 4642 C 459.974 -3.37546 0.477016 0
M  V30 4643 H 461.167 -2.29687 1.92831 0
M  V30 4644 H 458.72 -1.17261 1.03342 0
M  V30 4645 H 459.455 -3.20773 -0.476966 0
M  V30 4646 H 459.24 -3.72638 1.21997 0
M  V30 4647 H 460.73 -4.16285 0.331181 0
M  V30 4648 N 461.167 -1.02423 -1.1978 0
M  V30 4649 C 462.117 -0.571689 -2.20716 0
M  V30 4650 C 463.101 0.377077 -1.56419 0
M  V30 4651 O 464.293 0.198801 -1.7588 0
M  V30 4652 C 461.422 0.0808555 -3.43205 0
M  V30 4653 C 460.508 -0.890073 -4.14655 0
M  V30 4654 N 460.899 -2.05065 -4.62366 0
M  V30 4655 C 459.197 -0.71252 -4.40272 0
M  V30 4656 C 459.898 -2.66264 -5.17183 0
M  V30 4657 N 458.874 -1.94264 -5.07703 0
M  V30 4658 H 462.676 -1.45636 -2.55279 0
M  V30 4659 H 460.19 -0.890596 -1.35802 0
M  V30 4660 H 462.187 0.422654 -4.14752 0
M  V30 4661 H 460.847 0.961274 -3.10144 0
M  V30 4662 H 461.858 -2.43026 -4.57339 0
M  V30 4663 H 458.535 0.119199 -4.1733 0
M  V30 4664 H 459.925 -3.64526 -5.64421 0
M  V30 4665 N 462.645 1.35699 -0.801477 0
M  V30 4666 C 463.875 2.02862 -0.3912 0
M  V30 4667 C 464.283 1.60552 1.00099 0
M  V30 4668 O 463.626 0.796215 1.65548 0
M  V30 4669 C 463.688 3.57386 -0.389299 0
M  V30 4670 C 463.352 4.22943 -1.73113 0
M  V30 4671 C 464.349 4.44984 -2.68859 0
M  V30 4672 C 462.034 4.60167 -2.01373 0
M  V30 4673 C 464.028 5.03345 -3.91053 0
M  V30 4674 C 461.715 5.18243 -3.23832 0
M  V30 4675 C 462.713 5.39773 -4.1849 0
M  V30 4676 O 462.401 5.96626 -5.38788 0
M  V30 4677 H 462.133 0.657341 -0.157732 0
M  V30 4678 H 464.687 1.74407 -1.08496 0
M  V30 4679 H 462.917 3.85011 0.361031 0
M  V30 4680 H 464.606 4.059 -0.0020365 0
M  V30 4681 H 465.372 4.1661 -2.48316 0
M  V30 4682 H 461.251 4.42726 -1.28508 0
M  V30 4683 H 464.795 5.20065 -4.64949 0
M  V30 4684 H 460.692 5.46044 -3.44248 0
M  V30 4685 H 461.46 6.15082 -5.40015 0
M  V30 4686 N 464.123 0.554532 1.47522 0
M  V30 4687 C 465.4 -0.0360704 1.95567 0
M  V30 4688 C 465.78 -1.48828 1.49711 0
M  V30 4689 O 465.128 -2.16366 0.734717 0
M  V30 4690 C 465.338 0.106631 3.48837 0
M  V30 4691 C 466.686 -0.0400899 4.24581 0
M  V30 4692 O 467.71 0.0340453 3.56184 0
M  V30 4693 O 466.569 -0.199111 5.46137 0
M  V30 4694 H 463.663 -0.0656294 0.824392 0
M  V30 4695 H 466.209 0.620867 1.57935 0
M  V30 4696 H 464.981 1.11727 3.7501 0
M  V30 4697 H 464.604 -0.58804 3.93227 0
M  V30 4698 N 465.601 -1.54893 0.290851 0
M  V30 4699 C 466.531 -2.26103 -0.583084 0
M  V30 4700 C 467.512 -1.25684 -1.14619 0
M  V30 4701 O 468.697 -1.54436 -1.17741 0
M  V30 4702 C 465.827 -2.99409 -1.75987 0
M  V30 4703 C 464.781 -4.0689 -1.32758 0
M  V30 4704 C 464.107 -4.67856 -2.58872 0
M  V30 4705 C 465.407 -5.20215 -0.46624 0
M  V30 4706 H 467.101 -2.99398 0.0108214 0
M  V30 4707 H 464.647 -1.43998 0.00664468 0
M  V30 4708 H 466.6 -3.47943 -2.37727 0
M  V30 4709 H 465.324 -2.23675 -2.37985 0
M  V30 4710 H 463.983 -3.59191 -0.733299 0
M  V30 4711 H 463.631 -3.88772 -3.19163 0
M  V30 4712 H 463.331 -5.40438 -2.30653 0
M  V30 4713 H 464.855 -5.19147 -3.21433 0
M  V30 4714 H 466.269 -5.64704 -0.989047 0
M  V30 4715 H 464.666 -5.99455 -0.27826 0
M  V30 4716 H 465.736 -4.82198 0.511173 0
M  V30 4717 N 467.08 -0.0183926 -1.57589 0
M  V30 4718 C 468.496 0.337897 -1.55982 0
M  V30 4719 C 468.696 1.73604 -1.02294 0
M  V30 4720 O 467.752 2.43589 -0.664895 0
M  V30 4721 C 469.065 0.196305 -3.00059 0
M  V30 4722 C 470.613 0.269875 -3.11834 0
M  V30 4723 C 471.088 0.157197 -4.5773 0
M  V30 4724 N 472.579 0.214521 -4.62703 0
M  V30 4725 C 473.314 0.150955 -5.73201 0
M  V30 4726 N 472.81 0.0369212 -6.9279 0
M  V30 4727 N 474.603 0.204162 -5.61729 0
M  V30 4728 H 466.754 -0.93279 -1.90821 0
M  V30 4729 H 469.017 -0.359253 -0.877292 0
M  V30 4730 H 468.723 -0.766383 -3.43248 0
M  V30 4731 H 468.597 0.970908 -3.6449 0
M  V30 4732 H 470.984 1.22302 -2.68563 0
M  V30 4733 H 471.065 -0.534918 -2.50144 0
M  V30 4734 H 470.709 -0.792479 -5.01679 0
M  V30 4735 H 470.639 0.980717 -5.17387 0
M  V30 4736 H 473.13 0.303238 -3.76681 0
M  V30 4737 H 473.443 -0.00518321 -7.728 0
M  V30 4738 H 471.788 0.0022886 -6.95 0
M  V30 4739 H 474.979 0.291575 -4.67191 0
M  V30 4740 H 475.152 0.15116 -6.47824 0
M  V30 4741 N 468.558 1.5553 0.254621 0
M  V30 4742 C 469.508 1.86057 1.31783 0
M  V30 4743 C 470.492 0.720827 1.4385 0
M  V30 4744 O 471.684 0.982586 1.47222 0
M  V30 4745 C 468.813 2.15203 2.67475 0
M  V30 4746 C 467.899 3.35484 2.59444 0
M  V30 4747 N 468.29 4.54945 2.2104 0
M  V30 4748 C 466.588 3.38441 2.90472 0
M  V30 4749 C 467.289 5.3707 2.23453 0
M  V30 4750 N 466.265 4.75936 2.62652 0
M  V30 4751 H 470.067 2.75953 1.01129 0
M  V30 4752 H 467.581 1.55653 0.463255 0
M  V30 4753 H 469.578 2.35235 3.44195 0
M  V30 4754 H 468.238 1.26601 2.99002 0
M  V30 4755 H 469.249 4.8071 1.92712 0
M  V30 4756 H 465.926 2.60087 3.2659 0
M  V30 4757 H 467.316 6.42626 1.96166 0
M  V30 4758 N 470.036 -0.519951 1.48776 0
M  V30 4759 C 471.264 -1.29971 1.60982 0
M  V30 4760 C 471.679 -1.86803 0.273885 0
M  V30 4761 O 471.036 -1.66904 -0.738193 0
M  V30 4762 C 471.087 -2.44346 2.66415 0
M  V30 4763 O 470.808 -1.89855 3.94825 0
M  V30 4764 C 472.309 -3.36014 2.89153 0
M  V30 4765 H 469.529 -0.394891 0.542496 0
M  V30 4766 H 472.073 -0.626214 1.94676 0
M  V30 4767 H 470.228 -3.07562 2.35552 0
M  V30 4768 H 470.642 -2.64798 4.5275 0
M  V30 4769 H 472.116 -4.12593 3.66703 0
M  V30 4770 H 472.593 -3.91859 1.98351 0
M  V30 4771 H 473.199 -2.78582 3.21359 0
M  V30 4772 N 471.514 -1.37532 -0.769588 0
M  V30 4773 C 472.761 -1.3286 -1.52822 0
M  V30 4774 C 473.089 0.0862597 -1.94309 0
M  V30 4775 O 472.344 1.05995 -1.6451 0
M  V30 4776 C 472.643 -2.21558 -2.8044 0
M  V30 4777 C 472.309 -3.69796 -2.57996 0
M  V30 4778 C 470.971 -4.10194 -2.51583 0
M  V30 4779 C 473.323 -4.63699 -2.37976 0
M  V30 4780 C 470.651 -5.42608 -2.23144 0
M  V30 4781 C 473.003 -5.96353 -2.1106 0
M  V30 4782 C 471.667 -6.35853 -2.03093 0
M  V30 4783 H 470.937 -0.486168 -0.559215 0
M  V30 4784 H 473.584 -1.69757 -0.886277 0
M  V30 4785 H 471.889 -1.77663 -3.49204 0
M  V30 4786 H 473.586 -2.15256 -3.38328 0
M  V30 4787 H 470.176 -3.37759 -2.63851 0
M  V30 4788 H 474.36 -4.33346 -2.41919 0
M  V30 4789 H 469.616 -5.72173 -2.15472 0
M  V30 4790 H 473.79 -6.68667 -1.94568 0
M  V30 4791 H 471.417 -7.38382 -1.8082 0
M  V30 4792 N 472.992 0.995999 -1.22138 0
M  V30 4793 C 473.925 2.08302 -0.931952 0
M  V30 4794 C 474.903 1.62127 0.123956 0
M  V30 4795 O 476.087 1.88499 -0.00696004 0
M  V30 4796 C 473.214 3.36317 -0.401068 0
M  V30 4797 C 472.26 4.01413 -1.44117 0
M  V30 4798 S 473.093 4.42664 -3.01345 0
M  V30 4799 C 474.249 5.73853 -2.49887 0
M  V30 4800 H 474.482 2.32532 -1.85246 0
M  V30 4801 H 472.015 1.13005 -1.0521 0
M  V30 4802 H 473.973 4.10375 -0.101352 0
M  V30 4803 H 472.634 3.10123 0.498272 0
M  V30 4804 H 471.827 4.9358 -1.01952 0
M  V30 4805 H 471.429 3.33668 -1.68943 0
M  V30 4806 H 473.721 6.50039 -1.90934 0
M  V30 4807 H 474.664 6.20841 -3.40532 0
M  V30 4808 H 475.072 5.31105 -1.9128 0
M  V30 4809 N 474.47 1.03057 1.19235 0
M  V30 4810 C 475.718 0.726581 1.88587 0
M  V30 4811 C 476.039 -0.747227 1.80115 0
M  V30 4812 O 475.309 -1.53849 1.21274 0
M  V30 4813 H 473.889 0.265768 0.698124 0
M  V30 4814 H 476.551 1.30516 1.44746 0
M  V30 4815 H 475.647 1.0224 2.94879 0
M  V30 4816 N 475.948 -1.35272 0.808662 0
M  V30 4817 C 477.194 -1.99003 0.390581 0
M  V30 4818 C 477.527 -1.63999 -1.0401 0
M  V30 4819 O 476.802 -0.904368 -1.72196 0
M  V30 4820 C 477.085 -3.55454 0.576566 0
M  V30 4821 C 476.938 -4.00249 2.05233 0
M  V30 4822 C 478.257 -4.401 0.00354277 0
M  V30 4823 H 475.376 -0.722917 0.143388 0
M  V30 4824 H 478.018 -1.6039 1.01858 0
M  V30 4825 H 476.168 -3.88477 0.0419766 0
M  V30 4826 H 477.84 -3.77626 2.64946 0
M  V30 4827 H 476.083 -3.51082 2.54801 0
M  V30 4828 H 476.754 -5.0911 2.13333 0
M  V30 4829 H 479.23 -4.13548 0.460117 0
M  V30 4830 H 478.106 -5.48656 0.163575 0
M  V30 4831 H 478.367 -4.28444 -1.09032 0
M  V30 4832 N 477.426 -0.562348 -1.47226 0
M  V30 4833 C 478.672 -0.0402761 -2.0276 0
M  V30 4834 C 479.005 1.30823 -1.43523 0
M  V30 4835 O 478.28 1.85249 -0.592705 0
M  V30 4836 C 478.563 0.047311 -3.60069 0
M  V30 4837 C 478.416 -1.32865 -4.29729 0
M  V30 4838 C 479.735 0.758182 -4.3352 0
M  V30 4839 H 476.854 -0.0161105 -0.736824 0
M  V30 4840 H 479.496 -0.725628 -1.75598 0
M  V30 4841 H 477.646 0.630986 -3.83342 0
M  V30 4842 H 479.318 -1.95593 -4.17781 0
M  V30 4843 H 477.561 -1.90195 -3.89882 0
M  V30 4844 H 478.232 -1.22004 -5.38349 0
M  V30 4845 H 480.708 0.262546 -4.15271 0
M  V30 4846 H 479.584 0.78844 -5.43208 0
M  V30 4847 H 479.845 1.81537 -4.03109 0
M  V30 4848 N 478.904 1.54736 -0.299062 0
M  V30 4849 C 480.129 2.04975 0.316254 0
M  V30 4850 C 480.554 1.17501 1.46885 0
M  V30 4851 O 479.912 0.178678 1.80417 0
M  V30 4852 C 479.96 3.52672 0.751997 0
M  V30 4853 O 479.064 3.68226 1.85697 0
M  V30 4854 H 478.405 0.661126 0.0617175 0
M  V30 4855 H 480.935 1.99805 -0.440341 0
M  V30 4856 H 480.945 3.94488 1.04133 0
M  V30 4857 H 479.62 4.158 -0.0911482 0
M  V30 4858 H 478.197 3.38316 1.56834 0
M  V30 4859 N 480.382 0.0267497 1.57577 0
M  V30 4860 C 481.312 -0.954308 2.13108 0
M  V30 4861 C 482.293 -1.34088 1.04663 0
M  V30 4862 O 483.478 -1.41992 1.32484 0
M  V30 4863 C 480.608 -2.23744 2.65624 0
M  V30 4864 C 479.562 -1.99168 3.78835 0
M  V30 4865 C 478.888 -3.33726 4.17769 0
M  V30 4866 C 480.188 -1.33277 5.0501 0
M  V30 4867 H 481.882 -0.491848 2.95332 0
M  V30 4868 H 479.428 -0.23514 1.42067 0
M  V30 4869 H 481.381 -2.92754 3.03106 0
M  V30 4870 H 480.105 -2.72151 1.80558 0
M  V30 4871 H 478.764 -1.32577 3.41788 0
M  V30 4872 H 478.412 -3.79888 3.29688 0
M  V30 4873 H 478.112 -3.18089 4.94058 0
M  V30 4874 H 479.636 -4.04008 4.57832 0
M  V30 4875 H 481.05 -1.92283 5.40093 0
M  V30 4876 H 479.447 -1.28045 5.8628 0
M  V30 4877 H 480.517 -0.305411 4.83937 0
M  V30 4878 N 481.861 -1.55662 -0.24637 0
M  V30 4879 C 483.109 -1.77168 -0.972411 0
M  V30 4880 C 483.43 -0.590827 -1.85834 0
M  V30 4881 O 482.7 0.393365 -1.9191 0
M  V30 4882 H 481.28 -0.653405 -0.362038 0
M  V30 4883 H 483.942 -1.93101 -0.264189 0
M  V30 4884 H 483.038 -2.68335 -1.59382 0
M  V30 4885 N 483.339 0.512053 -1.4905 0
M  V30 4886 C 484.564 1.2959 -1.6193 0
M  V30 4887 C 484.989 1.85906 -0.286454 0
M  V30 4888 O 484.347 1.65312 0.744426 0
M  V30 4889 C 484.395 2.40987 -2.68249 0
M  V30 4890 O 483.499 3.44531 -2.26654 0
M  V30 4891 H 482.84 0.383053 -0.542371 0
M  V30 4892 H 485.37 0.614231 -1.95162 0
M  V30 4893 H 485.38 2.86913 -2.90078 0
M  V30 4894 H 484.055 1.99361 -3.65004 0
M  V30 4895 H 482.632 3.046 -2.15112 0
M  V30 4896 N 484.817 1.37938 0.762283 0
M  V30 4897 C 486.228 1.30094 1.33912 0
M  V30 4898 C 486.579 -0.0472026 1.96143 0
M  V30 4899 O 485.704 -0.94917 1.94473 0
M  V30 4900 C 486.299 2.35592 2.43478 0
M  V30 4901 C 484.858 2.31353 2.96905 0
M  V30 4902 C 484.005 2.18919 1.70205 0
M  V30 4903 H 486.956 1.48423 0.561816 0
M  V30 4904 H 486.977 2.00806 3.23199 0
M  V30 4905 H 486.489 3.33701 1.98155 0
M  V30 4906 H 484.59 1.36799 3.46579 0
M  V30 4907 H 484.703 3.25147 3.51875 0
M  V30 4908 H 483.067 1.65624 1.93496 0
M  V30 4909 H 483.85 3.18956 1.26973 0
M  V30 4910 N 486.295 -0.989507 1.22664 0
M  V30 4911 C 487.52 -1.77031 1.08051 0
M  V30 4912 C 487.945 -1.84535 -0.364483 0
M  V30 4913 O 487.303 -1.3003 -1.2634 0
M  V30 4914 C 487.351 -3.18 1.70024 0
M  V30 4915 O 486.455 -4.01161 0.956216 0
M  V30 4916 H 485.796 -0.545008 0.379292 0
M  V30 4917 H 488.326 -1.24277 1.62531 0
M  V30 4918 H 488.336 -3.68616 1.74888 0
M  V30 4919 H 487.011 -3.11853 2.75174 0
M  V30 4920 H 485.588 -3.59687 0.98384 0
M  V30 4921 N 487.773 -1.03688 -1.18687 0
M  V30 4922 C 489.021 -0.736572 -1.88199 0
M  V30 4923 C 489.342 0.737665 -1.80509 0
M  V30 4924 O 488.612 1.53204 -1.22088 0
M  V30 4925 H 487.192 -0.269466 -0.696704 0
M  V30 4926 H 489.854 -1.31282 -1.44052 0
M  V30 4927 H 488.95 -1.03802 -2.94332 0
M  V30 4928 N 489.251 1.34841 -0.815825 0
M  V30 4929 C 490.161 2.33425 -0.234462 0
M  V30 4930 C 491.177 1.62295 0.627413 0
M  V30 4931 O 492.353 1.94109 0.536987 0
M  V30 4932 C 489.418 3.41471 0.599849 0
M  V30 4933 C 488.479 4.28362 -0.283596 0
M  V30 4934 C 487.712 5.31248 0.51099 0
M  V30 4935 O 487.935 5.43056 1.7449 0
M  V30 4936 O 486.869 6.01812 -0.10297 0
M  V30 4937 H 490.695 2.84962 -1.05024 0
M  V30 4938 H 488.28 1.37774 -0.577809 0
M  V30 4939 H 490.162 4.07464 1.07475 0
M  V30 4940 H 488.837 2.9219 1.39308 0
M  V30 4941 H 487.744 3.65318 -0.805836 0
M  V30 4942 H 489.077 4.81066 -1.041 0
M  V30 4943 N 490.729 0.570148 1.46925 0
M  V30 4944 C 491.975 0.0510284 2.02736 0
M  V30 4945 C 492.308 -1.3006 1.44215 0
M  V30 4946 O 491.583 -1.84932 0.602521 0
M  V30 4947 C 491.866 -0.028215 3.60089 0
M  V30 4948 C 491.719 1.35142 4.29018 0
M  V30 4949 C 493.038 -0.735181 4.33916 0
M  V30 4950 H 490.157 0.0200178 0.736728 0
M  V30 4951 H 492.799 0.73493 1.75211 0
M  V30 4952 H 490.949 -0.610648 3.83671 0
M  V30 4953 H 492.621 1.97806 4.16738 0
M  V30 4954 H 490.864 1.9226 3.88868 0
M  V30 4955 H 491.535 1.24857 5.37694 0
M  V30 4956 H 494.011 -0.240519 4.15404 0
M  V30 4957 H 492.887 -0.759622 5.43618 0
M  V30 4958 H 493.148 -1.79397 4.04066 0
M  V30 4959 N 492.207 -1.54576 0.307264 0
M  V30 4960 C 493.432 -2.05139 -0.305379 0
M  V30 4961 C 493.857 -1.18278 -1.46259 0
M  V30 4962 O 493.215 -0.188243 -1.8032 0
M  V30 4963 C 493.263 -3.53066 -0.733283 0
M  V30 4964 O 492.367 -3.69206 -1.83741 0
M  V30 4965 H 491.708 -0.661444 -0.0582105 0
M  V30 4966 H 494.238 -1.99569 0.450931 0
M  V30 4967 H 494.248 -3.95034 -1.02039 0
M  V30 4968 H 492.923 -4.15746 0.113198 0
M  V30 4969 H 491.5 -3.39143 -1.55037 0
M  V30 4970 N 493.685 -0.035106 -1.57561 0
M  V30 4971 C 494.635 0.954034 -2.0708 0
M  V30 4972 C 495.619 1.2818 -0.972558 0
M  V30 4973 O 496.811 1.26691 -1.23606 0
M  V30 4974 C 493.94 2.23442 -2.60631 0
M  V30 4975 C 493.026 1.93475 -3.77396 0
M  V30 4976 N 493.417 1.33802 -4.87781 0
M  V30 4977 C 491.715 2.23434 -3.85996 0
M  V30 4978 C 492.416 1.21103 -5.68954 0
M  V30 4979 N 491.392 1.70855 -5.16052 0
M  V30 4980 H 495.194 0.487731 -2.89825 0
M  V30 4981 H 492.708 0.169759 -1.6151 0
M  V30 4982 H 494.705 2.95183 -2.94402 0
M  V30 4983 H 493.365 2.70693 -1.79319 0
M  V30 4984 H 494.376 1.01227 -5.07911 0
M  V30 4985 H 491.053 2.73317 -3.15601 0
M  V30 4986 H 492.443 0.749105 -6.67711 0
M  V30 4987 N 495.163 1.55791 0.238111 0
M  V30 4988 C 496.574 1.68383 0.806472 0
M  V30 4989 C 496.925 0.634157 1.85669 0
M  V30 4990 O 496.05 -0.217913 2.153 0
M  V30 4991 C 496.645 3.05268 1.46959 0
M  V30 4992 C 495.204 3.1977 1.98555 0
M  V30 4993 C 494.351 2.64279 0.839763 0
M  V30 4994 H 497.302 1.58694 0.0137535 0
M  V30 4995 H 497.323 3.00203 2.33792 0
M  V30 4996 H 496.835 3.81643 0.704993 0
M  V30 4997 H 494.936 2.48234 2.77868 0
M  V30 4998 H 495.049 4.26788 2.17689 0
M  V30 4999 H 493.413 2.22329 1.24265 0
M  V30 5000 H 494.196 3.43187 0.0881032 0
M  V30 5001 N 496.642 -0.504142 1.49319 0
M  V30 5002 C 498.058 -0.835039 1.36012 0
M  V30 5003 C 498.258 -1.97674 0.390808 0
M  V30 5004 O 497.314 -2.51867 -0.178655 0
M  V30 5005 C 498.627 -1.17821 2.76656 0
M  V30 5006 C 500.175 -1.2866 2.85334 0
M  V30 5007 C 500.65 -1.66307 4.26739 0
M  V30 5008 N 502.141 -1.73362 4.29534 0
M  V30 5009 C 502.876 -2.0393 5.35911 0
M  V30 5010 N 502.372 -2.32744 6.52535 0
M  V30 5011 N 504.165 -2.05155 5.23324 0
M  V30 5012 H 496.316 0.248764 2.10938 0
M  V30 5013 H 498.579 0.0486962 0.946748 0
M  V30 5014 H 498.285 -0.412682 3.4927 0
M  V30 5015 H 498.159 -2.12239 3.11825 0
M  V30 5016 H 500.546 -2.04285 2.1296 0
M  V30 5017 H 500.627 -0.323004 2.53752 0
M  V30 5018 H 500.271 -0.91234 4.99639 0
M  V30 5019 H 500.201 -2.63761 4.55782 0
M  V30 5020 H 502.692 -1.53268 3.45424 0
M  V30 5021 H 503.005 -2.55248 7.2943 0
M  V30 5022 H 501.35 -2.30207 6.55767 0
M  V30 5023 H 504.541 -1.82119 4.3122 0
M  V30 5024 H 504.714 -2.28644 6.06322 0
M  V30 5025 N 498.12 -1.38341 -0.754957 0
M  V30 5026 C 499.067 -1.3546 -1.86867 0
M  V30 5027 C 500.037 -0.217369 -1.64672 0
M  V30 5028 O 501.222 -0.409383 -1.86356 0
M  V30 5029 C 498.362 -1.18413 -3.24149 0
M  V30 5030 C 497.475 -2.41511 -3.58185 0
M  V30 5031 C 496.61 -2.17205 -4.84763 0
M  V30 5032 C 495.649 -3.36081 -5.11582 0
M  V30 5033 N 494.786 -3.11219 -6.29354 0
M  V30 5034 H 499.626 -2.30672 -1.88664 0
M  V30 5035 H 497.163 -1.14607 -0.922154 0
M  V30 5036 H 499.121 -1.06545 -4.03366 0
M  V30 5037 H 497.751 -0.268397 -3.21682 0
M  V30 5038 H 496.803 -2.64056 -2.73822 0
M  V30 5039 H 498.115 -3.30115 -3.73932 0
M  V30 5040 H 497.269 -2.02465 -5.7192 0
M  V30 5041 H 496.008 -1.25964 -4.71152 0
M  V30 5042 H 495.013 -3.51341 -4.22894 0
M  V30 5043 H 496.238 -4.28196 -5.27091 0
M  V30 5044 H 494.184 -2.22624 -6.17069 0
M  V30 5045 H 494.101 -3.93373 -6.45596 0
M  V30 5046 H 495.369 -3.00132 -7.19403 0
M  V30 5047 N 499.598 0.982988 -1.23187 0
M  V30 5048 C 500.826 1.75921 -1.08901 0
M  V30 5049 C 501.241 1.85341 0.359719 0
M  V30 5050 O 500.598 1.33072 1.24892 0
M  V30 5051 C 500.649 3.18742 -1.70545 0
M  V30 5052 O 500.37 3.09814 -3.09753 0
M  V30 5053 C 501.871 4.1277 -1.61667 0
M  V30 5054 H 499.091 0.552166 -0.381252 0
M  V30 5055 H 501.635 1.23516 -1.62985 0
M  V30 5056 H 499.79 3.68182 -1.20501 0
M  V30 5057 H 500.204 3.99703 -3.39614 0
M  V30 5058 H 501.678 5.10697 -2.09506 0
M  V30 5059 H 502.155 4.3542 -0.575009 0
M  V30 5060 H 502.761 3.69232 -2.11064 0
M  V30 5061 N 501.076 1.04316 1.18135 0
M  V30 5062 C 502.492 0.762858 1.40188 0
M  V30 5063 C 502.692 -0.646547 1.90846 0
M  V30 5064 O 501.748 -1.41036 2.0944 0
M  V30 5065 C 503.061 1.81106 2.40044 0
M  V30 5066 C 504.609 1.83226 2.53766 0
M  V30 5067 C 505.084 2.87044 3.56889 0
M  V30 5068 N 506.575 2.85951 3.64398 0
M  V30 5069 C 507.31 3.62932 4.43923 0
M  V30 5070 N 506.806 4.49672 5.27036 0
M  V30 5071 N 508.599 3.51411 4.38711 0
M  V30 5072 H 500.75 1.95264 0.835805 0
M  V30 5073 H 503.013 0.845017 0.429709 0
M  V30 5074 H 502.719 2.82214 2.09876 0
M  V30 5075 H 502.593 1.64529 3.39426 0
M  V30 5076 H 504.98 0.827869 2.8325 0
M  V30 5077 H 505.061 2.03879 1.54489 0
M  V30 5078 H 504.705 3.87663 3.28145 0
M  V30 5079 H 504.635 2.63645 4.5585 0
M  V30 5080 H 507.126 2.23051 3.05052 0
M  V30 5081 H 507.439 5.05116 5.84874 0
M  V30 5082 H 505.784 4.53738 5.26447 0
M  V30 5083 H 508.975 2.83047 3.72829 0
M  V30 5084 H 509.148 4.11654 5.00445 0
M  V30 5085 N 502.554 -1.34406 0.822964 0
M  V30 5086 C 503.782 -2.02508 0.424039 0
M  V30 5087 C 504.197 -1.61975 -0.970022 0
M  V30 5088 O 503.554 -0.825228 -1.62777 0
M  V30 5089 C 503.605 -3.57789 0.516657 0
M  V30 5090 O 503.326 -3.96853 1.85577 0
M  V30 5091 C 504.827 -4.43157 0.112637 0
M  V30 5092 H 502.047 -0.649063 0.170173 0
M  V30 5093 H 504.591 -1.7168 1.11113 0
M  V30 5094 H 502.746 -3.87207 -0.122353 0
M  V30 5095 H 503.16 -4.91538 1.83005 0
M  V30 5096 H 504.634 -5.51527 0.228526 0
M  V30 5097 H 505.111 -4.28939 -0.943837 0
M  V30 5098 H 505.717 -4.19067 0.725449 0
M  V30 5099 N 504.032 -0.577932 -1.46621 0
M  V30 5100 C 505.278 -0.0617793 -2.02706 0
M  V30 5101 C 505.611 1.29294 -1.44903 0
M  V30 5102 O 504.886 1.8461 -0.61232 0
M  V30 5103 C 505.169 0.00911824 -3.60099 0
M  V30 5104 C 505.022 -1.37416 -4.28295 0
M  V30 5105 C 506.341 0.712159 -4.343 0
M  V30 5106 H 503.46 -0.0239246 -0.736612 0
M  V30 5107 H 506.102 -0.744211 -1.74818 0
M  V30 5108 H 504.252 0.590292 -3.83989 0
M  V30 5109 H 505.924 -2.00013 -4.15683 0
M  V30 5110 H 504.167 -1.94319 -3.87843 0
M  V30 5111 H 504.838 -1.27707 -5.37024 0
M  V30 5112 H 507.314 0.218486 -4.15526 0
M  V30 5113 H 506.19 0.730782 -5.44014 0
M  V30 5114 H 506.451 1.77251 -4.05012 0
M  V30 5115 N 505.51 1.54411 -0.315457 0
M  V30 5116 C 506.756 2.00716 0.289972 0
M  V30 5117 C 507.089 1.2034 1.5242 0
M  V30 5118 O 506.364 0.283579 1.92422 0
M  V30 5119 C 506.647 3.54507 0.632196 0
M  V30 5120 C 506.5 4.45615 -0.61218 0
M  V30 5121 C 507.819 4.15421 1.45305 0
M  V30 5122 H 504.938 0.729637 0.10392 0
M  V30 5123 H 507.58 1.8506 -0.430427 0
M  V30 5124 H 505.73 3.67979 1.24595 0
M  V30 5125 H 507.402 4.44026 -1.25053 0
M  V30 5126 H 505.645 4.15621 -1.24264 0
M  V30 5127 H 506.316 5.51022 -0.328379 0
M  V30 5128 H 508.792 4.05474 0.934331 0
M  V30 5129 H 507.668 5.23157 1.66127 0
M  V30 5130 H 507.929 3.68223 2.44671 0
M  V30 5131 N 506.988 0.0434614 1.5754 0
M  V30 5132 C 507.92 -0.962586 2.08007 0
M  V30 5133 C 508.933 -1.27972 1.00634 0
M  V30 5134 O 510.122 -1.24186 1.28219 0
M  V30 5135 C 507.222 -2.28621 2.50171 0
M  V30 5136 C 506.395 -2.15214 3.80791 0
M  V30 5137 C 505.454 -3.30633 4.09351 0
M  V30 5138 O 504.48 -3.0688 4.79388 0
M  V30 5139 N 505.682 -4.54873 3.60654 0
M  V30 5140 H 508.447 -0.531891 2.94942 0
M  V30 5141 H 506.008 -0.142965 1.61268 0
M  V30 5142 H 508 -3.04689 2.66359 0
M  V30 5143 H 506.57 -2.63283 1.68525 0
M  V30 5144 H 505.79 -1.23785 3.74261 0
M  V30 5145 H 507.078 -2.03475 4.66343 0
M  V30 5146 H 506.476 -4.77063 3.04019 0
M  V30 5147 H 505.033 -5.2806 3.82094 0
M  V30 5148 N 508.466 -1.55915 -0.229846 0
M  V30 5149 C 509.877 -1.68809 -0.797531 0
M  V30 5150 C 510.228 -0.643995 -1.8533 0
M  V30 5151 O 509.353 0.206492 -2.15413 0
M  V30 5152 C 509.948 -3.06043 -1.45338 0
M  V30 5153 C 508.507 -3.20819 -1.96856 0
M  V30 5154 C 507.654 -2.6472 -0.825736 0
M  V30 5155 H 510.605 -1.58699 -0.00533733 0
M  V30 5156 H 510.626 -3.01438 -2.32196 0
M  V30 5157 H 510.138 -3.82012 -0.684743 0
M  V30 5158 H 508.239 -2.49704 -2.76548 0
M  V30 5159 H 508.352 -4.27937 -2.15423 0
M  V30 5160 H 506.716 -2.22985 -1.23084 0
M  V30 5161 H 507.499 -3.43229 -0.0699019 0
M  V30 5162 N 509.944 0.496216 -1.49584 0
M  V30 5163 C 511.169 1.27865 -1.63295 0
M  V30 5164 C 511.594 1.85592 -0.306156 0
M  V30 5165 O 510.952 1.66092 0.726851 0
M  V30 5166 C 511 2.38128 -2.7079 0
M  V30 5167 O 510.104 3.42108 -2.30296 0
M  V30 5168 H 509.445 0.377279 -0.546403 0
M  V30 5169 H 511.975 0.593497 -1.95803 0
M  V30 5170 H 511.985 2.8382 -2.93104 0
M  V30 5171 H 510.66 1.95479 -3.67098 0
M  V30 5172 H 509.237 3.02301 -2.18331 0
M  V30 5173 N 511.423 1.38739 0.74761 0
M  V30 5174 C 512.669 1.35475 1.50912 0
M  V30 5175 C 513.002 -0.0533093 1.94127 0
M  V30 5176 O 512.277 -1.01572 1.65871 0
M  V30 5177 C 512.56 2.31582 2.75757 0
M  V30 5178 C 512.413 3.81274 2.38642 0
M  V30 5179 C 513.732 2.25722 3.77806 0
M  V30 5180 H 510.851 0.493427 0.547447 0
M  V30 5181 H 513.493 1.69634 0.855823 0
M  V30 5182 H 511.643 2.02582 3.31501 0
M  V30 5183 H 513.315 4.20972 1.88626 0
M  V30 5184 H 511.558 3.98664 1.71025 0
M  V30 5185 H 512.229 4.4399 3.27989 0
M  V30 5186 H 514.705 2.51336 3.31616 0
M  V30 5187 H 513.581 2.95069 4.62845 0
M  V30 5188 H 513.842 1.25803 4.23823 0
M  V30 5189 N 512.901 -0.976442 1.23707 0
M  V30 5190 C 514.149 -1.71487 1.06942 0
M  V30 5191 C 514.47 -1.9098 -0.393897 0
M  V30 5192 O 513.74 -1.48128 -1.28198 0
M  V30 5193 H 512.32 -0.635425 0.392739 0
M  V30 5194 H 514.982 -1.17515 1.55487 0
M  V30 5195 H 514.078 -2.70286 1.56051 0
M  V30 5196 N 514.379 -1.04941 -1.1758 0
M  V30 5197 C 515.342 -0.652456 -2.19717 0
M  V30 5198 C 516.342 0.294745 -1.58076 0
M  V30 5199 O 517.532 0.0789579 -1.74021 0
M  V30 5200 C 514.664 0.0420712 -3.40874 0
M  V30 5201 H 515.857 -1.55642 -2.5635 0
M  V30 5202 H 513.41 -0.842995 -1.31618 0
M  V30 5203 H 514.145 0.95943 -3.09783 0
M  V30 5204 H 513.93 -0.638844 -3.86861 0
M  V30 5205 H 515.42 0.306 -4.16477 0
M  V30 5206 N 515.857 1.33968 -0.830081 0
M  V30 5207 C 516.82 2.27694 -0.26235 0
M  V30 5208 C 517.82 1.50589 0.563876 0
M  V30 5209 O 519.01 1.70028 0.378941 0
M  V30 5210 C 516.142 3.35002 0.63138 0
M  V30 5211 H 517.335 2.79419 -1.08928 0
M  V30 5212 H 514.888 1.44221 -0.602486 0
M  V30 5213 H 515.623 2.88504 1.48109 0
M  V30 5214 H 515.408 3.92079 0.0403276 0
M  V30 5215 H 516.898 4.04897 1.02217 0
M  V30 5216 N 517.335 0.585699 1.46312 0
M  V30 5217 C 518.298 -0.135673 2.28798 0
M  V30 5218 C 519.298 -0.815988 1.38558 0
M  V30 5219 O 520.488 -0.667487 1.60904 0
M  V30 5220 C 517.62 -1.20163 3.1902 0
M  V30 5221 H 518.813 0.589257 2.94054 0
M  V30 5222 H 516.366 0.343794 1.52472 0
M  V30 5223 H 517.101 -1.95804 2.58517 0
M  V30 5224 H 516.886 -0.718282 3.85465 0
M  V30 5225 H 518.376 -1.70749 3.81096 0
M  V30 5226 N 518.813 -1.54241 0.323641 0
M  V30 5227 C 520.061 -2.00174 -0.278359 0
M  V30 5228 C 520.382 -1.2134 -1.52648 0
M  V30 5229 O 519.652 -0.315244 -1.93347 0
M  V30 5230 H 518.232 -0.739463 -0.105845 0
M  V30 5231 H 520.894 -1.89864 0.440204 0
M  V30 5232 H 519.99 -3.07486 -0.5347 0
M  V30 5233 N 520.291 -0.0518155 -1.57515 0
M  V30 5234 C 521.702 0.483787 -1.80323 0
M  V30 5235 C 522.053 1.70879 -0.964099 0
M  V30 5236 O 521.178 2.15643 -0.180872 0
M  V30 5237 C 521.773 0.884459 -3.27052 0
M  V30 5238 C 520.332 1.36504 -3.50776 0
M  V30 5239 C 519.479 0.340539 -2.75201 0
M  V30 5240 H 522.43 -0.277691 -1.56252 0
M  V30 5241 H 522.451 1.74733 -3.38007 0
M  V30 5242 H 521.963 -0.00731093 -3.88099 0
M  V30 5243 H 520.064 2.27598 -2.95009 0
M  V30 5244 H 520.177 1.35675 -4.59488 0
M  V30 5245 H 518.541 0.81356 -2.41357 0
M  V30 5246 H 519.324 -0.543156 -3.38976 0
M  V30 5247 N 521.769 1.56035 0.221574 0
M  V30 5248 C 523.015 1.79312 0.947372 0
M  V30 5249 C 523.348 0.621453 1.83988 0
M  V30 5250 O 522.623 -0.379287 1.90766 0
M  V30 5251 C 522.906 3.1267 1.78633 0
M  V30 5252 C 522.759 4.40284 0.920312 0
M  V30 5253 C 524.078 3.4247 2.7641 0
M  V30 5254 H 521.197 0.652328 0.342982 0
M  V30 5255 H 523.839 1.88765 0.216244 0
M  V30 5256 H 521.989 3.04741 2.40967 0
M  V30 5257 H 523.661 4.60232 0.313718 0
M  V30 5258 H 521.904 4.33212 0.225734 0
M  V30 5259 H 522.575 5.30033 1.54171 0
M  V30 5260 H 525.051 3.50526 2.24211 0
M  V30 5261 H 523.927 4.3695 3.32213 0
M  V30 5262 H 524.188 2.64635 3.54148 0
M  V30 5263 N 523.247 -0.488276 1.49845 0
M  V30 5264 C 524.493 -1.24341 1.6021 0
M  V30 5265 C 524.826 -1.91967 0.293651 0
M  V30 5266 O 524.101 -1.81323 -0.703718 0
M  V30 5267 C 524.384 -2.3005 2.77036 0
M  V30 5268 C 524.237 -1.66842 4.17713 0
M  V30 5269 C 525.556 -3.31509 2.89464 0
M  V30 5270 H 522.675 -0.450704 0.583125 0
M  V30 5271 H 525.317 -0.539673 1.82174 0
M  V30 5272 H 523.467 -2.90071 2.58439 0
M  V30 5273 H 525.139 -1.1055 4.47858 0
M  V30 5274 H 523.382 -0.972079 4.22768 0
M  V30 5275 H 524.053 -2.43576 4.95353 0
M  V30 5276 H 526.529 -2.81493 3.06433 0
M  V30 5277 H 525.405 -4.02822 3.72861 0
M  V30 5278 H 525.666 -3.94603 1.99351 0
M  V30 5279 N 524.725 -1.39134 -0.740242 0
M  V30 5280 C 526.136 -1.32208 -1.31825 0
M  V30 5281 C 526.487 0.0159919 -1.96193 0
M  V30 5282 O 525.612 0.918111 -1.95958 0
M  V30 5283 C 526.207 -2.39436 -2.39699 0
M  V30 5284 C 524.766 -2.36048 -2.93187 0
M  V30 5285 C 523.913 -2.21599 -1.66701 0
M  V30 5286 H 526.864 -1.49298 -0.538133 0
M  V30 5287 H 526.885 -2.05922 -3.19963 0
M  V30 5288 H 526.397 -3.36811 -1.92821 0
M  V30 5289 H 524.498 -1.42295 -3.44359 0
M  V30 5290 H 524.611 -3.30704 -3.46658 0
M  V30 5291 H 522.975 -1.68681 -1.90837 0
M  V30 5292 H 523.758 -3.20936 -1.21882 0
M  V30 5293 N 526.204 0.969867 -1.24223 0
M  V30 5294 C 527.615 1.52717 -1.07399 0
M  V30 5295 C 527.966 1.92956 0.355298 0
M  V30 5296 O 527.091 1.77112 1.2434 0
M  V30 5297 C 527.686 2.77521 -1.94339 0
M  V30 5298 C 526.245 3.29615 -1.81744 0
M  V30 5299 C 525.392 2.02537 -1.89405 0
M  V30 5300 H 528.343 0.788399 -1.37732 0
M  V30 5301 H 528.364 3.50773 -1.47439 0
M  V30 5302 H 527.876 2.48203 -2.98357 0
M  V30 5303 H 525.977 3.63789 -0.805505 0
M  V30 5304 H 526.09 3.98661 -2.65718 0
M  V30 5305 H 524.454 2.17151 -1.33108 0
M  V30 5306 H 525.237 1.75587 -2.94999 0
M  V30 5307 N 527.682 1.05563 1.17022 0
M  V30 5308 C 528.922 0.777033 1.89054 0
M  V30 5309 C 529.286 -0.683617 1.79418 0
M  V30 5310 O 530.487 -1.07648 2.46303 0
M  V30 5311 C 528.758 1.24886 3.34871 0
M  V30 5312 S 530.317 1.0982 4.24835 0
M  V30 5313 H 527.135 0.282082 0.652649 0
M  V30 5314 H 529.737 1.35103 1.41306 0
M  V30 5315 H 528.441 2.30699 3.3942 0
M  V30 5316 H 527.972 0.669292 3.87665 0
M  V30 5317 H 529.987 0.02462 4.96194 0
M  V30 5318 N 529.16 -1.33526 0.837174 0
M  V30 5319 C 530.571 -1.80182 0.489017 0
M  V30 5320 C 530.922 -1.69285 -0.991826 0
M  V30 5321 O 530.047 -1.24113 -1.77271 0
M  V30 5322 C 530.642 -3.27149 0.880866 0
M  V30 5323 C 529.201 -3.71828 0.584872 0
M  V30 5324 C 528.348 -2.54974 1.09011 0
M  V30 5325 H 531.299 -1.21071 1.02603 0
M  V30 5326 H 531.32 -3.80024 0.190239 0
M  V30 5327 H 530.832 -3.35048 1.95869 0
M  V30 5328 H 528.933 -3.69457 -0.48295 0
M  V30 5329 H 529.046 -4.65366 1.13892 0
M  V30 5330 H 527.41 -2.4952 0.511047 0
M  V30 5331 H 528.193 -2.65637 2.17467 0
M  V30 5332 N 530.638 -0.59345 -1.46 0
M  V30 5333 C 531.886 -0.082988 -2.0193 0
M  V30 5334 C 532.207 1.28569 -1.46612 0
M  V30 5335 O 531.477 1.84629 -0.654909 0
M  V30 5336 H 530.057 -0.0276882 -0.746487 0
M  V30 5337 H 532.719 -0.771657 -1.78973 0
M  V30 5338 H 531.815 -0.022079 -3.12092 0
M  V30 5339 N 532.116 1.54067 -0.331816 0
M  V30 5340 C 533.532 1.59587 0.0205388 0
M  V30 5341 C 533.732 1.34813 1.49759 0
M  V30 5342 O 532.788 1.13661 2.25471 0
M  V30 5343 C 534.101 2.97959 -0.405103 0
M  V30 5344 C 535.649 3.10964 -0.356454 0
M  V30 5345 C 536.124 4.51694 -0.757384 0
M  V30 5346 N 537.615 4.57709 -0.71111 0
M  V30 5347 C 538.35 5.64729 -0.993427 0
M  V30 5348 N 537.846 6.79652 -1.3433 0
M  V30 5349 N 539.639 5.54546 -0.918442 0
M  V30 5350 H 531.79 1.68426 -1.29407 0
M  V30 5351 H 534.053 0.78819 -0.526745 0
M  V30 5352 H 533.759 3.21115 -1.43451 0
M  V30 5353 H 533.633 3.76524 0.225692 0
M  V30 5354 H 536.02 2.87538 0.663763 0
M  V30 5355 H 536.101 2.34484 -1.02229 0
M  V30 5356 H 535.745 4.75853 -1.77555 0
M  V30 5357 H 535.675 5.26555 -0.0691444 0
M  V30 5358 H 538.166 3.75176 -0.452883 0
M  V30 5359 H 538.479 7.57221 -1.54388 0
M  V30 5360 H 536.824 6.81128 -1.38164 0
M  V30 5361 H 540.015 4.63641 -0.644536 0
M  V30 5362 H 540.188 6.37861 -1.14181 0
M  V30 5363 N 533.594 0.0601682 1.57485 0
M  V30 5364 C 534.843 -0.611101 1.9222 0
M  V30 5365 C 535.156 -1.71469 0.941159 0
M  V30 5366 O 536.362 -2.44473 1.18089 0
M  V30 5367 C 534.818 -1.13832 3.41424 0
M  V30 5368 C 534.426 -0.0663596 4.47951 0
M  V30 5369 C 536.17 -1.78432 3.85178 0
M  V30 5370 C 534.077 -0.606965 5.88277 0
M  V30 5371 H 533.007 -0.232033 0.71741 0
M  V30 5372 H 535.658 0.130518 1.83035 0
M  V30 5373 H 534.04 -1.93254 3.45643 0
M  V30 5374 H 535.214 0.707682 4.55333 0
M  V30 5375 H 533.529 0.482715 4.13593 0
M  V30 5376 H 536.126 -2.1989 4.87394 0
M  V30 5377 H 536.469 -2.63966 3.21913 0
M  V30 5378 H 537.002 -1.05651 3.83514 0
M  V30 5379 H 533.741 0.21095 6.5516 0
M  V30 5380 H 533.261 -1.34879 5.84438 0
M  V30 5381 H 534.94 -1.08704 6.37803 0
M  V30 5382 N 535.072 -1.5615 -0.213296 0
M  V30 5383 C 536.488 -1.49327 -0.56336 0
M  V30 5384 C 536.688 -0.756826 -1.86747 0
M  V30 5385 O 535.744 -0.299866 -2.50713 0
M  V30 5386 C 537.057 -2.9392 -0.634944 0
M  V30 5387 C 538.605 -3.04487 -0.725013 0
M  V30 5388 C 539.08 -4.50456 -0.82787 0
M  V30 5389 N 540.571 -4.54533 -0.891876 0
M  V30 5390 C 541.306 -5.64766 -0.991315 0
M  V30 5391 N 540.802 -6.84733 -1.05419 0
M  V30 5392 N 542.595 -5.52637 -1.02709 0
M  V30 5393 H 534.746 -2.02453 0.642366 0
M  V30 5394 H 537.009 -0.920548 0.226487 0
M  V30 5395 H 536.715 -3.50783 0.253859 0
M  V30 5396 H 536.589 -3.46274 -1.49579 0
M  V30 5397 H 538.976 -2.47685 -1.60425 0
M  V30 5398 H 539.057 -2.55289 0.161669 0
M  V30 5399 H 538.701 -5.07878 0.0469464 0
M  V30 5400 H 538.631 -4.97369 -1.73009 0
M  V30 5401 H 541.122 -3.68141 -0.85327 0
M  V30 5402 H 541.435 -7.64493 -1.13007 0
M  V30 5403 H 539.78 -6.87427 -1.02318 0
M  V30 5404 H 542.971 -4.5784 -0.974687 0
M  V30 5405 H 543.144 -6.38576 -1.10113 0
M  V30 5406 N 536.55 0.480323 -1.50102 0
M  V30 5407 C 537.5 1.57685 -1.6468 0
M  V30 5408 C 538.484 1.52878 -0.5017 0
M  V30 5409 O 539.676 1.60058 -0.755668 0
M  V30 5410 C 536.805 2.96185 -1.73578 0
M  V30 5411 C 535.891 3.0591 -2.93734 0
M  V30 5412 N 536.282 2.85471 -4.1754 0
M  V30 5413 C 534.58 3.37036 -2.92101 0
M  V30 5414 C 535.281 2.99921 -4.9842 0
M  V30 5415 N 534.257 3.29715 -4.32191 0
M  V30 5416 H 538.059 1.40568 -2.58104 0
M  V30 5417 H 535.573 0.686874 -1.47159 0
M  V30 5418 H 537.57 3.75015 -1.82124 0
M  V30 5419 H 536.23 3.14356 -0.813057 0
M  V30 5420 H 537.241 2.61235 -4.47188 0
M  V30 5421 H 533.918 3.61253 -2.09291 0
M  V30 5422 H 535.308 2.88436 -6.06839 0
M  V30 5423 N 538.028 1.39524 0.732853 0
M  V30 5424 C 539.275 1.36865 1.49246 0
M  V30 5425 C 539.603 -0.0347118 1.94469 0
M  V30 5426 O 538.858 -1.01596 1.67262 0
M  V30 5427 C 539.157 2.28916 2.74468 0
M  V30 5428 C 538.823 3.76506 2.481 0
M  V30 5429 C 537.485 4.16721 2.40619 0
M  V30 5430 C 539.837 4.69846 2.25598 0
M  V30 5431 C 537.165 5.48334 2.08679 0
M  V30 5432 C 539.517 6.01739 1.95174 0
M  V30 5433 C 538.181 6.41015 1.86163 0
M  V30 5434 H 537.451 0.500824 0.546129 0
M  V30 5435 H 540.098 1.72047 0.840958 0
M  V30 5436 H 538.403 1.86859 3.4437 0
M  V30 5437 H 540.1 2.2415 3.32502 0
M  V30 5438 H 536.69 3.44635 2.54803 0
M  V30 5439 H 540.874 4.39608 2.30344 0
M  V30 5440 H 536.13 5.77685 2.00226 0
M  V30 5441 H 540.304 6.73591 1.76771 0
M  V30 5442 H 537.931 7.42917 1.61179 0
M  V30 5443 N 539.506 -0.963266 1.24736 0
M  V30 5444 C 540.453 -2.05857 1.04363 0
M  V30 5445 C 541.423 -1.6604 -0.0444951 0
M  V30 5446 O 542.608 -1.90477 0.110999 0
M  V30 5447 C 539.748 -3.38745 0.659235 0
M  V30 5448 C 538.861 -3.9173 1.82131 0
M  V30 5449 C 537.996 -5.12906 1.38208 0
M  V30 5450 C 537.035 -5.58098 2.51382 0
M  V30 5451 N 536.172 -6.7049 2.08295 0
M  V30 5452 H 541.012 -2.22616 1.98107 0
M  V30 5453 H 538.549 -1.09103 0.986661 0
M  V30 5454 H 540.507 -4.15107 0.417371 0
M  V30 5455 H 539.137 -3.21898 -0.241201 0
M  V30 5456 H 538.189 -3.11966 2.17672 0
M  V30 5457 H 539.501 -4.21225 2.67153 0
M  V30 5458 H 538.655 -5.96657 1.09935 0
M  V30 5459 H 537.394 -4.85105 0.502456 0
M  V30 5460 H 536.399 -4.72917 2.80409 0
M  V30 5461 H 537.624 -5.87911 3.39909 0
M  V30 5462 H 535.57 -6.44416 1.22737 0
M  V30 5463 H 535.487 -6.99458 2.86869 0
M  V30 5464 H 536.755 -7.57672 1.83175 0
M  V30 5465 N 540.985 -1.06182 -1.16461 0
M  V30 5466 C 542.231 -0.779015 -1.87241 0
M  V30 5467 C 542.564 0.692715 -1.81425 0
M  V30 5468 O 541.839 1.5074 -1.22913 0
M  V30 5469 C 542.122 -1.2728 -3.36856 0
M  V30 5470 C 541.975 -2.80821 -3.51368 0
M  V30 5471 C 543.294 -0.879799 -4.31216 0
M  V30 5472 H 540.413 -0.284464 -0.679889 0
M  V30 5473 H 543.055 -1.31755 -1.36896 0
M  V30 5474 H 541.205 -0.814673 -3.79862 0
M  V30 5475 H 542.877 -3.34833 -3.17308 0
M  V30 5476 H 541.12 -3.19606 -2.93316 0
M  V30 5477 H 541.791 -3.10435 -4.56436 0
M  V30 5478 H 544.267 -1.27436 -3.96105 0
M  V30 5479 H 543.143 -1.25278 -5.34412 0
M  V30 5480 H 543.404 0.215372 -4.41575 0
M  V30 5481 O 542.502 1.28464 -0.97874 0
M  V30 5482 H 543.193 1.83432 -0.622284 0
M  V30 END ATOM
M  V30 BEGIN BOND
M  V30 END BOND
M  V30 END CTAB
M  END
$$$$
