drugbank_target|P02794 Ferritin heavy chain (DB00893; DB01592; DB13995; DB14488; DB14489; DB14490; DB14491; DB14501)
 OpenBabel12092119313D

  0  0  0     0  0            999 V3000
M  V30 BEGIN CTAB
M  V30 COUNTS 2915 2944 0 0 0
M  V30 BEGIN ATOM
M  V30 1 H -0.908 1.98254 -0.117106 0
M  V30 2 N 0 1.576 0 0
M  V30 3 C 0.933 2.03868 1.02534 0
M  V30 4 C 1.911 0.928543 1.3348 0
M  V30 5 O 3.095 1.19667 1.45644 0
M  V30 6 C 0.222 2.43627 2.35294 0
M  V30 7 C -0.732 3.65373 2.2001 0
M  V30 8 S 0.101 5.13292 1.52614 0
M  V30 9 C 1.257 5.56322 2.86805 0
M  V30 10 H 1.49 2.90518 0.631377 0
M  V30 11 H -0.977 1.52953 0.210867 0
M  V30 12 H 0.981 2.67203 3.11629 0
M  V30 13 H -0.358 1.57376 2.7183 0
M  V30 14 H -1.165 3.90944 3.18086 0
M  V30 15 H -1.563 3.418 1.51819 0
M  V30 16 H 0.729 5.58782 3.83104 0
M  V30 17 H 1.672 6.56266 2.65933 0
M  V30 18 H 2.08 4.83886 2.90714 0
M  V30 19 N 1.4781 -0.272755 1.55222 0
M  V30 20 C 2.7061 -1.02255 1.79865 0
M  V30 21 C 3.1211 -1.79924 0.572088 0
M  V30 22 O 2.4781 -1.76638 -0.458842 0
M  V30 23 C 2.5291 -1.98094 3.02392 0
M  V30 24 O 2.2501 -1.23572 4.20311 0
M  V30 25 C 3.7511 -2.84884 3.39641 0
M  V30 26 H 0.9711 -0.302057 0.599168 0
M  V30 27 H 3.5151 -0.303465 2.02236 0
M  V30 28 H 1.6701 -2.65465 2.82147 0
M  V30 29 H 2.0841 -1.88172 4.89583 0
M  V30 30 H 3.5581 -3.47927 4.28545 0
M  V30 31 H 4.0351 -3.54665 2.59055 0
M  V30 32 H 4.6411 -2.23003 3.62146 0
M  V30 33 N 2.9562 -1.48159 -0.537278 0
M  V30 34 C 4.1842 -1.59454 -1.31841 0
M  V30 35 C 4.5992 -0.252065 -1.8711 0
M  V30 36 O 3.9562 0.757621 -1.66031 0
M  V30 37 C 4.0072 -2.63546 -2.47439 0
M  V30 38 O 3.7282 -3.92583 -1.94449 0
M  V30 39 C 5.2292 -2.85212 -3.39366 0
M  V30 40 H 2.4492 -0.53785 -0.401196 0
M  V30 41 H 4.9932 -1.93932 -0.648891 0
M  V30 42 H 3.1482 -2.31946 -3.1029 0
M  V30 43 H 3.5622 -4.49629 -2.70063 0
M  V30 44 H 5.0362 -3.61863 -4.16844 0
M  V30 45 H 5.5132 -1.93765 -3.94147 0
M  V30 46 H 6.1192 -3.18086 -2.82314 0
M  V30 47 N 4.4343 0.785586 -1.36625 0
M  V30 48 C 5.3973 1.87999 -1.31107 0
M  V30 49 C 6.3973 1.59316 -0.217959 0
M  V30 50 O 7.5873 1.67656 -0.472977 0
M  V30 51 C 4.7193 3.24861 -1.03334 0
M  V30 52 H 5.9123 1.94307 -2.2844 0
M  V30 53 H 3.4653 0.983813 -1.21453 0
M  V30 54 H 4.2003 3.24235 -0.0647432 0
M  V30 55 H 3.9853 3.4707 -1.82441 0
M  V30 56 H 5.4753 4.04929 -1.02088 0
M  V30 57 N 5.9124 1.20967 1.01018 0
M  V30 58 C 7.1374 1.0503 1.78839 0
M  V30 59 C 7.5624 -0.395752 1.8389 0
M  V30 60 O 6.9204 -1.28529 1.27867 0
M  V30 61 C 6.9684 1.64602 3.2084 0
M  V30 62 O 6.0724 0.887988 4.02726 0
M  V30 63 H 5.4134 0.369987 0.551367 0
M  V30 64 H 7.9434 1.60399 1.27018 0
M  V30 65 H 7.9534 1.68607 3.71532 0
M  V30 66 H 6.6284 2.69841 3.16479 0
M  V30 67 H 5.2054 0.922648 3.61305 0
M  V30 68 N 7.3905 -1.2043 1.01659 0
M  V30 69 C 8.6185 -1.93777 0.725132 0
M  V30 70 C 9.0335 -1.74772 -0.714166 0
M  V30 71 O 8.3905 -1.06169 -1.4844 0
M  V30 72 C 8.4415 -3.45876 1.05129 0
M  V30 73 O 8.1625 -3.6426 2.43406 0
M  V30 74 C 9.6635 -4.36368 0.780891 0
M  V30 75 H 6.8835 -0.615901 0.266284 0
M  V30 76 H 9.4275 -1.52922 1.35776 0
M  V30 77 H 7.5825 -3.8461 0.464065 0
M  V30 78 H 7.9965 -4.58246 2.55169 0
M  V30 79 H 9.4705 -5.41743 1.05918 0
M  V30 80 H 9.9475 -4.38275 -0.284937 0
M  V30 81 H 10.5535 -4.03296 1.35027 0
M  V30 82 N 8.8686 -0.792821 -1.36206 0
M  V30 83 C 10.0936 -0.377701 -2.03932 0
M  V30 84 C 10.5186 0.998947 -1.59382 0
M  V30 85 O 9.8766 1.64421 -0.763903 0
M  V30 86 C 9.9246 -0.453635 -3.57735 0
M  V30 87 O 9.0286 0.538151 -4.08874 0
M  V30 88 H 8.3696 -0.159855 -0.644471 0
M  V30 89 H 10.8996 -1.07488 -1.7409 0
M  V30 90 H 10.9096 -0.318464 -4.06755 0
M  V30 91 H 9.5846 -1.45784 -3.89512 0
M  V30 92 H 8.1616 0.364359 -3.71116 0
M  V30 93 N 10.3467 1.47872 -0.545128 0
M  V30 94 C 11.2787 2.27869 0.246621 0
M  V30 95 C 12.2917 1.36282 0.890561 0
M  V30 96 O 13.4807 1.61207 0.766449 0
M  V30 97 C 10.5807 3.10159 1.36582 0
M  V30 98 C 9.7537 4.29627 0.820954 0
M  V30 99 C 8.8127 4.93607 1.82314 0
M  V30 100 O 7.8387 5.52366 1.37406 0
M  V30 101 N 9.0407 4.87211 3.15603 0
M  V30 102 H 11.8057 2.96459 -0.439539 0
M  V30 103 H 9.3667 1.57367 -0.380421 0
M  V30 104 H 11.3587 3.49829 2.03474 0
M  V30 105 H 9.9287 2.43891 1.9554 0
M  V30 106 H 9.1487 3.94192 -0.0244032 0
M  V30 107 H 10.4367 5.06928 0.436063 0
M  V30 108 H 9.8347 4.40651 3.54744 0
M  V30 109 H 8.3917 5.30937 3.78087 0
M  V30 110 N 11.8248 0.280983 1.55075 0
M  V30 111 C 13.0708 -0.33461 2.00021 0
M  V30 112 C 13.4038 -1.55063 1.16915 0
M  V30 113 O 12.6788 -1.93006 0.240646 0
M  V30 114 C 12.9618 -0.711007 3.53011 0
M  V30 115 C 12.8148 0.512766 4.46868 0
M  V30 116 C 14.1338 -1.54522 4.12081 0
M  V30 117 H 11.2528 -0.120147 0.727141 0
M  V30 118 H 13.8948 0.389097 1.85973 0
M  V30 119 H 12.0448 -1.32761 3.65112 0
M  V30 120 H 13.7168 1.15131 4.46702 0
M  V30 121 H 11.9598 1.14975 4.18286 0
M  V30 122 H 12.6308 0.205556 5.51617 0
M  V30 123 H 15.1068 -1.02442 4.03293 0
M  V30 124 H 13.9828 -1.77739 5.19327 0
M  V30 125 H 14.2438 -2.52813 3.62682 0
M  V30 126 N 13.3029 -1.57598 0.00835791 0
M  V30 127 C 14.7189 -1.55764 -0.347822 0
M  V30 128 C 14.9189 -1.01186 -1.74252 0
M  V30 129 O 13.9749 -0.649371 -2.44007 0
M  V30 130 C 15.2879 -2.99927 -0.215407 0
M  V30 131 C 16.8359 -3.11656 -0.289725 0
M  V30 132 C 17.3109 -4.57621 -0.18634 0
M  V30 133 N 18.8019 -4.62557 -0.243978 0
M  V30 134 C 19.5369 -5.73094 -0.18745 0
M  V30 135 N 19.0329 -6.92753 -0.0810331 0
M  V30 136 N 20.8259 -5.61588 -0.239925 0
M  V30 137 H 12.9769 -1.91411 0.92062 0
M  V30 138 H 15.2399 -0.879562 0.353659 0
M  V30 139 H 14.9459 -3.43729 0.744512 0
M  V30 140 H 14.8199 -3.63865 -0.994097 0
M  V30 141 H 17.2069 -2.67779 -1.24009 0
M  V30 142 H 17.2879 -2.5048 0.51898 0
M  V30 143 H 16.9319 -5.02174 0.760519 0
M  V30 144 H 16.8619 -5.16752 -1.01364 0
M  V30 145 H 19.3529 -3.76481 -0.327217 0
M  V30 146 H 19.6659 -7.72787 -0.0440241 0
M  V30 147 H 18.0109 -6.94984 -0.0465419 0
M  V30 148 H 21.2019 -4.66996 -0.321317 0
M  V30 149 H 21.3749 -6.47714 -0.192407 0
M  V30 150 N 14.781 0.264519 -1.55364 0
M  V30 151 C 15.713 1.34965 -1.85248 0
M  V30 152 C 16.726 1.45136 -0.737525 0
M  V30 153 O 17.915 1.46801 -1.01547 0
M  V30 154 C 15.015 2.73008 -2.00797 0
M  V30 155 C 14.188 2.85324 -3.31525 0
M  V30 156 C 13.247 4.04097 -3.37034 0
M  V30 157 O 12.273 3.94455 -4.10358 0
M  V30 158 N 13.475 5.16458 -2.65049 0
M  V30 159 H 16.24 1.09672 -2.78913 0
M  V30 160 H 13.801 0.454635 -1.55386 0
M  V30 161 H 15.793 3.50772 -2.01844 0
M  V30 162 H 14.363 2.91087 -1.1396 0
M  V30 163 H 13.583 1.94377 -3.42945 0
M  V30 164 H 14.871 2.9049 -4.17724 0
M  V30 165 H 14.269 5.27181 -2.05175 0
M  V30 166 H 12.826 5.92422 -2.71809 0
M  V30 167 N 16.2591 1.48442 0.529413 0
M  V30 168 C 17.2071 1.63452 1.65487 0
M  V30 169 C 18.2011 0.500955 1.61823 0
M  V30 170 O 19.4071 0.679695 1.66674 0
M  V30 171 H 15.7821 0.514905 0.548066 0
M  V30 172 H 17.7531 2.57975 1.49971 0
M  V30 173 C 16.5021 1.69196 3.03756 0
M  V30 174 H 15.8251 2.55784 3.07269 0
M  V30 175 H 17.2651 1.83743 3.82119 0
M  V30 176 C 15.7241 0.430765 3.34135 0
M  V30 177 O 16.2541 -0.4561 3.99102 0
M  V30 178 N 14.4601 0.302293 2.89023 0
M  V30 179 H 14.0071 1.02496 2.36331 0
M  V30 180 H 13.9651 -0.540546 3.09718 0
M  V30 181 N 17.7372 -0.778329 1.37039 0
M  V30 182 C 18.9672 -1.56507 1.34868 0
M  V30 183 C 19.3752 -1.89072 -0.0694802 0
M  V30 184 O 18.7182 -1.51434 -1.03987 0
M  V30 185 C 18.7802 -2.90641 2.11585 0
M  V30 186 C 18.4442 -2.80746 3.60598 0
M  V30 187 C 19.4412 -2.52226 4.54618 0
M  V30 188 C 17.1262 -2.98974 4.03633 0
M  V30 189 C 19.1202 -2.42054 5.89651 0
M  V30 190 C 16.8072 -2.88423 5.38754 0
M  V30 191 C 17.8052 -2.60002 6.31576 0
M  V30 192 O 17.4932 -2.49465 7.64214 0
M  V30 193 H 17.2252 -0.491723 0.463879 0
M  V30 194 H 19.7792 -0.973053 1.80889 0
M  V30 195 H 18.0092 -3.51936 1.60243 0
M  V30 196 H 19.6982 -3.51992 2.0213 0
M  V30 197 H 20.4642 -2.37835 4.22681 0
M  V30 198 H 16.3432 -3.20099 3.31749 0
M  V30 199 H 19.8872 -2.19791 6.62071 0
M  V30 200 H 15.7842 -3.0238 5.70295 0
M  V30 201 H 16.5522 -2.64864 7.74461 0
M  V30 202 N 19.2153 -1.21501 -1.00376 0
M  V30 203 C 20.1653 -0.942843 -2.07592 0
M  V30 204 C 21.1493 0.102384 -1.60574 0
M  V30 205 O 22.3413 -0.10671 -1.76678 0
M  V30 206 C 19.4703 -0.510729 -3.3948 0
M  V30 207 C 18.5563 -1.59009 -3.93163 0
M  V30 208 N 18.9473 -2.81544 -4.20198 0
M  V30 209 C 17.2453 -1.45925 -4.21452 0
M  V30 210 C 17.9463 -3.51261 -4.63671 0
M  V30 211 N 16.9223 -2.78703 -4.66718 0
M  V30 212 H 20.7243 -1.87378 -2.26421 0
M  V30 213 H 18.2383 -1.11093 -1.18458 0
M  V30 214 H 20.2353 -0.297101 -4.1584 0
M  V30 215 H 18.8953 0.413436 -3.22057 0
M  V30 216 H 19.9063 -3.18075 -4.08716 0
M  V30 217 H 16.5833 -0.600467 -4.13159 0
M  V30 218 H 17.9733 -4.56183 -4.93302 0
M  V30 219 N 20.6934 1.19889 -1.02296 0
M  V30 220 C 21.6254 2.22334 -0.556787 0
M  V30 221 C 22.6384 1.58674 0.364199 0
M  V30 222 O 23.8274 1.77768 0.161533 0
M  V30 223 C 20.9274 3.38257 0.208694 0
M  V30 224 C 20.1004 4.31504 -0.71577 0
M  V30 225 C 19.1594 5.262 0.00325597 0
M  V30 226 O 18.1854 5.65798 -0.621357 0
M  V30 227 N 19.3874 5.66303 1.27599 0
M  V30 228 H 22.1524 2.62957 -1.43784 0
M  V30 229 H 19.7134 1.34495 -0.901261 0
M  V30 230 H 21.7054 3.98616 0.699111 0
M  V30 231 H 20.2754 2.96472 0.991102 0
M  V30 232 H 19.4954 3.69016 -1.38638 0
M  V30 233 H 20.7834 4.9072 -1.34428 0
M  V30 234 H 20.1814 5.36155 1.80429 0
M  V30 235 H 18.7384 6.28942 1.71102 0
M  V30 236 N 22.1715 0.800033 1.35784 0
M  V30 237 C 23.4485 0.30088 1.93272 0
M  V30 238 C 23.8285 -1.20857 1.73081 0
M  V30 239 O 23.1765 -2.00502 1.09596 0
M  V30 240 C 23.3865 0.70511 3.41803 0
M  V30 241 C 24.7345 0.690871 4.18942 0
M  V30 242 O 25.7585 0.646244 3.50289 0
M  V30 243 O 24.6175 0.74332 5.41421 0
M  V30 244 H 21.7115 0.0771605 0.823393 0
M  V30 245 H 24.2575 0.88329 1.449 0
M  V30 246 H 23.0295 1.74571 3.50201 0
M  V30 247 H 22.6525 0.0971541 3.97481 0
M  V30 248 N 23.6496 -1.47581 0.552962 0
M  V30 249 C 24.8746 -2.07378 0.0300593 0
M  V30 250 C 25.2996 -1.40355 -1.25229 0
M  V30 251 O 24.6576 -0.477099 -1.7491 0
M  V30 252 C 24.7056 -3.60274 -0.153231 0
M  V30 253 O 23.8096 -3.94041 -1.21678 0
M  V30 254 H 23.1506 -0.662158 0.0494182 0
M  V30 255 H 25.6806 -1.89662 0.767434 0
M  V30 256 H 25.6906 -4.0633 -0.368761 0
M  V30 257 H 24.3656 -4.08455 0.783397 0
M  V30 258 H 22.9426 -3.59735 -0.982079 0
M  V30 259 N 25.1277 -0.289203 -1.54924 0
M  V30 260 C 26.0377 0.601863 -2.26748 0
M  V30 261 C 27.0537 1.15834 -1.2984 0
M  V30 262 O 28.2297 1.18564 -1.62802 0
M  V30 263 C 25.2947 1.76299 -2.98529 0
M  V30 264 C 24.3557 1.24178 -4.10948 0
M  V30 265 C 23.5887 2.34757 -4.79296 0
M  V30 266 O 23.8117 3.54411 -4.46933 0
M  V30 267 O 22.7457 2.02115 -5.66951 0
M  V30 268 H 26.5717 0.0195879 -3.03694 0
M  V30 269 H 24.1567 -0.0560868 -1.49295 0
M  V30 270 H 26.0387 2.43973 -3.43592 0
M  V30 271 H 24.7137 2.33209 -2.24488 0
M  V30 272 H 23.6207 0.531104 -3.70311 0
M  V30 273 H 24.9537 0.718252 -4.86931 0
M  V30 274 N 26.6058 1.57591 -0.0167156 0
M  V30 275 C 27.5688 2.08393 0.954204 0
M  V30 276 C 28.5688 0.996531 1.26198 0
M  V30 277 O 29.7588 1.25858 1.20438 0
M  V30 278 C 26.8908 2.5394 2.27436 0
M  V30 279 H 28.0838 2.95455 0.514451 0
M  V30 280 H 25.6368 1.54582 0.231089 0
M  V30 281 H 26.3718 1.70171 2.76066 0
M  V30 282 H 26.1568 3.33371 2.06412 0
M  V30 283 H 27.6468 2.93512 2.97053 0
M  V30 284 N 28.0839 -0.256276 1.55502 0
M  V30 285 C 29.0469 -1.30047 1.88734 0
M  V30 286 C 30.0469 -1.4154 0.763086 0
M  V30 287 O 31.2369 -1.40403 1.03115 0
M  V30 288 C 28.3689 -2.67953 2.10747 0
M  V30 289 H 29.5619 -1.01802 2.82093 0
M  V30 290 H 27.1149 -0.495134 1.4825 0
M  V30 291 H 27.8499 -3.01351 1.19825 0
M  V30 292 H 27.6349 -2.60993 2.92617 0
M  V30 293 H 29.1249 -3.43368 2.37673 0
M  V30 294 N 29.562 -1.4872 -0.521534 0
M  V30 295 C 30.811 -1.56419 -1.27341 0
M  V30 296 C 31.124 -0.246805 -1.94037 0
M  V30 297 O 32.33 -0.202122 -2.70747 0
M  V30 298 C 30.786 -2.75896 -2.31105 0
M  V30 299 C 30.394 -4.14311 -1.70441 0
M  V30 300 C 32.138 -2.92913 -3.07249 0
M  V30 301 C 30.045 -5.25038 -2.72194 0
M  V30 302 H 28.975 -0.582344 -0.478949 0
M  V30 303 H 31.626 -1.75071 -0.549779 0
M  V30 304 H 30.008 -2.50697 -3.06541 0
M  V30 305 H 31.182 -4.49564 -1.01136 0
M  V30 306 H 29.497 -4.02482 -1.06759 0
M  V30 307 H 32.094 -3.72805 -3.83302 0
M  V30 308 H 32.437 -2.02689 -3.63625 0
M  V30 309 H 32.97 -3.18054 -2.38928 0
M  V30 310 H 29.709 -6.17255 -2.20627 0
M  V30 311 H 29.229 -4.94263 -3.39801 0
M  V30 312 H 30.908 -5.53508 -3.35019 0
M  V30 313 N 31.0401 0.771051 -1.3745 0
M  V30 314 C 31.9881 1.90574 -1.33358 0
M  V30 315 C 32.9821 1.67936 -0.22224 0
M  V30 316 O 34.1881 1.75717 -0.390304 0
M  V30 317 H 30.5631 0.626714 -0.415612 0
M  V30 318 H 32.5341 1.91142 -2.29144 0
M  V30 319 C 31.2831 3.27845 -1.15813 0
M  V30 320 H 30.6061 3.45842 -2.00583 0
M  V30 321 H 32.0461 4.07538 -1.17 0
M  V30 322 C 30.5051 3.36625 0.136165 0
M  V30 323 O 31.0351 3.85785 1.11949 0
M  V30 324 N 29.2411 2.89997 0.187099 0
M  V30 325 H 28.7881 2.50182 -0.613753 0
M  V30 326 H 28.7461 2.96252 1.05272 0
M  V30 327 N 32.5182 1.22032 0.997298 0
M  V30 328 C 33.9342 0.979326 1.26021 0
M  V30 329 C 34.1342 -0.32972 1.98784 0
M  V30 330 O 33.1902 -1.05345 2.29475 0
M  V30 331 C 34.5032 2.17509 2.07631 0
M  V30 332 C 36.0512 2.21817 2.2083 0
M  V30 333 C 36.5262 3.40933 3.05825 0
M  V30 334 N 38.0172 3.41067 3.13412 0
M  V30 335 C 38.7522 4.29885 3.79455 0
M  V30 336 N 38.2482 5.28914 4.47462 0
M  V30 337 N 40.0412 4.17673 3.76173 0
M  V30 338 H 32.1922 2.06202 0.509352 0
M  V30 339 H 34.4552 0.90334 0.287541 0
M  V30 340 H 34.1612 3.12415 1.61524 0
M  V30 341 H 34.0352 2.17206 3.08385 0
M  V30 342 H 36.4222 1.27462 2.66153 0
M  V30 343 H 36.5032 2.2616 1.1952 0
M  V30 344 H 36.1472 4.35586 2.61203 0
M  V30 345 H 36.0772 3.33829 4.07266 0
M  V30 346 H 38.5682 2.69406 2.65007 0
M  V30 347 H 38.8812 5.92973 4.95583 0
M  V30 348 H 37.2262 5.32831 4.46224 0
M  V30 349 H 40.4172 3.39564 3.22202 0
M  V30 350 H 40.5902 4.87098 4.27363 0
M  V30 351 N 33.9963 -1.19345 1.0293 0
M  V30 352 C 34.9283 -2.22036 0.56857 0
M  V30 353 C 35.9413 -1.58865 -0.355779 0
M  V30 354 O 37.1303 -1.77851 -0.152103 0
M  V30 355 C 34.2303 -3.38363 -0.190752 0
M  V30 356 C 33.4033 -4.31118 0.738643 0
M  V30 357 C 32.4623 -5.26194 0.0246497 0
M  V30 358 O 31.4883 -5.65461 0.651354 0
M  V30 359 N 32.6903 -5.66971 -1.24594 0
M  V30 360 H 35.4553 -2.6219 1.45177 0
M  V30 361 H 33.0163 -1.34015 0.908381 0
M  V30 362 H 35.0083 -3.98981 -0.677961 0
M  V30 363 H 33.5783 -2.96994 -0.975366 0
M  V30 364 H 32.7983 -3.68276 1.40593 0
M  V30 365 H 34.0863 -4.90001 1.37029 0
M  V30 366 H 33.4843 -5.37104 -1.77583 0
M  V30 367 H 32.0413 -6.2984 -1.67764 0
M  V30 368 N 35.4744 -0.807222 -1.35358 0
M  V30 369 C 36.7234 -0.384376 -1.98004 0
M  V30 370 C 37.0364 1.0543 -1.64754 0
M  V30 371 O 38.2424 1.58029 -2.20769 0
M  V30 372 C 36.6984 -0.636326 -3.5423 0
M  V30 373 C 36.3064 -2.08759 -3.96388 0
M  V30 374 C 38.0504 -0.278869 -4.23583 0
M  V30 375 C 35.9574 -2.28525 -5.45463 0
M  V30 376 H 34.8874 -0.139986 -0.740891 0
M  V30 377 H 37.5384 -0.991369 -1.54415 0
M  V30 378 H 35.9204 0.0406256 -3.95979 0
M  V30 379 H 37.0944 -2.8024 -3.6579 0
M  V30 380 H 35.4094 -2.40497 -3.39926 0
M  V30 381 H 38.0064 -0.404599 -5.33167 0
M  V30 382 H 38.3494 0.775012 -4.09022 0
M  V30 383 H 38.8824 -0.909764 -3.87257 0
M  V30 384 H 35.6214 -3.32361 -5.64992 0
M  V30 385 H 35.1414 -1.61569 -5.77629 0
M  V30 386 H 36.8204 -2.10109 -6.11934 0
M  V30 387 N 36.9525 1.47285 -0.560781 0
M  V30 388 C 37.9005 2.31756 0.197942 0
M  V30 389 C 38.8945 1.43146 0.905854 0
M  V30 390 O 40.1005 1.59891 0.826733 0
M  V30 391 H 36.4755 0.747438 0.0827049 0
M  V30 392 H 38.4465 2.9359 -0.533629 0
M  V30 393 C 37.1955 3.25874 1.21249 0
M  V30 394 H 36.5185 3.94023 0.67719 0
M  V30 395 H 37.9585 3.87803 1.71419 0
M  V30 396 C 36.4175 2.49651 2.26221 0
M  V30 397 O 36.9475 2.24355 3.33208 0
M  V30 398 N 35.1535 2.10597 2.00243 0
M  V30 399 H 34.7005 2.31369 1.13252 0
M  V30 400 H 34.6585 1.59913 2.70694 0
M  V30 401 N 38.4306 0.297415 1.54768 0
M  V30 402 C 39.3606 -0.573494 2.26348 0
M  V30 403 C 40.3416 -1.14085 1.26169 0
M  V30 404 O 41.5266 -1.17086 1.54934 0
M  V30 405 C 38.6566 -1.74716 3.00153 0
M  V30 406 C 37.6106 -1.31032 4.07449 0
M  V30 407 C 36.9366 -2.56887 4.68949 0
M  V30 408 C 38.2366 -0.444183 5.20408 0
M  V30 409 H 39.9306 0.0235131 2.99391 0
M  V30 410 H 37.4766 0.0127488 1.43994 0
M  V30 411 H 39.4296 -2.3625 3.48947 0
M  V30 412 H 38.1536 -2.37035 2.24682 0
M  V30 413 H 36.8126 -0.718066 3.59499 0
M  V30 414 H 36.4606 -3.17512 3.90122 0
M  V30 415 H 36.1606 -2.2836 5.41411 0
M  V30 416 H 37.6846 -3.19229 5.20505 0
M  V30 417 H 39.0986 -0.9651 5.65118 0
M  V30 418 H 37.4956 -0.252846 5.99567 0
M  V30 419 H 38.5656 0.531609 4.81977 0
M  V30 420 N 39.9087 -1.5758 0.0250728 0
M  V30 421 C 40.8187 -2.1343 -0.973905 0
M  V30 422 C 41.8347 -1.08556 -1.35984 0
M  V30 423 O 43.0107 -1.40592 -1.44207 0
M  V30 424 C 40.0757 -2.64703 -2.23904 0
M  V30 425 C 39.1367 -3.84276 -1.91391 0
M  V30 426 C 38.3697 -4.33095 -3.11873 0
M  V30 427 O 38.5927 -3.81107 -4.24398 0
M  V30 428 O 37.5267 -5.24984 -2.94406 0
M  V30 429 H 41.3527 -2.99057 -0.529036 0
M  V30 430 H 38.9377 -1.48118 -0.195288 0
M  V30 431 H 40.8197 -2.97769 -2.98181 0
M  V30 432 H 39.4947 -1.82161 -2.6758 0
M  V30 433 H 38.4017 -3.56143 -1.14511 0
M  V30 434 H 39.7347 -4.67968 -1.52534 0
M  V30 435 N 41.3868 0.248026 -1.55636 0
M  V30 436 C 42.3168 1.31079 -1.93237 0
M  V30 437 C 43.2978 1.50264 -0.797174 0
M  V30 438 O 44.4828 1.62891 -1.05737 0
M  V30 439 C 41.6128 2.66575 -2.22609 0
M  V30 440 C 40.5668 2.62087 -3.3837 0
M  V30 441 C 39.8928 4.01369 -3.53281 0
M  V30 442 C 41.1928 2.19171 -4.7409 0
M  V30 443 H 42.8868 0.998556 -2.82257 0
M  V30 444 H 40.4328 0.47891 -1.35803 0
M  V30 445 H 42.3858 3.41057 -2.47503 0
M  V30 446 H 41.1098 2.99432 -1.30414 0
M  V30 447 H 39.7688 1.90063 -3.13483 0
M  V30 448 H 39.4168 4.31489 -2.58508 0
M  V30 449 H 39.1168 3.99254 -4.31127 0
M  V30 450 H 40.6408 4.77552 -3.80495 0
M  V30 451 H 42.0548 2.83384 -4.98363 0
M  V30 452 H 40.4518 2.2817 -5.5503 0
M  V30 453 H 41.5218 1.14336 -4.71227 0
M  V30 454 N 42.8649 1.48995 0.513639 0
M  V30 455 C 44.0949 1.61297 1.291 0
M  V30 456 C 44.5029 0.278656 1.87137 0
M  V30 457 O 43.8459 -0.744325 1.67945 0
M  V30 458 C 43.9079 2.61326 2.46879 0
M  V30 459 C 43.5719 4.05993 2.09807 0
M  V30 460 C 44.5689 4.93183 1.64519 0
M  V30 461 C 42.2539 4.51642 2.19829 0
M  V30 462 C 44.2479 6.24056 1.2974 0
M  V30 463 C 41.9349 5.82532 1.84662 0
M  V30 464 C 42.9329 6.68562 1.3969 0
M  V30 465 O 42.6209 7.97014 1.04992 0
M  V30 466 H 42.3529 0.546236 0.39825 0
M  V30 467 H 44.9069 1.95673 0.62459 0
M  V30 468 H 43.1369 2.22104 3.16554 0
M  V30 469 H 44.8259 2.6329 3.08923 0
M  V30 470 H 45.5919 4.59147 1.56233 0
M  V30 471 H 41.4709 3.84855 2.53786 0
M  V30 472 H 45.0149 6.91161 0.945659 0
M  V30 473 H 40.9119 6.16099 1.92594 0
M  V30 474 H 41.6799 8.09913 1.18249 0
M  V30 475 N 44.343 -0.763751 1.37857 0
M  V30 476 C 45.306 -1.85889 1.34081 0
M  V30 477 C 46.306 -1.58949 0.243277 0
M  V30 478 O 47.496 -1.66882 0.499589 0
M  V30 479 C 44.628 -3.23176 1.08489 0
M  V30 480 H 45.821 -1.90648 2.31502 0
M  V30 481 H 43.374 -0.964367 1.23003 0
M  V30 482 H 44.109 -3.24091 0.116318 0
M  V30 483 H 43.894 -3.44124 1.8794 0
M  V30 484 H 45.384 -4.03254 1.08517 0
M  V30 485 N 45.8211 -1.22559 -0.990812 0
M  V30 486 C 47.0461 -1.07862 -1.77145 0
M  V30 487 C 47.4711 0.366447 -1.84496 0
M  V30 488 O 46.8291 1.26478 -1.29896 0
M  V30 489 C 46.8771 -1.69686 -3.18181 0
M  V30 490 O 45.9811 -0.951946 -4.01263 0
M  V30 491 H 45.3221 -0.378712 -0.545411 0
M  V30 492 H 47.8521 -1.62399 -1.2445 0
M  V30 493 H 47.8621 -1.74496 -3.68802 0
M  V30 494 H 46.5371 -2.74841 -3.12146 0
M  V30 495 H 45.1141 -0.980011 -3.59792 0
M  V30 496 N 47.2992 1.18797 -1.03562 0
M  V30 497 C 48.5292 1.92319 -0.754773 0
M  V30 498 C 48.9372 1.7612 0.691248 0
M  V30 499 O 48.2802 1.08491 1.48241 0
M  V30 500 C 48.3422 3.44284 -1.03484 0
M  V30 501 C 48.0062 3.84258 -2.47376 0
M  V30 502 C 49.0032 3.88459 -3.45537 0
M  V30 503 C 46.6882 4.15701 -2.81954 0
M  V30 504 C 48.6822 4.23545 -4.76328 0
M  V30 505 C 46.3692 4.50458 -4.12954 0
M  V30 506 C 47.3672 4.54356 -5.09951 0
M  V30 507 O 47.0552 4.88305 -6.38603 0
M  V30 508 H 46.7872 0.617527 -0.275021 0
M  V30 509 H 49.3412 1.51683 -1.38497 0
M  V30 510 H 47.5712 3.85135 -0.347513 0
M  V30 511 H 49.2602 3.99049 -0.7426 0
M  V30 512 H 50.0262 3.6431 -3.20162 0
M  V30 513 H 45.9052 4.11847 -2.0713 0
M  V30 514 H 49.4492 4.26502 -5.52035 0
M  V30 515 H 45.3462 4.74067 -4.38099 0
M  V30 516 H 46.1142 5.06227 -6.43177 0
M  V30 517 N 48.7773 0.814389 1.34928 0
M  V30 518 C 50.0233 0.399013 1.98836 0
M  V30 519 C 50.3563 -1.03314 1.64438 0
M  V30 520 O 49.6313 -1.71811 0.911659 0
M  V30 521 C 49.9143 0.591629 3.55207 0
M  V30 522 C 49.7673 2.06928 3.99376 0
M  V30 523 C 51.0863 0.022199 4.40094 0
M  V30 524 H 48.2053 0.146451 0.722303 0
M  V30 525 H 50.8473 1.02537 1.59957 0
M  V30 526 H 48.9973 0.0584441 3.88456 0
M  V30 527 H 50.6693 2.66544 3.76499 0
M  V30 528 H 48.9123 2.56287 3.49999 0
M  V30 529 H 49.5833 2.1549 5.08201 0
M  V30 530 H 52.0593 0.477643 4.13349 0
M  V30 531 H 50.9353 0.186832 5.48582 0
M  V30 532 H 51.1963 -1.07215 4.28902 0
M  V30 533 N 50.2554 -1.46986 0.568584 0
M  V30 534 C 51.4854 -2.0653 0.0539173 0
M  V30 535 C 51.8934 -1.42004 -1.25026 0
M  V30 536 O 51.2364 -0.514541 -1.76347 0
M  V30 537 C 51.2984 -3.58938 -0.200854 0
M  V30 538 C 50.9624 -4.45572 1.01559 0
M  V30 539 C 51.9594 -4.82986 1.92407 0
M  V30 540 C 49.6444 -4.8692 1.23346 0
M  V30 541 C 51.6384 -5.60559 3.03402 0
M  V30 542 C 49.3254 -5.64255 2.34649 0
M  V30 543 C 50.3234 -6.00986 3.24507 0
M  V30 544 O 50.0114 -6.76761 4.33878 0
M  V30 545 H 49.7434 -0.674292 0.0480234 0
M  V30 546 H 52.2974 -1.89812 0.784896 0
M  V30 547 H 50.5274 -3.73911 -0.986279 0
M  V30 548 H 52.2164 -4.0046 -0.662294 0
M  V30 549 H 52.9824 -4.51633 1.76785 0
M  V30 550 H 48.8614 -4.57789 0.543178 0
M  V30 551 H 52.4054 -5.89147 3.73565 0
M  V30 552 H 48.3024 -5.95021 2.5024 0
M  V30 553 H 49.0704 -6.95168 4.32068 0
M  V30 554 N 51.7335 -0.305618 -1.54608 0
M  V30 555 C 52.6635 0.561482 -2.26649 0
M  V30 556 C 53.6445 1.13415 -1.26772 0
M  V30 557 O 54.8295 1.16262 -1.55553 0
M  V30 558 C 51.9595 1.73122 -3.01075 0
M  V30 559 C 50.9135 1.2887 -4.08138 0
M  V30 560 C 50.2395 2.54396 -4.70305 0
M  V30 561 C 51.5395 0.416578 -5.20636 0
M  V30 562 H 53.2335 -0.0393902 -2.99374 0
M  V30 563 H 50.7795 -0.020385 -1.43986 0
M  V30 564 H 52.7325 2.34396 -3.50195 0
M  V30 565 H 51.4565 2.3584 -2.25936 0
M  V30 566 H 50.1155 0.698991 -3.59875 0
M  V30 567 H 49.7635 3.15439 -3.918 0
M  V30 568 H 49.4635 2.25486 -5.42614 0
M  V30 569 H 50.9875 3.16464 -5.2219 0
M  V30 570 H 52.4015 0.935116 -5.65622 0
M  V30 571 H 50.7985 0.221046 -5.99693 0
M  V30 572 H 51.8685 -0.557162 -4.81688 0
M  V30 573 N 53.2116 1.57565 -0.0334293 0
M  V30 574 C 54.4366 1.96689 0.657895 0
M  V30 575 C 54.8616 0.910057 1.64619 0
M  V30 576 O 54.2196 -0.128598 1.80843 0
M  V30 577 C 54.2676 3.34905 1.33683 0
M  V30 578 O 53.3716 3.31574 2.45219 0
M  V30 579 H 52.7126 0.641205 0.172489 0
M  V30 580 H 55.2426 2.04372 -0.0965621 0
M  V30 581 H 55.2526 3.71234 1.69262 0
M  V30 582 H 53.9276 4.11366 0.612411 0
M  V30 583 H 52.5046 3.06968 2.11719 0
M  V30 584 N 54.6897 -0.239769 1.55765 0
M  V30 585 C 55.6227 -1.32356 1.85895 0
M  V30 586 C 56.6007 -1.46053 0.714662 0
M  V30 587 O 57.7847 -1.62154 0.961157 0
M  V30 588 C 54.9117 -2.6962 2.04994 0
M  V30 589 C 53.9577 -2.73036 3.27648 0
M  V30 590 S 54.7907 -2.28929 4.84099 0
M  V30 591 C 55.9467 -3.68103 5.06212 0
M  V30 592 H 56.1797 -1.06601 2.77531 0
M  V30 593 H 53.7127 -0.441112 1.47965 0
M  V30 594 H 55.6707 -3.48653 2.16682 0
M  V30 595 H 54.3317 -2.92609 1.14188 0
M  V30 596 H 53.5247 -3.7386 3.38 0
M  V30 597 H 53.1267 -2.02052 3.14723 0
M  V30 598 H 55.4187 -4.63656 4.93993 0
M  V30 599 H 56.3617 -3.6268 6.08168 0
M  V30 600 H 56.7697 -3.60947 4.34025 0
M  V30 601 N 56.1678 -1.49265 -0.50573 0
M  V30 602 C 57.3928 -1.62478 -1.28902 0
M  V30 603 C 57.8178 -0.294332 -1.85783 0
M  V30 604 O 57.1758 0.737412 -1.65626 0
M  V30 605 C 57.2238 -2.69268 -2.39848 0
M  V30 606 O 56.3278 -2.28113 -3.43567 0
M  V30 607 H 55.6688 -0.54399 -0.380751 0
M  V30 608 H 58.1988 -1.95421 -0.605952 0
M  V30 609 H 58.2088 -2.91291 -2.85681 0
M  V30 610 H 56.8838 -3.65846 -1.97812 0
M  V30 611 H 55.4608 -2.16401 -3.03685 0
M  V30 612 N 57.6459 0.756429 -1.3826 0
M  V30 613 C 58.8759 1.54341 -1.3734 0
M  V30 614 C 59.2839 1.89159 0.0393917 0
M  V30 615 O 58.6269 1.5307 1.01565 0
M  V30 616 C 58.6889 2.87238 -2.16182 0
M  V30 617 C 58.3529 2.74973 -3.65019 0
M  V30 618 C 59.3499 2.44962 -4.58574 0
M  V30 619 C 57.0349 2.92515 -4.08338 0
M  V30 620 C 59.0289 2.32642 -5.93428 0
M  V30 621 C 56.7159 2.79815 -5.43274 0
M  V30 622 C 57.7139 2.49921 -6.35632 0
M  V30 623 O 57.4019 2.37275 -7.68086 0
M  V30 624 H 57.1339 0.484281 -0.471643 0
M  V30 625 H 59.6879 0.944152 -1.82414 0
M  V30 626 H 57.9179 3.49342 -1.65822 0
M  V30 627 H 59.6069 3.48731 -2.07705 0
M  V30 628 H 60.3729 2.31081 -4.26412 0
M  V30 629 H 56.2519 3.14781 -3.368 0
M  V30 630 H 59.7959 2.0923 -6.65484 0
M  V30 631 H 55.6929 2.93269 -5.75034 0
M  V30 632 H 56.4609 2.52509 -7.78577 0
M  V30 633 N 59.124 1.23083 0.984299 0
M  V30 634 C 60.354 1.08556 1.75781 0
M  V30 635 C 60.762 -0.366171 1.85623 0
M  V30 636 O 60.105 -1.26524 1.33182 0
M  V30 637 C 60.167 1.63208 3.20318 0
M  V30 638 C 59.831 3.11922 3.33997 0
M  V30 639 C 60.828 4.09259 3.2063 0
M  V30 640 C 58.513 3.51552 3.58771 0
M  V30 641 C 60.507 5.4421 3.31835 0
M  V30 642 C 58.194 4.86649 3.69616 0
M  V30 643 C 59.192 5.82787 3.56157 0
M  V30 644 O 58.88 7.15431 3.66626 0
M  V30 645 H 58.612 0.380713 0.5586 0
M  V30 646 H 61.166 1.63321 1.2456 0
M  V30 647 H 59.396 1.0286 3.72769 0
M  V30 648 H 61.085 1.44216 3.79416 0
M  V30 649 H 61.851 3.79984 3.01392 0
M  V30 650 H 57.73 2.77239 3.6832 0
M  V30 651 H 61.274 6.1923 3.21247 0
M  V30 652 H 57.171 5.15601 3.88363 0
M  V30 653 H 57.939 7.23127 3.83445 0
M  V30 654 N 60.6021 -1.18246 1.0419 0
M  V30 655 C 61.8491 -1.88257 0.746017 0
M  V30 656 C 62.1771 -1.80429 -0.726331 0
M  V30 657 O 61.4321 -1.2 -1.54591 0
M  V30 658 C 61.7311 -3.38082 1.15911 0
M  V30 659 C 61.3971 -3.66114 2.63195 0
M  V30 660 C 60.0591 -3.73474 3.03432 0
M  V30 661 C 62.4111 -3.78398 3.5842 0
M  V30 662 C 59.7391 -3.90599 4.37778 0
M  V30 663 C 62.0911 -3.97039 4.92487 0
M  V30 664 C 60.7551 -4.02635 5.32392 0
M  V30 665 H 60.0251 -0.688883 0.272987 0
M  V30 666 H 62.6721 -1.3995 1.30715 0
M  V30 667 H 60.9771 -3.88377 0.516806 0
M  V30 668 H 62.6741 -3.90596 0.907516 0
M  V30 669 H 59.2641 -3.61003 2.3103 0
M  V30 670 H 63.4481 -3.72042 3.28479 0
M  V30 671 H 58.7041 -3.93175 4.68213 0
M  V30 672 H 62.8781 -4.05486 5.66175 0
M  V30 673 H 60.5051 -4.15657 6.36501 0
M  V30 674 N 62.0802 -0.821533 -1.34494 0
M  V30 675 C 63.3572 -0.33159 -1.92769 0
M  V30 676 C 63.7372 1.18088 -1.74981 0
M  V30 677 O 63.0852 1.98733 -1.12772 0
M  V30 678 C 63.2952 -0.759398 -3.40638 0
M  V30 679 C 64.6432 -0.757433 -4.1779 0
M  V30 680 O 65.6672 -0.70189 -3.49216 0
M  V30 681 O 64.5262 -0.829361 -5.4017 0
M  V30 682 H 61.6202 -0.0902502 -0.822061 0
M  V30 683 H 64.1662 -0.906231 -1.43477 0
M  V30 684 H 62.9382 -1.8012 -3.47379 0
M  V30 685 H 62.5612 -0.160378 -3.97276 0
M  V30 686 N 63.5583 1.46682 -0.576371 0
M  V30 687 C 64.9743 1.57822 -0.237562 0
M  V30 688 C 65.1743 1.57237 1.26011 0
M  V30 689 O 64.2303 1.48596 2.04146 0
M  V30 690 C 65.5433 2.87499 -0.881168 0
M  V30 691 C 67.0913 3.01119 -0.85417 0
M  V30 692 C 67.5663 4.33524 -1.4772 0
M  V30 693 N 69.0573 4.40207 -1.44125 0
M  V30 694 C 69.7923 5.4126 -1.89276 0
M  V30 695 N 69.2883 6.49021 -2.42371 0
M  V30 696 N 71.0813 5.32422 -1.80231 0
M  V30 697 H 63.2323 1.45306 -1.54919 0
M  V30 698 H 65.4953 0.692733 -0.647167 0
M  V30 699 H 65.2013 2.9372 -1.93447 0
M  V30 700 H 65.0753 3.75224 -0.385592 0
M  V30 701 H 67.4623 2.94485 0.190491 0
M  V30 702 H 67.5433 2.14887 -1.3877 0
M  V30 703 H 67.1873 4.40916 -2.52103 0
M  V30 704 H 67.1173 5.1852 -0.918947 0
M  V30 705 H 69.6083 3.62931 -1.05307 0
M  V30 706 H 69.9213 7.2233 -2.74698 0
M  V30 707 H 68.2663 6.49858 -2.46393 0
M  V30 708 H 71.4573 4.47137 -1.38514 0
M  V30 709 H 71.6303 6.11034 -2.15735 0
M  V30 710 N 65.0364 0.313813 1.54444 0
M  V30 711 C 66.3134 -0.345447 1.92525 0
M  V30 712 C 66.6934 -1.70667 1.24242 0
M  V30 713 O 66.0414 -2.25273 0.382654 0
M  V30 714 C 66.2514 -0.44737 3.46121 0
M  V30 715 C 67.5994 -0.712238 4.18584 0
M  V30 716 O 68.6234 -0.530678 3.52225 0
M  V30 717 O 67.4824 -1.06183 5.36085 0
M  V30 718 H 64.5764 -0.195407 0.803583 0
M  V30 719 H 67.1224 0.362813 1.65776 0
M  V30 720 H 65.8944 0.509043 3.87975 0
M  V30 721 H 65.5174 -1.20359 3.78945 0
M  V30 722 N 66.5145 -1.57545 0.0417849 0
M  V30 723 C 67.7915 -1.83642 -0.673433 0
M  V30 724 C 68.1715 -0.928298 -1.89594 0
M  V30 725 O 67.5195 0.0129955 -2.28496 0
M  V30 726 C 67.7295 -3.33155 -1.03964 0
M  V30 727 C 69.0775 -3.99941 -1.42592 0
M  V30 728 O 70.1015 -3.37725 -1.13226 0
M  V30 729 O 68.9605 -5.09619 -1.9736 0
M  V30 730 H 66.0545 -0.757638 -0.331533 0
M  V30 731 H 68.6005 -1.69554 0.070433 0
M  V30 732 H 67.3725 -3.9093 -0.170098 0
M  V30 733 H 66.9955 -3.52396 -1.84126 0
M  V30 734 N 67.9926 0.231505 -1.5589 0
M  V30 735 C 69.2386 0.95877 -1.78705 0
M  V30 736 C 69.5716 1.8438 -0.609725 0
M  V30 737 O 68.8466 1.90521 0.391426 0
M  V30 738 C 69.1296 1.8062 -3.11526 0
M  V30 739 C 68.9826 0.948328 -4.39689 0
M  V30 740 C 70.3016 2.78585 -3.40703 0
M  V30 741 H 67.4206 0.347129 -0.650131 0
M  V30 742 H 70.0626 0.228259 -1.88624 0
M  V30 743 H 68.2126 2.42902 -3.03201 0
M  V30 744 H 69.8846 0.343016 -4.60023 0
M  V30 745 H 68.1276 0.253314 -4.3306 0
M  V30 746 H 68.7986 1.57543 -5.29041 0
M  V30 747 H 71.2746 2.26439 -3.49091 0
M  V30 748 H 70.1506 3.34988 -4.34826 0
M  V30 749 H 70.4116 3.55825 -2.62375 0
M  V30 750 N 69.4707 1.49531 0.497807 0
M  V30 751 C 70.4337 1.65916 1.58128 0
M  V30 752 C 71.4337 0.530825 1.51786 0
M  V30 753 O 72.6237 0.797342 1.54881 0
M  V30 754 C 69.7557 1.65951 2.9778 0
M  V30 755 H 70.9487 2.62556 1.44929 0
M  V30 756 H 68.5017 1.38611 0.722275 0
M  V30 757 H 69.2367 0.709065 3.16453 0
M  V30 758 H 69.0217 2.47897 3.03792 0
M  V30 759 H 70.5117 1.80673 3.76493 0
M  V30 760 N 70.9488 -0.749086 1.3866 0
M  V30 761 C 71.8788 -1.8764 1.38973 0
M  V30 762 C 72.8598 -1.68178 0.255004 0
M  V30 763 O 74.0448 -1.88704 0.458754 0
M  V30 764 C 71.1748 -3.25222 1.21851 0
M  V30 765 C 70.1288 -3.59295 2.32575 0
M  V30 766 C 69.4548 -4.95663 2.00555 0
M  V30 767 C 70.7548 -3.63709 3.7485 0
M  V30 768 H 72.4488 -1.87635 2.3331 0
M  V30 769 H 69.9948 -0.901329 1.12303 0
M  V30 770 H 71.9478 -4.03746 1.20695 0
M  V30 771 H 70.6718 -3.25719 0.239775 0
M  V30 772 H 69.3308 -2.83093 2.32925 0
M  V30 773 H 68.9788 -4.92724 1.01154 0
M  V30 774 H 68.6788 -5.19429 2.74714 0
M  V30 775 H 70.2028 -5.7656 2.01024 0
M  V30 776 H 71.6168 -4.32338 3.76506 0
M  V30 777 H 70.0138 -3.98986 4.48252 0
M  V30 778 H 71.0838 -2.63834 4.06841 0
M  V30 779 N 72.4269 -1.23603 -0.977757 0
M  V30 780 C 73.3739 -1.01954 -2.07061 0
M  V30 781 C 74.3439 0.0638697 -1.65977 0
M  V30 782 O 75.5289 -0.0887624 -1.90593 0
M  V30 783 C 72.6689 -0.619658 -3.39491 0
M  V30 784 C 71.7819 -1.77547 -3.93829 0
M  V30 785 C 70.9169 -1.32212 -5.14484 0
M  V30 786 C 69.9559 -2.44852 -5.60994 0
M  V30 787 N 69.0929 -2.00456 -6.72876 0
M  V30 788 H 73.9329 -1.95495 -2.24913 0
M  V30 789 H 71.4699 -0.973861 -1.10247 0
M  V30 790 H 73.4279 -0.368898 -4.15566 0
M  V30 791 H 72.0579 0.278752 -3.21594 0
M  V30 792 H 71.1099 -2.14016 -3.14486 0
M  V30 793 H 72.4219 -2.62219 -4.24314 0
M  V30 794 H 71.5759 -1.02965 -5.97899 0
M  V30 795 H 70.3149 -0.445808 -4.85658 0
M  V30 796 H 69.3199 -2.74871 -4.76157 0
M  V30 797 H 70.5449 -3.33024 -5.91837 0
M  V30 798 H 68.4909 -1.15208 -6.45804 0
M  V30 799 H 68.4079 -2.78687 -7.02759 0
M  V30 800 H 69.6759 -1.7432 -7.59758 0
M  V30 801 N 73.905 1.17692 -1.04816 0
M  V30 802 C 74.853 2.23632 -0.63966 0
M  V30 803 C 75.847 1.6601 0.337219 0
M  V30 804 O 77.053 1.78844 0.203693 0
M  V30 805 H 73.428 0.727949 -0.188665 0
M  V30 806 H 75.399 2.55387 -1.54337 0
M  V30 807 C 74.148 3.4769 -0.0264051 0
M  V30 808 H 73.471 3.92331 -0.769164 0
M  V30 809 H 74.911 4.23418 0.222098 0
M  V30 810 C 73.37 3.13807 1.22584 0
M  V30 811 O 73.9 3.28236 2.31569 0
M  V30 812 N 72.106 2.68065 1.12202 0
M  V30 813 H 71.653 2.56525 0.235133 0
M  V30 814 H 71.611 2.45767 1.96076 0
M  V30 815 N 75.3831 0.828654 1.34056 0
M  V30 816 C 76.6301 0.419458 1.98108 0
M  V30 817 C 76.9581 -1.01886 1.65679 0
M  V30 818 O 76.2131 -1.72539 0.923512 0
M  V30 819 C 76.5121 0.575226 3.52741 0
M  V30 820 C 76.1781 1.98012 4.05095 0
M  V30 821 C 74.8401 2.36442 4.19104 0
M  V30 822 C 77.1921 2.89824 4.33188 0
M  V30 823 C 74.5201 3.66009 4.58535 0
M  V30 824 C 76.8721 4.1886 4.74066 0
M  V30 825 C 75.5361 4.5726 4.86281 0
M  V30 826 H 74.8061 0.153491 0.724929 0
M  V30 827 H 77.4531 1.05371 1.59904 0
M  V30 828 H 75.7581 -0.142385 3.91541 0
M  V30 829 H 77.4551 0.239057 4.00287 0
M  V30 830 H 74.0451 1.67162 3.94658 0
M  V30 831 H 78.2291 2.61375 4.21897 0
M  V30 832 H 73.4851 3.95579 4.66184 0
M  V30 833 H 77.6591 4.90086 4.94761 0
M  V30 834 H 75.2861 5.57707 5.16592 0
M  V30 835 N 76.8612 -1.46375 0.584142 0
M  V30 836 C 77.8242 -2.28784 -0.138108 0
M  V30 837 C 78.8242 -1.38471 -0.817462 0
M  V30 838 O 80.0142 -1.60833 -0.669199 0
M  V30 839 C 77.1462 -3.18892 -1.20503 0
M  V30 840 H 78.3392 -2.94117 0.586127 0
M  V30 841 H 75.8922 -1.52509 0.342171 0
M  V30 842 H 76.6272 -2.58309 -1.96079 0
M  V30 843 H 76.4122 -3.85388 -0.722384 0
M  V30 844 H 77.9022 -3.80914 -1.71155 0
M  V30 845 N 78.3393 -0.321999 -1.54275 0
M  V30 846 C 79.2863 0.544664 -2.24281 0
M  V30 847 C 80.2563 1.1129 -1.23303 0
M  V30 848 O 81.4413 1.15354 -1.51981 0
M  V30 849 C 78.5813 1.70045 -3.00298 0
M  V30 850 C 77.6943 1.16159 -4.1609 0
M  V30 851 C 76.8293 2.28293 -4.79641 0
M  V30 852 C 75.8683 1.71648 -5.8754 0
M  V30 853 N 75.0053 2.77438 -6.44959 0
M  V30 854 H 79.8453 -0.0588907 -2.97942 0
M  V30 855 H 77.3823 -0.0408345 -1.47043 0
M  V30 856 H 79.3403 2.38054 -3.42616 0
M  V30 857 H 77.9703 2.27531 -2.28975 0
M  V30 858 H 77.0223 0.373092 -3.78566 0
M  V30 859 H 78.3343 0.707087 -4.93763 0
M  V30 860 H 77.4883 3.0421 -5.2492 0
M  V30 861 H 76.2273 2.77079 -4.01346 0
M  V30 862 H 75.2323 0.942282 -5.41665 0
M  V30 863 H 76.4573 1.23741 -6.67731 0
M  V30 864 H 74.4033 3.25519 -5.69538 0
M  V30 865 H 74.3203 2.36547 -7.1804 0
M  V30 866 H 75.5883 3.53189 -6.94894 0
M  V30 867 N 79.8174 1.5752 -0.0501392 0
M  V30 868 C 81.0474 1.96678 0.632573 0
M  V30 869 C 81.4554 0.926298 1.64974 0
M  V30 870 O 80.7984 -0.09802 1.83438 0
M  V30 871 C 80.8604 3.32068 1.37735 0
M  V30 872 C 80.5244 4.54076 0.516131 0
M  V30 873 C 81.5214 5.19445 -0.217357 0
M  V30 874 C 79.2064 5.00304 0.44736 0
M  V30 875 C 81.2004 6.29378 -1.00807 0
M  V30 876 C 78.8874 6.10114 -0.347038 0
M  V30 877 C 79.8854 6.74512 -1.07344 0
M  V30 878 O 79.5734 7.82211 -1.85477 0
M  V30 879 H 79.3054 0.652193 0.177821 0
M  V30 880 H 81.8594 2.05091 -0.112543 0
M  V30 881 H 80.0894 3.20206 2.16807 0
M  V30 882 H 81.7784 3.55981 1.95019 0
M  V30 883 H 82.5444 4.84689 -0.173688 0
M  V30 884 H 78.4234 4.49971 1.00235 0
M  V30 885 H 81.9674 6.79575 -1.57556 0
M  V30 886 H 77.8644 6.44307 -0.392349 0
M  V30 887 H 78.6324 7.98982 -1.77678 0
M  V30 888 N 81.2955 -0.223234 1.56011 0
M  V30 889 C 82.5425 -0.947875 1.78946 0
M  V30 890 C 82.8705 -1.844 0.618608 0
M  V30 891 O 82.1255 -1.91629 -0.397093 0
M  V30 892 C 82.4245 -1.81948 3.0762 0
M  V30 893 C 82.0905 -1.07672 4.37856 0
M  V30 894 C 80.7525 -0.871544 4.73242 0
M  V30 895 C 83.1045 -0.552081 5.18268 0
M  V30 896 C 80.4325 -0.129791 5.86556 0
M  V30 897 C 82.7845 0.17632 6.32354 0
M  V30 898 C 81.4485 0.39277 6.66343 0
M  V30 899 H 80.7185 -0.346852 0.654809 0
M  V30 900 H 83.3655 -0.216171 1.90276 0
M  V30 901 H 81.6705 -2.61899 2.91404 0
M  V30 902 H 83.3675 -2.38227 3.22566 0
M  V30 903 H 79.9575 -1.24662 4.1007 0
M  V30 904 H 84.1415 -0.698076 4.91366 0
M  V30 905 H 79.3975 0.048153 6.11381 0
M  V30 906 H 83.5715 0.590367 6.93893 0
M  V30 907 H 81.1985 0.969466 7.53993 0
M  V30 908 N 82.7736 -1.49793 -0.48987 0
M  V30 909 C 83.7036 -1.70201 -1.59856 0
M  V30 910 C 84.6846 -0.55076 -1.60937 0
M  V30 911 O 85.8696 -0.787841 -1.77501 0
M  V30 912 C 82.9996 -1.77882 -2.98287 0
M  V30 913 C 81.9536 -2.92907 -3.12073 0
M  V30 914 C 81.2796 -2.85712 -4.51965 0
M  V30 915 C 82.5796 -4.3369 -2.91051 0
M  V30 916 H 84.2736 -2.63025 -1.43032 0
M  V30 917 H 81.8196 -1.26574 -0.686664 0
M  V30 918 H 83.7726 -1.90744 -3.75759 0
M  V30 919 H 82.4966 -0.816653 -3.16225 0
M  V30 920 H 81.1556 -2.79665 -2.37029 0
M  V30 921 H 80.8036 -1.8738 -4.66795 0
M  V30 922 H 80.5036 -3.62921 -4.62128 0
M  V30 923 H 82.0276 -3.00598 -5.31482 0
M  V30 924 H 83.4416 -4.47555 -3.58284 0
M  V30 925 H 81.8386 -5.12205 -3.12675 0
M  V30 926 H 82.9086 -4.47362 -1.87071 0
M  V30 927 N 84.2517 0.741722 -1.39055 0
M  V30 928 C 85.2017 1.84661 -1.33732 0
M  V30 929 C 86.1857 1.59397 -0.219401 0
M  V30 930 O 87.3777 1.71015 -0.456375 0
M  V30 931 C 84.5067 3.22512 -1.17647 0
M  V30 932 C 83.5927 3.53628 -2.34112 0
M  V30 933 N 83.9837 3.55723 -3.59576 0
M  V30 934 C 82.2817 3.83956 -2.26923 0
M  V30 935 C 82.9827 3.84443 -4.36553 0
M  V30 936 N 81.9587 4.01877 -3.66055 0
M  V30 937 H 85.7607 1.84576 -2.28711 0
M  V30 938 H 83.2747 0.939647 -1.32455 0
M  V30 939 H 85.2717 4.01597 -1.11917 0
M  V30 940 H 83.9317 3.2384 -0.236124 0
M  V30 941 H 84.9427 3.37196 -3.93089 0
M  V30 942 H 81.6197 3.92929 -1.41113 0
M  V30 943 H 83.0097 3.92588 -5.45274 0
M  V30 944 N 85.7298 1.2412 0.971189 0
M  V30 945 C 86.6618 0.988349 2.06795 0
M  V30 946 C 87.6748 -0.0409541 1.62748 0
M  V30 947 O 88.8638 0.195673 1.77424 0
M  V30 948 C 85.9638 0.469023 3.35639 0
M  V30 949 C 85.1368 1.56065 4.08611 0
M  V30 950 C 84.1958 1.04458 5.15728 0
M  V30 951 O 83.2218 1.73553 5.42096 0
M  V30 952 N 84.4238 -0.122817 5.8037 0
M  V30 953 H 87.1888 1.93265 2.29061 0
M  V30 954 H 84.7498 1.15102 1.13856 0
M  V30 955 H 86.7418 0.108613 4.04554 0
M  V30 956 H 85.3118 -0.380919 3.1027 0
M  V30 957 H 84.5318 2.09341 3.34021 0
M  V30 958 H 85.8198 2.29449 4.54126 0
M  V30 959 H 85.2178 -0.700563 5.61345 0
M  V30 960 H 83.7748 -0.424404 6.50417 0
M  V30 961 N 87.2079 -1.17134 1.05439 0
M  V30 962 C 88.4329 -1.91913 0.786396 0
M  V30 963 C 88.8579 -1.7643 -0.652234 0
M  V30 964 O 88.2159 -1.08372 -1.45345 0
M  V30 965 C 88.2639 -3.40921 1.17497 0
M  V30 966 O 87.3679 -4.11244 0.308589 0
M  V30 967 H 86.7089 -0.598215 0.288158 0
M  V30 968 H 89.2389 -1.48457 1.4079 0
M  V30 969 H 89.2489 -3.91668 1.14281 0
M  V30 970 H 87.9239 -3.5151 2.22292 0
M  V30 971 H 86.5009 -3.70731 0.40157 0
M  V30 972 N 88.686 -0.835752 -1.33615 0
M  V30 973 C 89.636 -0.238856 -2.26745 0
M  V30 974 C 90.62 0.604343 -1.49119 0
M  V30 975 O 91.812 0.456822 -1.71003 0
M  V30 976 C 88.941 0.587725 -3.38232 0
M  V30 977 C 88.027 -0.266811 -4.2326 0
M  V30 978 N 88.418 -1.34403 -4.87616 0
M  V30 979 C 86.716 -0.0533131 -4.45968 0
M  V30 980 C 87.417 -1.86819 -5.50884 0
M  V30 981 N 86.393 -1.17013 -5.30857 0
M  V30 982 H 90.195 -1.06266 -2.74016 0
M  V30 983 H 87.709 -0.679881 -1.47483 0
M  V30 984 H 89.706 1.03161 -4.03935 0
M  V30 985 H 88.366 1.40954 -2.9251 0
M  V30 986 H 89.377 -1.7269 -4.88261 0
M  V30 987 H 86.054 0.735312 -4.10974 0
M  V30 988 H 87.444 -2.7701 -6.1214 0
M  V30 989 N 90.1641 1.46063 -0.591896 0
M  V30 990 C 91.0741 2.34192 0.13831 0
M  V30 991 C 92.0901 1.50305 0.876608 0
M  V30 992 O 93.2661 1.8315 0.837728 0
M  V30 993 C 90.3311 3.27656 1.13326 0
M  V30 994 C 89.3921 4.27445 0.39863 0
M  V30 995 C 88.6251 5.16443 1.34618 0
M  V30 996 O 88.8481 5.08553 2.58321 0
M  V30 997 O 87.7821 5.95843 0.851768 0
M  V30 998 H 91.6081 2.98002 -0.58552 0
M  V30 999 H 89.1931 1.45188 -0.352239 0
M  V30 1000 H 91.0751 3.85291 1.70671 0
M  V30 1001 H 89.7501 2.6643 1.83839 0
M  V30 1002 H 88.6571 3.73471 -0.216895 0
M  V30 1003 H 89.9901 4.91482 -0.265709 0
M  V30 1004 N 91.6422 0.330177 1.54103 0
M  V30 1005 C 92.5522 -0.541534 2.28264 0
M  V30 1006 C 93.5682 -1.12351 1.32866 0
M  V30 1007 O 94.7442 -1.14206 1.65888 0
M  V30 1008 C 91.8092 -1.68322 3.03098 0
M  V30 1009 C 90.8702 -1.13238 4.14096 0
M  V30 1010 C 90.1032 -2.21966 4.85352 0
M  V30 1011 O 90.3262 -3.42437 4.56172 0
M  V30 1012 O 89.2602 -1.87013 5.7211 0
M  V30 1013 H 93.0862 0.060938 3.03639 0
M  V30 1014 H 90.6712 0.09565 1.49093 0
M  V30 1015 H 92.5532 -2.34777 3.49939 0
M  V30 1016 H 91.2282 -2.27176 2.30593 0
M  V30 1017 H 90.1352 -0.432736 3.71589 0
M  V30 1018 H 91.4682 -0.588898 4.88664 0
M  V30 1019 N 93.1203 -1.57491 0.0584922 0
M  V30 1020 C 94.5363 -1.56792 -0.298091 0
M  V30 1021 C 94.7363 -1.06679 -1.70944 0
M  V30 1022 O 93.7923 -0.726672 -2.41818 0
M  V30 1023 C 95.1053 -3.00461 -0.119879 0
M  V30 1024 C 96.6533 -3.1242 -0.190428 0
M  V30 1025 C 97.1283 -4.57982 -0.0406567 0
M  V30 1026 N 98.6193 -4.63099 -0.0966958 0
M  V30 1027 C 99.3543 -5.734 -0.00502943 0
M  V30 1028 N 98.8503 -6.9266 0.139402 0
M  V30 1029 N 100.643 -5.62067 -0.0611391 0
M  V30 1030 H 92.7943 -1.88386 0.98105 0
M  V30 1031 H 95.0573 -0.867865 0.381463 0
M  V30 1032 H 94.7633 -3.41187 0.85349 0
M  V30 1033 H 94.6373 -3.66843 -0.877833 0
M  V30 1034 H 97.0243 -2.71589 -1.15427 0
M  V30 1035 H 97.1053 -2.48702 0.598405 0
M  V30 1036 H 96.7493 -4.995 0.919897 0
M  V30 1037 H 96.6793 -5.19715 -0.848727 0
M  V30 1038 H 99.1703 -3.77331 -0.207277 0
M  V30 1039 H 99.4833 -7.72536 0.201855 0
M  V30 1040 H 97.8283 -6.94781 0.174586 0
M  V30 1041 H 101.019 -4.67782 -0.172583 0
M  V30 1042 H 101.192 -6.47999 0.0137562 0
M  V30 1043 N 94.5984 0.214957 -1.56127 0
M  V30 1044 C 95.5084 1.28727 -1.96129 0
M  V30 1045 C 96.5244 1.50916 -0.866044 0
M  V30 1046 O 97.7004 1.63918 -1.17016 0
M  V30 1047 C 94.7654 2.61569 -2.27558 0
M  V30 1048 C 93.8264 2.47625 -3.50685 0
M  V30 1049 C 93.0594 3.74132 -3.80606 0
M  V30 1050 O 93.2824 4.77438 -3.12104 0
M  V30 1051 O 92.2164 3.70849 -4.74083 0
M  V30 1052 H 96.0424 0.977855 -2.87527 0
M  V30 1053 H 93.6274 0.418358 -1.43423 0
M  V30 1054 H 95.5094 3.40012 -2.48938 0
M  V30 1055 H 94.1844 2.92178 -1.39332 0
M  V30 1056 H 93.0914 1.67361 -3.34576 0
M  V30 1057 H 94.4244 2.21954 -4.39315 0
M  V30 1058 N 96.0765 1.50051 0.48192 0
M  V30 1059 C 97.0265 1.64512 1.5786 0
M  V30 1060 C 98.0105 0.500073 1.52932 0
M  V30 1061 O 99.2025 0.753964 1.60139 0
M  V30 1062 C 96.3315 1.73263 2.9637 0
M  V30 1063 C 95.4175 2.93409 3.06222 0
M  V30 1064 N 95.8085 4.17236 2.85915 0
M  V30 1065 C 94.1065 2.91742 3.37346 0
M  V30 1066 C 94.8075 4.981 3.00451 0
M  V30 1067 N 93.7835 4.3184 3.30174 0
M  V30 1068 H 97.5855 2.57955 1.40842 0
M  V30 1069 H 95.0995 1.47086 0.688439 0
M  V30 1070 H 97.0965 1.81724 3.75209 0
M  V30 1071 H 95.7565 0.809711 3.14442 0
M  V30 1072 H 96.7675 4.46909 2.6171 0
M  V30 1073 H 93.4445 2.08907 3.61475 0
M  V30 1074 H 94.8345 6.06532 2.89082 0
M  V30 1075 N 97.5546 -0.734337 1.39446 0
M  V30 1076 C 98.5176 -1.83004 1.37994 0
M  V30 1077 C 99.5176 -1.58397 0.276938 0
M  V30 1078 O 100.708 -1.65785 0.534875 0
M  V30 1079 C 97.8396 -3.20802 1.1532 0
M  V30 1080 H 99.0326 -1.85694 2.35494 0
M  V30 1081 H 96.5856 -0.938059 1.25021 0
M  V30 1082 H 97.3206 -3.23772 0.185036 0
M  V30 1083 H 97.1056 -3.4006 1.95197 0
M  V30 1084 H 98.5956 -4.00862 1.17046 0
M  V30 1085 N 99.0327 -1.24633 -0.964593 0
M  V30 1086 C 99.9427 -1.05859 -2.09359 0
M  V30 1087 C 100.959 0.00148855 -1.74 0
M  V30 1088 O 102.135 -0.197346 -2.00431 0
M  V30 1089 C 99.1997 -0.668879 -3.40187 0
M  V30 1090 C 98.2607 -1.80578 -3.89474 0
M  V30 1091 C 97.4937 -1.43457 -5.14058 0
M  V30 1092 O 97.7167 -0.325775 -5.69469 0
M  V30 1093 O 96.6507 -2.2613 -5.57807 0
M  V30 1094 H 100.477 -2.00516 -2.28094 0
M  V30 1095 H 98.0617 -1.03481 -1.0776 0
M  V30 1096 H 99.9437 -0.463211 -4.18846 0
M  V30 1097 H 98.6187 0.248536 -3.22744 0
M  V30 1098 H 97.5257 -2.06623 -3.11862 0
M  V30 1099 H 98.8587 -2.70208 -4.11398 0
M  V30 1100 N 100.511 1.16574 -1.06058 0
M  V30 1101 C 101.458 2.20883 -0.669263 0
M  V30 1102 C 102.428 1.62729 0.332918 0
M  V30 1103 O 103.613 1.895 0.222346 0
M  V30 1104 C 100.753 3.45049 -0.0593572 0
M  V30 1105 C 99.8658 4.17458 -1.11143 0
M  V30 1106 C 99.0008 5.29135 -0.467916 0
M  V30 1107 C 98.0398 5.93343 -1.50369 0
M  V30 1108 N 97.1768 6.96516 -0.883706 0
M  V30 1109 H 102.017 2.53709 -1.5632 0
M  V30 1110 H 99.5538 1.24616 -0.781625 0
M  V30 1111 H 101.512 4.16033 0.311771 0
M  V30 1112 H 100.142 3.12781 0.797992 0
M  V30 1113 H 99.1938 3.45101 -1.60029 0
M  V30 1114 H 100.506 4.61307 -1.89731 0
M  V30 1115 H 99.6598 6.06684 -0.0436871 0
M  V30 1116 H 98.3988 4.86443 0.349864 0
M  V30 1117 H 97.4038 5.14517 -1.93784 0
M  V30 1118 H 98.6288 6.38114 -2.32352 0
M  V30 1119 H 96.5748 6.55943 -0.086595 0
M  V30 1120 H 96.4918 7.38723 -1.607 0
M  V30 1121 H 97.7598 7.77993 -0.484543 0
M  V30 1122 N 101.989 0.842826 1.3317 0
M  V30 1123 C 102.919 0.294028 2.31641 0
M  V30 1124 C 103.9 -0.600401 1.59151 0
M  V30 1125 O 105.085 -0.523124 1.87022 0
M  V30 1126 C 102.215 -0.528416 3.43257 0
M  V30 1127 C 101.169 0.27056 4.27144 0
M  V30 1128 C 100.495 -0.675881 5.30411 0
M  V30 1129 C 101.795 1.48981 5.00602 0
M  V30 1130 H 103.489 1.11681 2.77791 0
M  V30 1131 H 101.035 0.538478 1.33553 0
M  V30 1132 H 102.988 -0.922674 4.11175 0
M  V30 1133 H 101.712 -1.38445 2.95805 0
M  V30 1134 H 100.371 0.646427 3.60856 0
M  V30 1135 H 100.019 -1.52842 4.79216 0
M  V30 1136 H 99.7189 -0.145374 5.8742 0
M  V30 1137 H 101.243 -1.06757 6.01195 0
M  V30 1138 H 102.657 1.16849 5.61266 0
M  V30 1139 H 101.054 1.95739 5.6728 0
M  V30 1140 H 102.124 2.25746 4.29147 0
M  V30 1141 N 103.467 -1.45747 0.599634 0
M  V30 1142 C 104.4 -2.27547 -0.172552 0
M  V30 1143 C 105.378 -1.36657 -0.881116 0
M  V30 1144 O 106.562 -1.66081 -0.891595 0
M  V30 1145 C 103.689 -3.14829 -1.24903 0
M  V30 1146 C 102.735 -4.21603 -0.644465 0
M  V30 1147 S 103.568 -5.32754 0.541606 0
M  V30 1148 C 104.724 -6.23604 -0.535656 0
M  V30 1149 H 104.957 -2.92691 0.521468 0
M  V30 1150 H 102.49 -1.49473 0.386947 0
M  V30 1151 H 104.448 -3.65675 -1.86527 0
M  V30 1152 H 103.109 -2.48965 -1.91508 0
M  V30 1153 H 102.302 -4.82566 -1.45417 0
M  V30 1154 H 101.904 -3.73857 -0.103534 0
M  V30 1155 H 104.196 -6.62519 -1.41686 0
M  V30 1156 H 105.139 -7.0809 0.0376246 0
M  V30 1157 H 105.547 -5.58103 -0.84741 0
M  V30 1158 N 104.945 -0.338344 -1.53925 0
M  V30 1159 C 105.892 0.520845 -2.24846 0
M  V30 1160 C 106.862 1.09976 -1.24477 0
M  V30 1161 O 108.047 1.13735 -1.53196 0
M  V30 1162 C 105.187 1.6685 -3.02084 0
M  V30 1163 C 104.3 1.11739 -4.17299 0
M  V30 1164 C 103.435 2.23193 -4.82036 0
M  V30 1165 C 102.474 1.65407 -5.89328 0
M  V30 1166 N 101.611 2.70582 -6.47866 0
M  V30 1167 H 106.451 -0.0904881 -2.97863 0
M  V30 1168 H 103.988 -0.0564282 -1.46992 0
M  V30 1169 H 105.946 2.34407 -3.45122 0
M  V30 1170 H 104.576 2.2509 -2.31375 0
M  V30 1171 H 103.628 0.332919 -3.7894 0
M  V30 1172 H 104.94 0.654677 -4.94485 0
M  V30 1173 H 104.094 2.98626 -5.28117 0
M  V30 1174 H 102.833 2.72807 -4.04262 0
M  V30 1175 H 101.838 0.884779 -5.42634 0
M  V30 1176 H 103.063 1.16652 -6.69006 0
M  V30 1177 H 101.009 3.1946 -5.72959 0
M  V30 1178 H 100.926 2.28917 -7.20509 0
M  V30 1179 H 102.194 3.45799 -6.98601 0
M  V30 1180 N 106.423 1.57458 -0.0668435 0
M  V30 1181 C 107.353 2.15468 0.899764 0
M  V30 1182 C 108.334 1.08042 1.31381 0
M  V30 1183 O 109.519 1.36054 1.38574 0
M  V30 1184 C 106.649 2.71232 2.16911 0
M  V30 1185 C 105.603 3.83781 1.89463 0
M  V30 1186 C 104.929 4.26127 3.22986 0
M  V30 1187 C 106.229 5.08238 1.20381 0
M  V30 1188 H 107.923 2.96488 0.416529 0
M  V30 1189 H 105.469 1.4262 0.198908 0
M  V30 1190 H 107.422 3.10458 2.84945 0
M  V30 1191 H 106.146 1.87426 2.67468 0
M  V30 1192 H 104.805 3.45051 1.23836 0
M  V30 1193 H 104.453 3.39249 3.71374 0
M  V30 1194 H 104.153 5.01993 3.05413 0
M  V30 1195 H 105.677 4.67966 3.92225 0
M  V30 1196 H 107.091 5.44811 1.78475 0
M  V30 1197 H 105.488 5.89349 1.13083 0
M  V30 1198 H 106.558 4.84558 0.182153 0
M  V30 1199 N 107.901 -0.206675 1.56239 0
M  V30 1200 C 108.833 -1.27997 1.9013 0
M  V30 1201 C 109.846 -1.42299 0.790883 0
M  V30 1202 O 111.035 -1.42931 1.06925 0
M  V30 1203 C 108.135 -2.65368 2.10792 0
M  V30 1204 C 107.308 -2.72824 3.41886 0
M  V30 1205 C 106.367 -3.9131 3.51799 0
M  V30 1206 O 105.393 -3.78953 4.24716 0
M  V30 1207 N 106.595 -5.06265 2.84035 0
M  V30 1208 H 109.36 -0.992444 2.82791 0
M  V30 1209 H 106.921 -0.396652 1.56966 0
M  V30 1210 H 108.913 -3.43039 2.14724 0
M  V30 1211 H 107.483 -2.86657 1.24685 0
M  V30 1212 H 106.703 -1.81515 3.49923 0
M  V30 1213 H 107.991 -2.74786 4.28217 0
M  V30 1214 H 107.389 -5.19203 2.246 0
M  V30 1215 H 105.946 -5.81925 2.93609 0
M  V30 1216 N 109.379 -1.50304 -0.473955 0
M  V30 1217 C 110.327 -1.69482 -1.59307 0
M  V30 1218 C 111.321 -0.560669 -1.59853 0
M  V30 1219 O 112.527 -0.741087 -1.64036 0
M  V30 1220 H 108.902 -0.534892 -0.528578 0
M  V30 1221 H 110.873 -2.63364 -1.40293 0
M  V30 1222 C 109.622 -1.80354 -2.97267 0
M  V30 1223 H 108.945 -2.67012 -2.97564 0
M  V30 1224 H 110.385 -1.97798 -3.75036 0
M  V30 1225 C 108.844 -0.55448 -3.32306 0
M  V30 1226 O 109.374 0.307661 -4.0052 0
M  V30 1227 N 107.58 -0.409354 -2.87702 0
M  V30 1228 H 107.127 -1.11196 -2.32364 0
M  V30 1229 H 107.085 0.425223 -3.11511 0
M  V30 1230 N 110.857 0.726932 -1.39834 0
M  V30 1231 C 111.789 1.85147 -1.35104 0
M  V30 1232 C 112.802 1.60736 -0.258392 0
M  V30 1233 O 113.991 1.70821 -0.517931 0
M  V30 1234 C 111.091 3.21332 -1.07697 0
M  V30 1235 C 110.264 3.73033 -2.28396 0
M  V30 1236 C 109.323 4.87802 -1.97322 0
M  V30 1237 O 108.349 5.01043 -2.70083 0
M  V30 1238 N 109.551 5.72768 -0.944273 0
M  V30 1239 H 112.316 1.89706 -2.32017 0
M  V30 1240 H 109.877 0.908006 -1.3404 0
M  V30 1241 H 111.869 3.95691 -0.849144 0
M  V30 1242 H 110.439 3.11992 -0.194909 0
M  V30 1243 H 109.659 2.89934 -2.6708 0
M  V30 1244 H 110.947 4.0431 -3.08887 0
M  V30 1245 H 110.345 5.64669 -0.341427 0
M  V30 1246 H 108.902 6.4716 -0.776346 0
M  V30 1247 N 112.336 1.25143 0.95797 0
M  V30 1248 C 113.752 1.01892 1.22842 0
M  V30 1249 C 113.952 -0.266311 1.99732 0
M  V30 1250 O 113.008 -0.979913 2.3271 0
M  V30 1251 C 114.321 2.24004 2.00606 0
M  V30 1252 C 115.869 2.28731 2.13662 0
M  V30 1253 C 116.344 3.5049 2.94823 0
M  V30 1254 N 117.835 3.50866 3.02403 0
M  V30 1255 C 118.57 4.4174 3.65586 0
M  V30 1256 N 118.066 5.42882 4.30408 0
M  V30 1257 N 119.859 4.29429 3.62694 0
M  V30 1258 H 112.01 2.07718 0.443493 0
M  V30 1259 H 114.273 0.912031 0.258657 0
M  V30 1260 H 113.979 3.17395 1.51503 0
M  V30 1261 H 113.853 2.26907 3.01319 0
M  V30 1262 H 116.24 1.35865 2.61963 0
M  V30 1263 H 116.321 2.29848 1.12265 0
M  V30 1264 H 115.965 4.43676 2.47213 0
M  V30 1265 H 115.895 3.46617 3.96439 0
M  V30 1266 H 118.386 2.777 2.56302 0
M  V30 1267 H 118.699 6.0844 4.76467 0
M  V30 1268 H 117.044 5.46758 4.29047 0
M  V30 1269 H 120.235 3.49643 3.11236 0
M  V30 1270 H 120.408 5.00448 4.1165 0
M  V30 1271 N 113.814 -1.1601 1.06675 0
M  V30 1272 C 115.062 -1.86264 0.784229 0
M  V30 1273 C 115.383 -1.82328 -0.691488 0
M  V30 1274 O 114.653 -1.25947 -1.50047 0
M  V30 1275 H 113.233 -0.689621 0.28711 0
M  V30 1276 H 115.895 -1.40664 1.34906 0
M  V30 1277 H 114.991 -2.91595 1.11259 0
M  V30 1278 N 115.292 -0.849877 -1.32721 0
M  V30 1279 C 116.54 -0.450032 -1.97026 0
M  V30 1280 C 116.861 0.996604 -1.67609 0
M  V30 1281 O 116.131 1.6958 -0.980786 0
M  V30 1282 H 114.711 -0.163426 -0.728904 0
M  V30 1283 H 117.373 -1.08526 -1.6189 0
M  V30 1284 H 116.469 -0.591146 -3.0645 0
M  V30 1285 N 116.77 1.45427 -0.607355 0
M  V30 1286 C 118.186 1.57283 -0.270985 0
M  V30 1287 C 118.386 1.59875 1.22647 0
M  V30 1288 O 117.442 1.52893 2.00948 0
M  V30 1289 C 118.755 2.85566 -0.941952 0
M  V30 1290 C 120.303 2.9924 -0.917849 0
M  V30 1291 C 120.778 4.30293 -1.56882 0
M  V30 1292 N 122.269 4.37051 -1.5343 0
M  V30 1293 C 123.004 5.37123 -2.00715 0
M  V30 1294 N 122.5 6.43734 -2.56084 0
M  V30 1295 N 124.293 5.28479 -1.91484 0
M  V30 1296 H 116.444 1.41988 -1.57966 0
M  V30 1297 H 118.707 0.67885 -0.661715 0
M  V30 1298 H 118.413 2.8955 -1.99633 0
M  V30 1299 H 118.287 3.74322 -0.465096 0
M  V30 1300 H 120.674 2.94822 0.127984 0
M  V30 1301 H 120.755 2.11895 -1.43297 0
M  V30 1302 H 120.399 4.35469 -2.61398 0
M  V30 1303 H 120.329 5.16454 -1.02873 0
M  V30 1304 H 122.82 3.60615 -1.12982 0
M  V30 1305 H 123.133 7.16341 -2.89958 0
M  V30 1306 H 121.478 6.44485 -2.60122 0
M  V30 1307 H 124.669 4.44098 -1.47967 0
M  V30 1308 H 124.842 6.0632 -2.28648 0
M  V30 1309 N 118.248 0.346503 1.53744 0
M  V30 1310 C 119.497 -0.250122 2.00143 0
M  V30 1311 C 119.81 -1.51418 1.23822 0
M  V30 1312 O 121.016 -2.18823 1.60713 0
M  V30 1313 C 119.472 -0.496252 3.56462 0
M  V30 1314 C 119.08 0.752077 4.41642 0
M  V30 1315 C 120.824 -1.05157 4.11269 0
M  V30 1316 C 118.731 0.476583 5.89477 0
M  V30 1317 H 117.661 -0.0972409 0.747703 0
M  V30 1318 H 120.312 0.46229 1.77581 0
M  V30 1319 H 118.694 -1.26944 3.75102 0
M  V30 1320 H 119.868 1.5266 4.34778 0
M  V30 1321 H 118.183 1.22925 3.97842 0
M  V30 1322 H 120.78 -1.27269 5.19333 0
M  V30 1323 H 121.123 -2.00799 3.64672 0
M  V30 1324 H 121.656 -0.339019 3.96353 0
M  V30 1325 H 118.395 1.4028 6.40314 0
M  V30 1326 H 117.915 -0.259794 5.99237 0
M  V30 1327 H 119.594 0.0949315 6.4693 0
M  V30 1328 N 119.726 -1.57421 0.075193 0
M  V30 1329 C 120.973 -1.93618 -0.593146 0
M  V30 1330 C 121.301 -0.955484 -1.69413 0
M  V30 1331 O 120.556 0.0283251 -1.9568 0
M  V30 1332 C 120.855 -3.36428 -1.20626 0
M  V30 1333 C 120.521 -4.50307 -0.231078 0
M  V30 1334 C 119.183 -4.81186 0.0371936 0
M  V30 1335 C 121.535 -5.19374 0.435888 0
M  V30 1336 C 118.863 -5.78466 0.979461 0
M  V30 1337 C 121.215 -6.17665 1.3665 0
M  V30 1338 C 119.879 -6.46958 1.6432 0
M  V30 1339 H 119.149 -0.708499 -0.217047 0
M  V30 1340 H 121.796 -1.90937 0.146793 0
M  V30 1341 H 120.101 -3.35592 -2.02201 0
M  V30 1342 H 121.798 -3.61727 -1.73073 0
M  V30 1343 H 118.388 -4.26227 -0.450357 0
M  V30 1344 H 122.572 -4.95711 0.241748 0
M  V30 1345 H 117.828 -5.99487 1.20106 0
M  V30 1346 H 122.002 -6.70284 1.88924 0
M  V30 1347 H 119.629 -7.2215 2.37494 0
M  V30 1348 N 121.204 0.198386 -1.56346 0
M  V30 1349 C 122.134 1.24865 -1.9731 0
M  V30 1350 C 123.115 1.47651 -0.844576 0
M  V30 1351 O 124.3 1.59444 -1.10866 0
M  V30 1352 C 121.43 2.59358 -2.30977 0
M  V30 1353 C 120.384 2.5119 -3.46537 0
M  V30 1354 C 119.71 3.89926 -3.65871 0
M  V30 1355 C 121.01 2.03977 -4.80823 0
M  V30 1356 H 122.704 0.908252 -2.85291 0
M  V30 1357 H 120.25 0.435462 -1.37258 0
M  V30 1358 H 122.203 3.33011 -2.58228 0
M  V30 1359 H 120.927 2.95132 -1.39874 0
M  V30 1360 H 119.586 1.79993 -3.19371 0
M  V30 1361 H 119.234 4.23046 -2.72105 0
M  V30 1362 H 118.934 3.85336 -4.4361 0
M  V30 1363 H 120.458 4.65205 -3.95495 0
M  V30 1364 H 121.872 2.67386 -5.07127 0
M  V30 1365 H 120.269 2.10397 -5.62008 0
M  V30 1366 H 121.339 0.992861 -4.74626 0
M  V30 1367 N 122.682 1.50554 0.465978 0
M  V30 1368 C 123.614 1.65949 1.58093 0
M  V30 1369 C 124.627 0.540827 1.53554 0
M  V30 1370 O 125.816 0.814187 1.5885 0
M  V30 1371 C 122.916 1.63261 2.96983 0
M  V30 1372 C 122.089 2.91245 3.26336 0
M  V30 1373 C 121.148 2.8113 4.44806 0
M  V30 1374 O 120.174 3.55086 4.44862 0
M  V30 1375 N 121.376 1.95032 5.46756 0
M  V30 1376 H 124.141 2.62122 1.45301 0
M  V30 1377 H 121.702 1.48082 0.65448 0
M  V30 1378 H 123.694 1.54101 3.74212 0
M  V30 1379 H 122.264 0.748032 3.03518 0
M  V30 1380 H 121.484 3.14493 2.37672 0
M  V30 1381 H 122.772 3.76022 3.42761 0
M  V30 1382 H 122.17 1.3427 5.49534 0
M  V30 1383 H 120.727 1.91772 6.2295 0
M  V30 1384 N 124.16 -0.719506 1.40217 0
M  V30 1385 C 125.437 -1.47221 1.28784 0
M  V30 1386 C 125.817 -2.10883 -0.0956067 0
M  V30 1387 O 125.165 -1.99833 -1.10811 0
M  V30 1388 C 125.375 -2.5111 2.42373 0
M  V30 1389 C 126.723 -3.17053 2.82423 0
M  V30 1390 O 127.747 -2.61429 2.41937 0
M  V30 1391 O 126.606 -4.17742 3.52355 0
M  V30 1392 H 123.7 -0.654491 0.50554 0
M  V30 1393 H 126.246 -0.752014 1.52128 0
M  V30 1394 H 125.018 -2.02556 3.34793 0
M  V30 1395 H 124.641 -3.3067 2.20778 0
M  V30 1396 N 125.638 -1.25649 -0.95132 0
M  V30 1397 C 126.887 -1.09988 -1.69073 0
M  V30 1398 C 127.2 0.358355 -1.92289 0
M  V30 1399 O 128.406 0.635466 -2.63958 0
M  V30 1400 C 126.862 -1.92012 -3.044 0
M  V30 1401 C 126.47 -3.42347 -2.88968 0
M  V30 1402 C 128.214 -1.8493 -3.82101 0
M  V30 1403 C 126.121 -4.16655 -4.19705 0
M  V30 1404 H 125.051 -0.407993 -0.63408 0
M  V30 1405 H 127.702 -1.49873 -1.05879 0
M  V30 1406 H 126.084 -1.44952 -3.68517 0
M  V30 1407 H 127.258 -3.97104 -2.33762 0
M  V30 1408 H 125.573 -3.50557 -2.24719 0
M  V30 1409 H 128.17 -2.37739 -4.78941 0
M  V30 1410 H 128.513 -0.817883 -4.08187 0
M  V30 1411 H 129.046 -2.29758 -3.2474 0
M  V30 1412 H 125.785 -5.20224 -3.98807 0
M  V30 1413 H 125.305 -3.66681 -4.74663 0
M  V30 1414 H 126.984 -4.24551 -4.88227 0
M  V30 1415 N 127.117 1.15442 -1.07289 0
M  V30 1416 C 128.064 2.20161 -0.692653 0
M  V30 1417 C 129.034 1.63073 0.31564 0
M  V30 1418 O 130.219 1.89725 0.202235 0
M  V30 1419 C 127.359 3.44967 -0.0959509 0
M  V30 1420 C 126.472 4.16256 -1.15564 0
M  V30 1421 C 125.607 5.28609 -0.524011 0
M  V30 1422 C 124.646 5.91715 -1.56653 0
M  V30 1423 N 123.783 6.9554 -0.957531 0
M  V30 1424 H 128.623 2.52037 -1.59002 0
M  V30 1425 H 126.16 1.2378 -0.794798 0
M  V30 1426 H 128.118 4.16341 0.267628 0
M  V30 1427 H 126.748 3.1361 0.764772 0
M  V30 1428 H 125.8 3.43385 -1.6368 0
M  V30 1429 H 127.112 4.59268 -1.94613 0
M  V30 1430 H 126.266 6.06604 -0.108032 0
M  V30 1431 H 125.005 4.86787 0.29825 0
M  V30 1432 H 124.01 5.12433 -1.9923 0
M  V30 1433 H 125.235 6.35614 -2.39107 0
M  V30 1434 H 123.181 6.55814 -0.156162 0
M  V30 1435 H 123.098 7.36977 -1.68526 0
M  V30 1436 H 124.366 7.77435 -0.567032 0
M  V30 1437 N 128.595 0.856903 1.32268 0
M  V30 1438 C 129.542 0.301172 2.28827 0
M  V30 1439 C 130.512 -0.593104 1.5515 0
M  V30 1440 O 131.697 -0.527537 1.83362 0
M  V30 1441 C 128.837 -0.502523 3.41422 0
M  V30 1442 C 127.95 0.417797 4.29975 0
M  V30 1443 C 127.085 -0.398749 5.29701 0
M  V30 1444 C 126.124 0.518827 6.09897 0
M  V30 1445 N 125.261 -0.260674 7.01616 0
M  V30 1446 H 130.101 1.12983 2.75751 0
M  V30 1447 H 127.638 0.568582 1.35667 0
M  V30 1448 H 129.596 -0.984141 4.05426 0
M  V30 1449 H 128.226 -1.29599 2.95642 0
M  V30 1450 H 127.278 1.01781 3.66531 0
M  V30 1451 H 128.59 1.12191 4.86019 0
M  V30 1452 H 127.744 -0.943435 5.9932 0
M  V30 1453 H 126.483 -1.13622 4.7428 0
M  V30 1454 H 125.488 1.07538 5.39181 0
M  V30 1455 H 126.713 1.25495 6.67404 0
M  V30 1456 H 124.659 -0.981198 6.4862 0
M  V30 1457 H 124.576 0.384364 7.55022 0
M  V30 1458 H 125.844 -0.787014 7.75517 0
M  V30 1459 N 130.073 -1.45103 0.615059 0
M  V30 1460 C 131.484 -1.85654 0.197383 0
M  V30 1461 C 131.835 -1.51433 -1.24749 0
M  V30 1462 O 130.96 -0.944608 -1.94695 0
M  V30 1463 C 131.555 -3.36972 0.351448 0
M  V30 1464 C 130.114 -3.76398 -0.011593 0
M  V30 1465 C 129.261 -2.69024 0.672394 0
M  V30 1466 H 132.212 -1.35797 0.821263 0
M  V30 1467 H 132.233 -3.78239 -0.414227 0
M  V30 1468 H 131.745 -3.61847 1.40314 0
M  V30 1469 H 129.846 -3.5714 -1.06217 0
M  V30 1470 H 129.959 -4.77532 0.387265 0
M  V30 1471 H 128.323 -2.54465 0.109284 0
M  V30 1472 H 129.106 -2.96735 1.72636 0
M  V30 1473 N 131.551 -0.354651 -1.53558 0
M  V30 1474 C 132.828 0.294281 -1.93374 0
M  V30 1475 C 133.208 1.67313 -1.28723 0
M  V30 1476 O 132.556 2.24179 -0.442247 0
M  V30 1477 C 132.766 0.355445 -3.47185 0
M  V30 1478 C 134.114 0.601007 -4.20325 0
M  V30 1479 O 135.138 0.437106 -3.53508 0
M  V30 1480 O 133.997 0.919322 -5.38712 0
M  V30 1481 H 131.091 0.174033 -0.808481 0
M  V30 1482 H 133.637 -0.406638 -1.64756 0
M  V30 1483 H 132.409 -0.611729 -3.86489 0
M  V30 1484 H 132.032 1.1027 -3.82003 0
M  V30 1485 N 133.029 1.57378 -0.0835403 0
M  V30 1486 C 134.269 1.95808 0.586381 0
M  V30 1487 C 134.633 0.963706 1.66062 0
M  V30 1488 O 135.834 1.23608 2.38693 0
M  V30 1489 C 134.105 3.38808 1.13771 0
M  V30 1490 S 135.664 3.99225 1.82112 0
M  V30 1491 H 132.482 0.684675 0.191679 0
M  V30 1492 H 135.084 1.94843 -0.160194 0
M  V30 1493 H 133.788 4.08954 0.344197 0
M  V30 1494 H 133.319 3.43344 1.92038 0
M  V30 1495 H 135.334 3.87087 3.10449 0
M  V30 1496 N 134.507 -0.190092 1.56449 0
M  V30 1497 C 135.784 -0.935886 1.71757 0
M  V30 1498 C 136.164 -2.01173 0.639726 0
M  V30 1499 O 135.512 -2.25827 -0.348502 0
M  V30 1500 C 135.722 -1.51775 3.1427 0
M  V30 1501 C 137.07 -1.99794 3.74656 0
M  V30 1502 O 138.094 -1.61607 3.1743 0
M  V30 1503 O 136.953 -2.70079 4.751 0
M  V30 1504 H 134.047 -0.439229 0.700719 0
M  V30 1505 H 136.593 -0.179395 1.68749 0
M  V30 1506 H 135.365 -0.742505 3.84191 0
M  V30 1507 H 134.988 -2.33894 3.21527 0
M  V30 1508 N 135.985 -1.50799 -0.457987 0
M  V30 1509 C 137.262 -1.52968 -1.21902 0
M  V30 1510 C 137.642 -0.281906 -2.09209 0
M  V30 1511 O 136.99 0.734076 -2.16388 0
M  V30 1512 C 137.2 -2.8326 -2.03875 0
M  V30 1513 C 138.548 -3.34425 -2.6162 0
M  V30 1514 O 139.572 -2.8467 -2.14106 0
M  V30 1515 O 138.431 -4.21188 -3.48228 0
M  V30 1516 H 135.525 -0.614129 -0.553873 0
M  V30 1517 H 138.071 -1.63098 -0.468739 0
M  V30 1518 H 136.843 -3.65543 -1.39621 0
M  V30 1519 H 136.466 -2.76195 -2.8601 0
M  V30 1520 N 137.463 0.71206 -1.40597 0
M  V30 1521 C 138.709 1.47292 -1.40274 0
M  V30 1522 C 139.064 1.92399 -0.00576812 0
M  V30 1523 O 138.357 1.65507 0.965297 0
M  V30 1524 C 138.551 2.71039 -2.32965 0
M  V30 1525 C 138.38 2.38035 -3.81536 0
M  V30 1526 C 137.15 2.29203 -4.50327 0
M  V30 1527 C 139.348 2.02076 -4.72938 0
M  V30 1528 N 137.33 1.88911 -5.84111 0
M  V30 1529 C 138.701 1.72412 -5.95545 0
M  V30 1530 C 140.756 1.88742 -4.60739 0
M  V30 1531 C 139.459 1.30756 -7.07316 0
M  V30 1532 C 141.485 1.4849 -5.72455 0
M  V30 1533 C 140.847 1.19726 -6.94151 0
M  V30 1534 H 136.946 0.536919 -0.568544 0
M  V30 1535 H 139.53 0.825424 -1.76337 0
M  V30 1536 H 137.701 3.33533 -1.99023 0
M  V30 1537 H 139.433 3.37404 -2.23474 0
M  V30 1538 H 136.188 2.47059 -4.04053 0
M  V30 1539 H 136.612 1.71293 -6.54972 0
M  V30 1540 H 141.254 2.0964 -3.67166 0
M  V30 1541 H 138.972 1.08601 -8.00769 0
M  V30 1542 H 142.558 1.38747 -5.65014 0
M  V30 1543 H 141.438 0.890482 -7.79128 0
M  V30 1544 N 138.941 1.26152 0.944643 0
M  V30 1545 C 139.851 1.09176 2.07648 0
M  V30 1546 C 140.867 0.0261935 1.7398 0
M  V30 1547 O 142.043 0.229208 2.00091 0
M  V30 1548 C 139.108 0.722915 3.39079 0
M  V30 1549 C 138.169 1.86752 3.86552 0
M  V30 1550 C 137.402 1.51617 5.11711 0
M  V30 1551 O 137.625 0.416331 5.68879 0
M  V30 1552 O 136.559 2.34975 5.54139 0
M  V30 1553 H 140.385 2.0412 2.24875 0
M  V30 1554 H 137.97 1.05182 1.061 0
M  V30 1555 H 139.852 0.529787 4.18056 0
M  V30 1556 H 138.527 -0.197159 3.23099 0
M  V30 1557 H 137.434 2.11558 3.08535 0
M  V30 1558 H 138.767 2.76719 4.07047 0
M  V30 1559 N 140.419 -1.14872 1.07899 0
M  V30 1560 C 141.644 -1.90202 0.826926 0
M  V30 1561 C 142.069 -1.77774 -0.614664 0
M  V30 1562 O 141.427 -1.11431 -1.43013 0
M  V30 1563 C 141.475 -3.38352 1.24702 0
M  V30 1564 O 140.579 -4.10497 0.39575 0
M  V30 1565 H 139.92 -0.591968 0.300782 0
M  V30 1566 H 142.45 -1.45437 1.43907 0
M  V30 1567 H 142.46 -3.89156 1.22563 0
M  V30 1568 H 141.135 -3.46715 2.29698 0
M  V30 1569 H 139.712 -3.69796 0.480117 0
M  V30 1570 N 141.898 -0.863906 -1.31812 0
M  V30 1571 C 143.146 -0.470904 -1.96537 0
M  V30 1572 C 143.467 0.978771 -1.68657 0
M  V30 1573 O 142.737 1.6853 -0.998717 0
M  V30 1574 H 141.317 -0.171148 -0.72713 0
M  V30 1575 H 143.979 -1.10236 -1.60729 0
M  V30 1576 H 143.075 -0.623616 -3.05806 0
M  V30 1577 N 143.376 1.44774 -0.622745 0
M  V30 1578 C 144.306 2.33382 0.0741861 0
M  V30 1579 C 145.287 1.47719 0.843387 0
M  V30 1580 O 146.472 1.76458 0.810934 0
M  V30 1581 C 143.602 3.30663 1.06204 0
M  V30 1582 C 142.556 4.26079 0.405037 0
M  V30 1583 C 141.882 5.13165 1.5022 0
M  V30 1584 C 143.182 5.1781 -0.683414 0
M  V30 1585 H 144.876 2.91905 -0.665713 0
M  V30 1586 H 142.422 1.40363 -0.321587 0
M  V30 1587 H 144.375 3.9153 1.55827 0
M  V30 1588 H 143.099 2.70331 1.83272 0
M  V30 1589 H 141.758 3.66532 -0.0704683 0
M  V30 1590 H 141.406 4.49191 2.26355 0
M  V30 1591 H 141.106 5.77812 1.06803 0
M  V30 1592 H 142.63 5.76902 2.00041 0
M  V30 1593 H 144.044 5.72661 -0.270631 0
M  V30 1594 H 142.441 5.91015 -1.04023 0
M  V30 1595 H 143.511 4.59326 -1.55395 0
M  V30 1596 N 144.854 0.36279 1.53368 0
M  V30 1597 C 145.802 -0.500155 2.27159 0
M  V30 1598 C 146.796 -1.08575 1.3003 0
M  V30 1599 O 148.002 -1.02927 1.47668 0
M  V30 1600 H 144.377 -0.180009 0.730138 0
M  V30 1601 H 146.348 0.14401 2.98052 0
M  V30 1602 C 145.097 -1.62937 3.07159 0
M  V30 1603 H 144.42 -1.18806 3.8174 0
M  V30 1604 H 145.86 -2.20795 3.61975 0
M  V30 1605 C 144.319 -2.57007 2.17829 0
M  V30 1606 O 144.849 -3.59752 1.78721 0
M  V30 1607 N 143.055 -2.26131 1.82518 0
M  V30 1608 H 142.602 -1.42616 2.14519 0
M  V30 1609 H 142.56 -2.89327 1.23034 0
M  V30 1610 N 146.332 -1.57332 0.0918853 0
M  V30 1611 C 147.295 -2.12708 -0.85369 0
M  V30 1612 C 148.295 -1.05561 -1.213 0
M  V30 1613 O 149.485 -1.31461 -1.14296 0
M  V30 1614 C 146.617 -2.64503 -2.15061 0
M  V30 1615 H 147.81 -2.97573 -0.3729 0
M  V30 1616 H 145.363 -1.55509 -0.157072 0
M  V30 1617 H 146.098 -1.83149 -2.67632 0
M  V30 1618 H 145.883 -3.4284 -1.90272 0
M  V30 1619 H 147.373 -3.07351 -2.82711 0
M  V30 1620 N 147.81 0.181792 -1.56548 0
M  V30 1621 C 148.743 1.25366 -1.90679 0
M  V30 1622 C 149.721 1.43299 -0.768376 0
M  V30 1623 O 150.905 1.58475 -1.02068 0
M  V30 1624 C 148.032 2.61826 -2.1486 0
M  V30 1625 C 147.078 2.60688 -3.37556 0
M  V30 1626 S 147.911 2.10804 -4.92262 0
M  V30 1627 C 149.067 3.49062 -5.19525 0
M  V30 1628 H 149.3 0.962277 -2.81296 0
M  V30 1629 H 146.833 0.385892 -1.495 0
M  V30 1630 H 148.791 3.40371 -2.29473 0
M  V30 1631 H 147.452 2.88169 -1.24969 0
M  V30 1632 H 146.645 3.61058 -3.51643 0
M  V30 1633 H 146.247 1.90232 -3.22006 0
M  V30 1634 H 148.539 4.45003 -5.10861 0
M  V30 1635 H 149.482 3.39859 -6.2121 0
M  V30 1636 H 149.89 3.4459 -4.47122 0
M  V30 1637 N 149.288 1.51039 0.449983 0
M  V30 1638 C 150.198 1.74261 1.57067 0
M  V30 1639 C 151.214 0.626363 1.62335 0
M  V30 1640 O 152.39 0.907162 1.79812 0
M  V30 1641 C 149.455 1.85114 2.93144 0
M  V30 1642 C 148.516 3.0893 2.98095 0
M  V30 1643 C 147.749 3.19256 4.27681 0
M  V30 1644 O 147.972 2.35835 5.19363 0
M  V30 1645 O 146.906 4.12144 4.38658 0
M  V30 1646 H 150.732 2.69303 1.40391 0
M  V30 1647 H 148.317 1.35389 0.631688 0
M  V30 1648 H 150.199 1.94311 3.73926 0
M  V30 1649 H 148.874 0.932588 3.09975 0
M  V30 1650 H 147.781 3.0522 2.16314 0
M  V30 1651 H 149.114 4.00433 2.86206 0
M  V30 1652 N 150.766 -0.704594 1.40972 0
M  V30 1653 C 152.006 -1.47691 1.41304 0
M  V30 1654 C 152.37 -1.91992 0.0178582 0
M  V30 1655 O 153.571 -2.68599 -0.103996 0
M  V30 1656 C 151.842 -2.66254 2.38419 0
M  V30 1657 S 153.401 -3.55516 2.57204 0
M  V30 1658 H 150.219 -0.504808 0.500689 0
M  V30 1659 H 152.821 -0.822962 1.77335 0
M  V30 1660 H 151.525 -2.31897 3.38603 0
M  V30 1661 H 151.056 -3.3655 2.03711 0
M  V30 1662 H 153.071 -4.61115 1.83268 0
M  V30 1663 N 152.244 -1.26651 -0.937939 0
M  V30 1664 C 153.207 -1.08546 -2.01867 0
M  V30 1665 C 154.207 -0.0327327 -1.60767 0
M  V30 1666 O 155.397 -0.276427 -1.71993 0
M  V30 1667 C 152.529 -0.651711 -3.34613 0
M  V30 1668 H 153.722 -2.04502 -2.1936 0
M  V30 1669 H 151.275 -1.09294 -1.11734 0
M  V30 1670 H 152.01 0.309696 -3.22818 0
M  V30 1671 H 151.795 -1.41189 -3.65798 0
M  V30 1672 H 153.285 -0.546973 -4.14002 0
M  V30 1673 N 153.722 1.14298 -1.08507 0
M  V30 1674 C 154.652 2.21542 -0.737646 0
M  V30 1675 C 155.633 1.67773 0.280377 0
M  V30 1676 O 156.818 1.93616 0.150521 0
M  V30 1677 C 153.948 3.46988 -0.147259 0
M  V30 1678 C 152.902 4.13789 -1.09374 0
M  V30 1679 C 152.228 5.33449 -0.365524 0
M  V30 1680 C 153.528 4.62208 -2.4323 0
M  V30 1681 H 155.222 2.5086 -1.6343 0
M  V30 1682 H 152.768 1.20576 -0.787243 0
M  V30 1683 H 154.721 4.21262 0.107808 0
M  V30 1684 H 153.445 3.17037 0.784538 0
M  V30 1685 H 152.104 3.4147 -1.33393 0
M  V30 1686 H 151.752 4.99759 0.57011 0
M  V30 1687 H 151.452 5.79088 -0.996512 0
M  V30 1688 H 152.976 6.10485 -0.118534 0
M  V30 1689 H 154.39 5.27952 -2.23472 0
M  V30 1690 H 152.787 5.18553 -3.02031 0
M  V30 1691 H 153.857 3.77224 -3.04681 0
M  V30 1692 N 155.201 0.870884 1.31352 0
M  V30 1693 C 156.151 0.298889 2.26032 0
M  V30 1694 C 157.135 -0.564595 1.50669 0
M  V30 1695 O 158.327 -0.411323 1.72154 0
M  V30 1696 C 155.456 -0.497842 3.39671 0
M  V30 1697 C 154.542 0.378937 4.22404 0
M  V30 1698 N 154.933 1.47284 4.83881 0
M  V30 1699 C 153.231 0.171535 4.4567 0
M  V30 1700 C 153.932 2.01359 5.45738 0
M  V30 1701 N 152.908 1.31047 5.27568 0
M  V30 1702 H 156.71 1.13494 2.71102 0
M  V30 1703 H 154.224 0.718745 1.45629 0
M  V30 1704 H 156.221 -0.924155 4.06528 0
M  V30 1705 H 154.881 -1.33149 2.96144 0
M  V30 1706 H 155.892 1.85575 4.8351 0
M  V30 1707 H 152.569 -0.626091 4.12779 0
M  V30 1708 H 153.959 2.93143 6.0458 0
M  V30 1709 N 156.679 -1.44442 0.630414 0
M  V30 1710 C 157.609 -2.33418 -0.0618083 0
M  V30 1711 C 158.59 -1.48165 -0.835541 0
M  V30 1712 O 159.775 -1.76886 -0.801564 0
M  V30 1713 C 156.905 -3.31222 -1.04449 0
M  V30 1714 C 155.859 -4.26288 -0.382436 0
M  V30 1715 C 155.185 -5.13954 -1.47497 0
M  V30 1716 C 156.485 -5.1744 0.710865 0
M  V30 1717 H 158.179 -2.91548 0.681184 0
M  V30 1718 H 155.725 -1.40191 0.329026 0
M  V30 1719 H 157.678 -3.92351 -1.53748 0
M  V30 1720 H 156.402 -2.71299 -1.81836 0
M  V30 1721 H 155.061 -3.6649 0.0899054 0
M  V30 1722 H 154.709 -4.50385 -2.2397 0
M  V30 1723 H 154.409 -5.7837 -1.03737 0
M  V30 1724 H 155.933 -5.77955 -1.96979 0
M  V30 1725 H 157.347 -5.72509 0.300996 0
M  V30 1726 H 155.744 -5.90455 1.07156 0
M  V30 1727 H 156.814 -4.58496 1.57829 0
M  V30 1728 N 158.157 -0.370918 -1.53173 0
M  V30 1729 C 159.067 0.480823 -2.2962 0
M  V30 1730 C 160.083 1.08789 -1.35798 0
M  V30 1731 O 161.259 1.09768 -1.68858 0
M  V30 1732 C 158.324 1.60227 -3.07454 0
M  V30 1733 C 157.385 1.0222 -4.16953 0
M  V30 1734 C 156.618 2.0902 -4.91066 0
M  V30 1735 O 156.841 3.30222 -4.65091 0
M  V30 1736 O 155.775 1.71778 -5.76867 0
M  V30 1737 H 159.601 -0.141421 -3.03371 0
M  V30 1738 H 157.186 -0.135146 -1.48787 0
M  V30 1739 H 159.068 2.25417 -3.56041 0
M  V30 1740 H 157.743 2.20982 -2.36535 0
M  V30 1741 H 156.65 0.334064 -3.72605 0
M  V30 1742 H 157.983 0.459131 -4.90054 0
M  V30 1743 N 159.635 1.57281 -0.100228 0
M  V30 1744 C 160.582 2.14305 0.856858 0
M  V30 1745 C 161.552 1.06296 1.27634 0
M  V30 1746 O 162.737 1.34109 1.35718 0
M  V30 1747 C 159.877 2.73184 2.10866 0
M  V30 1748 C 158.99 3.95442 1.73925 0
M  V30 1749 C 158.125 4.42468 2.93931 0
M  V30 1750 C 157.164 5.57303 2.5314 0
M  V30 1751 N 156.301 5.99158 3.65997 0
M  V30 1752 H 161.141 2.95772 0.363726 0
M  V30 1753 H 158.678 1.46139 0.167858 0
M  V30 1754 H 160.636 3.05442 2.84185 0
M  V30 1755 H 159.266 1.94437 2.57671 0
M  V30 1756 H 158.318 3.69464 0.905554 0
M  V30 1757 H 159.63 4.78769 1.39935 0
M  V30 1758 H 158.784 4.76537 3.75496 0
M  V30 1759 H 157.523 3.58052 3.31134 0
M  V30 1760 H 156.528 5.22857 1.70003 0
M  V30 1761 H 157.753 6.43471 2.17075 0
M  V30 1762 H 155.699 5.17687 4.02909 0
M  V30 1763 H 155.616 6.77295 3.35869 0
M  V30 1764 H 156.884 6.3786 4.48057 0
M  V30 1765 N 161.113 -0.173488 1.56642 0
M  V30 1766 C 162.061 -1.23417 1.97157 0
M  V30 1767 C 163.055 -1.45946 0.860013 0
M  V30 1768 O 164.261 -1.46551 1.04512 0
M  V30 1769 H 160.636 -0.414818 0.62724 0
M  V30 1770 H 162.607 -0.865582 2.8557 0
M  V30 1771 C 161.356 -2.5665 2.34576 0
M  V30 1772 H 160.679 -2.40137 3.19647 0
M  V30 1773 H 162.119 -3.2956 2.6677 0
M  V30 1774 C 160.578 -3.15245 1.18836 0
M  V30 1775 O 161.108 -3.98883 0.474869 0
M  V30 1776 N 159.314 -2.74303 0.959497 0
M  V30 1777 H 158.861 -2.0639 1.54146 0
M  V30 1778 H 158.819 -3.13844 0.186932 0
M  V30 1779 N 162.591 -1.51276 -0.441967 0
M  V30 1780 C 163.837 -1.63958 -1.19355 0
M  V30 1781 C 164.17 -0.352543 -1.90973 0
M  V30 1782 O 163.445 0.647627 -1.83401 0
M  V30 1783 C 163.728 -2.83979 -2.21422 0
M  V30 1784 C 163.581 -4.22646 -1.53918 0
M  V30 1785 C 164.9 -2.99521 -3.22451 0
M  V30 1786 H 162.019 -0.596709 -0.432559 0
M  V30 1787 H 164.661 -1.83748 -0.483398 0
M  V30 1788 H 162.811 -2.67237 -2.81987 0
M  V30 1789 H 164.483 -4.51045 -0.967256 0
M  V30 1790 H 162.726 -4.25558 -0.841615 0
M  V30 1791 H 163.397 -5.02609 -2.28229 0
M  V30 1792 H 165.873 -3.14944 -2.71937 0
M  V30 1793 H 164.749 -3.85072 -3.91166 0
M  V30 1794 H 165.01 -2.11391 -3.88287 0
M  V30 1795 N 164.069 0.697108 -1.41344 0
M  V30 1796 C 165.017 1.83237 -1.43272 0
M  V30 1797 C 166.011 1.66522 -0.310947 0
M  V30 1798 O 167.217 1.73402 -0.482899 0
M  V30 1799 H 163.592 0.603802 -0.448249 0
M  V30 1800 H 165.563 1.78727 -2.38954 0
M  V30 1801 C 164.312 3.21245 -1.33029 0
M  V30 1802 H 163.635 3.34723 -2.18633 0
M  V30 1803 H 165.075 4.00763 -1.38439 0
M  V30 1804 C 163.534 3.36873 -0.0424635 0
M  V30 1805 O 164.064 3.91177 0.913421 0
M  V30 1806 N 162.27 2.90581 0.0331145 0
M  V30 1807 H 161.817 2.46577 -0.745506 0
M  V30 1808 H 161.775 3.01416 0.894199 0
M  V30 1809 N 165.547 1.27147 0.931209 0
M  V30 1810 C 166.479 1.05364 2.03546 0
M  V30 1811 C 167.492 0.0108438 1.62796 0
M  V30 1812 O 168.681 0.25202 1.76712 0
M  V30 1813 C 165.781 0.575566 3.33977 0
M  V30 1814 C 164.954 1.68985 4.03439 0
M  V30 1815 C 164.013 1.20813 5.12143 0
M  V30 1816 O 163.039 1.90712 5.363 0
M  V30 1817 N 164.241 0.0618851 5.80467 0
M  V30 1818 H 167.006 2.00454 2.22796 0
M  V30 1819 H 164.567 1.18666 1.10136 0
M  V30 1820 H 166.559 0.237264 4.04004 0
M  V30 1821 H 165.129 -0.282016 3.11325 0
M  V30 1822 H 164.349 2.19861 3.27192 0
M  V30 1823 H 165.637 2.4378 4.46597 0
M  V30 1824 H 165.035 -0.521621 5.6329 0
M  V30 1825 H 163.592 -0.217264 6.51438 0
M  V30 1826 N 167.025 -1.13721 1.09112 0
M  V30 1827 C 168.25 -1.89314 0.847053 0
M  V30 1828 C 168.675 -1.78416 -0.595774 0
M  V30 1829 O 168.033 -1.12942 -1.41823 0
M  V30 1830 C 168.081 -3.3701 1.28284 0
M  V30 1831 O 167.185 -4.10054 0.439267 0
M  V30 1832 H 166.526 -0.588745 0.307044 0
M  V30 1833 H 169.056 -1.43902 1.45442 0
M  V30 1834 H 169.066 -3.87834 1.26683 0
M  V30 1835 H 167.741 -3.4426 2.33363 0
M  V30 1836 H 166.318 -3.69266 0.519312 0
M  V30 1837 N 168.503 -0.877838 -1.30888 0
M  V30 1838 C 169.433 -0.35534 -2.3078 0
M  V30 1839 C 170.414 0.557994 -1.60687 0
M  V30 1840 O 171.599 0.473355 -1.88343 0
M  V30 1841 C 168.729 0.437221 -3.44537 0
M  V30 1842 C 167.683 -0.383715 -4.26276 0
M  V30 1843 C 167.009 0.535014 -5.32017 0
M  V30 1844 C 168.309 -1.62201 -4.96476 0
M  V30 1845 H 170.003 -1.19007 -2.74732 0
M  V30 1846 H 167.549 -0.573698 -1.32078 0
M  V30 1847 H 169.502 0.813334 -4.13477 0
M  V30 1848 H 168.226 1.30553 -2.99372 0
M  V30 1849 H 166.885 -0.741874 -3.59015 0
M  V30 1850 H 166.533 1.40083 -4.831 0
M  V30 1851 H 166.233 -0.0104211 -5.87599 0
M  V30 1852 H 167.757 0.907799 -6.03814 0
M  V30 1853 H 169.171 -1.31689 -5.5797 0
M  V30 1854 H 167.568 -2.10711 -5.61891 0
M  V30 1855 H 168.638 -2.37044 -4.23011 0
M  V30 1856 N 169.982 1.44106 -0.638065 0
M  V30 1857 C 170.912 2.33448 0.0494287 0
M  V30 1858 C 171.893 1.48606 0.827672 0
M  V30 1859 O 173.078 1.77308 0.792173 0
M  V30 1860 C 170.208 3.31771 1.02691 0
M  V30 1861 C 169.162 4.26485 0.359823 0
M  V30 1862 C 168.488 5.14729 1.44769 0
M  V30 1863 C 169.788 5.17056 -0.738296 0
M  V30 1864 H 171.482 2.91183 -0.696636 0
M  V30 1865 H 169.028 1.40014 -0.336456 0
M  V30 1866 H 170.981 3.93161 1.51666 0
M  V30 1867 H 169.705 2.7226 1.80395 0
M  V30 1868 H 168.364 3.66437 -0.10934 0
M  V30 1869 H 168.012 4.51566 2.21578 0
M  V30 1870 H 167.712 5.78913 1.00668 0
M  V30 1871 H 169.236 5.78991 1.93911 0
M  V30 1872 H 170.65 5.72342 -0.331354 0
M  V30 1873 H 169.047 5.89879 -1.10286 0
M  V30 1874 H 170.117 4.57652 -1.60258 0
M  V30 1875 N 171.46 0.379036 1.52974 0
M  V30 1876 C 172.37 -0.468639 2.29872 0
M  V30 1877 C 173.386 -1.08067 1.36373 0
M  V30 1878 O 174.562 -1.08871 1.69438 0
M  V30 1879 C 171.627 -1.58594 3.083 0
M  V30 1880 C 170.688 -1.00007 4.17489 0
M  V30 1881 C 169.921 -2.06413 4.92168 0
M  V30 1882 O 170.144 -3.27751 4.66835 0
M  V30 1883 O 169.078 -1.68717 5.7777 0
M  V30 1884 H 172.904 0.157508 3.03291 0
M  V30 1885 H 170.489 0.143035 1.48714 0
M  V30 1886 H 172.371 -2.23525 3.57232 0
M  V30 1887 H 171.046 -2.19724 2.37703 0
M  V30 1888 H 169.953 -0.314299 3.72777 0
M  V30 1889 H 171.286 -0.433135 4.90291 0
M  V30 1890 N 172.938 -1.57226 0.108567 0
M  V30 1891 C 173.868 -2.17778 -0.84232 0
M  V30 1892 C 174.849 -1.11487 -1.2847 0
M  V30 1893 O 176.034 -1.39681 -1.34918 0
M  V30 1894 C 173.164 -2.76888 -2.09644 0
M  V30 1895 C 172.118 -3.88669 -1.79221 0
M  V30 1896 C 171.444 -4.34541 -3.11574 0
M  V30 1897 C 172.744 -5.11251 -1.06864 0
M  V30 1898 H 174.438 -2.97489 -0.337774 0
M  V30 1899 H 171.984 -1.43097 -0.161025 0
M  V30 1900 H 173.937 -3.17904 -2.76614 0
M  V30 1901 H 172.661 -1.94451 -2.62405 0
M  V30 1902 H 171.32 -3.48213 -1.14644 0
M  V30 1903 H 170.968 -3.48977 -3.62249 0
M  V30 1904 H 170.668 -5.09914 -2.91996 0
M  V30 1905 H 172.192 -4.782 -3.7968 0
M  V30 1906 H 173.606 -5.49352 -1.63968 0
M  V30 1907 H 172.003 -5.9214 -0.974178 0
M  V30 1908 H 173.073 -4.8487 -0.0536168 0
M  V30 1909 N 174.416 0.165178 -1.56732 0
M  V30 1910 C 175.366 1.20917 -1.93295 0
M  V30 1911 C 176.35 1.39488 -0.801985 0
M  V30 1912 O 177.542 1.41356 -1.06525 0
M  V30 1913 C 174.671 2.54718 -2.3016 0
M  V30 1914 C 173.757 2.39815 -3.49785 0
M  V30 1915 N 174.148 1.94637 -4.66851 0
M  V30 1916 C 172.446 2.70623 -3.54513 0
M  V30 1917 C 173.147 1.92344 -5.4898 0
M  V30 1918 N 172.123 2.34978 -4.9019 0
M  V30 1919 H 175.925 0.851675 -2.81289 0
M  V30 1920 H 173.439 0.373399 -1.58049 0
M  V30 1921 H 175.436 3.30165 -2.54552 0
M  V30 1922 H 174.096 2.91265 -1.43508 0
M  V30 1923 H 175.107 1.6488 -4.90953 0
M  V30 1924 H 171.784 3.11167 -2.78354 0
M  V30 1925 H 173.174 1.5906 -6.52801 0
M  V30 1926 N 175.894 1.51508 0.433938 0
M  V30 1927 C 176.841 1.73068 1.52696 0
M  V30 1928 C 177.811 0.572441 1.55924 0
M  V30 1929 O 178.996 0.807253 1.72882 0
M  V30 1930 C 176.136 1.86474 2.90381 0
M  V30 1931 C 175.249 3.14037 2.96656 0
M  V30 1932 C 174.384 3.18019 4.25485 0
M  V30 1933 C 173.423 4.39882 4.2564 0
M  V30 1934 N 172.56 4.41394 5.45999 0
M  V30 1935 H 177.4 2.66366 1.33615 0
M  V30 1936 H 174.937 1.32008 0.649018 0
M  V30 1937 H 176.895 1.92229 3.70275 0
M  V30 1938 H 175.525 0.965809 3.08013 0
M  V30 1939 H 174.577 3.17575 2.09404 0
M  V30 1940 H 175.889 4.0394 2.92633 0
M  V30 1941 H 175.043 3.22708 5.13755 0
M  V30 1942 H 173.782 2.2601 4.3217 0
M  V30 1943 H 172.787 4.35366 3.35763 0
M  V30 1944 H 174.012 5.33159 4.20617 0
M  V30 1945 H 171.958 3.52258 5.53399 0
M  V30 1946 H 171.875 5.25111 5.4387 0
M  V30 1947 H 173.143 4.50281 6.36292 0
M  V30 1948 N 177.372 -0.689602 1.41712 0
M  V30 1949 C 178.302 -1.81577 1.46806 0
M  V30 1950 C 179.283 -1.66945 0.326105 0
M  V30 1951 O 180.468 -1.86588 0.538377 0
M  V30 1952 C 177.598 -3.19762 1.35535 0
M  V30 1953 C 176.552 -3.49107 2.47605 0
M  V30 1954 C 175.878 -4.86711 2.21397 0
M  V30 1955 C 177.178 -3.47483 3.89939 0
M  V30 1956 H 178.872 -1.7757 2.41058 0
M  V30 1957 H 176.418 -0.852887 1.16025 0
M  V30 1958 H 178.371 -3.98263 1.3771 0
M  V30 1959 H 177.095 -3.24409 0.377708 0
M  V30 1960 H 175.754 -2.72959 2.44722 0
M  V30 1961 H 175.402 -4.8799 1.21961 0
M  V30 1962 H 175.102 -5.0731 2.96497 0
M  V30 1963 H 176.626 -5.67515 2.25297 0
M  V30 1964 H 178.04 -4.1598 3.94505 0
M  V30 1965 H 176.437 -3.79615 4.64771 0
M  V30 1966 H 177.507 -2.46341 4.17665 0
M  V30 1967 N 178.85 -1.27639 -0.924453 0
M  V30 1968 C 179.813 -1.10681 -2.00705 0
M  V30 1969 C 180.813 -0.0497823 -1.60723 0
M  V30 1970 O 182.003 -0.294654 -1.7169 0
M  V30 1971 C 179.135 -0.687164 -3.33902 0
M  V30 1972 H 180.328 -2.06817 -2.17179 0
M  V30 1973 H 177.881 -1.10473 -1.10569 0
M  V30 1974 H 178.616 0.275439 -3.23128 0
M  V30 1975 H 178.401 -1.45061 -3.6428 0
M  V30 1976 H 179.891 -0.590853 -4.13399 0
M  V30 1977 N 180.328 1.1314 -1.09713 0
M  V30 1978 C 181.556 1.88321 -0.856898 0
M  V30 1979 C 181.971 1.79276 0.592073 0
M  V30 1980 O 181.328 1.16142 1.40774 0
M  V30 1981 C 181.379 3.37812 -1.28706 0
M  V30 1982 O 181.1 3.46627 -2.67921 0
M  V30 1983 C 182.601 4.29952 -1.07964 0
M  V30 1984 H 179.821 0.596094 -0.308079 0
M  V30 1985 H 182.365 1.43205 -1.45988 0
M  V30 1986 H 180.52 3.805 -0.727912 0
M  V30 1987 H 180.934 4.39579 -2.8613 0
M  V30 1988 H 182.408 5.33159 -1.42986 0
M  V30 1989 H 182.885 4.39196 -0.0176577 0
M  V30 1990 H 183.491 3.93036 -1.62489 0
M  V30 1991 N 181.806 0.884767 1.30421 0
M  V30 1992 C 183.083 0.423185 1.90967 0
M  V30 1993 C 183.463 -1.09605 1.80416 0
M  V30 1994 O 182.811 -1.93126 1.22125 0
M  V30 1995 C 183.021 0.921056 3.36627 0
M  V30 1996 C 184.369 0.955903 4.137 0
M  V30 1997 O 185.393 0.867706 3.4547 0
M  V30 1998 O 184.252 1.08614 5.35598 0
M  V30 1999 H 181.346 0.129369 0.816819 0
M  V30 2000 H 183.892 0.973653 1.3899 0
M  V30 2001 H 182.664 1.96489 3.3839 0
M  V30 2002 H 182.287 0.349741 3.96059 0
M  V30 2003 N 183.284 -1.43765 0.645699 0
M  V30 2004 C 184.231 -2.30745 -0.0504648 0
M  V30 2005 C 185.201 -1.4432 -0.822241 0
M  V30 2006 O 186.386 -1.73202 -0.800358 0
M  V30 2007 C 183.526 -3.29802 -1.0161 0
M  V30 2008 C 182.639 -4.31326 -0.241219 0
M  V30 2009 C 181.774 -5.17469 -1.19998 0
M  V30 2010 C 180.813 -6.10691 -0.415094 0
M  V30 2011 N 179.95 -6.89483 -1.32506 0
M  V30 2012 H 184.79 -2.8973 0.697155 0
M  V30 2013 H 182.327 -1.42738 0.355563 0
M  V30 2014 H 184.285 -3.85734 -1.58949 0
M  V30 2015 H 182.915 -2.72483 -1.73069 0
M  V30 2016 H 181.967 -3.77749 0.448334 0
M  V30 2017 H 183.279 -4.9743 0.369437 0
M  V30 2018 H 182.433 -5.7799 -1.84424 0
M  V30 2019 H 181.172 -4.51473 -1.84455 0
M  V30 2020 H 180.177 -5.49265 0.242565 0
M  V30 2021 H 181.402 -6.78727 0.224966 0
M  V30 2022 H 179.348 -6.26142 -1.95657 0
M  V30 2023 H 179.265 -7.52081 -0.768783 0
M  V30 2024 H 180.533 -7.54516 -1.9577 0
M  V30 2025 N 184.763 -0.387143 -1.52771 0
M  V30 2026 C 185.711 0.463953 -2.27926 0
M  V30 2027 C 186.705 1.06493 -1.31741 0
M  V30 2028 O 187.911 1.00565 -1.49287 0
M  V30 2029 H 184.286 0.16837 -0.732909 0
M  V30 2030 H 186.257 -0.19141 -2.97785 0
M  V30 2031 C 185.006 1.5803 -3.09713 0
M  V30 2032 H 184.329 1.12718 -3.83581 0
M  V30 2033 H 185.769 2.15008 -3.65442 0
M  V30 2034 C 184.228 2.53509 -2.2189 0
M  V30 2035 O 184.758 3.56863 -1.84422 0
M  V30 2036 N 182.964 2.23199 -1.86093 0
M  V30 2037 H 182.511 1.39185 -2.16761 0
M  V30 2038 H 182.469 2.87333 -1.27621 0
M  V30 2039 N 186.241 1.57166 -0.116904 0
M  V30 2040 C 187.518 1.86645 0.585049 0
M  V30 2041 C 187.898 1.0177 1.84949 0
M  V30 2042 O 187.246 0.0960379 2.28298 0
M  V30 2043 C 187.456 3.37736 0.879507 0
M  V30 2044 C 188.804 4.06289 1.23348 0
M  V30 2045 O 189.828 3.42743 0.969836 0
M  V30 2046 O 188.687 5.18455 1.7282 0
M  V30 2047 H 185.781 0.772593 0.295007 0
M  V30 2048 H 188.327 1.69025 -0.151249 0
M  V30 2049 H 187.099 3.91296 -0.0166136 0
M  V30 2050 H 186.722 3.6078 1.67103 0
M  V30 2051 N 187.719 -0.156864 1.56817 0
M  V30 2052 C 189.13 -0.717916 1.72345 0
M  V30 2053 C 189.481 -1.82124 0.729747 0
M  V30 2054 O 188.606 -2.16141 -0.105781 0
M  V30 2055 C 189.201 -1.30904 3.12489 0
M  V30 2056 C 187.76 -1.81676 3.29653 0
M  V30 2057 C 186.907 -0.701349 2.68284 0
M  V30 2058 H 189.858 0.0686989 1.58551 0
M  V30 2059 H 189.879 -2.17882 3.11942 0
M  V30 2060 H 189.391 -0.505796 3.8479 0
M  V30 2061 H 187.492 -2.64598 2.62333 0
M  V30 2062 H 187.605 -1.95226 4.3752 0
M  V30 2063 H 185.969 -1.12548 2.28484 0
M  V30 2064 H 186.752 0.0902846 3.43181 0
M  V30 2065 N 189.197 -1.51736 -0.425897 0
M  V30 2066 C 190.147 -1.70258 -1.51645 0
M  V30 2067 C 191.131 -0.556488 -1.5097 0
M  V30 2068 O 192.323 -0.812879 -1.5723 0
M  V30 2069 C 189.452 -1.84143 -2.89735 0
M  V30 2070 C 188.538 -3.04572 -2.95122 0
M  V30 2071 N 188.929 -4.2756 -2.70233 0
M  V30 2072 C 187.227 -3.04061 -3.26286 0
M  V30 2073 C 187.928 -5.08908 -2.81757 0
M  V30 2074 N 186.904 -4.43797 -3.13919 0
M  V30 2075 H 190.706 -2.63004 -1.31172 0
M  V30 2076 H 188.22 -1.4954 -0.633375 0
M  V30 2077 H 190.217 -1.95525 -3.68206 0
M  V30 2078 H 188.877 -0.925857 -3.1122 0
M  V30 2079 H 189.888 -4.56315 -2.44943 0
M  V30 2080 H 186.565 -2.22179 -3.53473 0
M  V30 2081 H 187.955 -6.16843 -2.66372 0
M  V30 2082 N 190.675 0.682077 -1.42076 0
M  V30 2083 C 191.605 1.80796 -1.47767 0
M  V30 2084 C 192.586 1.6677 -0.334954 0
M  V30 2085 O 193.771 1.863 -0.548264 0
M  V30 2086 C 190.901 3.19038 -1.37229 0
M  V30 2087 C 189.855 3.47789 -2.49453 0
M  V30 2088 C 189.181 4.8553 -2.23975 0
M  V30 2089 C 190.481 3.45411 -3.91776 0
M  V30 2090 H 192.175 1.7629 -2.41997 0
M  V30 2091 H 189.721 0.846721 -1.16476 0
M  V30 2092 H 191.674 3.97528 -1.39821 0
M  V30 2093 H 190.398 3.24204 -0.394907 0
M  V30 2094 H 189.057 2.71657 -2.46166 0
M  V30 2095 H 188.705 4.87337 -1.24547 0
M  V30 2096 H 188.405 5.0573 -2.99184 0
M  V30 2097 H 189.929 5.66312 -2.28304 0
M  V30 2098 H 191.343 4.13882 -3.96705 0
M  V30 2099 H 189.74 3.77145 -4.66778 0
M  V30 2100 H 190.81 2.44122 -4.18966 0
M  V30 2101 N 192.153 1.28127 0.917671 0
M  V30 2102 C 193.393 1.163 1.68088 0
M  V30 2103 C 193.757 -0.284515 1.8988 0
M  V30 2104 O 194.958 -0.525413 2.63615 0
M  V30 2105 C 193.229 1.93546 3.00457 0
M  V30 2106 S 194.788 1.98048 3.91564 0
M  V30 2107 H 191.606 0.415005 0.577315 0
M  V30 2108 H 194.208 1.62173 1.09179 0
M  V30 2109 H 192.912 2.97888 2.82295 0
M  V30 2110 H 192.443 1.48207 3.64415 0
M  V30 2111 H 194.458 1.08415 4.84211 0
M  V30 2112 N 193.631 -1.12557 1.10312 0
M  V30 2113 C 194.908 -1.80363 0.756878 0
M  V30 2114 C 195.288 -1.97067 -0.756824 0
M  V30 2115 O 194.636 -1.54601 -1.68259 0
M  V30 2116 C 194.846 -3.14812 1.50647 0
M  V30 2117 C 196.194 -3.90029 1.67817 0
M  V30 2118 O 197.218 -3.24464 1.46974 0
M  V30 2119 O 196.077 -5.07652 2.02365 0
M  V30 2120 H 193.171 -0.780667 0.272926 0
M  V30 2121 H 195.717 -1.19404 1.20586 0
M  V30 2122 H 194.489 -2.97936 2.53672 0
M  V30 2123 H 194.112 -3.83478 1.05026 0
M  V30 2124 N 195.109 -0.891671 -1.2995 0
M  V30 2125 C 196.356 -0.513501 -1.95881 0
M  V30 2126 C 196.684 0.938655 -1.70351 0
M  V30 2127 O 195.939 1.67936 -1.00478 0
M  V30 2128 C 196.238 -0.742868 -3.49594 0
M  V30 2129 C 195.904 -2.17114 -3.95186 0
M  V30 2130 C 194.566 -2.56169 -4.07346 0
M  V30 2131 C 196.918 -3.10162 -4.18866 0
M  V30 2132 C 194.246 -3.87469 -4.4055 0
M  V30 2133 C 196.598 -4.41001 -4.53542 0
M  V30 2134 C 195.262 -4.79941 -4.63911 0
M  V30 2135 H 194.532 -0.187903 -0.71678 0
M  V30 2136 H 197.179 -1.1288 -1.54694 0
M  V30 2137 H 195.484 -0.044586 -3.91775 0
M  V30 2138 H 197.181 -0.429767 -3.9869 0
M  V30 2139 H 193.771 -1.85801 -3.86233 0
M  V30 2140 H 197.955 -2.81206 -4.08946 0
M  V30 2141 H 193.211 -4.17371 -4.46779 0
M  V30 2142 H 197.385 -5.13133 -4.70815 0
M  V30 2143 H 195.012 -5.81719 -4.89395 0
M  V30 2144 N 196.587 1.43421 -0.653314 0
M  V30 2145 C 197.836 2.01032 -0.164076 0
M  V30 2146 C 198.149 1.52147 1.22926 0
M  V30 2147 O 199.355 2.02031 1.81371 0
M  V30 2148 C 197.811 3.59082 -0.24252 0
M  V30 2149 C 197.419 4.1696 -1.63855 0
M  V30 2150 C 199.163 4.24079 0.18911 0
M  V30 2151 C 197.07 5.67304 -1.67092 0
M  V30 2152 H 196 0.751798 -0.0575769 0
M  V30 2153 H 198.651 1.6439 -0.815362 0
M  V30 2154 H 197.033 3.93125 0.476276 0
M  V30 2155 H 198.207 3.94416 -2.38271 0
M  V30 2156 H 196.522 3.64335 -2.01616 0
M  V30 2157 H 199.119 5.34381 0.184775 0
M  V30 2158 H 199.462 3.98005 1.22056 0
M  V30 2159 H 199.995 3.94918 -0.477938 0
M  V30 2160 H 196.734 5.98145 -2.68146 0
M  V30 2161 H 196.254 5.91904 -0.970014 0
M  V30 2162 H 197.933 6.31344 -1.4147 0
M  V30 2163 N 198.065 0.39524 1.52563 0
M  V30 2164 C 198.975 -0.444232 2.30356 0
M  V30 2165 C 199.991 -1.06615 1.37511 0
M  V30 2166 O 201.167 -1.07067 1.70583 0
M  V30 2167 C 198.232 -1.55315 3.09964 0
M  V30 2168 C 197.293 -0.955734 4.18526 0
M  V30 2169 C 196.526 -2.01181 4.9433 0
M  V30 2170 O 196.749 -3.22781 4.70285 0
M  V30 2171 O 195.683 -1.62579 5.79527 0
M  V30 2172 H 199.509 0.189667 3.03107 0
M  V30 2173 H 197.094 0.1588 1.48554 0
M  V30 2174 H 198.976 -2.19724 3.59582 0
M  V30 2175 H 197.651 -2.17191 2.4002 0
M  V30 2176 H 196.558 -0.274743 3.7309 0
M  V30 2177 H 197.891 -0.381109 4.90722 0
M  V30 2178 N 199.544 -1.57102 0.125237 0
M  V30 2179 C 200.772 -1.99761 -0.538797 0
M  V30 2180 C 201.187 -1.00503 -1.59827 0
M  V30 2181 O 200.544 0.00119474 -1.825 0
M  V30 2182 C 200.595 -3.42408 -1.15927 0
M  V30 2183 O 200.316 -4.37869 -0.142143 0
M  V30 2184 C 201.817 -4.00232 -1.90602 0
M  V30 2185 H 199.037 -0.655772 -0.14214 0
M  V30 2186 H 201.581 -2.03383 0.213413 0
M  V30 2187 H 199.736 -3.39706 -1.86223 0
M  V30 2188 H 200.15 -5.21128 -0.593775 0
M  V30 2189 H 201.624 -5.02105 -2.29335 0
M  V30 2190 H 202.101 -3.39721 -2.78363 0
M  V30 2191 H 202.707 -4.06499 -1.25055 0
M  V30 2192 N 201.022 0.148545 -1.56898 0
M  V30 2193 C 201.972 1.1886 -1.94567 0
M  V30 2194 C 202.956 1.3863 -0.816735 0
M  V30 2195 O 204.148 1.40218 -1.08018 0
M  V30 2196 C 201.277 2.52262 -2.32849 0
M  V30 2197 C 200.363 2.36092 -3.52309 0
M  V30 2198 N 200.754 1.89674 -4.6889 0
M  V30 2199 C 199.052 2.66848 -3.57363 0
M  V30 2200 C 199.753 1.86511 -5.50989 0
M  V30 2201 N 198.729 2.29766 -4.92655 0
M  V30 2202 H 202.531 0.821793 -2.82177 0
M  V30 2203 H 200.045 0.356615 -1.58436 0
M  V30 2204 H 202.042 3.27447 -2.58039 0
M  V30 2205 H 200.702 2.89727 -1.46589 0
M  V30 2206 H 201.713 1.59663 -4.92674 0
M  V30 2207 H 198.39 3.08198 -2.81639 0
M  V30 2208 H 199.78 1.52128 -6.54452 0
M  V30 2209 N 202.5 1.5196 0.417844 0
M  V30 2210 C 203.73 1.69181 1.18581 0
M  V30 2211 C 204.138 0.397104 1.84986 0
M  V30 2212 O 203.481 -0.636011 1.72339 0
M  V30 2213 C 203.543 2.76497 2.29759 0
M  V30 2214 C 203.207 4.18514 1.83563 0
M  V30 2215 C 204.204 5.02648 1.32821 0
M  V30 2216 C 201.889 4.64708 1.90661 0
M  V30 2217 C 203.883 6.31044 0.897894 0
M  V30 2218 C 201.57 5.93096 1.47241 0
M  V30 2219 C 202.568 6.76093 0.968891 0
M  V30 2220 O 202.256 8.02078 0.540924 0
M  V30 2221 H 201.988 0.570457 0.362705 0
M  V30 2222 H 204.542 1.99249 0.498885 0
M  V30 2223 H 202.772 2.41786 3.01789 0
M  V30 2224 H 204.461 2.82403 2.91553 0
M  V30 2225 H 205.227 4.68154 1.26716 0
M  V30 2226 H 201.106 4.00216 2.28797 0
M  V30 2227 H 204.65 6.95776 0.504192 0
M  V30 2228 H 200.547 6.271 1.53022 0
M  V30 2229 H 201.315 8.15794 0.66502 0
M  V30 2230 N 203.978 -0.674533 1.42435 0
M  V30 2231 C 204.908 -1.80009 1.48724 0
M  V30 2232 C 205.889 -1.6659 0.343793 0
M  V30 2233 O 207.074 -1.86007 0.558137 0
M  V30 2234 C 204.204 -3.18306 1.38919 0
M  V30 2235 C 203.158 -3.46461 2.51294 0
M  V30 2236 C 202.484 -4.84335 2.26547 0
M  V30 2237 C 203.784 -3.43328 3.93603 0
M  V30 2238 H 205.478 -1.75004 2.42928 0
M  V30 2239 H 203.024 -0.840533 1.16923 0
M  V30 2240 H 204.977 -3.9678 1.41927 0
M  V30 2241 H 203.701 -3.2399 0.412094 0
M  V30 2242 H 202.36 -2.70348 2.47604 0
M  V30 2243 H 202.008 -4.86669 1.2713 0
M  V30 2244 H 201.708 -5.04136 3.01861 0
M  V30 2245 H 203.232 -5.65094 2.31304 0
M  V30 2246 H 204.646 -4.11772 3.98894 0
M  V30 2247 H 203.043 -3.74664 4.68771 0
M  V30 2248 H 204.113 -2.41897 4.20255 0
M  V30 2249 N 205.456 -1.28612 -0.910864 0
M  V30 2250 C 206.404 -1.1265 -2.03501 0
M  V30 2251 C 207.398 -0.0450054 -1.6934 0
M  V30 2252 O 208.604 -0.203988 -1.7884 0
M  V30 2253 H 204.979 -0.347639 -0.666822 0
M  V30 2254 H 206.95 -2.07849 -2.14106 0
M  V30 2255 C 205.699 -0.808143 -3.38178 0
M  V30 2256 H 205.022 -1.63231 -3.6496 0
M  V30 2257 H 206.462 -0.736426 -4.17556 0
M  V30 2258 C 204.921 0.488226 -3.33344 0
M  V30 2259 O 205.451 1.51766 -3.71927 0
M  V30 2260 N 203.657 0.490009 -2.86439 0
M  V30 2261 H 203.204 -0.348161 -2.55236 0
M  V30 2262 H 203.162 1.35741 -2.83587 0
M  V30 2263 N 206.934 1.1197 -1.10907 0
M  V30 2264 C 207.844 2.21433 -0.774896 0
M  V30 2265 C 208.86 1.72478 0.229657 0
M  V30 2266 O 210.036 2.01288 0.0672008 0
M  V30 2267 C 207.101 3.4602 -0.216986 0
M  V30 2268 C 206.162 4.09791 -1.27944 0
M  V30 2269 C 205.395 5.28431 -0.748055 0
M  V30 2270 O 205.618 5.68823 0.423833 0
M  V30 2271 O 204.552 5.82644 -1.51027 0
M  V30 2272 H 208.378 2.5242 -1.68873 0
M  V30 2273 H 205.963 1.20399 -0.884555 0
M  V30 2274 H 207.845 4.21304 0.090059 0
M  V30 2275 H 206.52 3.16698 0.669633 0
M  V30 2276 H 205.427 3.36265 -1.63941 0
M  V30 2277 H 206.76 4.4328 -2.13925 0
M  V30 2278 N 208.412 0.89855 1.29475 0
M  V30 2279 C 209.344 0.332726 2.26772 0
M  V30 2280 C 210.357 -0.520323 1.54261 0
M  V30 2281 O 211.546 -0.337668 1.75277 0
M  V30 2282 C 208.646 -0.544334 3.345 0
M  V30 2283 C 207.819 0.282728 4.36485 0
M  V30 2284 C 206.878 -0.526982 5.23555 0
M  V30 2285 O 205.904 0.0551165 5.69173 0
M  V30 2286 N 207.106 -1.83331 5.5079 0
M  V30 2287 H 209.871 1.16897 2.75962 0
M  V30 2288 H 207.432 0.762919 1.42798 0
M  V30 2289 H 209.424 -1.09239 3.89678 0
M  V30 2290 H 207.994 -1.28127 2.85136 0
M  V30 2291 H 207.214 1.01221 3.80983 0
M  V30 2292 H 208.502 0.84918 5.01664 0
M  V30 2293 H 207.9 -2.32898 5.15534 0
M  V30 2294 H 206.457 -2.32852 6.08788 0
M  V30 2295 N 209.89 -1.43072 0.660911 0
M  V30 2296 C 211.136 -2.0202 0.177708 0
M  V30 2297 C 211.469 -1.52066 -1.20787 0
M  V30 2298 O 210.744 -0.716987 -1.80802 0
M  V30 2299 C 211.027 -3.59561 0.197019 0
M  V30 2300 C 210.88 -4.19727 1.61706 0
M  V30 2301 C 212.199 -4.37664 -0.462396 0
M  V30 2302 H 209.318 -0.734034 0.0660494 0
M  V30 2303 H 211.96 -1.70272 0.843058 0
M  V30 2304 H 210.11 -3.86739 -0.369527 0
M  V30 2305 H 211.782 -4.03553 2.23479 0
M  V30 2306 H 210.025 -3.76084 2.16201 0
M  V30 2307 H 210.696 -5.28834 1.58237 0
M  V30 2308 H 213.172 -4.16095 0.0197215 0
M  V30 2309 H 212.048 -5.47305 -0.418188 0
M  V30 2310 H 212.309 -4.14493 -1.53778 0
M  V30 2311 N 211.368 -0.403325 -1.52352 0
M  V30 2312 C 212.315 0.425011 -2.26853 0
M  V30 2313 C 213.285 1.04598 -1.29029 0
M  V30 2314 O 214.47 1.07135 -1.57882 0
M  V30 2315 C 211.61 1.53888 -3.08889 0
M  V30 2316 C 210.723 0.939396 -4.21663 0
M  V30 2317 C 209.858 2.02547 -4.91068 0
M  V30 2318 C 208.897 1.40263 -5.95813 0
M  V30 2319 N 208.034 2.4286 -6.58759 0
M  V30 2320 H 212.874 -0.21674 -2.97211 0
M  V30 2321 H 210.411 -0.118722 -1.4662 0
M  V30 2322 H 212.369 2.19558 -3.54753 0
M  V30 2323 H 210.999 2.15074 -2.40714 0
M  V30 2324 H 210.051 0.171898 -3.80011 0
M  V30 2325 H 211.363 0.44436 -4.96817 0
M  V30 2326 H 210.517 2.75958 -5.40308 0
M  V30 2327 H 209.256 2.55415 -4.15469 0
M  V30 2328 H 208.261 0.653833 -5.45898 0
M  V30 2329 H 209.486 0.881719 -6.73352 0
M  V30 2330 H 207.432 2.94871 -5.85992 0
M  V30 2331 H 207.349 1.98152 -7.2957 0
M  V30 2332 H 208.617 3.15858 -7.12639 0
M  V30 2333 N 212.846 1.57033 -0.133567 0
M  V30 2334 C 213.809 2.14897 0.796995 0
M  V30 2335 C 214.809 1.0874 1.18458 0
M  V30 2336 O 215.999 1.34446 1.1077 0
M  V30 2337 C 213.131 2.70112 2.07973 0
M  V30 2338 H 214.324 2.98457 0.293873 0
M  V30 2339 H 211.877 1.55871 0.115787 0
M  V30 2340 H 212.612 1.9018 2.62682 0
M  V30 2341 H 212.397 3.47764 1.81115 0
M  V30 2342 H 213.887 3.14738 2.74462 0
M  V30 2343 N 214.325 -0.140222 1.56975 0
M  V30 2344 C 215.574 -0.850152 1.82908 0
M  V30 2345 C 215.887 -1.82028 0.715892 0
M  V30 2346 O 217.093 -2.57485 0.861016 0
M  V30 2347 C 215.549 -1.5625 3.24213 0
M  V30 2348 C 215.157 -0.63443 4.43485 0
M  V30 2349 C 216.901 -2.25881 3.59413 0
M  V30 2350 C 214.808 -1.34879 5.75814 0
M  V30 2351 H 213.738 -0.321221 0.682153 0
M  V30 2352 H 216.389 -0.102874 1.83211 0
M  V30 2353 H 214.771 -2.35565 3.18316 0
M  V30 2354 H 215.945 0.12398 4.60633 0
M  V30 2355 H 214.26 -0.0461836 4.16374 0
M  V30 2356 H 216.857 -2.79978 4.5554 0
M  V30 2357 H 217.2 -3.02693 2.85802 0
M  V30 2358 H 217.733 -1.53477 3.67001 0
M  V30 2359 H 214.472 -0.622385 6.52539 0
M  V30 2360 H 213.992 -2.07974 5.6259 0
M  V30 2361 H 215.671 -1.88784 6.18845 0
M  V30 2362 N 215.803 -1.52179 -0.40978 0
M  V30 2363 C 216.75 -1.75475 -1.49924 0
M  V30 2364 C 217.72 -0.597175 -1.54994 0
M  V30 2365 O 218.905 -0.834655 -1.71575 0
M  V30 2366 C 216.045 -1.9107 -2.87378 0
M  V30 2367 C 215.158 -3.18717 -2.91622 0
M  V30 2368 C 214.293 -3.24747 -4.20372 0
M  V30 2369 C 213.332 -4.46598 -4.18588 0
M  V30 2370 N 212.469 -4.50025 -5.38908 0
M  V30 2371 H 217.309 -2.68458 -1.29361 0
M  V30 2372 H 214.846 -1.33024 -0.627934 0
M  V30 2373 H 216.804 -1.98096 -3.6717 0
M  V30 2374 H 215.434 -1.01469 -3.06437 0
M  V30 2375 H 214.486 -3.20866 -2.04326 0
M  V30 2376 H 215.798 -4.08544 -2.86169 0
M  V30 2377 H 214.952 -3.30841 -5.08556 0
M  V30 2378 H 213.691 -2.32857 -4.28519 0
M  V30 2379 H 212.696 -4.40652 -3.28794 0
M  V30 2380 H 213.921 -5.39783 -4.12081 0
M  V30 2381 H 211.867 -3.61017 -5.47725 0
M  V30 2382 H 211.784 -5.33697 -5.35447 0
M  V30 2383 H 213.052 -4.60347 -6.29048 0
M  V30 2384 N 217.281 0.66697 -1.42791 0
M  V30 2385 C 218.191 1.80962 -1.49299 0
M  V30 2386 C 219.207 1.69775 -0.381108 0
M  V30 2387 O 220.383 1.91188 -0.633188 0
M  V30 2388 C 217.448 3.17156 -1.40045 0
M  V30 2389 C 216.509 3.40242 -2.6179 0
M  V30 2390 C 215.742 4.69939 -2.52969 0
M  V30 2391 O 215.965 5.48372 -1.56985 0
M  V30 2392 O 214.899 4.94441 -3.43237 0
M  V30 2393 H 218.725 1.78427 -2.45759 0
M  V30 2394 H 216.31 0.823713 -1.24641 0
M  V30 2395 H 218.192 3.98413 -1.37276 0
M  V30 2396 H 216.867 3.20312 -0.467138 0
M  V30 2397 H 215.774 2.58802 -2.70134 0
M  V30 2398 H 217.107 3.41923 -3.54047 0
M  V30 2399 N 218.759 1.29093 0.90403 0
M  V30 2400 C 219.689 1.16401 2.02418 0
M  V30 2401 C 220.67 0.0593085 1.69997 0
M  V30 2402 O 221.855 0.238021 1.92736 0
M  V30 2403 C 218.985 0.835233 3.37107 0
M  V30 2404 C 217.939 1.89578 3.83724 0
M  V30 2405 C 217.265 1.42041 5.15489 0
M  V30 2406 C 218.565 3.30394 4.04521 0
M  V30 2407 H 220.259 2.10109 2.13295 0
M  V30 2408 H 217.805 1.01157 1.02486 0
M  V30 2409 H 219.758 0.733169 4.14973 0
M  V30 2410 H 218.482 -0.137543 3.2631 0
M  V30 2411 H 217.141 1.98715 3.08071 0
M  V30 2412 H 216.789 0.436426 5.01103 0
M  V30 2413 H 216.489 2.12964 5.4765 0
M  V30 2414 H 218.013 1.33176 5.959 0
M  V30 2415 H 219.427 3.24123 4.72882 0
M  V30 2416 H 217.824 3.99237 4.48029 0
M  V30 2417 H 218.894 3.73692 3.09002 0
M  V30 2418 N 220.237 -1.11381 1.11499 0
M  V30 2419 C 221.485 -1.8277 0.862524 0
M  V30 2420 C 221.806 -1.85097 -0.613534 0
M  V30 2421 O 221.076 -1.32198 -1.4457 0
M  V30 2422 H 219.656 -0.676823 0.316101 0
M  V30 2423 H 222.318 -1.34816 1.4075 0
M  V30 2424 H 221.414 -2.86614 1.23527 0
M  V30 2425 N 221.715 -0.905404 -1.28997 0
M  V30 2426 C 222.992 -0.453513 -1.9027 0
M  V30 2427 C 223.372 1.06721 -1.82137 0
M  V30 2428 O 222.72 1.91159 -1.25182 0
M  V30 2429 C 222.93 -0.974494 -3.35119 0
M  V30 2430 C 224.278 -1.0216 -4.12127 0
M  V30 2431 O 225.302 -0.922557 -3.44046 0
M  V30 2432 O 224.161 -1.17121 -5.33802 0
M  V30 2433 H 221.255 -0.142347 -0.814657 0
M  V30 2434 H 223.801 -0.995642 -1.37423 0
M  V30 2435 H 222.573 -2.01848 -3.35221 0
M  V30 2436 H 222.196 -0.412706 -3.95452 0
M  V30 2437 N 223.193 1.4272 -0.668489 0
M  V30 2438 C 224.143 2.27971 0.0363806 0
M  V30 2439 C 225.127 1.40741 0.779794 0
M  V30 2440 O 226.319 1.64245 0.659745 0
M  V30 2441 C 223.448 3.28673 0.991398 0
M  V30 2442 C 222.534 4.23388 0.245658 0
M  V30 2443 N 222.925 5.00267 -0.746069 0
M  V30 2444 C 221.223 4.43355 0.484988 0
M  V30 2445 C 221.924 5.69396 -1.19009 0
M  V30 2446 N 220.9 5.41095 -0.521287 0
M  V30 2447 H 224.702 2.84833 -0.724394 0
M  V30 2448 H 222.216 1.54607 -0.497028 0
M  V30 2449 H 224.213 3.88543 1.51129 0
M  V30 2450 H 222.873 2.73373 1.75207 0
M  V30 2451 H 223.884 5.05525 -1.12537 0
M  V30 2452 H 220.561 3.99104 1.22565 0
M  V30 2453 H 221.951 6.41083 -2.01153 0
M  V30 2454 N 224.671 0.411399 1.52136 0
M  V30 2455 C 225.917 -0.163888 2.02137 0
M  V30 2456 C 226.25 -1.44597 1.29636 0
M  V30 2457 O 225.525 -1.90272 0.403353 0
M  V30 2458 C 225.808 -0.40927 3.57767 0
M  V30 2459 C 225.661 0.889643 4.40914 0
M  V30 2460 C 226.98 -1.19042 4.23694 0
M  V30 2461 H 224.099 -0.0580896 0.734707 0
M  V30 2462 H 226.741 0.54531 1.82007 0
M  V30 2463 H 224.891 -1.0134 3.7505 0
M  V30 2464 H 226.563 1.52575 4.35337 0
M  V30 2465 H 224.806 1.50011 4.07037 0
M  V30 2466 H 225.477 0.672314 5.4789 0
M  V30 2467 H 227.953 -0.678942 4.10524 0
M  V30 2468 H 226.829 -1.33086 5.32522 0
M  V30 2469 H 227.09 -2.21166 3.82803 0
M  V30 2470 N 226.149 -1.5696 0.141893 0
M  V30 2471 C 227.377 -2.00322 -0.517579 0
M  V30 2472 C 227.792 -1.02193 -1.58752 0
M  V30 2473 O 227.149 -0.0181619 -1.82491 0
M  V30 2474 C 227.2 -3.43618 -1.12289 0
M  V30 2475 O 226.921 -4.37995 -0.0956929 0
M  V30 2476 C 228.422 -4.02231 -1.86347 0
M  V30 2477 H 225.642 -0.657243 -0.135177 0
M  V30 2478 H 228.186 -2.03146 0.234973 0
M  V30 2479 H 226.341 -3.41662 -1.82609 0
M  V30 2480 H 226.755 -5.21729 -0.538469 0
M  V30 2481 H 228.229 -5.04509 -2.23997 0
M  V30 2482 H 228.706 -3.42655 -2.74744 0
M  V30 2483 H 229.312 -4.07802 -1.20737 0
M  V30 2484 N 227.627 0.131896 -1.57047 0
M  V30 2485 C 228.575 1.18146 -2.0036 0
M  V30 2486 C 229.569 1.43614 -0.898406 0
M  V30 2487 O 230.775 1.43729 -1.08361 0
M  V30 2488 H 227.15 0.398042 -0.638018 0
M  V30 2489 H 229.121 0.789564 -2.87765 0
M  V30 2490 C 227.87 2.50341 -2.41298 0
M  V30 2491 H 227.193 2.31578 -3.25902 0
M  V30 2492 H 228.633 3.22371 -2.75414 0
M  V30 2493 C 227.092 3.11984 -1.27153 0
M  V30 2494 O 227.622 3.97484 -0.580459 0
M  V30 2495 N 225.828 2.71662 -1.03189 0
M  V30 2496 H 225.375 2.02231 -1.59564 0
M  V30 2497 H 225.333 3.13238 -0.270077 0
M  V30 2498 N 229.106 1.52395 0.401703 0
M  V30 2499 C 230.036 1.79231 1.49661 0
M  V30 2500 C 231.017 0.643654 1.57452 0
M  V30 2501 O 232.202 0.889989 1.72606 0
M  V30 2502 C 229.332 1.94971 2.87409 0
M  V30 2503 C 228.286 3.10604 2.94465 0
M  V30 2504 C 227.612 3.11577 4.34538 0
M  V30 2505 C 228.912 4.49921 2.6527 0
M  V30 2506 H 230.606 2.70917 1.27454 0
M  V30 2507 H 228.152 1.30362 0.6117 0
M  V30 2508 H 230.105 2.12328 3.63999 0
M  V30 2509 H 228.829 0.999632 3.10926 0
M  V30 2510 H 227.488 2.93009 2.20321 0
M  V30 2511 H 227.136 2.14277 4.55076 0
M  V30 2512 H 226.836 3.89247 4.40183 0
M  V30 2513 H 228.36 3.31073 5.13053 0
M  V30 2514 H 229.774 4.67683 3.31581 0
M  V30 2515 H 228.171 5.29564 2.82281 0
M  V30 2516 H 229.241 4.57507 1.60671 0
M  V30 2517 N 230.584 -0.659388 1.43143 0
M  V30 2518 C 232 -0.974337 1.26407 0
M  V30 2519 C 232.2 -2.007 0.179341 0
M  V30 2520 O 231.256 -2.4856 -0.444295 0
M  V30 2521 C 232.569 -1.46447 2.62628 0
M  V30 2522 C 234.117 -1.58144 2.7011 0
M  V30 2523 C 234.592 -2.1055 4.06734 0
M  V30 2524 N 236.083 -2.17861 4.08767 0
M  V30 2525 C 236.818 -2.59519 5.1131 0
M  V30 2526 N 236.314 -3.00518 6.24228 0
M  V30 2527 N 238.107 -2.59404 4.98664 0
M  V30 2528 H 230.258 0.0240528 2.12386 0
M  V30 2529 H 232.521 -0.0518065 0.946583 0
M  V30 2530 H 232.227 -0.780123 3.42939 0
M  V30 2531 H 232.101 -2.44058 2.87603 0
M  V30 2532 H 234.488 -2.25682 1.90136 0
M  V30 2533 H 234.569 -0.589828 2.48907 0
M  V30 2534 H 234.213 -1.43616 4.87172 0
M  V30 2535 H 234.143 -3.10531 4.25298 0
M  V30 2536 H 236.634 -1.88975 3.27257 0
M  V30 2537 H 236.947 -3.31036 6.98309 0
M  V30 2538 H 235.292 -2.98337 6.2771 0
M  V30 2539 H 238.483 -2.26747 4.09516 0
M  V30 2540 H 238.656 -2.91548 5.78709 0
M  V30 2541 N 232.062 -1.29571 -0.897171 0
M  V30 2542 C 233.009 -1.14916 -2.00158 0
M  V30 2543 C 233.979 -0.0418149 -1.66047 0
M  V30 2544 O 235.164 -0.209793 -1.89643 0
M  V30 2545 C 232.304 -0.834307 -3.34863 0
M  V30 2546 C 231.417 -2.02234 -3.8174 0
M  V30 2547 C 230.552 -1.64664 -5.05034 0
M  V30 2548 C 229.591 -2.80033 -5.44286 0
M  V30 2549 N 228.728 -2.42843 -6.58765 0
M  V30 2550 H 233.568 -2.09403 -2.12025 0
M  V30 2551 H 231.105 -1.042 -1.0383 0
M  V30 2552 H 233.063 -0.632436 -4.12379 0
M  V30 2553 H 231.693 0.0736656 -3.22716 0
M  V30 2554 H 230.745 -2.33583 -3.00238 0
M  V30 2555 H 232.057 -2.88673 -4.06779 0
M  V30 2556 H 231.211 -1.4078 -5.9014 0
M  V30 2557 H 229.95 -0.753766 -4.8184 0
M  V30 2558 H 228.955 -3.04596 -4.57713 0
M  V30 2559 H 230.18 -3.69989 -5.6946 0
M  V30 2560 H 228.126 -1.56046 -6.3717 0
M  V30 2561 H 228.043 -3.22815 -6.83613 0
M  V30 2562 H 229.311 -2.22285 -7.47134 0
M  V30 2563 N 233.54 1.10788 -1.12088 0
M  V30 2564 C 234.473 2.16237 -0.729168 0
M  V30 2565 C 235.451 1.60207 0.277921 0
M  V30 2566 O 236.635 1.87707 0.172737 0
M  V30 2567 C 233.762 3.38609 -0.0786848 0
M  V30 2568 C 232.808 4.13322 -1.05201 0
M  V30 2569 S 233.641 4.69371 -2.57781 0
M  V30 2570 C 234.797 5.95058 -1.94053 0
M  V30 2571 H 235.03 2.4913 -1.62239 0
M  V30 2572 H 232.563 1.22519 -0.939603 0
M  V30 2573 H 234.521 4.09473 0.290254 0
M  V30 2574 H 233.182 3.03962 0.791593 0
M  V30 2575 H 232.375 5.01051 -0.544433 0
M  V30 2576 H 231.977 3.48251 -1.36371 0
M  V30 2577 H 234.269 6.65278 -1.28107 0
M  V30 2578 H 235.212 6.50472 -2.79807 0
M  V30 2579 H 235.62 5.46918 -1.39787 0
M  V30 2580 N 235.018 0.912232 1.28515 0
M  V30 2581 C 236.266 0.543523 1.94654 0
M  V30 2582 C 236.587 -0.9155 1.72173 0
M  V30 2583 O 235.857 -1.64708 1.06058 0
M  V30 2584 H 234.437 0.198017 0.720277 0
M  V30 2585 H 237.099 1.16126 1.56527 0
M  V30 2586 H 236.195 0.736684 3.03281 0
M  V30 2587 N 236.496 -1.42363 0.676048 0
M  V30 2588 C 237.459 -2.29199 0.00766941 0
M  V30 2589 C 238.459 -1.43389 -0.727745 0
M  V30 2590 O 239.649 -1.64764 -0.56556 0
M  V30 2591 C 236.781 -3.2591 -0.999785 0
M  V30 2592 H 237.974 -2.89794 0.771988 0
M  V30 2593 H 235.527 -1.50024 0.438468 0
M  V30 2594 H 236.262 -2.70256 -1.79255 0
M  V30 2595 H 236.047 -3.89202 -0.475829 0
M  V30 2596 H 237.537 -3.91028 -1.46583 0
M  V30 2597 N 237.974 -0.419461 -1.51915 0
M  V30 2598 C 239.385 0.0477853 -1.86639 0
M  V30 2599 C 239.736 1.43531 -1.33766 0
M  V30 2600 O 238.861 2.05401 -0.68113 0
M  V30 2601 C 239.456 0.0934885 -3.38671 0
M  V30 2602 C 238.015 0.505097 -3.72996 0
M  V30 2603 C 237.162 -0.313792 -2.75519 0
M  V30 2604 H 240.113 -0.636088 -1.45395 0
M  V30 2605 H 240.134 0.906667 -3.6954 0
M  V30 2606 H 239.646 -0.916501 -3.77123 0
M  V30 2607 H 237.747 1.52135 -3.40126 0
M  V30 2608 H 237.86 0.242309 -4.78487 0
M  V30 2609 H 236.224 0.225363 -2.53701 0
M  V30 2610 H 237.007 -1.32232 -3.16812 0
M  V30 2611 N 239.452 1.56882 -0.150215 0
M  V30 2612 C 240.362 2.20494 0.801222 0
M  V30 2613 C 241.378 1.19019 1.26927 0
M  V30 2614 O 242.554 1.51607 1.32579 0
M  V30 2615 C 239.619 2.81659 2.02161 0
M  V30 2616 C 238.68 3.9827 1.60249 0
M  V30 2617 C 237.913 4.56508 2.7647 0
M  V30 2618 O 238.136 4.13627 3.92771 0
M  V30 2619 O 237.07 5.46719 2.51757 0
M  V30 2620 H 240.896 3.02315 0.289717 0
M  V30 2621 H 238.481 1.49202 0.0769684 0
M  V30 2622 H 240.363 3.20522 2.73576 0
M  V30 2623 H 239.038 2.02849 2.52258 0
M  V30 2624 H 237.945 3.64117 0.858477 0
M  V30 2625 H 239.278 4.78609 1.14864 0
M  V30 2626 N 240.93 -0.123565 1.57115 0
M  V30 2627 C 242.155 -0.850398 1.89164 0
M  V30 2628 C 242.58 -1.7286 0.741688 0
M  V30 2629 O 241.938 -1.78665 -0.307958 0
M  V30 2630 C 241.986 -1.66353 3.19936 0
M  V30 2631 O 241.09 -2.77004 3.0552 0
M  V30 2632 H 240.431 -0.235454 0.620852 0
M  V30 2633 H 242.961 -0.107335 2.04318 0
M  V30 2634 H 242.971 -2.05372 3.52543 0
M  V30 2635 H 241.646 -1.01881 4.03228 0
M  V30 2636 H 240.223 -2.41221 2.84371 0
M  V30 2637 N 242.408 -1.52605 -0.393616 0
M  V30 2638 C 243.656 -1.67093 -1.13685 0
M  V30 2639 C 243.977 -0.411011 -1.90619 0
M  V30 2640 O 243.247 0.574491 -1.87287 0
M  V30 2641 H 241.827 -0.615923 -0.422668 0
M  V30 2642 H 244.489 -1.89704 -0.447039 0
M  V30 2643 H 243.585 -2.51922 -1.84232 0
M  V30 2644 N 243.887 0.651787 -1.4349 0
M  V30 2645 C 244.817 1.77621 -1.51569 0
M  V30 2646 C 245.798 1.66022 -0.370253 0
M  V30 2647 O 246.983 1.85095 -0.587658 0
M  V30 2648 C 244.113 3.16056 -1.43966 0
M  V30 2649 C 243.067 3.4242 -2.56774 0
M  V30 2650 C 242.393 4.8067 -2.34223 0
M  V30 2651 C 243.693 3.37023 -3.99015 0
M  V30 2652 H 245.387 1.71117 -2.45681 0
M  V30 2653 H 242.933 0.821825 -1.18246 0
M  V30 2654 H 244.886 3.94472 -1.48221 0
M  V30 2655 H 243.61 3.23293 -0.463586 0
M  V30 2656 H 242.269 2.66375 -2.51873 0
M  V30 2657 H 241.917 4.84585 -1.34856 0
M  V30 2658 H 241.617 4.9927 -3.09844 0
M  V30 2659 H 243.141 5.61342 -2.40265 0
M  V30 2660 H 244.555 4.05374 -4.05395 0
M  V30 2661 H 242.952 3.67159 -4.74673 0
M  V30 2662 H 244.022 2.3518 -4.2405 0
M  V30 2663 N 245.365 1.30045 0.890287 0
M  V30 2664 C 246.328 1.15963 1.977 0
M  V30 2665 C 247.328 0.0923777 1.60534 0
M  V30 2666 O 248.518 0.340071 1.70848 0
M  V30 2667 C 245.65 0.775451 3.31963 0
M  V30 2668 H 246.843 2.12502 2.11619 0
M  V30 2669 H 244.396 1.13366 1.07601 0
M  V30 2670 H 245.131 -0.189671 3.23745 0
M  V30 2671 H 244.916 1.54668 3.60306 0
M  V30 2672 H 246.406 0.700251 4.11687 0
M  V30 2673 N 246.843 -1.10192 1.12674 0
M  V30 2674 C 247.753 -2.20172 0.810026 0
M  V30 2675 C 248.769 -1.72821 -0.202188 0
M  V30 2676 O 249.945 -2.01369 -0.0351691 0
M  V30 2677 C 247.01 -3.45631 0.272007 0
M  V30 2678 C 246.071 -4.07704 1.34447 0
M  V30 2679 C 245.304 -5.27175 0.832029 0
M  V30 2680 O 245.527 -5.69425 -0.333284 0
M  V30 2681 O 244.461 -5.80168 1.60277 0
M  V30 2682 H 248.287 -2.49701 1.72867 0
M  V30 2683 H 245.872 -1.18977 0.903597 0
M  V30 2684 H 247.754 -4.21394 -0.0230219 0
M  V30 2685 H 246.429 -3.17723 -0.619164 0
M  V30 2686 H 245.336 -3.33614 1.6927 0
M  V30 2687 H 246.669 -4.3982 2.2095 0
M  V30 2688 N 248.321 -0.919034 -1.28029 0
M  V30 2689 C 249.551 -0.570143 -1.98577 0
M  V30 2690 C 249.959 0.854172 -1.68821 0
M  V30 2691 O 249.302 1.57807 -0.940351 0
M  V30 2692 C 249.364 -0.705734 -3.52505 0
M  V30 2693 C 249.028 -2.10057 -4.05863 0
M  V30 2694 C 250.025 -3.07385 -4.19298 0
M  V30 2695 C 247.71 -2.41517 -4.40426 0
M  V30 2696 C 249.704 -4.34287 -4.66555 0
M  V30 2697 C 247.391 -3.68657 -4.87376 0
M  V30 2698 C 248.389 -4.64856 -5.00398 0
M  V30 2699 O 248.077 -5.89735 -5.46322 0
M  V30 2700 H 247.809 -0.215592 -0.6407 0
M  V30 2701 H 250.363 -1.23583 -1.64062 0
M  V30 2702 H 248.593 0.0170414 -3.86696 0
M  V30 2703 H 250.282 -0.363172 -4.04272 0
M  V30 2704 H 251.048 -2.84398 -3.92865 0
M  V30 2705 H 246.927 -1.67389 -4.29537 0
M  V30 2706 H 250.471 -5.09377 -4.76635 0
M  V30 2707 H 246.368 -3.91466 -5.13249 0
M  V30 2708 H 247.136 -5.92599 -5.64596 0
M  V30 2709 N 249.799 1.42003 -0.683588 0
M  V30 2710 C 250.729 2.33487 -0.024866 0
M  V30 2711 C 251.71 1.51163 0.779975 0
M  V30 2712 O 252.895 1.79739 0.735362 0
M  V30 2713 C 250.025 3.3487 0.920836 0
M  V30 2714 C 248.979 4.27414 0.223958 0
M  V30 2715 C 248.305 5.19074 1.2832 0
M  V30 2716 C 249.605 5.14445 -0.90242 0
M  V30 2717 H 251.299 2.88819 -0.788921 0
M  V30 2718 H 248.845 1.38873 -0.38083 0
M  V30 2719 H 250.798 3.97787 1.39081 0
M  V30 2720 H 249.522 2.77861 1.71642 0
M  V30 2721 H 248.181 3.65904 -0.225864 0
M  V30 2722 H 247.829 4.58387 2.071 0
M  V30 2723 H 247.529 5.81822 0.821995 0
M  V30 2724 H 249.053 5.84867 1.75392 0
M  V30 2725 H 250.467 5.70998 -0.513272 0
M  V30 2726 H 248.864 5.86072 -1.28997 0
M  V30 2727 H 249.934 4.52322 -1.74737 0
M  V30 2728 N 251.277 0.427512 1.51691 0
M  V30 2729 C 252.524 -0.142229 2.02 0
M  V30 2730 C 252.852 -1.43566 1.31221 0
M  V30 2731 O 252.107 -1.91298 0.412744 0
M  V30 2732 C 252.406 -0.418249 3.54944 0
M  V30 2733 C 252.072 0.788187 4.43958 0
M  V30 2734 C 250.734 1.11906 4.68007 0
M  V30 2735 C 253.086 1.59347 4.96244 0
M  V30 2736 C 250.414 2.25608 5.41588 0
M  V30 2737 C 252.766 2.7214 5.71072 0
M  V30 2738 C 251.43 3.05692 5.93387 0
M  V30 2739 H 250.7 -0.0520451 0.73917 0
M  V30 2740 H 253.347 0.572697 1.82736 0
M  V30 2741 H 251.652 -1.21496 3.72486 0
M  V30 2742 H 253.349 -0.872339 3.91397 0
M  V30 2743 H 249.939 0.520344 4.2543 0
M  V30 2744 H 254.123 1.35106 4.77556 0
M  V30 2745 H 249.379 2.51929 5.57083 0
M  V30 2746 H 253.553 3.34914 6.10578 0
M  V30 2747 H 251.18 3.9391 6.50184 0
M  V30 2748 N 252.755 -1.56801 0.158532 0
M  V30 2749 C 254.032 -1.88131 -0.535357 0
M  V30 2750 C 254.412 -1.06638 -1.82186 0
M  V30 2751 O 253.76 -0.156533 -2.27963 0
M  V30 2752 C 253.97 -3.39949 -0.789653 0
M  V30 2753 C 255.318 -4.09416 -1.12533 0
M  V30 2754 O 256.342 -3.45194 -0.878622 0
M  V30 2755 O 255.201 -5.22855 -1.59014 0
M  V30 2756 H 252.295 -0.780143 -0.27442 0
M  V30 2757 H 254.841 -1.68564 0.19601 0
M  V30 2758 H 253.613 -3.91115 0.120353 0
M  V30 2759 H 253.236 -3.65084 -1.57479 0
M  V30 2760 N 254.233 0.115231 -1.57178 0
M  V30 2761 C 255.18 1.14115 -2.00615 0
M  V30 2762 C 256.15 1.40939 -0.878941 0
M  V30 2763 O 257.335 1.52741 -1.14345 0
M  V30 2764 C 254.475 2.46156 -2.4187 0
M  V30 2765 C 253.588 2.26236 -3.68024 0
M  V30 2766 C 252.723 3.51534 -3.98243 0
M  V30 2767 C 251.762 3.26787 -5.17568 0
M  V30 2768 N 250.899 4.44298 -5.43639 0
M  V30 2769 H 255.739 0.763743 -2.88047 0
M  V30 2770 H 253.276 0.365615 -1.42484 0
M  V30 2771 H 255.234 3.23189 -2.63827 0
M  V30 2772 H 253.864 2.81783 -1.57475 0
M  V30 2773 H 252.916 1.40102 -3.5366 0
M  V30 2774 H 254.228 2.03929 -4.55208 0
M  V30 2775 H 253.382 4.36984 -4.20868 0
M  V30 2776 H 252.121 3.76876 -3.09541 0
M  V30 2777 H 251.126 2.39729 -4.94783 0
M  V30 2778 H 252.351 3.02812 -6.0785 0
M  V30 2779 H 250.297 4.69754 -4.57895 0
M  V30 2780 H 250.214 4.25109 -6.25154 0
M  V30 2781 H 251.482 5.3087 -5.70786 0
M  V30 2782 N 255.711 1.52812 0.385517 0
M  V30 2783 C 256.661 1.74219 1.47078 0
M  V30 2784 C 257.645 0.59632 1.49442 0
M  V30 2785 O 258.837 0.85428 1.5502 0
M  V30 2786 C 255.966 1.9176 2.84751 0
M  V30 2787 C 255.052 3.12289 2.86943 0
M  V30 2788 N 255.443 4.34575 2.58802 0
M  V30 2789 C 253.741 3.12605 3.1811 0
M  V30 2790 C 254.442 5.162 2.68166 0
M  V30 2791 N 253.418 4.51964 3.02043 0
M  V30 2792 H 257.22 2.6639 1.24152 0
M  V30 2793 H 254.734 1.51166 0.593504 0
M  V30 2794 H 256.731 2.05218 3.62893 0
M  V30 2795 H 255.391 1.00805 3.08656 0
M  V30 2796 H 256.402 4.62649 2.32759 0
M  V30 2797 H 253.079 2.31472 3.47458 0
M  V30 2798 H 254.469 6.23689 2.49923 0
M  V30 2799 N 257.189 -0.644168 1.43834 0
M  V30 2800 C 258.417 -1.43147 1.49387 0
M  V30 2801 C 258.832 -1.88452 0.114583 0
M  V30 2802 O 258.189 -1.60047 -0.876989 0
M  V30 2803 C 258.24 -2.66046 2.44748 0
M  V30 2804 O 257.961 -2.22633 3.77314 0
M  V30 2805 C 259.462 -3.59311 2.59635 0
M  V30 2806 H 256.682 -0.439447 0.507077 0
M  V30 2807 H 259.226 -0.78895 1.88669 0
M  V30 2808 H 257.381 -3.26418 2.08638 0
M  V30 2809 H 257.795 -3.02216 4.28679 0
M  V30 2810 H 259.269 -4.42187 3.30416 0
M  V30 2811 H 259.746 -4.07259 1.64427 0
M  V30 2812 H 260.352 -3.04816 2.96593 0
M  V30 2813 N 258.668 -1.30515 -0.883378 0
M  V30 2814 C 259.598 -1.19607 -2.00541 0
M  V30 2815 C 260.579 -0.086346 -1.69881 0
M  V30 2816 O 261.764 -0.268654 -1.92333 0
M  V30 2817 C 258.894 -0.888758 -3.35736 0
M  V30 2818 C 257.848 -1.95659 -3.8066 0
M  V30 2819 C 257.174 -1.50224 -5.13164 0
M  V30 2820 C 258.474 -3.36788 -3.99213 0
M  V30 2821 H 260.168 -2.13476 -2.09925 0
M  V30 2822 H 257.714 -1.02775 -1.00863 0
M  V30 2823 H 259.667 -0.799094 -4.13754 0
M  V30 2824 H 258.391 0.0856125 -3.26488 0
M  V30 2825 H 257.05 -2.03591 -3.04871 0
M  V30 2826 H 256.698 -0.516092 -5.00345 0
M  V30 2827 H 256.398 -2.2165 -5.44192 0
M  V30 2828 H 257.922 -1.42639 -5.93706 0
M  V30 2829 H 259.336 -3.31605 -4.67665 0
M  V30 2830 H 257.733 -4.06314 -4.41621 0
M  V30 2831 H 258.803 -3.78561 -3.03017 0
M  V30 2832 N 260.146 1.09593 -1.13257 0
M  V30 2833 C 261.394 1.81375 -0.891492 0
M  V30 2834 C 261.715 1.86049 0.584009 0
M  V30 2835 O 260.985 1.34481 1.42449 0
M  V30 2836 H 259.565 0.671708 -0.326828 0
M  V30 2837 H 262.227 1.3256 -1.42877 0
M  V30 2838 H 261.323 2.84612 -1.28071 0
M  V30 2839 N 261.624 0.925811 1.2754 0
M  V30 2840 C 262.901 0.483726 1.89524 0
M  V30 2841 C 263.281 -1.03809 1.83812 0
M  V30 2842 O 262.629 -1.89143 1.28207 0
M  V30 2843 C 262.839 1.02769 3.33526 0
M  V30 2844 C 264.187 1.08703 4.10449 0
M  V30 2845 O 265.211 0.977175 3.42534 0
M  V30 2846 O 264.07 1.25599 5.31871 0
M  V30 2847 H 261.164 0.15529 0.812289 0
M  V30 2848 H 263.71 1.01738 1.35822 0
M  V30 2849 H 262.482 2.07155 3.31967 0
M  V30 2850 H 262.105 0.475567 3.94746 0
M  V30 2851 N 263.102 -1.41638 0.69111 0
M  V30 2852 C 264.327 -2.06148 0.227583 0
M  V30 2853 C 264.752 -1.51652 -1.11281 0
M  V30 2854 O 264.11 -0.64164 -1.69566 0
M  V30 2855 C 264.158 -3.60095 0.190858 0
M  V30 2856 O 263.262 -4.03845 -0.835664 0
M  V30 2857 H 262.603 -0.654434 0.112306 0
M  V30 2858 H 265.133 -1.81484 0.944714 0
M  V30 2859 H 265.143 -4.07995 0.020207 0
M  V30 2860 H 263.818 -3.99129 1.16915 0
M  V30 2861 H 262.395 -3.67458 -0.63473 0
M  V30 2862 N 264.58 -0.43555 -1.51462 0
M  V30 2863 C 265.857 0.191364 -1.94662 0
M  V30 2864 C 266.237 1.60254 -1.37411 0
M  V30 2865 O 265.585 2.2152 -0.560458 0
M  V30 2866 C 265.795 0.17091 -3.48581 0
M  V30 2867 C 267.143 0.377357 -4.2292 0
M  V30 2868 O 268.167 0.249104 -3.55328 0
M  V30 2869 O 267.026 0.63247 -5.42828 0
M  V30 2870 H 264.12 0.130932 -0.816569 0
M  V30 2871 H 266.666 -0.4934 -1.62369 0
M  V30 2872 H 265.438 -0.815738 -3.82703 0
M  V30 2873 H 265.061 0.898659 -3.87311 0
M  V30 2874 N 266.058 1.56714 -0.166846 0
M  V30 2875 C 267.006 2.19056 0.782123 0
M  V30 2876 C 268 1.15328 1.24079 0
M  V30 2877 O 269.206 1.33537 1.20697 0
M  V30 2878 H 265.581 0.70167 0.270486 0
M  V30 2879 H 267.552 2.97494 0.232322 0
M  V30 2880 C 266.301 2.84206 2.00306 0
M  V30 2881 H 265.624 3.63748 1.65914 0
M  V30 2882 H 267.064 3.31302 2.64604 0
M  V30 2883 C 265.523 1.83744 2.82382 0
M  V30 2884 O 266.053 1.32014 3.79388 0
M  V30 2885 N 264.259 1.52601 2.47308 0
M  V30 2886 H 263.806 1.9486 1.68485 0
M  V30 2887 H 263.764 0.856351 3.02513 0
M  V30 2888 N 267.536 -0.106894 1.57237 0
M  V30 2889 C 268.446 -1.14911 2.0453 0
M  V30 2890 C 269.462 -1.44592 0.96795 0
M  V30 2891 O 270.638 -1.55468 1.2803 0
M  V30 2892 C 267.703 -2.45272 2.45036 0
M  V30 2893 C 266.764 -2.22879 3.66911 0
M  V30 2894 C 265.997 -3.47024 4.05475 0
M  V30 2895 O 266.22 -4.54804 3.44252 0
M  V30 2896 O 265.154 -3.3731 4.98504 0
M  V30 2897 H 268.98 -0.777461 2.9358 0
M  V30 2898 H 266.565 -0.318563 1.45964 0
M  V30 2899 H 268.447 -3.22055 2.71769 0
M  V30 2900 H 267.122 -2.81886 1.59129 0
M  V30 2901 H 266.029 -1.43915 3.45311 0
M  V30 2902 H 267.362 -1.91163 4.53561 0
M  V30 2903 N 269.014 -1.53014 -0.377408 0
M  V30 2904 C 270.239 -1.72818 -1.14668 0
M  V30 2905 C 270.664 -0.450725 -1.8262 0
M  V30 2906 O 270.022 0.59439 -1.7128 0
M  V30 2907 C 270.07 -2.88627 -2.16164 0
M  V30 2908 O 269.174 -2.56409 -3.22998 0
M  V30 2909 H 268.515 -0.574301 -0.333278 0
M  V30 2910 H 271.045 -1.99853 -0.438152 0
M  V30 2911 H 271.055 -3.14455 -2.59966 0
M  V30 2912 H 269.73 -3.81294 -1.66095 0
M  V30 2913 H 268.307 -2.4136 -2.84253 0
M  V30 2914 O 270.531 0.523369 -1.52784 0
M  V30 2915 H 271.222 1.17844 -1.53728 0
M  V30 END ATOM
M  V30 BEGIN BOND
M  V30 END BOND
M  V30 END CTAB
M  END
$$$$
