drugbank_target|P02778 C-X-C motif chemokine 10 (DB04487; DB06116; DB11338)
 OpenBabel12092119433D

  0  0  0     0  0            999 V3000
M  V30 BEGIN CTAB
M  V30 COUNTS 1587 1595 0 0 0
M  V30 BEGIN ATOM
M  V30 1 H -0.908 1.98254 -0.117106 0
M  V30 2 N 0 1.576 0 0
M  V30 3 C 0.933 2.03868 1.02534 0
M  V30 4 C 1.911 0.928543 1.3348 0
M  V30 5 O 3.095 1.19667 1.45644 0
M  V30 6 C 0.222 2.43627 2.35294 0
M  V30 7 C -0.732 3.65373 2.2001 0
M  V30 8 S 0.101 5.13292 1.52614 0
M  V30 9 C 1.257 5.56322 2.86805 0
M  V30 10 H 1.49 2.90518 0.631377 0
M  V30 11 H -0.977 1.52953 0.210867 0
M  V30 12 H 0.981 2.67203 3.11629 0
M  V30 13 H -0.358 1.57376 2.7183 0
M  V30 14 H -1.165 3.90944 3.18086 0
M  V30 15 H -1.563 3.418 1.51819 0
M  V30 16 H 0.729 5.58782 3.83104 0
M  V30 17 H 1.672 6.56266 2.65933 0
M  V30 18 H 2.08 4.83886 2.90714 0
M  V30 19 N 1.4781 -0.272755 1.55222 0
M  V30 20 C 2.4261 -1.35705 1.88909 0
M  V30 21 C 3.4201 -1.5112 0.765456 0
M  V30 22 O 4.6261 -1.52901 0.949802 0
M  V30 23 H 1.0011 -0.453868 0.59959 0
M  V30 24 H 2.9721 -1.04544 2.79487 0
M  V30 25 C 1.7211 -2.71049 2.17779 0
M  V30 26 H 1.0441 -2.59979 3.03728 0
M  V30 27 H 2.4841 -3.45858 2.45272 0
M  V30 28 C 0.9431 -3.22165 0.985473 0
M  V30 29 O 1.4731 -4.01096 0.220233 0
M  V30 30 N -0.3209 -2.7985 0.783108 0
M  V30 31 H -0.7739 -2.15775 1.40708 0
M  V30 32 H -0.8159 -3.14397 -0.0130392 0
M  V30 33 N 2.9562 -1.48159 -0.537278 0
M  V30 34 C 3.8882 -1.58218 -1.65831 0
M  V30 35 C 4.9012 -0.466948 -1.5596 0
M  V30 36 O 6.0902 -0.73747 -1.62553 0
M  V30 37 C 3.1902 -1.48906 -3.04434 0
M  V30 38 C 2.3632 -2.75343 -3.3986 0
M  V30 39 C 1.4222 -2.59588 -4.57712 0
M  V30 40 O 0.4482 -3.33457 -4.61297 0
M  V30 41 N 1.6502 -1.68724 -5.55439 0
M  V30 42 H 4.4152 -2.54891 -1.57641 0
M  V30 43 H 1.9762 -1.4479 -0.724386 0
M  V30 44 H 3.9682 -1.36072 -3.81139 0
M  V30 45 H 2.5382 -0.602368 -3.06741 0
M  V30 46 H 1.7582 -3.02795 -2.52406 0
M  V30 47 H 3.0462 -3.5924 -3.60311 0
M  V30 48 H 2.4442 -1.07898 -5.55315 0
M  V30 49 H 1.0012 -1.61832 -6.3139 0
M  V30 50 N 4.4343 0.785586 -1.36625 0
M  V30 51 C 5.6623 1.57448 -1.3423 0
M  V30 52 C 6.0773 1.88649 0.0755653 0
M  V30 53 O 5.4343 1.50414 1.03354 0
M  V30 54 C 5.4853 2.89316 -2.16745 0
M  V30 55 O 5.2063 2.59459 -3.53005 0
M  V30 56 C 6.7073 3.83606 -2.22174 0
M  V30 57 H 3.9273 0.488226 -0.4603 0
M  V30 58 H 6.4713 0.974733 -1.79775 0
M  V30 59 H 4.6263 3.4575 -1.74745 0
M  V30 60 H 5.0403 3.43804 -3.96105 0
M  V30 61 H 6.5143 4.73181 -2.8426 0
M  V30 62 H 6.9913 4.21734 -1.22627 0
M  V30 63 H 7.5973 3.33104 -2.64427 0
M  V30 64 N 5.9124 1.20967 1.01018 0
M  V30 65 C 6.8754 0.965918 2.07853 0
M  V30 66 C 7.8754 -0.0610545 1.60684 0
M  V30 67 O 9.0654 0.175681 1.73312 0
M  V30 68 C 6.1974 0.455513 3.37843 0
M  V30 69 H 7.3904 1.91365 2.3091 0
M  V30 70 H 4.9434 1.02594 1.17916 0
M  V30 71 H 5.6784 -0.497381 3.20463 0
M  V30 72 H 5.4634 1.19622 3.73407 0
M  V30 73 H 6.9534 0.304667 4.16487 0
M  V30 74 N 7.3905 -1.2043 1.01659 0
M  V30 75 C 8.6395 -1.89118 0.701237 0
M  V30 76 C 8.9525 -1.79705 -0.772358 0
M  V30 77 O 10.1585 -2.43528 -1.20026 0
M  V30 78 C 8.6145 -3.39168 1.20388 0
M  V30 79 C 8.2225 -3.57166 2.70438 0
M  V30 80 C 9.9665 -4.1341 0.963953 0
M  V30 81 C 7.8735 -5.01042 3.14183 0
M  V30 82 H 6.8035 -0.708267 0.2586 0
M  V30 83 H 9.4545 -1.36239 1.22927 0
M  V30 84 H 7.8365 -3.91369 0.603824 0
M  V30 85 H 9.0105 -3.15351 3.35992 0
M  V30 86 H 7.3255 -2.96294 2.92572 0
M  V30 87 H 9.9225 -5.19491 1.26621 0
M  V30 88 H 10.2655 -4.16181 -0.099578 0
M  V30 89 H 10.7985 -3.67309 1.52738 0
M  V30 90 H 7.5375 -5.03426 4.19812 0
M  V30 91 H 7.0575 -5.43668 2.53348 0
M  V30 92 H 8.7365 -5.69623 3.0682 0
M  V30 93 N 8.8686 -0.792821 -1.36206 0
M  V30 94 C 9.7986 -0.207853 -2.32573 0
M  V30 95 C 10.7796 0.659055 -1.56813 0
M  V30 96 O 11.9646 0.592176 -1.84951 0
M  V30 97 C 9.0946 0.655449 -3.41059 0
M  V30 98 C 8.0486 -0.111842 -4.27854 0
M  V30 99 C 7.3746 0.872274 -5.27537 0
M  V30 100 C 8.6746 -1.30299 -5.05786 0
M  V30 101 H 10.3686 -1.01294 -2.81744 0
M  V30 102 H 7.9146 -0.48854 -1.3546 0
M  V30 103 H 9.8676 1.07464 -4.07467 0
M  V30 104 H 8.5916 1.49328 -2.90463 0
M  V30 105 H 7.2506 -0.512053 -3.63006 0
M  V30 106 H 6.8986 1.70523 -4.73214 0
M  V30 107 H 6.5986 0.363291 -5.86476 0
M  V30 108 H 8.1226 1.28996 -5.96818 0
M  V30 109 H 9.5366 -0.959379 -5.65216 0
M  V30 110 H 7.9336 -1.7455 -5.74154 0
M  V30 111 H 9.0036 -2.09663 -4.37229 0
M  V30 112 N 10.3467 1.47872 -0.545128 0
M  V30 113 C 11.5957 2.01695 -0.0145033 0
M  V30 114 C 11.9087 1.42609 1.33873 0
M  V30 115 O 13.1147 1.88021 1.95858 0
M  V30 116 C 11.5707 3.59892 0.0245068 0
M  V30 117 C 11.1787 4.27966 -1.32475 0
M  V30 118 C 12.9227 4.21507 0.50316 0
M  V30 119 C 10.8297 5.78136 -1.2455 0
M  V30 120 H 9.7597 0.753998 -0.00165172 0
M  V30 121 H 12.4107 1.69985 -0.691175 0
M  V30 122 H 10.7927 3.88509 0.766575 0
M  V30 123 H 11.9667 4.11003 -2.08357 0
M  V30 124 H 10.2817 3.78286 -1.74036 0
M  V30 125 H 12.8787 5.31538 0.580656 0
M  V30 126 H 13.2217 3.87855 1.51243 0
M  V30 127 H 13.7547 3.97376 -0.183681 0
M  V30 128 H 10.4937 6.16388 -2.23039 0
M  V30 129 H 10.0137 5.97469 -0.528282 0
M  V30 130 H 11.6927 6.40099 -0.942488 0
M  V30 131 N 11.8248 0.280983 1.55075 0
M  V30 132 C 13.0648 -0.335234 2.01632 0
M  V30 133 C 13.4288 -1.5261 1.16508 0
M  V30 134 O 14.6298 -2.21235 1.52672 0
M  V30 135 C 12.9008 -0.702172 3.50434 0
M  V30 136 S 14.4598 -1.30409 4.18974 0
M  V30 137 H 11.2778 -0.103967 0.703358 0
M  V30 138 H 13.8798 0.404187 1.91276 0
M  V30 139 H 12.5838 0.17333 4.10034 0
M  V30 140 H 12.1148 -1.4729 3.64786 0
M  V30 141 H 14.1298 -2.59253 4.23087 0
M  V30 142 N 13.3029 -1.57598 0.00835791 0
M  V30 143 C 14.5429 -1.92788 -0.679136 0
M  V30 144 C 14.9069 -0.883378 -1.70471 0
M  V30 145 O 16.1079 -1.12079 -2.44319 0
M  V30 146 C 14.3789 -3.32994 -1.29807 0
M  V30 147 S 15.9379 -3.90082 -2.00952 0
M  V30 148 H 12.7559 -0.67475 -0.224127 0
M  V30 149 H 15.3579 -1.95385 0.0670497 0
M  V30 150 H 14.0619 -4.06846 -0.538922 0
M  V30 151 H 13.5929 -3.33791 -2.082 0
M  V30 152 H 15.6079 -3.71834 -3.28563 0
M  V30 153 N 14.781 0.264519 -1.55364 0
M  V30 154 C 15.711 1.33121 -1.91836 0
M  V30 155 C 16.692 1.51101 -0.781192 0
M  V30 156 O 17.877 1.64003 -1.04003 0
M  V30 157 C 15.007 2.68921 -2.19769 0
M  V30 158 C 13.961 2.65661 -3.35571 0
M  V30 159 C 13.287 4.05093 -3.49004 0
M  V30 160 C 14.587 2.24187 -4.71739 0
M  V30 161 H 16.281 1.02844 -2.81182 0
M  V30 162 H 13.827 0.493286 -1.35287 0
M  V30 163 H 15.78 3.43663 -2.43872 0
M  V30 164 H 14.504 3.00799 -1.27231 0
M  V30 165 H 13.163 1.93377 -3.1145 0
M  V30 166 H 12.811 4.34206 -2.53917 0
M  V30 167 H 12.511 4.03804 -4.26868 0
M  V30 168 H 14.035 4.81561 -3.75408 0
M  V30 169 H 15.449 2.88654 -4.9533 0
M  V30 170 H 13.846 2.34044 -5.52579 0
M  V30 171 H 14.916 1.19327 -4.69988 0
M  V30 172 N 16.2591 1.48442 0.529413 0
M  V30 173 C 17.5081 1.55742 1.28169 0
M  V30 174 C 17.8211 0.236511 1.94165 0
M  V30 175 O 19.0271 0.187761 2.7085 0
M  V30 176 C 17.4831 2.74667 2.32564 0
M  V30 177 C 17.0911 4.13402 1.72636 0
M  V30 178 C 18.8351 2.9128 3.08798 0
M  V30 179 C 16.7421 5.23587 2.74975 0
M  V30 180 H 15.6721 0.579796 0.48203 0
M  V30 181 H 18.3231 1.74776 0.559056 0
M  V30 182 H 16.7051 2.49067 3.07866 0
M  V30 183 H 17.8791 4.49022 1.03519 0
M  V30 184 H 16.1941 4.0191 1.08892 0
M  V30 185 H 18.7911 3.70767 3.85274 0
M  V30 186 H 19.1341 2.00757 3.64695 0
M  V30 187 H 19.6671 3.16782 2.40611 0
M  V30 188 H 16.4061 6.16076 2.23897 0
M  V30 189 H 15.9261 4.92454 3.42417 0
M  V30 190 H 17.6051 5.51724 3.37949 0
M  V30 191 N 17.7372 -0.778329 1.37039 0
M  V30 192 C 18.9842 -1.53665 1.31884 0
M  V30 193 C 19.3122 -1.9425 -0.0986303 0
M  V30 194 O 18.5672 -1.63832 -1.07041 0
M  V30 195 C 18.8662 -2.81845 2.19768 0
M  V30 196 C 18.5322 -2.60345 3.68146 0
M  V30 197 C 17.1942 -2.5419 4.08584 0
M  V30 198 C 19.5462 -2.40923 4.62175 0
M  V30 199 C 16.8742 -2.26594 5.41177 0
M  V30 200 C 19.2262 -2.14852 5.94997 0
M  V30 201 C 17.8902 -2.07137 6.34547 0
M  V30 202 H 17.1602 -0.562299 0.482598 0
M  V30 203 H 19.8072 -0.897069 1.69189 0
M  V30 204 H 18.1122 -3.50328 1.75436 0
M  V30 205 H 19.8092 -3.39692 2.13097 0
M  V30 206 H 16.3992 -2.65996 3.36072 0
M  V30 207 H 20.5832 -2.44673 4.31797 0
M  V30 208 H 15.8392 -2.19111 5.70789 0
M  V30 209 H 20.0132 -1.98822 6.67415 0
M  V30 210 H 17.6402 -1.85518 7.37216 0
M  V30 211 N 19.2153 -1.21501 -1.00376 0
M  V30 212 C 20.1453 -0.999478 -2.11028 0
M  V30 213 C 21.1263 0.0759671 -1.6993 0
M  V30 214 O 22.3113 -0.0841106 -1.94018 0
M  V30 215 C 19.4413 -0.564709 -3.42678 0
M  V30 216 C 18.3953 -1.58486 -3.97576 0
M  V30 217 C 17.7213 -1.00628 -5.25146 0
M  V30 218 C 19.0213 -2.97204 -4.29496 0
M  V30 219 H 20.7153 -1.92495 -2.29317 0
M  V30 220 H 18.2613 -0.92693 -1.102 0
M  V30 221 H 20.2143 -0.401091 -4.19487 0
M  V30 222 H 18.9383 0.396411 -3.24185 0
M  V30 223 H 17.5973 -1.73606 -3.22888 0
M  V30 224 H 17.2453 -0.0368439 -5.02987 0
M  V30 225 H 16.9453 -1.68771 -5.62841 0
M  V30 226 H 18.4693 -0.854015 -6.04598 0
M  V30 227 H 19.8833 -2.8552 -4.97143 0
M  V30 228 H 18.2803 -3.62372 -4.78338 0
M  V30 229 H 19.3503 -3.47956 -3.3772 0
M  V30 230 N 20.6934 1.19889 -1.02296 0
M  V30 231 C 21.9214 1.9339 -0.735399 0
M  V30 232 C 22.3364 1.75148 0.704887 0
M  V30 233 O 21.6934 1.06954 1.47875 0
M  V30 234 C 21.7444 3.45313 -1.06962 0
M  V30 235 O 21.4654 3.62964 -2.45334 0
M  V30 236 C 22.9664 4.35948 -0.804021 0
M  V30 237 H 20.1864 0.61448 -0.269546 0
M  V30 238 H 22.7304 1.522 -1.36585 0
M  V30 239 H 20.8854 3.84359 -0.484455 0
M  V30 240 H 21.2994 4.56886 -2.57595 0
M  V30 241 H 22.7734 5.41174 -1.0879 0
M  V30 242 H 23.2504 4.3842 0.261691 0
M  V30 243 H 23.8564 4.02574 -1.37164 0
M  V30 244 N 22.1715 0.800033 1.35784 0
M  V30 245 C 23.1015 0.220184 2.3246 0
M  V30 246 C 24.0825 -0.65073 1.57161 0
M  V30 247 O 25.2675 -0.582359 1.85263 0
M  V30 248 C 22.3975 -0.637353 3.41402 0
M  V30 249 C 21.3515 0.134531 4.27789 0
M  V30 250 C 20.6775 -0.844285 5.27992 0
M  V30 251 C 21.9775 1.32979 5.05088 0
M  V30 252 H 23.6715 1.02787 2.81203 0
M  V30 253 H 21.2175 0.495717 1.35199 0
M  V30 254 H 23.1705 -1.05302 4.08031 0
M  V30 255 H 21.8945 -1.47785 2.91251 0
M  V30 256 H 20.5535 0.531296 3.6273 0
M  V30 257 H 20.2015 -1.68011 4.74111 0
M  V30 258 H 19.9015 -0.332184 5.8666 0
M  V30 259 H 21.4255 -1.2583 5.97494 0
M  V30 260 H 22.8395 0.98934 5.64699 0
M  V30 261 H 21.2365 1.77593 5.7322 0
M  V30 262 H 22.3065 2.11978 4.36111 0
M  V30 263 N 23.6496 -1.47581 0.552962 0
M  V30 264 C 24.8746 -2.07378 0.0300593 0
M  V30 265 C 25.2996 -1.40355 -1.25229 0
M  V30 266 O 24.6576 -0.477099 -1.7491 0
M  V30 267 C 24.7056 -3.60274 -0.153231 0
M  V30 268 O 23.8096 -3.94041 -1.21678 0
M  V30 269 H 23.1506 -0.662158 0.0494182 0
M  V30 270 H 25.6806 -1.89662 0.767434 0
M  V30 271 H 25.6906 -4.0633 -0.368761 0
M  V30 272 H 24.3656 -4.08455 0.783397 0
M  V30 273 H 22.9426 -3.59735 -0.982079 0
M  V30 274 N 25.1277 -0.289203 -1.54924 0
M  V30 275 C 26.3757 0.322879 -1.99504 0
M  V30 276 C 26.6967 1.55313 -1.1791 0
M  V30 277 O 25.9667 1.94001 -0.272097 0
M  V30 278 H 24.5467 0.122291 -0.736922 0
M  V30 279 H 27.2087 -0.397802 -1.90797 0
M  V30 280 H 26.3047 0.603061 -3.06218 0
M  V30 281 N 26.6058 1.57591 -0.0167156 0
M  V30 282 C 27.8548 1.90461 0.663877 0
M  V30 283 C 28.1678 0.893515 1.73999 0
M  V30 284 O 29.3738 1.11302 2.47637 0
M  V30 285 C 27.8298 3.38155 1.23204 0
M  V30 286 C 27.4378 4.47597 0.189866 0
M  V30 287 C 29.1818 3.80111 1.88986 0
M  V30 288 C 27.0888 5.86379 0.768964 0
M  V30 289 H 26.0188 0.710738 0.251729 0
M  V30 290 H 28.6698 1.83326 -0.0799926 0
M  V30 291 H 27.0518 3.40182 2.02712 0
M  V30 292 H 28.2258 4.57112 -0.581846 0
M  V30 293 H 26.5408 4.14766 -0.368475 0
M  V30 294 H 29.1378 4.81145 2.33247 0
M  V30 295 H 29.4808 3.14511 2.72743 0
M  V30 296 H 30.0138 3.80454 1.16187 0
M  V30 297 H 26.7528 6.55493 -0.0301957 0
M  V30 298 H 26.2728 5.80496 1.50945 0
M  V30 299 H 27.9518 6.34563 1.26251 0
M  V30 300 N 28.0839 -0.256276 1.55502 0
M  V30 301 C 29.0159 -1.33981 1.85962 0
M  V30 302 C 30.0289 -1.44743 0.745212 0
M  V30 303 O 31.2179 -1.4626 1.02324 0
M  V30 304 C 28.3179 -2.7194 2.02242 0
M  V30 305 C 27.4909 -2.83562 3.33033 0
M  V30 306 C 26.5499 -4.02304 3.39172 0
M  V30 307 O 25.5759 -3.92273 4.12444 0
M  V30 308 N 26.7779 -5.15045 2.67784 0
M  V30 309 H 29.5429 -1.08191 2.7949 0
M  V30 310 H 27.1039 -0.446388 1.55624 0
M  V30 311 H 29.0959 -3.49697 2.03701 0
M  V30 312 H 27.6659 -2.90479 1.15502 0
M  V30 313 H 26.8859 -1.92555 3.43971 0
M  V30 314 H 28.1739 -2.88271 4.19258 0
M  V30 315 H 27.5719 -5.26085 2.07968 0
M  V30 316 H 26.1289 -5.90972 2.74947 0
M  V30 317 N 29.562 -1.4872 -0.521534 0
M  V30 318 C 30.81 -1.56857 -1.27437 0
M  V30 319 C 31.131 -0.247982 -1.93417 0
M  V30 320 O 30.401 0.731151 -1.81744 0
M  V30 321 H 28.981 -0.577885 -0.473347 0
M  V30 322 H 31.643 -1.85233 -0.606205 0
M  V30 323 H 30.739 -2.35402 -2.0492 0
M  V30 324 N 31.0401 0.771051 -1.3745 0
M  V30 325 C 32.2861 1.5319 -1.32894 0
M  V30 326 C 32.6191 1.94008 0.0862511 0
M  V30 327 O 31.8941 1.64124 1.04373 0
M  V30 328 C 32.1771 2.79648 -2.26868 0
M  V30 329 C 32.0301 2.45079 -3.77169 0
M  V30 330 C 33.3491 3.81583 -2.19277 0
M  V30 331 H 30.4681 0.555744 -0.484064 0
M  V30 332 H 33.1101 0.884492 -1.68157 0
M  V30 333 H 31.2601 3.34891 -1.96926 0
M  V30 334 H 32.9321 1.95745 -4.1771 0
M  V30 335 H 31.1751 1.77767 -3.95704 0
M  V30 336 H 31.8461 3.35478 -4.38359 0
M  V30 337 H 34.3221 3.35835 -2.45671 0
M  V30 338 H 33.1981 4.67787 -2.87171 0
M  V30 339 H 33.4591 4.25897 -1.18592 0
M  V30 340 N 32.5182 1.22032 0.997298 0
M  V30 341 C 33.9292 1.0397 1.55071 0
M  V30 342 C 34.2802 -0.398192 1.92117 0
M  V30 343 O 33.4052 -1.28254 1.74298 0
M  V30 344 C 34.0002 1.88109 2.81781 0
M  V30 345 C 32.5592 1.74357 3.33581 0
M  V30 346 C 31.7062 1.84846 2.06706 0
M  V30 347 H 34.6572 1.35941 0.818883 0
M  V30 348 H 34.6782 1.39589 3.53971 0
M  V30 349 H 34.1902 2.92754 2.54787 0
M  V30 350 H 32.2912 0.72427 3.65493 0
M  V30 351 H 32.4042 2.56772 4.04481 0
M  V30 352 H 30.7682 1.28238 2.20062 0
M  V30 353 H 31.5512 2.91014 1.82114 0
M  V30 354 N 33.9963 -1.19345 1.0293 0
M  V30 355 C 34.9263 -2.2481 0.631105 0
M  V30 356 C 35.9073 -1.66245 -0.360104 0
M  V30 357 O 37.0923 -1.92677 -0.242726 0
M  V30 358 C 34.2223 -3.47295 -0.0184607 0
M  V30 359 C 33.1763 -4.18536 0.895073 0
M  V30 360 C 32.5023 -5.34586 0.110592 0
M  V30 361 C 33.8023 -4.73287 2.209 0
M  V30 362 H 35.4963 -2.58372 1.51275 0
M  V30 363 H 33.0423 -1.24194 0.728818 0
M  V30 364 H 34.9953 -4.20268 -0.308675 0
M  V30 365 H 33.7193 -3.12933 -0.934907 0
M  V30 366 H 32.3783 -3.47446 1.16949 0
M  V30 367 H 32.0263 -4.96469 -0.807902 0
M  V30 368 H 31.7263 -5.83183 0.719087 0
M  V30 369 H 33.2503 -6.10355 -0.172871 0
M  V30 370 H 34.6643 -5.38013 1.98028 0
M  V30 371 H 33.0613 -5.32373 2.76946 0
M  V30 372 H 34.1313 -3.91331 2.86336 0
M  V30 373 N 35.4744 -0.807222 -1.35358 0
M  V30 374 C 36.6994 -0.399309 -2.0352 0
M  V30 375 C 37.1244 0.981986 -1.60433 0
M  V30 376 O 36.4824 1.63601 -0.781299 0
M  V30 377 C 36.5304 -0.491552 -3.57234 0
M  V30 378 O 35.6344 0.494754 -4.09421 0
M  V30 379 H 34.9754 -0.166682 -0.642739 0
M  V30 380 H 37.5054 -1.09328 -1.72941 0
M  V30 381 H 37.5154 -0.361588 -4.06395 0
M  V30 382 H 36.1904 -1.49907 -3.87944 0
M  V30 383 H 34.7674 0.324977 -3.71481 0
M  V30 384 N 36.9525 1.47285 -0.560781 0
M  V30 385 C 38.3685 1.58065 -0.22081 0
M  V30 386 C 38.5685 1.55892 1.27671 0
M  V30 387 O 37.6245 1.46422 2.0571 0
M  V30 388 C 38.9375 2.88418 -0.850625 0
M  V30 389 C 40.4855 3.02009 -0.822184 0
M  V30 390 C 40.9605 4.35066 -1.43113 0
M  V30 391 N 42.4515 4.41711 -1.39448 0
M  V30 392 C 43.1865 5.43237 -1.83525 0
M  V30 393 N 42.6825 6.51555 -2.35474 0
M  V30 394 N 44.4755 5.34304 -1.74574 0
M  V30 395 H 36.6265 1.46941 -1.53369 0
M  V30 396 H 38.8895 0.699558 -0.639783 0
M  V30 397 H 38.5955 2.95755 -1.9032 0
M  V30 398 H 38.4695 3.75612 -0.345773 0
M  V30 399 H 40.8565 2.94266 0.221714 0
M  V30 400 H 40.9375 2.16347 -1.36483 0
M  V30 401 H 40.5815 4.43565 -2.47412 0
M  V30 402 H 40.5115 5.19465 -0.863899 0
M  V30 403 H 43.0025 3.64027 -1.01452 0
M  V30 404 H 43.3155 7.25203 -2.67021 0
M  V30 405 H 41.6605 6.52435 -2.39487 0
M  V30 406 H 44.8515 4.48581 -1.33763 0
M  V30 407 H 45.0245 6.13288 -2.09242 0
M  V30 408 N 38.4306 0.297415 1.54768 0
M  V30 409 C 39.6586 -0.315623 2.04478 0
M  V30 410 C 40.0736 -1.47792 1.17486 0
M  V30 411 O 39.4306 -1.81404 0.19971 0
M  V30 412 C 39.4816 -0.7753 3.53088 0
M  V30 413 O 39.2026 0.340732 4.36773 0
M  V30 414 C 40.7036 -1.45386 4.18781 0
M  V30 415 H 37.9236 -0.0690887 0.667434 0
M  V30 416 H 40.4676 0.436003 1.99798 0
M  V30 417 H 38.6226 -1.47696 3.58141 0
M  V30 418 H 39.0366 -0.0165035 5.24497 0
M  V30 419 H 40.5106 -1.72669 5.24299 0
M  V30 420 H 40.9876 -2.39275 3.68299 0
M  V30 421 H 41.5936 -0.795475 4.17795 0
M  V30 422 N 39.9087 -1.5758 0.0250728 0
M  V30 423 C 41.1547 -1.91917 -0.655413 0
M  V30 424 C 41.4877 -0.901433 -1.72011 0
M  V30 425 O 40.7627 0.0764069 -1.9435 0
M  V30 426 C 41.0457 -3.36751 -1.27558 0
M  V30 427 C 40.8987 -4.49258 -0.220719 0
M  V30 428 C 42.2177 -3.81469 -2.19475 0
M  V30 429 H 39.3367 -0.697925 -0.23679 0
M  V30 430 H 41.9787 -1.89825 0.0815036 0
M  V30 431 H 40.1287 -3.38664 -1.90365 0
M  V30 432 H 41.8007 -4.59478 0.409601 0
M  V30 433 H 40.0437 -4.31415 0.454264 0
M  V30 434 H 40.7147 -5.47618 -0.694175 0
M  V30 435 H 43.1907 -3.81266 -1.66659 0
M  V30 436 H 42.0667 -4.83512 -2.59822 0
M  V30 437 H 42.3277 -3.16744 -3.08424 0
M  V30 438 N 41.3868 0.248026 -1.55636 0
M  V30 439 C 42.8028 0.596483 -1.48035 0
M  V30 440 C 43.0028 1.88386 -0.715039 0
M  V30 441 O 42.0588 2.51319 -0.243944 0
M  V30 442 C 43.3718 0.700258 -2.92433 0
M  V30 443 C 44.9198 0.792659 -3.02797 0
M  V30 444 C 45.3948 0.928005 -4.485 0
M  V30 445 N 46.8858 0.992903 -4.52433 0
M  V30 446 C 47.6208 1.11687 -5.62418 0
M  V30 447 N 47.1168 1.20645 -6.82214 0
M  V30 448 N 48.9098 1.14994 -5.50212 0
M  V30 449 H 41.0608 -0.597109 -2.03834 0
M  V30 450 H 43.3238 -0.205925 -0.925364 0
M  V30 451 H 43.0298 -0.175658 -3.51261 0
M  V30 452 H 42.9038 1.57255 -3.42857 0
M  V30 453 H 45.2908 1.65903 -2.4405 0
M  V30 454 H 45.3718 -0.104762 -2.55585 0
M  V30 455 H 45.0158 0.0661971 -5.07857 0
M  V30 456 H 44.9458 1.84045 -4.93391 0
M  V30 457 H 47.4368 0.935064 -3.66149 0
M  V30 458 H 47.7498 1.30008 -7.61786 0
M  V30 459 H 46.0948 1.17605 -6.84977 0
M  V30 460 H 49.2858 1.07643 -4.55555 0
M  V30 461 H 49.4588 1.24311 -6.35965 0
M  V30 462 N 42.8649 1.48995 0.513639 0
M  V30 463 C 44.1049 1.59452 1.27885 0
M  V30 464 C 44.4689 0.269479 1.90099 0
M  V30 465 O 45.6699 0.249139 2.67643 0
M  V30 466 C 43.9409 2.71277 2.32688 0
M  V30 467 S 45.4999 3.01604 3.18717 0
M  V30 468 H 42.3179 0.562565 0.434789 0
M  V30 469 H 44.9199 1.86595 0.583301 0
M  V30 470 H 43.6239 3.66089 1.8549 0
M  V30 471 H 43.1549 2.46086 3.06929 0
M  V30 472 H 45.1699 2.42155 4.331 0
M  V30 473 N 44.343 -0.763751 1.37857 0
M  V30 474 C 45.571 -1.55293 1.36718 0
M  V30 475 C 45.986 -1.88745 -0.0455434 0
M  V30 476 O 45.343 -1.52039 -1.00947 0
M  V30 477 C 45.394 -2.85831 2.2132 0
M  V30 478 O 45.115 -2.5381 3.57089 0
M  V30 479 C 46.616 -3.80023 2.28249 0
M  V30 480 H 43.836 -0.480841 0.468009 0
M  V30 481 H 46.38 -0.946009 1.81303 0
M  V30 482 H 44.535 -3.42926 1.80223 0
M  V30 483 H 44.949 -3.37459 4.01524 0
M  V30 484 H 46.423 -4.68599 2.91752 0
M  V30 485 H 46.9 -4.1973 1.2932 0
M  V30 486 H 47.506 -3.28855 2.69693 0
M  V30 487 N 45.8211 -1.22559 -0.990812 0
M  V30 488 C 47.0611 -1.06302 -1.74583 0
M  V30 489 C 47.4251 0.394737 -1.87898 0
M  V30 490 O 48.6261 0.678214 -2.60103 0
M  V30 491 C 46.8971 -1.75699 -3.11231 0
M  V30 492 S 48.4561 -1.74882 -4.02445 0
M  V30 493 H 45.2741 -0.380639 -0.600529 0
M  V30 494 H 47.8761 -1.55532 -1.18449 0
M  V30 495 H 46.5801 -2.80923 -2.99183 0
M  V30 496 H 46.1111 -1.26708 -3.72436 0
M  V30 497 H 48.1261 -0.799997 -4.89709 0
M  V30 498 N 47.2992 1.18797 -1.03562 0
M  V30 499 C 48.5482 1.87978 -0.731235 0
M  V30 500 C 48.8612 1.80911 0.743671 0
M  V30 501 O 50.0672 2.45407 1.16137 0
M  V30 502 C 48.5232 3.3721 -1.25768 0
M  V30 503 C 48.1312 3.52818 -2.76085 0
M  V30 504 C 49.8752 4.11825 -1.0296 0
M  V30 505 C 47.7822 4.9598 -3.22114 0
M  V30 506 H 46.7122 0.704063 -0.269835 0
M  V30 507 H 49.3632 1.34266 -1.25079 0
M  V30 508 H 47.7452 3.90359 -0.666011 0
M  V30 509 H 48.9192 3.09965 -3.40966 0
M  V30 510 H 47.2342 2.91602 -2.97249 0
M  V30 511 H 49.8312 5.17411 -1.34869 0
M  V30 512 H 50.1742 4.16287 0.0333546 0
M  V30 513 H 50.7072 3.64833 -1.58562 0
M  V30 514 H 47.4462 4.96684 -4.27768 0
M  V30 515 H 46.9662 5.39569 -2.61965 0
M  V30 516 H 48.6452 5.6467 -3.15844 0
M  V30 517 N 48.7773 0.814389 1.34928 0
M  V30 518 C 50.0023 0.410097 2.03305 0
M  V30 519 C 50.4273 -0.973464 1.60951 0
M  V30 520 O 49.7853 -1.63185 0.789964 0
M  V30 521 C 49.8333 0.51049 3.56968 0
M  V30 522 O 48.9373 -0.473035 4.09678 0
M  V30 523 H 48.2783 0.170088 0.641846 0
M  V30 524 H 50.8083 1.10244 1.72358 0
M  V30 525 H 50.8183 0.383135 4.06197 0
M  V30 526 H 49.4933 1.51963 3.87144 0
M  V30 527 H 48.0703 -0.305272 3.71648 0
M  V30 528 N 50.2554 -1.46986 0.568584 0
M  V30 529 C 51.5044 -2.01646 0.0465894 0
M  V30 530 C 51.8174 -1.44721 -1.31587 0
M  V30 531 O 53.0234 -1.91113 -1.92842 0
M  V30 532 C 51.4794 -3.59885 0.032752 0
M  V30 533 C 51.0874 -4.25804 1.39266 0
M  V30 534 C 52.8314 -4.22255 -0.436038 0
M  V30 535 C 50.7384 -5.76081 1.33732 0
M  V30 536 H 49.6684 -0.753876 0.013647 0
M  V30 537 H 52.3194 -1.68864 0.718131 0
M  V30 538 H 50.7014 -3.8968 -0.704669 0
M  V30 539 H 51.8754 -4.07637 2.1487 0
M  V30 540 H 50.1904 -3.7547 1.80032 0
M  V30 541 H 52.7874 -5.32394 -0.49602 0
M  V30 542 H 53.1304 -3.90212 -1.45053 0
M  V30 543 H 53.6634 -3.97033 0.246877 0
M  V30 544 H 50.4024 -6.12761 2.32817 0
M  V30 545 H 49.9224 -5.96553 0.623267 0
M  V30 546 H 51.6014 -6.38518 1.0442 0
M  V30 547 N 51.7335 -0.305618 -1.54608 0
M  V30 548 C 52.9585 0.307562 -2.05107 0
M  V30 549 C 53.3835 1.46385 -1.18123 0
M  V30 550 O 52.7415 1.8034 -0.186324 0
M  V30 551 C 52.7895 0.73704 -3.52987 0
M  V30 552 O 51.8935 1.84134 -3.6901 0
M  V30 553 H 51.2345 0.0589143 -0.661381 0
M  V30 554 H 53.7645 -0.448807 -1.99617 0
M  V30 555 H 53.7745 1.02459 -3.94925 0
M  V30 556 H 52.4495 -0.108773 -4.15758 0
M  V30 557 H 51.0265 1.55398 -3.38978 0
M  V30 558 N 53.2116 1.57565 -0.0334293 0
M  V30 559 C 54.1596 2.1164 0.96496 0
M  V30 560 C 55.1536 1.04398 1.33407 0
M  V30 561 O 56.3596 1.22828 1.3158 0
M  V30 562 H 52.7346 0.676222 0.32898 0
M  V30 563 H 54.7056 2.94455 0.483614 0
M  V30 564 C 53.4546 2.66207 2.23672 0
M  V30 565 H 52.7776 3.48378 1.96145 0
M  V30 566 H 54.2176 3.07685 2.9173 0
M  V30 567 C 52.6766 1.59151 2.96939 0
M  V30 568 O 53.2066 0.993858 3.89211 0
M  V30 569 N 51.4126 1.31093 2.59351 0
M  V30 570 H 50.9596 1.7988 1.84393 0
M  V30 571 H 50.9176 0.596889 3.08682 0
M  V30 572 N 54.6897 -0.239769 1.55765 0
M  V30 573 C 55.6217 -1.32001 1.87372 0
M  V30 574 C 56.6347 -1.43944 0.760522 0
M  V30 575 O 57.8237 -1.45167 1.0387 0
M  V30 576 C 54.9237 -2.69779 2.05115 0
M  V30 577 C 54.0967 -2.80014 3.36022 0
M  V30 578 C 53.1557 -3.98684 3.4342 0
M  V30 579 O 52.1817 -3.87877 4.16582 0
M  V30 580 N 53.3837 -5.12176 2.73232 0
M  V30 581 H 56.1487 -1.0522 2.80622 0
M  V30 582 H 53.7097 -0.429857 1.56089 0
M  V30 583 H 55.7017 -3.47517 2.07399 0
M  V30 584 H 54.2717 -2.89237 1.18577 0
M  V30 585 H 53.4917 -1.88896 3.45994 0
M  V30 586 H 54.7797 -2.83808 4.22292 0
M  V30 587 H 54.1777 -5.2385 2.13536 0
M  V30 588 H 52.7347 -5.88022 2.81199 0
M  V30 589 N 56.1678 -1.49265 -0.50573 0
M  V30 590 C 57.5788 -1.51769 -1.08734 0
M  V30 591 C 57.9298 -0.301192 -1.93874 0
M  V30 592 O 57.0548 0.589456 -2.08217 0
M  V30 593 C 57.6498 -2.75017 -1.97867 0
M  V30 594 C 56.2088 -2.80314 -2.51199 0
M  V30 595 C 55.3558 -2.4562 -1.28709 0
M  V30 596 H 58.3068 -1.56031 -0.289855 0
M  V30 597 H 58.3278 -2.5491 -2.82491 0
M  V30 598 H 57.8398 -3.63539 -1.35873 0
M  V30 599 H 55.9408 -1.96061 -3.16845 0
M  V30 600 H 56.0538 -3.82366 -2.88675 0
M  V30 601 H 54.4178 -1.97297 -1.61078 0
M  V30 602 H 55.2008 -3.36411 -0.6843 0
M  V30 603 N 57.6459 0.756429 -1.3826 0
M  V30 604 C 58.8919 1.51772 -1.34511 0
M  V30 605 C 59.2249 1.94089 0.0656691 0
M  V30 606 O 58.4999 1.65221 1.02626 0
M  V30 607 C 58.7829 2.77226 -2.29821 0
M  V30 608 C 58.6359 2.41065 -3.79747 0
M  V30 609 C 59.9549 3.79236 -2.23312 0
M  V30 610 H 57.0739 0.550578 -0.489931 0
M  V30 611 H 59.7159 0.866607 -1.69086 0
M  V30 612 H 57.8659 3.32784 -2.00467 0
M  V30 613 H 59.5379 1.91303 -4.19763 0
M  V30 614 H 57.7809 1.7356 -3.97567 0
M  V30 615 H 58.4519 3.3081 -4.41892 0
M  V30 616 H 60.9279 3.3321 -2.49219 0
M  V30 617 H 59.8039 4.64714 -2.92116 0
M  V30 618 H 60.0649 4.24615 -1.23102 0
M  V30 619 N 59.124 1.23083 0.984299 0
M  V30 620 C 60.072 1.00593 2.09723 0
M  V30 621 C 61.066 -0.0538014 1.69315 0
M  V30 622 O 62.272 0.0993719 1.79725 0
M  V30 623 H 58.647 0.30817 0.685956 0
M  V30 624 H 60.618 1.95012 2.2586 0
M  V30 625 C 59.367 0.609601 3.42314 0
M  V30 626 H 58.69 1.41675 3.73856 0
M  V30 627 H 60.13 0.491726 4.21139 0
M  V30 628 C 58.589 -0.681745 3.2993 0
M  V30 629 O 59.119 -1.73192 3.62446 0
M  V30 630 N 57.325 -0.656178 2.83095 0
M  V30 631 H 56.872 0.198759 2.56832 0
M  V30 632 H 56.83 -1.52044 2.75191 0
M  V30 633 N 60.6021 -1.18246 1.0419 0
M  V30 634 C 62.0131 -1.69914 0.773698 0
M  V30 635 C 62.3641 -1.83085 -0.705297 0
M  V30 636 O 61.4891 -1.51123 -1.5489 0
M  V30 637 C 62.0841 -3.08619 1.39784 0
M  V30 638 C 60.6431 -3.57494 1.17792 0
M  V30 639 C 59.7901 -2.34013 1.48773 0
M  V30 640 H 62.7411 -1.02904 1.20816 0
M  V30 641 H 62.7621 -3.71958 0.801714 0
M  V30 642 H 62.2741 -2.99001 2.47426 0
M  V30 643 H 60.3751 -3.72406 0.120295 0
M  V30 644 H 60.4881 -4.40852 1.87581 0
M  V30 645 H 58.8521 -2.37986 0.907463 0
M  V30 646 H 59.6351 -2.27013 2.57527 0
M  V30 647 N 62.0802 -0.821533 -1.34494 0
M  V30 648 C 63.4962 -0.507117 -1.51329 0
M  V30 649 C 63.6962 0.968964 -1.76673 0
M  V30 650 O 62.7522 1.75348 -1.81685 0
M  V30 651 C 64.0652 -1.36544 -2.67911 0
M  V30 652 C 65.6132 -1.36242 -2.81793 0
M  V30 653 C 66.0882 -2.2052 -4.01416 0
M  V30 654 N 67.5792 -2.18136 -4.08621 0
M  V30 655 C 68.3142 -2.80095 -5.00334 0
M  V30 656 N 67.8102 -3.51039 -5.9728 0
M  V30 657 N 69.6032 -2.69656 -4.93196 0
M  V30 658 H 61.7542 -1.77729 -1.16302 0
M  V30 659 H 64.0172 -0.757291 -0.570276 0
M  V30 660 H 63.7232 -2.41361 -2.55808 0
M  V30 661 H 63.5972 -1.02917 -3.62888 0
M  V30 662 H 65.9842 -0.322041 -2.93338 0
M  V30 663 H 66.0652 -1.73866 -1.87628 0
M  V30 664 H 65.7092 -3.24607 -3.90631 0
M  V30 665 H 65.6392 -1.80247 -4.94791 0
M  V30 666 H 68.1302 -1.6653 -3.39229 0
M  V30 667 H 68.4432 -3.95565 -6.63889 0
M  V30 668 H 66.7882 -3.55145 -5.97409 0
M  V30 669 H 69.9792 -2.13808 -4.16418 0
M  V30 670 H 70.1522 -3.1823 -5.64476 0
M  V30 671 N 63.5583 1.46682 -0.576371 0
M  V30 672 C 64.7833 2.07304 -0.0630475 0
M  V30 673 C 65.2083 1.42329 1.2298 0
M  V30 674 O 64.5663 0.504865 1.74129 0
M  V30 675 C 64.6143 3.60472 0.095895 0
M  V30 676 O 63.7183 3.95927 1.15394 0
M  V30 677 H 63.0593 0.661288 -0.0599463 0
M  V30 678 H 65.5893 1.88417 -0.797511 0
M  V30 679 H 65.5993 4.06865 0.304071 0
M  V30 680 H 64.2743 4.07157 -0.84828 0
M  V30 681 H 62.8513 3.61252 0.924724 0
M  V30 682 N 65.0364 0.313813 1.54444 0
M  V30 683 C 65.9664 -0.549454 2.26943 0
M  V30 684 C 66.9474 -1.12741 1.27372 0
M  V30 685 O 68.1324 -1.15436 1.56167 0
M  V30 686 C 65.2624 -1.71523 3.01989 0
M  V30 687 C 64.2164 -1.26703 4.08816 0
M  V30 688 C 63.5424 -2.51898 4.71647 0
M  V30 689 C 64.8424 -0.388962 5.2085 0
M  V30 690 H 66.5364 0.0552661 2.99349 0
M  V30 691 H 64.0824 0.0280207 1.43973 0
M  V30 692 H 66.0354 -2.32535 3.51433 0
M  V30 693 H 64.7594 -2.34639 2.27183 0
M  V30 694 H 63.4184 -0.679896 3.6024 0
M  V30 695 H 63.0664 -3.13356 3.93468 0
M  V30 696 H 62.7664 -2.22605 5.43802 0
M  V30 697 H 64.2904 -3.1369 5.23861 0
M  V30 698 H 65.7044 -0.905107 5.6611 0
M  V30 699 H 64.1014 -0.18924 5.99802 0
M  V30 700 H 65.1714 0.582699 4.81386 0
M  V30 701 N 66.5145 -1.57545 0.0417849 0
M  V30 702 C 67.4245 -2.14451 -0.951213 0
M  V30 703 C 68.4405 -1.09992 -1.34825 0
M  V30 704 O 69.6165 -1.42114 -1.42708 0
M  V30 705 C 66.6815 -2.67063 -2.21084 0
M  V30 706 C 65.7425 -3.86284 -1.87304 0
M  V30 707 C 64.9755 -4.36378 -3.07261 0
M  V30 708 O 65.1985 -3.85587 -4.20332 0
M  V30 709 O 64.1325 -5.28077 -2.88822 0
M  V30 710 H 67.9585 -2.99601 -0.497287 0
M  V30 711 H 65.5435 -1.48317 -0.179567 0
M  V30 712 H 67.4255 -3.00914 -2.95006 0
M  V30 713 H 66.1005 -1.84989 -2.65633 0
M  V30 714 H 65.0075 -3.57338 -1.10727 0
M  V30 715 H 66.3405 -4.6956 -1.47562 0
M  V30 716 N 67.9926 0.231505 -1.5589 0
M  V30 717 C 68.9396 1.28682 -1.91598 0
M  V30 718 C 69.9096 1.47071 -0.771974 0
M  V30 719 O 71.0946 1.60802 -1.027 0
M  V30 720 C 68.2346 2.6342 -2.22944 0
M  V30 721 C 67.3476 2.52912 -3.50228 0
M  V30 722 C 66.4826 3.80106 -3.7107 0
M  V30 723 C 65.5216 3.64279 -4.91902 0
M  V30 724 N 64.6586 4.834 -5.09184 0
M  V30 725 H 69.4986 0.975305 -2.81588 0
M  V30 726 H 67.0356 0.470299 -1.39379 0
M  V30 727 H 68.9936 3.41869 -2.39126 0
M  V30 728 H 67.6236 2.92687 -1.36139 0
M  V30 729 H 66.6756 1.6595 -3.42294 0
M  V30 730 H 67.9876 2.37133 -4.38827 0
M  V30 731 H 67.1416 4.66999 -3.87295 0
M  V30 732 H 65.8806 3.98799 -2.80733 0
M  V30 733 H 64.8856 2.7577 -4.75637 0
M  V30 734 H 66.1106 3.47067 -5.83714 0
M  V30 735 H 64.0566 5.02425 -4.21788 0
M  V30 736 H 63.9736 4.70311 -5.91898 0
M  V30 737 H 65.2416 5.71747 -5.29835 0
M  V30 738 N 69.4707 1.49531 0.497807 0
M  V30 739 C 70.4007 1.6935 1.60757 0
M  V30 740 C 71.3817 0.542218 1.61227 0
M  V30 741 O 72.5667 0.778417 1.77917 0
M  V30 742 C 69.6967 1.76298 2.99226 0
M  V30 743 C 68.6507 2.91248 3.13622 0
M  V30 744 C 67.9767 2.83312 4.53474 0
M  V30 745 C 69.2767 4.3214 2.93346 0
M  V30 746 H 70.9707 2.62263 1.44425 0
M  V30 747 H 68.5167 1.26208 0.693367 0
M  V30 748 H 70.4697 1.88749 3.76765 0
M  V30 749 H 69.1937 0.799871 3.16654 0
M  V30 750 H 67.8527 2.78404 2.38509 0
M  V30 751 H 67.5007 1.84902 4.67782 0
M  V30 752 H 67.2007 3.60465 4.64046 0
M  V30 753 H 68.7247 2.97775 5.33069 0
M  V30 754 H 70.1387 4.45649 3.60652 0
M  V30 755 H 68.5357 5.1054 3.15387 0
M  V30 756 H 69.6057 4.46363 1.89441 0
M  V30 757 N 70.9488 -0.749086 1.3866 0
M  V30 758 C 71.8588 -1.89358 1.38494 0
M  V30 759 C 72.8748 -1.71708 0.281476 0
M  V30 760 O 74.0508 -1.94554 0.520643 0
M  V30 761 C 71.1158 -3.24782 1.21316 0
M  V30 762 C 70.1768 -3.54926 2.41508 0
M  V30 763 C 69.4098 -4.83888 2.2514 0
M  V30 764 O 69.6328 -5.56592 1.24746 0
M  V30 765 O 68.5668 -5.13612 3.13826 0
M  V30 766 H 72.3928 -1.92452 2.34938 0
M  V30 767 H 69.9778 -0.894981 1.19626 0
M  V30 768 H 71.8598 -4.05739 1.13814 0
M  V30 769 H 70.5348 -3.2249 0.279592 0
M  V30 770 H 69.4418 -2.74112 2.54585 0
M  V30 771 H 70.7748 -3.61983 3.3351 0
M  V30 772 N 72.4269 -1.23603 -0.977757 0
M  V30 773 C 73.6759 -1.06377 -1.71368 0
M  V30 774 C 73.9889 0.399062 -1.91486 0
M  V30 775 O 75.1949 0.691312 -2.62551 0
M  V30 776 C 73.6509 -1.85512 -3.08404 0
M  V30 777 C 73.2589 -3.36141 -2.96164 0
M  V30 778 C 75.0029 -1.76783 -3.85938 0
M  V30 779 C 72.9099 -4.07659 -4.28449 0
M  V30 780 H 71.8399 -0.394452 -0.642591 0
M  V30 781 H 74.4909 -1.47594 -1.09034 0
M  V30 782 H 72.8729 -1.37103 -3.71509 0
M  V30 783 H 74.0469 -3.92056 -2.42133 0
M  V30 784 H 72.3619 -3.45712 -2.32104 0
M  V30 785 H 74.9589 -2.27526 -4.83876 0
M  V30 786 H 75.3019 -0.731116 -4.0983 0
M  V30 787 H 75.8349 -2.22818 -3.2954 0
M  V30 788 H 72.5739 -5.11648 -4.09752 0
M  V30 789 H 72.0939 -3.5653 -4.82334 0
M  V30 790 H 73.7729 -4.141 -4.97122 0
M  V30 791 N 73.905 1.17692 -1.04816 0
M  V30 792 C 75.154 1.87192 -0.751132 0
M  V30 793 C 75.467 1.8169 0.724441 0
M  V30 794 O 76.673 2.46625 1.13527 0
M  V30 795 C 75.129 3.35857 -1.29338 0
M  V30 796 C 74.737 3.4987 -2.79812 0
M  V30 797 C 76.481 4.10709 -1.07322 0
M  V30 798 C 74.388 4.92536 -3.27356 0
M  V30 799 H 73.318 0.701162 -0.277288 0
M  V30 800 H 75.969 1.32932 -1.26496 0
M  V30 801 H 74.351 3.89631 -0.707376 0
M  V30 802 H 75.525 3.06332 -3.44235 0
M  V30 803 H 73.84 2.88433 -3.00325 0
M  V30 804 H 76.437 5.15952 -1.4035 0
M  V30 805 H 76.78 4.16299 -0.0108001 0
M  V30 806 H 77.313 3.6313 -1.62423 0
M  V30 807 H 74.052 4.92119 -4.33012 0
M  V30 808 H 73.572 5.3676 -2.67673 0
M  V30 809 H 75.251 5.61288 -3.21815 0
M  V30 810 N 75.3831 0.828654 1.34056 0
M  V30 811 C 76.7941 0.477534 1.8049 0
M  V30 812 C 77.1451 -1.00258 1.6865 0
M  V30 813 O 76.2701 -1.78057 1.22982 0
M  V30 814 C 76.8651 0.860018 3.27703 0
M  V30 815 C 75.4241 0.561185 3.72193 0
M  V30 816 C 74.5711 1.07385 2.55663 0
M  V30 817 H 77.5221 1.0183 1.21722 0
M  V30 818 H 77.5431 0.166038 3.80138 0
M  V30 819 H 77.0551 1.93731 3.36288 0
M  V30 820 H 75.1561 -0.506465 3.69142 0
M  V30 821 H 75.2691 1.10926 4.66082 0
M  V30 822 H 73.6331 0.495149 2.49841 0
M  V30 823 H 74.4161 2.15771 2.67016 0
M  V30 824 N 76.8612 -1.46375 0.584142 0
M  V30 825 C 77.8242 -2.28784 -0.138108 0
M  V30 826 C 78.8242 -1.38471 -0.817462 0
M  V30 827 O 80.0142 -1.60833 -0.669199 0
M  V30 828 C 77.1462 -3.18892 -1.20503 0
M  V30 829 H 78.3392 -2.94117 0.586127 0
M  V30 830 H 75.8922 -1.52509 0.342171 0
M  V30 831 H 76.6272 -2.58309 -1.96079 0
M  V30 832 H 76.4122 -3.85388 -0.722384 0
M  V30 833 H 77.9022 -3.80914 -1.71155 0
M  V30 834 N 78.3393 -0.321999 -1.54275 0
M  V30 835 C 79.5643 0.285791 -2.05422 0
M  V30 836 C 79.9893 1.45124 -1.19669 0
M  V30 837 O 79.3473 1.80132 -0.205441 0
M  V30 838 C 79.3953 0.69956 -3.53749 0
M  V30 839 O 78.4993 1.8021 -3.70942 0
M  V30 840 H 77.8403 0.0518962 -0.661969 0
M  V30 841 H 80.3703 -0.469954 -1.9913 0
M  V30 842 H 80.3803 0.982649 -3.9599 0
M  V30 843 H 79.0553 -0.152864 -4.15619 0
M  V30 844 H 77.6323 1.51794 -3.40607 0
M  V30 845 N 79.8174 1.5752 -0.0501392 0
M  V30 846 C 80.7494 2.08413 0.95376 0
M  V30 847 C 81.7624 1.01175 1.27544 0
M  V30 848 O 82.9514 1.28744 1.23641 0
M  V30 849 C 80.0514 2.51138 2.27559 0
M  V30 850 C 79.2244 3.817 2.13598 0
M  V30 851 C 78.2834 4.10749 3.28895 0
M  V30 852 O 77.3094 4.80685 3.04845 0
M  V30 853 N 78.5114 3.62579 4.5334 0
M  V30 854 H 81.2764 2.95165 0.519383 0
M  V30 855 H 78.8374 1.61327 0.136127 0
M  V30 856 H 80.8294 2.67648 3.03557 0
M  V30 857 H 79.3994 1.6964 2.62567 0
M  V30 858 H 78.6194 3.74782 1.22197 0
M  V30 859 H 79.9074 4.67201 2.01496 0
M  V30 860 H 79.3054 3.06039 4.75769 0
M  V30 861 H 77.8624 3.84329 5.26436 0
M  V30 862 N 81.2955 -0.223234 1.56011 0
M  V30 863 C 82.5425 -0.947875 1.78946 0
M  V30 864 C 82.8705 -1.844 0.618608 0
M  V30 865 O 82.1255 -1.91629 -0.397093 0
M  V30 866 C 82.4245 -1.81948 3.0762 0
M  V30 867 C 82.0905 -1.07672 4.37856 0
M  V30 868 C 80.7525 -0.871544 4.73242 0
M  V30 869 C 83.1045 -0.552081 5.18268 0
M  V30 870 C 80.4325 -0.129791 5.86556 0
M  V30 871 C 82.7845 0.17632 6.32354 0
M  V30 872 C 81.4485 0.39277 6.66343 0
M  V30 873 H 80.7185 -0.346852 0.654809 0
M  V30 874 H 83.3655 -0.216171 1.90276 0
M  V30 875 H 81.6705 -2.61899 2.91404 0
M  V30 876 H 83.3675 -2.38227 3.22566 0
M  V30 877 H 79.9575 -1.24662 4.1007 0
M  V30 878 H 84.1415 -0.698076 4.91366 0
M  V30 879 H 79.3975 0.048153 6.11381 0
M  V30 880 H 83.5715 0.590367 6.93893 0
M  V30 881 H 81.1985 0.969466 7.53993 0
M  V30 882 N 82.7736 -1.49793 -0.48987 0
M  V30 883 C 84.0136 -1.61466 -1.25332 0
M  V30 884 C 84.3776 -0.299688 -1.89647 0
M  V30 885 O 85.5786 -0.291687 -2.67213 0
M  V30 886 C 83.8496 -2.74944 -2.28343 0
M  V30 887 S 85.4086 -3.06637 -3.13878 0
M  V30 888 H 82.2266 -0.569411 -0.425784 0
M  V30 889 H 84.8286 -1.875 -0.553541 0
M  V30 890 H 83.5326 -3.68994 -1.79643 0
M  V30 891 H 83.0636 -2.50938 -3.02975 0
M  V30 892 H 85.0786 -2.49015 -4.29192 0
M  V30 893 N 84.2517 0.741722 -1.39055 0
M  V30 894 C 85.6627 1.31966 -1.32068 0
M  V30 895 C 86.0137 1.96192 0.0180797 0
M  V30 896 O 85.1387 1.95861 0.920196 0
M  V30 897 C 85.7337 2.39954 -2.39181 0
M  V30 898 C 84.2927 2.93438 -2.35735 0
M  V30 899 C 83.4397 1.66936 -2.21422 0
M  V30 900 H 86.3907 0.539721 -1.4924 0
M  V30 901 H 86.4117 3.20182 -2.05581 0
M  V30 902 H 85.9237 1.9318 -3.36605 0
M  V30 903 H 84.0247 3.4451 -1.41929 0
M  V30 904 H 84.1377 3.4701 -3.30335 0
M  V30 905 H 82.5017 1.91016 -1.68478 0
M  V30 906 H 83.2847 1.22224 -3.20806 0
M  V30 907 N 85.7298 1.2412 0.971189 0
M  V30 908 C 87.1458 1.00584 1.23916 0
M  V30 909 C 87.3458 -0.287481 1.99439 0
M  V30 910 O 86.4018 -1.00454 2.31658 0
M  V30 911 C 87.7148 2.21864 2.0297 0
M  V30 912 C 89.2628 2.26452 2.16076 0
M  V30 913 C 89.7378 3.47343 2.98524 0
M  V30 914 N 91.2288 3.47639 3.06107 0
M  V30 915 C 91.9638 4.37837 3.70251 0
M  V30 916 N 91.4598 5.38286 4.36142 0
M  V30 917 N 93.2528 4.25558 3.67228 0
M  V30 918 H 85.4038 2.07236 0.465499 0
M  V30 919 H 87.6668 0.909236 0.268315 0
M  V30 920 H 87.3728 3.15771 1.54861 0
M  V30 921 H 87.2468 2.23698 3.03709 0
M  V30 922 H 89.6338 1.33078 2.6339 0
M  V30 923 H 89.7148 2.28645 1.14696 0
M  V30 924 H 89.3588 4.41029 2.51905 0
M  V30 925 H 89.2888 3.42393 4.00093 0
M  V30 926 H 91.7798 2.74966 2.59233 0
M  V30 927 H 92.0928 6.03352 4.82894 0
M  V30 928 H 90.4378 5.42176 4.34822 0
M  V30 929 H 93.6288 3.46322 3.14927 0
M  V30 930 H 93.8018 4.96054 4.16935 0
M  V30 931 N 87.2079 -1.17134 1.05439 0
M  V30 932 C 88.4539 -1.87733 0.767077 0
M  V30 933 C 88.7869 -1.8098 -0.704253 0
M  V30 934 O 88.0619 -1.21951 -1.5152 0
M  V30 935 C 88.3449 -3.37659 1.25133 0
M  V30 936 C 88.1979 -3.53149 2.78578 0
M  V30 937 C 89.5169 -4.31768 0.852324 0
M  V30 938 H 86.6359 -0.681687 0.280129 0
M  V30 939 H 89.2779 -1.37732 1.30881 0
M  V30 940 H 87.4279 -3.80373 0.790469 0
M  V30 941 H 89.0999 -3.19434 3.32806 0
M  V30 942 H 87.3429 -2.95345 3.17732 0
M  V30 943 H 88.0139 -4.58403 3.07523 0
M  V30 944 H 90.4899 -3.96909 1.24911 0
M  V30 945 H 89.3659 -5.35199 1.21873 0
M  V30 946 H 89.6269 -4.41429 -0.243485 0
M  V30 947 N 88.686 -0.835752 -1.33615 0
M  V30 948 C 89.596 -0.269088 -2.33052 0
M  V30 949 C 90.612 0.603251 -1.63208 0
M  V30 950 O 91.788 0.508112 -1.94885 0
M  V30 951 C 88.853 0.549091 -3.42324 0
M  V30 952 C 87.914 -0.347156 -4.27894 0
M  V30 953 C 87.147 0.43207 -5.31948 0
M  V30 954 O 87.37 1.66409 -5.45586 0
M  V30 955 O 86.304 -0.192298 -6.01593 0
M  V30 956 H 90.13 -1.09243 -2.83372 0
M  V30 957 H 87.715 -0.598198 -1.36901 0
M  V30 958 H 89.597 1.01414 -4.09015 0
M  V30 959 H 88.272 1.34955 -2.94226 0
M  V30 960 H 87.179 -0.859979 -3.64081 0
M  V30 961 H 88.512 -1.1123 -4.79467 0
M  V30 962 N 90.1641 1.46063 -0.591896 0
M  V30 963 C 91.4131 2.01547 -0.0786637 0
M  V30 964 C 91.7261 1.46796 1.29268 0
M  V30 965 O 92.9321 1.94157 1.89777 0
M  V30 966 C 91.3881 3.59787 -0.0900024 0
M  V30 967 C 90.9961 4.23534 -1.46023 0
M  V30 968 C 92.7401 4.22895 0.368806 0
M  V30 969 C 90.6471 5.73881 -1.4288 0
M  V30 970 H 89.5771 0.753564 -0.0256388 0
M  V30 971 H 92.2281 1.677 -0.744905 0
M  V30 972 H 90.6101 3.90752 0.642586 0
M  V30 973 H 91.7841 4.04167 -2.21328 0
M  V30 974 H 90.0991 3.72558 -1.85982 0
M  V30 975 H 92.6961 5.33116 0.411258 0
M  V30 976 H 93.0391 3.9247 1.38827 0
M  V30 977 H 93.5721 3.9659 -0.31001 0
M  V30 978 H 90.3111 6.0898 -2.42536 0
M  V30 979 H 89.8311 5.95486 -0.718095 0
M  V30 980 H 91.5101 6.36776 -1.14565 0
M  V30 981 N 91.6422 0.330177 1.54103 0
M  V30 982 C 92.8912 -0.271336 1.99867 0
M  V30 983 C 93.2042 -1.52723 1.22209 0
M  V30 984 O 94.4102 -2.20515 1.58383 0
M  V30 985 C 92.8662 -0.534032 3.55916 0
M  V30 986 C 92.4742 0.705193 4.42415 0
M  V30 987 C 94.2182 -1.09514 4.1013 0
M  V30 988 C 92.1252 0.414035 5.89949 0
M  V30 989 H 91.0552 -0.105166 0.74663 0
M  V30 990 H 93.7062 0.443429 1.78062 0
M  V30 991 H 92.0882 -1.30915 3.73734 0
M  V30 992 H 93.2622 1.4804 4.36372 0
M  V30 993 H 91.5772 1.18698 3.99124 0
M  V30 994 H 94.1742 -1.3277 5.17954 0
M  V30 995 H 94.5172 -2.04656 3.62521 0
M  V30 996 H 95.0502 -0.381038 3.95971 0
M  V30 997 H 91.7892 1.33481 6.41766 0
M  V30 998 H 91.3092 -0.323336 5.98928 0
M  V30 999 H 92.9882 0.0263105 6.46995 0
M  V30 1000 N 93.1203 -1.57491 0.0584922 0
M  V30 1001 C 94.0833 -2.1085 -0.898617 0
M  V30 1002 C 95.0833 -1.02964 -1.23511 0
M  V30 1003 O 96.2733 -1.29007 -1.17059 0
M  V30 1004 C 93.4053 -2.59881 -2.20623 0
M  V30 1005 H 94.5983 -2.96715 -0.435936 0
M  V30 1006 H 92.1513 -1.55141 -0.190023 0
M  V30 1007 H 92.8863 -1.77431 -2.71457 0
M  V30 1008 H 92.6713 -3.38727 -1.97501 0
M  V30 1009 H 94.1613 -3.01285 -2.89166 0
M  V30 1010 N 94.5984 0.214957 -1.56127 0
M  V30 1011 C 95.8264 0.955092 -1.83536 0
M  V30 1012 C 96.2414 1.77677 -0.638472 0
M  V30 1013 O 95.5984 1.78219 0.392968 0
M  V30 1014 C 95.6494 1.86734 -3.09536 0
M  V30 1015 O 95.3704 1.07887 -4.24608 0
M  V30 1016 C 96.8714 2.72082 -3.4998 0
M  V30 1017 H 94.0914 0.279611 -0.609966 0
M  V30 1018 H 96.6354 0.228197 -2.03223 0
M  V30 1019 H 94.7904 2.5481 -2.91806 0
M  V30 1020 H 95.2044 1.69872 -4.9623 0
M  V30 1021 H 96.6784 3.31782 -4.41163 0
M  V30 1022 H 97.1554 3.44806 -2.7204 0
M  V30 1023 H 97.7614 2.09409 -3.70173 0
M  V30 1024 N 96.0765 1.50051 0.48192 0
M  V30 1025 C 97.0095 1.62749 1.59963 0
M  V30 1026 C 97.9875 0.475903 1.5548 0
M  V30 1027 O 99.1715 0.693986 1.7526 0
M  V30 1028 C 96.2985 1.60008 2.98522 0
M  V30 1029 C 95.3445 2.80596 3.21198 0
M  V30 1030 S 96.1775 4.42038 3.02262 0
M  V30 1031 C 97.3335 4.41973 4.43182 0
M  V30 1032 H 97.5665 2.57296 1.4895 0
M  V30 1033 H 95.0995 1.39179 0.668477 0
M  V30 1034 H 97.0575 1.59112 3.78409 0
M  V30 1035 H 95.7185 0.667153 3.06933 0
M  V30 1036 H 94.9115 2.74952 4.22395 0
M  V30 1037 H 94.5135 2.79003 2.49065 0
M  V30 1038 H 96.8055 4.14868 5.35622 0
M  V30 1039 H 97.7485 5.43512 4.53873 0
M  V30 1040 H 98.1565 3.71812 4.24755 0
M  V30 1041 N 97.5546 -0.734337 1.39446 0
M  V30 1042 C 98.5016 -1.84835 1.38219 0
M  V30 1043 C 99.4716 -1.64331 0.24179 0
M  V30 1044 O 100.657 -1.85728 0.437002 0
M  V30 1045 C 97.7966 -3.22355 1.23212 0
M  V30 1046 C 96.9096 -3.5456 2.46801 0
M  V30 1047 C 96.0446 -4.81485 2.24377 0
M  V30 1048 C 95.0836 -5.06536 3.43639 0
M  V30 1049 N 94.2206 -6.24665 3.20528 0
M  V30 1050 H 99.0606 -1.85219 2.33448 0
M  V30 1051 H 96.5976 -0.905039 1.15963 0
M  V30 1052 H 98.5556 -4.0174 1.12522 0
M  V30 1053 H 97.1856 -3.21248 0.316121 0
M  V30 1054 H 96.2376 -2.69872 2.68092 0
M  V30 1055 H 97.5496 -3.6899 3.3563 0
M  V30 1056 H 96.7036 -5.68852 2.10933 0
M  V30 1057 H 95.4426 -4.6923 1.32944 0
M  V30 1058 H 94.4476 -4.17632 3.5758 0
M  V30 1059 H 95.6726 -5.20676 4.35974 0
M  V30 1060 H 93.6186 -6.13696 2.3176 0
M  V30 1061 H 93.5356 -6.39685 4.02913 0
M  V30 1062 H 94.8036 -7.14868 3.10779 0
M  V30 1063 N 99.0327 -1.24633 -0.964593 0
M  V30 1064 C 99.9797 -1.04144 -2.05968 0
M  V30 1065 C 100.95 0.046262 -1.66036 0
M  V30 1066 O 102.135 -0.108972 -1.90489 0
M  V30 1067 C 99.2747 -0.65563 -3.38815 0
M  V30 1068 C 98.3877 -1.81714 -3.91923 0
M  V30 1069 C 97.5227 -1.37662 -5.13052 0
M  V30 1070 C 96.5617 -2.50788 -5.58365 0
M  V30 1071 N 95.6987 -2.07582 -6.70712 0
M  V30 1072 H 100.539 -1.9787 -2.22827 0
M  V30 1073 H 98.0757 -0.9855 -1.09208 0
M  V30 1074 H 100.034 -0.412954 -4.15151 0
M  V30 1075 H 98.6637 0.244627 -3.21872 0
M  V30 1076 H 97.7157 -2.1734 -3.12198 0
M  V30 1077 H 99.0277 -2.66705 -4.21509 0
M  V30 1078 H 98.1817 -1.093 -5.96773 0
M  V30 1079 H 96.9207 -0.497293 -4.85158 0
M  V30 1080 H 95.9257 -2.79906 -4.73215 0
M  V30 1081 H 97.1507 -3.39283 -5.88272 0
M  V30 1082 H 95.0967 -1.22051 -6.44546 0
M  V30 1083 H 95.0137 -2.86125 -6.99763 0
M  V30 1084 H 96.2817 -1.82369 -7.57867 0
M  V30 1085 N 100.511 1.16574 -1.06058 0
M  V30 1086 C 101.458 2.20883 -0.669263 0
M  V30 1087 C 102.428 1.62729 0.332918 0
M  V30 1088 O 103.613 1.895 0.222346 0
M  V30 1089 C 100.753 3.45049 -0.0593572 0
M  V30 1090 C 99.8658 4.17458 -1.11143 0
M  V30 1091 C 99.0008 5.29135 -0.467916 0
M  V30 1092 C 98.0398 5.93343 -1.50369 0
M  V30 1093 N 97.1768 6.96516 -0.883706 0
M  V30 1094 H 102.017 2.53709 -1.5632 0
M  V30 1095 H 99.5538 1.24616 -0.781625 0
M  V30 1096 H 101.512 4.16033 0.311771 0
M  V30 1097 H 100.142 3.12781 0.797992 0
M  V30 1098 H 99.1938 3.45101 -1.60029 0
M  V30 1099 H 100.506 4.61307 -1.89731 0
M  V30 1100 H 99.6598 6.06684 -0.0436871 0
M  V30 1101 H 98.3988 4.86443 0.349864 0
M  V30 1102 H 97.4038 5.14517 -1.93784 0
M  V30 1103 H 98.6288 6.38114 -2.32352 0
M  V30 1104 H 96.5748 6.55943 -0.086595 0
M  V30 1105 H 96.4918 7.38723 -1.607 0
M  V30 1106 H 97.7598 7.77993 -0.484543 0
M  V30 1107 N 101.989 0.842826 1.3317 0
M  V30 1108 C 103.237 0.439577 1.97262 0
M  V30 1109 C 103.558 -1.00548 1.67078 0
M  V30 1110 O 102.828 -1.70098 0.971779 0
M  V30 1111 H 101.408 0.159558 0.72976 0
M  V30 1112 H 104.07 1.07665 1.62463 0
M  V30 1113 H 103.166 0.574886 3.0676 0
M  V30 1114 N 103.467 -1.45747 0.599634 0
M  V30 1115 C 104.377 -2.34262 -0.125888 0
M  V30 1116 C 105.393 -1.50768 -0.868625 0
M  V30 1117 O 106.569 -1.83592 -0.828003 0
M  V30 1118 C 103.634 -3.28252 -1.11587 0
M  V30 1119 C 102.695 -4.27651 -0.375956 0
M  V30 1120 C 101.928 -5.1715 -1.31877 0
M  V30 1121 O 102.151 -5.09916 -2.55621 0
M  V30 1122 O 101.085 -5.96286 -0.820157 0
M  V30 1123 H 104.911 -2.97688 0.601315 0
M  V30 1124 H 102.496 -1.44999 0.359934 0
M  V30 1125 H 104.378 -3.86191 -1.68626 0
M  V30 1126 H 103.053 -2.67401 -1.82424 0
M  V30 1127 H 101.96 -3.7335 0.236698 0
M  V30 1128 H 103.293 -4.91334 0.29177 0
M  V30 1129 N 104.945 -0.338344 -1.53925 0
M  V30 1130 C 105.892 0.520845 -2.24846 0
M  V30 1131 C 106.862 1.09976 -1.24477 0
M  V30 1132 O 108.047 1.13735 -1.53196 0
M  V30 1133 C 105.187 1.6685 -3.02084 0
M  V30 1134 C 104.3 1.11739 -4.17299 0
M  V30 1135 C 103.435 2.23193 -4.82036 0
M  V30 1136 C 102.474 1.65407 -5.89328 0
M  V30 1137 N 101.611 2.70582 -6.47866 0
M  V30 1138 H 106.451 -0.0904881 -2.97863 0
M  V30 1139 H 103.988 -0.0564282 -1.46992 0
M  V30 1140 H 105.946 2.34407 -3.45122 0
M  V30 1141 H 104.576 2.2509 -2.31375 0
M  V30 1142 H 103.628 0.332919 -3.7894 0
M  V30 1143 H 104.94 0.654677 -4.94485 0
M  V30 1144 H 104.094 2.98626 -5.28117 0
M  V30 1145 H 102.833 2.72807 -4.04262 0
M  V30 1146 H 101.838 0.884779 -5.42634 0
M  V30 1147 H 103.063 1.16652 -6.69006 0
M  V30 1148 H 101.009 3.1946 -5.72959 0
M  V30 1149 H 100.926 2.28917 -7.20509 0
M  V30 1150 H 102.194 3.45799 -6.98601 0
M  V30 1151 N 106.423 1.57458 -0.0668435 0
M  V30 1152 C 107.839 1.56947 0.289772 0
M  V30 1153 C 108.039 1.07584 1.70376 0
M  V30 1154 O 107.095 0.739486 2.41429 0
M  V30 1155 C 108.408 3.0052 0.103943 0
M  V30 1156 C 109.956 3.12517 0.173857 0
M  V30 1157 C 110.431 4.57997 0.0163682 0
M  V30 1158 N 111.922 4.63144 0.0721352 0
M  V30 1159 C 112.657 5.73394 -0.0253794 0
M  V30 1160 N 112.153 6.92576 -0.176133 0
M  V30 1161 N 113.946 5.62091 0.0313305 0
M  V30 1162 H 106.097 1.87863 -0.991027 0
M  V30 1163 H 108.36 0.86583 -0.38606 0
M  V30 1164 H 108.066 3.40729 -0.871572 0
M  V30 1165 H 107.94 3.67304 0.858366 0
M  V30 1166 H 110.327 2.72197 1.13985 0
M  V30 1167 H 110.408 2.48381 -0.611586 0
M  V30 1168 H 110.052 4.99005 -0.946374 0
M  V30 1169 H 109.982 5.20158 0.821153 0
M  V30 1170 H 112.473 3.77436 0.187263 0
M  V30 1171 H 112.786 7.72418 -0.242821 0
M  V30 1172 H 111.131 6.94678 -0.211429 0
M  V30 1173 H 114.322 4.67867 0.147773 0
M  V30 1174 H 114.495 6.47982 -0.048121 0
M  V30 1175 N 107.901 -0.206675 1.56239 0
M  V30 1176 C 109.141 -0.93574 1.81723 0
M  V30 1177 C 109.505 -1.80927 0.642609 0
M  V30 1178 O 110.706 -2.57323 0.777081 0
M  V30 1179 C 108.977 -1.74012 3.12177 0
M  V30 1180 S 110.536 -2.52279 3.59028 0
M  V30 1181 H 107.354 -0.314065 0.637875 0
M  V30 1182 H 109.956 -0.200071 1.94474 0
M  V30 1183 H 108.66 -1.0888 3.95693 0
M  V30 1184 H 108.191 -2.51782 3.02274 0
M  V30 1185 H 110.206 -3.76209 3.23545 0
M  V30 1186 N 109.379 -1.50304 -0.473955 0
M  V30 1187 C 110.309 -1.71886 -1.58042 0
M  V30 1188 C 111.29 -0.567799 -1.60344 0
M  V30 1189 O 112.475 -0.806623 -1.76656 0
M  V30 1190 C 109.605 -1.81036 -2.96384 0
M  V30 1191 C 108.559 -2.962 -3.08949 0
M  V30 1192 C 107.885 -2.9049 -4.48909 0
M  V30 1193 C 109.185 -4.36752 -2.86434 0
M  V30 1194 H 110.879 -2.64527 -1.40234 0
M  V30 1195 H 108.425 -1.27295 -0.673201 0
M  V30 1196 H 110.378 -1.94719 -3.73714 0
M  V30 1197 H 109.102 -0.850147 -3.15341 0
M  V30 1198 H 107.761 -2.82164 -2.3405 0
M  V30 1199 H 107.409 -1.92321 -4.64781 0
M  V30 1200 H 107.109 -3.67802 -4.58253 0
M  V30 1201 H 108.633 -3.06218 -5.28264 0
M  V30 1202 H 110.047 -4.5133 -3.53517 0
M  V30 1203 H 108.444 -5.15493 -3.07225 0
M  V30 1204 H 109.514 -4.49321 -1.82316 0
M  V30 1205 N 110.857 0.726932 -1.39834 0
M  V30 1206 C 111.805 1.86235 -1.39353 0
M  V30 1207 C 112.799 1.67144 -0.275555 0
M  V30 1208 O 114.005 1.74387 -0.44601 0
M  V30 1209 H 110.38 0.613174 -0.43534 0
M  V30 1210 H 112.351 1.83756 -2.35109 0
M  V30 1211 C 111.1 3.23995 -1.26185 0
M  V30 1212 H 110.423 3.39285 -2.11484 0
M  V30 1213 H 111.863 4.03609 -1.29907 0
M  V30 1214 C 110.322 3.36888 0.0290018 0
M  V30 1215 O 110.852 3.89152 0.99619 0
M  V30 1216 N 109.058 2.90446 0.0947437 0
M  V30 1217 H 108.605 2.48102 -0.693035 0
M  V30 1218 H 108.563 2.99451 0.957932 0
M  V30 1219 N 112.336 1.25143 0.95797 0
M  V30 1220 C 113.747 1.08851 1.51685 0
M  V30 1221 C 114.098 -0.33687 1.93286 0
M  V30 1222 O 113.223 -1.22644 1.7829 0
M  V30 1223 C 113.818 1.96978 2.75654 0
M  V30 1224 C 112.377 1.84881 3.27866 0
M  V30 1225 C 111.524 1.91329 2.0072 0
M  V30 1226 H 114.475 1.38478 0.77522 0
M  V30 1227 H 114.496 1.5078 3.4935 0
M  V30 1228 H 114.008 3.00712 2.45345 0
M  V30 1229 H 112.109 0.840182 3.63004 0
M  V30 1230 H 112.222 2.6951 3.96107 0
M  V30 1231 H 110.586 1.35174 2.15871 0
M  V30 1232 H 111.369 2.96661 1.72764 0
M  V30 1233 N 113.814 -1.1601 1.06675 0
M  V30 1234 C 114.724 -2.24156 0.692179 0
M  V30 1235 C 115.74 -1.71507 -0.293513 0
M  V30 1236 O 116.916 -2.009 -0.141861 0
M  V30 1237 C 113.981 -3.46587 0.0884131 0
M  V30 1238 C 113.042 -4.14257 1.12646 0
M  V30 1239 C 112.275 -5.30844 0.551416 0
M  V30 1240 O 112.498 -5.66858 -0.634656 0
M  V30 1241 O 111.432 -5.87848 1.29298 0
M  V30 1242 H 115.258 -2.58513 1.59388 0
M  V30 1243 H 112.843 -1.23599 0.83926 0
M  V30 1244 H 114.725 -4.20679 -0.246361 0
M  V30 1245 H 113.4 -3.13994 -0.786712 0
M  V30 1246 H 112.307 -3.42118 1.51348 0
M  V30 1247 H 113.64 -4.50914 1.97325 0
M  V30 1248 N 115.292 -0.849877 -1.32721 0
M  V30 1249 C 116.517 -0.463856 -2.02146 0
M  V30 1250 C 116.942 0.930449 -1.63476 0
M  V30 1251 O 116.3 1.61033 -0.832952 0
M  V30 1252 C 116.348 -0.604955 -3.55489 0
M  V30 1253 O 115.452 0.36425 -4.10788 0
M  V30 1254 H 114.793 -0.187046 -0.637111 0
M  V30 1255 H 117.323 -1.14775 -1.69375 0
M  V30 1256 H 117.333 -0.490696 -4.05038 0
M  V30 1257 H 116.008 -1.62174 -3.82978 0
M  V30 1258 H 114.585 0.206628 -3.72327 0
M  V30 1259 N 116.77 1.45427 -0.607355 0
M  V30 1260 C 117.717 2.3053 0.111625 0
M  V30 1261 C 118.687 1.4209 0.860216 0
M  V30 1262 O 119.872 1.71019 0.845998 0
M  V30 1263 C 117.012 3.26992 1.10319 0
M  V30 1264 C 116.125 4.30535 0.355493 0
M  V30 1265 C 115.26 5.14105 1.33676 0
M  V30 1266 C 114.299 6.09376 0.576862 0
M  V30 1267 N 113.436 6.85727 1.5074 0
M  V30 1268 H 118.276 2.91477 -0.620093 0
M  V30 1269 H 115.813 1.43631 -0.317594 0
M  V30 1270 H 117.771 3.81385 1.6912 0
M  V30 1271 H 116.401 2.67799 1.80232 0
M  V30 1272 H 115.453 3.78805 -0.348023 0
M  V30 1273 H 116.765 4.98235 -0.237423 0
M  V30 1274 H 115.919 5.72897 1.99684 0
M  V30 1275 H 114.658 4.46423 1.9636 0
M  V30 1276 H 113.663 5.49715 -0.0968519 0
M  V30 1277 H 114.888 6.79085 -0.0449341 0
M  V30 1278 H 112.834 6.20735 2.12189 0
M  V30 1279 H 112.751 7.49778 0.967913 0
M  V30 1280 H 114.019 7.4906 2.15706 0
M  V30 1281 N 118.248 0.346503 1.53744 0
M  V30 1282 C 119.211 -0.496439 2.23759 0
M  V30 1283 C 120.211 -1.0252 1.2388 0
M  V30 1284 O 121.401 -0.913974 1.48297 0
M  V30 1285 C 118.533 -1.69187 2.95954 0
M  V30 1286 H 119.726 0.115952 2.99676 0
M  V30 1287 H 117.279 0.0978939 1.55993 0
M  V30 1288 H 118.014 -2.34288 2.24231 0
M  V30 1289 H 117.799 -1.31989 3.69217 0
M  V30 1290 H 119.289 -2.28969 3.49232 0
M  V30 1291 N 119.726 -1.57421 0.075193 0
M  V30 1292 C 120.975 -1.92794 -0.592731 0
M  V30 1293 C 121.288 -0.957478 -1.70563 0
M  V30 1294 O 122.494 -1.20417 -2.43335 0
M  V30 1295 C 120.95 -3.42495 -1.10569 0
M  V30 1296 C 120.558 -4.47994 -0.0236121 0
M  V30 1297 C 122.302 -3.86864 -1.74748 0
M  V30 1298 C 120.209 -5.88829 -0.550803 0
M  V30 1299 H 119.139 -0.719591 -0.225177 0
M  V30 1300 H 121.79 -1.82902 0.147978 0
M  V30 1301 H 120.172 -3.47471 -1.89947 0
M  V30 1302 H 121.346 -4.54637 0.751099 0
M  V30 1303 H 119.661 -4.13113 0.522159 0
M  V30 1304 H 122.258 -4.8947 -2.15229 0
M  V30 1305 H 122.601 -3.24417 -2.60882 0
M  V30 1306 H 123.134 -3.84504 -1.01986 0
M  V30 1307 H 119.873 -6.54929 0.273457 0
M  V30 1308 H 119.393 -5.85698 -1.29296 0
M  V30 1309 H 121.072 -6.38811 -1.02613 0
M  V30 1310 N 121.204 0.198386 -1.56346 0
M  V30 1311 C 122.151 1.24589 -1.94284 0
M  V30 1312 C 123.121 1.454 -0.802997 0
M  V30 1313 O 124.306 1.58588 -1.06087 0
M  V30 1314 C 121.446 2.58631 -2.28482 0
M  V30 1315 C 120.559 2.45426 -3.55514 0
M  V30 1316 C 119.694 3.7215 -3.79049 0
M  V30 1317 C 118.733 3.53763 -4.99518 0
M  V30 1318 N 117.87 4.72491 -5.19323 0
M  V30 1319 H 122.71 0.915356 -2.83593 0
M  V30 1320 H 120.247 0.440629 -1.40346 0
M  V30 1321 H 122.205 3.3672 -2.46324 0
M  V30 1322 H 120.835 2.89734 -1.42317 0
M  V30 1323 H 119.887 1.58652 -3.45737 0
M  V30 1324 H 121.199 2.27772 -4.43758 0
M  V30 1325 H 120.353 4.58679 -3.97113 0
M  V30 1326 H 119.092 3.92754 -2.89129 0
M  V30 1327 H 118.097 2.65619 -4.8138 0
M  V30 1328 H 119.322 3.34607 -5.90944 0
M  V30 1329 H 117.268 4.93365 -4.3235 0
M  V30 1330 H 117.185 4.5765 -6.01741 0
M  V30 1331 H 118.453 5.6038 -5.41843 0
M  V30 1332 N 122.682 1.50554 0.465978 0
M  V30 1333 C 123.63 1.70324 1.58406 0
M  V30 1334 C 124.624 0.569139 1.59553 0
M  V30 1335 O 125.83 0.749776 1.63641 0
M  V30 1336 H 122.205 0.537688 0.525734 0
M  V30 1337 H 124.176 2.64104 1.38894 0
M  V30 1338 C 122.925 1.81928 2.96307 0
M  V30 1339 H 122.248 2.68586 2.96144 0
M  V30 1340 H 123.688 1.99784 3.73982 0
M  V30 1341 C 122.147 0.572095 3.32007 0
M  V30 1342 O 122.677 -0.286416 4.00678 0
M  V30 1343 N 120.883 0.424606 2.87481 0
M  V30 1344 H 120.43 1.12427 2.31771 0
M  V30 1345 H 120.388 -0.408697 3.11732 0
M  V30 1346 N 124.16 -0.719506 1.40217 0
M  V30 1347 C 125.09 -1.8465 1.42922 0
M  V30 1348 C 126.071 -1.67599 0.29062 0
M  V30 1349 O 127.256 -1.87688 0.498677 0
M  V30 1350 C 124.386 -3.22565 1.28722 0
M  V30 1351 C 123.34 -3.54281 2.40144 0
M  V30 1352 C 122.666 -4.91298 2.11023 0
M  V30 1353 C 123.966 -3.55676 3.82481 0
M  V30 1354 H 125.66 -1.82644 2.37237 0
M  V30 1355 H 123.206 -0.877305 1.1419 0
M  V30 1356 H 125.159 -4.01095 1.29232 0
M  V30 1357 H 123.883 -3.25137 0.308811 0
M  V30 1358 H 122.542 -2.78088 2.38877 0
M  V30 1359 H 122.19 -4.90468 1.11582 0
M  V30 1360 H 121.89 -5.13485 2.8567 0
M  V30 1361 H 123.414 -5.72166 2.13209 0
M  V30 1362 H 124.828 -4.24254 3.85592 0
M  V30 1363 H 123.225 -3.89388 4.56614 0
M  V30 1364 H 124.295 -2.55144 4.12346 0
M  V30 1365 N 125.638 -1.25649 -0.95132 0
M  V30 1366 C 126.568 -1.08808 -2.06599 0
M  V30 1367 C 127.549 0.00382547 -1.701 0
M  V30 1368 O 128.734 -0.166325 -1.93486 0
M  V30 1369 C 125.864 -0.709542 -3.39975 0
M  V30 1370 C 124.818 -1.75206 -3.90496 0
M  V30 1371 C 124.144 -1.22811 -5.20405 0
M  V30 1372 C 125.444 -3.15153 -4.16504 0
M  V30 1373 H 127.138 -2.02048 -2.20946 0
M  V30 1374 H 124.684 -0.972835 -1.06169 0
M  V30 1375 H 126.637 -0.578649 -4.17408 0
M  V30 1376 H 125.361 0.258556 -3.25575 0
M  V30 1377 H 124.02 -1.87145 -3.15234 0
M  V30 1378 H 123.668 -0.250145 -5.02378 0
M  V30 1379 H 123.368 -1.92492 -5.55176 0
M  V30 1380 H 124.892 -1.10968 -6.00432 0
M  V30 1381 H 126.306 -3.06349 -4.84586 0
M  V30 1382 H 124.703 -3.82333 -4.62538 0
M  V30 1383 H 125.773 -3.61966 -3.22658 0
M  V30 1384 N 127.117 1.15442 -1.07289 0
M  V30 1385 C 128.064 2.20161 -0.692653 0
M  V30 1386 C 129.034 1.63073 0.31564 0
M  V30 1387 O 130.219 1.89725 0.202235 0
M  V30 1388 C 127.359 3.44967 -0.0959509 0
M  V30 1389 C 126.472 4.16256 -1.15564 0
M  V30 1390 C 125.607 5.28609 -0.524011 0
M  V30 1391 C 124.646 5.91715 -1.56653 0
M  V30 1392 N 123.783 6.9554 -0.957531 0
M  V30 1393 H 128.623 2.52037 -1.59002 0
M  V30 1394 H 126.16 1.2378 -0.794798 0
M  V30 1395 H 128.118 4.16341 0.267628 0
M  V30 1396 H 126.748 3.1361 0.764772 0
M  V30 1397 H 125.8 3.43385 -1.6368 0
M  V30 1398 H 127.112 4.59268 -1.94613 0
M  V30 1399 H 126.266 6.06604 -0.108032 0
M  V30 1400 H 125.005 4.86787 0.29825 0
M  V30 1401 H 124.01 5.12433 -1.9923 0
M  V30 1402 H 125.235 6.35614 -2.39107 0
M  V30 1403 H 123.181 6.55814 -0.156162 0
M  V30 1404 H 123.098 7.36977 -1.68526 0
M  V30 1405 H 124.366 7.77435 -0.567032 0
M  V30 1406 N 128.595 0.856903 1.32268 0
M  V30 1407 C 129.558 0.308171 2.27119 0
M  V30 1408 C 130.558 -0.533421 1.51695 0
M  V30 1409 O 131.748 -0.344607 1.70757 0
M  V30 1410 C 128.88 -0.563757 3.36206 0
M  V30 1411 H 130.073 1.14535 2.77167 0
M  V30 1412 H 127.626 0.631421 1.42978 0
M  V30 1413 H 128.361 -1.42266 2.91429 0
M  V30 1414 H 128.146 0.0386749 3.92081 0
M  V30 1415 H 129.636 -0.940386 4.06874 0
M  V30 1416 N 130.073 -1.45103 0.615059 0
M  V30 1417 C 131.319 -2.02483 0.113347 0
M  V30 1418 C 131.652 -1.48146 -1.25564 0
M  V30 1419 O 130.927 -0.659104 -1.82992 0
M  V30 1420 C 131.21 -3.60005 0.0825278 0
M  V30 1421 C 131.063 -4.2466 1.48271 0
M  V30 1422 C 132.382 -4.35972 -0.601401 0
M  V30 1423 H 129.501 -0.735764 0.0426632 0
M  V30 1424 H 132.143 -1.72868 0.788461 0
M  V30 1425 H 130.293 -3.85367 -0.492378 0
M  V30 1426 H 131.965 -4.10458 2.10527 0
M  V30 1427 H 130.208 -3.82772 2.04127 0
M  V30 1428 H 130.879 -5.336 1.41332 0
M  V30 1429 H 133.355 -4.15947 -0.112666 0
M  V30 1430 H 132.231 -5.45697 -0.592097 0
M  V30 1431 H 132.492 -4.09391 -1.66887 0
M  V30 1432 N 131.551 -0.354651 -1.53558 0
M  V30 1433 C 132.776 0.242153 -2.05981 0
M  V30 1434 C 133.201 1.42553 -1.2272 0
M  V30 1435 O 132.559 1.79656 -0.243604 0
M  V30 1436 C 132.607 0.624367 -3.55154 0
M  V30 1437 O 131.711 1.72301 -3.74681 0
M  V30 1438 H 131.052 0.0378432 -0.662921 0
M  V30 1439 H 133.582 -0.512087 -1.98088 0
M  V30 1440 H 133.592 0.898433 -3.97985 0
M  V30 1441 H 132.267 -0.240989 -4.15201 0
M  V30 1442 H 130.844 1.44535 -3.4375 0
M  V30 1443 N 133.029 1.57378 -0.0835403 0
M  V30 1444 C 133.976 2.13384 0.879539 0
M  V30 1445 C 134.946 1.04936 1.28754 0
M  V30 1446 O 136.131 1.32662 1.37133 0
M  V30 1447 C 133.271 2.70932 2.13752 0
M  V30 1448 C 132.384 3.93575 1.7811 0
M  V30 1449 C 131.519 4.39326 2.98607 0
M  V30 1450 C 130.558 5.54587 2.59037 0
M  V30 1451 N 129.695 5.95243 3.72331 0
M  V30 1452 H 134.535 2.9537 0.395076 0
M  V30 1453 H 132.072 1.45953 0.183349 0
M  V30 1454 H 134.03 3.02411 2.87408 0
M  V30 1455 H 132.66 1.91693 2.59718 0
M  V30 1456 H 131.712 3.68483 0.94469 0
M  V30 1457 H 133.024 4.77258 1.45005 0
M  V30 1458 H 132.178 4.72528 3.80529 0
M  V30 1459 H 130.917 3.5452 3.34913 0
M  V30 1460 H 129.922 5.21024 1.75539 0
M  V30 1461 H 131.147 6.41133 2.23887 0
M  V30 1462 H 129.093 5.13385 4.08378 0
M  V30 1463 H 129.01 6.73694 3.43034 0
M  V30 1464 H 130.278 6.33072 4.54797 0
M  V30 1465 N 134.507 -0.190092 1.56449 0
M  V30 1466 C 135.417 -1.25591 1.98152 0
M  V30 1467 C 136.433 -1.49519 0.889944 0
M  V30 1468 O 137.609 -1.62036 1.19609 0
M  V30 1469 C 134.674 -2.57916 2.3169 0
M  V30 1470 C 133.735 -2.42015 3.5458 0
M  V30 1471 C 132.968 -3.6803 3.8651 0
M  V30 1472 O 133.191 -4.72413 3.1966 0
M  V30 1473 O 132.125 -3.6326 4.79923 0
M  V30 1474 H 135.951 -0.931988 2.89046 0
M  V30 1475 H 133.536 -0.395488 1.4407 0
M  V30 1476 H 135.418 -3.36008 2.54316 0
M  V30 1477 H 134.093 -2.89925 1.43963 0
M  V30 1478 H 133 -1.62017 3.37196 0
M  V30 1479 H 134.333 -2.14937 4.4279 0
M  V30 1480 N 135.985 -1.50799 -0.457987 0
M  V30 1481 C 137.401 -1.38515 -0.792819 0
M  V30 1482 C 137.601 -0.451409 -1.96379 0
M  V30 1483 O 136.657 0.10112 -2.52297 0
M  V30 1484 C 137.97 -2.80149 -1.09258 0
M  V30 1485 C 139.518 -2.89156 -1.19825 0
M  V30 1486 C 139.993 -4.31651 -1.53106 0
M  V30 1487 N 141.484 -4.34662 -1.60072 0
M  V30 1488 C 142.219 -5.41928 -1.87354 0
M  V30 1489 N 141.715 -6.59384 -2.12568 0
M  V30 1490 N 143.508 -5.29385 -1.88965 0
M  V30 1491 H 135.659 -2.10073 0.313511 0
M  V30 1492 H 137.922 -0.944803 0.0777862 0
M  V30 1493 H 137.628 -3.50374 -0.305084 0
M  V30 1494 H 137.502 -3.18204 -2.02549 0
M  V30 1495 H 139.889 -2.19141 -1.97639 0
M  V30 1496 H 139.97 -2.54626 -0.244821 0
M  V30 1497 H 139.614 -5.02208 -0.758266 0
M  V30 1498 H 139.544 -4.63678 -2.49621 0
M  V30 1499 H 142.035 -3.49973 -1.42573 0
M  V30 1500 H 142.348 -7.36934 -2.32696 0
M  V30 1501 H 140.693 -6.62535 -2.09933 0
M  V30 1502 H 143.884 -4.36616 -1.68772 0
M  V30 1503 H 144.057 -6.13066 -2.09891 0
M  V30 1504 N 137.463 0.71206 -1.40597 0
M  V30 1505 C 138.688 1.50617 -1.42581 0
M  V30 1506 C 139.113 1.88079 -0.0282102 0
M  V30 1507 O 138.471 1.53511 0.964579 0
M  V30 1508 C 138.519 2.7557 -2.3258 0
M  V30 1509 O 137.623 3.72414 -1.77148 0
M  V30 1510 H 136.964 0.453966 -0.484573 0
M  V30 1511 H 139.494 0.876649 -1.84868 0
M  V30 1512 H 139.504 3.2406 -2.47889 0
M  V30 1513 H 138.179 2.47639 -3.34138 0
M  V30 1514 H 136.756 3.31276 -1.71204 0
M  V30 1515 N 138.941 1.26152 0.944643 0
M  V30 1516 C 139.888 1.07408 2.04285 0
M  V30 1517 C 140.858 -0.0198413 1.66088 0
M  V30 1518 O 142.043 0.139264 1.90291 0
M  V30 1519 C 139.183 0.70945 3.37729 0
M  V30 1520 C 138.296 1.87926 3.88983 0
M  V30 1521 C 137.431 1.45807 5.10797 0
M  V30 1522 C 136.47 2.5964 5.54305 0
M  V30 1523 N 135.607 2.18226 6.67324 0
M  V30 1524 H 140.447 2.01389 2.1965 0
M  V30 1525 H 137.984 1.00275 1.07626 0
M  V30 1526 H 139.942 0.478948 4.14442 0
M  V30 1527 H 138.572 -0.193389 3.2222 0
M  V30 1528 H 137.624 2.22279 3.08701 0
M  V30 1529 H 138.936 2.73377 4.17213 0
M  V30 1530 H 138.09 1.18781 5.94959 0
M  V30 1531 H 136.829 0.574414 4.84305 0
M  V30 1532 H 135.834 2.87399 4.68702 0
M  V30 1533 H 137.059 3.48599 5.828 0
M  V30 1534 H 135.005 1.3229 6.42523 0
M  V30 1535 H 134.922 2.97221 6.95123 0
M  V30 1536 H 136.19 1.94403 7.54869 0
M  V30 1537 N 140.419 -1.14872 1.07899 0
M  V30 1538 C 141.835 -1.37776 0.805606 0
M  V30 1539 C 142.035 -1.92743 -0.587555 0
M  V30 1540 O 141.091 -2.13678 -1.34528 0
M  V30 1541 C 142.404 -2.34361 1.88402 0
M  V30 1542 C 143.952 -2.48012 1.90942 0
M  V30 1543 C 144.427 -3.47893 2.97883 0
M  V30 1544 N 145.918 -3.55433 2.97021 0
M  V30 1545 C 146.653 -4.32553 3.76412 0
M  V30 1546 N 146.149 -5.12959 4.65666 0
M  V30 1547 N 147.942 -4.27697 3.64735 0
M  V30 1548 H 140.093 -0.775365 1.97742 0
M  V30 1549 H 142.356 -0.403521 0.857831 0
M  V30 1550 H 142.062 -2.01098 2.88535 0
M  V30 1551 H 141.936 -3.34206 1.74889 0
M  V30 1552 H 144.323 -2.8057 0.914579 0
M  V30 1553 H 144.404 -1.48147 2.08534 0
M  V30 1554 H 144.048 -3.16069 3.97571 0
M  V30 1555 H 143.978 -4.47527 2.77538 0
M  V30 1556 H 146.469 -2.98048 2.32326 0
M  V30 1557 H 146.782 -5.69065 5.22862 0
M  V30 1558 H 145.127 -5.12245 4.69712 0
M  V30 1559 H 148.318 -3.63949 2.94378 0
M  V30 1560 H 148.491 -4.8755 4.26848 0
M  V30 1561 N 141.898 -0.863906 -1.31812 0
M  V30 1562 C 143.123 -0.48527 -2.01643 0
M  V30 1563 C 143.548 0.913058 -1.64453 0
M  V30 1564 O 142.906 1.6014 -0.849985 0
M  V30 1565 C 142.954 -0.642625 -3.54828 0
M  V30 1566 O 142.058 0.320659 -4.11151 0
M  V30 1567 H 141.399 -0.193793 -0.635091 0
M  V30 1568 H 143.929 -1.16565 -1.68148 0
M  V30 1569 H 143.939 -0.533628 -4.04495 0
M  V30 1570 H 142.614 -1.66227 -3.81237 0
M  V30 1571 H 141.191 0.167126 -3.72525 0
M  V30 1572 N 143.376 1.44774 -0.622745 0
M  V30 1573 C 144.787 1.85546 -0.207226 0
M  V30 1574 C 145.138 1.52093 1.23944 0
M  V30 1575 O 144.263 0.95492 1.94191 0
M  V30 1576 C 144.858 3.36781 -0.369313 0
M  V30 1577 C 143.417 3.76399 -0.00836847 0
M  V30 1578 C 142.564 2.68664 -0.686651 0
M  V30 1579 H 145.515 1.3536 -0.828454 0
M  V30 1580 H 145.536 3.78453 0.394162 0
M  V30 1581 H 145.048 3.61098 -1.42231 0
M  V30 1582 H 143.149 3.57698 1.04322 0
M  V30 1583 H 143.262 4.7732 -0.412584 0
M  V30 1584 H 141.626 2.54404 -0.122777 0
M  V30 1585 H 142.409 2.95815 -1.74208 0
M  V30 1586 O 144.893 0.504988 1.53402 0
M  V30 1587 H 145.584 -0.0115839 1.93697 0
M  V30 END ATOM
M  V30 BEGIN BOND
M  V30 END BOND
M  V30 END CTAB
M  END
$$$$
