drugbank_target|P02750 Leucine-rich alpha-2-glycoprotein (DB09130)
 OpenBabel12092121073D

  0  0  0     0  0            999 V3000
M  V30 BEGIN CTAB
M  V30 COUNTS 5424 5484 0 0 0
M  V30 BEGIN ATOM
M  V30 1 H -0.908 1.98254 -0.117106 0
M  V30 2 N 0 1.576 0 0
M  V30 3 C 0.933 2.03868 1.02534 0
M  V30 4 C 1.911 0.928543 1.3348 0
M  V30 5 O 3.095 1.19667 1.45644 0
M  V30 6 C 0.222 2.43627 2.35294 0
M  V30 7 C -0.732 3.65373 2.2001 0
M  V30 8 S 0.101 5.13292 1.52614 0
M  V30 9 C 1.257 5.56322 2.86805 0
M  V30 10 H 1.49 2.90518 0.631377 0
M  V30 11 H -0.977 1.52953 0.210867 0
M  V30 12 H 0.981 2.67203 3.11629 0
M  V30 13 H -0.358 1.57376 2.7183 0
M  V30 14 H -1.165 3.90944 3.18086 0
M  V30 15 H -1.563 3.418 1.51819 0
M  V30 16 H 0.729 5.58782 3.83104 0
M  V30 17 H 1.672 6.56266 2.65933 0
M  V30 18 H 2.08 4.83886 2.90714 0
M  V30 19 N 1.4781 -0.272755 1.55222 0
M  V30 20 C 2.7031 -1.02683 1.80197 0
M  V30 21 C 3.1281 -1.79142 0.573551 0
M  V30 22 O 2.4861 -1.74917 -0.476849 0
M  V30 23 C 2.5341 -1.9609 3.02624 0
M  V30 24 O 1.6381 -3.04863 2.77727 0
M  V30 25 H 0.9791 -0.293557 0.595584 0
M  V30 26 H 3.5091 -0.30159 2.02365 0
M  V30 27 H 3.5191 -2.38039 3.31363 0
M  V30 28 H 2.1941 -1.39851 3.91682 0
M  V30 29 H 0.7711 -2.67228 2.60084 0
M  V30 30 N 2.9562 -1.48159 -0.537278 0
M  V30 31 C 4.1812 -1.59707 -1.32319 0
M  V30 32 C 4.6062 -0.254859 -1.86365 0
M  V30 33 O 3.9642 0.772378 -1.64024 0
M  V30 34 C 4.0122 -2.6412 -2.45505 0
M  V30 35 O 3.1162 -2.20774 -3.48328 0
M  V30 36 H 2.4572 -0.535791 -0.392204 0
M  V30 37 H 4.9872 -1.94092 -0.647268 0
M  V30 38 H 4.9972 -2.85166 -2.91795 0
M  V30 39 H 3.6722 -3.61567 -2.05528 0
M  V30 40 H 2.2492 -2.09911 -3.08207 0
M  V30 41 N 4.4343 0.785586 -1.36625 0
M  V30 42 C 5.6803 1.5452 -1.32269 0
M  V30 43 C 6.0353 1.92159 0.0962266 0
M  V30 44 O 5.3283 1.60158 1.05167 0
M  V30 45 C 5.5223 2.83007 -2.1827 0
M  V30 46 C 5.3513 2.57925 -3.68382 0
M  V30 47 C 4.1213 2.52752 -4.37544 0
M  V30 48 C 6.3193 2.26861 -4.61561 0
M  V30 49 N 4.3013 2.19608 -5.73276 0
M  V30 50 C 5.6723 2.03738 -5.85569 0
M  V30 51 C 7.7273 2.129 -4.50087 0
M  V30 52 C 6.4303 1.68065 -6.9939 0
M  V30 53 C 8.4563 1.78626 -5.63779 0
M  V30 54 C 7.8183 1.56353 -6.86828 0
M  V30 55 H 3.9173 0.566301 -0.539283 0
M  V30 56 H 6.5013 0.917736 -1.71714 0
M  V30 57 H 4.6723 3.43614 -1.81063 0
M  V30 58 H 6.4043 3.48775 -2.05275 0
M  V30 59 H 3.1593 2.6813 -3.90389 0
M  V30 60 H 3.5833 2.05771 -6.44971 0
M  V30 61 H 8.2253 2.28808 -3.55537 0
M  V30 62 H 5.9433 1.50895 -7.93887 0
M  V30 63 H 9.5293 1.68502 -5.56865 0
M  V30 64 H 8.4093 1.30223 -7.73312 0
M  V30 65 N 5.9124 1.20967 1.01018 0
M  V30 66 C 7.1374 1.0503 1.78839 0
M  V30 67 C 7.5624 -0.395752 1.8389 0
M  V30 68 O 6.9204 -1.28529 1.27867 0
M  V30 69 C 6.9684 1.64602 3.2084 0
M  V30 70 O 6.0724 0.887988 4.02726 0
M  V30 71 H 5.4134 0.369987 0.551367 0
M  V30 72 H 7.9434 1.60399 1.27018 0
M  V30 73 H 7.9534 1.68607 3.71532 0
M  V30 74 H 6.6284 2.69841 3.16479 0
M  V30 75 H 5.2054 0.922648 3.61305 0
M  V30 76 N 7.3905 -1.2043 1.01659 0
M  V30 77 C 8.8065 -1.41852 0.731442 0
M  V30 78 C 9.0065 -1.89358 -0.688898 0
M  V30 79 O 8.0625 -2.06247 -1.45666 0
M  V30 80 C 9.3755 -2.44019 1.75714 0
M  V30 81 C 10.9235 -2.57785 1.77527 0
M  V30 82 C 11.3985 -3.63194 2.79023 0
M  V30 83 N 12.8895 -3.70678 2.77763 0
M  V30 84 C 13.6245 -4.51897 3.52954 0
M  V30 85 N 13.1205 -5.36921 4.37821 0
M  V30 86 N 14.9135 -4.4643 3.41551 0
M  V30 87 H 7.0645 -0.879093 1.93354 0
M  V30 88 H 9.3275 -0.448425 0.835236 0
M  V30 89 H 9.0335 -2.1611 2.77469 0
M  V30 90 H 8.9075 -3.43007 1.56927 0
M  V30 91 H 11.2945 -2.85023 0.764569 0
M  V30 92 H 11.3755 -1.58992 2.00387 0
M  V30 93 H 11.0195 -3.36699 3.80258 0
M  V30 94 H 10.9495 -4.61609 2.53425 0
M  V30 95 H 13.4405 -3.09944 2.16201 0
M  V30 96 H 13.7535 -5.95981 4.91962 0
M  V30 97 H 12.0985 -5.36424 4.41899 0
M  V30 98 H 15.2895 -3.79042 2.74672 0
M  V30 99 H 15.4625 -5.09491 4.00404 0
M  V30 100 N 8.8686 -0.792821 -1.36206 0
M  V30 101 C 9.8006 -0.151469 -2.28699 0
M  V30 102 C 10.8136 0.641262 -1.49638 0
M  V30 103 O 12.0026 0.475885 -1.72039 0
M  V30 104 C 9.1026 0.808424 -3.29117 0
M  V30 105 C 8.2756 0.0650202 -4.37352 0
M  V30 106 C 7.3346 0.941358 -5.17711 0
M  V30 107 O 6.3606 0.397352 -5.67811 0
M  V30 108 N 7.5626 2.2652 -5.3448 0
M  V30 109 H 10.3276 -0.945982 -2.84379 0
M  V30 110 H 7.8886 -0.647032 -1.48409 0
M  V30 111 H 9.8806 1.3986 -3.79765 0
M  V30 112 H 8.4506 1.5038 -2.74052 0
M  V30 113 H 7.6706 -0.706255 -3.87822 0
M  V30 114 H 8.9586 -0.447847 -5.06825 0
M  V30 115 H 8.3566 2.73128 -4.95396 0
M  V30 116 H 6.9136 2.80493 -5.88359 0
M  V30 117 N 10.3467 1.47872 -0.545128 0
M  V30 118 C 11.7627 1.5829 -0.204032 0
M  V30 119 C 11.9627 1.54529 1.29317 0
M  V30 120 O 11.0187 1.44232 2.07252 0
M  V30 121 C 12.3317 2.89304 -0.819987 0
M  V30 122 C 13.8797 3.02864 -0.790105 0
M  V30 123 C 14.3547 4.3656 -1.38491 0
M  V30 124 N 15.8457 4.43165 -1.34755 0
M  V30 125 C 16.5807 5.45153 -1.77753 0
M  V30 126 N 16.0767 6.54016 -2.2855 0
M  V30 127 N 17.8697 5.36125 -1.68897 0
M  V30 128 H 10.0207 1.4856 -1.51802 0
M  V30 129 H 12.2837 0.706305 -0.632327 0
M  V30 130 H 11.9897 2.97757 -1.87173 0
M  V30 131 H 11.8637 3.75957 -0.305915 0
M  V30 132 H 14.2507 2.94014 0.252913 0
M  V30 133 H 14.3317 2.17782 -1.34181 0
M  V30 134 H 13.9757 4.46164 -2.42693 0
M  V30 135 H 13.9057 5.20353 -0.808754 0
M  V30 136 H 16.3967 3.65083 -0.975855 0
M  V30 137 H 16.7097 7.27994 -2.59314 0
M  V30 138 H 15.0547 6.54938 -2.32553 0
M  V30 139 H 18.2457 4.49975 -1.28998 0
M  V30 140 H 18.4187 6.15472 -2.02726 0
M  V30 141 N 11.8248 0.280983 1.55075 0
M  V30 142 C 13.2358 -0.215629 1.85451 0
M  V30 143 C 13.5868 -1.54991 1.203 0
M  V30 144 O 12.7118 -2.10699 0.493435 0
M  V30 145 C 13.3068 -0.398026 3.36454 0
M  V30 146 C 11.8658 -0.838866 3.66933 0
M  V30 147 C 11.0128 0.064458 2.77225 0
M  V30 148 H 13.9638 0.502601 1.50531 0
M  V30 149 H 13.9848 -1.23569 3.59876 0
M  V30 150 H 13.4968 0.573241 3.83843 0
M  V30 151 H 11.5978 -1.8214 3.25048 0
M  V30 152 H 11.7108 -0.672123 4.74362 0
M  V30 153 H 10.0748 -0.452863 2.50642 0
M  V30 154 H 10.8578 1.03172 3.2743 0
M  V30 155 N 13.3029 -1.57598 0.00835791 0
M  V30 156 C 14.2499 -2.08945 -0.980346 0
M  V30 157 C 15.2199 -0.986738 -1.33614 0
M  V30 158 O 16.4049 -1.25968 -1.43306 0
M  V30 159 C 13.5449 -2.60425 -2.26435 0
M  V30 160 C 12.6579 -3.84628 -1.96685 0
M  V30 161 C 11.7929 -4.24579 -3.19228 0
M  V30 162 C 10.8319 -5.41596 -2.85202 0
M  V30 163 N 9.9689 -5.768 -4.00307 0
M  V30 164 H 14.8089 -2.93148 -0.535551 0
M  V30 165 H 12.3459 -1.44912 -0.252776 0
M  V30 166 H 14.3039 -2.88354 -3.01509 0
M  V30 167 H 12.9339 -1.79083 -2.68568 0
M  V30 168 H 11.9859 -3.63556 -1.11942 0
M  V30 169 H 13.2979 -4.69796 -1.67611 0
M  V30 170 H 12.4519 -4.53834 -4.02641 0
M  V30 171 H 11.1909 -3.38137 -3.51447 0
M  V30 172 H 10.1959 -5.12056 -2.00198 0
M  V30 173 H 11.4209 -6.29721 -2.54222 0
M  V30 174 H 9.3669 -4.93316 -4.32407 0
M  V30 175 H 9.2839 -6.5656 -3.74786 0
M  V30 176 H 10.5519 -6.10652 -4.84484 0
M  V30 177 N 14.781 0.264519 -1.55364 0
M  V30 178 C 16.006 1.01726 -1.80739 0
M  V30 179 C 16.431 1.78836 -0.583044 0
M  V30 180 O 15.789 1.75167 0.467566 0
M  V30 181 C 15.837 1.94482 -3.03659 0
M  V30 182 O 14.941 3.03386 -2.7934 0
M  V30 183 H 14.282 0.290395 -0.597132 0
M  V30 184 H 16.812 0.290854 -2.02522 0
M  V30 185 H 16.822 2.36278 -3.32621 0
M  V30 186 H 15.497 1.37772 -3.92418 0
M  V30 187 H 14.074 2.65844 -2.61498 0
M  V30 188 N 16.2591 1.48442 0.529413 0
M  V30 189 C 17.6701 1.5002 1.11134 0
M  V30 190 C 18.0211 0.27031 1.94329 0
M  V30 191 O 17.1461 -0.622507 2.07253 0
M  V30 192 C 17.7411 2.71834 2.02217 0
M  V30 193 C 16.3001 2.76283 2.55627 0
M  V30 194 C 15.4471 2.43542 1.326 0
M  V30 195 H 18.3981 1.5555 0.314641 0
M  V30 196 H 18.4191 2.50384 2.8651 0
M  V30 197 H 17.9311 3.61331 1.41639 0
M  V30 198 H 16.0321 1.90995 3.19924 0
M  V30 199 H 16.1451 3.77725 2.94721 0
M  V30 200 H 14.5091 1.94709 1.64196 0
M  V30 201 H 15.2921 3.3528 0.737734 0
M  V30 202 N 17.7372 -0.778329 1.37039 0
M  V30 203 C 18.9852 -1.53361 1.31623 0
M  V30 204 C 19.3062 -1.94739 -0.100831 0
M  V30 205 O 18.5762 -1.65797 -1.04347 0
M  V30 206 H 17.1562 -0.568794 0.484234 0
M  V30 207 H 19.8182 -0.926742 1.71457 0
M  V30 208 H 18.9142 -2.43606 1.95096 0
M  V30 209 N 19.2153 -1.21501 -1.00376 0
M  V30 210 C 20.4633 -1.03095 -1.73827 0
M  V30 211 C 20.7843 0.436341 -1.90055 0
M  V30 212 O 20.0543 1.31466 -1.45236 0
M  V30 213 H 18.6343 -0.378487 -0.644016 0
M  V30 214 H 21.2963 -1.52831 -1.20949 0
M  V30 215 H 20.3923 -1.49991 -2.73695 0
M  V30 216 N 20.6934 1.19889 -1.02296 0
M  V30 217 C 21.9424 1.88743 -0.711257 0
M  V30 218 C 22.2554 1.80112 0.762817 0
M  V30 219 O 23.4614 2.44161 1.18733 0
M  V30 220 C 21.9174 3.38525 -1.22185 0
M  V30 221 C 21.5254 3.55727 -2.72328 0
M  V30 222 C 23.2694 4.12893 -0.985864 0
M  V30 223 C 21.1764 4.99369 -3.16835 0
M  V30 224 H 20.1064 0.706885 -0.262353 0
M  V30 225 H 22.7574 1.35586 -1.23648 0
M  V30 226 H 21.1394 3.91044 -0.624571 0
M  V30 227 H 22.3134 3.13564 -3.3766 0
M  V30 228 H 20.6284 2.94739 -2.9414 0
M  V30 229 H 23.2254 5.18813 -1.29374 0
M  V30 230 H 23.5684 4.16228 0.0775055 0
M  V30 231 H 24.1014 3.66494 -1.54684 0
M  V30 232 H 20.8404 5.01193 -4.22476 0
M  V30 233 H 20.3604 5.42317 -2.56228 0
M  V30 234 H 22.0394 5.67988 -3.09837 0
M  V30 235 N 22.1715 0.800033 1.35784 0
M  V30 236 C 23.1035 0.163596 2.28615 0
M  V30 237 C 24.1165 -0.633317 1.49976 0
M  V30 238 O 25.3055 -0.466754 1.72289 0
M  V30 239 C 22.4055 -0.790958 3.29541 0
M  V30 240 C 21.5785 -0.0418255 4.3738 0
M  V30 241 C 20.6375 -0.91389 5.18203 0
M  V30 242 O 19.6635 -0.367234 5.68014 0
M  V30 243 N 20.8655 -2.23682 5.35674 0
M  V30 244 H 23.6305 0.96105 2.83873 0
M  V30 245 H 21.1915 0.654894 1.48063 0
M  V30 246 H 23.1835 -1.37844 3.80501 0
M  V30 247 H 21.7535 -1.48925 2.74846 0
M  V30 248 H 20.9735 0.726813 3.87442 0
M  V30 249 H 22.2615 0.474719 5.06581 0
M  V30 250 H 21.6595 -2.70497 4.96838 0
M  V30 251 H 20.2165 -2.77369 5.89839 0
M  V30 252 N 23.6496 -1.47581 0.552962 0
M  V30 253 C 25.0606 -1.86324 0.118463 0
M  V30 254 C 25.4116 -1.46006 -1.3106 0
M  V30 255 O 24.5366 -0.861182 -1.98526 0
M  V30 256 C 25.1316 -3.3816 0.20821 0
M  V30 257 C 23.6906 -3.7601 -0.171226 0
M  V30 258 C 22.8376 -2.71634 0.557686 0
M  V30 259 H 25.7886 -1.39159 0.762928 0
M  V30 260 H 25.8096 -3.76141 -0.574278 0
M  V30 261 H 25.3216 -3.67473 1.24841 0
M  V30 262 H 23.4226 -3.52313 -1.21269 0
M  V30 263 H 23.5356 -4.78745 0.184379 0
M  V30 264 H 21.8996 -2.547 0.00125792 0
M  V30 265 H 22.6826 -3.0379 1.59896 0
M  V30 266 N 25.1277 -0.289203 -1.54924 0
M  V30 267 C 26.0777 0.606939 -2.19773 0
M  V30 268 C 27.0617 1.10783 -1.16687 0
M  V30 269 O 28.2537 1.05057 -1.4245 0
M  V30 270 C 25.3827 1.78398 -2.93307 0
M  V30 271 C 24.4687 1.29961 -4.03697 0
M  V30 272 N 24.8597 0.532377 -5.0299 0
M  V30 273 C 23.1577 1.58136 -4.17024 0
M  V30 274 C 23.8587 0.275912 -5.81045 0
M  V30 275 N 22.8347 0.852365 -5.36876 0
M  V30 276 H 26.6367 0.0130779 -2.93897 0
M  V30 277 H 24.1507 -0.09341 -1.62131 0
M  V30 278 H 26.1477 2.43741 -3.38225 0
M  V30 279 H 24.8077 2.38166 -2.20697 0
M  V30 280 H 25.8187 0.17838 -5.17593 0
M  V30 281 H 22.4957 2.18738 -3.55612 0
M  V30 282 H 23.8857 -0.339502 -6.71042 0
M  V30 283 N 26.6058 1.57591 -0.0167156 0
M  V30 284 C 27.8518 1.91567 0.665582 0
M  V30 285 C 28.1848 0.892298 1.72487 0
M  V30 286 O 27.4598 -0.0867127 1.94307 0
M  V30 287 C 27.7428 3.36069 1.29342 0
M  V30 288 C 27.5958 4.49135 0.244541 0
M  V30 289 C 28.9148 3.803 2.21495 0
M  V30 290 H 26.0338 0.69666 0.240488 0
M  V30 291 H 28.6758 1.89866 -0.0714356 0
M  V30 292 H 26.8258 3.3765 1.92158 0
M  V30 293 H 28.4978 4.59689 -0.385228 0
M  V30 294 H 26.7408 4.3165 -0.431379 0
M  V30 295 H 27.4118 5.47242 0.723207 0
M  V30 296 H 29.8878 3.80377 1.68678 0
M  V30 297 H 28.7638 4.82127 2.62382 0
M  V30 298 H 29.0248 3.15104 3.101 0
M  V30 299 N 28.0839 -0.256276 1.55502 0
M  V30 300 C 29.3089 -1.00766 1.81276 0
M  V30 301 C 29.7339 -1.78524 0.59252 0
M  V30 302 O 29.0919 -1.75413 -0.45827 0
M  V30 303 C 29.1399 -1.92869 3.04687 0
M  V30 304 O 28.2439 -3.019 2.80945 0
M  V30 305 H 27.5849 -0.287224 0.598664 0
M  V30 306 H 30.1149 -0.280109 2.02674 0
M  V30 307 H 30.1249 -2.34511 3.33869 0
M  V30 308 H 28.7999 -1.35689 3.93143 0
M  V30 309 H 27.3769 -2.64454 2.62904 0
M  V30 310 N 29.562 -1.4872 -0.521534 0
M  V30 311 C 30.978 -1.35028 -0.850855 0
M  V30 312 C 31.178 -0.367712 -1.98116 0
M  V30 313 O 30.234 0.208037 -2.51642 0
M  V30 314 C 31.547 -2.75263 -1.21041 0
M  V30 315 C 33.095 -2.83813 -1.31981 0
M  V30 316 C 33.57 -4.24769 -1.71276 0
M  V30 317 N 35.061 -4.27482 -1.78363 0
M  V30 318 C 35.796 -5.33494 -2.1017 0
M  V30 319 N 35.292 -6.49775 -2.40343 0
M  V30 320 N 37.085 -5.20894 -2.11248 0
M  V30 321 H 29.236 -2.11214 0.22413 0
M  V30 322 H 31.499 -0.947252 0.0376439 0
M  V30 323 H 31.205 -3.48765 -0.453415 0
M  V30 324 H 31.079 -3.09327 -2.15863 0
M  V30 325 H 33.466 -2.10561 -2.06756 0
M  V30 326 H 33.547 -2.53358 -0.352596 0
M  V30 327 H 33.191 -4.9854 -0.970588 0
M  V30 328 H 33.121 -4.52673 -2.69062 0
M  V30 329 H 35.612 -3.43611 -1.57288 0
M  V30 330 H 35.925 -7.26402 -2.63743 0
M  V30 331 H 34.27 -6.53035 -2.37844 0
M  V30 332 H 37.461 -4.29065 -1.87139 0
M  V30 333 H 37.634 -6.03612 -2.35704 0
M  V30 334 N 31.0401 0.771051 -1.3745 0
M  V30 335 C 32.2681 1.56015 -1.35893 0
M  V30 336 C 32.6831 1.88718 0.0555523 0
M  V30 337 O 32.0401 1.51502 1.01752 0
M  V30 338 C 32.0911 2.87001 -2.19801 0
M  V30 339 O 31.8121 2.557 -3.55738 0
M  V30 340 C 33.3131 3.81228 -2.26231 0
M  V30 341 H 30.5331 0.483317 -0.465453 0
M  V30 342 H 33.0771 0.955611 -1.80799 0
M  V30 343 H 31.2321 3.43877 -1.78402 0
M  V30 344 H 31.6461 3.39584 -3.99729 0
M  V30 345 H 33.1201 4.70139 -2.89263 0
M  V30 346 H 33.5971 4.20409 -1.27093 0
M  V30 347 H 34.2031 3.30281 -2.67945 0
M  V30 348 N 32.5182 1.22032 0.997298 0
M  V30 349 C 33.4482 1.01065 2.10495 0
M  V30 350 C 34.4292 -0.0669542 1.69968 0
M  V30 351 O 35.6142 0.0943987 1.9397 0
M  V30 352 C 32.7442 0.582874 3.42374 0
M  V30 353 C 31.6982 1.60592 3.96729 0
M  V30 354 C 31.0242 1.03412 5.24605 0
M  V30 355 C 32.3242 2.99478 4.27914 0
M  V30 356 H 34.0182 1.93708 2.28292 0
M  V30 357 H 31.5642 0.932761 1.09707 0
M  V30 358 H 33.5172 0.423332 4.19268 0
M  V30 359 H 32.2412 -0.379213 3.24391 0
M  V30 360 H 30.9002 1.75316 3.21963 0
M  V30 361 H 30.5482 0.063518 5.0296 0
M  V30 362 H 30.2482 1.71754 5.61938 0
M  V30 363 H 31.7722 0.886066 6.04137 0
M  V30 364 H 33.1862 2.88153 4.95622 0
M  V30 365 H 31.5832 3.64903 4.76409 0
M  V30 366 H 32.6532 3.49742 3.3587 0
M  V30 367 N 33.9963 -1.19345 1.0293 0
M  V30 368 C 35.2433 -1.89038 0.726008 0
M  V30 369 C 35.5713 -1.79649 -0.745427 0
M  V30 370 O 34.8263 -1.18354 -1.55855 0
M  V30 371 C 35.1253 -3.39292 1.12319 0
M  V30 372 C 34.7913 -3.68885 2.59297 0
M  V30 373 C 33.4533 -3.76671 2.99453 0
M  V30 374 C 35.8053 -3.82178 3.54386 0
M  V30 375 C 33.1333 -3.9522 4.33611 0
M  V30 376 C 35.4853 -4.0224 4.88248 0
M  V30 377 C 34.1493 -4.08259 5.28092 0
M  V30 378 H 33.4193 -0.691739 0.265665 0
M  V30 379 H 36.0663 -1.41328 1.29223 0
M  V30 380 H 34.3713 -3.88903 0.475584 0
M  V30 381 H 36.0683 -3.91536 0.866037 0
M  V30 382 H 32.6583 -3.63433 2.27189 0
M  V30 383 H 36.8423 -3.75505 3.24514 0
M  V30 384 H 32.0983 -3.98119 4.64016 0
M  V30 385 H 36.2723 -4.11468 5.61843 0
M  V30 386 H 33.8993 -4.22384 6.32057 0
M  V30 387 N 35.4744 -0.807222 -1.35358 0
M  V30 388 C 36.4044 -0.232509 -2.3234 0
M  V30 389 C 37.3854 0.642386 -1.57504 0
M  V30 390 O 38.5704 0.572526 -1.85569 0
M  V30 391 C 35.7004 0.619238 -3.41735 0
M  V30 392 C 34.6544 -0.157215 -4.27711 0
M  V30 393 C 33.9804 0.816273 -5.28433 0
M  V30 394 C 35.2804 -1.35656 -5.04376 0
M  V30 395 H 36.9744 -1.04276 -2.80654 0
M  V30 396 H 34.5204 -0.50288 -1.34934 0
M  V30 397 H 36.4734 1.03137 -4.08584 0
M  V30 398 H 35.1974 1.46239 -2.92031 0
M  V30 399 H 33.8564 -0.550525 -3.62443 0
M  V30 400 H 33.5044 1.65494 -4.74996 0
M  V30 401 H 33.2044 0.301067 -5.86828 0
M  V30 402 H 34.7284 1.22659 -5.98153 0
M  V30 403 H 36.1424 -1.01927 -5.64166 0
M  V30 404 H 34.5394 -1.8063 -5.7227 0
M  V30 405 H 35.6094 -2.14288 -4.34981 0
M  V30 406 N 36.9525 1.47285 -0.560781 0
M  V30 407 C 37.8825 2.32857 0.173105 0
M  V30 408 C 38.8635 1.44009 0.905281 0
M  V30 409 O 40.0485 1.7286 0.885046 0
M  V30 410 C 37.1785 3.25861 1.20133 0
M  V30 411 C 36.1325 4.23978 0.585388 0
M  V30 412 C 35.4585 5.06332 1.7185 0
M  V30 413 C 36.7585 5.20242 -0.463178 0
M  V30 414 H 38.4525 2.94466 -0.541307 0
M  V30 415 H 35.9985 1.41601 -0.261764 0
M  V30 416 H 37.9515 3.84569 1.72293 0
M  V30 417 H 36.6755 2.62315 1.94573 0
M  V30 418 H 35.3345 3.66501 0.085054 0
M  V30 419 H 34.9825 4.39186 2.45203 0
M  V30 420 H 34.6825 5.72762 1.31213 0
M  V30 421 H 36.2065 5.67899 2.24329 0
M  V30 422 H 37.6205 5.73293 -0.027502 0
M  V30 423 H 36.0175 5.94896 -0.788627 0
M  V30 424 H 37.0875 4.65504 -1.35773 0
M  V30 425 N 38.4306 0.297415 1.54768 0
M  V30 426 C 39.3606 -0.573494 2.26348 0
M  V30 427 C 40.3416 -1.14085 1.26169 0
M  V30 428 O 41.5266 -1.17086 1.54934 0
M  V30 429 C 38.6566 -1.74716 3.00153 0
M  V30 430 C 37.6106 -1.31032 4.07449 0
M  V30 431 C 36.9366 -2.56887 4.68949 0
M  V30 432 C 38.2366 -0.444183 5.20408 0
M  V30 433 H 39.9306 0.0235131 2.99391 0
M  V30 434 H 37.4766 0.0127488 1.43994 0
M  V30 435 H 39.4296 -2.3625 3.48947 0
M  V30 436 H 38.1536 -2.37035 2.24682 0
M  V30 437 H 36.8126 -0.718066 3.59499 0
M  V30 438 H 36.4606 -3.17512 3.90122 0
M  V30 439 H 36.1606 -2.2836 5.41411 0
M  V30 440 H 37.6846 -3.19229 5.20505 0
M  V30 441 H 39.0986 -0.9651 5.65118 0
M  V30 442 H 37.4956 -0.252846 5.99567 0
M  V30 443 H 38.5656 0.531609 4.81977 0
M  V30 444 N 39.9087 -1.5758 0.0250728 0
M  V30 445 C 40.8387 -2.13007 -0.956575 0
M  V30 446 C 41.8197 -1.0452 -1.342 0
M  V30 447 O 43.0047 -1.32332 -1.42133 0
M  V30 448 C 40.1347 -2.65386 -2.24026 0
M  V30 449 C 39.0887 -3.78623 -1.99571 0
M  V30 450 C 38.4147 -4.17414 -3.3417 0
M  V30 451 C 39.7147 -5.04867 -1.33814 0
M  V30 452 H 41.4087 -2.9528 -0.494991 0
M  V30 453 H 38.9547 -1.42042 -0.236651 0
M  V30 454 H 40.9077 -3.02794 -2.93076 0
M  V30 455 H 39.6317 -1.80268 -2.72343 0
M  V30 456 H 38.2907 -3.41646 -1.32941 0
M  V30 457 H 37.9387 -3.29284 -3.80238 0
M  V30 458 H 37.6387 -4.93719 -3.18615 0
M  V30 459 H 39.1627 -4.57402 -4.04495 0
M  V30 460 H 40.5767 -5.39888 -1.92857 0
M  V30 461 H 38.9737 -5.86144 -1.28669 0
M  V30 462 H 40.0437 -4.83904 -0.310561 0
M  V30 463 N 41.3868 0.248026 -1.55636 0
M  V30 464 C 42.3168 1.31079 -1.93237 0
M  V30 465 C 43.2978 1.50264 -0.797174 0
M  V30 466 O 44.4828 1.62891 -1.05737 0
M  V30 467 C 41.6128 2.66575 -2.22609 0
M  V30 468 C 40.5668 2.62087 -3.3837 0
M  V30 469 C 39.8928 4.01369 -3.53281 0
M  V30 470 C 41.1928 2.19171 -4.7409 0
M  V30 471 H 42.8868 0.998556 -2.82257 0
M  V30 472 H 40.4328 0.47891 -1.35803 0
M  V30 473 H 42.3858 3.41057 -2.47503 0
M  V30 474 H 41.1098 2.99432 -1.30414 0
M  V30 475 H 39.7688 1.90063 -3.13483 0
M  V30 476 H 39.4168 4.31489 -2.58508 0
M  V30 477 H 39.1168 3.99254 -4.31127 0
M  V30 478 H 40.6408 4.77552 -3.80495 0
M  V30 479 H 42.0548 2.83384 -4.98363 0
M  V30 480 H 40.4518 2.2817 -5.5503 0
M  V30 481 H 41.5218 1.14336 -4.71227 0
M  V30 482 N 42.8649 1.48995 0.513639 0
M  V30 483 C 43.8279 1.64229 1.59879 0
M  V30 484 C 44.8279 0.514696 1.5234 0
M  V30 485 O 46.0179 0.78087 1.55718 0
M  V30 486 C 43.1499 1.62783 2.99524 0
M  V30 487 H 44.3429 2.61004 1.47705 0
M  V30 488 H 41.8959 1.37837 0.736936 0
M  V30 489 H 42.6309 0.675461 3.17188 0
M  V30 490 H 42.4159 2.4466 3.06404 0
M  V30 491 H 43.9059 1.76669 3.78388 0
M  V30 492 N 44.343 -0.763751 1.37857 0
M  V30 493 C 45.306 -1.85889 1.34081 0
M  V30 494 C 46.306 -1.58949 0.243277 0
M  V30 495 O 47.496 -1.66882 0.499589 0
M  V30 496 C 44.628 -3.23176 1.08489 0
M  V30 497 H 45.821 -1.90648 2.31502 0
M  V30 498 H 43.374 -0.964367 1.23003 0
M  V30 499 H 44.109 -3.24091 0.116318 0
M  V30 500 H 43.894 -3.44124 1.8794 0
M  V30 501 H 45.384 -4.03254 1.08517 0
M  V30 502 N 45.8211 -1.22559 -0.990812 0
M  V30 503 C 47.0461 -1.07862 -1.77145 0
M  V30 504 C 47.4711 0.366447 -1.84496 0
M  V30 505 O 46.8291 1.26478 -1.29896 0
M  V30 506 C 46.8771 -1.69686 -3.18181 0
M  V30 507 O 45.9811 -0.951946 -4.01263 0
M  V30 508 H 45.3221 -0.378712 -0.545411 0
M  V30 509 H 47.8521 -1.62399 -1.2445 0
M  V30 510 H 47.8621 -1.74496 -3.68802 0
M  V30 511 H 46.5371 -2.74841 -3.12146 0
M  V30 512 H 45.1141 -0.980011 -3.59792 0
M  V30 513 N 47.2992 1.18797 -1.03562 0
M  V30 514 C 48.2622 2.20464 -0.626769 0
M  V30 515 C 49.2622 1.57721 0.313173 0
M  V30 516 O 50.4522 1.73917 0.0992615 0
M  V30 517 C 47.5842 3.40802 0.0818498 0
M  V30 518 H 48.7772 2.58149 -1.5264 0
M  V30 519 H 46.3302 1.32593 -0.827578 0
M  V30 520 H 47.0652 3.08642 0.995518 0
M  V30 521 H 46.8502 3.8758 -0.593652 0
M  V30 522 H 48.3402 4.16092 0.354584 0
M  V30 523 N 48.7773 0.814389 1.34928 0
M  V30 524 C 50.0233 0.408167 1.99263 0
M  V30 525 C 50.3783 -1.0154 1.63424 0
M  V30 526 O 49.6713 -1.69607 0.891289 0
M  V30 527 C 49.8653 0.537781 3.53331 0
M  V30 528 C 49.6943 1.9724 4.04137 0
M  V30 529 C 48.4643 2.60245 4.33129 0
M  V30 530 C 50.6623 2.93801 4.2212 0
M  V30 531 N 48.6443 3.95036 4.69914 0
M  V30 532 C 50.0153 4.1348 4.6199 0
M  V30 533 C 52.0703 2.9053 4.04348 0
M  V30 534 C 50.7733 5.3033 4.85945 0
M  V30 535 C 52.7993 4.06589 4.29464 0
M  V30 536 C 52.1613 5.25017 4.69613 0
M  V30 537 H 48.2603 0.197289 0.756704 0
M  V30 538 H 50.8443 1.05728 1.63492 0
M  V30 539 H 49.0153 -0.0813868 3.88315 0
M  V30 540 H 50.7473 0.105389 4.04563 0
M  V30 541 H 47.5023 2.11545 4.23728 0
M  V30 542 H 47.9263 4.64455 4.92555 0
M  V30 543 H 52.5683 2.00115 3.72443 0
M  V30 544 H 50.2863 6.21309 5.16721 0
M  V30 545 H 53.8723 4.05447 4.17257 0
M  V30 546 H 52.7523 6.1333 4.88667 0
M  V30 547 N 50.2554 -1.46986 0.568584 0
M  V30 548 C 51.5034 -2.02041 0.0487022 0
M  V30 549 C 51.8244 -1.44408 -1.31039 0
M  V30 550 O 51.0944 -0.623477 -1.85714 0
M  V30 551 H 49.6744 -0.746849 0.015014 0
M  V30 552 H 52.3364 -1.80257 0.741168 0
M  V30 553 H 51.4324 -3.12085 -0.0308961 0
M  V30 554 N 51.7335 -0.305618 -1.54608 0
M  V30 555 C 52.9795 0.302746 -2.00528 0
M  V30 556 C 53.3125 1.53184 -1.19367 0
M  V30 557 O 52.5875 1.92598 -0.271321 0
M  V30 558 C 52.8705 0.654756 -3.54097 0
M  V30 559 C 52.7235 -0.583793 -4.45995 0
M  V30 560 C 54.0425 1.47947 -4.14487 0
M  V30 561 H 51.1615 0.108564 -0.72896 0
M  V30 562 H 53.8035 -0.418634 -1.85331 0
M  V30 563 H 51.9535 1.26935 -3.67178 0
M  V30 564 H 53.6255 -1.22224 -4.44814 0
M  V30 565 H 51.8685 -1.21615 -4.16404 0
M  V30 566 H 52.5395 -0.293287 -5.5122 0
M  V30 567 H 55.0155 0.96013 -4.04871 0
M  V30 568 H 53.8915 1.69454 -5.22088 0
M  V30 569 H 54.1525 2.47011 -3.66658 0
M  V30 570 N 53.2116 1.57565 -0.0334293 0
M  V30 571 C 54.4396 1.9628 0.654347 0
M  V30 572 C 54.8546 0.910138 1.65414 0
M  V30 573 O 54.2116 -0.107595 1.82183 0
M  V30 574 C 54.2626 3.35067 1.35693 0
M  V30 575 O 53.9836 4.36296 0.397191 0
M  V30 576 C 55.4846 3.88439 2.13613 0
M  V30 577 H 52.7046 0.646369 0.180132 0
M  V30 578 H 55.2486 2.04282 -0.0944721 0
M  V30 579 H 53.4036 3.2827 2.05712 0
M  V30 580 H 53.8176 5.1678 0.896597 0
M  V30 581 H 55.2916 4.8788 2.58219 0
M  V30 582 H 55.7686 3.22914 2.97696 0
M  V30 583 H 56.3746 3.98516 1.48543 0
M  V30 584 N 54.6897 -0.239769 1.55765 0
M  V30 585 C 55.6197 -1.30052 1.9393 0
M  V30 586 C 56.6007 -1.49839 0.805132 0
M  V30 587 O 57.7857 -1.62328 1.06599 0
M  V30 588 C 54.9157 -2.65391 2.2402 0
M  V30 589 C 53.8697 -2.60289 3.39755 0
M  V30 590 C 53.1957 -3.99489 3.55405 0
M  V30 591 C 54.4957 -2.16654 4.75246 0
M  V30 592 H 56.1897 -0.983573 2.82783 0
M  V30 593 H 53.7357 -0.471701 1.36055 0
M  V30 594 H 55.6887 -3.3974 2.49308 0
M  V30 595 H 54.4127 -2.98736 1.32 0
M  V30 596 H 53.0717 -1.88398 3.14487 0
M  V30 597 H 52.7197 -4.30112 2.60793 0
M  V30 598 H 52.4197 -3.96962 4.33238 0
M  V30 599 H 53.9437 -4.75528 3.83022 0
M  V30 600 H 55.3577 -2.80737 4.99859 0
M  V30 601 H 53.7547 -2.25223 5.56232 0
M  V30 602 H 54.8247 -1.11835 4.71827 0
M  V30 603 N 56.1678 -1.49265 -0.50573 0
M  V30 604 C 57.3928 -1.62478 -1.28902 0
M  V30 605 C 57.8178 -0.294332 -1.85783 0
M  V30 606 O 57.1758 0.737412 -1.65626 0
M  V30 607 C 57.2238 -2.69268 -2.39848 0
M  V30 608 O 56.3278 -2.28113 -3.43567 0
M  V30 609 H 55.6688 -0.54399 -0.380751 0
M  V30 610 H 58.1988 -1.95421 -0.605952 0
M  V30 611 H 58.2088 -2.91291 -2.85681 0
M  V30 612 H 56.8838 -3.65846 -1.97812 0
M  V30 613 H 55.4608 -2.16401 -3.03685 0
M  V30 614 N 57.6459 0.756429 -1.3826 0
M  V30 615 C 59.0569 1.33359 -1.30661 0
M  V30 616 C 59.4079 1.96161 0.0388875 0
M  V30 617 O 58.5329 1.94874 0.940918 0
M  V30 618 C 59.1279 2.42477 -2.36622 0
M  V30 619 C 57.6869 2.95922 -2.3261 0
M  V30 620 C 56.8339 1.69275 -2.19639 0
M  V30 621 H 59.7849 0.55552 -1.4866 0
M  V30 622 H 59.8059 3.22345 -2.02174 0
M  V30 623 H 59.3179 1.96739 -3.34538 0
M  V30 624 H 57.4189 3.45996 -1.38267 0
M  V30 625 H 57.5319 3.50494 -3.26636 0
M  V30 626 H 55.8959 1.92793 -1.66442 0
M  V30 627 H 56.6789 1.25619 -3.19491 0
M  V30 628 N 59.124 1.23083 0.984299 0
M  V30 629 C 60.071 1.00854 2.07598 0
M  V30 630 C 61.041 -0.0726709 1.65941 0
M  V30 631 O 62.226 0.0786535 1.90638 0
M  V30 632 C 59.366 0.601645 3.39815 0
M  V30 633 C 58.479 1.75456 3.94765 0
M  V30 634 C 57.614 1.29482 5.15177 0
M  V30 635 C 56.653 2.41873 5.62284 0
M  V30 636 N 55.79 1.96885 6.73929 0
M  V30 637 H 60.63 1.943 2.25946 0
M  V30 638 H 58.167 0.968001 1.10762 0
M  V30 639 H 60.125 0.346854 4.15756 0
M  V30 640 H 58.755 -0.295803 3.21442 0
M  V30 641 H 57.807 2.12346 3.15616 0
M  V30 642 H 59.119 2.59965 4.25699 0
M  V30 643 H 58.273 0.997923 5.98437 0
M  V30 644 H 57.012 0.420046 4.85888 0
M  V30 645 H 56.017 2.72342 4.77608 0
M  V30 646 H 57.242 3.29881 5.93595 0
M  V30 647 H 55.188 1.11782 6.46406 0
M  V30 648 H 55.105 2.74956 7.04227 0
M  V30 649 H 56.373 1.70289 7.60672 0
M  V30 650 N 60.6021 -1.18246 1.0419 0
M  V30 651 C 61.8791 -1.84121 0.660208 0
M  V30 652 C 62.2591 -1.92778 -0.860221 0
M  V30 653 O 61.6071 -1.45464 -1.76217 0
M  V30 654 C 61.8171 -3.22355 1.33747 0
M  V30 655 C 63.1651 -3.98376 1.46906 0
M  V30 656 O 64.1891 -3.31799 1.29568 0
M  V30 657 O 63.0481 -5.17665 1.75171 0
M  V30 658 H 60.1421 -0.794036 0.231161 0
M  V30 659 H 62.6881 -1.25628 1.14087 0
M  V30 660 H 61.4601 -3.10964 2.37522 0
M  V30 661 H 61.0831 -3.88506 0.845515 0
M  V30 662 N 62.0802 -0.821533 -1.34494 0
M  V30 663 C 63.3202 -0.414785 -2.00147 0
M  V30 664 C 63.6842 1.00299 -1.6372 0
M  V30 665 O 64.8852 1.51255 -2.22206 0
M  V30 666 C 63.1562 -0.609403 -3.52166 0
M  V30 667 S 64.7152 -0.295297 -4.37805 0
M  V30 668 H 61.5332 -0.15679 -0.693497 0
M  V30 669 H 64.1352 -1.06705 -1.63812 0
M  V30 670 H 62.8392 -1.64096 -3.76166 0
M  V30 671 H 62.3702 0.0576414 -3.93358 0
M  V30 672 H 64.3852 0.891531 -4.88125 0
M  V30 673 N 63.5583 1.46682 -0.576371 0
M  V30 674 C 64.4903 2.28341 0.198231 0
M  V30 675 C 65.5033 1.38141 0.861453 0
M  V30 676 O 66.6923 1.62797 0.732082 0
M  V30 677 C 63.7923 3.12986 1.29972 0
M  V30 678 C 62.9653 4.31271 0.729639 0
M  V30 679 C 62.0243 4.97363 1.71803 0
M  V30 680 O 61.0503 5.55156 1.25658 0
M  V30 681 N 62.2523 4.93796 3.05198 0
M  V30 682 H 65.0173 2.9546 -0.502324 0
M  V30 683 H 62.5783 1.56525 -0.413715 0
M  V30 684 H 64.5703 3.54066 1.96008 0
M  V30 685 H 63.1403 2.47984 1.90323 0
M  V30 686 H 62.3603 3.94052 -0.108012 0
M  V30 687 H 63.6483 5.07739 0.328438 0
M  V30 688 H 63.0463 4.48077 3.45317 0
M  V30 689 H 61.6033 5.38837 3.6674 0
M  V30 690 N 65.0364 0.313813 1.54444 0
M  V30 691 C 66.2824 -0.292108 2.00685 0
M  V30 692 C 66.6154 -1.52548 1.20177 0
M  V30 693 O 65.8904 -1.92452 0.281531 0
M  V30 694 C 66.1734 -0.635968 3.5444 0
M  V30 695 C 66.0264 0.607437 4.4568 0
M  V30 696 C 67.3454 -1.45747 4.15266 0
M  V30 697 H 64.4644 -0.104697 0.729526 0
M  V30 698 H 67.1064 0.428457 1.85106 0
M  V30 699 H 65.2564 -1.24986 3.67846 0
M  V30 700 H 66.9284 1.24581 4.44159 0
M  V30 701 H 65.1714 1.23822 4.15753 0
M  V30 702 H 65.8424 0.322515 5.51057 0
M  V30 703 H 68.3184 -0.938645 4.05375 0
M  V30 704 H 67.1944 -1.66683 5.2298 0
M  V30 705 H 67.4554 -2.45063 3.67963 0
M  V30 706 N 66.5145 -1.57545 0.0417849 0
M  V30 707 C 67.7615 -1.92317 -0.634082 0
M  V30 708 C 68.0895 -0.919334 -1.71402 0
M  V30 709 O 67.3445 0.0698253 -1.95575 0
M  V30 710 C 67.6435 -3.33794 -1.27735 0
M  V30 711 C 67.3095 -4.49716 -0.326543 0
M  V30 712 C 65.9715 -4.81156 -0.0648814 0
M  V30 713 C 68.3235 -5.20182 0.325623 0
M  V30 714 C 65.6515 -5.80414 0.856539 0
M  V30 715 C 68.0035 -6.20424 1.23518 0
M  V30 716 C 66.6675 -6.50298 1.5056 0
M  V30 717 H 65.9375 -0.703736 -0.232027 0
M  V30 718 H 68.5845 -1.91205 0.106259 0
M  V30 719 H 66.8895 -3.31228 -2.09274 0
M  V30 720 H 68.5865 -3.57975 -1.80707 0
M  V30 721 H 65.1765 -4.25176 -0.540665 0
M  V30 722 H 69.3605 -4.96112 0.136546 0
M  V30 723 H 64.6165 -6.019 1.07363 0
M  V30 724 H 68.7905 -6.74141 1.74664 0
M  V30 725 H 66.4175 -7.27025 2.22123 0
M  V30 726 N 67.9926 0.231505 -1.5589 0
M  V30 727 C 69.4086 0.580748 -1.48659 0
M  V30 728 C 69.6086 1.87617 -0.73498 0
M  V30 729 O 68.6646 2.51046 -0.270586 0
M  V30 730 C 69.9776 0.669202 -2.93159 0
M  V30 731 C 71.5256 0.760499 -3.03621 0
M  V30 732 C 72.0006 0.880383 -4.49459 0
M  V30 733 N 73.4916 0.944861 -4.53461 0
M  V30 734 C 74.2266 1.05716 -5.63571 0
M  V30 735 N 73.7226 1.13403 -6.83456 0
M  V30 736 N 75.5156 1.09152 -5.514 0
M  V30 737 H 67.6666 -0.618695 -2.03189 0
M  V30 738 H 69.9296 -0.215728 -0.923128 0
M  V30 739 H 69.6356 -0.212904 -3.51055 0
M  V30 740 H 69.5096 1.5361 -3.44505 0
M  V30 741 H 71.8966 1.63305 -2.45796 0
M  V30 742 H 71.9776 -0.131864 -2.5546 0
M  V30 743 H 71.6216 0.0123284 -5.07899 0
M  V30 744 H 71.5516 1.78802 -4.95316 0
M  V30 745 H 74.0426 0.896176 -3.6712 0
M  V30 746 H 74.3556 1.21921 -7.63122 0
M  V30 747 H 72.7006 1.10333 -6.86186 0
M  V30 748 H 75.8916 1.02805 -4.56671 0
M  V30 749 H 76.0646 1.17558 -6.37247 0
M  V30 750 N 69.4707 1.49531 0.497807 0
M  V30 751 C 70.6957 1.63159 1.28039 0
M  V30 752 C 71.1207 0.30418 1.85624 0
M  V30 753 O 70.4787 -0.728618 1.66015 0
M  V30 754 C 70.5267 2.70537 2.38416 0
M  V30 755 O 69.6307 2.29931 3.42353 0
M  V30 756 H 68.9717 0.546001 0.377861 0
M  V30 757 H 71.5017 1.9574 0.59558 0
M  V30 758 H 71.5117 2.92802 2.84132 0
M  V30 759 H 70.1867 3.6689 1.95869 0
M  V30 760 H 68.7637 2.18009 3.02533 0
M  V30 761 N 70.9488 -0.749086 1.3866 0
M  V30 762 C 72.2258 -1.4992 1.25632 0
M  V30 763 C 72.6058 -2.10633 -0.140317 0
M  V30 764 O 71.9538 -1.97437 -1.15025 0
M  V30 765 C 72.1638 -2.56195 2.36992 0
M  V30 766 C 73.5118 -3.22972 2.75634 0
M  V30 767 O 74.5358 -2.66502 2.36337 0
M  V30 768 O 73.3948 -4.25122 3.43415 0
M  V30 769 H 70.4888 -0.665067 0.491544 0
M  V30 770 H 73.0348 -0.784113 1.50498 0
M  V30 771 H 71.8068 -2.09612 3.30422 0
M  V30 772 H 71.4298 -3.35279 2.13714 0
M  V30 773 N 72.4269 -1.23603 -0.977757 0
M  V30 774 C 73.3769 -0.986664 -2.05545 0
M  V30 775 C 74.3609 0.0683009 -1.60755 0
M  V30 776 O 75.5529 -0.144162 -1.76412 0
M  V30 777 C 72.6819 -0.582623 -3.3832 0
M  V30 778 C 71.7679 -1.67313 -3.89701 0
M  V30 779 N 72.1589 -2.90394 -4.14132 0
M  V30 780 C 70.4569 -1.54832 -4.18262 0
M  V30 781 C 71.1579 -3.61017 -4.56116 0
M  V30 782 N 70.1339 -2.8854 -4.60701 0
M  V30 783 H 73.9359 -1.92139 -2.22396 0
M  V30 784 H 71.4499 -1.1358 -1.16074 0
M  V30 785 H 73.4469 -0.38524 -4.15116 0
M  V30 786 H 72.1069 0.34503 -3.22862 0
M  V30 787 H 73.1179 -3.26673 -4.01877 0
M  V30 788 H 69.7949 -0.687969 -4.11793 0
M  V30 789 H 71.1849 -4.66544 -4.83514 0
M  V30 790 N 73.905 1.17692 -1.04816 0
M  V30 791 C 75.153 1.87488 -0.754497 0
M  V30 792 C 75.474 1.81205 0.720407 0
M  V30 793 O 74.744 1.23544 1.52032 0
M  V30 794 H 73.324 0.694101 -0.276102 0
M  V30 795 H 75.986 1.42793 -1.32651 0
M  V30 796 H 75.082 2.93328 -1.06606 0
M  V30 797 N 75.3831 0.828654 1.34056 0
M  V30 798 C 76.6081 0.431637 2.02859 0
M  V30 799 C 77.0331 -0.956339 1.61975 0
M  V30 800 O 76.3911 -1.62338 0.807228 0
M  V30 801 C 76.4391 0.548323 3.56407 0
M  V30 802 O 75.5431 -0.429556 4.10157 0
M  V30 803 H 74.8841 0.176886 0.640006 0
M  V30 804 H 77.4141 1.12066 1.71179 0
M  V30 805 H 77.4241 0.426196 4.05768 0
M  V30 806 H 76.0991 1.5606 3.8551 0
M  V30 807 H 74.6761 -0.265836 3.71951 0
M  V30 808 N 76.8612 -1.46375 0.584142 0
M  V30 809 C 78.0862 -2.07268 0.0740405 0
M  V30 810 C 78.5112 -1.42979 -1.22223 0
M  V30 811 O 77.8692 -0.514092 -1.73859 0
M  V30 812 C 77.9172 -3.60518 -0.0767769 0
M  V30 813 O 77.0212 -3.96533 -1.13292 0
M  V30 814 H 76.3622 -0.660961 0.0634524 0
M  V30 815 H 78.8922 -1.87991 0.807492 0
M  V30 816 H 78.9022 -4.07021 -0.282489 0
M  V30 817 H 77.5772 -4.06702 0.86986 0
M  V30 818 H 76.1542 -3.61738 -0.905553 0
M  V30 819 N 78.3393 -0.321999 -1.54275 0
M  V30 820 C 79.5883 0.281931 -1.9972 0
M  V30 821 C 79.9013 1.53369 -1.21397 0
M  V30 822 O 81.1073 2.21352 -1.57211 0
M  V30 823 C 79.5633 0.5529 -3.55628 0
M  V30 824 C 79.1713 -0.681721 -4.42783 0
M  V30 825 C 80.9153 1.11687 -4.09544 0
M  V30 826 C 78.8223 -0.382742 -5.9016 0
M  V30 827 H 77.7523 0.109124 -0.746062 0
M  V30 828 H 80.4033 -0.43398 -1.78294 0
M  V30 829 H 78.7853 1.32896 -3.73035 0
M  V30 830 H 79.9593 -1.45723 -4.37151 0
M  V30 831 H 78.2743 -1.1658 -3.99748 0
M  V30 832 H 80.8713 1.35515 -5.17242 0
M  V30 833 H 81.2143 2.06575 -3.61431 0
M  V30 834 H 81.7473 0.402032 -3.95763 0
M  V30 835 H 78.4863 -1.30076 -6.42464 0
M  V30 836 H 78.0063 0.355094 -5.98748 0
M  V30 837 H 79.6853 0.00800157 -6.47 0
M  V30 838 N 79.8174 1.5752 -0.0501392 0
M  V30 839 C 81.0424 1.97376 0.636997 0
M  V30 840 C 81.4674 0.927466 1.63645 0
M  V30 841 O 80.8254 -0.10941 1.8097 0
M  V30 842 C 80.8734 3.36304 1.30123 0
M  V30 843 O 79.9774 3.34156 2.41689 0
M  V30 844 H 79.3184 0.642998 0.165679 0
M  V30 845 H 81.8484 2.04258 -0.118233 0
M  V30 846 H 81.8584 3.73008 1.65315 0
M  V30 847 H 80.5334 4.11993 0.568746 0
M  V30 848 H 79.1104 3.09196 2.08451 0
M  V30 849 N 81.2955 -0.223234 1.56011 0
M  V30 850 C 82.5355 -0.954962 1.8072 0
M  V30 851 C 82.8995 -1.81598 0.623384 0
M  V30 852 O 84.1005 -2.58132 0.749745 0
M  V30 853 C 82.3715 -1.77313 3.10314 0
M  V30 854 S 83.9305 -2.56073 3.56332 0
M  V30 855 H 80.7485 -0.320812 0.634508 0
M  V30 856 H 83.3505 -0.220686 1.9425 0
M  V30 857 H 82.0545 -1.13071 3.94516 0
M  V30 858 H 81.5855 -2.54974 2.99586 0
M  V30 859 H 83.6005 -3.79619 3.19536 0
M  V30 860 N 82.7736 -1.49793 -0.48987 0
M  V30 861 C 83.7056 -1.63413 -1.60713 0
M  V30 862 C 84.7186 -0.516329 -1.54395 0
M  V30 863 O 85.9076 -0.788812 -1.60125 0
M  V30 864 C 83.0076 -1.58516 -2.99543 0
M  V30 865 C 82.1806 -2.86016 -3.30928 0
M  V30 866 C 81.2396 -2.74018 -4.49222 0
M  V30 867 O 80.2656 -3.47964 -4.50455 0
M  V30 868 N 81.4676 -1.86309 -5.4979 0
M  V30 869 H 84.2326 -2.59777 -1.49452 0
M  V30 870 H 81.7936 -1.47022 -0.677955 0
M  V30 871 H 83.7856 -1.48128 -3.76617 0
M  V30 872 H 82.3556 -0.69965 -3.0467 0
M  V30 873 H 81.5756 -3.10672 -2.42645 0
M  V30 874 H 82.8636 -3.70521 -3.487 0
M  V30 875 H 82.2616 -1.2551 -5.51601 0
M  V30 876 H 80.8186 -1.81837 -6.25922 0
M  V30 877 N 84.2517 0.741722 -1.39055 0
M  V30 878 C 85.6627 1.31966 -1.32068 0
M  V30 879 C 86.0137 1.96192 0.0180797 0
M  V30 880 O 85.1387 1.95861 0.920196 0
M  V30 881 C 85.7337 2.39954 -2.39181 0
M  V30 882 C 84.2927 2.93438 -2.35735 0
M  V30 883 C 83.4397 1.66936 -2.21422 0
M  V30 884 H 86.3907 0.539721 -1.4924 0
M  V30 885 H 86.4117 3.20182 -2.05581 0
M  V30 886 H 85.9237 1.9318 -3.36605 0
M  V30 887 H 84.0247 3.4451 -1.41929 0
M  V30 888 H 84.1377 3.4701 -3.30335 0
M  V30 889 H 82.5017 1.91016 -1.68478 0
M  V30 890 H 83.2847 1.22224 -3.20806 0
M  V30 891 N 85.7298 1.2412 0.971189 0
M  V30 892 C 87.1408 1.07236 1.52831 0
M  V30 893 C 87.4918 -0.357352 1.92918 0
M  V30 894 O 86.6168 -1.24528 1.76979 0
M  V30 895 C 87.2118 1.94043 2.77728 0
M  V30 896 C 85.7708 1.81394 3.29808 0
M  V30 897 C 84.9178 1.89189 2.02738 0
M  V30 898 H 87.8688 1.37648 0.789864 0
M  V30 899 H 87.8898 1.47066 3.5093 0
M  V30 900 H 87.4018 2.98093 2.4852 0
M  V30 901 H 85.5028 0.801634 3.63874 0
M  V30 902 H 85.6158 2.65294 3.98944 0
M  V30 903 H 83.9798 1.32877 2.17292 0
M  V30 904 H 84.7628 2.94812 1.759 0
M  V30 905 N 87.2079 -1.17134 1.05439 0
M  V30 906 C 88.1709 -2.19439 0.661764 0
M  V30 907 C 89.1709 -1.58199 -0.288042 0
M  V30 908 O 90.3609 -1.74053 -0.0715803 0
M  V30 909 C 87.4929 -3.40889 -0.0276209 0
M  V30 910 H 88.6859 -2.55688 1.56728 0
M  V30 911 H 86.2389 -1.31259 0.848567 0
M  V30 912 H 86.9739 -3.10187 -0.94629 0
M  V30 913 H 86.7589 -3.86586 0.655238 0
M  V30 914 H 88.2489 -4.16603 -0.288342 0
M  V30 915 N 88.686 -0.835752 -1.33615 0
M  V30 916 C 89.596 -0.269088 -2.33052 0
M  V30 917 C 90.612 0.603251 -1.63208 0
M  V30 918 O 91.788 0.508112 -1.94885 0
M  V30 919 C 88.853 0.549091 -3.42324 0
M  V30 920 C 87.914 -0.347156 -4.27894 0
M  V30 921 C 87.147 0.43207 -5.31948 0
M  V30 922 O 87.37 1.66409 -5.45586 0
M  V30 923 O 86.304 -0.192298 -6.01593 0
M  V30 924 H 90.13 -1.09243 -2.83372 0
M  V30 925 H 87.715 -0.598198 -1.36901 0
M  V30 926 H 89.597 1.01414 -4.09015 0
M  V30 927 H 88.272 1.34955 -2.94226 0
M  V30 928 H 87.179 -0.859979 -3.64081 0
M  V30 929 H 88.512 -1.1123 -4.79467 0
M  V30 930 N 90.1641 1.46063 -0.591896 0
M  V30 931 C 91.4131 2.01547 -0.0786637 0
M  V30 932 C 91.7261 1.46796 1.29268 0
M  V30 933 O 92.9321 1.94157 1.89777 0
M  V30 934 C 91.3881 3.59787 -0.0900024 0
M  V30 935 C 90.9961 4.23534 -1.46023 0
M  V30 936 C 92.7401 4.22895 0.368806 0
M  V30 937 C 90.6471 5.73881 -1.4288 0
M  V30 938 H 89.5771 0.753564 -0.0256388 0
M  V30 939 H 92.2281 1.677 -0.744905 0
M  V30 940 H 90.6101 3.90752 0.642586 0
M  V30 941 H 91.7841 4.04167 -2.21328 0
M  V30 942 H 90.0991 3.72558 -1.85982 0
M  V30 943 H 92.6961 5.33116 0.411258 0
M  V30 944 H 93.0391 3.9247 1.38827 0
M  V30 945 H 93.5721 3.9659 -0.31001 0
M  V30 946 H 90.3111 6.0898 -2.42536 0
M  V30 947 H 89.8311 5.95486 -0.718095 0
M  V30 948 H 91.5101 6.36776 -1.14565 0
M  V30 949 N 91.6422 0.330177 1.54103 0
M  V30 950 C 93.0532 -0.15652 1.86043 0
M  V30 951 C 93.4042 -1.51086 1.2517 0
M  V30 952 O 92.5292 -2.09023 0.560217 0
M  V30 953 C 93.1242 -0.290784 3.3755 0
M  V30 954 C 91.6832 -0.721705 3.69416 0
M  V30 955 C 90.8302 0.152622 2.7688 0
M  V30 956 H 93.7812 0.550237 1.48856 0
M  V30 957 H 93.8022 -1.12058 3.63625 0
M  V30 958 H 93.3142 0.695068 3.81825 0
M  V30 959 H 91.4152 -1.71706 3.30678 0
M  V30 960 H 91.5282 -0.520869 4.7626 0
M  V30 961 H 89.8922 -0.372894 2.51956 0
M  V30 962 H 90.6752 1.13536 3.23982 0
M  V30 963 N 93.1203 -1.57491 0.0584922 0
M  V30 964 C 94.3683 -1.92597 -0.612436 0
M  V30 965 C 94.6893 -0.938162 -1.70949 0
M  V30 966 O 93.9593 0.0158301 -1.95894 0
M  V30 967 H 92.5393 -0.710964 -0.229214 0
M  V30 968 H 95.2013 -1.94571 0.113218 0
M  V30 969 H 94.2973 -2.94038 -1.04633 0
M  V30 970 N 94.5984 0.214957 -1.56127 0
M  V30 971 C 95.8284 0.953707 -1.8327 0
M  V30 972 C 96.2364 1.78181 -0.636262 0
M  V30 973 O 95.5794 1.79191 0.404516 0
M  V30 974 C 95.6414 1.91516 -3.0424 0
M  V30 975 C 95.3054 1.27094 -4.38972 0
M  V30 976 C 96.3024 0.657575 -5.15725 0
M  V30 977 C 93.9874 1.28073 -4.85698 0
M  V30 978 C 95.9814 0.0625968 -6.37369 0
M  V30 979 C 93.6684 0.681914 -6.07283 0
M  V30 980 C 94.6664 0.0739046 -6.8296 0
M  V30 981 O 94.3544 -0.515582 -8.02245 0
M  V30 982 H 94.0864 0.284764 -0.613095 0
M  V30 983 H 96.6404 0.233283 -2.04071 0
M  V30 984 H 94.8704 2.67475 -2.79274 0
M  V30 985 H 96.5594 2.52001 -3.18198 0
M  V30 986 H 97.3254 0.642288 -4.80728 0
M  V30 987 H 93.2044 1.74337 -4.26764 0
M  V30 988 H 96.7484 -0.412593 -6.96379 0
M  V30 989 H 92.6454 0.694636 -6.41752 0
M  V30 990 H 93.4134 -0.410544 -8.1747 0
M  V30 991 N 96.0765 1.50051 0.48192 0
M  V30 992 C 97.0065 1.71046 1.58951 0
M  V30 993 C 97.9875 0.559288 1.60642 0
M  V30 994 O 99.1725 0.797243 1.77081 0
M  V30 995 C 96.3025 1.79462 2.97339 0
M  V30 996 C 95.2565 2.94558 3.10515 0
M  V30 997 C 94.5825 2.88105 4.50444 0
M  V30 998 C 95.8825 4.35227 2.88747 0
M  V30 999 H 97.5765 2.6378 1.41635 0
M  V30 1000 H 95.1225 1.26936 0.679942 0
M  V30 1001 H 97.0755 1.92734 3.74742 0
M  V30 1002 H 95.7995 0.833412 3.15788 0
M  V30 1003 H 94.4585 2.80918 2.35543 0
M  V30 1004 H 94.1065 1.89853 4.65795 0
M  V30 1005 H 93.8065 3.65366 4.60197 0
M  V30 1006 H 95.3305 3.03412 5.29881 0
M  V30 1007 H 96.7445 4.49449 3.55905 0
M  V30 1008 H 95.1415 5.13856 3.09955 0
M  V30 1009 H 96.2115 4.48347 1.84696 0
M  V30 1010 N 97.5546 -0.734337 1.39446 0
M  V30 1011 C 98.9656 -1.31264 1.32766 0
M  V30 1012 C 99.3166 -1.96198 -0.00767497 0
M  V30 1013 O 98.4416 -1.96346 -0.909796 0
M  V30 1014 C 99.0366 -2.38682 2.4045 0
M  V30 1015 C 97.5956 -2.92184 2.37288 0
M  V30 1016 C 96.7426 -1.6576 2.22304 0
M  V30 1017 H 99.6936 -0.531799 1.49525 0
M  V30 1018 H 99.7146 -3.19087 2.07276 0
M  V30 1019 H 99.2266 -1.91392 3.37625 0
M  V30 1020 H 97.3276 -3.43752 1.43754 0
M  V30 1021 H 97.4406 -3.45253 3.3217 0
M  V30 1022 H 95.8046 -1.9012 1.69489 0
M  V30 1023 H 96.5876 -1.20521 3.21449 0
M  V30 1024 N 99.0327 -1.24633 -0.964593 0
M  V30 1025 C 99.9957 -1.0424 -2.04124 0
M  V30 1026 C 100.996 0.00137563 -1.608 0
M  V30 1027 O 102.186 -0.239883 -1.7254 0
M  V30 1028 C 99.3177 -0.580588 -3.3592 0
M  V30 1029 H 100.511 -1.99803 -2.23649 0
M  V30 1030 H 98.0637 -1.06899 -1.14027 0
M  V30 1031 H 98.7987 0.3781 -3.22088 0
M  V30 1032 H 98.5837 -1.33398 -3.6871 0
M  V30 1033 H 100.074 -0.459034 -4.15069 0
M  V30 1034 N 100.511 1.16574 -1.06058 0
M  V30 1035 C 101.788 1.83048 -0.689416 0
M  V30 1036 C 102.168 1.94122 0.829443 0
M  V30 1037 O 101.516 1.48249 1.7388 0
M  V30 1038 C 101.726 3.20186 -1.38859 0
M  V30 1039 C 103.074 3.95989 -1.53226 0
M  V30 1040 O 104.098 3.29696 -1.3483 0
M  V30 1041 O 102.957 5.14813 -1.83384 0
M  V30 1042 H 100.051 0.790258 -0.243764 0
M  V30 1043 H 102.597 1.23797 -1.16071 0
M  V30 1044 H 101.369 3.07146 -2.4244 0
M  V30 1045 H 100.992 3.87112 -0.907216 0
M  V30 1046 N 101.989 0.842826 1.3317 0
M  V30 1047 C 103.217 0.454055 2.01856 0
M  V30 1048 C 103.632 -0.94587 1.63397 0
M  V30 1049 O 102.989 -1.61534 0.849302 0
M  V30 1050 C 103.04 0.569715 3.56982 0
M  V30 1051 O 102.761 1.91448 3.94055 0
M  V30 1052 C 104.262 0.178412 4.42941 0
M  V30 1053 H 101.482 0.17979 0.646465 0
M  V30 1054 H 104.026 1.1365 1.70012 0
M  V30 1055 H 102.181 -0.0648587 3.87346 0
M  V30 1056 H 102.595 1.90282 4.88767 0
M  V30 1057 H 104.069 0.310376 5.51127 0
M  V30 1058 H 104.546 -0.880056 4.30293 0
M  V30 1059 H 105.152 0.787579 4.17944 0
M  V30 1060 N 103.467 -1.45747 0.599634 0
M  V30 1061 C 104.713 -2.02592 0.0918643 0
M  V30 1062 C 105.046 -1.46806 -1.27128 0
M  V30 1063 O 104.321 -0.639658 -1.83681 0
M  V30 1064 C 104.604 -3.60073 0.0443398 0
M  V30 1065 C 104.457 -4.26208 1.43759 0
M  V30 1066 C 105.776 -4.35309 -0.647608 0
M  V30 1067 H 102.895 -0.736175 0.034857 0
M  V30 1068 H 105.537 -1.73694 0.770081 0
M  V30 1069 H 103.687 -3.84823 -0.533224 0
M  V30 1070 H 105.359 -4.12668 2.06162 0
M  V30 1071 H 103.602 -3.84916 2.00056 0
M  V30 1072 H 104.273 -5.35069 1.35665 0
M  V30 1073 H 106.749 -4.15805 -0.156776 0
M  V30 1074 H 105.625 -5.45038 -0.649942 0
M  V30 1075 H 105.886 -4.07598 -1.71219 0
M  V30 1076 N 104.945 -0.338344 -1.53925 0
M  V30 1077 C 105.895 0.536712 -2.21593 0
M  V30 1078 C 106.879 1.07015 -1.20153 0
M  V30 1079 O 108.071 1.00471 -1.45721 0
M  V30 1080 C 105.2 1.68977 -2.98834 0
M  V30 1081 C 104.286 1.17052 -4.07627 0
M  V30 1082 N 104.677 0.372085 -5.0443 0
M  V30 1083 C 102.975 1.44789 -4.21844 0
M  V30 1084 C 103.676 0.0909171 -5.81629 0
M  V30 1085 N 102.652 0.681131 -5.39316 0
M  V30 1086 H 106.454 -0.0804298 -2.9379 0
M  V30 1087 H 103.968 -0.144943 -1.61752 0
M  V30 1088 H 105.965 2.32857 -3.45808 0
M  V30 1089 H 104.625 2.31024 -2.28162 0
M  V30 1090 H 105.636 0.0136217 -5.17898 0
M  V30 1091 H 102.313 2.07313 -3.62391 0
M  V30 1092 H 103.703 -0.552817 -6.69622 0
M  V30 1093 N 106.423 1.57458 -0.0668435 0
M  V30 1094 C 107.353 2.15468 0.899764 0
M  V30 1095 C 108.334 1.08042 1.31381 0
M  V30 1096 O 109.519 1.36054 1.38574 0
M  V30 1097 C 106.649 2.71232 2.16911 0
M  V30 1098 C 105.603 3.83781 1.89463 0
M  V30 1099 C 104.929 4.26127 3.22986 0
M  V30 1100 C 106.229 5.08238 1.20381 0
M  V30 1101 H 107.923 2.96488 0.416529 0
M  V30 1102 H 105.469 1.4262 0.198908 0
M  V30 1103 H 107.422 3.10458 2.84945 0
M  V30 1104 H 106.146 1.87426 2.67468 0
M  V30 1105 H 104.805 3.45051 1.23836 0
M  V30 1106 H 104.453 3.39249 3.71374 0
M  V30 1107 H 104.153 5.01993 3.05413 0
M  V30 1108 H 105.677 4.67966 3.92225 0
M  V30 1109 H 107.091 5.44811 1.78475 0
M  V30 1110 H 105.488 5.89349 1.13083 0
M  V30 1111 H 106.558 4.84558 0.182153 0
M  V30 1112 N 107.901 -0.206675 1.56239 0
M  V30 1113 C 108.864 -1.23976 1.92776 0
M  V30 1114 C 109.864 -1.39041 0.807729 0
M  V30 1115 O 111.054 -1.37051 1.0753 0
M  V30 1116 C 108.186 -2.61112 2.19165 0
M  V30 1117 H 109.379 -0.927764 2.85189 0
M  V30 1118 H 106.932 -0.447718 1.4975 0
M  V30 1119 H 107.667 -2.97386 1.29352 0
M  V30 1120 H 107.452 -2.51552 3.00772 0
M  V30 1121 H 108.942 -3.35633 2.48476 0
M  V30 1122 N 109.379 -1.50304 -0.473955 0
M  V30 1123 C 110.625 -1.61389 -1.22806 0
M  V30 1124 C 110.958 -0.311955 -1.91678 0
M  V30 1125 O 110.233 0.686384 -1.81986 0
M  V30 1126 C 110.516 -2.79219 -2.27396 0
M  V30 1127 C 110.369 -4.19286 -1.62848 0
M  V30 1128 C 111.688 -2.92614 -3.28732 0
M  V30 1129 H 108.807 -0.587399 -0.445119 0
M  V30 1130 H 111.449 -1.82681 -0.522265 0
M  V30 1131 H 109.599 -2.61195 -2.87592 0
M  V30 1132 H 111.271 -4.48892 -1.06271 0
M  V30 1133 H 109.514 -4.23677 -0.931693 0
M  V30 1134 H 110.185 -4.97655 -2.38838 0
M  V30 1135 H 112.661 -3.09105 -2.78556 0
M  V30 1136 H 111.537 -3.76688 -3.99246 0
M  V30 1137 H 111.798 -2.03107 -3.92683 0
M  V30 1138 N 110.857 0.726932 -1.39834 0
M  V30 1139 C 111.767 1.87131 -1.41489 0
M  V30 1140 C 112.783 1.71239 -0.308757 0
M  V30 1141 O 113.959 1.93701 -0.551529 0
M  V30 1142 C 111.024 3.22811 -1.26468 0
M  V30 1143 C 110.085 3.51039 -2.47124 0
M  V30 1144 C 109.318 4.80245 -2.3281 0
M  V30 1145 O 109.541 5.54537 -1.33585 0
M  V30 1146 O 108.475 5.08554 -3.21957 0
M  V30 1147 H 112.301 1.8869 -2.3797 0
M  V30 1148 H 109.886 0.875837 -1.21035 0
M  V30 1149 H 111.768 4.03877 -1.20255 0
M  V30 1150 H 110.443 3.22005 -0.330862 0
M  V30 1151 H 109.35 2.70027 -2.58914 0
M  V30 1152 H 110.683 3.56632 -3.39227 0
M  V30 1153 N 112.336 1.25143 0.95797 0
M  V30 1154 C 113.583 1.09692 1.70217 0
M  V30 1155 C 113.911 -0.362654 1.91089 0
M  V30 1156 O 113.166 -1.28386 1.47701 0
M  V30 1157 C 113.465 1.79272 3.09187 0
M  V30 1158 C 113.131 3.29196 3.08125 0
M  V30 1159 C 111.793 3.70096 3.07543 0
M  V30 1160 C 114.145 4.24995 3.0171 0
M  V30 1161 C 111.473 5.05213 2.9829 0
M  V30 1162 C 113.825 5.60132 2.93999 0
M  V30 1163 C 112.489 6.00365 2.9175 0
M  V30 1164 H 111.759 0.401393 0.622868 0
M  V30 1165 H 114.406 1.55372 1.11945 0
M  V30 1166 H 112.711 1.26014 3.70982 0
M  V30 1167 H 114.408 1.64773 3.65583 0
M  V30 1168 H 110.998 2.96651 3.09348 0
M  V30 1169 H 115.182 3.9439 3.01281 0
M  V30 1170 H 110.438 5.35569 2.94916 0
M  V30 1171 H 114.612 6.3406 2.87996 0
M  V30 1172 H 112.239 7.05023 2.84336 0
M  V30 1173 N 113.814 -1.1601 1.06675 0
M  V30 1174 C 115.061 -1.86633 0.785781 0
M  V30 1175 C 115.389 -1.81929 -0.687896 0
M  V30 1176 O 114.644 -1.23253 -1.52011 0
M  V30 1177 C 114.943 -3.35547 1.23057 0
M  V30 1178 C 114.609 -3.60448 2.70902 0
M  V30 1179 C 113.271 -3.66954 3.11285 0
M  V30 1180 C 115.623 -3.7071 3.66365 0
M  V30 1181 C 112.951 -3.81225 4.45965 0
M  V30 1182 C 115.303 -3.86503 5.00797 0
M  V30 1183 C 113.967 -3.91252 5.40813 0
M  V30 1184 H 113.237 -0.682937 0.287538 0
M  V30 1185 H 115.884 -1.37146 1.33654 0
M  V30 1186 H 114.189 -3.87193 0.59907 0
M  V30 1187 H 115.886 -3.88583 0.990163 0
M  V30 1188 H 112.476 -3.56021 2.38636 0
M  V30 1189 H 116.66 -3.64991 3.36296 0
M  V30 1190 H 111.916 -3.83155 4.76447 0
M  V30 1191 H 116.09 -3.93385 5.74649 0
M  V30 1192 H 113.717 -4.02062 6.45174 0
M  V30 1193 N 115.292 -0.849877 -1.32721 0
M  V30 1194 C 116.24 -0.279745 -2.30912 0
M  V30 1195 C 117.234 0.594278 -1.58634 0
M  V30 1196 O 118.44 0.482613 -1.73409 0
M  V30 1197 H 114.815 -0.0717521 -0.748569 0
M  V30 1198 H 116.786 -1.12222 -2.76494 0
M  V30 1199 C 115.535 0.521108 -3.43773 0
M  V30 1200 H 114.858 -0.142141 -3.99547 0
M  V30 1201 H 116.298 0.885693 -4.14646 0
M  V30 1202 C 114.757 1.70442 -2.90605 0
M  V30 1203 O 115.287 2.8034 -2.87702 0
M  V30 1204 N 113.493 1.52991 -2.47067 0
M  V30 1205 H 113.04 0.635914 -2.49628 0
M  V30 1206 H 112.998 2.32311 -2.11847 0
M  V30 1207 N 116.77 1.45427 -0.607355 0
M  V30 1208 C 117.7 2.3329 0.0989352 0
M  V30 1209 C 118.681 1.46816 0.859007 0
M  V30 1210 O 119.866 1.75588 0.829604 0
M  V30 1211 C 116.996 3.29518 1.09705 0
M  V30 1212 C 115.95 4.25626 0.450206 0
M  V30 1213 C 115.276 5.11542 1.55655 0
M  V30 1214 C 116.576 5.18505 -0.628455 0
M  V30 1215 H 118.27 2.92595 -0.634716 0
M  V30 1216 H 115.816 1.40696 -0.306681 0
M  V30 1217 H 117.769 3.89855 1.59971 0
M  V30 1218 H 116.493 2.68372 1.86129 0
M  V30 1219 H 115.152 3.66586 -0.0315886 0
M  V30 1220 H 114.8 4.46765 2.31107 0
M  V30 1221 H 114.5 5.76647 1.12925 0
M  V30 1222 H 116.024 5.74748 2.06148 0
M  V30 1223 H 117.438 5.72916 -0.209877 0
M  V30 1224 H 115.835 5.92085 -0.977489 0
M  V30 1225 H 116.905 4.60948 -1.50514 0
M  V30 1226 N 118.248 0.346503 1.53744 0
M  V30 1227 C 119.476 -0.25041 2.05379 0
M  V30 1228 C 119.891 -1.43979 1.22129 0
M  V30 1229 O 119.248 -1.80677 0.257321 0
M  V30 1230 C 119.299 -0.662575 3.55376 0
M  V30 1231 O 119.02 0.479515 4.35468 0
M  V30 1232 C 120.521 -1.31989 4.23195 0
M  V30 1233 H 117.741 -0.0478198 0.669294 0
M  V30 1234 H 120.285 0.499346 1.9831 0
M  V30 1235 H 118.44 -1.36227 3.62658 0
M  V30 1236 H 118.854 0.15037 5.24284 0
M  V30 1237 H 120.328 -1.55902 5.29527 0
M  V30 1238 H 120.805 -2.27436 3.75725 0
M  V30 1239 H 121.411 -0.662154 4.20114 0
M  V30 1240 N 119.726 -1.57421 0.075193 0
M  V30 1241 C 120.676 -2.09441 -0.901025 0
M  V30 1242 C 121.66 -1.00486 -1.25663 0
M  V30 1243 O 122.852 -1.2679 -1.23504 0
M  V30 1244 C 119.981 -2.66233 -2.16737 0
M  V30 1245 C 119.067 -3.82198 -1.83808 0
M  V30 1246 N 119.458 -4.91028 -1.21345 0
M  V30 1247 C 117.756 -3.91558 -2.13538 0
M  V30 1248 C 118.457 -5.71852 -1.06585 0
M  V30 1249 N 117.433 -5.20233 -1.57667 0
M  V30 1250 H 121.235 -2.90972 -0.413815 0
M  V30 1251 H 118.749 -1.6189 -0.128601 0
M  V30 1252 H 120.746 -3.01819 -2.87595 0
M  V30 1253 H 119.406 -1.8615 -2.66042 0
M  V30 1254 H 120.417 -5.10323 -0.88268 0
M  V30 1255 H 117.094 -3.22454 -2.65197 0
M  V30 1256 H 118.484 -6.69401 -0.578933 0
M  V30 1257 N 121.204 0.198386 -1.56346 0
M  V30 1258 C 122.134 1.24865 -1.9731 0
M  V30 1259 C 123.115 1.47651 -0.844576 0
M  V30 1260 O 124.3 1.59444 -1.10866 0
M  V30 1261 C 121.43 2.59358 -2.30977 0
M  V30 1262 C 120.384 2.5119 -3.46537 0
M  V30 1263 C 119.71 3.89926 -3.65871 0
M  V30 1264 C 121.01 2.03977 -4.80823 0
M  V30 1265 H 122.704 0.908252 -2.85291 0
M  V30 1266 H 120.25 0.435462 -1.37258 0
M  V30 1267 H 122.203 3.33011 -2.58228 0
M  V30 1268 H 120.927 2.95132 -1.39874 0
M  V30 1269 H 119.586 1.79993 -3.19371 0
M  V30 1270 H 119.234 4.23046 -2.72105 0
M  V30 1271 H 118.934 3.85336 -4.4361 0
M  V30 1272 H 120.458 4.65205 -3.95495 0
M  V30 1273 H 121.872 2.67386 -5.07127 0
M  V30 1274 H 120.269 2.10397 -5.62008 0
M  V30 1275 H 121.339 0.992861 -4.74626 0
M  V30 1276 N 122.682 1.50554 0.465978 0
M  V30 1277 C 124.093 1.54599 1.04671 0
M  V30 1278 C 124.444 0.352488 1.93008 0
M  V30 1279 O 123.569 -0.534044 2.09707 0
M  V30 1280 C 124.164 2.80166 1.90505 0
M  V30 1281 C 122.723 2.86876 2.43678 0
M  V30 1282 C 121.87 2.48947 1.22151 0
M  V30 1283 H 124.821 1.56744 0.248384 0
M  V30 1284 H 124.842 2.62311 2.75633 0
M  V30 1285 H 124.354 3.67013 1.26186 0
M  V30 1286 H 122.455 2.04393 3.11536 0
M  V30 1287 H 122.568 3.89885 2.78436 0
M  V30 1288 H 120.932 2.01498 1.5579 0
M  V30 1289 H 121.715 3.38107 0.594866 0
M  V30 1290 N 124.16 -0.719506 1.40217 0
M  V30 1291 C 125.123 -1.8153 1.39927 0
M  V30 1292 C 126.123 -1.58095 0.293723 0
M  V30 1293 O 127.313 -1.65209 0.552429 0
M  V30 1294 C 124.445 -3.19561 1.18716 0
M  V30 1295 H 125.638 -1.83186 2.37451 0
M  V30 1296 H 123.191 -0.924746 1.26008 0
M  V30 1297 H 123.926 -3.23557 0.219366 0
M  V30 1298 H 123.711 -3.3797 1.98793 0
M  V30 1299 H 125.201 -3.99598 1.21291 0
M  V30 1300 N 125.638 -1.25649 -0.95132 0
M  V30 1301 C 126.586 -1.06118 -2.06982 0
M  V30 1302 C 127.58 0.00889169 -1.69398 0
M  V30 1303 O 128.786 -0.146988 -1.79399 0
M  V30 1304 H 125.161 -0.326248 -0.677544 0
M  V30 1305 H 127.132 -2.00932 -2.2061 0
M  V30 1306 C 125.881 -0.700145 -3.40578 0
M  V30 1307 H 125.204 -1.51537 -3.69968 0
M  V30 1308 H 126.644 -0.603211 -4.19687 0
M  V30 1309 C 125.103 0.59403 -3.31622 0
M  V30 1310 O 125.633 1.63522 -3.66911 0
M  V30 1311 N 123.839 0.58089 -2.84735 0
M  V30 1312 H 123.386 -0.266783 -2.56215 0
M  V30 1313 H 123.344 1.44695 -2.79125 0
M  V30 1314 N 127.117 1.15442 -1.07289 0
M  V30 1315 C 128.047 2.22312 -0.714107 0
M  V30 1316 C 129.028 1.67467 0.298155 0
M  V30 1317 O 130.213 1.93445 0.171048 0
M  V30 1318 C 127.343 3.47124 -0.110448 0
M  V30 1319 C 126.297 4.14926 -1.04979 0
M  V30 1320 C 125.623 5.33807 -0.308924 0
M  V30 1321 C 126.923 4.64762 -2.38314 0
M  V30 1322 H 128.617 2.5258 -1.6076 0
M  V30 1323 H 126.163 1.21404 -0.77441 0
M  V30 1324 H 128.116 4.21124 0.152482 0
M  V30 1325 H 126.84 3.16187 0.81812 0
M  V30 1326 H 125.499 3.42866 -1.29764 0
M  V30 1327 H 125.147 4.99126 0.623084 0
M  V30 1328 H 124.847 5.80113 -0.935036 0
M  V30 1329 H 126.371 6.10576 -0.0537771 0
M  V30 1330 H 127.785 5.30292 -2.1786 0
M  V30 1331 H 126.182 5.21728 -2.96514 0
M  V30 1332 H 127.252 3.80434 -3.00663 0
M  V30 1333 N 128.595 0.856903 1.32268 0
M  V30 1334 C 129.525 0.31858 2.31316 0
M  V30 1335 C 130.506 -0.583487 1.59779 0
M  V30 1336 O 131.691 -0.503259 1.87566 0
M  V30 1337 C 128.821 -0.491979 3.43798 0
M  V30 1338 C 127.775 0.315849 4.26833 0
M  V30 1339 C 127.101 -0.619586 5.31098 0
M  V30 1340 C 128.401 1.54282 4.98993 0
M  V30 1341 H 130.095 1.14621 2.76591 0
M  V30 1342 H 127.641 0.552613 1.32974 0
M  V30 1343 H 129.594 -0.879012 4.1213 0
M  V30 1344 H 128.318 -1.35299 2.97257 0
M  V30 1345 H 126.977 0.684664 3.6015 0
M  V30 1346 H 126.625 -1.47751 4.8081 0
M  V30 1347 H 126.325 -0.0830621 5.87541 0
M  V30 1348 H 127.849 -1.00375 6.02293 0
M  V30 1349 H 129.263 1.22796 5.59995 0
M  V30 1350 H 127.66 2.01745 5.65172 0
M  V30 1351 H 128.73 2.30285 4.26728 0
M  V30 1352 N 130.073 -1.45103 0.615059 0
M  V30 1353 C 131.005 -2.28786 -0.13762 0
M  V30 1354 C 132.018 -1.40376 -0.824525 0
M  V30 1355 O 133.207 -1.64681 -0.688662 0
M  V30 1356 C 130.307 -3.16322 -1.21628 0
M  V30 1357 C 129.48 -4.33054 -0.615039 0
M  V30 1358 C 128.539 -5.01743 -1.58556 0
M  V30 1359 O 127.565 -5.58293 -1.10895 0
M  V30 1360 N 128.767 -5.01714 -2.91998 0
M  V30 1361 H 131.532 -2.94025 0.580483 0
M  V30 1362 H 129.093 -1.55373 0.45507 0
M  V30 1363 H 131.085 -3.59139 -1.86552 0
M  V30 1364 H 129.655 -2.52943 -1.83681 0
M  V30 1365 H 128.875 -3.93627 0.21245 0
M  V30 1366 H 130.163 -5.08431 -0.193704 0
M  V30 1367 H 129.561 -4.57075 -3.33316 0
M  V30 1368 H 128.118 -5.48371 -3.52325 0
M  V30 1369 N 131.551 -0.354651 -1.53558 0
M  V30 1370 C 132.799 0.237972 -2.00694 0
M  V30 1371 C 133.12 1.50173 -1.24391 0
M  V30 1372 O 132.39 1.92673 -0.354135 0
M  V30 1373 H 130.97 0.0909256 -0.741446 0
M  V30 1374 H 133.632 -0.478368 -1.88938 0
M  V30 1375 H 132.728 0.47264 -3.085 0
M  V30 1376 N 133.029 1.57378 -0.0835403 0
M  V30 1377 C 133.992 2.12252 0.864959 0
M  V30 1378 C 134.992 1.04916 1.21858 0
M  V30 1379 O 136.182 1.30853 1.14991 0
M  V30 1380 C 133.314 2.63358 2.16461 0
M  V30 1381 H 134.507 2.97371 0.388676 0
M  V30 1382 H 132.06 1.55423 0.165317 0
M  V30 1383 H 132.795 1.81727 2.686 0
M  V30 1384 H 132.58 3.41826 1.92087 0
M  V30 1385 H 134.07 3.05847 2.84337 0
M  V30 1386 N 134.507 -0.190092 1.56449 0
M  V30 1387 C 135.732 -0.929864 1.85387 0
M  V30 1388 C 136.157 -1.7585 0.667704 0
M  V30 1389 O 135.515 -1.77198 -0.383459 0
M  V30 1390 C 135.563 -1.79773 3.12593 0
M  V30 1391 O 134.667 -2.89713 2.93496 0
M  V30 1392 H 134.008 -0.261574 0.610307 0
M  V30 1393 H 136.538 -0.193896 2.03679 0
M  V30 1394 H 136.548 -2.20139 3.43515 0
M  V30 1395 H 135.223 -1.18892 3.98544 0
M  V30 1396 H 133.8 -2.53065 2.73884 0
M  V30 1397 N 135.985 -1.50799 -0.457987 0
M  V30 1398 C 136.932 -1.70617 -1.5543 0
M  V30 1399 C 137.902 -0.547562 -1.56815 0
M  V30 1400 O 139.087 -0.779647 -1.74144 0
M  V30 1401 C 136.227 -1.81831 -2.93311 0
M  V30 1402 C 135.34 -3.09278 -3.01615 0
M  V30 1403 C 134.475 -3.11209 -4.30491 0
M  V30 1404 C 133.514 -4.33055 -4.32585 0
M  V30 1405 N 132.651 -4.32652 -5.52952 0
M  V30 1406 H 137.491 -2.64207 -1.37836 0
M  V30 1407 H 135.028 -1.30959 -0.669937 0
M  V30 1408 H 136.986 -1.86314 -3.73287 0
M  V30 1409 H 135.616 -0.916685 -3.0951 0
M  V30 1410 H 134.668 -3.14203 -2.1443 0
M  V30 1411 H 135.98 -3.99233 -2.99022 0
M  V30 1412 H 135.134 -3.14494 -5.18824 0
M  V30 1413 H 133.873 -2.19106 -4.35711 0
M  V30 1414 H 132.878 -4.29969 -3.42647 0
M  V30 1415 H 134.103 -5.264 -4.29046 0
M  V30 1416 H 132.049 -3.43409 -5.58933 0
M  V30 1417 H 131.966 -5.16392 -5.52155 0
M  V30 1418 H 133.234 -4.40101 -6.43375 0
M  V30 1419 N 137.463 0.71206 -1.40597 0
M  V30 1420 C 138.393 1.83889 -1.43899 0
M  V30 1421 C 139.374 1.67442 -0.299504 0
M  V30 1422 O 140.559 1.87421 -0.508624 0
M  V30 1423 C 137.689 3.21877 -1.30431 0
M  V30 1424 C 136.643 3.53002 -2.42019 0
M  V30 1425 C 135.969 4.90172 -2.13626 0
M  V30 1426 C 137.269 3.53643 -3.84362 0
M  V30 1427 H 138.963 1.81383 -2.38203 0
M  V30 1428 H 136.509 0.871237 -1.14654 0
M  V30 1429 H 138.462 4.00404 -1.31357 0
M  V30 1430 H 137.186 3.24968 -0.326049 0
M  V30 1431 H 135.845 2.76818 -2.40349 0
M  V30 1432 H 135.493 4.89869 -1.14182 0
M  V30 1433 H 135.193 5.11962 -2.88389 0
M  V30 1434 H 136.717 5.71028 -2.1624 0
M  V30 1435 H 138.131 4.22203 -3.87837 0
M  V30 1436 H 136.528 3.86961 -4.58673 0
M  V30 1437 H 137.598 2.52954 -4.13693 0
M  V30 1438 N 138.941 1.26152 0.944643 0
M  V30 1439 C 139.873 1.03199 2.04652 0
M  V30 1440 C 140.886 -0.00642356 1.62799 0
M  V30 1441 O 142.075 0.233263 1.76969 0
M  V30 1442 C 139.175 0.540111 3.34568 0
M  V30 1443 C 138.348 1.64697 4.05208 0
M  V30 1444 C 137.407 1.15374 5.13396 0
M  V30 1445 O 136.433 1.85013 5.38293 0
M  V30 1446 N 137.635 0.00031529 5.805 0
M  V30 1447 H 140.4 1.9808 2.2491 0
M  V30 1448 H 137.961 1.17491 1.11389 0
M  V30 1449 H 139.953 0.194401 4.04233 0
M  V30 1450 H 138.523 -0.315021 3.11009 0
M  V30 1451 H 137.743 2.16379 3.29506 0
M  V30 1452 H 139.031 2.3903 4.49157 0
M  V30 1453 H 138.429 -0.581336 5.62705 0
M  V30 1454 H 136.986 -0.286346 6.51171 0
M  V30 1455 N 140.419 -1.14872 1.07899 0
M  V30 1456 C 141.329 -2.2341 0.715915 0
M  V30 1457 C 142.345 -1.71808 -0.275306 0
M  V30 1458 O 143.521 -2.01039 -0.120545 0
M  V30 1459 C 140.586 -3.46474 0.125168 0
M  V30 1460 C 139.647 -4.13039 1.17034 0
M  V30 1461 C 138.88 -5.30229 0.607688 0
M  V30 1462 O 139.103 -5.675 -0.574497 0
M  V30 1463 O 138.037 -5.86444 1.35526 0
M  V30 1464 H 141.863 -2.56808 1.62121 0
M  V30 1465 H 139.448 -1.22702 0.852322 0
M  V30 1466 H 141.33 -4.20917 -0.201729 0
M  V30 1467 H 140.005 -3.14811 -0.753364 0
M  V30 1468 H 138.912 -3.40493 1.54968 0
M  V30 1469 H 140.245 -4.48796 2.02097 0
M  V30 1470 N 141.898 -0.863906 -1.31812 0
M  V30 1471 C 142.828 -0.330843 -2.31144 0
M  V30 1472 C 143.809 0.575005 -1.60087 0
M  V30 1473 O 144.994 0.493304 -1.8783 0
M  V30 1474 C 142.124 0.47374 -3.44054 0
M  V30 1475 C 141.078 -0.338481 -4.26659 0
M  V30 1476 C 140.404 0.591412 -5.31419 0
M  V30 1477 C 141.704 -1.56926 -4.98168 0
M  V30 1478 H 143.398 -1.16086 -2.75979 0
M  V30 1479 H 140.944 -0.559657 -1.32679 0
M  V30 1480 H 142.897 0.857143 -4.12591 0
M  V30 1481 H 141.621 1.33721 -2.9797 0
M  V30 1482 H 140.28 -0.703754 -3.59782 0
M  V30 1483 H 139.928 1.45199 -4.81587 0
M  V30 1484 H 139.628 0.0519022 -5.87577 0
M  V30 1485 H 141.152 0.97179 -6.02817 0
M  V30 1486 H 142.566 -1.25764 -5.59336 0
M  V30 1487 H 140.963 -2.04739 -5.64094 0
M  V30 1488 H 142.033 -2.32544 -4.25501 0
M  V30 1489 N 143.376 1.44774 -0.622745 0
M  V30 1490 C 144.326 2.2774 0.108889 0
M  V30 1491 C 145.31 1.38189 0.824175 0
M  V30 1492 O 146.502 1.62063 0.711664 0
M  V30 1493 C 143.631 3.25353 1.09546 0
M  V30 1494 C 142.717 4.22392 0.380232 0
M  V30 1495 N 143.108 5.02388 -0.586535 0
M  V30 1496 C 141.406 4.41588 0.625792 0
M  V30 1497 C 142.107 5.72894 -1.00834 0
M  V30 1498 N 141.083 5.42479 -0.348878 0
M  V30 1499 H 144.885 2.86993 -0.63341 0
M  V30 1500 H 142.399 1.5611 -0.447589 0
M  V30 1501 H 144.396 3.83538 1.63414 0
M  V30 1502 H 143.056 2.6766 1.83815 0
M  V30 1503 H 144.067 5.0885 -0.963975 0
M  V30 1504 H 140.744 3.95003 1.352 0
M  V30 1505 H 142.134 6.47158 -1.80656 0
M  V30 1506 N 144.854 0.36279 1.53368 0
M  V30 1507 C 145.784 -0.476976 2.28576 0
M  V30 1508 C 146.765 -1.08631 1.30894 0
M  V30 1509 O 147.95 -1.10409 1.59761 0
M  V30 1510 C 145.08 -1.61828 3.07293 0
M  V30 1511 C 144.034 -1.13633 4.1264 0
M  V30 1512 C 143.36 -2.36766 4.79423 0
M  V30 1513 C 144.66 -0.223061 5.21823 0
M  V30 1514 H 146.354 0.150474 2.99022 0
M  V30 1515 H 143.9 0.0738103 1.43811 0
M  V30 1516 H 145.853 -2.21237 3.58653 0
M  V30 1517 H 144.577 -2.27292 2.34533 0
M  V30 1518 H 143.236 -0.564945 3.62221 0
M  V30 1519 H 142.884 -3.0068 4.03238 0
M  V30 1520 H 142.584 -2.05192 5.50609 0
M  V30 1521 H 144.108 -2.96865 5.33576 0
M  V30 1522 H 145.522 -0.724545 5.68703 0
M  V30 1523 H 143.919 0.001678 6.001 0
M  V30 1524 H 144.989 0.735553 4.79289 0
M  V30 1525 N 146.332 -1.57332 0.0918853 0
M  V30 1526 C 147.557 -1.98995 -0.584442 0
M  V30 1527 C 147.982 -0.970528 -1.61128 0
M  V30 1528 O 147.34 0.0613904 -1.81196 0
M  V30 1529 C 147.388 -3.39636 -1.21161 0
M  V30 1530 O 146.492 -3.40447 -2.32744 0
M  V30 1531 H 145.833 -0.647165 -0.148572 0
M  V30 1532 H 148.363 -2.03873 0.172347 0
M  V30 1533 H 148.373 -3.7726 -1.55367 0
M  V30 1534 H 147.048 -4.13356 -0.459313 0
M  V30 1535 H 145.625 -3.14614 -2.0018 0
M  V30 1536 N 147.81 0.181792 -1.56548 0
M  V30 1537 C 149.035 0.920019 -1.85877 0
M  V30 1538 C 149.46 1.75494 -0.677021 0
M  V30 1539 O 148.818 1.77399 0.374056 0
M  V30 1540 C 148.866 1.78112 -3.13542 0
M  V30 1541 O 147.97 2.88152 -2.95029 0
M  V30 1542 H 147.311 0.258334 -0.611686 0
M  V30 1543 H 149.841 0.183092 -2.03779 0
M  V30 1544 H 149.851 2.18314 -3.44678 0
M  V30 1545 H 148.526 1.16777 -3.99169 0
M  V30 1546 H 147.103 2.51609 -2.75222 0
M  V30 1547 N 149.288 1.51039 0.449983 0
M  V30 1548 C 150.236 1.71995 1.5659 0
M  V30 1549 C 151.23 0.586029 1.5894 0
M  V30 1550 O 152.436 0.76709 1.62837 0
M  V30 1551 H 148.811 0.543233 0.520001 0
M  V30 1552 H 150.782 2.65562 1.36085 0
M  V30 1553 C 149.531 1.8506 2.9436 0
M  V30 1554 H 148.854 2.71712 2.93279 0
M  V30 1555 H 150.294 2.0374 3.71842 0
M  V30 1556 C 148.753 0.607277 3.31382 0
M  V30 1557 O 149.283 -0.243903 4.00959 0
M  V30 1558 N 147.489 0.455073 2.87015 0
M  V30 1559 H 147.036 1.14879 2.30566 0
M  V30 1560 H 146.994 -0.375611 3.12148 0
M  V30 1561 N 150.766 -0.704594 1.40972 0
M  V30 1562 C 152.014 -1.46169 1.39568 0
M  V30 1563 C 152.335 -1.95 0.00253745 0
M  V30 1564 O 151.605 -1.71095 -0.954114 0
M  V30 1565 H 150.185 -0.542326 0.513704 0
M  V30 1566 H 152.847 -0.834553 1.76128 0
M  V30 1567 H 151.943 -2.32922 2.07735 0
M  V30 1568 N 152.244 -1.26651 -0.937939 0
M  V30 1569 C 153.174 -1.10993 -2.05433 0
M  V30 1570 C 154.155 -0.0142161 -1.70094 0
M  V30 1571 O 155.34 -0.186837 -1.93299 0
M  V30 1572 C 152.47 -0.745561 -3.39203 0
M  V30 1573 C 151.424 -1.79337 -3.88616 0
M  V30 1574 C 150.75 -1.28324 -5.19073 0
M  V30 1575 C 152.05 -3.19553 -4.13138 0
M  V30 1576 H 153.744 -2.0438 -2.1879 0
M  V30 1577 H 151.29 -0.984041 -1.05131 0
M  V30 1578 H 153.243 -0.622888 -4.16771 0
M  V30 1579 H 151.967 0.22401 -3.25831 0
M  V30 1580 H 150.626 -1.90477 -3.13231 0
M  V30 1581 H 150.274 -0.303414 -5.02084 0
M  V30 1582 H 149.974 -1.98369 -5.53103 0
M  V30 1583 H 151.498 -1.1733 -5.99221 0
M  V30 1584 H 152.912 -3.11471 -4.81309 0
M  V30 1585 H 151.309 -3.87218 -4.58457 0
M  V30 1586 H 152.379 -3.65368 -3.18801 0
M  V30 1587 N 153.722 1.14298 -1.08507 0
M  V30 1588 C 154.632 2.23027 -0.727753 0
M  V30 1589 C 155.648 1.71952 0.26619 0
M  V30 1590 O 156.824 2.011 0.109882 0
M  V30 1591 C 153.889 3.46403 -0.143541 0
M  V30 1592 C 152.95 4.12413 -1.19223 0
M  V30 1593 C 152.183 5.29899 -0.635798 0
M  V30 1594 O 152.406 5.67796 0.544393 0
M  V30 1595 O 151.34 5.85717 -1.38634 0
M  V30 1596 H 155.166 2.55945 -1.63481 0
M  V30 1597 H 152.751 1.22248 -0.858817 0
M  V30 1598 H 154.633 4.21018 0.179404 0
M  V30 1599 H 153.308 3.15206 0.736659 0
M  V30 1600 H 152.215 3.39667 -1.56772 0
M  V30 1601 H 153.548 4.47718 -2.04474 0
M  V30 1602 N 155.201 0.870884 1.31352 0
M  V30 1603 C 156.426 0.495957 2.01383 0
M  V30 1604 C 156.851 -0.904324 1.64935 0
M  V30 1605 O 156.209 -1.59687 0.858466 0
M  V30 1606 C 156.257 0.661433 3.54482 0
M  V30 1607 O 155.361 -0.298851 4.11316 0
M  V30 1608 H 154.702 0.197158 0.634054 0
M  V30 1609 H 157.232 1.17455 1.67527 0
M  V30 1610 H 157.242 0.555072 4.04207 0
M  V30 1611 H 155.917 1.68246 3.8035 0
M  V30 1612 H 154.494 -0.147368 3.72609 0
M  V30 1613 N 156.679 -1.44442 0.630414 0
M  V30 1614 C 157.609 -2.33418 -0.0618083 0
M  V30 1615 C 158.59 -1.48165 -0.835541 0
M  V30 1616 O 159.775 -1.76886 -0.801564 0
M  V30 1617 C 156.905 -3.31222 -1.04449 0
M  V30 1618 C 155.859 -4.26288 -0.382436 0
M  V30 1619 C 155.185 -5.13954 -1.47497 0
M  V30 1620 C 156.485 -5.1744 0.710865 0
M  V30 1621 H 158.179 -2.91548 0.681184 0
M  V30 1622 H 155.725 -1.40191 0.329026 0
M  V30 1623 H 157.678 -3.92351 -1.53748 0
M  V30 1624 H 156.402 -2.71299 -1.81836 0
M  V30 1625 H 155.061 -3.6649 0.0899054 0
M  V30 1626 H 154.709 -4.50385 -2.2397 0
M  V30 1627 H 154.409 -5.7837 -1.03737 0
M  V30 1628 H 155.933 -5.77955 -1.96979 0
M  V30 1629 H 157.347 -5.72509 0.300996 0
M  V30 1630 H 155.744 -5.90455 1.07156 0
M  V30 1631 H 156.814 -4.58496 1.57829 0
M  V30 1632 N 158.157 -0.370918 -1.53173 0
M  V30 1633 C 159.382 0.220293 -2.06227 0
M  V30 1634 C 159.807 1.41243 -1.24225 0
M  V30 1635 O 159.165 1.79387 -0.262645 0
M  V30 1636 C 159.213 0.586663 -3.55796 0
M  V30 1637 O 158.317 1.68317 -3.76488 0
M  V30 1638 H 157.658 0.0308099 -0.663285 0
M  V30 1639 H 160.188 -0.533068 -1.97534 0
M  V30 1640 H 160.198 0.85617 -3.98916 0
M  V30 1641 H 158.873 -0.285013 -4.14922 0
M  V30 1642 H 157.45 1.40881 -3.45264 0
M  V30 1643 N 159.635 1.57281 -0.100228 0
M  V30 1644 C 161.046 1.81725 0.428107 0
M  V30 1645 C 161.397 1.01619 1.67833 0
M  V30 1646 O 160.522 0.247098 2.14985 0
M  V30 1647 C 161.117 3.29617 0.78347 0
M  V30 1648 C 159.676 3.54808 1.25653 0
M  V30 1649 C 158.823 2.76118 0.255752 0
M  V30 1650 H 161.774 1.55324 -0.325608 0
M  V30 1651 H 161.795 3.4322 1.64256 0
M  V30 1652 H 161.307 3.87893 -0.12665 0
M  V30 1653 H 159.408 3.01868 2.18418 0
M  V30 1654 H 159.521 4.63443 1.21482 0
M  V30 1655 H 157.885 2.43745 0.738956 0
M  V30 1656 H 158.668 3.37145 -0.647136 0
M  V30 1657 N 161.113 -0.173488 1.56642 0
M  V30 1658 C 162.023 -1.23482 1.99473 0
M  V30 1659 C 163.039 -1.48567 0.905752 0
M  V30 1660 O 164.215 -1.60758 1.21321 0
M  V30 1661 C 161.28 -2.55444 2.34413 0
M  V30 1662 C 160.341 -2.38241 3.57127 0
M  V30 1663 C 159.574 -3.63909 3.90392 0
M  V30 1664 O 159.797 -4.68996 3.24653 0
M  V30 1665 O 158.731 -3.58149 4.83749 0
M  V30 1666 H 162.557 -0.901279 2.90018 0
M  V30 1667 H 160.142 -0.380185 1.44482 0
M  V30 1668 H 162.024 -3.33292 2.57865 0
M  V30 1669 H 160.699 -2.88382 1.4703 0
M  V30 1670 H 159.606 -1.58431 3.38896 0
M  V30 1671 H 160.939 -2.10228 4.45045 0
M  V30 1672 N 162.591 -1.51276 -0.441967 0
M  V30 1673 C 163.838 -1.63715 -1.19179 0
M  V30 1674 C 164.166 -0.351175 -1.91303 0
M  V30 1675 O 163.421 0.664524 -1.84072 0
M  V30 1676 C 163.72 -2.78746 -2.23686 0
M  V30 1677 C 163.386 -4.18189 -1.68607 0
M  V30 1678 C 162.048 -4.56125 -1.53308 0
M  V30 1679 C 164.4 -5.05222 -1.28062 0
M  V30 1680 C 161.728 -5.78804 -0.959317 0
M  V30 1681 C 164.08 -6.28476 -0.721162 0
M  V30 1682 C 162.744 -6.65188 -0.55504 0
M  V30 1683 H 162.014 -0.599076 -0.436106 0
M  V30 1684 H 164.661 -1.85296 -0.48351 0
M  V30 1685 H 162.966 -2.51369 -3.00535 0
M  V30 1686 H 164.663 -2.8557 -2.81515 0
M  V30 1687 H 161.253 -3.88277 -1.8149 0
M  V30 1688 H 165.437 -4.76524 -1.38704 0
M  V30 1689 H 160.693 -6.05899 -0.81833 0
M  V30 1690 H 164.867 -6.95259 -0.398458 0
M  V30 1691 H 162.494 -7.60123 -0.108311 0
M  V30 1692 N 164.069 0.697108 -1.41344 0
M  V30 1693 C 164.999 1.82353 -1.45841 0
M  V30 1694 C 165.98 1.67115 -0.317247 0
M  V30 1695 O 167.165 1.86871 -0.528474 0
M  V30 1696 C 164.295 3.20476 -1.33838 0
M  V30 1697 C 163.249 3.50415 -2.4575 0
M  V30 1698 C 162.575 4.87878 -2.18813 0
M  V30 1699 C 163.875 3.49546 -3.88091 0
M  V30 1700 H 165.569 1.78846 -2.40113 0
M  V30 1701 H 163.115 0.859028 -1.15571 0
M  V30 1702 H 165.068 3.98988 -1.35596 0
M  V30 1703 H 163.792 3.24604 -0.360498 0
M  V30 1704 H 162.451 2.74253 -2.43271 0
M  V30 1705 H 162.099 4.8863 -1.19371 0
M  V30 1706 H 161.799 5.08875 -2.93803 0
M  V30 1707 H 163.323 5.68702 -2.22284 0
M  V30 1708 H 164.737 4.18066 -3.92293 0
M  V30 1709 H 163.134 3.82075 -4.62751 0
M  V30 1710 H 164.204 2.48552 -4.16353 0
M  V30 1711 N 165.547 1.27147 0.931209 0
M  V30 1712 C 166.963 1.04475 1.20653 0
M  V30 1713 C 167.163 -0.223885 2.00252 0
M  V30 1714 O 166.219 -0.930332 2.34736 0
M  V30 1715 C 167.532 2.28209 1.95809 0
M  V30 1716 C 169.08 2.33211 2.08762 0
M  V30 1717 C 169.555 3.56665 2.87323 0
M  V30 1718 N 171.046 3.57201 2.94892 0
M  V30 1719 C 171.781 4.49395 3.56134 0
M  V30 1720 N 171.277 5.51889 4.18796 0
M  V30 1721 N 173.07 4.37026 3.53504 0
M  V30 1722 H 165.221 2.08612 0.399333 0
M  V30 1723 H 167.484 0.917312 0.239253 0
M  V30 1724 H 167.19 3.20538 1.44736 0
M  V30 1725 H 167.064 2.33247 2.96438 0
M  V30 1726 H 169.451 1.41391 2.59023 0
M  V30 1727 H 169.532 2.32178 1.07364 0
M  V30 1728 H 169.176 4.4882 2.37746 0
M  V30 1729 H 169.106 3.54948 3.88998 0
M  V30 1730 H 171.597 2.83074 2.50354 0
M  V30 1731 H 171.91 6.18409 4.63454 0
M  V30 1732 H 170.255 5.55735 4.17353 0
M  V30 1733 H 173.446 3.56166 3.03749 0
M  V30 1734 H 173.619 5.09067 4.00942 0
M  V30 1735 N 167.025 -1.13721 1.09112 0
M  V30 1736 C 168.436 -1.6648 0.845068 0
M  V30 1737 C 168.787 -1.85911 -0.62701 0
M  V30 1738 O 167.912 -1.57556 -1.48341 0
M  V30 1739 C 168.507 -3.02413 1.52748 0
M  V30 1740 C 167.066 -3.52176 1.32849 0
M  V30 1741 C 166.213 -2.27492 1.58564 0
M  V30 1742 H 169.164 -0.976872 1.25072 0
M  V30 1743 H 169.185 -3.68223 0.958752 0
M  V30 1744 H 168.697 -2.88238 2.59885 0
M  V30 1745 H 166.798 -3.7156 0.278137 0
M  V30 1746 H 166.911 -4.32499 2.0611 0
M  V30 1747 H 165.275 -2.33923 1.00758 0
M  V30 1748 H 166.058 -2.15886 2.66924 0
M  V30 1749 N 168.503 -0.877838 -1.30888 0
M  V30 1750 C 169.749 -0.493426 -1.96706 0
M  V30 1751 C 170.082 0.953504 -1.6918 0
M  V30 1752 O 169.357 1.67266 -0.992594 0
M  V30 1753 C 169.64 -0.760429 -3.51979 0
M  V30 1754 C 169.493 -2.25747 -3.89048 0
M  V30 1755 C 170.812 -0.232148 -4.39487 0
M  V30 1756 H 167.931 -0.180746 -0.714493 0
M  V30 1757 H 170.573 -1.10052 -1.54882 0
M  V30 1758 H 168.723 -0.243715 -3.87735 0
M  V30 1759 H 170.395 -2.84204 -3.63354 0
M  V30 1760 H 168.638 -2.72694 -3.37373 0
M  V30 1761 H 169.309 -2.39491 -4.97341 0
M  V30 1762 H 171.785 -0.674314 -4.106 0
M  V30 1763 H 170.661 -0.448355 -5.47066 0
M  V30 1764 H 170.922 0.866297 -4.33529 0
M  V30 1765 N 169.982 1.44106 -0.638065 0
M  V30 1766 C 171.393 1.85316 -0.226894 0
M  V30 1767 C 171.744 1.53399 1.22324 0
M  V30 1768 O 170.869 0.975463 1.93167 0
M  V30 1769 C 171.464 3.3637 -0.405013 0
M  V30 1770 C 170.023 3.76369 -0.0482902 0
M  V30 1771 C 169.17 2.67921 -0.715108 0
M  V30 1772 H 172.121 1.34474 -0.842764 0
M  V30 1773 H 172.142 3.7885 0.354 0
M  V30 1774 H 171.654 3.59569 -1.46053 0
M  V30 1775 H 169.755 3.58784 1.00522 0
M  V30 1776 H 169.868 4.76856 -0.463187 0
M  V30 1777 H 168.232 2.54259 -0.149753 0
M  V30 1778 H 169.015 2.93951 -1.77335 0
M  V30 1779 N 171.46 0.379036 1.52974 0
M  V30 1780 C 172.392 -0.495963 2.2377 0
M  V30 1781 C 173.405 -1.03517 1.25651 0
M  V30 1782 O 174.594 -0.939249 1.51791 0
M  V30 1783 C 171.694 -1.69894 2.93239 0
M  V30 1784 C 170.867 -1.2889 4.17979 0
M  V30 1785 C 169.926 -2.35543 4.70538 0
M  V30 1786 O 168.952 -1.97375 5.33883 0
M  V30 1787 N 170.154 -3.67318 4.49508 0
M  V30 1788 H 172.919 0.110523 2.99496 0
M  V30 1789 H 170.48 0.204878 1.60598 0
M  V30 1790 H 172.472 -2.40747 3.25304 0
M  V30 1791 H 171.042 -2.212 2.20883 0
M  V30 1792 H 170.262 -0.409676 3.92065 0
M  V30 1793 H 171.55 -0.991443 4.99047 0
M  V30 1794 H 170.948 -4.01095 3.98923 0
M  V30 1795 H 169.505 -4.34235 4.8609 0
M  V30 1796 N 172.938 -1.57226 0.108567 0
M  V30 1797 C 173.868 -2.17778 -0.84232 0
M  V30 1798 C 174.849 -1.11487 -1.2847 0
M  V30 1799 O 176.034 -1.39681 -1.34918 0
M  V30 1800 C 173.164 -2.76888 -2.09644 0
M  V30 1801 C 172.118 -3.88669 -1.79221 0
M  V30 1802 C 171.444 -4.34541 -3.11574 0
M  V30 1803 C 172.744 -5.11251 -1.06864 0
M  V30 1804 H 174.438 -2.97489 -0.337774 0
M  V30 1805 H 171.984 -1.43097 -0.161025 0
M  V30 1806 H 173.937 -3.17904 -2.76614 0
M  V30 1807 H 172.661 -1.94451 -2.62405 0
M  V30 1808 H 171.32 -3.48213 -1.14644 0
M  V30 1809 H 170.968 -3.48977 -3.62249 0
M  V30 1810 H 170.668 -5.09914 -2.91996 0
M  V30 1811 H 172.192 -4.782 -3.7968 0
M  V30 1812 H 173.606 -5.49352 -1.63968 0
M  V30 1813 H 172.003 -5.9214 -0.974178 0
M  V30 1814 H 173.073 -4.8487 -0.0536168 0
M  V30 1815 N 174.416 0.165178 -1.56732 0
M  V30 1816 C 175.832 0.517174 -1.50988 0
M  V30 1817 C 176.032 1.84331 -0.813894 0
M  V30 1818 O 175.088 2.49672 -0.37682 0
M  V30 1819 C 176.401 0.544261 -2.95733 0
M  V30 1820 C 177.949 0.631039 -3.06573 0
M  V30 1821 C 178.424 0.68896 -4.52788 0
M  V30 1822 N 179.915 0.751683 -4.5706 0
M  V30 1823 C 180.65 0.817177 -5.67547 0
M  V30 1824 N 180.146 0.843129 -6.8765 0
M  V30 1825 N 181.939 0.856668 -5.55534 0
M  V30 1826 H 174.09 -0.704318 -2.00382 0
M  V30 1827 H 176.353 -0.254687 -0.913148 0
M  V30 1828 H 176.059 -0.361607 -3.49836 0
M  V30 1829 H 175.933 1.3886 -3.5071 0
M  V30 1830 H 178.32 1.52733 -2.52501 0
M  V30 1831 H 178.401 -0.240095 -2.54671 0
M  V30 1832 H 178.045 -0.2031 -5.07494 0
M  V30 1833 H 177.975 1.57633 -5.02454 0
M  V30 1834 H 180.466 0.739661 -3.70591 0
M  V30 1835 H 180.779 0.894448 -7.67606 0
M  V30 1836 H 179.124 0.811304 -6.90248 0
M  V30 1837 H 182.315 0.833437 -4.60621 0
M  V30 1838 H 182.488 0.904247 -6.4166 0
M  V30 1839 N 175.894 1.51508 0.433938 0
M  V30 1840 C 177.14 1.64588 1.18484 0
M  V30 1841 C 177.473 0.362666 1.90784 0
M  V30 1842 O 176.748 -0.637892 1.83742 0
M  V30 1843 C 177.031 2.85149 2.19913 0
M  V30 1844 C 176.884 4.23456 1.51674 0
M  V30 1845 C 178.203 3.01227 3.20858 0
M  V30 1846 H 175.322 0.598994 0.429389 0
M  V30 1847 H 177.964 1.84002 0.473647 0
M  V30 1848 H 176.114 2.68729 2.80566 0
M  V30 1849 H 177.786 4.51552 0.943322 0
M  V30 1850 H 176.029 4.25998 0.819035 0
M  V30 1851 H 176.7 5.03812 2.2556 0
M  V30 1852 H 179.176 3.16382 2.70263 0
M  V30 1853 H 178.052 3.87141 3.89118 0
M  V30 1854 H 178.313 2.13447 3.8716 0
M  V30 1855 N 177.372 -0.689602 1.41712 0
M  V30 1856 C 178.302 -1.81577 1.46806 0
M  V30 1857 C 179.283 -1.66945 0.326105 0
M  V30 1858 O 180.468 -1.86588 0.538377 0
M  V30 1859 C 177.598 -3.19762 1.35535 0
M  V30 1860 C 176.552 -3.49107 2.47605 0
M  V30 1861 C 175.878 -4.86711 2.21397 0
M  V30 1862 C 177.178 -3.47483 3.89939 0
M  V30 1863 H 178.872 -1.7757 2.41058 0
M  V30 1864 H 176.418 -0.852887 1.16025 0
M  V30 1865 H 178.371 -3.98263 1.3771 0
M  V30 1866 H 177.095 -3.24409 0.377708 0
M  V30 1867 H 175.754 -2.72959 2.44722 0
M  V30 1868 H 175.402 -4.8799 1.21961 0
M  V30 1869 H 175.102 -5.0731 2.96497 0
M  V30 1870 H 176.626 -5.67515 2.25297 0
M  V30 1871 H 178.04 -4.1598 3.94505 0
M  V30 1872 H 176.437 -3.79615 4.64771 0
M  V30 1873 H 177.507 -2.46341 4.17665 0
M  V30 1874 N 178.85 -1.27639 -0.924453 0
M  V30 1875 C 180.127 -1.04887 -1.651 0
M  V30 1876 C 180.507 0.415327 -2.06974 0
M  V30 1877 O 179.855 1.39923 -1.80648 0
M  V30 1878 C 180.065 -2.01348 -2.85061 0
M  V30 1879 C 181.413 -2.30899 -3.56329 0
M  V30 1880 O 182.437 -1.99348 -2.95193 0
M  V30 1881 O 181.296 -2.84699 -4.66485 0
M  V30 1882 H 178.39 -0.400083 -0.723784 0
M  V30 1883 H 180.936 -1.38916 -0.974703 0
M  V30 1884 H 179.708 -3.0008 -2.51133 0
M  V30 1885 H 179.331 -1.679 -3.6041 0
M  V30 1886 N 180.328 1.1314 -1.09713 0
M  V30 1887 C 181.258 2.20748 -0.761102 0
M  V30 1888 C 182.239 1.68061 0.262566 0
M  V30 1889 O 183.424 1.93765 0.129977 0
M  V30 1890 C 180.554 3.46812 -0.184054 0
M  V30 1891 C 179.508 4.12606 -1.13757 0
M  V30 1892 C 178.834 5.33031 -0.422083 0
M  V30 1893 C 180.134 4.59603 -2.48118 0
M  V30 1894 H 181.828 2.49113 -1.66082 0
M  V30 1895 H 179.374 1.19734 -0.799987 0
M  V30 1896 H 181.327 4.21353 0.0631215 0
M  V30 1897 H 180.051 3.17851 0.750868 0
M  V30 1898 H 178.71 3.40036 -1.37007 0
M  V30 1899 H 178.358 5.00335 0.517072 0
M  V30 1900 H 178.058 5.77999 -1.05788 0
M  V30 1901 H 179.582 6.10325 -0.183277 0
M  V30 1902 H 180.996 5.25552 -2.29059 0
M  V30 1903 H 179.393 5.15321 -3.07514 0
M  V30 1904 H 180.463 3.73971 -3.08665 0
M  V30 1905 N 181.806 0.884767 1.30421 0
M  V30 1906 C 183.034 0.518044 2.0031 0
M  V30 1907 C 183.449 -0.893408 1.66324 0
M  V30 1908 O 182.806 -1.5875 0.900262 0
M  V30 1909 C 182.857 0.682997 3.54989 0
M  V30 1910 O 182.578 2.03888 3.87764 0
M  V30 1911 C 184.079 0.31924 4.42149 0
M  V30 1912 H 181.299 0.200265 0.640418 0
M  V30 1913 H 183.843 1.19001 1.6631 0
M  V30 1914 H 181.998 0.0584052 3.87356 0
M  V30 1915 H 182.412 2.05735 4.82466 0
M  V30 1916 H 183.886 0.485555 5.4986 0
M  V30 1917 H 184.363 -0.742717 4.32875 0
M  V30 1918 H 184.969 0.920147 4.15227 0
M  V30 1919 N 183.284 -1.43765 0.645699 0
M  V30 1920 C 184.7 -1.56509 0.312591 0
M  V30 1921 C 184.9 -1.6307 -1.18365 0
M  V30 1922 O 183.956 -1.58167 -1.96824 0
M  V30 1923 C 185.269 -2.82968 1.01733 0
M  V30 1924 C 186.817 -2.96701 0.996865 0
M  V30 1925 C 187.292 -4.25982 1.68236 0
M  V30 1926 N 188.783 -4.32829 1.64964 0
M  V30 1927 C 189.518 -5.31613 2.14885 0
M  V30 1928 N 189.014 -6.36718 2.73061 0
M  V30 1929 N 190.807 -5.23217 2.05428 0
M  V30 1930 H 182.958 -1.3775 1.61675 0
M  V30 1931 H 185.221 -0.661067 0.679481 0
M  V30 1932 H 184.927 -2.84156 2.0724 0
M  V30 1933 H 184.801 -3.72957 0.564177 0
M  V30 1934 H 187.188 -2.95058 -0.0497719 0
M  V30 1935 H 187.269 -2.08022 1.48865 0
M  V30 1936 H 186.913 -4.28386 2.72852 0
M  V30 1937 H 186.843 -5.13545 1.16529 0
M  V30 1938 H 189.334 -3.57493 1.22503 0
M  V30 1939 H 189.647 -7.08401 3.08848 0
M  V30 1940 H 187.992 -6.37362 2.77118 0
M  V30 1941 H 191.183 -4.40019 1.59689 0
M  V30 1942 H 191.356 -6.00045 2.44643 0
M  V30 1943 N 184.763 -0.387143 -1.52771 0
M  V30 1944 C 185.711 0.463953 -2.27926 0
M  V30 1945 C 186.705 1.06493 -1.31741 0
M  V30 1946 O 187.911 1.00565 -1.49287 0
M  V30 1947 H 184.286 0.16837 -0.732909 0
M  V30 1948 H 186.257 -0.19141 -2.97785 0
M  V30 1949 C 185.006 1.5803 -3.09713 0
M  V30 1950 H 184.329 1.12718 -3.83581 0
M  V30 1951 H 185.769 2.15008 -3.65442 0
M  V30 1952 C 184.228 2.53509 -2.2189 0
M  V30 1953 O 184.758 3.56863 -1.84422 0
M  V30 1954 N 182.964 2.23199 -1.86093 0
M  V30 1955 H 182.511 1.39185 -2.16761 0
M  V30 1956 H 182.469 2.87333 -1.27621 0
M  V30 1957 N 186.241 1.57166 -0.116904 0
M  V30 1958 C 187.204 2.14039 0.819742 0
M  V30 1959 C 188.204 1.07477 1.19605 0
M  V30 1960 O 189.394 1.33263 1.1219 0
M  V30 1961 C 186.526 2.67891 2.10826 0
M  V30 1962 H 187.719 2.98128 0.325511 0
M  V30 1963 H 185.272 1.55739 0.132312 0
M  V30 1964 H 186.007 1.87384 2.64685 0
M  V30 1965 H 185.792 3.45823 1.84793 0
M  V30 1966 H 187.282 3.11809 2.77785 0
M  V30 1967 N 187.719 -0.156864 1.56817 0
M  V30 1968 C 188.649 -1.19589 2.00551 0
M  V30 1969 C 189.63 -1.4536 0.883426 0
M  V30 1970 O 190.815 -1.56449 1.15054 0
M  V30 1971 C 187.945 -2.53143 2.37773 0
M  V30 1972 C 186.899 -2.41913 3.53075 0
M  V30 1973 C 186.225 -3.80088 3.76081 0
M  V30 1974 C 187.525 -1.91157 4.86062 0
M  V30 1975 H 189.219 -0.832293 2.87599 0
M  V30 1976 H 186.765 -0.398918 1.38364 0
M  V30 1977 H 188.718 -3.26047 2.66967 0
M  V30 1978 H 187.442 -2.91319 1.4765 0
M  V30 1979 H 186.101 -1.71462 3.24031 0
M  V30 1980 H 185.749 -4.15683 2.83225 0
M  V30 1981 H 185.449 -3.73439 4.53671 0
M  V30 1982 H 186.973 -4.54556 4.0769 0
M  V30 1983 H 188.387 -2.53846 5.14038 0
M  V30 1984 H 186.784 -1.95422 5.67389 0
M  V30 1985 H 187.854 -0.866673 4.77092 0
M  V30 1986 N 189.197 -1.51736 -0.425897 0
M  V30 1987 C 190.425 -1.68794 -1.1965 0
M  V30 1988 C 190.84 -0.390164 -1.84725 0
M  V30 1989 O 190.197 0.632376 -1.71194 0
M  V30 1990 C 190.248 -2.81174 -2.27208 0
M  V30 1991 O 189.969 -4.05925 -1.64793 0
M  V30 1992 C 191.47 -3.09599 -3.17275 0
M  V30 1993 H 188.69 -0.566128 -0.360194 0
M  V30 1994 H 191.234 -1.98211 -0.503249 0
M  V30 1995 H 189.389 -2.54324 -2.9223 0
M  V30 1996 H 189.803 -4.68423 -2.35967 0
M  V30 1997 H 191.277 -3.91786 -3.88854 0
M  V30 1998 H 191.754 -2.22468 -3.78688 0
M  V30 1999 H 192.36 -3.38151 -2.57941 0
M  V30 2000 N 190.675 0.682077 -1.42076 0
M  V30 2001 C 191.923 1.4393 -1.41876 0
M  V30 2002 C 192.244 1.94971 -0.0335599 0
M  V30 2003 O 191.514 1.72591 0.926773 0
M  V30 2004 H 190.094 0.534085 -0.522267 0
M  V30 2005 H 192.756 0.806427 -1.77434 0
M  V30 2006 H 191.852 2.29588 -2.11414 0
M  V30 2007 N 192.153 1.28127 0.917671 0
M  V30 2008 C 193.083 1.14248 2.03641 0
M  V30 2009 C 194.064 0.0412748 1.7005 0
M  V30 2010 O 195.249 0.217566 1.92977 0
M  V30 2011 C 192.379 0.799431 3.37974 0
M  V30 2012 C 191.333 1.85497 3.85713 0
M  V30 2013 C 190.659 1.36565 5.16966 0
M  V30 2014 C 191.959 3.26085 4.08002 0
M  V30 2015 H 193.653 2.07835 2.15511 0
M  V30 2016 H 191.199 1.00064 1.03553 0
M  V30 2017 H 193.152 0.689114 4.15727 0
M  V30 2018 H 191.876 -0.172145 3.26146 0
M  V30 2019 H 190.535 1.95437 3.10161 0
M  V30 2020 H 190.183 0.383253 5.01538 0
M  V30 2021 H 189.883 2.07143 5.49878 0
M  V30 2022 H 191.407 1.26848 5.97279 0
M  V30 2023 H 192.821 3.19089 4.76293 0
M  V30 2024 H 191.218 3.94462 4.52238 0
M  V30 2025 H 192.288 3.70394 3.12948 0
M  V30 2026 N 193.631 -1.12557 1.10312 0
M  V30 2027 C 195.042 -1.65574 0.862678 0
M  V30 2028 C 195.393 -1.86566 -0.607256 0
M  V30 2029 O 194.518 -1.59121 -1.46662 0
M  V30 2030 C 195.113 -3.00776 1.55947 0
M  V30 2031 C 193.672 -3.50748 1.36576 0
M  V30 2032 C 192.819 -2.25797 1.60968 0
M  V30 2033 H 195.77 -0.963552 1.26101 0
M  V30 2034 H 195.791 -3.67185 0.997753 0
M  V30 2035 H 195.303 -2.85465 2.62928 0
M  V30 2036 H 193.404 -3.71245 0.317531 0
M  V30 2037 H 193.517 -4.30289 2.10686 0
M  V30 2038 H 191.881 -2.32841 1.03234 0
M  V30 2039 H 192.664 -2.13043 2.69198 0
M  V30 2040 N 195.109 -0.891671 -1.2995 0
M  V30 2041 C 196.52 -0.563104 -1.78006 0
M  V30 2042 C 196.871 0.920978 -1.73241 0
M  V30 2043 O 195.996 1.71987 -1.31337 0
M  V30 2044 C 196.591 -1.01539 -3.23226 0
M  V30 2045 C 195.15 -0.738124 -3.69092 0
M  V30 2046 C 194.297 -1.19461 -2.50249 0
M  V30 2047 H 197.248 -1.07522 -1.16725 0
M  V30 2048 H 197.269 -0.347217 -3.78912 0
M  V30 2049 H 196.781 -2.09555 -3.26662 0
M  V30 2050 H 194.882 0.329766 -3.71138 0
M  V30 2051 H 194.995 -1.33037 -4.60259 0
M  V30 2052 H 193.359 -0.613787 -2.47194 0
M  V30 2053 H 194.142 -2.28265 -2.56417 0
M  V30 2054 N 196.587 1.43421 -0.653314 0
M  V30 2055 C 197.835 2.01414 -0.166415 0
M  V30 2056 C 198.156 1.51803 1.22397 0
M  V30 2057 O 197.426 0.730693 1.81763 0
M  V30 2058 H 196.006 0.744703 -0.0585319 0
M  V30 2059 H 198.668 1.75629 -0.845003 0
M  V30 2060 H 197.764 3.11734 -0.151111 0
M  V30 2061 N 198.065 0.39524 1.52563 0
M  V30 2062 C 198.995 -0.428384 2.29537 0
M  V30 2063 C 199.976 -1.05831 1.33169 0
M  V30 2064 O 201.161 -1.06995 1.62067 0
M  V30 2065 C 198.291 -1.55274 3.10656 0
M  V30 2066 C 197.245 -1.04855 4.14957 0
M  V30 2067 C 196.571 -2.26543 4.84337 0
M  V30 2068 C 197.871 -0.112324 5.22179 0
M  V30 2069 H 199.565 0.213867 2.98635 0
M  V30 2070 H 197.111 0.104298 1.43622 0
M  V30 2071 H 199.064 -2.1358 3.63265 0
M  V30 2072 H 197.788 -2.22266 2.39302 0
M  V30 2073 H 196.447 -0.487985 3.63338 0
M  V30 2074 H 196.095 -2.92059 4.09525 0
M  V30 2075 H 195.795 -1.93466 5.54837 0
M  V30 2076 H 197.319 -2.85481 5.39753 0
M  V30 2077 H 198.733 -0.603752 5.70112 0
M  V30 2078 H 197.13 0.128968 5.99961 0
M  V30 2079 H 198.2 0.837052 4.77621 0
M  V30 2080 N 199.544 -1.57102 0.125237 0
M  V30 2081 C 200.791 -1.95407 -0.531248 0
M  V30 2082 C 201.119 -1.0089 -1.66287 0
M  V30 2083 O 200.374 -0.0339431 -1.95671 0
M  V30 2084 C 200.673 -3.40096 -1.09862 0
M  V30 2085 C 200.339 -4.50815 -0.0876989 0
M  V30 2086 C 199.001 -4.80824 0.19026 0
M  V30 2087 C 201.353 -5.17724 0.600902 0
M  V30 2088 C 198.681 -5.75058 1.163 0
M  V30 2089 C 201.033 -6.13005 1.56231 0
M  V30 2090 C 199.697 -6.41403 1.8482 0
M  V30 2091 H 198.967 -0.715046 -0.194397 0
M  V30 2092 H 201.614 -1.90373 0.207463 0
M  V30 2093 H 199.919 -3.41855 -1.91422 0
M  V30 2094 H 201.616 -3.6705 -1.61478 0
M  V30 2095 H 198.206 -4.27444 -0.314528 0
M  V30 2096 H 202.39 -4.94691 0.399333 0
M  V30 2097 H 197.646 -5.95362 1.39117 0
M  V30 2098 H 201.82 -6.63934 2.10153 0
M  V30 2099 H 199.447 -7.14229 2.60349 0
M  V30 2100 N 201.022 0.148545 -1.56898 0
M  V30 2101 C 201.954 1.20852 -1.9475 0
M  V30 2102 C 202.967 1.39265 -0.843152 0
M  V30 2103 O 204.156 1.38864 -1.12156 0
M  V30 2104 C 201.256 2.57362 -2.20495 0
M  V30 2105 C 200.429 2.59947 -3.51776 0
M  V30 2106 C 199.488 3.77984 -3.6608 0
M  V30 2107 O 198.514 3.62929 -4.38487 0
M  V30 2108 N 199.716 4.95375 -3.02629 0
M  V30 2109 H 202.481 0.886804 -2.86279 0
M  V30 2110 H 200.042 0.338121 -1.5833 0
M  V30 2111 H 202.034 3.34833 -2.27307 0
M  V30 2112 H 200.604 2.81832 -1.35238 0
M  V30 2113 H 199.824 1.68403 -3.56419 0
M  V30 2114 H 201.112 2.58704 -4.38121 0
M  V30 2115 H 200.51 5.10509 -2.43715 0
M  V30 2116 H 199.067 5.70627 -3.15004 0
M  V30 2117 N 202.5 1.5196 0.417844 0
M  V30 2118 C 203.463 1.74065 1.49111 0
M  V30 2119 C 204.463 0.610537 1.48758 0
M  V30 2120 O 205.653 0.87832 1.50437 0
M  V30 2121 C 202.785 1.81502 2.88565 0
M  V30 2122 H 203.978 2.69869 1.30807 0
M  V30 2123 H 201.531 1.42244 0.647785 0
M  V30 2124 H 202.266 0.875813 3.1225 0
M  V30 2125 H 202.051 2.63651 2.90225 0
M  V30 2126 H 203.541 2.00376 3.66387 0
M  V30 2127 N 203.978 -0.674533 1.42435 0
M  V30 2128 C 205.203 -1.46784 1.46524 0
M  V30 2129 C 205.628 -1.87938 0.078066 0
M  V30 2130 O 204.986 -1.56014 -0.92354 0
M  V30 2131 C 205.034 -2.69307 2.39805 0
M  V30 2132 O 204.138 -3.67587 1.86959 0
M  V30 2133 H 203.479 -0.440959 0.496439 0
M  V30 2134 H 206.009 -0.827326 1.87127 0
M  V30 2135 H 206.019 -3.17374 2.56393 0
M  V30 2136 H 204.694 -2.38692 3.40586 0
M  V30 2137 H 203.271 -3.2662 1.79927 0
M  V30 2138 N 205.456 -1.28612 -0.910864 0
M  V30 2139 C 206.419 -1.12803 -1.9952 0
M  V30 2140 C 207.419 -0.0668264 -1.60661 0
M  V30 2141 O 208.609 -0.312847 -1.71368 0
M  V30 2142 C 205.741 -0.72254 -3.33155 0
M  V30 2143 H 206.934 -2.09109 -2.14973 0
M  V30 2144 H 204.487 -1.11639 -1.09391 0
M  V30 2145 H 205.222 0.241152 -3.23402 0
M  V30 2146 H 205.007 -1.48916 -3.62721 0
M  V30 2147 H 206.497 -0.634666 -4.12749 0
M  V30 2148 N 206.934 1.1197 -1.10907 0
M  V30 2149 C 208.162 1.87402 -0.876824 0
M  V30 2150 C 208.577 1.79894 0.573025 0
M  V30 2151 O 207.934 1.17629 1.39534 0
M  V30 2152 C 207.985 3.36428 -1.32282 0
M  V30 2153 O 207.706 3.43765 -2.71582 0
M  V30 2154 C 209.207 4.28783 -1.12518 0
M  V30 2155 H 206.427 0.592793 -0.314384 0
M  V30 2156 H 208.971 1.41649 -1.47499 0
M  V30 2157 H 207.126 3.79706 -0.768229 0
M  V30 2158 H 207.54 4.3652 -2.90776 0
M  V30 2159 H 209.014 5.31613 -1.48633 0
M  V30 2160 H 209.491 4.39153 -0.0642394 0
M  V30 2161 H 210.097 3.91291 -1.66648 0
M  V30 2162 N 208.412 0.89855 1.29475 0
M  V30 2163 C 209.342 0.39201 2.30186 0
M  V30 2164 C 210.323 -0.532359 1.61555 0
M  V30 2165 O 211.508 -0.443331 1.89072 0
M  V30 2166 C 208.638 -0.382353 3.45189 0
M  V30 2167 C 207.592 0.451483 4.25612 0
M  V30 2168 C 206.918 -0.450307 5.328 0
M  V30 2169 C 208.218 1.70079 4.93832 0
M  V30 2170 H 209.912 1.23362 2.72804 0
M  V30 2171 H 207.458 0.594638 1.31149 0
M  V30 2172 H 209.411 -0.747451 4.14718 0
M  V30 2173 H 208.135 -1.25774 3.01411 0
M  V30 2174 H 206.794 0.798897 3.57789 0
M  V30 2175 H 206.442 -1.32379 4.85268 0
M  V30 2176 H 206.142 0.103902 5.87508 0
M  V30 2177 H 207.666 -0.811623 6.05182 0
M  V30 2178 H 209.08 1.40549 5.55805 0
M  V30 2179 H 207.477 2.19623 5.58467 0
M  V30 2180 H 208.547 2.43744 4.19186 0
M  V30 2181 N 209.89 -1.43072 0.660911 0
M  V30 2182 C 211.167 -1.95307 0.107017 0
M  V30 2183 C 211.547 -1.60192 -1.37484 0
M  V30 2184 O 210.895 -0.890949 -2.10415 0
M  V30 2185 C 211.105 -3.47124 0.361402 0
M  V30 2186 C 212.453 -4.23738 0.270455 0
M  V30 2187 O 213.477 -3.54981 0.294382 0
M  V30 2188 O 212.336 -5.46131 0.200737 0
M  V30 2189 H 209.43 -0.826984 -0.00517729 0
M  V30 2190 H 211.976 -1.52972 0.734681 0
M  V30 2191 H 210.748 -3.65837 1.38848 0
M  V30 2192 H 210.371 -3.96475 -0.298953 0
M  V30 2193 N 211.368 -0.403325 -1.52352 0
M  V30 2194 C 212.596 0.174012 -2.06167 0
M  V30 2195 C 213.011 1.39347 -1.27388 0
M  V30 2196 O 212.368 1.79597 -0.324201 0
M  V30 2197 C 212.419 0.530223 -3.5759 0
M  V30 2198 O 212.14 -0.640806 -4.33388 0
M  V30 2199 C 213.641 1.16192 -4.27802 0
M  V30 2200 H 210.861 0.0229464 -0.670608 0
M  V30 2201 H 213.405 -0.572604 -1.9632 0
M  V30 2202 H 211.56 1.22673 -3.67464 0
M  V30 2203 H 211.974 -0.344851 -5.23365 0
M  V30 2204 H 213.448 1.36141 -5.34948 0
M  V30 2205 H 213.925 2.13335 -3.83907 0
M  V30 2206 H 214.531 0.505775 -4.22282 0
M  V30 2207 N 212.846 1.57033 -0.133567 0
M  V30 2208 C 213.776 2.1909 0.807567 0
M  V30 2209 C 214.757 1.13517 1.26681 0
M  V30 2210 O 215.942 1.41809 1.32679 0
M  V30 2211 C 213.072 2.80188 2.05212 0
M  V30 2212 C 212.026 3.91471 1.73015 0
M  V30 2213 C 211.352 4.39443 3.04622 0
M  V30 2214 C 212.652 5.12886 0.987168 0
M  V30 2215 H 214.346 2.97988 0.290403 0
M  V30 2216 H 211.892 1.43335 0.138239 0
M  V30 2217 H 213.845 3.22264 2.71521 0
M  V30 2218 H 212.569 1.98601 2.59278 0
M  V30 2219 H 211.228 3.49993 1.0909 0
M  V30 2220 H 210.876 3.54695 3.56651 0
M  V30 2221 H 210.576 5.14495 2.83847 0
M  V30 2222 H 212.1 4.8418 3.72024 0
M  V30 2223 H 213.514 5.51891 1.55208 0
M  V30 2224 H 211.911 5.93615 0.87985 0
M  V30 2225 H 212.981 4.84894 -0.0235286 0
M  V30 2226 N 214.325 -0.140222 1.56975 0
M  V30 2227 C 215.571 -0.852949 1.83991 0
M  V30 2228 C 215.904 -1.80512 0.716187 0
M  V30 2229 O 215.179 -1.92479 -0.279681 0
M  V30 2230 C 215.462 -1.6215 3.21527 0
M  V30 2231 C 215.315 -0.690363 4.4447 0
M  V30 2232 C 216.634 -2.58247 3.56366 0
M  V30 2233 H 213.753 -0.308634 0.669264 0
M  V30 2234 H 216.395 -0.117898 1.89634 0
M  V30 2235 H 214.545 -2.24812 3.16847 0
M  V30 2236 H 216.217 -0.0742264 4.6124 0
M  V30 2237 H 214.46 -0.000396433 4.338 0
M  V30 2238 H 215.131 -1.2643 5.37326 0
M  V30 2239 H 217.607 -2.05701 3.61699 0
M  V30 2240 H 216.483 -3.09067 4.53617 0
M  V30 2241 H 216.744 -3.39923 2.82674 0
M  V30 2242 N 215.803 -1.52179 -0.40978 0
M  V30 2243 C 216.733 -1.78435 -1.5061 0
M  V30 2244 C 217.714 -0.635295 -1.57791 0
M  V30 2245 O 218.899 -0.880823 -1.73076 0
M  V30 2246 C 216.029 -1.93444 -2.88439 0
M  V30 2247 C 214.983 -3.09038 -2.96108 0
M  V30 2248 C 214.309 -3.09268 -4.36185 0
M  V30 2249 C 215.609 -4.48508 -2.67652 0
M  V30 2250 H 217.303 -2.70237 -1.28889 0
M  V30 2251 H 214.849 -1.30036 -0.618605 0
M  V30 2252 H 216.802 -2.10394 -3.65119 0
M  V30 2253 H 215.526 -0.983129 -3.11452 0
M  V30 2254 H 214.185 -2.91837 -2.21872 0
M  V30 2255 H 213.833 -2.11861 -4.56206 0
M  V30 2256 H 213.533 -3.86907 -4.42241 0
M  V30 2257 H 215.057 -3.28348 -5.14801 0
M  V30 2258 H 216.471 -4.65918 -3.34056 0
M  V30 2259 H 214.868 -5.28059 -2.85085 0
M  V30 2260 H 215.938 -4.56649 -1.63095 0
M  V30 2261 N 217.281 0.66697 -1.42791 0
M  V30 2262 C 218.228 1.7803 -1.4688 0
M  V30 2263 C 219.198 1.6299 -0.319919 0
M  V30 2264 O 220.383 1.83432 -0.525118 0
M  V30 2265 C 217.523 3.1611 -1.38451 0
M  V30 2266 C 216.636 3.42381 -2.63437 0
M  V30 2267 C 215.771 4.70232 -2.47094 0
M  V30 2268 C 214.81 4.89564 -3.67415 0
M  V30 2269 N 213.947 6.08661 -3.49966 0
M  V30 2270 H 218.787 1.7387 -2.42019 0
M  V30 2271 H 216.324 0.84868 -1.20149 0
M  V30 2272 H 218.282 3.95914 -1.31561 0
M  V30 2273 H 216.912 3.19374 -0.469033 0
M  V30 2274 H 215.964 2.56774 -2.80662 0
M  V30 2275 H 217.276 3.52557 -3.52853 0
M  V30 2276 H 216.43 5.5814 -2.37834 0
M  V30 2277 H 215.169 4.62353 -1.5518 0
M  V30 2278 H 214.174 4.00096 -3.77099 0
M  V30 2279 H 215.399 4.99282 -4.6032 0
M  V30 2280 H 213.345 6.0194 -2.60776 0
M  V30 2281 H 213.262 6.19733 -4.32975 0
M  V30 2282 H 214.53 6.99226 -3.44532 0
M  V30 2283 N 218.759 1.29093 0.90403 0
M  V30 2284 C 219.669 1.15727 2.0407 0
M  V30 2285 C 220.685 0.0815308 1.73809 0
M  V30 2286 O 221.861 0.292749 1.99261 0
M  V30 2287 C 218.926 0.830424 3.36608 0
M  V30 2288 C 217.987 1.98955 3.80415 0
M  V30 2289 C 217.22 1.6782 5.06628 0
M  V30 2290 O 217.443 0.597105 5.67266 0
M  V30 2291 O 216.377 2.52486 5.46383 0
M  V30 2292 H 220.203 2.11171 2.18267 0
M  V30 2293 H 217.788 1.08504 1.027 0
M  V30 2294 H 219.67 0.662521 4.16159 0
M  V30 2295 H 218.345 -0.0942678 3.23563 0
M  V30 2296 H 217.252 2.21267 3.01648 0
M  V30 2297 H 218.585 2.89529 3.98037 0
M  V30 2298 N 220.237 -1.11381 1.11499 0
M  V30 2299 C 221.185 -2.19522 0.768956 0
M  V30 2300 C 222.179 -1.67693 -0.239857 0
M  V30 2301 O 223.385 -1.79727 -0.0990755 0
M  V30 2302 H 219.76 -0.715711 0.230786 0
M  V30 2303 H 221.731 -2.45954 1.68964 0
M  V30 2304 C 220.48 -3.46945 0.229073 0
M  V30 2305 H 219.803 -3.8718 0.996596 0
M  V30 2306 H 221.243 -4.23993 0.0251441 0
M  V30 2307 C 219.702 -3.2042 -1.04079 0
M  V30 2308 O 220.232 -3.41178 -2.12038 0
M  V30 2309 N 218.438 -2.74151 -0.963823 0
M  V30 2310 H 217.985 -2.57459 -0.0851722 0
M  V30 2311 H 217.943 -2.56781 -1.81414 0
M  V30 2312 N 221.715 -0.905404 -1.28997 0
M  V30 2313 C 222.647 -0.344748 -2.26592 0
M  V30 2314 C 223.66 0.512135 -1.54535 0
M  V30 2315 O 224.849 0.328368 -1.75454 0
M  V30 2316 C 221.949 0.526587 -3.34784 0
M  V30 2317 C 221.122 -0.305871 -4.36329 0
M  V30 2318 C 220.181 0.499209 -5.23827 0
M  V30 2319 O 219.207 -0.0853004 -5.69136 0
M  V30 2320 N 220.409 1.80408 -5.51755 0
M  V30 2321 H 223.174 -1.18359 -2.75338 0
M  V30 2322 H 220.735 -0.770481 -1.42391 0
M  V30 2323 H 222.727 1.07171 -3.90252 0
M  V30 2324 H 221.297 1.26613 -2.85811 0
M  V30 2325 H 220.517 -1.0324 -3.80441 0
M  V30 2326 H 221.805 -0.875773 -5.01206 0
M  V30 2327 H 221.203 2.3016 -5.16762 0
M  V30 2328 H 219.76 2.29621 -6.10014 0
M  V30 2329 N 223.193 1.4272 -0.668489 0
M  V30 2330 C 224.123 2.335 -0.000100175 0
M  V30 2331 C 225.104 1.50328 0.795964 0
M  V30 2332 O 226.289 1.78949 0.754385 0
M  V30 2333 C 223.419 3.33874 0.956302 0
M  V30 2334 C 222.373 4.27152 0.269278 0
M  V30 2335 C 221.699 5.17684 1.33818 0
M  V30 2336 C 222.999 5.15373 -0.847805 0
M  V30 2337 H 224.693 2.89639 -0.758244 0
M  V30 2338 H 222.239 1.39269 -0.366079 0
M  V30 2339 H 224.192 3.9629 1.43292 0
M  V30 2340 H 222.916 2.76025 1.74579 0
M  V30 2341 H 221.575 3.66123 -0.187042 0
M  V30 2342 H 221.223 4.56165 2.1195 0
M  V30 2343 H 220.923 5.80918 0.883659 0
M  V30 2344 H 222.447 5.82974 1.81586 0
M  V30 2345 H 223.861 5.7151 -0.452681 0
M  V30 2346 H 222.258 5.87407 -1.22773 0
M  V30 2347 H 223.328 4.5415 -1.69929 0
M  V30 2348 N 224.671 0.411399 1.52136 0
M  V30 2349 C 225.581 -0.419774 2.30814 0
M  V30 2350 C 226.597 -1.0515 1.38634 0
M  V30 2351 O 227.773 -1.05252 1.71709 0
M  V30 2352 C 224.838 -1.52019 3.11594 0
M  V30 2353 C 223.899 -0.91129 4.19516 0
M  V30 2354 C 223.132 -1.95927 4.96436 0
M  V30 2355 O 223.355 -3.17775 4.73683 0
M  V30 2356 O 222.289 -1.56423 5.81219 0
M  V30 2357 H 226.115 0.221805 3.02889 0
M  V30 2358 H 223.7 0.174547 1.48377 0
M  V30 2359 H 225.582 -2.15898 3.61892 0
M  V30 2360 H 224.257 -2.14633 2.42311 0
M  V30 2361 H 223.164 -0.235157 3.7336 0
M  V30 2362 H 224.497 -0.32904 4.91099 0
M  V30 2363 N 226.149 -1.5696 0.141893 0
M  V30 2364 C 227.395 -1.9625 -0.511248 0
M  V30 2365 C 227.728 -1.02654 -1.64851 0
M  V30 2366 O 227.003 -0.0679676 -1.94381 0
M  V30 2367 C 227.286 -3.45285 -1.02227 0
M  V30 2368 C 227.139 -4.49658 0.113138 0
M  V30 2369 C 228.458 -3.96698 -1.90574 0
M  V30 2370 H 225.577 -0.713567 -0.184367 0
M  V30 2371 H 228.219 -1.88698 0.222087 0
M  V30 2372 H 226.369 -3.51852 -1.64719 0
M  V30 2373 H 228.041 -4.55174 0.749302 0
M  V30 2374 H 226.284 -4.26857 0.773026 0
M  V30 2375 H 226.955 -5.51258 -0.286053 0
M  V30 2376 H 229.431 -3.92578 -1.37918 0
M  V30 2377 H 228.307 -5.01453 -2.2324 0
M  V30 2378 H 228.568 -3.3875 -2.84079 0
M  V30 2379 N 227.627 0.131896 -1.57047 0
M  V30 2380 C 228.557 1.16384 -2.02428 0
M  V30 2381 C 229.538 1.43936 -0.90644 0
M  V30 2382 O 230.723 1.54599 -1.17528 0
M  V30 2383 C 227.853 2.49328 -2.4177 0
M  V30 2384 C 226.807 2.36266 -3.56879 0
M  V30 2385 C 226.133 3.74057 -3.8208 0
M  V30 2386 C 227.433 1.834 -4.89042 0
M  V30 2387 H 229.127 0.786433 -2.88887 0
M  V30 2388 H 226.673 0.376855 -1.38981 0
M  V30 2389 H 228.626 3.21759 -2.7212 0
M  V30 2390 H 227.35 2.88934 -1.52266 0
M  V30 2391 H 226.009 1.66286 -3.26718 0
M  V30 2392 H 225.657 4.11125 -2.89803 0
M  V30 2393 H 225.357 3.66174 -4.59554 0
M  V30 2394 H 226.881 4.48012 -4.1487 0
M  V30 2395 H 228.295 2.45636 -5.18011 0
M  V30 2396 H 226.692 1.8637 -5.70426 0
M  V30 2397 H 227.762 0.790662 -4.7841 0
M  V30 2398 N 229.106 1.52395 0.401703 0
M  V30 2399 C 230.016 1.7917 1.51444 0
M  V30 2400 C 231.032 0.677691 1.6026 0
M  V30 2401 O 232.208 0.963909 1.76835 0
M  V30 2402 C 229.273 1.94347 2.87107 0
M  V30 2403 C 228.334 3.18257 2.88116 0
M  V30 2404 C 227.567 3.32701 4.17308 0
M  V30 2405 O 227.79 2.52238 5.11598 0
M  V30 2406 O 226.724 4.25891 4.25324 0
M  V30 2407 H 230.55 2.73633 1.31752 0
M  V30 2408 H 228.135 1.3733 0.588296 0
M  V30 2409 H 230.017 2.06109 3.67555 0
M  V30 2410 H 228.692 1.03073 3.06851 0
M  V30 2411 H 227.599 3.11947 2.06494 0
M  V30 2412 H 228.932 4.09336 2.73322 0
M  V30 2413 N 230.584 -0.659388 1.43143 0
M  V30 2414 C 231.83 -1.42145 1.44647 0
M  V30 2415 C 232.163 -1.9408 0.0681907 0
M  V30 2416 O 231.438 -1.71899 -0.910007 0
M  V30 2417 C 231.721 -2.60735 2.48373 0
M  V30 2418 C 231.574 -2.14332 3.95451 0
M  V30 2419 C 232.893 -3.62951 2.48906 0
M  V30 2420 H 230.012 -0.51552 0.526696 0
M  V30 2421 H 232.654 -0.748069 1.74654 0
M  V30 2422 H 230.804 -3.18184 2.22916 0
M  V30 2423 H 232.476 -1.61932 4.31944 0
M  V30 2424 H 230.719 -1.4576 4.08578 0
M  V30 2425 H 231.39 -2.99583 4.63631 0
M  V30 2426 H 233.866 -3.1525 2.71582 0
M  V30 2427 H 232.742 -4.43487 3.23435 0
M  V30 2428 H 233.003 -4.15126 1.52061 0
M  V30 2429 N 232.062 -1.29571 -0.897171 0
M  V30 2430 C 233.287 -1.20705 -1.68656 0
M  V30 2431 C 233.712 0.228582 -1.86706 0
M  V30 2432 O 233.07 1.16494 -1.3892 0
M  V30 2433 C 233.118 -1.9282 -3.04717 0
M  V30 2434 O 232.222 -1.24697 -3.93096 0
M  V30 2435 H 231.563 -0.418126 -0.515816 0
M  V30 2436 H 234.093 -1.71183 -1.12061 0
M  V30 2437 H 234.103 -2.01372 -3.54843 0
M  V30 2438 H 232.778 -2.97239 -2.90899 0
M  V30 2439 H 231.355 -1.2442 -3.51531 0
M  V30 2440 N 233.54 1.10788 -1.12088 0
M  V30 2441 C 234.786 1.8313 -0.885148 0
M  V30 2442 C 235.141 1.8336 0.582839 0
M  V30 2443 O 234.434 1.28062 1.42516 0
M  V30 2444 C 234.628 3.29294 -1.38926 0
M  V30 2445 C 234.457 3.43302 -2.90472 0
M  V30 2446 C 233.227 3.55928 -3.58669 0
M  V30 2447 C 235.425 3.37014 -3.88492 0
M  V30 2448 N 233.407 3.58475 -4.98366 0
M  V30 2449 C 234.778 3.46263 -5.14298 0
M  V30 2450 C 236.833 3.20589 -3.80955 0
M  V30 2451 C 235.536 3.4078 -6.33452 0
M  V30 2452 C 237.562 3.16427 -4.99628 0
M  V30 2453 C 236.924 3.26253 -6.2429 0
M  V30 2454 H 233.023 0.685054 -0.377128 0
M  V30 2455 H 235.607 1.3251 -1.4265 0
M  V30 2456 H 233.778 3.78416 -0.874999 0
M  V30 2457 H 235.51 3.89578 -1.09596 0
M  V30 2458 H 232.265 3.58779 -3.09151 0
M  V30 2459 H 232.689 3.6337 -5.71219 0
M  V30 2460 H 237.331 3.11873 -2.85474 0
M  V30 2461 H 235.049 3.48263 -7.29204 0
M  V30 2462 H 238.635 3.04874 -4.95523 0
M  V30 2463 H 237.515 3.2303 -7.14578 0
M  V30 2464 N 235.018 0.912232 1.28515 0
M  V30 2465 C 235.948 0.416403 2.29757 0
M  V30 2466 C 236.929 -0.515194 1.6211 0
M  V30 2467 O 238.114 -0.423253 1.89532 0
M  V30 2468 C 235.244 -0.34572 3.45575 0
M  V30 2469 C 234.198 0.496599 4.25109 0
M  V30 2470 C 233.524 -0.393771 5.33248 0
M  V30 2471 C 234.824 1.75307 4.92001 0
M  V30 2472 H 236.518 1.26249 2.7148 0
M  V30 2473 H 234.064 0.608515 1.30511 0
M  V30 2474 H 236.017 -0.703422 4.15488 0
M  V30 2475 H 234.741 -1.2257 3.02728 0
M  V30 2476 H 233.4 0.8368 3.56922 0
M  V30 2477 H 233.048 -1.27225 4.86644 0
M  V30 2478 H 232.748 0.166209 5.87365 0
M  V30 2479 H 234.272 -0.747389 6.06009 0
M  V30 2480 H 235.686 1.46437 5.54283 0
M  V30 2481 H 234.083 2.25534 5.56106 0
M  V30 2482 H 235.153 2.48176 4.16577 0
M  V30 2483 N 236.496 -1.42363 0.676048 0
M  V30 2484 C 237.446 -2.27987 -0.0242903 0
M  V30 2485 C 238.43 -1.41153 -0.772319 0
M  V30 2486 O 239.622 -1.64592 -0.651025 0
M  V30 2487 C 236.751 -3.29195 -0.973953 0
M  V30 2488 C 235.837 -4.23512 -0.223202 0
M  V30 2489 N 236.228 -4.99865 0.772589 0
M  V30 2490 C 234.526 -4.43606 -0.461469 0
M  V30 2491 C 235.227 -5.68757 1.22027 0
M  V30 2492 N 234.203 -5.40811 0.549975 0
M  V30 2493 H 238.005 -2.84445 0.73949 0
M  V30 2494 H 235.519 -1.54341 0.50522 0
M  V30 2495 H 237.516 -3.89339 -1.49067 0
M  V30 2496 H 236.176 -2.74298 -1.73755 0
M  V30 2497 H 237.187 -5.04921 1.15217 0
M  V30 2498 H 233.864 -3.99749 -1.20446 0
M  V30 2499 H 235.254 -6.40007 2.0455 0
M  V30 2500 N 237.974 -0.419461 -1.51915 0
M  V30 2501 C 239.222 0.152637 -2.01523 0
M  V30 2502 C 239.543 1.44762 -1.30649 0
M  V30 2503 O 238.813 1.90997 -0.435535 0
M  V30 2504 H 237.393 0.0593966 -0.744635 0
M  V30 2505 H 240.055 -0.558073 -1.86739 0
M  V30 2506 H 239.151 0.341369 -3.10227 0
M  V30 2507 N 239.452 1.56882 -0.150215 0
M  V30 2508 C 240.382 2.19935 0.784284 0
M  V30 2509 C 241.363 1.14854 1.25469 0
M  V30 2510 O 242.548 1.43209 1.31168 0
M  V30 2511 C 239.678 2.82349 2.02229 0
M  V30 2512 C 238.632 3.93285 1.68853 0
M  V30 2513 C 237.958 4.42649 2.99944 0
M  V30 2514 C 239.258 5.13904 0.932714 0
M  V30 2515 H 240.952 2.9828 0.258781 0
M  V30 2516 H 238.498 1.43473 0.123029 0
M  V30 2517 H 240.451 3.25126 2.68088 0
M  V30 2518 H 239.175 2.0134 2.57157 0
M  V30 2519 H 237.834 3.5113 1.05371 0
M  V30 2520 H 237.482 3.58458 3.52869 0
M  V30 2521 H 237.182 5.17476 2.78374 0
M  V30 2522 H 238.706 4.88099 3.66868 0
M  V30 2523 H 240.12 5.53506 1.49345 0
M  V30 2524 H 238.517 5.94515 0.81684 0
M  V30 2525 H 239.587 4.84842 -0.0749568 0
M  V30 2526 N 240.93 -0.123565 1.57115 0
M  V30 2527 C 241.877 -1.15177 2.00007 0
M  V30 2528 C 242.847 -1.41403 0.871454 0
M  V30 2529 O 244.032 -1.53346 1.13533 0
M  V30 2530 C 241.172 -2.47436 2.40561 0
M  V30 2531 C 240.285 -2.28184 3.66819 0
M  V30 2532 C 239.42 -3.53641 3.96373 0
M  V30 2533 C 238.459 -3.29528 5.15827 0
M  V30 2534 N 237.596 -4.47175 5.41275 0
M  V30 2535 H 242.436 -0.779008 2.87638 0
M  V30 2536 H 239.973 -0.373166 1.42288 0
M  V30 2537 H 241.931 -3.24584 2.62109 0
M  V30 2538 H 240.561 -2.82614 1.55978 0
M  V30 2539 H 239.613 -1.41976 3.52912 0
M  V30 2540 H 240.925 -2.0634 4.5412 0
M  V30 2541 H 240.079 -4.39209 4.18545 0
M  V30 2542 H 238.818 -3.78512 3.07538 0
M  V30 2543 H 237.823 -2.42349 4.93505 0
M  V30 2544 H 239.048 -3.06031 6.06236 0
M  V30 2545 H 236.994 -4.72175 4.55397 0
M  V30 2546 H 236.911 -4.28419 6.22891 0
M  V30 2547 H 238.179 -5.3389 5.67963 0
M  V30 2548 N 242.408 -1.52605 -0.393616 0
M  V30 2549 C 243.371 -1.76415 -1.46323 0
M  V30 2550 C 244.371 -0.634126 -1.47768 0
M  V30 2551 O 245.561 -0.902142 -1.4902 0
M  V30 2552 C 242.693 -1.8607 -2.85641 0
M  V30 2553 H 243.886 -2.71916 -1.26498 0
M  V30 2554 H 241.439 -1.43257 -0.625073 0
M  V30 2555 H 242.174 -0.925378 -3.10817 0
M  V30 2556 H 241.959 -2.68235 -2.85993 0
M  V30 2557 H 243.449 -2.06179 -3.63153 0
M  V30 2558 N 243.887 0.651787 -1.4349 0
M  V30 2559 C 244.817 1.77621 -1.51569 0
M  V30 2560 C 245.798 1.66022 -0.370253 0
M  V30 2561 O 246.983 1.85095 -0.587658 0
M  V30 2562 C 244.113 3.16056 -1.43966 0
M  V30 2563 C 243.067 3.4242 -2.56774 0
M  V30 2564 C 242.393 4.8067 -2.34223 0
M  V30 2565 C 243.693 3.37023 -3.99015 0
M  V30 2566 H 245.387 1.71117 -2.45681 0
M  V30 2567 H 242.933 0.821825 -1.18246 0
M  V30 2568 H 244.886 3.94472 -1.48221 0
M  V30 2569 H 243.61 3.23293 -0.463586 0
M  V30 2570 H 242.269 2.66375 -2.51873 0
M  V30 2571 H 241.917 4.84585 -1.34856 0
M  V30 2572 H 241.617 4.9927 -3.09844 0
M  V30 2573 H 243.141 5.61342 -2.40265 0
M  V30 2574 H 244.555 4.05374 -4.05395 0
M  V30 2575 H 242.952 3.67159 -4.74673 0
M  V30 2576 H 244.022 2.3518 -4.2405 0
M  V30 2577 N 245.365 1.30045 0.890287 0
M  V30 2578 C 246.613 1.18327 1.63839 0
M  V30 2579 C 246.934 -0.263455 1.93212 0
M  V30 2580 O 246.204 -1.17856 1.56482 0
M  V30 2581 H 244.784 0.434933 0.607324 0
M  V30 2582 H 247.446 1.631 1.06698 0
M  V30 2583 H 246.542 1.74024 2.59079 0
M  V30 2584 N 246.843 -1.10192 1.12674 0
M  V30 2585 C 247.793 -2.14754 0.765801 0
M  V30 2586 C 248.777 -1.59154 -0.236409 0
M  V30 2587 O 249.969 -1.76951 -0.0415261 0
M  V30 2588 C 247.098 -3.42563 0.224827 0
M  V30 2589 C 246.184 -4.05091 1.25548 0
M  V30 2590 N 246.575 -4.42287 2.4539 0
M  V30 2591 C 244.873 -4.32186 1.10142 0
M  V30 2592 C 245.574 -4.91441 3.11224 0
M  V30 2593 N 244.55 -4.88405 2.38666 0
M  V30 2594 H 248.352 -2.41309 1.67772 0
M  V30 2595 H 245.866 -1.27339 1.00789 0
M  V30 2596 H 247.863 -4.16868 -0.0519578 0
M  V30 2597 H 246.523 -3.17467 -0.681515 0
M  V30 2598 H 247.534 -4.33902 2.82754 0
M  V30 2599 H 244.211 -4.16735 0.252587 0
M  V30 2600 H 245.601 -5.29749 4.13298 0
M  V30 2601 N 248.321 -0.919034 -1.28029 0
M  V30 2602 C 249.251 -0.428581 -2.29533 0
M  V30 2603 C 250.232 0.50659 -1.62381 0
M  V30 2604 O 251.417 0.413195 -1.89753 0
M  V30 2605 C 248.547 0.327388 -3.45753 0
M  V30 2606 C 247.501 -0.519137 -4.2484 0
M  V30 2607 C 246.827 0.365486 -5.33449 0
M  V30 2608 C 248.127 -1.77914 -4.91064 0
M  V30 2609 H 249.821 -1.27687 -2.70807 0
M  V30 2610 H 247.367 -0.615428 -1.30186 0
M  V30 2611 H 249.32 0.681378 -4.15855 0
M  V30 2612 H 248.044 1.20963 -3.03374 0
M  V30 2613 H 246.703 -0.855717 -3.56473 0
M  V30 2614 H 246.351 1.24642 -4.87312 0
M  V30 2615 H 246.051 -0.197356 -5.87268 0
M  V30 2616 H 247.575 0.715241 -6.06396 0
M  V30 2617 H 248.989 -1.49374 -5.53498 0
M  V30 2618 H 247.386 -2.2848 -5.54903 0
M  V30 2619 H 248.456 -2.50382 -4.15255 0
M  V30 2620 N 249.799 1.42003 -0.683588 0
M  V30 2621 C 251.076 1.95112 -0.138075 0
M  V30 2622 C 251.456 1.62359 1.34918 0
M  V30 2623 O 250.804 0.924311 2.08971 0
M  V30 2624 C 251.014 3.46505 -0.416581 0
M  V30 2625 C 252.362 4.23254 -0.337834 0
M  V30 2626 O 253.386 3.54468 -0.35082 0
M  V30 2627 O 252.245 5.45743 -0.287596 0
M  V30 2628 H 249.339 0.826961 -0.00797996 0
M  V30 2629 H 251.885 1.51784 -0.758924 0
M  V30 2630 H 250.657 3.63582 -1.4465 0
M  V30 2631 H 250.28 3.969 0.235839 0
M  V30 2632 N 251.277 0.427512 1.51691 0
M  V30 2633 C 252.207 -0.3796 2.30394 0
M  V30 2634 C 253.188 -1.02982 1.35384 0
M  V30 2635 O 254.373 -1.03534 1.643 0
M  V30 2636 C 251.503 -1.48649 3.1388 0
M  V30 2637 C 250.457 -0.960294 4.17088 0
M  V30 2638 C 249.783 -2.16219 4.89033 0
M  V30 2639 C 251.083 -0.00153679 5.223 0
M  V30 2640 H 252.777 0.277164 2.98114 0
M  V30 2641 H 250.323 0.134739 1.43368 0
M  V30 2642 H 252.276 -2.05826 3.67714 0
M  V30 2643 H 251 -2.1714 2.43962 0
M  V30 2644 H 249.659 -0.410806 3.64291 0
M  V30 2645 H 249.307 -2.83307 4.15628 0
M  V30 2646 H 249.007 -1.81654 5.58816 0
M  V30 2647 H 250.531 -2.73968 5.45687 0
M  V30 2648 H 251.945 -0.482687 5.71264 0
M  V30 2649 H 250.342 0.256199 5.99553 0
M  V30 2650 H 251.412 0.938174 4.75738 0
M  V30 2651 N 252.755 -1.56801 0.158532 0
M  V30 2652 C 253.98 -2.01295 -0.499516 0
M  V30 2653 C 254.405 -1.03799 -1.56867 0
M  V30 2654 O 253.763 -0.0155162 -1.81293 0
M  V30 2655 C 253.811 -3.44469 -1.06647 0
M  V30 2656 O 252.915 -3.50012 -2.18095 0
M  V30 2657 H 252.256 -0.652884 -0.12099 0
M  V30 2658 H 254.786 -2.02958 0.258661 0
M  V30 2659 H 254.796 -3.8351 -1.39227 0
M  V30 2660 H 253.471 -4.14932 -0.283581 0
M  V30 2661 H 252.048 -3.22822 -1.86656 0
M  V30 2662 N 254.233 0.115231 -1.57178 0
M  V30 2663 C 255.481 0.820727 -1.84685 0
M  V30 2664 C 255.802 1.80237 -0.744279 0
M  V30 2665 O 255.072 1.94529 0.231375 0
M  V30 2666 H 253.652 0.306084 -0.681411 0
M  V30 2667 H 256.314 0.101656 -1.94635 0
M  V30 2668 H 255.41 1.36366 -2.80733 0
M  V30 2669 N 255.711 1.52812 0.385517 0
M  V30 2670 C 256.659 1.78482 1.49155 0
M  V30 2671 C 257.653 0.652914 1.56312 0
M  V30 2672 O 258.859 0.835464 1.59436 0
M  V30 2673 H 255.234 0.5648 0.496493 0
M  V30 2674 H 257.205 2.71095 1.24699 0
M  V30 2675 C 255.954 1.97378 2.86247 0
M  V30 2676 H 255.277 2.83907 2.81491 0
M  V30 2677 H 256.717 2.19327 3.62866 0
M  V30 2678 C 255.176 0.74728 3.28508 0
M  V30 2679 O 255.706 -0.0736232 4.01633 0
M  V30 2680 N 253.912 0.576396 2.84826 0
M  V30 2681 H 253.459 1.24555 2.25486 0
M  V30 2682 H 253.417 -0.24288 3.1346 0
M  V30 2683 N 257.189 -0.644168 1.43834 0
M  V30 2684 C 258.605 -0.960875 1.27434 0
M  V30 2685 C 258.805 -2.00499 0.200618 0
M  V30 2686 O 257.861 -2.49018 -0.417906 0
M  V30 2687 C 259.174 -1.43653 2.64167 0
M  V30 2688 C 260.722 -1.55271 2.71772 0
M  V30 2689 C 261.197 -2.06224 4.08944 0
M  V30 2690 N 262.688 -2.13513 4.11055 0
M  V30 2691 C 263.423 -2.54081 5.14033 0
M  V30 2692 N 262.919 -2.9388 6.27381 0
M  V30 2693 N 264.712 -2.54101 5.01387 0
M  V30 2694 H 256.863 0.0465779 2.12349 0
M  V30 2695 H 259.126 -0.0417638 0.94708 0
M  V30 2696 H 258.832 -0.743706 3.43747 0
M  V30 2697 H 258.706 -2.40993 2.90176 0
M  V30 2698 H 261.093 -2.23653 1.92519 0
M  V30 2699 H 261.174 -0.563395 2.49519 0
M  V30 2700 H 260.818 -1.38441 4.88668 0
M  V30 2701 H 260.748 -3.06003 4.28567 0
M  V30 2702 H 263.239 -1.85493 3.29242 0
M  V30 2703 H 263.552 -3.2361 7.01781 0
M  V30 2704 H 261.897 -2.91663 6.30839 0
M  V30 2705 H 265.088 -2.22391 4.11898 0
M  V30 2706 H 265.261 -2.85394 5.81768 0
M  V30 2707 N 258.668 -1.30515 -0.883378 0
M  V30 2708 C 259.598 -1.19607 -2.00541 0
M  V30 2709 C 260.579 -0.086346 -1.69881 0
M  V30 2710 O 261.764 -0.268654 -1.92333 0
M  V30 2711 C 258.894 -0.888758 -3.35736 0
M  V30 2712 C 257.848 -1.95659 -3.8066 0
M  V30 2713 C 257.174 -1.50224 -5.13164 0
M  V30 2714 C 258.474 -3.36788 -3.99213 0
M  V30 2715 H 260.168 -2.13476 -2.09925 0
M  V30 2716 H 257.714 -1.02775 -1.00863 0
M  V30 2717 H 259.667 -0.799094 -4.13754 0
M  V30 2718 H 258.391 0.0856125 -3.26488 0
M  V30 2719 H 257.05 -2.03591 -3.04871 0
M  V30 2720 H 256.698 -0.516092 -5.00345 0
M  V30 2721 H 256.398 -2.2165 -5.44192 0
M  V30 2722 H 257.922 -1.42639 -5.93706 0
M  V30 2723 H 259.336 -3.31605 -4.67665 0
M  V30 2724 H 257.733 -4.06314 -4.41621 0
M  V30 2725 H 258.803 -3.78561 -3.03017 0
M  V30 2726 N 260.146 1.09593 -1.13257 0
M  V30 2727 C 261.562 1.33775 -0.870423 0
M  V30 2728 C 261.762 1.95327 0.494926 0
M  V30 2729 O 260.818 2.19853 1.2418 0
M  V30 2730 C 262.131 2.25106 -1.99369 0
M  V30 2731 C 263.679 2.3862 -2.02558 0
M  V30 2732 C 264.154 3.33285 -3.14142 0
M  V30 2733 N 265.645 3.40857 -3.13641 0
M  V30 2734 C 266.38 4.14101 -3.96621 0
M  V30 2735 N 265.876 4.90157 -4.8961 0
M  V30 2736 N 267.669 4.09808 -3.84726 0
M  V30 2737 H 259.82 0.680136 -2.01216 0
M  V30 2738 H 262.083 0.362133 -0.876107 0
M  V30 2739 H 261.789 1.87103 -2.97801 0
M  V30 2740 H 261.663 3.25481 -1.90635 0
M  V30 2741 H 264.05 2.75887 -1.0474 0
M  V30 2742 H 264.131 1.38028 -2.15364 0
M  V30 2743 H 263.775 2.96741 -4.12198 0
M  V30 2744 H 263.705 4.33776 -2.98574 0
M  V30 2745 H 266.196 2.86624 -2.46282 0
M  V30 2746 H 266.509 5.4347 -5.49418 0
M  V30 2747 H 264.854 4.89251 -4.93617 0
M  V30 2748 H 268.045 3.4949 -3.11408 0
M  V30 2749 H 268.218 4.66629 -4.49623 0
M  V30 2750 N 261.624 0.925811 1.2754 0
M  V30 2751 C 262.571 0.422045 2.26908 0
M  V30 2752 C 263.541 -0.510029 1.58076 0
M  V30 2753 O 264.726 -0.429599 1.85901 0
M  V30 2754 C 261.866 -0.320837 3.43605 0
M  V30 2755 C 260.979 0.64513 4.27156 0
M  V30 2756 C 260.114 -0.117405 5.3107 0
M  V30 2757 C 259.153 0.841391 6.0629 0
M  V30 2758 N 258.29 0.111604 7.02011 0
M  V30 2759 H 263.13 1.27441 2.69375 0
M  V30 2760 H 260.667 0.639697 1.32462 0
M  V30 2761 H 262.625 -0.76785 4.10073 0
M  V30 2762 H 261.255 -1.13745 3.02096 0
M  V30 2763 H 260.307 1.21067 3.6062 0
M  V30 2764 H 261.619 1.37797 4.79389 0
M  V30 2765 H 260.773 -0.624422 6.03478 0
M  V30 2766 H 259.512 -0.883219 4.79636 0
M  V30 2767 H 258.517 1.35967 5.32722 0
M  V30 2768 H 259.742 1.60696 6.59813 0
M  V30 2769 H 257.688 -0.635999 6.5291 0
M  V30 2770 H 257.605 0.784044 7.51923 0
M  V30 2771 H 258.873 -0.374823 7.78598 0
M  V30 2772 N 263.102 -1.41638 0.69111 0
M  V30 2773 C 264.032 -2.3347 0.037248 0
M  V30 2774 C 265.013 -1.51575 -0.771947 0
M  V30 2775 O 266.198 -1.80126 -0.72582 0
M  V30 2776 C 263.328 -3.35354 -0.903064 0
M  V30 2777 C 262.282 -4.27526 -0.201288 0
M  V30 2778 C 261.608 -5.19747 -1.25565 0
M  V30 2779 C 262.908 -5.13959 0.929689 0
M  V30 2780 H 264.602 -2.88397 0.804227 0
M  V30 2781 H 262.148 -1.38669 0.388189 0
M  V30 2782 H 264.101 -3.98519 -1.36969 0
M  V30 2783 H 262.825 -2.78767 -1.70166 0
M  V30 2784 H 261.484 -3.65779 0.245265 0
M  V30 2785 H 261.132 -4.59479 -2.04666 0
M  V30 2786 H 260.832 -5.8225 -0.791128 0
M  V30 2787 H 262.356 -5.85789 -1.72288 0
M  V30 2788 H 263.77 -5.70718 0.543546 0
M  V30 2789 H 262.167 -5.85379 1.32103 0
M  V30 2790 H 263.237 -4.51389 1.77133 0
M  V30 2791 N 264.58 -0.43555 -1.51462 0
M  V30 2792 C 265.991 0.0279871 -1.86679 0
M  V30 2793 C 266.342 1.42104 -1.35281 0
M  V30 2794 O 265.467 2.04667 -0.702878 0
M  V30 2795 C 266.062 0.0575626 -3.38751 0
M  V30 2796 C 264.621 0.465507 -3.7351 0
M  V30 2797 C 263.768 -0.342996 -2.75171 0
M  V30 2798 H 266.719 -0.651473 -1.44712 0
M  V30 2799 H 266.74 0.867421 -3.70481 0
M  V30 2800 H 266.252 -0.956448 -3.7613 0
M  V30 2801 H 264.353 1.48519 -3.41721 0
M  V30 2802 H 264.466 0.191546 -4.78717 0
M  V30 2803 H 262.83 0.198442 -2.53926 0
M  V30 2804 H 263.613 -1.35585 -3.15391 0
M  V30 2805 N 266.058 1.56714 -0.166846 0
M  V30 2806 C 267.469 1.83378 0.350646 0
M  V30 2807 C 267.82 1.08646 1.63372 0
M  V30 2808 O 266.945 0.338058 2.13743 0
M  V30 2809 C 267.54 3.32643 0.642963 0
M  V30 2810 C 266.099 3.59818 1.10491 0
M  V30 2811 C 265.246 2.76954 0.138411 0
M  V30 2812 H 268.197 1.53803 -0.391193 0
M  V30 2813 H 268.218 3.49878 1.49551 0
M  V30 2814 H 267.73 3.87007 -0.291055 0
M  V30 2815 H 265.831 3.1086 2.05418 0
M  V30 2816 H 265.944 4.68178 1.01716 0
M  V30 2817 H 264.308 2.4666 0.634911 0
M  V30 2818 H 265.091 3.34097 -0.789549 0
M  V30 2819 N 267.536 -0.106894 1.57237 0
M  V30 2820 C 268.784 -0.810921 1.85117 0
M  V30 2821 C 269.105 -1.7984 0.753827 0
M  V30 2822 O 268.375 -1.94649 -0.221056 0
M  V30 2823 H 266.955 -0.302466 0.683025 0
M  V30 2824 H 269.617 -0.0913324 1.94686 0
M  V30 2825 H 268.713 -1.34875 2.81452 0
M  V30 2826 N 269.014 -1.53014 -0.377408 0
M  V30 2827 C 269.944 -1.81589 -1.46791 0
M  V30 2828 C 270.925 -0.668622 -1.56408 0
M  V30 2829 O 272.11 -0.917337 -1.71168 0
M  V30 2830 C 269.24 -1.99519 -2.8427 0
M  V30 2831 C 268.194 -3.15249 -2.89486 0
M  V30 2832 C 267.52 -3.18451 -4.29527 0
M  V30 2833 C 268.82 -4.54084 -2.58079 0
M  V30 2834 H 270.514 -2.7291 -1.23127 0
M  V30 2835 H 268.06 -1.31319 -0.590883 0
M  V30 2836 H 270.013 -2.18092 -3.60575 0
M  V30 2837 H 268.737 -1.04897 -3.09296 0
M  V30 2838 H 267.396 -2.96477 -2.15631 0
M  V30 2839 H 267.044 -2.2149 -4.5161 0
M  V30 2840 H 266.744 -3.962 -4.33934 0
M  V30 2841 H 268.268 -3.39193 -5.07721 0
M  V30 2842 H 269.682 -4.72899 -3.24098 0
M  V30 2843 H 268.079 -5.33987 -2.7382 0
M  V30 2844 H 269.149 -4.60006 -1.53372 0
M  V30 2845 N 270.492 0.636531 -1.44174 0
M  V30 2846 C 271.422 1.76003 -1.53444 0
M  V30 2847 C 272.403 1.65619 -0.387841 0
M  V30 2848 O 273.588 1.84461 -0.607257 0
M  V30 2849 C 270.718 3.14511 -1.4731 0
M  V30 2850 C 269.672 3.39677 -2.60391 0
M  V30 2851 C 268.998 4.78159 -2.39308 0
M  V30 2852 C 270.298 3.32772 -4.02567 0
M  V30 2853 H 271.992 1.68501 -2.47483 0
M  V30 2854 H 269.538 0.809237 -1.19111 0
M  V30 2855 H 271.491 3.92878 -1.52397 0
M  V30 2856 H 270.215 3.22783 -0.49785 0
M  V30 2857 H 268.874 2.63688 -2.54684 0
M  V30 2858 H 268.522 4.83128 -1.39988 0
M  V30 2859 H 268.222 4.95956 -3.15122 0
M  V30 2860 H 269.746 5.58762 -2.46205 0
M  V30 2861 H 271.16 4.01051 -4.09672 0
M  V30 2862 H 269.557 3.62104 -4.7854 0
M  V30 2863 H 270.627 2.30669 -4.2652 0
M  V30 2864 N 271.97 1.30982 0.876444 0
M  V30 2865 C 272.933 1.18054 1.96459 0
M  V30 2866 C 273.933 0.109399 1.60427 0
M  V30 2867 O 275.123 0.358173 1.70478 0
M  V30 2868 C 272.255 0.810616 3.31122 0
M  V30 2869 H 273.448 2.14735 2.09354 0
M  V30 2870 H 271.001 1.145 1.06392 0
M  V30 2871 H 271.736 -0.155322 3.23928 0
M  V30 2872 H 271.521 1.58481 3.58645 0
M  V30 2873 H 273.011 0.743876 4.10921 0
M  V30 2874 N 273.449 -1.08991 1.13837 0
M  V30 2875 C 274.397 -2.17841 0.815347 0
M  V30 2876 C 275.391 -1.68164 -0.204233 0
M  V30 2877 O 276.597 -1.79897 -0.0609304 0
M  V30 2878 H 272.972 -0.710654 0.245915 0
M  V30 2879 H 274.943 -2.42315 1.74143 0
M  V30 2880 C 273.692 -3.46381 0.302614 0
M  V30 2881 H 273.015 -3.84979 1.0785 0
M  V30 2882 H 274.455 -4.23844 0.115074 0
M  V30 2883 C 272.914 -3.22556 -0.972591 0
M  V30 2884 O 273.444 -3.45599 -2.04754 0
M  V30 2885 N 271.65 -2.76134 -0.905455 0
M  V30 2886 H 271.197 -2.57582 -0.0305421 0
M  V30 2887 H 271.155 -2.60571 -1.75926 0
M  V30 2888 N 274.927 -0.932562 -1.27047 0
M  V30 2889 C 276.174 -0.575559 -1.94148 0
M  V30 2890 C 276.502 0.883984 -1.73251 0
M  V30 2891 O 275.757 1.64655 -1.0577 0
M  V30 2892 C 276.056 -0.853713 -3.47054 0
M  V30 2893 C 275.722 -2.29577 -3.88079 0
M  V30 2894 C 274.384 -2.68999 -3.9899 0
M  V30 2895 C 276.736 -3.23331 -4.08787 0
M  V30 2896 C 274.064 -4.01289 -4.28 0
M  V30 2897 C 276.416 -4.55207 -4.39282 0
M  V30 2898 C 275.08 -4.94457 -4.48407 0
M  V30 2899 H 274.35 -0.210612 -0.710439 0
M  V30 2900 H 276.997 -1.17744 -1.51025 0
M  V30 2901 H 275.302 -0.169204 -3.91434 0
M  V30 2902 H 276.999 -0.55639 -3.97121 0
M  V30 2903 H 273.589 -1.97994 -3.80127 0
M  V30 2904 H 277.773 -2.94074 -3.99793 0
M  V30 2905 H 273.029 -4.31374 -4.33275 0
M  V30 2906 H 277.203 -5.27852 -4.54252 0
M  V30 2907 H 274.83 -5.96994 -4.7064 0
M  V30 2908 N 276.405 1.4127 -0.698611 0
M  V30 2909 C 277.633 2.05503 -0.239992 0
M  V30 2910 C 278.048 1.52584 1.11191 0
M  V30 2911 O 277.405 0.675323 1.69545 0
M  V30 2912 C 277.456 3.60987 -0.192429 0
M  V30 2913 O 277.177 4.1195 -1.49094 0
M  V30 2914 C 278.678 4.42371 0.28681 0
M  V30 2915 H 275.898 0.661748 -0.111045 0
M  V30 2916 H 278.442 1.80987 -0.95205 0
M  V30 2917 H 276.597 3.84533 0.470472 0
M  V30 2918 H 277.011 5.06018 -1.38007 0
M  V30 2919 H 278.485 5.51344 0.26896 0
M  V30 2920 H 278.962 4.18699 1.32619 0
M  V30 2921 H 279.568 4.23897 -0.345201 0
M  V30 2922 N 277.883 0.443576 1.51229 0
M  V30 2923 C 278.813 -0.355142 2.30783 0
M  V30 2924 C 279.794 -1.0154 1.36468 0
M  V30 2925 O 280.979 -1.01785 1.65389 0
M  V30 2926 C 278.109 -1.45312 3.15439 0
M  V30 2927 C 277.063 -0.916002 4.18083 0
M  V30 2928 C 276.389 -2.1102 4.91299 0
M  V30 2929 C 277.689 0.0538602 5.22272 0
M  V30 2930 H 279.383 0.308767 2.97804 0
M  V30 2931 H 276.929 0.149937 1.43217 0
M  V30 2932 H 278.882 -2.01914 3.69876 0
M  V30 2933 H 277.606 -2.14541 2.46252 0
M  V30 2934 H 276.265 -0.372145 3.64706 0
M  V30 2935 H 275.913 -2.78882 4.18609 0
M  V30 2936 H 275.613 -1.75717 5.60712 0
M  V30 2937 H 277.137 -2.68164 5.48562 0
M  V30 2938 H 278.551 -0.422069 5.71744 0
M  V30 2939 H 276.948 0.319776 5.99247 0
M  V30 2940 H 278.018 0.98858 4.74716 0
M  V30 2941 N 279.361 -1.56624 0.175154 0
M  V30 2942 C 280.291 -2.21155 -0.749195 0
M  V30 2943 C 281.272 -1.16836 -1.23626 0
M  V30 2944 O 282.457 -1.45277 -1.28873 0
M  V30 2945 C 279.587 -2.8553 -1.97711 0
M  V30 2946 C 278.541 -3.95921 -1.62575 0
M  V30 2947 C 277.867 -4.47365 -2.92864 0
M  V30 2948 C 279.167 -5.15323 -0.850838 0
M  V30 2949 H 280.861 -2.98653 -0.211295 0
M  V30 2950 H 278.407 -1.43651 -0.100188 0
M  V30 2951 H 280.36 -3.2935 -2.62881 0
M  V30 2952 H 279.084 -2.05406 -2.53921 0
M  V30 2953 H 277.743 -3.52762 -0.997719 0
M  V30 2954 H 277.391 -3.64027 -3.47122 0
M  V30 2955 H 277.091 -5.21839 -2.70106 0
M  V30 2956 H 278.615 -4.93873 -3.59056 0
M  V30 2957 H 280.029 -5.55812 -1.40521 0
M  V30 2958 H 278.426 -5.95739 -0.722154 0
M  V30 2959 H 279.496 -4.84661 0.152082 0
M  V30 2960 N 280.839 0.0985539 -1.57292 0
M  V30 2961 C 282.255 0.45267 -1.53046 0
M  V30 2962 C 282.455 1.80713 -0.891342 0
M  V30 2963 O 281.511 2.4785 -0.482375 0
M  V30 2964 C 282.824 0.418341 -2.97776 0
M  V30 2965 C 284.372 0.500443 -3.08973 0
M  V30 2966 C 284.847 0.496297 -4.55303 0
M  V30 2967 N 286.338 0.557151 -4.59837 0
M  V30 2968 C 287.073 0.575726 -5.70502 0
M  V30 2969 N 286.569 0.550714 -6.90608 0
M  V30 2970 N 288.362 0.620277 -5.58667 0
M  V30 2971 H 280.513 -0.788673 -1.97215 0
M  V30 2972 H 282.776 -0.293188 -0.901524 0
M  V30 2973 H 282.482 -0.509659 -3.47988 0
M  V30 2974 H 282.356 1.2386 -3.56284 0
M  V30 2975 H 284.743 1.41886 -2.58751 0
M  V30 2976 H 284.824 -0.347894 -2.53423 0
M  V30 2977 H 284.468 -0.418162 -5.06176 0
M  V30 2978 H 284.398 1.3618 -5.08687 0
M  V30 2979 H 286.889 0.581816 -3.73394 0
M  V30 2980 H 287.202 0.568075 -7.70709 0
M  V30 2981 H 285.547 0.517816 -6.93068 0
M  V30 2982 H 288.738 0.637322 -4.63741 0
M  V30 2983 H 288.911 0.631283 -6.44918 0
M  V30 2984 N 282.317 1.53212 0.369288 0
M  V30 2985 C 283.545 1.73119 1.13303 0
M  V30 2986 C 283.96 0.458455 1.83149 0
M  V30 2987 O 283.317 -0.568403 1.73423 0
M  V30 2988 C 283.368 2.89413 2.16616 0
M  V30 2989 O 283.089 4.11761 1.49614 0
M  V30 2990 C 284.59 3.21161 3.05566 0
M  V30 2991 H 281.81 0.579107 0.338934 0
M  V30 2992 H 284.354 1.99942 0.429338 0
M  V30 2993 H 282.509 2.64994 2.82589 0
M  V30 2994 H 282.923 4.76858 2.18419 0
M  V30 2995 H 284.397 4.05949 3.74045 0
M  V30 2996 H 284.874 2.36369 3.70171 0
M  V30 2997 H 285.48 3.47492 2.45213 0
M  V30 2998 N 283.795 -0.628877 1.44509 0
M  V30 2999 C 284.725 -1.75187 1.54376 0
M  V30 3000 C 285.706 -1.65411 0.396618 0
M  V30 3001 O 286.891 -1.84137 0.617031 0
M  V30 3002 C 284.021 -3.13725 1.48976 0
M  V30 3003 C 282.975 -3.38291 2.62189 0
M  V30 3004 C 282.301 -4.76883 2.41841 0
M  V30 3005 C 283.601 -3.30632 4.04326 0
M  V30 3006 H 285.295 -1.67187 2.48373 0
M  V30 3007 H 282.841 -0.802909 1.19538 0
M  V30 3008 H 284.794 -3.92064 1.54478 0
M  V30 3009 H 283.518 -3.22515 0.514961 0
M  V30 3010 H 282.177 -2.62334 2.56079 0
M  V30 3011 H 281.825 -4.82378 1.42548 0
M  V30 3012 H 281.525 -4.94278 3.17747 0
M  V30 3013 H 283.049 -5.57449 2.49165 0
M  V30 3014 H 284.463 -3.98873 4.11793 0
M  V30 3015 H 282.86 -3.59561 4.80454 0
M  V30 3016 H 283.93 -2.28404 4.27738 0
M  V30 3017 N 285.273 -1.31445 -0.869486 0
M  V30 3018 C 286.55 -1.11795 -1.60503 0
M  V30 3019 C 286.93 0.327168 -2.08549 0
M  V30 3020 O 286.278 1.32135 -1.8642 0
M  V30 3021 C 286.488 -2.13258 -2.76265 0
M  V30 3022 C 287.836 -2.45805 -3.46215 0
M  V30 3023 O 288.86 -2.11688 -2.86473 0
M  V30 3024 O 287.719 -3.04228 -4.5399 0
M  V30 3025 H 284.813 -0.430421 -0.706163 0
M  V30 3026 H 287.359 -1.42925 -0.914907 0
M  V30 3027 H 286.131 -3.10461 -2.3818 0
M  V30 3028 H 285.754 -1.83035 -3.52964 0
M  V30 3029 N 286.751 1.08385 -1.14413 0
M  V30 3030 C 287.681 2.17321 -0.854044 0
M  V30 3031 C 288.662 1.69024 0.191049 0
M  V30 3032 O 289.847 1.94141 0.0476779 0
M  V30 3033 C 286.977 3.45719 -0.330983 0
M  V30 3034 C 285.931 4.07409 -1.31155 0
M  V30 3035 C 285.257 5.30762 -0.64778 0
M  V30 3036 C 286.557 4.48665 -2.67388 0
M  V30 3037 H 288.251 2.41845 -1.76498 0
M  V30 3038 H 285.797 1.16233 -0.850051 0
M  V30 3039 H 287.75 4.21241 -0.115645 0
M  V30 3040 H 286.474 3.2075 0.615381 0
M  V30 3041 H 285.133 3.33919 -1.51306 0
M  V30 3042 H 284.781 5.02078 0.304398 0
M  V30 3043 H 284.481 5.72992 -1.30207 0
M  V30 3044 H 286.005 6.08998 -0.441972 0
M  V30 3045 H 287.419 5.15364 -2.51143 0
M  V30 3046 H 285.816 5.01814 -3.29093 0
M  V30 3047 H 286.886 3.60543 -3.24248 0
M  V30 3048 N 288.23 0.939286 1.26551 0
M  V30 3049 C 289.478 0.58469 1.93457 0
M  V30 3050 C 289.799 -0.878774 1.74076 0
M  V30 3051 O 289.069 -1.62421 1.09528 0
M  V30 3052 H 287.649 0.21325 0.715914 0
M  V30 3053 H 290.311 1.1942 1.54029 0
M  V30 3054 H 289.407 0.800849 3.0165 0
M  V30 3055 N 289.708 -1.40897 0.706093 0
M  V30 3056 C 290.618 -2.3455 0.0482286 0
M  V30 3057 C 291.634 -1.56796 -0.754396 0
M  V30 3058 O 292.81 -1.89228 -0.689538 0
M  V30 3059 C 289.875 -3.35625 -0.869303 0
M  V30 3060 C 288.936 -4.29261 -0.0576994 0
M  V30 3061 C 288.169 -5.25508 -0.931531 0
M  V30 3062 O 288.392 -5.27472 -2.17092 0
M  V30 3063 O 287.326 -6.00727 -0.375587 0
M  V30 3064 H 291.152 -2.92407 0.820476 0
M  V30 3065 H 288.737 -1.4193 0.4665 0
M  V30 3066 H 290.619 -3.97635 -1.39514 0
M  V30 3067 H 289.294 -2.80196 -1.62086 0
M  V30 3068 H 288.201 -3.70566 0.512988 0
M  V30 3069 H 289.534 -4.87817 0.655426 0
M  V30 3070 N 291.186 -0.45159 -1.50991 0
M  V30 3071 C 292.134 0.366864 -2.29689 0
M  V30 3072 C 293.128 1.00809 -1.36139 0
M  V30 3073 O 294.334 0.941427 -1.53418 0
M  V30 3074 H 290.709 0.137133 -0.739391 0
M  V30 3075 H 292.68 -0.317538 -2.96706 0
M  V30 3076 C 291.429 1.44751 -3.16137 0
M  V30 3077 H 290.752 0.963473 -3.88017 0
M  V30 3078 H 292.192 1.99315 -3.74232 0
M  V30 3079 C 290.651 2.43869 -2.32442 0
M  V30 3080 O 291.181 3.4872 -1.99392 0
M  V30 3081 N 289.387 2.15105 -1.95392 0
M  V30 3082 H 288.934 1.29866 -2.22469 0
M  V30 3083 H 288.892 2.81661 -1.39693 0
M  V30 3084 N 292.664 1.56529 -0.183458 0
M  V30 3085 C 293.596 2.15747 0.773697 0
M  V30 3086 C 294.609 1.1162 1.1851 0
M  V30 3087 O 295.798 1.3876 1.12285 0
M  V30 3088 C 292.898 2.6952 2.05456 0
M  V30 3089 C 292.071 3.98429 1.8048 0
M  V30 3090 C 291.13 4.37145 2.92901 0
M  V30 3091 O 290.156 5.04791 2.6301 0
M  V30 3092 N 291.358 3.99695 4.2098 0
M  V30 3093 H 294.123 2.98505 0.26736 0
M  V30 3094 H 291.684 1.619 -0.0010878 0
M  V30 3095 H 293.676 2.92412 2.79781 0
M  V30 3096 H 292.246 1.91282 2.47245 0
M  V30 3097 H 291.466 3.8379 0.899947 0
M  V30 3098 H 292.754 4.82597 1.61175 0
M  V30 3099 H 292.152 3.4526 4.48121 0
M  V30 3100 H 290.709 4.27562 4.9197 0
M  V30 3101 N 294.142 -0.090211 1.57342 0
M  V30 3102 C 295.072 -1.10976 2.05443 0
M  V30 3103 C 296.053 -1.41482 0.944284 0
M  V30 3104 O 297.238 -1.51428 1.21586 0
M  V30 3105 C 294.368 -2.42831 2.48295 0
M  V30 3106 C 293.322 -2.26721 3.63018 0
M  V30 3107 C 292.648 -3.63796 3.91863 0
M  V30 3108 C 293.948 -1.7037 4.93732 0
M  V30 3109 H 295.642 -0.709564 2.9087 0
M  V30 3110 H 293.188 -0.339874 1.39932 0
M  V30 3111 H 295.141 -3.14431 2.80555 0
M  V30 3112 H 293.865 -2.84795 1.59873 0
M  V30 3113 H 292.524 -1.57565 3.31012 0
M  V30 3114 H 292.172 -4.03297 3.00601 0
M  V30 3115 H 291.872 -3.53861 4.69101 0
M  V30 3116 H 293.396 -4.36855 4.26603 0
M  V30 3117 H 294.81 -2.31816 5.24342 0
M  V30 3118 H 293.207 -1.71181 5.75167 0
M  V30 3119 H 294.277 -0.663542 4.80339 0
M  V30 3120 N 295.62 -1.53406 -0.361157 0
M  V30 3121 C 296.53 -1.83122 -1.4664 0
M  V30 3122 C 297.546 -0.719943 -1.58407 0
M  V30 3123 O 298.722 -1.01046 -1.74218 0
M  V30 3124 C 295.787 -2.01891 -2.81853 0
M  V30 3125 C 294.848 -3.25784 -2.79577 0
M  V30 3126 C 294.081 -3.43648 -4.0834 0
M  V30 3127 O 294.304 -2.65714 -5.0473 0
M  V30 3128 O 293.238 -4.37018 -4.13883 0
M  V30 3129 H 297.064 -2.7703 -1.24451 0
M  V30 3130 H 294.649 -1.38841 -0.551678 0
M  V30 3131 H 296.531 -2.15782 -3.61962 0
M  V30 3132 H 295.206 -1.11173 -3.0401 0
M  V30 3133 H 294.113 -3.17312 -1.98151 0
M  V30 3134 H 295.446 -4.16439 -2.62373 0
M  V30 3135 N 297.098 0.621204 -1.44841 0
M  V30 3136 C 298.326 1.40752 -1.51646 0
M  V30 3137 C 298.741 1.88246 -0.144549 0
M  V30 3138 O 298.098 1.61422 0.851416 0
M  V30 3139 C 298.149 2.62119 -2.4895 0
M  V30 3140 O 297.87 2.16602 -3.80808 0
M  V30 3141 C 299.371 3.55135 -2.65319 0
M  V30 3142 H 296.591 0.431325 -0.514004 0
M  V30 3143 H 299.135 0.758835 -1.899 0
M  V30 3144 H 297.29 3.23058 -2.13805 0
M  V30 3145 H 297.704 2.95358 -4.33433 0
M  V30 3146 H 299.178 4.36874 -3.37409 0
M  V30 3147 H 299.655 4.04592 -1.70886 0
M  V30 3148 H 300.261 3.00058 -3.01405 0
M  V30 3149 N 298.576 1.31904 0.862503 0
M  V30 3150 C 299.506 1.22782 1.98612 0
M  V30 3151 C 300.487 0.113362 1.69722 0
M  V30 3152 O 301.672 0.299218 1.91881 0
M  V30 3153 C 298.802 0.942058 3.34279 0
M  V30 3154 C 297.756 2.0169 3.77499 0
M  V30 3155 C 297.082 1.58369 5.10709 0
M  V30 3156 C 298.382 3.43096 3.93805 0
M  V30 3157 H 300.076 2.16788 2.06502 0
M  V30 3158 H 297.622 1.04366 0.992154 0
M  V30 3159 H 299.575 0.864818 4.1243 0
M  V30 3160 H 298.299 -0.0336603 3.26583 0
M  V30 3161 H 296.958 2.08416 3.01593 0
M  V30 3162 H 296.606 0.595628 4.99461 0
M  V30 3163 H 296.306 2.30279 5.40597 0
M  V30 3164 H 297.83 1.52067 5.91361 0
M  V30 3165 H 299.244 3.39003 4.62331 0
M  V30 3166 H 297.641 4.13288 4.35101 0
M  V30 3167 H 298.711 3.83334 2.96957 0
M  V30 3168 N 300.054 -1.07777 1.14986 0
M  V30 3169 C 301.465 -1.61766 0.932127 0
M  V30 3170 C 301.816 -1.88974 -0.527581 0
M  V30 3171 O 300.941 -1.65198 -1.39781 0
M  V30 3172 C 301.536 -2.93891 1.68563 0
M  V30 3173 C 300.095 -3.44639 1.5133 0
M  V30 3174 C 299.242 -2.18767 1.704 0
M  V30 3175 H 302.193 -0.909201 1.30074 0
M  V30 3176 H 302.214 -3.62623 1.15259 0
M  V30 3177 H 301.726 -2.74057 2.74799 0
M  V30 3178 H 299.827 -3.69564 0.474702 0
M  V30 3179 H 299.94 -4.20966 2.28746 0
M  V30 3180 H 298.304 -2.28253 1.13016 0
M  V30 3181 H 299.087 -2.01433 2.77992 0
M  V30 3182 N 301.532 -0.945985 -1.26051 0
M  V30 3183 C 302.943 -0.638096 -1.75457 0
M  V30 3184 C 303.294 0.846672 -1.76991 0
M  V30 3185 O 302.419 1.66262 -1.38513 0
M  V30 3186 C 303.014 -1.15157 -3.18629 0
M  V30 3187 C 301.573 -0.894004 -3.65629 0
M  V30 3188 C 300.72 -1.29967 -2.44957 0
M  V30 3189 H 303.671 -1.12376 -1.1206 0
M  V30 3190 H 303.692 -0.507615 -3.77099 0
M  V30 3191 H 303.204 -2.23222 -3.1748 0
M  V30 3192 H 301.305 0.172057 -3.72203 0
M  V30 3193 H 301.418 -1.52439 -4.54202 0
M  V30 3194 H 299.782 -0.718078 -2.44368 0
M  V30 3195 H 300.565 -2.38935 -2.46505 0
M  V30 3196 N 303.011 1.40521 -0.713556 0
M  V30 3197 C 304.288 1.94775 -0.17943 0
M  V30 3198 C 304.668 1.65184 1.31444 0
M  V30 3199 O 304.016 0.968429 2.06963 0
M  V30 3200 C 304.226 3.45543 -0.489986 0
M  V30 3201 C 305.574 4.22442 -0.427536 0
M  V30 3202 O 306.598 3.53644 -0.425929 0
M  V30 3203 O 305.457 5.4501 -0.403292 0
M  V30 3204 H 302.551 0.826606 -0.0255192 0
M  V30 3205 H 305.097 1.5014 -0.790949 0
M  V30 3206 H 303.869 3.60432 -1.5233 0
M  V30 3207 H 303.492 3.97311 0.151598 0
M  V30 3208 N 304.489 0.459591 1.5075 0
M  V30 3209 C 305.419 -0.330644 2.31147 0
M  V30 3210 C 306.4 -1.00087 1.37538 0
M  V30 3211 O 307.585 -1.00025 1.66459 0
M  V30 3212 C 304.715 -1.41958 3.16962 0
M  V30 3213 C 303.669 -0.871608 4.19031 0
M  V30 3214 C 302.995 -2.05797 4.9351 0
M  V30 3215 C 304.295 0.109251 5.22186 0
M  V30 3216 H 305.989 0.340336 2.97459 0
M  V30 3217 H 303.535 0.165119 1.4305 0
M  V30 3218 H 305.488 -1.9798 3.71997 0
M  V30 3219 H 304.212 -2.11917 2.48513 0
M  V30 3220 H 302.871 -0.333442 3.6508 0
M  V30 3221 H 302.519 -2.74427 4.21544 0
M  V30 3222 H 302.219 -1.6976 5.62544 0
M  V30 3223 H 303.743 -2.62331 5.51375 0
M  V30 3224 H 305.157 -0.361405 5.7216 0
M  V30 3225 H 303.554 0.383316 5.98875 0
M  V30 3226 H 304.624 1.03887 4.73641 0
M  V30 3227 N 305.967 -1.56429 0.191757 0
M  V30 3228 C 306.897 -2.21937 -0.725696 0
M  V30 3229 C 307.878 -1.1814 -1.2238 0
M  V30 3230 O 309.063 -1.46636 -1.27325 0
M  V30 3231 C 306.193 -2.87611 -1.94672 0
M  V30 3232 C 305.147 -3.97623 -1.58366 0
M  V30 3233 C 304.473 -4.50446 -2.88102 0
M  V30 3234 C 305.773 -5.16197 -0.796133 0
M  V30 3235 H 307.467 -2.98861 -0.179606 0
M  V30 3236 H 305.013 -1.43749 -0.0849464 0
M  V30 3237 H 306.966 -3.3212 -2.59373 0
M  V30 3238 H 305.69 -2.08087 -2.51728 0
M  V30 3239 H 304.349 -3.53801 -0.960247 0
M  V30 3240 H 303.997 -3.67688 -3.43241 0
M  V30 3241 H 303.697 -5.24675 -2.64556 0
M  V30 3242 H 305.221 -4.97654 -3.53798 0
M  V30 3243 H 306.635 -5.57271 -1.34618 0
M  V30 3244 H 305.032 -5.96471 -0.658928 0
M  V30 3245 H 306.102 -4.84473 0.203478 0
M  V30 3246 N 307.445 0.0818655 -1.57387 0
M  V30 3247 C 308.861 0.436412 -1.53517 0
M  V30 3248 C 309.061 1.79758 -0.910459 0
M  V30 3249 O 308.117 2.47324 -0.508636 0
M  V30 3250 C 309.43 0.386734 -2.98203 0
M  V30 3251 C 310.978 0.467644 -3.09487 0
M  V30 3252 C 311.453 0.447978 -4.55804 0
M  V30 3253 N 312.944 0.508348 -4.60402 0
M  V30 3254 C 313.679 0.515184 -5.71081 0
M  V30 3255 N 313.175 0.477435 -6.91153 0
M  V30 3256 N 314.968 0.560988 -5.59294 0
M  V30 3257 H 307.119 -0.809546 -1.96367 0
M  V30 3258 H 309.382 -0.302733 -0.898363 0
M  V30 3259 H 309.088 -0.546539 -3.47427 0
M  V30 3260 H 308.962 1.20075 -3.57578 0
M  V30 3261 H 311.349 1.39134 -2.60242 0
M  V30 3262 H 311.43 -0.374753 -2.5304 0
M  V30 3263 H 311.074 -0.471826 -5.05704 0
M  V30 3264 H 311.004 1.30777 -5.10103 0
M  V30 3265 H 313.495 0.54218 -3.7399 0
M  V30 3266 H 313.808 0.486299 -7.71268 0
M  V30 3267 H 312.153 0.444278 -6.93579 0
M  V30 3268 H 315.344 0.5881 -4.64391 0
M  V30 3269 H 315.517 0.562846 -6.45551 0
M  V30 3270 N 308.923 1.53595 0.353017 0
M  V30 3271 C 310.171 1.70049 1.09215 0
M  V30 3272 C 310.492 0.461406 1.89463 0
M  V30 3273 O 309.762 -0.524633 1.88744 0
M  V30 3274 H 308.342 0.626912 0.40619 0
M  V30 3275 H 311.004 1.90822 0.396585 0
M  V30 3276 H 310.1 2.56718 1.77488 0
M  V30 3277 N 310.401 -0.613514 1.45168 0
M  V30 3278 C 311.812 -1.19539 1.43413 0
M  V30 3279 C 312.163 -1.95558 0.158632 0
M  V30 3280 O 311.288 -2.0335 -0.740119 0
M  V30 3281 C 311.883 -2.17445 2.59813 0
M  V30 3282 C 310.442 -2.71022 2.61197 0
M  V30 3283 C 309.589 -1.46323 2.35552 0
M  V30 3284 H 312.54 -0.403163 1.53494 0
M  V30 3285 H 312.561 -3.00373 2.33574 0
M  V30 3286 H 312.073 -1.62089 3.52631 0
M  V30 3287 H 310.174 -3.30332 1.7237 0
M  V30 3288 H 310.287 -3.15859 3.60236 0
M  V30 3289 H 308.651 -1.75072 1.84992 0
M  V30 3290 H 309.434 -0.92844 3.30507 0
M  V30 3291 N 311.879 -1.3236 -0.855495 0
M  V30 3292 C 312.809 -1.23833 -1.97958 0
M  V30 3293 C 313.79 -0.122361 -1.69659 0
M  V30 3294 O 314.975 -0.30939 -1.9172 0
M  V30 3295 C 312.105 -0.959772 -3.33775 0
M  V30 3296 C 311.059 -2.03689 -3.76424 0
M  V30 3297 C 310.385 -1.61075 -5.09862 0
M  V30 3298 C 311.685 -3.4518 -3.9198 0
M  V30 3299 H 313.379 -2.1788 -2.0535 0
M  V30 3300 H 310.925 -1.04891 -0.986605 0
M  V30 3301 H 312.878 -0.886678 -4.11966 0
M  V30 3302 H 311.602 0.0163404 -3.26596 0
M  V30 3303 H 310.261 -2.10012 -3.00484 0
M  V30 3304 H 309.909 -0.622107 -4.99138 0
M  V30 3305 H 309.609 -2.33143 -5.39368 0
M  V30 3306 H 311.133 -1.55201 -5.90546 0
M  V30 3307 H 312.547 -3.4145 -4.60526 0
M  V30 3308 H 310.944 -4.1559 -4.32903 0
M  V30 3309 H 312.014 -3.84903 -2.94919 0
M  V30 3310 N 313.357 1.07166 -1.15556 0
M  V30 3311 C 314.289 2.14341 -0.811815 0
M  V30 3312 C 315.302 1.61835 0.177015 0
M  V30 3313 O 316.491 1.78439 -0.0464996 0
M  V30 3314 C 313.591 3.38387 -0.186481 0
M  V30 3315 C 312.764 4.20238 -1.21321 0
M  V30 3316 C 311.823 5.2266 -0.609302 0
M  V30 3317 O 310.849 5.54719 -1.27576 0
M  V30 3318 N 312.051 5.77306 0.608099 0
M  V30 3319 H 314.816 2.44431 -1.73417 0
M  V30 3320 H 312.377 1.23089 -1.0517 0
M  V30 3321 H 314.369 4.04044 0.230339 0
M  V30 3322 H 312.939 3.05994 0.639249 0
M  V30 3323 H 312.159 3.50369 -1.80652 0
M  V30 3324 H 313.447 4.71736 -1.90638 0
M  V30 3325 H 312.845 5.53513 1.1679 0
M  V30 3326 H 311.402 6.44583 0.96725 0
M  V30 3327 N 314.835 0.952656 1.25548 0
M  V30 3328 C 315.765 0.489287 2.28316 0
M  V30 3329 C 316.746 -0.463359 1.63667 0
M  V30 3330 O 317.931 -0.36274 1.90782 0
M  V30 3331 C 315.061 -0.235603 3.465 0
M  V30 3332 C 314.015 0.631593 4.23314 0
M  V30 3333 C 313.341 -0.223923 5.34231 0
M  V30 3334 C 314.641 1.90871 4.86174 0
M  V30 3335 H 316.335 1.34822 2.67326 0
M  V30 3336 H 313.881 0.649728 1.28509 0
M  V30 3337 H 315.834 -0.570882 4.17515 0
M  V30 3338 H 314.558 -1.12877 3.06474 0
M  V30 3339 H 313.217 0.949929 3.54079 0
M  V30 3340 H 312.865 -1.11678 4.90446 0
M  V30 3341 H 312.565 0.35299 5.86539 0
M  V30 3342 H 314.089 -0.554214 6.0808 0
M  V30 3343 H 315.503 1.63997 5.49343 0
M  V30 3344 H 313.9 2.43112 5.4865 0
M  V30 3345 H 314.97 2.61304 4.08471 0
M  V30 3346 N 316.313 -1.40141 0.720998 0
M  V30 3347 C 317.223 -2.34486 0.0731031 0
M  V30 3348 C 318.239 -1.57587 -0.737723 0
M  V30 3349 O 319.415 -1.89949 -0.669429 0
M  V30 3350 C 316.48 -3.36528 -0.833656 0
M  V30 3351 C 315.541 -4.29298 -0.0121673 0
M  V30 3352 C 314.774 -5.26466 -0.875742 0
M  V30 3353 O 314.997 -5.29745 -2.11485 0
M  V30 3354 O 313.931 -6.01092 -0.31185 0
M  V30 3355 H 317.757 -2.9152 0.851444 0
M  V30 3356 H 315.342 -1.41427 0.481527 0
M  V30 3357 H 317.224 -3.99093 -1.35289 0
M  V30 3358 H 315.899 -2.81899 -1.59105 0
M  V30 3359 H 314.806 -3.70001 0.552262 0
M  V30 3360 H 316.139 -4.87094 0.707129 0
M  V30 3361 N 317.792 -0.46758 -1.50504 0
M  V30 3362 C 319.208 -0.121533 -1.59137 0
M  V30 3363 C 319.408 1.3717 -1.47603 0
M  V30 3364 O 318.464 2.14464 -1.33272 0
M  V30 3365 C 319.777 -0.6686 -2.93173 0
M  V30 3366 C 321.325 -0.631716 -3.06559 0
M  V30 3367 C 321.8 -1.15627 -4.43164 0
M  V30 3368 N 323.291 -1.11553 -4.49567 0
M  V30 3369 C 324.026 -1.49195 -5.5365 0
M  V30 3370 N 323.522 -1.94269 -6.65005 0
M  V30 3371 N 325.315 -1.4082 -5.44175 0
M  V30 3372 H 317.466 -1.4388 -1.56245 0
M  V30 3373 H 319.729 -0.594784 -0.738198 0
M  V30 3374 H 319.435 -1.71453 -3.07078 0
M  V30 3375 H 319.309 -0.11021 -3.77039 0
M  V30 3376 H 321.696 0.405297 -2.92304 0
M  V30 3377 H 321.777 -1.22687 -2.24458 0
M  V30 3378 H 321.421 -2.1919 -4.58168 0
M  V30 3379 H 321.351 -0.537365 -5.23851 0
M  V30 3380 H 323.842 -0.784895 -3.69659 0
M  V30 3381 H 324.155 -2.21148 -7.40482 0
M  V30 3382 H 322.5 -1.98219 -6.66134 0
M  V30 3383 H 325.691 -1.0545 -4.56068 0
M  V30 3384 H 325.864 -1.70481 -6.25172 0
M  V30 3385 N 319.27 1.56325 -0.20005 0
M  V30 3386 C 320.2 2.22318 0.713916 0
M  V30 3387 C 321.181 1.18788 1.21752 0
M  V30 3388 O 322.366 1.47309 1.26545 0
M  V30 3389 C 319.496 2.88639 1.93144 0
M  V30 3390 C 318.45 3.98457 1.56255 0
M  V30 3391 C 317.776 4.51967 2.85709 0
M  V30 3392 C 319.076 5.16612 0.768747 0
M  V30 3393 H 320.77 2.98952 0.163755 0
M  V30 3394 H 318.316 1.43792 0.0773219 0
M  V30 3395 H 320.269 3.33491 2.57608 0
M  V30 3396 H 318.993 2.09419 2.50621 0
M  V30 3397 H 317.652 3.54305 0.941471 0
M  V30 3398 H 317.3 3.69503 3.41287 0
M  V30 3399 H 317 5.26071 2.6177 0
M  V30 3400 H 318.524 4.99523 3.51154 0
M  V30 3401 H 319.938 5.57977 1.3166 0
M  V30 3402 H 318.335 5.96812 0.627286 0
M  V30 3403 H 319.405 4.84358 -0.229168 0
M  V30 3404 N 320.748 -0.0735177 1.57428 0
M  V30 3405 C 321.698 -1.09442 2.00016 0
M  V30 3406 C 322.682 -1.34575 0.881947 0
M  V30 3407 O 323.874 -1.34905 1.14585 0
M  V30 3408 C 321.003 -2.40865 2.4462 0
M  V30 3409 C 320.089 -2.19014 3.63172 0
M  V30 3410 N 320.48 -1.67087 4.77405 0
M  V30 3411 C 318.778 -2.49494 3.69688 0
M  V30 3412 C 319.479 -1.6001 5.5926 0
M  V30 3413 N 318.455 -2.05999 5.03056 0
M  V30 3414 H 322.257 -0.686227 2.85776 0
M  V30 3415 H 319.771 -0.280617 1.59957 0
M  V30 3416 H 321.768 -3.14763 2.73368 0
M  V30 3417 H 320.428 -2.82403 1.60246 0
M  V30 3418 H 321.439 -1.35975 4.99731 0
M  V30 3419 H 318.116 -2.94409 2.96023 0
M  V30 3420 H 319.506 -1.2073 6.60964 0
M  V30 3421 N 322.226 -1.5378 -0.344866 0
M  V30 3422 C 323.156 -1.84662 -1.42906 0
M  V30 3423 C 324.137 -0.701648 -1.54955 0
M  V30 3424 O 325.322 -0.953438 -1.69184 0
M  V30 3425 C 322.452 -2.05503 -2.79974 0
M  V30 3426 C 321.406 -3.21318 -2.82734 0
M  V30 3427 C 320.732 -3.2749 -4.22675 0
M  V30 3428 C 322.032 -4.59456 -2.48389 0
M  V30 3429 H 323.726 -2.75461 -1.17311 0
M  V30 3430 H 321.272 -1.32542 -0.562896 0
M  V30 3431 H 323.225 -2.25691 -3.55867 0
M  V30 3432 H 321.949 -1.11434 -3.07002 0
M  V30 3433 H 320.608 -3.00984 -2.09294 0
M  V30 3434 H 320.256 -2.31019 -4.4681 0
M  V30 3435 H 319.956 -4.05316 -4.25433 0
M  V30 3436 H 321.48 -3.49887 -5.00412 0
M  V30 3437 H 322.894 -4.79667 -3.13995 0
M  V30 3438 H 321.291 -5.39675 -2.62432 0
M  V30 3439 H 322.361 -4.63155 -1.4358 0
M  V30 3440 N 323.704 0.605807 -1.45491 0
M  V30 3441 C 324.614 1.74466 -1.56839 0
M  V30 3442 C 325.63 1.68006 -0.452772 0
M  V30 3443 O 326.806 1.8833 -0.713708 0
M  V30 3444 C 323.871 3.10931 -1.53371 0
M  V30 3445 C 322.932 3.28832 -2.75986 0
M  V30 3446 C 322.165 4.58787 -2.72673 0
M  V30 3447 O 322.388 5.4122 -1.80102 0
M  V30 3448 O 321.322 4.79438 -3.63899 0
M  V30 3449 H 325.148 1.67843 -2.53106 0
M  V30 3450 H 322.733 0.770108 -1.28022 0
M  V30 3451 H 324.615 3.92233 -1.54051 0
M  V30 3452 H 323.29 3.18042 -0.602572 0
M  V30 3453 H 322.197 2.47112 -2.80867 0
M  V30 3454 H 323.53 3.26599 -3.68231 0
M  V30 3455 N 325.182 1.32811 0.848464 0
M  V30 3456 C 326.43 1.23479 1.59991 0
M  V30 3457 C 326.751 -0.201853 1.93952 0
M  V30 3458 O 326.021 -1.12818 1.60153 0
M  V30 3459 H 324.601 0.454034 0.593179 0
M  V30 3460 H 327.263 1.66412 1.01455 0
M  V30 3461 H 326.359 1.82178 2.53412 0
M  V30 3462 N 326.66 -1.06551 1.16123 0
M  V30 3463 C 327.608 -2.16063 0.861371 0
M  V30 3464 C 328.602 -1.6856 -0.168517 0
M  V30 3465 O 329.808 -1.79986 -0.0227579 0
M  V30 3466 H 326.183 -0.705278 0.260934 0
M  V30 3467 H 328.154 -2.38567 1.79244 0
M  V30 3468 C 326.903 -3.45661 0.376018 0
M  V30 3469 H 326.226 -3.82604 1.15992 0
M  V30 3470 H 327.666 -4.23504 0.204951 0
M  V30 3471 C 326.125 -3.24546 -0.903954 0
M  V30 3472 O 326.655 -3.49865 -1.97377 0
M  V30 3473 N 324.861 -2.77992 -0.846679 0
M  V30 3474 H 324.408 -2.57589 0.0241017 0
M  V30 3475 H 324.366 -2.64244 -1.70359 0
M  V30 3476 N 328.138 -0.959301 -1.25041 0
M  V30 3477 C 329.085 -0.482057 -2.2571 0
M  V30 3478 C 330.055 0.467939 -1.59372 0
M  V30 3479 O 331.24 0.380159 -1.86974 0
M  V30 3480 C 328.38 0.229623 -3.44335 0
M  V30 3481 C 327.493 -0.758156 -4.25295 0
M  V30 3482 C 326.628 -0.0234403 -5.31195 0
M  V30 3483 C 325.667 -1.00184 -6.03846 0
M  V30 3484 N 324.804 -0.29769 -7.01469 0
M  V30 3485 H 329.644 -1.34538 -2.65901 0
M  V30 3486 H 327.181 -0.674592 -1.3072 0
M  V30 3487 H 329.139 0.658856 -4.11965 0
M  V30 3488 H 327.769 1.05696 -3.05005 0
M  V30 3489 H 326.821 -1.30586 -3.57284 0
M  V30 3490 H 328.133 -1.50458 -4.75567 0
M  V30 3491 H 327.287 0.464201 -6.04922 0
M  V30 3492 H 326.026 0.755741 -4.81809 0
M  V30 3493 H 325.031 -1.50044 -5.2893 0
M  V30 3494 H 326.256 -1.78133 -6.55321 0
M  V30 3495 H 324.202 0.462668 -6.54366 0
M  V30 3496 H 324.119 -0.983128 -7.4958 0
M  V30 3497 H 325.387 0.16826 -7.79318 0
M  V30 3498 N 329.616 1.39756 -0.72842 0
M  V30 3499 C 330.546 2.33289 -0.0991354 0
M  V30 3500 C 331.527 1.53568 0.731489 0
M  V30 3501 O 332.712 1.81987 0.677807 0
M  V30 3502 C 329.842 3.3763 0.813834 0
M  V30 3503 C 328.796 4.2791 0.0878663 0
M  V30 3504 C 328.122 5.22894 1.11741 0
M  V30 3505 C 329.422 5.11314 -1.06563 0
M  V30 3506 H 331.116 2.86163 -0.880408 0
M  V30 3507 H 328.662 1.37591 -0.424819 0
M  V30 3508 H 330.615 4.0201 1.26355 0
M  V30 3509 H 329.339 2.83181 1.62715 0
M  V30 3510 H 327.998 3.65 -0.342159 0
M  V30 3511 H 327.646 4.64744 1.92412 0
M  V30 3512 H 327.346 5.84143 0.636477 0
M  V30 3513 H 328.87 5.90151 1.56697 0
M  V30 3514 H 330.284 5.69076 -0.694671 0
M  V30 3515 H 328.681 5.81671 -1.47577 0
M  V30 3516 H 329.751 4.46534 -1.89038 0
M  V30 3517 N 331.094 0.475555 1.50254 0
M  V30 3518 C 332.026 -0.352649 2.26471 0
M  V30 3519 C 333.039 -0.953165 1.3198 0
M  V30 3520 O 334.228 -0.840815 1.57457 0
M  V30 3521 C 331.328 -1.50902 3.0345 0
M  V30 3522 C 330.501 -1.02047 4.25329 0
M  V30 3523 C 329.56 -2.05142 4.84565 0
M  V30 3524 O 328.586 -1.63023 5.45355 0
M  V30 3525 N 329.788 -3.37987 4.71959 0
M  V30 3526 H 332.553 0.300767 2.98187 0
M  V30 3527 H 330.114 0.306598 1.5897 0
M  V30 3528 H 332.106 -2.19572 3.39956 0
M  V30 3529 H 330.676 -2.06705 2.34504 0
M  V30 3530 H 329.896 -0.159507 3.93877 0
M  V30 3531 H 331.184 -0.672061 5.04342 0
M  V30 3532 H 330.582 -3.74913 4.23623 0
M  V30 3533 H 329.139 -4.02443 5.12721 0
M  V30 3534 N 332.573 -1.56217 0.208337 0
M  V30 3535 C 333.819 -1.98242 -0.427552 0
M  V30 3536 C 334.152 -1.09554 -1.60348 0
M  V30 3537 O 333.427 -0.15035 -1.93918 0
M  V30 3538 C 333.71 -3.4931 -0.874907 0
M  V30 3539 C 333.563 -4.48773 0.303751 0
M  V30 3540 C 334.882 -4.04424 -1.73577 0
M  V30 3541 H 332.001 -0.720744 -0.153936 0
M  V30 3542 H 334.643 -1.87586 0.30192 0
M  V30 3543 H 332.793 -3.58522 -1.49648 0
M  V30 3544 H 334.465 -4.51586 0.941682 0
M  V30 3545 H 332.708 -4.23194 0.953375 0
M  V30 3546 H 333.379 -5.51976 -0.0519883 0
M  V30 3547 H 335.855 -3.98075 -1.21143 0
M  V30 3548 H 334.731 -5.1047 -2.01771 0
M  V30 3549 H 334.992 -3.50494 -2.69456 0
M  V30 3550 N 334.051 0.0651679 -1.57465 0
M  V30 3551 C 334.981 1.07693 -2.07182 0
M  V30 3552 C 335.962 1.39962 -0.966673 0
M  V30 3553 O 337.147 1.49475 -1.2398 0
M  V30 3554 C 334.277 2.3885 -2.52127 0
M  V30 3555 C 333.231 2.20917 -3.66579 0
M  V30 3556 C 332.557 3.57515 -3.97601 0
M  V30 3557 C 333.857 1.62493 -4.9638 0
M  V30 3558 H 335.551 0.663199 -2.91962 0
M  V30 3559 H 333.097 0.317569 -1.40455 0
M  V30 3560 H 335.05 3.09928 -2.85522 0
M  V30 3561 H 333.774 2.82215 -1.64384 0
M  V30 3562 H 332.433 1.52279 -3.33477 0
M  V30 3563 H 332.081 3.98463 -3.06979 0
M  V30 3564 H 331.781 3.46353 -4.74672 0
M  V30 3565 H 333.305 4.30013 -4.33499 0
M  V30 3566 H 334.719 2.23445 -5.27963 0
M  V30 3567 H 333.116 1.62009 -5.77818 0
M  V30 3568 H 334.186 0.587041 -4.81333 0
M  V30 3569 N 335.529 1.53961 0.336706 0
M  V30 3570 C 336.777 1.71197 1.07405 0
M  V30 3571 C 337.098 0.481475 1.88962 0
M  V30 3572 O 336.368 -0.504585 1.8929 0
M  V30 3573 H 334.948 0.631185 0.399517 0
M  V30 3574 H 337.61 1.91232 0.376323 0
M  V30 3575 H 336.706 2.58587 1.74755 0
M  V30 3576 N 337.007 -0.598083 1.45811 0
M  V30 3577 C 337.954 -1.7082 1.55207 0
M  V30 3578 C 338.924 -1.61278 0.39732 0
M  V30 3579 O 340.109 -1.80717 0.612038 0
M  V30 3580 C 337.249 -3.09144 1.53376 0
M  V30 3581 C 336.362 -3.29423 2.79472 0
M  V30 3582 C 335.497 -4.57907 2.69248 0
M  V30 3583 C 334.536 -4.71476 3.90354 0
M  V30 3584 N 333.673 -5.9127 3.78608 0
M  V30 3585 H 338.513 -1.62125 2.50039 0
M  V30 3586 H 336.05 -0.790389 1.24062 0
M  V30 3587 H 338.008 -3.89186 1.50301 0
M  V30 3588 H 336.638 -3.16773 0.620876 0
M  V30 3589 H 335.69 -2.43091 2.92594 0
M  V30 3590 H 337.002 -3.3532 3.69272 0
M  V30 3591 H 336.156 -5.46157 2.64192 0
M  V30 3592 H 334.895 -4.54423 1.77063 0
M  V30 3593 H 333.9 -3.81648 3.95759 0
M  V30 3594 H 335.125 -4.76751 4.83617 0
M  V30 3595 H 333.071 -5.88813 2.89199 0
M  V30 3596 H 332.988 -5.98369 4.6205 0
M  V30 3597 H 334.256 -6.81992 3.77501 0
M  V30 3598 N 338.485 -1.33259 -0.841409 0
M  V30 3599 C 339.762 -1.15174 -1.58096 0
M  V30 3600 C 340.142 0.282858 -2.09196 0
M  V30 3601 O 339.49 1.28151 -1.89181 0
M  V30 3602 C 339.7 -2.1907 -2.71679 0
M  V30 3603 C 341.048 -2.53093 -3.40924 0
M  V30 3604 O 342.072 -2.17717 -2.81918 0
M  V30 3605 O 340.931 -3.1379 -4.47435 0
M  V30 3606 H 338.025 -0.445303 -0.696875 0
M  V30 3607 H 340.571 -1.44833 -0.884385 0
M  V30 3608 H 339.343 -3.15443 -2.31541 0
M  V30 3609 H 338.966 -1.90481 -3.49002 0
M  V30 3610 N 339.963 1.05934 -1.16686 0
M  V30 3611 C 340.893 2.1546 -0.899949 0
M  V30 3612 C 341.874 1.69391 0.155154 0
M  V30 3613 O 343.059 1.94199 0.00648693 0
M  V30 3614 C 340.189 3.44939 -0.404241 0
M  V30 3615 C 339.143 4.04536 -1.39767 0
M  V30 3616 C 338.469 5.29268 -0.760216 0
M  V30 3617 C 339.769 4.42893 -2.76845 0
M  V30 3618 H 341.463 2.38046 -1.81588 0
M  V30 3619 H 339.009 1.14404 -0.874514 0
M  V30 3620 H 340.962 4.20901 -0.204971 0
M  V30 3621 H 339.686 3.21983 0.547206 0
M  V30 3622 H 338.345 3.30635 -1.58355 0
M  V30 3623 H 337.993 5.02611 0.197831 0
M  V30 3624 H 337.693 5.70101 -1.42332 0
M  V30 3625 H 339.217 6.07924 -0.57105 0
M  V30 3626 H 340.631 5.09921 -2.62019 0
M  V30 3627 H 339.028 4.94721 -3.39663 0
M  V30 3628 H 340.098 3.53584 -3.31823 0
M  V30 3629 N 341.441 0.965919 1.2453 0
M  V30 3630 C 342.371 0.513476 2.27784 0
M  V30 3631 C 343.352 -0.445974 1.6415 0
M  V30 3632 O 344.537 -0.342485 1.91156 0
M  V30 3633 C 341.667 -0.198839 3.4673 0
M  V30 3634 C 340.621 0.676456 4.2262 0
M  V30 3635 C 339.947 -0.167248 5.34438 0
M  V30 3636 C 341.247 1.96017 4.84123 0
M  V30 3637 H 342.941 1.3765 2.65881 0
M  V30 3638 H 340.487 0.663321 1.27813 0
M  V30 3639 H 342.44 -0.526567 4.18097 0
M  V30 3640 H 341.164 -1.0962 3.07654 0
M  V30 3641 H 339.823 0.98743 3.53052 0
M  V30 3642 H 339.471 -1.0647 4.91603 0
M  V30 3643 H 339.171 0.415181 5.86131 0
M  V30 3644 H 340.695 -0.489688 6.08633 0
M  V30 3645 H 342.109 1.69814 5.47573 0
M  V30 3646 H 340.506 2.48918 5.4604 0
M  V30 3647 H 341.576 2.65622 4.05676 0
M  V30 3648 N 342.919 -1.39368 0.735821 0
M  V30 3649 C 343.849 -2.33234 0.111506 0
M  V30 3650 C 344.83 -1.53954 -0.723334 0
M  V30 3651 O 346.015 -1.82344 -0.668147 0
M  V30 3652 C 343.145 -3.38057 -0.795917 0
M  V30 3653 C 342.099 -4.2795 -0.065172 0
M  V30 3654 C 341.425 -5.23479 -1.08967 0
M  V30 3655 C 342.725 -5.10741 1.09273 0
M  V30 3656 H 344.419 -2.85692 0.895571 0
M  V30 3657 H 341.965 -1.37364 0.432109 0
M  V30 3658 H 343.918 -4.02675 -1.24221 0
M  V30 3659 H 342.642 -2.8404 -1.61211 0
M  V30 3660 H 341.301 -3.64813 0.361511 0
M  V30 3661 H 340.949 -4.65758 -1.89944 0
M  V30 3662 H 340.649 -5.84472 -0.605489 0
M  V30 3663 H 342.173 -5.90974 -1.53565 0
M  V30 3664 H 343.587 -5.68699 0.724841 0
M  V30 3665 H 341.984 -5.8088 1.50659 0
M  V30 3666 H 343.054 -4.45525 1.91404 0
M  V30 3667 N 344.397 -0.483516 -1.5 0
M  V30 3668 C 345.808 -0.0314176 -1.86674 0
M  V30 3669 C 346.159 1.37728 -1.39733 0
M  V30 3670 O 345.284 2.02327 -0.767635 0
M  V30 3671 C 345.879 -0.0502376 -3.38763 0
M  V30 3672 C 344.438 0.346442 -3.74802 0
M  V30 3673 C 343.585 -0.430366 -2.7394 0
M  V30 3674 H 346.536 -0.697182 -1.42566 0
M  V30 3675 H 346.557 0.749116 -3.73053 0
M  V30 3676 H 346.069 -1.07563 -3.72897 0
M  V30 3677 H 344.17 1.37572 -3.46273 0
M  V30 3678 H 344.283 0.0391486 -4.79084 0
M  V30 3679 H 342.647 0.117557 -2.54429 0
M  V30 3680 H 343.43 -1.4555 -3.10918 0
M  V30 3681 N 345.875 1.56104 -0.216619 0
M  V30 3682 C 346.807 2.17339 0.72776 0
M  V30 3683 C 347.82 1.14109 1.16116 0
M  V30 3684 O 349.009 1.4111 1.09317 0
M  V30 3685 C 346.109 2.73818 1.99693 0
M  V30 3686 C 345.282 4.02168 1.71988 0
M  V30 3687 C 344.341 4.43259 2.83562 0
M  V30 3688 O 343.367 5.10257 2.52244 0
M  V30 3689 N 344.569 4.08535 4.12407 0
M  V30 3690 H 347.334 2.99005 0.203983 0
M  V30 3691 H 344.895 1.61861 -0.0354289 0
M  V30 3692 H 346.887 2.9828 2.73516 0
M  V30 3693 H 345.457 1.96483 2.43132 0
M  V30 3694 H 344.677 3.85612 0.818337 0
M  V30 3695 H 345.965 4.85907 1.50903 0
M  V30 3696 H 345.363 3.54687 4.40696 0
M  V30 3697 H 343.92 4.37901 4.8279 0
M  V30 3698 N 347.353 -0.0568162 1.57498 0
M  V30 3699 C 348.764 -0.606858 1.76562 0
M  V30 3700 C 349.115 -1.77114 0.844094 0
M  V30 3701 O 348.24 -2.16376 0.0318911 0
M  V30 3702 C 348.835 -1.10766 3.20182 0
M  V30 3703 C 347.394 -1.60344 3.40539 0
M  V30 3704 C 346.541 -0.529311 2.72201 0
M  V30 3705 H 349.492 0.169393 1.57793 0
M  V30 3706 H 349.513 -1.97602 3.25167 0
M  V30 3707 H 349.025 -0.26006 3.87228 0
M  V30 3708 H 347.126 -2.47379 2.78629 0
M  V30 3709 H 347.239 -1.67006 4.4905 0
M  V30 3710 H 345.603 -0.977893 2.35179 0
M  V30 3711 H 346.386 0.308352 3.41912 0
M  V30 3712 N 348.832 -1.54138 -0.328536 0
M  V30 3713 C 350.109 -1.62749 -1.08499 0
M  V30 3714 C 350.489 -0.458198 -2.06067 0
M  V30 3715 O 349.837 0.548046 -2.2183 0
M  V30 3716 C 350.047 -2.99519 -1.79135 0
M  V30 3717 C 351.395 -3.55394 -2.32337 0
M  V30 3718 O 352.419 -3.01792 -1.89209 0
M  V30 3719 O 351.278 -4.49186 -3.11279 0
M  V30 3720 H 348.372 -0.65886 -0.499832 0
M  V30 3721 H 350.918 -1.66484 -0.328826 0
M  V30 3722 H 349.69 -3.76061 -1.08139 0
M  V30 3723 H 349.313 -2.99441 -2.61574 0
M  V30 3724 N 350.31 0.590341 -1.46126 0
M  V30 3725 C 351.24 1.71032 -1.58966 0
M  V30 3726 C 352.221 1.64302 -0.440335 0
M  V30 3727 O 353.406 1.82436 -0.665634 0
M  V30 3728 C 350.536 3.09665 -1.57241 0
M  V30 3729 C 349.49 3.31221 -2.71066 0
M  V30 3730 C 348.816 4.70303 -2.54399 0
M  V30 3731 C 350.116 3.19796 -4.1295 0
M  V30 3732 H 351.81 1.60543 -2.52718 0
M  V30 3733 H 349.356 0.770933 -1.21625 0
M  V30 3734 H 351.309 3.87831 -1.64819 0
M  V30 3735 H 350.033 3.21036 -0.600289 0
M  V30 3736 H 348.692 2.55452 -2.62944 0
M  V30 3737 H 348.34 4.78429 -1.55288 0
M  V30 3738 H 348.04 4.85679 -3.30741 0
M  V30 3739 H 349.564 5.50647 -2.63857 0
M  V30 3740 H 350.978 3.87815 -4.22223 0
M  V30 3741 H 349.375 3.46696 -4.89818 0
M  V30 3742 H 350.445 2.16983 -4.33643 0
M  V30 3743 N 351.788 1.33704 0.83433 0
M  V30 3744 C 353.204 1.13137 1.12571 0
M  V30 3745 C 353.404 -0.0747261 2.01361 0
M  V30 3746 O 352.46 -0.753647 2.4099 0
M  V30 3747 C 353.773 2.42105 1.78342 0
M  V30 3748 C 355.321 2.48054 1.90888 0
M  V30 3749 C 355.796 3.76995 2.60075 0
M  V30 3750 N 357.287 3.78092 2.67584 0
M  V30 3751 C 358.022 4.74574 3.21818 0
M  V30 3752 N 357.518 5.81434 3.76705 0
M  V30 3753 N 359.311 4.62044 3.20112 0
M  V30 3754 H 351.462 2.11 0.243489 0
M  V30 3755 H 353.725 0.932532 0.17055 0
M  V30 3756 H 353.431 3.30391 1.20561 0
M  V30 3757 H 353.305 2.54594 2.7832 0
M  V30 3758 H 355.692 1.60215 2.47821 0
M  V30 3759 H 355.773 2.39502 0.898459 0
M  V30 3760 H 355.417 4.65219 2.03799 0
M  V30 3761 H 355.347 3.82825 3.61597 0
M  V30 3762 H 357.838 3.00865 2.28667 0
M  V30 3763 H 358.151 6.51084 4.16305 0
M  V30 3764 H 356.496 5.85163 3.7498 0
M  V30 3765 H 359.687 3.77716 2.76493 0
M  V30 3766 H 359.86 5.37406 3.62076 0
M  V30 3767 N 353.266 -1.05314 1.17247 0
M  V30 3768 C 354.496 -1.81707 0.983166 0
M  V30 3769 C 354.904 -1.83222 -0.471822 0
M  V30 3770 O 354.247 -1.25721 -1.3394 0
M  V30 3771 C 354.309 -3.29134 1.44606 0
M  V30 3772 C 353.973 -3.51304 2.92292 0
M  V30 3773 C 354.97 -3.4353 3.90235 0
M  V30 3774 C 352.655 -3.78306 3.30439 0
M  V30 3775 C 354.649 -3.62442 5.24323 0
M  V30 3776 C 352.336 -3.96866 4.64694 0
M  V30 3777 C 353.334 -3.88933 5.61445 0
M  V30 3778 O 353.022 -4.06976 6.93272 0
M  V30 3779 H 352.754 -0.579476 0.348114 0
M  V30 3780 H 355.308 -1.33705 1.55924 0
M  V30 3781 H 353.538 -3.78046 0.813537 0
M  V30 3782 H 355.227 -3.87049 1.22262 0
M  V30 3783 H 355.993 -3.22648 3.62109 0
M  V30 3784 H 351.872 -3.83585 2.55702 0
M  V30 3785 H 355.416 -3.56165 5.99827 0
M  V30 3786 H 351.313 -4.1724 4.92525 0
M  V30 3787 H 352.081 -4.24209 6.99992 0
M  V30 3788 N 354.744 -0.972509 -1.24016 0
M  V30 3789 C 355.674 -0.525548 -2.27509 0
M  V30 3790 C 356.655 0.437262 -1.64384 0
M  V30 3791 O 357.84 0.332343 -1.91335 0
M  V30 3792 C 354.97 0.180448 -3.46831 0
M  V30 3793 C 353.924 -0.698859 -4.22256 0
M  V30 3794 C 353.25 0.138903 -5.3452 0
M  V30 3795 C 354.55 -1.98582 -4.83076 0
M  V30 3796 H 356.244 -1.39058 -2.65148 0
M  V30 3797 H 353.79 -0.67009 -1.27459 0
M  V30 3798 H 355.743 0.504387 -4.18371 0
M  V30 3799 H 354.467 1.07987 -3.08231 0
M  V30 3800 H 353.126 -1.00614 -3.52523 0
M  V30 3801 H 352.774 1.03862 -4.9216 0
M  V30 3802 H 352.474 -0.446259 -5.85903 0
M  V30 3803 H 353.998 0.457404 -6.08884 0
M  V30 3804 H 355.412 -1.72715 -5.46665 0
M  V30 3805 H 353.809 -2.5181 -5.44713 0
M  V30 3806 H 354.879 -2.67769 -4.04262 0
M  V30 3807 N 356.222 1.38976 -0.743202 0
M  V30 3808 C 357.469 2.00343 -0.294752 0
M  V30 3809 C 357.797 1.58983 1.12047 0
M  V30 3810 O 357.052 0.813809 1.77977 0
M  V30 3811 C 357.351 3.55647 -0.353517 0
M  V30 3812 C 357.017 4.16685 -1.72292 0
M  V30 3813 C 355.679 4.3307 -2.09771 0
M  V30 3814 C 358.031 4.50464 -2.62168 0
M  V30 3815 C 355.359 4.80526 -3.36618 0
M  V30 3816 C 357.711 4.99332 -3.88395 0
M  V30 3817 C 356.375 5.13924 -4.25956 0
M  V30 3818 H 355.645 0.733108 -0.107857 0
M  V30 3819 H 358.292 1.6618 -0.951651 0
M  V30 3820 H 356.597 3.89884 0.386954 0
M  V30 3821 H 358.294 4.00998 0.0117269 0
M  V30 3822 H 354.884 4.04339 -1.42155 0
M  V30 3823 H 359.068 4.37416 -2.3448 0
M  V30 3824 H 354.324 4.90008 -3.65653 0
M  V30 3825 H 358.498 5.2444 -4.58187 0
M  V30 3826 H 356.125 5.50457 -5.2431 0
M  V30 3827 N 357.7 0.491464 1.49741 0
M  V30 3828 C 358.63 -0.28154 2.31796 0
M  V30 3829 C 359.611 -0.971473 1.3963 0
M  V30 3830 O 360.796 -0.964719 1.68543 0
M  V30 3831 C 357.926 -1.35203 3.19902 0
M  V30 3832 C 356.88 -0.782529 4.20786 0
M  V30 3833 C 356.206 -1.95283 4.97764 0
M  V30 3834 C 357.506 0.21999 5.21837 0
M  V30 3835 H 359.2 0.403355 2.96671 0
M  V30 3836 H 356.746 0.195425 1.42668 0
M  V30 3837 H 358.699 -1.90045 3.76113 0
M  V30 3838 H 357.423 -2.06598 2.52953 0
M  V30 3839 H 356.082 -0.255928 3.65706 0
M  V30 3840 H 355.73 -2.65423 4.2727 0
M  V30 3841 H 355.43 -1.57789 5.66018 0
M  V30 3842 H 356.954 -2.50577 5.56816 0
M  V30 3843 H 358.368 -0.23996 5.72798 0
M  V30 3844 H 356.765 0.51026 5.97927 0
M  V30 3845 H 357.835 1.13911 4.7133 0
M  V30 3846 N 359.178 -1.55987 0.224894 0
M  V30 3847 C 360.126 -2.21808 -0.700283 0
M  V30 3848 C 361.12 -1.19854 -1.19714 0
M  V30 3849 O 362.326 -1.37925 -1.15658 0
M  V30 3850 H 358.701 -0.711226 -0.244258 0
M  V30 3851 H 360.672 -2.98152 -0.121749 0
M  V30 3852 C 359.421 -2.91444 -1.8962 0
M  V30 3853 H 358.744 -3.69655 -1.52299 0
M  V30 3854 H 360.184 -3.40894 -2.52125 0
M  V30 3855 C 358.643 -1.94098 -2.75368 0
M  V30 3856 O 359.173 -1.46004 -3.74227 0
M  V30 3857 N 357.379 -1.61675 -2.41474 0
M  V30 3858 H 356.926 -2.00979 -1.61137 0
M  V30 3859 H 356.884 -0.968036 -2.99126 0
M  V30 3860 N 360.656 0.0484629 -1.57525 0
M  V30 3861 C 361.904 0.741657 -1.88 0
M  V30 3862 C 362.225 1.76918 -0.820054 0
M  V30 3863 O 361.495 1.95335 0.148661 0
M  V30 3864 H 360.075 0.276908 -0.69378 0
M  V30 3865 H 362.737 0.019013 -1.94891 0
M  V30 3866 H 361.833 1.24336 -2.86264 0
M  V30 3867 N 362.134 1.5431 0.320358 0
M  V30 3868 C 363.082 1.84647 1.4145 0
M  V30 3869 C 364.076 0.718624 1.53402 0
M  V30 3870 O 365.282 0.902335 1.5575 0
M  V30 3871 H 361.657 0.585349 0.472091 0
M  V30 3872 H 363.628 2.7614 1.13089 0
M  V30 3873 C 362.377 2.09341 2.77617 0
M  V30 3874 H 361.7 2.9559 2.69196 0
M  V30 3875 H 363.14 2.3452 3.53237 0
M  V30 3876 C 361.599 0.885939 3.25043 0
M  V30 3877 O 362.129 0.0967891 4.01583 0
M  V30 3878 N 360.335 0.696682 2.82125 0
M  V30 3879 H 359.882 1.34006 2.2 0
M  V30 3880 H 359.84 -0.109712 3.14209 0
M  V30 3881 N 363.613 -0.582584 1.46437 0
M  V30 3882 C 364.56 -1.69164 1.5701 0
M  V30 3883 C 365.53 -1.60847 0.414403 0
M  V30 3884 O 366.715 -1.80058 0.631171 0
M  V30 3885 C 363.855 -3.075 1.56646 0
M  V30 3886 C 362.968 -3.2644 2.82951 0
M  V30 3887 C 362.103 -4.55026 2.7409 0
M  V30 3888 C 361.142 -4.6731 3.95333 0
M  V30 3889 N 360.279 -5.87221 3.84858 0
M  V30 3890 H 365.119 -1.59464 2.51744 0
M  V30 3891 H 362.656 -0.777186 1.24893 0
M  V30 3892 H 364.614 -3.8757 1.5442 0
M  V30 3893 H 363.244 -3.16096 0.654439 0
M  V30 3894 H 362.296 -2.39974 2.95155 0
M  V30 3895 H 363.608 -3.31385 3.72808 0
M  V30 3896 H 362.762 -5.43324 2.6997 0
M  V30 3897 H 361.501 -4.52519 1.81873 0
M  V30 3898 H 360.506 -3.77429 3.99784 0
M  V30 3899 H 361.731 -4.71595 4.88646 0
M  V30 3900 H 359.677 -5.85712 2.95427 0
M  V30 3901 H 359.594 -5.93435 4.6837 0
M  V30 3902 H 360.862 -6.7795 3.84713 0
M  V30 3903 N 365.091 -1.34144 -0.827227 0
M  V30 3904 C 366.021 -1.28005 -1.95287 0
M  V30 3905 C 367.002 -0.158321 -1.69362 0
M  V30 3906 O 368.187 -0.349987 -1.9102 0
M  V30 3907 C 365.317 -1.03036 -3.31664 0
M  V30 3908 C 364.271 -2.11628 -3.72019 0
M  V30 3909 C 363.597 -1.71854 -5.0633 0
M  V30 3910 C 364.897 -3.53417 -3.8457 0
M  V30 3911 H 366.591 -2.22187 -2.00682 0
M  V30 3912 H 364.137 -1.0696 -0.964135 0
M  V30 3913 H 366.09 -0.973863 -4.09993 0
M  V30 3914 H 364.814 -0.0529391 -3.26557 0
M  V30 3915 H 363.473 -2.16339 -2.95961 0
M  V30 3916 H 363.121 -0.727841 -4.97706 0
M  V30 3917 H 362.821 -2.44531 -5.34302 0
M  V30 3918 H 364.345 -1.67692 -5.87122 0
M  V30 3919 H 365.759 -3.51142 -4.5318 0
M  V30 3920 H 364.156 -4.24679 -4.2399 0
M  V30 3921 H 365.226 -3.91072 -2.86689 0
M  V30 3922 N 366.569 1.04691 -1.17803 0
M  V30 3923 C 367.532 2.10724 -0.901545 0
M  V30 3924 C 368.532 1.6042 0.110437 0
M  V30 3925 O 369.722 1.7377 -0.122303 0
M  V30 3926 C 366.854 3.39084 -0.351409 0
M  V30 3927 H 368.047 2.36686 -1.84174 0
M  V30 3928 H 365.6 1.21015 -0.98919 0
M  V30 3929 H 366.335 3.18782 0.59569 0
M  V30 3930 H 366.12 3.76909 -1.08083 0
M  V30 3931 H 367.61 4.17227 -0.176451 0
M  V30 3932 N 368.047 0.979072 1.23499 0
M  V30 3933 C 369.463 0.687475 1.44034 0
M  V30 3934 C 369.663 -0.746801 1.8715 0
M  V30 3935 O 368.719 -1.51939 2.0167 0
M  V30 3936 C 370.032 1.68127 2.49307 0
M  V30 3937 C 371.58 1.69516 2.63122 0
M  V30 3938 C 372.055 2.67723 3.71603 0
M  V30 3939 N 373.546 2.66233 3.79044 0
M  V30 3940 C 374.281 3.38891 4.62537 0
M  V30 3941 N 373.777 4.21103 5.50131 0
M  V30 3942 N 375.57 3.27661 4.56721 0
M  V30 3943 H 367.721 1.90559 0.938135 0
M  V30 3944 H 369.984 0.821051 0.473897 0
M  V30 3945 H 369.69 2.70693 2.2454 0
M  V30 3946 H 369.564 1.46306 3.4767 0
M  V30 3947 H 371.951 0.676561 2.8724 0
M  V30 3948 H 372.032 1.95404 1.65079 0
M  V30 3949 H 371.676 3.69724 3.48233 0
M  V30 3950 H 371.606 2.39111 4.69184 0
M  V30 3951 H 374.097 2.06568 3.16446 0
M  V30 3952 H 374.41 4.73403 6.10827 0
M  V30 3953 H 372.755 4.25195 5.49759 0
M  V30 3954 H 375.946 2.62887 3.87309 0
M  V30 3955 H 376.119 3.84547 5.21562 0
M  V30 3956 N 369.525 -1.3858 0.750561 0
M  V30 3957 C 370.771 -2.00481 0.305825 0
M  V30 3958 C 371.104 -1.5944 -1.10872 0
M  V30 3959 O 370.379 -0.83052 -1.75877 0
M  V30 3960 C 370.662 -3.5758 0.425287 0
M  V30 3961 C 370.515 -4.08594 1.88072 0
M  V30 3962 C 371.834 -4.39719 -0.183122 0
M  V30 3963 H 368.953 -0.728348 0.112598 0
M  V30 3964 H 371.595 -1.64566 0.949638 0
M  V30 3965 H 369.745 -3.88306 -0.122828 0
M  V30 3966 H 371.417 -3.88523 2.48691 0
M  V30 3967 H 369.66 -3.61574 2.39681 0
M  V30 3968 H 370.331 -5.177 1.91548 0
M  V30 3969 H 372.807 -4.15128 0.284303 0
M  V30 3970 H 371.683 -5.48856 -0.0692757 0
M  V30 3971 H 371.944 -4.23434 -1.27106 0
M  V30 3972 N 371.003 -0.499398 -1.49478 0
M  V30 3973 C 371.966 0.268838 -2.27618 0
M  V30 3974 C 372.966 0.895383 -1.33565 0
M  V30 3975 O 374.156 0.760164 -1.56739 0
M  V30 3976 C 371.288 1.38559 -3.11471 0
M  V30 3977 H 372.481 -0.416812 -2.96989 0
M  V30 3978 H 370.034 -0.254313 -1.54217 0
M  V30 3979 H 370.769 2.10544 -2.46661 0
M  V30 3980 H 370.554 0.941797 -3.80621 0
M  V30 3981 H 372.044 1.92678 -3.70493 0
M  V30 3982 N 372.481 1.55866 -0.233164 0
M  V30 3983 C 373.444 2.1953 0.658715 0
M  V30 3984 C 374.444 1.16053 1.11303 0
M  V30 3985 O 375.634 1.41218 1.01996 0
M  V30 3986 C 372.766 2.82791 1.90373 0
M  V30 3987 H 373.959 2.99721 0.10347 0
M  V30 3988 H 371.512 1.56291 0.0164245 0
M  V30 3989 H 372.247 2.06501 2.50056 0
M  V30 3990 H 372.032 3.58578 1.58632 0
M  V30 3991 H 373.522 3.31556 2.53891 0
M  V30 3992 N 373.959 -0.0401083 1.57549 0
M  V30 3993 C 375.207 -0.731677 1.8839 0
M  V30 3994 C 375.528 -1.76481 0.829425 0
M  V30 3995 O 374.798 -1.95411 -0.1383 0
M  V30 3996 H 373.378 -0.273225 0.695239 0
M  V30 3997 H 376.04 -0.00867725 1.94898 0
M  V30 3998 H 375.136 -1.22816 2.86919 0
M  V30 3999 N 375.437 -1.54477 -0.31217 0
M  V30 4000 C 376.4 -1.83923 -1.36766 0
M  V30 4001 C 377.4 -0.711563 -1.44199 0
M  V30 4002 O 378.59 -0.979866 -1.44029 0
M  V30 4003 C 375.722 -2.0095 -2.75376 0
M  V30 4004 H 376.915 -2.78239 -1.11906 0
M  V30 4005 H 374.468 -1.46369 -0.548257 0
M  V30 4006 H 375.203 -1.08883 -3.05475 0
M  V30 4007 H 374.988 -2.83018 -2.71373 0
M  V30 4008 H 376.478 -2.2514 -3.51713 0
M  V30 4009 N 376.915 0.57481 -1.46744 0
M  V30 4010 C 378.162 1.33272 -1.52462 0
M  V30 4011 C 378.49 1.93669 -0.179572 0
M  V30 4012 O 377.745 1.7743 0.825664 0
M  V30 4013 C 378.044 2.476 -2.57738 0
M  V30 4014 C 377.71 2.05146 -4.01529 0
M  V30 4015 C 376.372 1.93284 -4.40676 0
M  V30 4016 C 378.724 1.72506 -4.91824 0
M  V30 4017 C 376.052 1.47049 -5.67973 0
M  V30 4018 C 378.404 1.27748 -6.19567 0
M  V30 4019 C 377.068 1.14468 -6.57612 0
M  V30 4020 H 376.338 0.487678 -0.557899 0
M  V30 4021 H 378.985 0.646456 -1.80259 0
M  V30 4022 H 377.29 3.21708 -2.23632 0
M  V30 4023 H 378.987 3.05807 -2.5939 0
M  V30 4024 H 375.577 2.15316 -3.7059 0
M  V30 4025 H 379.761 1.80552 -4.62293 0
M  V30 4026 H 375.017 1.35417 -5.96215 0
M  V30 4027 H 379.191 1.01547 -6.88957 0
M  V30 4028 H 376.818 0.78419 -7.56145 0
M  V30 4029 N 378.394 1.34581 0.820102 0
M  V30 4030 C 379.326 1.22236 1.93884 0
M  V30 4031 C 380.339 0.148776 1.62119 0
M  V30 4032 O 381.528 0.400877 1.7394 0
M  V30 4033 C 378.628 0.856542 3.27897 0
M  V30 4034 C 377.801 2.02569 3.87666 0
M  V30 4035 C 376.86 1.63782 5.00062 0
M  V30 4036 O 375.886 2.35477 5.18208 0
M  V30 4037 N 377.088 0.553611 5.77854 0
M  V30 4038 H 379.853 2.18615 2.05006 0
M  V30 4039 H 377.414 1.27573 0.99683 0
M  V30 4040 H 379.406 0.578806 4.0054 0
M  V30 4041 H 377.976 -0.0171518 3.12595 0
M  V30 4042 H 377.196 2.468 3.07382 0
M  V30 4043 H 378.484 2.80752 4.24329 0
M  V30 4044 H 377.882 -0.0423528 5.65684 0
M  V30 4045 H 376.439 0.335614 6.50935 0
M  V30 4046 N 379.872 -1.04064 1.18357 0
M  V30 4047 C 381.12 -1.76915 0.977013 0
M  V30 4048 C 381.441 -1.88624 -0.494577 0
M  V30 4049 O 380.711 -1.41125 -1.3587 0
M  V30 4050 H 379.291 -0.65535 0.358504 0
M  V30 4051 H 381.953 -1.25592 1.49039 0
M  V30 4052 H 381.049 -2.78178 1.41504 0
M  V30 4053 N 381.35 -0.985608 -1.22978 0
M  V30 4054 C 382.28 -0.549649 -2.26939 0
M  V30 4055 C 383.261 0.419803 -1.64838 0
M  V30 4056 O 384.446 0.31203 -1.91677 0
M  V30 4057 C 381.576 0.143652 -3.47003 0
M  V30 4058 C 380.53 -0.743606 -4.21491 0
M  V30 4059 C 379.856 0.0822027 -5.34637 0
M  V30 4060 C 381.156 -2.03694 -4.80943 0
M  V30 4061 H 382.85 -1.41862 -2.63658 0
M  V30 4062 H 380.396 -0.683571 -1.26741 0
M  V30 4063 H 382.349 0.459985 -4.18882 0
M  V30 4064 H 381.073 1.04711 -3.09359 0
M  V30 4065 H 379.732 -1.04347 -3.51436 0
M  V30 4066 H 379.38 0.986359 -4.93234 0
M  V30 4067 H 379.08 -0.508377 -5.85397 0
M  V30 4068 H 380.604 0.392797 -6.09335 0
M  V30 4069 H 382.018 -1.78504 -5.44802 0
M  V30 4070 H 380.415 -2.57573 -5.42011 0
M  V30 4071 H 381.485 -2.72042 -4.01399 0
M  V30 4072 N 382.828 1.3818 -0.7579 0
M  V30 4073 C 384.244 1.5353 -0.435972 0
M  V30 4074 C 384.444 1.71961 1.05032 0
M  V30 4075 O 383.5 1.73307 1.83633 0
M  V30 4076 C 384.813 2.73989 -1.23898 0
M  V30 4077 C 386.361 2.87841 -1.22949 0
M  V30 4078 C 386.836 4.11266 -2.01554 0
M  V30 4079 N 388.327 4.18352 -1.98837 0
M  V30 4080 C 389.062 5.12856 -2.5645 0
M  V30 4081 N 388.558 6.13005 -3.22794 0
M  V30 4082 N 390.351 5.05238 -2.46356 0
M  V30 4083 H 382.502 1.24467 -1.7211 0
M  V30 4084 H 384.765 0.604982 -0.729864 0
M  V30 4085 H 384.471 2.66789 -2.29165 0
M  V30 4086 H 384.345 3.67294 -0.858764 0
M  V30 4087 H 386.732 2.9452 -0.184854 0
M  V30 4088 H 386.813 1.95534 -1.64924 0
M  V30 4089 H 386.457 4.05349 -3.06031 0
M  V30 4090 H 386.387 5.02661 -1.5697 0
M  V30 4091 H 388.878 3.46628 -1.50524 0
M  V30 4092 H 389.191 6.81619 -3.64165 0
M  V30 4093 H 387.536 6.13325 -3.2689 0
M  V30 4094 H 390.727 4.25938 -1.9415 0
M  V30 4095 H 390.9 5.78707 -2.91552 0
M  V30 4096 N 384.306 0.507319 1.49211 0
M  V30 4097 C 385.238 -0.304532 2.27168 0
M  V30 4098 C 386.251 -0.924956 1.33972 0
M  V30 4099 O 387.44 -0.807227 1.59205 0
M  V30 4100 C 384.54 -1.44431 3.06583 0
M  V30 4101 C 383.713 -0.930026 4.27398 0
M  V30 4102 C 382.772 -1.94817 4.88807 0
M  V30 4103 O 381.798 -1.51418 5.4869 0
M  V30 4104 N 383 -3.279 4.79022 0
M  V30 4105 H 385.765 0.36395 2.97482 0
M  V30 4106 H 383.326 0.340249 1.58284 0
M  V30 4107 H 385.318 -2.12311 3.44537 0
M  V30 4108 H 383.888 -2.01684 2.38835 0
M  V30 4109 H 383.108 -0.0759244 3.94127 0
M  V30 4110 H 384.396 -0.564932 5.05654 0
M  V30 4111 H 383.794 -3.65843 4.3148 0
M  V30 4112 H 382.351 -3.91476 5.21142 0
M  V30 4113 N 385.784 -1.5574 0.241426 0
M  V30 4114 C 386.714 -2.24133 -0.654722 0
M  V30 4115 C 387.695 -1.21974 -1.1856 0
M  V30 4116 O 388.88 -1.50612 -1.22595 0
M  V30 4117 C 386.01 -2.93659 -1.85423 0
M  V30 4118 C 384.964 -4.0246 -1.45636 0
M  V30 4119 C 384.29 -4.59383 -2.73626 0
M  V30 4120 C 385.59 -5.18468 -0.631506 0
M  V30 4121 H 387.284 -2.99281 -0.0844353 0
M  V30 4122 H 384.83 -1.43947 -0.0391707 0
M  V30 4123 H 386.783 -3.40203 -2.48676 0
M  V30 4124 H 385.507 -2.15991 -2.44981 0
M  V30 4125 H 384.166 -3.56676 -0.847202 0
M  V30 4126 H 383.814 -3.78422 -3.3137 0
M  V30 4127 H 383.514 -5.32826 -2.4773 0
M  V30 4128 H 385.038 -5.08658 -3.37786 0
M  V30 4129 H 386.452 -5.61272 -1.1682 0
M  V30 4130 H 384.849 -5.98266 -0.468831 0
M  V30 4131 H 385.919 -4.8358 0.357506 0
M  V30 4132 N 387.262 0.0317525 -1.57568 0
M  V30 4133 C 388.539 0.758366 -1.803 0
M  V30 4134 C 388.919 1.93718 -0.838845 0
M  V30 4135 O 388.267 2.28187 0.119571 0
M  V30 4136 C 388.477 1.19392 -3.27943 0
M  V30 4137 C 389.825 1.61094 -3.92854 0
M  V30 4138 O 390.849 1.28857 -3.32076 0
M  V30 4139 O 389.708 2.20918 -4.99858 0
M  V30 4140 H 386.802 0.366514 -0.741348 0
M  V30 4141 H 389.348 0.00873765 -1.69698 0
M  V30 4142 H 388.12 0.352275 -3.89711 0
M  V30 4143 H 387.743 2.00365 -3.43424 0
M  V30 4144 N 388.74 1.54641 0.303973 0
M  V30 4145 C 389.673 1.80263 1.3993 0
M  V30 4146 C 390.651 0.653657 1.48883 0
M  V30 4147 O 391.835 0.893284 1.6599 0
M  V30 4148 C 388.962 1.9367 2.77866 0
M  V30 4149 C 388.008 3.16078 2.86351 0
M  V30 4150 S 388.841 4.74219 2.4875 0
M  V30 4151 C 389.997 4.90558 3.88721 0
M  V30 4152 H 390.23 2.72886 1.17986 0
M  V30 4153 H 387.763 1.46014 0.501918 0
M  V30 4154 H 389.721 2.0208 3.57315 0
M  V30 4155 H 388.382 1.01991 2.9708 0
M  V30 4156 H 387.575 3.22252 3.87517 0
M  V30 4157 H 387.177 3.06099 2.14893 0
M  V30 4158 H 389.469 4.74398 4.83687 0
M  V30 4159 H 390.412 5.92651 3.87518 0
M  V30 4160 H 390.82 4.18728 3.78585 0
M  V30 4161 N 390.218 -0.567019 1.47046 0
M  V30 4162 C 391.148 -1.68482 1.61667 0
M  V30 4163 C 392.129 -1.6358 0.466418 0
M  V30 4164 O 393.314 -1.81354 0.694574 0
M  V30 4165 C 390.444 -3.07124 1.62148 0
M  V30 4166 C 389.398 -3.26867 2.76301 0
M  V30 4167 C 388.724 -4.66196 2.61849 0
M  V30 4168 C 390.024 -3.13186 4.17986 0
M  V30 4169 H 391.718 -1.56502 2.5524 0
M  V30 4170 H 389.264 -0.751486 1.22836 0
M  V30 4171 H 391.217 -3.8516 1.70968 0
M  V30 4172 H 389.941 -3.2004 0.651287 0
M  V30 4173 H 388.6 -2.51237 2.66975 0
M  V30 4174 H 388.248 -4.75898 1.62879 0
M  V30 4175 H 387.948 -4.80356 3.38425 0
M  V30 4176 H 389.472 -5.46379 2.72584 0
M  V30 4177 H 390.886 -3.81049 4.2834 0
M  V30 4178 H 389.283 -3.3886 4.95272 0
M  V30 4179 H 390.353 -2.10057 4.3704 0
M  V30 4180 N 391.696 -1.35014 -0.812953 0
M  V30 4181 C 392.973 -1.18502 -1.55617 0
M  V30 4182 C 393.353 0.238421 -2.09749 0
M  V30 4183 O 392.701 1.2411 -1.91857 0
M  V30 4184 C 392.911 -2.24783 -2.66971 0
M  V30 4185 C 394.259 -2.60268 -3.35478 0
M  V30 4186 O 395.283 -2.23648 -2.77236 0
M  V30 4187 O 394.142 -3.2321 -4.40678 0
M  V30 4188 H 391.236 -0.459984 -0.687272 0
M  V30 4189 H 393.782 -1.46677 -0.853464 0
M  V30 4190 H 392.554 -3.20284 -2.24798 0
M  V30 4191 H 392.177 -1.97841 -3.44884 0
M  V30 4192 N 393.175 1.03435 -1.18907 0
M  V30 4193 C 394.105 2.13503 -0.945448 0
M  V30 4194 C 395.086 1.69682 0.119189 0
M  V30 4195 O 396.271 1.94169 -0.034707 0
M  V30 4196 C 393.401 3.44004 -0.477316 0
M  V30 4197 C 392.355 4.0148 -1.48316 0
M  V30 4198 C 391.681 5.27537 -0.872311 0
M  V30 4199 C 392.981 4.36921 -2.86177 0
M  V30 4200 H 394.675 2.34141 -1.86597 0
M  V30 4201 H 392.221 1.12523 -0.898584 0
M  V30 4202 H 394.174 4.20372 -0.294204 0
M  V30 4203 H 392.898 3.23072 0.478786 0
M  V30 4204 H 391.557 3.27201 -1.65332 0
M  V30 4205 H 391.205 5.02917 0.0911752 0
M  V30 4206 H 390.905 5.66954 -1.54393 0
M  V30 4207 H 392.429 6.06576 -0.699871 0
M  V30 4208 H 393.843 5.04248 -2.72776 0
M  V30 4209 H 392.24 4.87405 -3.50081 0
M  V30 4210 H 393.31 3.46466 -3.39248 0
M  V30 4211 N 394.653 0.992116 1.22453 0
M  V30 4212 C 395.878 0.685644 1.95739 0
M  V30 4213 C 396.303 -0.743 1.72804 0
M  V30 4214 O 395.661 -1.50778 1.00676 0
M  V30 4215 C 395.709 0.996293 3.46564 0
M  V30 4216 O 394.813 0.0945512 4.12292 0
M  V30 4217 H 394.154 0.256694 0.612376 0
M  V30 4218 H 396.684 1.32888 1.5557 0
M  V30 4219 H 396.694 0.93781 3.97076 0
M  V30 4220 H 395.369 2.03733 3.62582 0
M  V30 4221 H 393.946 0.208451 3.72317 0
M  V30 4222 N 396.131 -1.37776 0.765217 0
M  V30 4223 C 397.079 -2.32209 0.134798 0
M  V30 4224 C 398.073 -1.54607 -0.692315 0
M  V30 4225 O 399.279 -1.70052 -0.590109 0
M  V30 4226 H 395.654 -0.751591 0.0248005 0
M  V30 4227 H 397.625 -2.8297 0.947119 0
M  V30 4228 C 396.374 -3.39841 -0.735063 0
M  V30 4229 H 395.697 -3.99654 -0.107991 0
M  V30 4230 H 397.137 -4.08296 -1.14326 0
M  V30 4231 C 395.596 -2.79378 -1.88281 0
M  V30 4232 O 396.126 -2.69608 -2.97783 0
M  V30 4233 N 394.332 -2.37016 -1.68142 0
M  V30 4234 H 393.879 -2.45162 -0.790772 0
M  V30 4235 H 393.837 -1.96905 -2.45104 0
M  V30 4236 N 397.609 -0.515225 -1.4894 0
M  V30 4237 C 398.557 0.269115 -2.31038 0
M  V30 4238 C 399.551 0.949443 -1.40292 0
M  V30 4239 O 400.757 0.87551 -1.57273 0
M  V30 4240 H 397.132 0.10565 -0.744542 0
M  V30 4241 H 399.103 -0.443096 -2.95092 0
M  V30 4242 C 397.852 1.31213 -3.21991 0
M  V30 4243 H 397.175 0.798034 -3.91754 0
M  V30 4244 H 398.615 1.83263 -3.82349 0
M  V30 4245 C 397.074 2.33791 -2.42576 0
M  V30 4246 O 397.604 3.3995 -2.14003 0
M  V30 4247 N 395.81 2.06625 -2.0434 0
M  V30 4248 H 395.357 1.20314 -2.27777 0
M  V30 4249 H 395.315 2.75483 -1.51514 0
M  V30 4250 N 399.087 1.5561 -0.249682 0
M  V30 4251 C 400.312 2.03865 0.381305 0
M  V30 4252 C 400.737 1.12769 1.50548 0
M  V30 4253 O 400.095 0.121189 1.80895 0
M  V30 4254 C 400.143 3.50101 0.863816 0
M  V30 4255 O 399.247 3.62132 1.97318 0
M  V30 4256 H 398.588 0.658827 0.0827194 0
M  V30 4257 H 401.118 2.01105 -0.376552 0
M  V30 4258 H 401.128 3.90975 1.1663 0
M  V30 4259 H 399.803 4.1588 0.0411816 0
M  V30 4260 H 398.38 3.33155 1.67517 0
M  V30 4261 N 400.565 -0.0233959 1.57583 0
M  V30 4262 C 401.495 -1.02162 2.09965 0
M  V30 4263 C 402.476 -1.3735 1.00344 0
M  V30 4264 O 403.661 -1.46135 1.27899 0
M  V30 4265 C 400.791 -2.32081 2.58371 0
M  V30 4266 C 399.745 -2.1112 3.72307 0
M  V30 4267 C 399.071 -3.46848 4.06941 0
M  V30 4268 C 400.371 -1.49276 5.00514 0
M  V30 4269 H 402.065 -0.585557 2.93618 0
M  V30 4270 H 399.611 -0.280218 1.41247 0
M  V30 4271 H 401.564 -3.02249 2.93639 0
M  V30 4272 H 400.288 -2.77758 1.71808 0
M  V30 4273 H 398.947 -1.43384 3.37397 0
M  V30 4274 H 398.595 -3.90184 3.17436 0
M  V30 4275 H 398.295 -3.33646 4.83688 0
M  V30 4276 H 399.819 -4.18369 4.44747 0
M  V30 4277 H 401.233 -2.09368 5.33702 0
M  V30 4278 H 399.63 -1.46632 5.8191 0
M  V30 4279 H 400.7 -0.459217 4.82721 0
M  V30 4280 N 402.043 -1.548 -0.295768 0
M  V30 4281 C 403.006 -1.85363 -1.34808 0
M  V30 4282 C 404.006 -0.726817 -1.43436 0
M  V30 4283 O 405.196 -0.995088 -1.42981 0
M  V30 4284 C 402.328 -2.03859 -2.73229 0
M  V30 4285 H 403.521 -2.7941 -1.08949 0
M  V30 4286 H 401.074 -1.46942 -0.532702 0
M  V30 4287 H 401.809 -1.12117 -3.04303 0
M  V30 4288 H 401.594 -2.8588 -2.68356 0
M  V30 4289 H 403.084 -2.28857 -3.49305 0
M  V30 4290 N 403.521 0.559213 -1.47345 0
M  V30 4291 C 404.746 1.34676 -1.57725 0
M  V30 4292 C 405.171 1.86723 -0.227164 0
M  V30 4293 O 404.529 1.6286 0.796642 0
M  V30 4294 C 404.577 2.49399 -2.60447 0
M  V30 4295 O 403.681 3.51567 -2.15578 0
M  V30 4296 H 403.022 0.400115 -0.52991 0
M  V30 4297 H 405.552 0.676009 -1.93109 0
M  V30 4298 H 405.562 2.95996 -2.80803 0
M  V30 4299 H 404.237 2.10873 -3.58477 0
M  V30 4300 H 402.814 3.11289 -2.05313 0
M  V30 4301 N 404.999 1.35443 0.805782 0
M  V30 4302 C 406.245 1.28952 1.56522 0
M  V30 4303 C 406.578 -0.135597 1.93726 0
M  V30 4304 O 405.853 -1.08516 1.61414 0
M  V30 4305 C 406.136 2.19678 2.85331 0
M  V30 4306 C 405.989 3.7081 2.54598 0
M  V30 4307 C 407.308 2.09495 3.8704 0
M  V30 4308 H 404.427 0.469764 0.567883 0
M  V30 4309 H 407.069 1.65851 0.927001 0
M  V30 4310 H 405.219 1.8834 3.39795 0
M  V30 4311 H 406.891 4.12593 2.06312 0
M  V30 4312 H 405.134 3.91051 1.8778 0
M  V30 4313 H 405.805 4.29679 3.46525 0
M  V30 4314 H 408.281 2.37045 3.41978 0
M  V30 4315 H 407.157 2.75173 4.74943 0
M  V30 4316 H 407.418 1.07714 4.28777 0
M  V30 4317 N 406.477 -1.02803 1.19454 0
M  V30 4318 C 407.888 -1.57667 0.999899 0
M  V30 4319 C 408.239 -1.91041 -0.446956 0
M  V30 4320 O 407.364 -1.70978 -1.32648 0
M  V30 4321 C 407.959 -2.86477 1.80877 0
M  V30 4322 C 406.518 -3.37911 1.65811 0
M  V30 4323 C 405.665 -2.11343 1.79526 0
M  V30 4324 H 408.616 -0.853214 1.33813 0
M  V30 4325 H 408.637 -3.57408 1.30536 0
M  V30 4326 H 408.149 -2.62155 2.86175 0
M  V30 4327 H 406.25 -3.67218 0.63102 0
M  V30 4328 H 406.363 -4.10885 2.46395 0
M  V30 4329 H 404.727 -2.23254 1.22596 0
M  V30 4330 H 405.51 -1.89461 2.86285 0
M  V30 4331 N 407.956 -0.998596 -1.21925 0
M  V30 4332 C 408.866 -0.562736 -2.27751 0
M  V30 4333 C 409.882 0.391203 -1.69545 0
M  V30 4334 O 411.058 0.256625 -1.99758 0
M  V30 4335 C 408.123 0.11012 -3.46525 0
M  V30 4336 C 407.184 -0.887495 -4.20026 0
M  V30 4337 C 406.417 -0.246654 -5.3313 0
M  V30 4338 O 406.64 0.958088 -5.62296 0
M  V30 4339 O 405.574 -0.954374 -5.94286 0
M  V30 4340 H 409.4 -1.44329 -2.67213 0
M  V30 4341 H 406.985 -0.767135 -1.28201 0
M  V30 4342 H 408.867 0.486756 -4.18579 0
M  V30 4343 H 407.542 0.965154 -3.08976 0
M  V30 4344 H 406.449 -1.31517 -3.5022 0
M  V30 4345 H 407.782 -1.71191 -4.6147 0
M  V30 4346 N 409.434 1.37368 -0.772513 0
M  V30 4347 C 410.682 1.99279 -0.336516 0
M  V30 4348 C 411.003 1.6163 1.09091 0
M  V30 4349 O 410.273 0.882109 1.74916 0
M  V30 4350 H 408.853 0.737063 -0.121435 0
M  V30 4351 H 411.515 1.67836 -0.990809 0
M  V30 4352 H 410.611 3.09332 -0.414763 0
M  V30 4353 N 410.912 0.523116 1.48665 0
M  V30 4354 C 411.842 -0.23231 2.32342 0
M  V30 4355 C 412.823 -0.941637 1.41659 0
M  V30 4356 O 414.008 -0.928751 1.70552 0
M  V30 4357 C 411.138 -1.28387 3.22698 0
M  V30 4358 C 410.092 -0.693098 4.22351 0
M  V30 4359 C 409.418 -1.8468 5.01794 0
M  V30 4360 C 410.718 0.33063 5.21252 0
M  V30 4361 H 412.412 0.466192 2.95748 0
M  V30 4362 H 409.958 0.225643 1.42221 0
M  V30 4363 H 411.911 -1.82024 3.80059 0
M  V30 4364 H 410.635 -2.01186 2.57278 0
M  V30 4365 H 409.294 -0.178299 3.66166 0
M  V30 4366 H 408.942 -2.56301 4.32804 0
M  V30 4367 H 408.642 -1.45747 5.69238 0
M  V30 4368 H 410.166 -2.38709 5.62006 0
M  V30 4369 H 411.58 -0.118407 5.73178 0
M  V30 4370 H 409.977 0.636974 5.9671 0
M  V30 4371 H 411.047 1.23883 4.68808 0
M  V30 4372 N 412.39 -1.55475 0.257931 0
M  V30 4373 C 413.636 -2.00237 -0.357338 0
M  V30 4374 C 413.991 -1.14313 -1.54759 0
M  V30 4375 O 413.284 -0.201187 -1.90541 0
M  V30 4376 C 413.478 -3.48183 -0.806433 0
M  V30 4377 C 413.307 -4.48422 0.338758 0
M  V30 4378 C 412.077 -4.98651 0.817011 0
M  V30 4379 C 414.275 -5.00827 1.16949 0
M  V30 4380 N 412.257 -5.82658 1.93346 0
M  V30 4381 C 413.628 -5.82113 2.13413 0
M  V30 4382 C 415.683 -4.83104 1.2048 0
M  V30 4383 C 414.386 -6.47566 3.13131 0
M  V30 4384 C 416.412 -5.49343 2.19034 0
M  V30 4385 C 415.774 -6.30427 3.14232 0
M  V30 4386 H 411.873 -0.776034 -0.0964083 0
M  V30 4387 H 414.457 -1.90995 0.37803 0
M  V30 4388 H 412.628 -3.57801 -1.51107 0
M  V30 4389 H 414.36 -3.79802 -1.39758 0
M  V30 4390 H 411.115 -4.71914 0.39925 0
M  V30 4391 H 411.539 -6.29356 2.49478 0
M  V30 4392 H 416.181 -4.20036 0.482634 0
M  V30 4393 H 413.899 -7.09793 3.8629 0
M  V30 4394 H 417.485 -5.37579 2.22485 0
M  V30 4395 H 416.365 -6.80777 3.89246 0
M  V30 4396 N 413.868 0.0150385 -1.57593 0
M  V30 4397 C 414.831 0.995996 -2.06428 0
M  V30 4398 C 415.831 1.2818 -0.970903 0
M  V30 4399 O 417.021 1.22949 -1.23406 0
M  V30 4400 C 414.153 2.32506 -2.49307 0
M  V30 4401 H 415.346 0.573873 -2.94358 0
M  V30 4402 H 412.899 0.262186 -1.54085 0
M  V30 4403 H 413.634 2.79438 -1.64575 0
M  V30 4404 H 413.419 2.13087 -3.29145 0
M  V30 4405 H 414.909 3.02906 -2.87468 0
M  V30 4406 N 415.346 1.54954 0.287554 0
M  V30 4407 C 416.571 1.79209 1.04397 0
M  V30 4408 C 416.996 0.556431 1.79682 0
M  V30 4409 O 416.354 -0.493518 1.74454 0
M  V30 4410 C 416.402 3.00739 1.98969 0
M  V30 4411 O 415.506 2.74805 3.075 0
M  V30 4412 H 414.847 0.592755 0.299227 0
M  V30 4413 H 417.377 2.02068 0.320886 0
M  V30 4414 H 417.387 3.29077 2.4119 0
M  V30 4415 H 416.062 3.90329 1.43582 0
M  V30 4416 H 414.639 2.57523 2.69697 0
M  V30 4417 N 416.824 -0.551391 1.4764 0
M  V30 4418 C 417.754 -1.66757 1.63445 0
M  V30 4419 C 418.735 -1.63077 0.483742 0
M  V30 4420 O 419.92 -1.80607 0.71377 0
M  V30 4421 C 417.05 -3.05387 1.65396 0
M  V30 4422 C 416.004 -3.23918 2.79752 0
M  V30 4423 C 415.33 -4.63393 2.66779 0
M  V30 4424 C 416.63 -3.08735 4.21284 0
M  V30 4425 H 418.324 -1.53786 2.56886 0
M  V30 4426 H 415.87 -0.738415 1.23626 0
M  V30 4427 H 417.823 -3.83325 1.75043 0
M  V30 4428 H 416.547 -3.19332 0.685195 0
M  V30 4429 H 415.206 -2.48391 2.69625 0
M  V30 4430 H 414.854 -4.74144 1.67918 0
M  V30 4431 H 414.554 -4.7674 3.43501 0
M  V30 4432 H 416.078 -5.43458 2.78364 0
M  V30 4433 H 417.492 -3.76484 4.32357 0
M  V30 4434 H 415.889 -3.33588 4.98838 0
M  V30 4435 H 416.959 -2.0541 4.39243 0
M  V30 4436 N 418.302 -1.35869 -0.798587 0
M  V30 4437 C 419.55 -1.29332 -1.55298 0
M  V30 4438 C 419.871 0.129729 -1.94568 0
M  V30 4439 O 419.141 1.06796 -1.6423 0
M  V30 4440 H 417.721 -0.475737 -0.57592 0
M  V30 4441 H 420.383 -1.70062 -0.952093 0
M  V30 4442 H 419.479 -1.91458 -2.46476 0
M  V30 4443 N 419.78 1.02168 -1.19998 0
M  V30 4444 C 420.712 2.10705 -0.901994 0
M  V30 4445 C 421.725 1.6244 0.108216 0
M  V30 4446 O 422.914 1.78082 -0.12214 0
M  V30 4447 C 420.014 3.37291 -0.329834 0
M  V30 4448 C 419.187 4.14714 -1.39035 0
M  V30 4449 C 418.246 5.19606 -0.830432 0
M  V30 4450 O 417.272 5.48809 -1.50989 0
M  V30 4451 N 418.474 5.79366 0.362696 0
M  V30 4452 H 421.239 2.36856 -1.83628 0
M  V30 4453 H 418.8 1.18518 -1.10296 0
M  V30 4454 H 420.792 4.04657 0.0587633 0
M  V30 4455 H 419.362 3.0843 0.508891 0
M  V30 4456 H 418.582 3.42392 -1.9535 0
M  V30 4457 H 419.87 4.63226 -2.10474 0
M  V30 4458 H 419.268 5.57968 0.932081 0
M  V30 4459 H 417.825 6.48106 0.69299 0
M  V30 4460 N 421.258 1.00505 1.21394 0
M  V30 4461 C 422.669 0.721082 1.72213 0
M  V30 4462 C 423.02 -0.761263 1.80829 0
M  V30 4463 O 422.145 -1.59464 1.46288 0
M  V30 4464 C 422.74 1.30228 3.12772 0
M  V30 4465 C 421.299 1.06743 3.60947 0
M  V30 4466 C 420.446 1.41507 2.38477 0
M  V30 4467 H 423.397 1.17594 1.06571 0
M  V30 4468 H 423.418 0.686955 3.74247 0
M  V30 4469 H 422.93 2.38115 3.06468 0
M  V30 4470 H 421.031 0.00572162 3.726 0
M  V30 4471 H 421.144 1.73936 4.46411 0
M  V30 4472 H 419.508 0.833852 2.40664 0
M  V30 4473 H 420.291 2.50424 2.34824 0
M  V30 4474 N 422.737 -1.36956 0.779787 0
M  V30 4475 C 423.685 -2.32053 0.15942 0
M  V30 4476 C 424.679 -1.55333 -0.675878 0
M  V30 4477 O 425.885 -1.70668 -0.57204 0
M  V30 4478 H 422.26 -0.751286 0.0327707 0
M  V30 4479 H 424.231 -2.8195 0.977078 0
M  V30 4480 C 422.98 -3.40602 -0.698977 0
M  V30 4481 H 422.303 -3.99746 -0.0655966 0
M  V30 4482 H 423.743 -4.09486 -1.09989 0
M  V30 4483 C 422.202 -2.81359 -1.85307 0
M  V30 4484 O 422.732 -2.72751 -2.94906 0
M  V30 4485 N 420.938 -2.38786 -1.65619 0
M  V30 4486 H 420.485 -2.45987 -0.764725 0
M  V30 4487 H 420.443 -1.99493 -2.43002 0
M  V30 4488 N 424.215 -0.530993 -1.48385 0
M  V30 4489 C 425.461 -0.00538653 -2.03399 0
M  V30 4490 C 425.816 1.31899 -1.40073 0
M  V30 4491 O 425.109 1.83901 -0.537676 0
M  V30 4492 C 425.303 0.172742 -3.56982 0
M  V30 4493 C 425.132 -1.13282 -4.35198 0
M  V30 4494 C 423.902 -1.69296 -4.76096 0
M  V30 4495 C 426.1 -2.04367 -4.71952 0
M  V30 4496 N 424.082 -2.9413 -5.38851 0
M  V30 4497 C 425.453 -3.13777 -5.34737 0
M  V30 4498 C 427.508 -2.04681 -4.53883 0
M  V30 4499 C 426.211 -4.23567 -5.81363 0
M  V30 4500 C 428.237 -3.13466 -5.01491 0
M  V30 4501 C 427.599 -4.21595 -5.64302 0
M  V30 4502 H 423.698 -0.0434945 -0.780789 0
M  V30 4503 H 426.282 -0.712495 -1.81195 0
M  V30 4504 H 424.453 0.848937 -3.79009 0
M  V30 4505 H 426.185 0.698046 -3.98634 0
M  V30 4506 H 422.94 -1.23422 -4.57235 0
M  V30 4507 H 423.364 -3.57689 -5.74794 0
M  V30 4508 H 428.006 -1.22378 -4.04702 0
M  V30 4509 H 425.724 -5.06648 -6.2955 0
M  V30 4510 H 429.31 -3.14765 -4.893 0
M  V30 4511 H 428.19 -5.04384 -6.00472 0
M  V30 4512 N 425.693 1.55336 -0.266172 0
M  V30 4513 C 426.97 1.91372 0.404486 0
M  V30 4514 C 427.35 1.18935 1.74407 0
M  V30 4515 O 426.698 0.3132 2.26343 0
M  V30 4516 C 426.908 3.44581 0.553593 0
M  V30 4517 C 428.256 4.16196 0.840618 0
M  V30 4518 O 429.28 3.50426 0.638739 0
M  V30 4519 O 428.139 5.32567 1.22618 0
M  V30 4520 H 425.233 0.797194 0.220025 0
M  V30 4521 H 427.779 1.66813 -0.311664 0
M  V30 4522 H 426.551 3.89357 -0.389498 0
M  V30 4523 H 426.174 3.75065 1.31955 0
M  V30 4524 N 427.171 -0.0066808 1.57599 0
M  V30 4525 C 428.104 -1.03397 2.03431 0
M  V30 4526 C 429.082 -1.33872 0.922877 0
M  V30 4527 O 430.266 -1.4615 1.19048 0
M  V30 4528 C 427.393 -2.36325 2.42628 0
M  V30 4529 C 426.439 -2.21557 3.64438 0
M  V30 4530 S 427.272 -1.54789 5.12641 0
M  V30 4531 C 428.428 -2.8916 5.55101 0
M  V30 4532 H 428.661 -0.643687 2.90248 0
M  V30 4533 H 426.194 -0.217349 1.52863 0
M  V30 4534 H 428.152 -3.12759 2.65879 0
M  V30 4535 H 426.813 -2.72495 1.56222 0
M  V30 4536 H 426.006 -3.1974 3.89592 0
M  V30 4537 H 425.608 -1.53267 3.41153 0
M  V30 4538 H 427.9 -3.8547 5.57153 0
M  V30 4539 H 428.843 -2.68713 6.55133 0
M  V30 4540 H 429.251 -2.92762 4.82649 0
M  V30 4541 N 428.649 -1.55105 -0.279332 0
M  V30 4542 C 430.065 -1.46803 -0.626187 0
M  V30 4543 C 430.265 -0.676939 -1.89789 0
M  V30 4544 O 429.321 -0.19326 -2.51759 0
M  V30 4545 C 430.634 -2.90962 -0.759034 0
M  V30 4546 C 432.182 -3.01138 -0.853504 0
M  V30 4547 C 432.657 -4.46539 -1.01818 0
M  V30 4548 N 434.148 -4.50341 -1.08386 0
M  V30 4549 C 434.883 -5.60053 -1.22996 0
M  V30 4550 N 434.379 -6.79645 -1.34366 0
M  V30 4551 N 436.172 -5.47783 -1.26056 0
M  V30 4552 H 428.323 -2.04996 0.555921 0
M  V30 4553 H 430.586 -0.929325 0.187239 0
M  V30 4554 H 430.292 -3.51544 0.104852 0
M  V30 4555 H 430.166 -3.39619 -1.64131 0
M  V30 4556 H 432.553 -2.40658 -1.70786 0
M  V30 4557 H 432.634 -2.55745 0.0532466 0
M  V30 4558 H 432.278 -5.0762 -0.168504 0
M  V30 4559 H 432.208 -4.89583 -1.93948 0
M  V30 4560 H 434.699 -3.64191 -1.00864 0
M  V30 4561 H 435.012 -7.59012 -1.4533 0
M  V30 4562 H 433.357 -6.82469 -1.31382 0
M  V30 4563 H 436.548 -4.53294 -1.168 0
M  V30 4564 H 436.721 -6.33331 -1.37098 0
M  V30 4565 N 430.127 0.543554 -1.4793 0
M  V30 4566 C 431.404 1.30458 -1.4574 0
M  V30 4567 C 431.784 2.1048 -0.161692 0
M  V30 4568 O 431.132 2.11831 0.856734 0
M  V30 4569 C 431.342 2.19754 -2.71126 0
M  V30 4570 C 432.69 2.80334 -3.18901 0
M  V30 4571 O 433.714 2.30049 -2.71948 0
M  V30 4572 O 432.573 3.71766 -4.00565 0
M  V30 4573 H 429.667 0.588117 -0.581418 0
M  V30 4574 H 432.213 0.561328 -1.60147 0
M  V30 4575 H 430.985 1.60316 -3.56952 0
M  V30 4576 H 430.608 3.01351 -2.59371 0
M  V30 4577 N 431.605 1.3629 0.791371 0
M  V30 4578 C 432.853 1.30154 1.5461 0
M  V30 4579 C 433.174 -0.119409 1.94634 0
M  V30 4580 O 432.444 -1.05924 1.64794 0
M  V30 4581 H 431.024 0.478784 0.573389 0
M  V30 4582 H 433.686 1.70565 0.94306 0
M  V30 4583 H 432.782 1.92762 2.45457 0
M  V30 4584 N 433.083 -1.0153 1.20538 0
M  V30 4585 C 434.33 -1.75149 1.01633 0
M  V30 4586 C 434.658 -1.89189 -0.451399 0
M  V30 4587 O 433.913 -1.41551 -1.35136 0
M  V30 4588 C 434.212 -3.17213 1.64654 0
M  V30 4589 C 433.878 -3.23146 3.14464 0
M  V30 4590 C 432.54 -3.24472 3.55347 0
M  V30 4591 C 434.892 -3.21207 4.10458 0
M  V30 4592 C 432.22 -3.21532 4.90748 0
M  V30 4593 C 434.572 -3.19808 5.45807 0
M  V30 4594 C 433.236 -3.19439 5.86102 0
M  V30 4595 H 432.506 -0.640914 0.3719 0
M  V30 4596 H 435.153 -1.19071 1.49981 0
M  V30 4597 H 433.458 -3.76457 1.08571 0
M  V30 4598 H 435.155 -3.72871 1.4754 0
M  V30 4599 H 431.745 -3.2285 2.81897 0
M  V30 4600 H 435.929 -3.19351 3.79906 0
M  V30 4601 H 431.185 -3.19578 5.21229 0
M  V30 4602 H 435.359 -3.1726 6.19935 0
M  V30 4603 H 432.986 -3.16915 6.90991 0
M  V30 4604 N 434.561 -1.01147 -1.20859 0
M  V30 4605 C 435.838 -0.613136 -1.85742 0
M  V30 4606 C 436.218 0.909004 -1.90526 0
M  V30 4607 O 435.566 1.79862 -1.40932 0
M  V30 4608 C 435.776 -1.255 -3.25654 0
M  V30 4609 C 437.124 -1.3672 -4.01986 0
M  V30 4610 O 438.148 -1.21082 -3.34989 0
M  V30 4611 O 437.007 -1.6194 -5.21956 0
M  V30 4612 H 434.101 -0.210878 -0.799662 0
M  V30 4613 H 436.647 -1.10853 -1.2849 0
M  V30 4614 H 435.419 -2.29532 -3.16908 0
M  V30 4615 H 435.042 -0.746369 -3.90532 0
M  V30 4616 N 436.039 1.36541 -0.78704 0
M  V30 4617 C 437.288 1.98552 -0.35494 0
M  V30 4618 C 437.601 1.63171 1.07864 0
M  V30 4619 O 438.807 2.18399 1.61289 0
M  V30 4620 C 437.263 3.55136 -0.583671 0
M  V30 4621 C 436.871 3.99444 -2.02851 0
M  V30 4622 C 438.615 4.2395 -0.215957 0
M  V30 4623 C 436.522 5.48796 -2.20403 0
M  V30 4624 H 435.452 0.742888 -0.128972 0
M  V30 4625 H 438.103 1.5587 -0.968337 0
M  V30 4626 H 436.485 3.95875 0.0994046 0
M  V30 4627 H 437.659 3.6991 -2.74779 0
M  V30 4628 H 435.974 3.43459 -2.35425 0
M  V30 4629 H 438.571 5.33709 -0.325405 0
M  V30 4630 H 438.914 4.07827 0.835646 0
M  V30 4631 H 439.447 3.88565 -0.852175 0
M  V30 4632 H 436.186 5.69864 -3.23937 0
M  V30 4633 H 435.706 5.79964 -1.52977 0
M  V30 4634 H 437.385 6.14986 -2.01002 0
M  V30 4635 N 437.518 0.538854 1.48102 0
M  V30 4636 C 438.743 0.0102694 2.07397 0
M  V30 4637 C 439.168 -1.26562 1.39153 0
M  V30 4638 O 438.526 -1.75357 0.460387 0
M  V30 4639 C 438.574 -0.187602 3.60112 0
M  V30 4640 O 437.678 -1.25432 3.92862 0
M  V30 4641 H 437.019 0.0430975 0.6626 0
M  V30 4642 H 439.549 0.749301 1.90385 0
M  V30 4643 H 439.559 -0.407517 4.0596 0
M  V30 4644 H 438.234 0.744386 4.09184 0
M  V30 4645 H 436.811 -1.01636 3.58782 0
M  V30 4646 N 438.996 -1.55193 0.274407 0
M  V30 4647 C 440.244 -1.99187 -0.341902 0
M  V30 4648 C 440.565 -1.16422 -1.56431 0
M  V30 4649 O 439.835 -0.253573 -1.94252 0
M  V30 4650 H 438.415 -0.735721 -0.129317 0
M  V30 4651 H 441.077 -1.91168 0.379578 0
M  V30 4652 H 440.173 -3.05629 -0.632253 0
M  V30 4653 N 440.474 -0.00167713 -1.576 0
M  V30 4654 C 441.422 1.0074 -2.09652 0
M  V30 4655 C 442.416 1.35483 -1.01689 0
M  V30 4656 O 443.622 1.34028 -1.20152 0
M  V30 4657 H 439.997 0.342537 -0.669457 0
M  V30 4658 H 441.968 0.542841 -2.93421 0
M  V30 4659 C 440.717 2.2899 -2.61647 0
M  V30 4660 H 440.04 2.03124 -3.44355 0
M  V30 4661 H 441.48 2.9787 -3.01744 0
M  V30 4662 C 439.939 3.00085 -1.53136 0
M  V30 4663 O 440.469 3.91135 -0.91524 0
M  V30 4664 N 438.675 2.6194 -1.25841 0
M  V30 4665 H 438.222 1.8798 -1.76129 0
M  V30 4666 H 438.18 3.09822 -0.534576 0
M  V30 4667 N 441.952 1.55251 0.271103 0
M  V30 4668 C 443.363 1.66635 0.842007 0
M  V30 4669 C 443.714 0.594631 1.86972 0
M  V30 4670 O 442.839 -0.263532 2.14789 0
M  V30 4671 C 443.434 3.02082 1.53401 0
M  V30 4672 C 441.993 3.15487 2.05293 0
M  V30 4673 C 441.14 2.62438 0.895631 0
M  V30 4674 H 444.091 1.58629 0.0474117 0
M  V30 4675 H 444.112 2.95176 2.40107 0
M  V30 4676 H 443.624 3.80062 0.785786 0
M  V30 4677 H 441.725 2.42284 2.83071 0
M  V30 4678 H 441.838 4.22075 2.26693 0
M  V30 4679 H 440.202 2.19644 1.28953 0
M  V30 4680 H 440.985 3.42923 0.160878 0
M  V30 4681 N 443.43 -0.535701 1.48216 0
M  V30 4682 C 444.676 -1.2913 1.57153 0
M  V30 4683 C 445.031 -1.90899 0.239823 0
M  V30 4684 O 444.324 -1.76022 -0.756748 0
M  V30 4685 C 444.518 -2.4068 2.64212 0
M  V30 4686 C 444.347 -1.89844 4.07663 0
M  V30 4687 C 443.117 -1.72708 4.74869 0
M  V30 4688 C 445.315 -1.43031 4.94011 0
M  V30 4689 N 443.297 -1.16437 6.02757 0
M  V30 4690 C 444.668 -0.986691 6.12098 0
M  V30 4691 C 446.723 -1.3128 4.80281 0
M  V30 4692 C 445.426 -0.437231 7.1797 0
M  V30 4693 C 447.452 -0.777346 5.86269 0
M  V30 4694 C 446.814 -0.343774 7.03561 0
M  V30 4695 H 442.913 -0.463753 0.629648 0
M  V30 4696 H 445.497 -0.604736 1.8507 0
M  V30 4697 H 443.668 -3.06839 2.38126 0
M  V30 4698 H 445.4 -3.07706 2.62867 0
M  V30 4699 H 442.155 -1.96061 4.31111 0
M  V30 4700 H 442.579 -0.903281 6.70947 0
M  V30 4701 H 447.221 -1.63408 3.89946 0
M  V30 4702 H 444.939 -0.103621 8.08034 0
M  V30 4703 H 448.525 -0.689688 5.77698 0
M  V30 4704 H 447.405 0.0641219 7.84174 0
M  V30 4705 N 444.908 -1.36708 -0.784132 0
M  V30 4706 C 446.157 -1.30559 -1.53744 0
M  V30 4707 C 446.47 0.111374 -1.95283 0
M  V30 4708 O 447.676 0.29527 -2.6989 0
M  V30 4709 C 446.132 -2.29098 -2.77565 0
M  V30 4710 C 445.74 -3.76258 -2.43174 0
M  V30 4711 C 447.484 -2.31936 -3.55536 0
M  V30 4712 C 445.391 -4.6656 -3.63422 0
M  V30 4713 H 444.321 -0.48518 -0.577162 0
M  V30 4714 H 446.972 -1.62101 -0.859981 0
M  V30 4715 H 445.354 -1.90557 -3.47137 0
M  V30 4716 H 446.528 -4.23565 -1.81465 0
M  V30 4717 H 444.843 -3.76246 -1.78403 0
M  V30 4718 H 447.44 -2.9661 -4.44889 0
M  V30 4719 H 447.783 -1.3294 -3.94503 0
M  V30 4720 H 448.316 -2.6912 -2.92949 0
M  V30 4721 H 445.055 -5.66638 -3.29547 0
M  V30 4722 H 444.575 -4.23966 -4.24279 0
M  V30 4723 H 446.254 -4.8309 -4.30387 0
M  V30 4724 N 446.386 1.0089 -1.21074 0
M  V30 4725 C 447.626 1.76142 -1.03699 0
M  V30 4726 C 447.99 1.87292 0.422587 0
M  V30 4727 O 449.191 2.59068 0.716752 0
M  V30 4728 C 447.462 3.13805 -1.7106 0
M  V30 4729 S 449.021 4.04996 -1.68889 0
M  V30 4730 H 445.839 0.606113 -0.371683 0
M  V30 4731 H 448.441 1.20744 -1.53756 0
M  V30 4732 H 447.145 3.0332 -2.76451 0
M  V30 4733 H 446.676 3.74276 -1.21166 0
M  V30 4734 H 448.691 4.90842 -0.727211 0
M  V30 4735 N 447.864 1.01787 1.20321 0
M  V30 4736 C 449.141 0.622978 1.85414 0
M  V30 4737 C 449.521 -0.898887 1.91006 0
M  V30 4738 O 448.869 -1.79112 1.41884 0
M  V30 4739 C 449.079 1.27226 3.24984 0
M  V30 4740 C 450.427 1.3885 4.01255 0
M  V30 4741 O 451.451 1.22857 3.34342 0
M  V30 4742 O 450.31 1.64705 5.2109 0
M  V30 4743 H 447.404 0.215116 0.798533 0
M  V30 4744 H 449.95 1.11533 1.27901 0
M  V30 4745 H 448.722 2.31209 3.15687 0
M  V30 4746 H 448.345 0.767069 3.90131 0
M  V30 4747 N 449.342 -1.36122 0.79427 0
M  V30 4748 C 450.274 -2.28683 0.153903 0
M  V30 4749 C 451.287 -1.49707 -0.639669 0
M  V30 4750 O 452.476 -1.7209 -0.474054 0
M  V30 4751 C 449.576 -3.29202 -0.804921 0
M  V30 4752 C 448.749 -4.37358 -0.060366 0
M  V30 4753 C 447.808 -5.17811 -0.935849 0
M  V30 4754 O 446.834 -5.67853 -0.391309 0
M  V30 4755 N 448.036 -5.34721 -2.25951 0
M  V30 4756 H 450.801 -2.84278 0.949008 0
M  V30 4757 H 448.362 -1.4834 0.648611 0
M  V30 4758 H 450.354 -3.79914 -1.39455 0
M  V30 4759 H 448.924 -2.74212 -1.50088 0
M  V30 4760 H 448.144 -3.87746 0.710382 0
M  V30 4761 H 449.432 -5.06777 0.45324 0
M  V30 4762 H 448.83 -4.95687 -2.72601 0
M  V30 4763 H 447.387 -5.88657 -2.79867 0
M  V30 4764 N 450.82 -0.546701 -1.47814 0
M  V30 4765 C 451.768 0.220048 -2.31557 0
M  V30 4766 C 452.762 0.919472 -1.42275 0
M  V30 4767 O 453.968 0.841953 -1.59095 0
M  V30 4768 H 450.343 0.0898334 -0.746615 0
M  V30 4769 H 452.314 -0.505589 -2.94086 0
M  V30 4770 C 451.063 1.24353 -3.24702 0
M  V30 4771 H 450.386 0.714758 -3.93359 0
M  V30 4772 H 451.826 1.75112 -3.8615 0
M  V30 4773 C 450.285 2.28593 -2.47481 0
M  V30 4774 O 450.815 3.35334 -2.21165 0
M  V30 4775 N 449.021 2.02244 -2.08676 0
M  V30 4776 H 448.568 1.15455 -2.30278 0
M  V30 4777 H 448.526 2.72207 -1.57323 0
M  V30 4778 N 452.299 1.55045 -0.282633 0
M  V30 4779 C 453.229 2.2579 0.595066 0
M  V30 4780 C 454.21 1.25074 1.15284 0
M  V30 4781 O 455.395 1.5381 1.18559 0
M  V30 4782 C 452.525 2.98472 1.77572 0
M  V30 4783 C 451.479 4.0618 1.34914 0
M  V30 4784 C 450.805 4.66477 2.6135 0
M  V30 4785 C 452.105 5.1996 0.493821 0
M  V30 4786 H 453.799 2.994 0.00505653 0
M  V30 4787 H 451.345 1.44 0.000992001 0
M  V30 4788 H 453.298 3.46677 2.39568 0
M  V30 4789 H 452.022 2.2241 2.39168 0
M  V30 4790 H 450.681 3.58797 0.752338 0
M  V30 4791 H 450.329 3.87074 3.2122 0
M  V30 4792 H 450.029 5.39207 2.33516 0
M  V30 4793 H 451.553 5.17435 3.24181 0
M  V30 4794 H 452.967 5.64172 1.01898 0
M  V30 4795 H 451.364 5.99299 0.310047 0
M  V30 4796 H 452.434 4.82462 -0.485593 0
M  V30 4797 N 453.777 0.010035 1.57597 0
M  V30 4798 C 455.002 -0.687021 1.95691 0
M  V30 4799 C 455.427 -1.65952 0.885519 0
M  V30 4800 O 454.785 -1.80633 -0.15543 0
M  V30 4801 C 454.833 -1.3864 3.32884 0
M  V30 4802 O 453.937 -2.50115 3.27897 0
M  V30 4803 H 453.278 -0.181989 0.638573 0
M  V30 4804 H 455.808 0.0662122 2.04493 0
M  V30 4805 H 455.818 -1.74754 3.6868 0
M  V30 4806 H 454.493 -0.673411 4.10412 0
M  V30 4807 H 453.07 -2.16253 3.03791 0
M  V30 4808 N 455.255 -1.55392 -0.262866 0
M  V30 4809 C 456.532 -1.67204 -1.01499 0
M  V30 4810 C 456.912 -0.545186 -2.03939 0
M  V30 4811 O 456.26 0.453467 -2.23955 0
M  V30 4812 C 456.47 -3.06847 -1.6627 0
M  V30 4813 C 457.818 -3.64928 -2.17054 0
M  V30 4814 O 458.842 -3.09545 -1.76239 0
M  V30 4815 O 457.701 -4.61984 -2.91947 0
M  V30 4816 H 454.795 -0.679467 -0.471438 0
M  V30 4817 H 457.341 -1.67729 -0.257918 0
M  V30 4818 H 456.113 -3.80309 -0.920915 0
M  V30 4819 H 455.736 -3.10266 -2.48638 0
M  V30 4820 N 456.733 0.527833 -1.48498 0
M  V30 4821 C 457.663 1.64136 -1.66077 0
M  V30 4822 C 458.644 1.62286 -0.509625 0
M  V30 4823 O 459.829 1.79449 -0.742413 0
M  V30 4824 C 456.959 3.02717 -1.70234 0
M  V30 4825 C 455.913 3.19426 -2.8487 0
M  V30 4826 C 455.239 4.5909 -2.74118 0
M  V30 4827 C 456.539 3.01993 -4.26142 0
M  V30 4828 H 458.233 1.4968 -2.593 0
M  V30 4829 H 455.779 0.718654 -1.24785 0
M  V30 4830 H 457.732 3.80491 -1.8112 0
M  V30 4831 H 456.456 3.18201 -0.735911 0
M  V30 4832 H 455.115 2.4407 -2.73542 0
M  V30 4833 H 454.763 4.71413 -1.7544 0
M  V30 4834 H 454.463 4.71214 -3.51042 0
M  V30 4835 H 455.987 5.3896 -2.86974 0
M  V30 4836 H 457.401 3.69558 -4.38292 0
M  V30 4837 H 455.798 3.2561 -5.04082 0
M  V30 4838 H 456.868 1.98396 -4.42456 0
M  V30 4839 N 458.211 1.37122 0.776871 0
M  V30 4840 C 459.441 1.35034 1.56363 0
M  V30 4841 C 459.849 -0.0674681 1.8908 0
M  V30 4842 O 459.192 -1.03826 1.51545 0
M  V30 4843 C 459.254 2.11894 2.90415 0
M  V30 4844 C 458.918 3.60897 2.80362 0
M  V30 4845 C 459.915 4.54887 2.51742 0
M  V30 4846 C 457.6 4.03951 2.98545 0
M  V30 4847 C 459.594 5.89909 2.41426 0
M  V30 4848 C 457.281 5.3906 2.87849 0
M  V30 4849 C 458.279 6.31852 2.5933 0
M  V30 4850 O 457.967 7.64479 2.48651 0
M  V30 4851 H 457.699 0.464402 0.49123 0
M  V30 4852 H 460.253 1.80992 0.971127 0
M  V30 4853 H 458.483 1.60618 3.51765 0
M  V30 4854 H 460.172 2.02505 3.51776 0
M  V30 4855 H 460.938 4.22934 2.37385 0
M  V30 4856 H 456.817 3.3209 3.19746 0
M  V30 4857 H 460.361 6.62304 2.19086 0
M  V30 4858 H 456.258 5.70617 3.01773 0
M  V30 4859 H 457.026 7.74742 2.64039 0
M  V30 4860 N 459.689 -1.00246 1.21608 0
M  V30 4861 C 461.105 -1.26435 0.973975 0
M  V30 4862 C 461.305 -1.98642 -0.338143 0
M  V30 4863 O 460.361 -2.29026 -1.06317 0
M  V30 4864 C 461.674 -2.08551 2.16626 0
M  V30 4865 C 463.222 -2.21769 2.20879 0
M  V30 4866 C 463.697 -3.07267 3.39633 0
M  V30 4867 N 465.188 -3.14855 3.39736 0
M  V30 4868 C 465.923 -3.81274 4.28273 0
M  V30 4869 N 465.419 -4.497 5.27012 0
M  V30 4870 N 467.212 -3.7794 4.16074 0
M  V30 4871 H 459.363 -0.518089 2.05984 0
M  V30 4872 H 461.626 -0.291368 0.902113 0
M  V30 4873 H 461.332 -1.62847 3.11727 0
M  V30 4874 H 461.206 -3.09303 2.15897 0
M  V30 4875 H 463.593 -2.66691 1.26332 0
M  V30 4876 H 463.674 -1.20478 2.25652 0
M  V30 4877 H 463.318 -2.63047 4.34475 0
M  V30 4878 H 463.248 -4.08678 3.321 0
M  V30 4879 H 465.739 -2.66147 2.6828 0
M  V30 4880 H 466.052 -4.98092 5.90867 0
M  V30 4881 H 464.397 -4.48479 5.30935 0
M  V30 4882 H 467.588 -3.23638 3.38195 0
M  V30 4883 H 467.761 -4.29424 4.85282 0
M  V30 4884 N 461.167 -1.02423 -1.1978 0
M  V30 4885 C 462.413 -0.72878 -1.89896 0
M  V30 4886 C 462.768 0.734248 -1.77839 0
M  V30 4887 O 462.061 1.52733 -1.15685 0
M  V30 4888 C 462.255 -1.1088 -3.39765 0
M  V30 4889 C 462.084 -2.60722 -3.66407 0
M  V30 4890 C 460.854 -3.27623 -3.84696 0
M  V30 4891 C 463.052 -3.58924 -3.68345 0
M  V30 4892 N 461.034 -4.66617 -3.98926 0
M  V30 4893 C 462.405 -4.83514 -3.8809 0
M  V30 4894 C 464.46 -3.52788 -3.51347 0
M  V30 4895 C 463.163 -6.0271 -3.92598 0
M  V30 4896 C 465.189 -4.71394 -3.5713 0
M  V30 4897 C 464.551 -5.94796 -3.77356 0
M  V30 4898 H 460.65 -0.318473 -0.714212 0
M  V30 4899 H 463.234 -1.3106 -1.43984 0
M  V30 4900 H 461.405 -0.555233 -3.84411 0
M  V30 4901 H 463.137 -0.766082 -3.97383 0
M  V30 4902 H 459.892 -2.7804 -3.83393 0
M  V30 4903 H 460.316 -5.38805 -4.099 0
M  V30 4904 H 464.958 -2.58372 -3.3467 0
M  V30 4905 H 462.676 -6.97499 -4.08069 0
M  V30 4906 H 466.262 -4.6827 -3.45275 0
M  V30 4907 H 465.142 -6.85037 -3.81699 0
M  V30 4908 N 462.645 1.35699 -0.801477 0
M  V30 4909 C 463.575 2.32436 -0.222658 0
M  V30 4910 C 464.556 1.5723 0.649057 0
M  V30 4911 O 465.741 1.85324 0.580387 0
M  V30 4912 C 462.871 3.41469 0.633719 0
M  V30 4913 C 461.825 4.27774 -0.139083 0
M  V30 4914 C 461.151 5.28082 0.838666 0
M  V30 4915 C 462.451 5.04946 -1.33517 0
M  V30 4916 H 464.145 2.81094 -1.03086 0
M  V30 4917 H 461.691 1.35146 -0.497155 0
M  V30 4918 H 463.644 4.08143 1.04868 0
M  V30 4919 H 462.368 2.91408 1.47475 0
M  V30 4920 H 461.027 3.62673 -0.535156 0
M  V30 4921 H 460.675 4.7429 1.67506 0
M  V30 4922 H 460.375 5.86695 0.32594 0
M  V30 4923 H 461.899 5.97628 1.25194 0
M  V30 4924 H 463.313 5.64593 -0.995349 0
M  V30 4925 H 461.71 5.7303 -1.78202 0
M  V30 4926 H 462.78 4.35886 -2.12442 0
M  V30 4927 N 464.123 0.554532 1.47522 0
M  V30 4928 C 465.055 -0.232106 2.28022 0
M  V30 4929 C 466.068 -0.881865 1.36847 0
M  V30 4930 O 467.257 -0.756168 1.61692 0
M  V30 4931 C 464.357 -1.34604 3.11022 0
M  V30 4932 C 463.53 -0.793582 4.30141 0
M  V30 4933 C 462.589 -1.79168 4.94758 0
M  V30 4934 O 461.615 -1.33886 5.5323 0
M  V30 4935 N 462.817 -3.12495 4.89211 0
M  V30 4936 H 465.582 0.458407 2.96173 0
M  V30 4937 H 463.143 0.390433 1.57122 0
M  V30 4938 H 465.135 -2.01243 3.51118 0
M  V30 4939 H 463.705 -1.93983 2.45131 0
M  V30 4940 H 462.925 0.0495025 3.94169 0
M  V30 4941 H 464.213 -0.403776 5.07195 0
M  V30 4942 H 463.611 -3.51931 4.42901 0
M  V30 4943 H 462.168 -3.74698 5.33333 0
M  V30 4944 N 465.601 -1.54893 0.290851 0
M  V30 4945 C 466.564 -2.21824 -0.576784 0
M  V30 4946 C 467.564 -1.20104 -1.06919 0
M  V30 4947 O 468.754 -1.44906 -0.966843 0
M  V30 4948 C 465.886 -2.89662 -1.79747 0
M  V30 4949 H 467.079 -2.99899 0.00784051 0
M  V30 4950 H 464.632 -1.56245 0.0415934 0
M  V30 4951 H 465.367 -2.15639 -2.42219 0
M  V30 4952 H 465.152 -3.64219 -1.45214 0
M  V30 4953 H 466.642 -3.4075 -2.4141 0
M  V30 4954 N 467.08 -0.0183926 -1.57589 0
M  V30 4955 C 468.012 0.995557 -2.06449 0
M  V30 4956 C 469.025 1.29556 -0.985849 0
M  V30 4957 O 470.214 1.2621 -1.26227 0
M  V30 4958 C 467.314 2.32572 -2.46502 0
M  V30 4959 C 466.487 2.21245 -3.77319 0
M  V30 4960 C 465.546 3.37104 -4.04039 0
M  V30 4961 O 464.572 3.14468 -4.74445 0
M  V30 4962 N 465.774 4.60553 -3.53372 0
M  V30 4963 H 468.539 0.578746 -2.94059 0
M  V30 4964 H 466.1 0.168603 -1.6102 0
M  V30 4965 H 468.092 3.08887 -2.61478 0
M  V30 4966 H 466.662 2.65931 -1.64315 0
M  V30 4967 H 465.882 1.29723 -3.72244 0
M  V30 4968 H 467.17 2.10868 -4.63047 0
M  V30 4969 H 466.568 4.81839 -2.96391 0
M  V30 4970 H 465.125 5.34072 -3.73644 0
M  V30 4971 N 468.558 1.5553 0.254621 0
M  V30 4972 C 469.505 1.89666 1.31512 0
M  V30 4973 C 470.475 0.750057 1.482 0
M  V30 4974 O 471.66 1.00301 1.62309 0
M  V30 4975 C 468.8 2.19009 2.667 0
M  V30 4976 C 467.913 3.46435 2.58083 0
M  V30 4977 C 467.048 3.65386 3.85573 0
M  V30 4978 C 466.087 4.8644 3.71541 0
M  V30 4979 N 465.224 5.01952 4.90906 0
M  V30 4980 H 470.064 2.80109 1.017 0
M  V30 4981 H 467.601 1.38666 0.490938 0
M  V30 4982 H 469.559 2.34025 3.45381 0
M  V30 4983 H 468.189 1.31779 2.94676 0
M  V30 4984 H 467.241 3.39792 1.71013 0
M  V30 4985 H 468.553 4.35258 2.43622 0
M  V30 4986 H 467.707 3.80319 4.72697 0
M  V30 4987 H 466.446 2.74781 4.02922 0
M  V30 4988 H 465.451 4.71491 2.82801 0
M  V30 4989 H 466.676 5.78497 3.55694 0
M  V30 4990 H 464.622 4.14283 5.08631 0
M  V30 4991 H 464.539 5.84851 4.79046 0
M  V30 4992 H 465.807 5.21289 5.7955 0
M  V30 4993 N 470.036 -0.519951 1.48776 0
M  V30 4994 C 471.313 -1.28123 1.47797 0
M  V30 4995 C 471.693 -2.10196 0.195157 0
M  V30 4996 O 471.041 -2.13167 -0.822925 0
M  V30 4997 C 471.251 -2.15413 2.74587 0
M  V30 4998 C 472.599 -2.75225 3.23321 0
M  V30 4999 O 473.623 -2.25694 2.75574 0
M  V30 5000 O 472.482 -3.65346 4.06429 0
M  V30 5001 H 469.576 -0.578793 0.590701 0
M  V30 5002 H 472.122 -0.535779 1.6102 0
M  V30 5003 H 470.894 -1.54617 3.59457 0
M  V30 5004 H 470.517 -2.97186 2.64132 0
M  V30 5005 N 471.514 -1.37532 -0.769588 0
M  V30 5006 C 472.461 -1.3347 -1.88293 0
M  V30 5007 C 473.431 -0.199891 -1.64893 0
M  V30 5008 O 474.616 -0.389594 -1.8678 0
M  V30 5009 C 471.756 -1.14968 -3.25387 0
M  V30 5010 C 470.869 -2.37698 -3.60727 0
M  V30 5011 C 470.004 -2.12051 -4.8704 0
M  V30 5012 C 469.043 -3.30636 -5.15117 0
M  V30 5013 N 468.18 -3.04527 -6.3262 0
M  V30 5014 H 473.02 -2.28658 -1.911 0
M  V30 5015 H 470.557 -1.13622 -0.934257 0
M  V30 5016 H 472.515 -1.02261 -4.04473 0
M  V30 5017 H 471.145 -0.234263 -3.21949 0
M  V30 5018 H 470.197 -2.61137 -2.76608 0
M  V30 5019 H 471.509 -3.26131 -3.77413 0
M  V30 5020 H 470.663 -1.96388 -5.74035 0
M  V30 5021 H 469.402 -1.20959 -4.72462 0
M  V30 5022 H 468.407 -3.46836 -4.26597 0
M  V30 5023 H 469.632 -4.22582 -5.31603 0
M  V30 5024 H 467.578 -2.16067 -6.19396 0
M  V30 5025 H 467.495 -3.86503 -6.49732 0
M  V30 5026 H 468.763 -2.92485 -7.22546 0
M  V30 5027 N 472.992 0.995999 -1.22138 0
M  V30 5028 C 473.925 2.08302 -0.931952 0
M  V30 5029 C 474.903 1.62127 0.123956 0
M  V30 5030 O 476.087 1.88499 -0.00696004 0
M  V30 5031 C 473.214 3.36317 -0.401068 0
M  V30 5032 C 472.26 4.01413 -1.44117 0
M  V30 5033 S 473.093 4.42664 -3.01345 0
M  V30 5034 C 474.249 5.73853 -2.49887 0
M  V30 5035 H 474.482 2.32532 -1.85246 0
M  V30 5036 H 472.015 1.13005 -1.0521 0
M  V30 5037 H 473.973 4.10375 -0.101352 0
M  V30 5038 H 472.634 3.10123 0.498272 0
M  V30 5039 H 471.827 4.9358 -1.01952 0
M  V30 5040 H 471.429 3.33668 -1.68943 0
M  V30 5041 H 473.721 6.50039 -1.90934 0
M  V30 5042 H 474.664 6.20841 -3.40532 0
M  V30 5043 H 475.072 5.31105 -1.9128 0
M  V30 5044 N 474.47 1.03057 1.19235 0
M  V30 5045 C 475.717 0.728019 1.88961 0
M  V30 5046 C 476.045 -0.743515 1.79728 0
M  V30 5047 O 475.3 -1.55729 1.1852 0
M  V30 5048 C 475.599 1.1268 3.39172 0
M  V30 5049 C 475.265 2.5969 3.68608 0
M  V30 5050 C 473.927 2.99854 3.76352 0
M  V30 5051 C 476.279 3.54793 3.81801 0
M  V30 5052 C 473.607 4.34031 3.94758 0
M  V30 5053 C 475.959 4.88675 4.0172 0
M  V30 5054 C 474.623 5.28526 4.07697 0
M  V30 5055 H 473.893 0.266401 0.691456 0
M  V30 5056 H 476.54 1.29373 1.41191 0
M  V30 5057 H 474.845 0.479722 3.88852 0
M  V30 5058 H 476.542 0.870203 3.91444 0
M  V30 5059 H 473.132 2.27575 3.63191 0
M  V30 5060 H 477.316 3.24914 3.7516 0
M  V30 5061 H 472.572 4.6444 3.97625 0
M  V30 5062 H 476.746 5.6228 4.1087 0
M  V30 5063 H 474.373 6.32506 4.21712 0
M  V30 5064 N 475.948 -1.35272 0.808662 0
M  V30 5065 C 477.173 -2.03477 0.401475 0
M  V30 5066 C 477.598 -1.60537 -0.980279 0
M  V30 5067 O 476.956 -0.78304 -1.63518 0
M  V30 5068 C 477.004 -3.57181 0.495354 0
M  V30 5069 O 476.108 -4.09474 -0.490397 0
M  V30 5070 H 475.449 -0.642561 0.167366 0
M  V30 5071 H 477.979 -1.72824 1.09512 0
M  V30 5072 H 477.989 -4.06356 0.365912 0
M  V30 5073 H 476.664 -3.87784 1.5032 0
M  V30 5074 H 475.241 -3.71516 -0.321023 0
M  V30 5075 N 477.426 -0.562348 -1.47226 0
M  V30 5076 C 478.358 0.220011 -2.28142 0
M  V30 5077 C 479.371 0.874596 -1.37312 0
M  V30 5078 O 480.56 0.747583 -1.62091 0
M  V30 5079 C 477.66 1.32953 -3.11732 0
M  V30 5080 C 476.833 0.770759 -4.30556 0
M  V30 5081 C 475.892 1.76541 -4.95701 0
M  V30 5082 O 474.918 1.3095 -5.53932 0
M  V30 5083 N 476.12 3.09896 -4.90861 0
M  V30 5084 H 478.885 -0.474107 -2.95926 0
M  V30 5085 H 476.446 -0.398761 -1.56912 0
M  V30 5086 H 478.438 1.99378 -3.5218 0
M  V30 5087 H 477.008 1.92681 -2.46156 0
M  V30 5088 H 476.228 -0.0704056 -3.94137 0
M  V30 5089 H 477.516 0.376872 -5.07402 0
M  V30 5090 H 476.914 3.49577 -4.44761 0
M  V30 5091 H 475.471 3.71865 -5.35313 0
M  V30 5092 N 478.904 1.54736 -0.299062 0
M  V30 5093 C 479.852 2.24897 0.593658 0
M  V30 5094 C 480.846 1.25429 1.13859 0
M  V30 5095 O 482.052 1.43286 1.08945 0
M  V30 5096 H 478.427 0.72207 0.210046 0
M  V30 5097 H 480.398 2.98393 -0.0206421 0
M  V30 5098 C 479.147 3.00159 1.75499 0
M  V30 5099 H 478.47 3.76501 1.34489 0
M  V30 5100 H 479.91 3.52535 2.35574 0
M  V30 5101 C 478.369 2.07015 2.65794 0
M  V30 5102 O 478.899 1.63692 3.66835 0
M  V30 5103 N 477.105 1.73012 2.33485 0
M  V30 5104 H 476.652 2.08439 1.51364 0
M  V30 5105 H 476.61 1.10965 2.94167 0
M  V30 5106 N 480.382 0.0267497 1.57577 0
M  V30 5107 C 481.659 -0.690926 1.82991 0
M  V30 5108 C 482.039 -1.90471 0.910164 0
M  V30 5109 O 481.387 -2.28474 -0.0347985 0
M  V30 5110 C 481.597 -1.07139 3.32148 0
M  V30 5111 C 482.945 -1.46402 3.98562 0
M  V30 5112 O 483.969 -1.16443 3.36629 0
M  V30 5113 O 482.828 -2.02214 5.07712 0
M  V30 5114 H 479.922 -0.338747 0.75444 0
M  V30 5115 H 482.468 0.0542506 1.69613 0
M  V30 5116 H 481.24 -0.207394 3.9075 0
M  V30 5117 H 480.863 -1.87481 3.50623 0
M  V30 5118 N 481.861 -1.55662 -0.24637 0
M  V30 5119 C 483.089 -1.81575 -0.991876 0
M  V30 5120 C 483.504 -0.602545 -1.78927 0
M  V30 5121 O 482.861 0.428795 -1.77391 0
M  V30 5122 C 482.912 -3.05711 -1.92933 0
M  V30 5123 O 482.633 -4.22348 -1.1642 0
M  V30 5124 C 484.134 -3.44428 -2.79078 0
M  V30 5125 H 481.354 -0.604209 -0.291844 0
M  V30 5126 H 483.898 -2.02722 -0.269095 0
M  V30 5127 H 482.053 -2.86612 -2.60638 0
M  V30 5128 H 482.467 -4.92706 -1.79835 0
M  V30 5129 H 483.941 -4.34388 -3.40603 0
M  V30 5130 H 484.418 -2.65037 -3.50217 0
M  V30 5131 H 485.024 -3.65879 -2.16824 0
M  V30 5132 N 483.339 0.512053 -1.4905 0
M  V30 5133 C 484.755 0.84224 -1.35567 0
M  V30 5134 C 484.955 1.97878 -0.380319 0
M  V30 5135 O 484.011 2.51769 0.19201 0
M  V30 5136 C 485.324 1.19286 -2.76028 0
M  V30 5137 C 486.872 1.30171 -2.84648 0
M  V30 5138 C 487.347 1.68568 -4.25851 0
M  V30 5139 N 488.838 1.75638 -4.28609 0
M  V30 5140 C 489.573 2.06769 -5.34821 0
M  V30 5141 N 489.069 2.36201 -6.51292 0
M  V30 5142 N 490.862 2.07927 -5.22229 0
M  V30 5143 H 483.013 -0.237574 -2.11067 0
M  V30 5144 H 485.276 -0.0436747 -0.946993 0
M  V30 5145 H 484.982 0.431199 -3.49047 0
M  V30 5146 H 484.856 2.13889 -3.10695 0
M  V30 5147 H 487.243 2.05411 -2.11873 0
M  V30 5148 H 487.324 0.336457 -2.53578 0
M  V30 5149 H 486.968 0.938824 -4.99148 0
M  V30 5150 H 486.898 2.66174 -4.54377 0
M  V30 5151 H 489.389 1.55097 -3.44606 0
M  V30 5152 H 489.702 2.59112 -7.28066 0
M  V30 5153 H 488.047 2.33681 -6.54536 0
M  V30 5154 H 491.238 1.84403 -4.30248 0
M  V30 5155 H 491.411 2.31856 -6.05101 0
M  V30 5156 N 484.817 1.37938 0.762283 0
M  V30 5157 C 486.057 1.35076 1.53407 0
M  V30 5158 C 486.421 -0.061546 1.91901 0
M  V30 5159 O 487.622 -0.214973 2.67939 0
M  V30 5160 C 485.893 2.27206 2.75884 0
M  V30 5161 S 487.452 2.42283 3.65848 0
M  V30 5162 H 484.27 0.479387 0.52508 0
M  V30 5163 H 486.872 1.7378 0.895586 0
M  V30 5164 H 485.576 3.28724 2.457 0
M  V30 5165 H 485.107 1.8962 3.44685 0
M  V30 5166 H 487.122 1.64044 4.68299 0
M  V30 5167 N 486.295 -0.989507 1.22664 0
M  V30 5168 C 487.258 -2.06183 1.00106 0
M  V30 5169 C 488.258 -1.60765 -0.0337726 0
M  V30 5170 O 489.448 -1.72989 0.205072 0
M  V30 5171 C 486.58 -3.37021 0.51279 0
M  V30 5172 H 487.773 -2.27629 1.95256 0
M  V30 5173 H 485.326 -1.16158 1.0458 0
M  V30 5174 H 486.061 -3.21261 -0.442917 0
M  V30 5175 H 485.846 -3.71323 1.25942 0
M  V30 5176 H 487.336 -4.1591 0.375315 0
M  V30 5177 N 487.773 -1.03688 -1.18687 0
M  V30 5178 C 489.021 -0.736572 -1.88199 0
M  V30 5179 C 489.342 0.737665 -1.80509 0
M  V30 5180 O 488.612 1.53204 -1.22088 0
M  V30 5181 H 487.192 -0.269466 -0.696704 0
M  V30 5182 H 489.854 -1.31282 -1.44052 0
M  V30 5183 H 488.95 -1.03802 -2.94332 0
M  V30 5184 N 489.251 1.34841 -0.815825 0
M  V30 5185 C 490.662 1.80937 -0.46029 0
M  V30 5186 C 491.013 1.67685 1.01863 0
M  V30 5187 O 490.138 1.21277 1.79223 0
M  V30 5188 C 490.733 3.28509 -0.828708 0
M  V30 5189 C 489.292 3.72712 -0.525644 0
M  V30 5190 C 488.439 2.56676 -1.04941 0
M  V30 5191 H 491.39 1.22688 -1.00664 0
M  V30 5192 H 491.411 3.80279 -0.129757 0
M  V30 5193 H 490.923 3.38122 -1.90513 0
M  V30 5194 H 489.024 3.68642 0.541666 0
M  V30 5195 H 489.137 4.67119 -1.06474 0
M  V30 5196 H 487.501 2.50302 -0.471286 0
M  V30 5197 H 488.284 2.69063 -2.13214 0
M  V30 5198 N 490.729 0.570148 1.46925 0
M  V30 5199 C 491.639 -0.173061 2.33961 0
M  V30 5200 C 492.655 -0.898825 1.48987 0
M  V30 5201 O 493.831 -0.864825 1.81887 0
M  V30 5202 C 490.896 -1.18177 3.25937 0
M  V30 5203 C 489.957 -0.462041 4.26806 0
M  V30 5204 C 489.19 -1.4227 5.14388 0
M  V30 5205 O 489.413 -2.65842 5.04662 0
M  V30 5206 O 488.347 -0.940127 5.94513 0
M  V30 5207 H 492.173 0.541216 2.98839 0
M  V30 5208 H 489.758 0.330647 1.45695 0
M  V30 5209 H 491.64 -1.76372 3.82715 0
M  V30 5210 H 490.315 -1.87774 2.63671 0
M  V30 5211 H 489.222 0.161429 3.73752 0
M  V30 5212 H 490.555 0.192719 4.91823 0
M  V30 5213 N 492.207 -1.54576 0.307264 0
M  V30 5214 C 493.17 -2.22423 -0.553224 0
M  V30 5215 C 494.17 -1.21231 -1.05639 0
M  V30 5216 O 495.36 -1.45923 -0.951419 0
M  V30 5217 C 492.492 -2.91552 -1.76664 0
M  V30 5218 H 493.685 -2.99874 0.0396484 0
M  V30 5219 H 491.238 -1.56192 0.0581629 0
M  V30 5220 H 491.973 -2.18196 -2.39918 0
M  V30 5221 H 491.758 -3.65738 -1.41343 0
M  V30 5222 H 493.248 -3.43292 -2.37783 0
M  V30 5223 N 493.685 -0.035106 -1.57561 0
M  V30 5224 C 494.931 0.64318 -1.92331 0
M  V30 5225 C 495.264 1.71434 -0.912368 0
M  V30 5226 O 494.539 1.94395 0.0640303 0
M  V30 5227 C 494.822 1.25411 -3.37556 0
M  V30 5228 C 494.675 0.192109 -4.4939 0
M  V30 5229 C 495.994 2.17041 -3.82859 0
M  V30 5230 H 493.113 0.232341 -0.699419 0
M  V30 5231 H 495.755 -0.0935889 -1.89769 0
M  V30 5232 H 493.905 1.88205 -3.39869 0
M  V30 5233 H 495.577 -0.438849 -4.59208 0
M  V30 5234 H 493.82 -0.481725 -4.31117 0
M  V30 5235 H 494.491 0.659292 -5.48049 0
M  V30 5236 H 496.967 1.64228 -3.8232 0
M  V30 5237 H 495.843 2.56738 -4.85157 0
M  V30 5238 H 496.104 3.06401 -3.18702 0
M  V30 5239 N 495.163 1.55791 0.238111 0
M  V30 5240 C 496.11 1.9105 1.29493 0
M  V30 5241 C 497.08 0.765733 1.47397 0
M  V30 5242 O 498.265 1.02017 1.61236 0
M  V30 5243 C 495.405 2.21826 2.64362 0
M  V30 5244 C 494.518 3.49153 2.54394 0
M  V30 5245 C 493.653 3.69455 3.81676 0
M  V30 5246 C 492.692 4.90353 3.66361 0
M  V30 5247 N 491.829 5.07131 4.85554 0
M  V30 5248 H 496.669 2.81172 0.987233 0
M  V30 5249 H 494.206 1.39179 0.476203 0
M  V30 5250 H 496.164 2.37675 3.4288 0
M  V30 5251 H 494.794 1.34897 2.93262 0
M  V30 5252 H 493.846 3.41587 1.67399 0
M  V30 5253 H 495.158 4.37818 2.38991 0
M  V30 5254 H 494.312 3.85311 4.68636 0
M  V30 5255 H 493.051 2.7904 3.99985 0
M  V30 5256 H 492.056 4.74464 2.77784 0
M  V30 5257 H 493.281 5.82237 3.49538 0
M  V30 5258 H 491.227 4.19654 5.04209 0
M  V30 5259 H 491.144 5.89899 4.72816 0
M  V30 5260 H 492.412 5.27407 5.73988 0
M  V30 5261 N 496.642 -0.504142 1.49319 0
M  V30 5262 C 497.89 -1.25598 1.58334 0
M  V30 5263 C 498.211 -1.93114 0.270538 0
M  V30 5264 O 497.481 -1.82585 -0.709891 0
M  V30 5265 H 496.061 -0.466571 0.58337 0
M  V30 5266 H 498.723 -0.584547 1.85928 0
M  V30 5267 H 497.819 -2.02159 2.37778 0
M  V30 5268 N 498.12 -1.38341 -0.754957 0
M  V30 5269 C 499.052 -1.31347 -1.87831 0
M  V30 5270 C 500.065 -0.225955 -1.61224 0
M  V30 5271 O 501.254 -0.48341 -1.7183 0
M  V30 5272 C 498.354 -1.01201 -3.23437 0
M  V30 5273 C 497.527 -2.20834 -3.77559 0
M  V30 5274 C 496.586 -1.87454 -4.91678 0
M  V30 5275 O 495.612 -2.59934 -5.06382 0
M  V30 5276 N 496.814 -0.828682 -5.74555 0
M  V30 5277 H 499.579 -2.28147 -1.94342 0
M  V30 5278 H 497.14 -1.32184 -0.934828 0
M  V30 5279 H 499.132 -0.769249 -3.97322 0
M  V30 5280 H 497.702 -0.132011 -3.12321 0
M  V30 5281 H 496.922 -2.61184 -2.95256 0
M  V30 5282 H 498.21 -3.00678 -4.10451 0
M  V30 5283 H 497.608 -0.227591 -5.65242 0
M  V30 5284 H 496.165 -0.645802 -6.48593 0
M  V30 5285 N 499.598 0.982988 -1.23187 0
M  V30 5286 C 500.826 1.75921 -1.08901 0
M  V30 5287 C 501.241 1.85341 0.359719 0
M  V30 5288 O 500.598 1.33072 1.24892 0
M  V30 5289 C 500.649 3.18742 -1.70545 0
M  V30 5290 O 500.37 3.09814 -3.09753 0
M  V30 5291 C 501.871 4.1277 -1.61667 0
M  V30 5292 H 499.091 0.552166 -0.381252 0
M  V30 5293 H 501.635 1.23516 -1.62985 0
M  V30 5294 H 499.79 3.68182 -1.20501 0
M  V30 5295 H 500.204 3.99703 -3.39614 0
M  V30 5296 H 501.678 5.10697 -2.09506 0
M  V30 5297 H 502.155 4.3542 -0.575009 0
M  V30 5298 H 502.761 3.69232 -2.11064 0
M  V30 5299 N 501.076 1.04316 1.18135 0
M  V30 5300 C 502.006 0.657299 2.24058 0
M  V30 5301 C 502.987 -0.340678 1.66654 0
M  V30 5302 O 504.172 -0.220223 1.92947 0
M  V30 5303 C 501.302 0.0220715 3.47293 0
M  V30 5304 C 500.256 0.943857 4.17463 0
M  V30 5305 C 499.582 0.172973 5.3442 0
M  V30 5306 C 500.882 2.26409 4.70677 0
M  V30 5307 H 502.576 1.5428 2.56589 0
M  V30 5308 H 500.122 0.743263 1.23335 0
M  V30 5309 H 502.075 -0.259607 4.206 0
M  V30 5310 H 500.799 -0.898323 3.14003 0
M  V30 5311 H 499.458 1.20996 3.46057 0
M  V30 5312 H 499.106 -0.749907 4.97379 0
M  V30 5313 H 498.806 0.787098 5.82304 0
M  V30 5314 H 500.33 -0.101628 6.10515 0
M  V30 5315 H 501.744 2.04294 5.35665 0
M  V30 5316 H 500.141 2.8314 5.29105 0
M  V30 5317 H 501.211 2.90883 3.87962 0
M  V30 5318 N 502.554 -1.34406 0.822964 0
M  V30 5319 C 503.484 -2.32052 0.259608 0
M  V30 5320 C 504.465 -1.58243 -0.623961 0
M  V30 5321 O 505.65 -1.86224 -0.55083 0
M  V30 5322 C 502.78 -3.42434 -0.579314 0
M  V30 5323 C 501.734 -4.27499 0.20712 0
M  V30 5324 C 501.06 -5.29349 -0.754547 0
M  V30 5325 C 502.36 -5.02758 1.41533 0
M  V30 5326 H 504.054 -2.79418 1.07545 0
M  V30 5327 H 501.6 -1.34338 0.518593 0
M  V30 5328 H 503.553 -4.0976 -0.983612 0
M  V30 5329 H 502.277 -2.93717 -1.4282 0
M  V30 5330 H 500.936 -3.61776 0.592787 0
M  V30 5331 H 500.584 -4.76895 -1.59939 0
M  V30 5332 H 500.284 -5.8714 -0.232561 0
M  V30 5333 H 501.808 -5.99544 -1.1567 0
M  V30 5334 H 503.222 -5.62938 1.08504 0
M  V30 5335 H 501.619 -5.70123 1.87296 0
M  V30 5336 H 502.689 -4.32451 2.1935 0
M  V30 5337 N 504.032 -0.577932 -1.46621 0
M  V30 5338 C 504.995 0.147805 -2.28723 0
M  V30 5339 C 505.995 0.823325 -1.38123 0
M  V30 5340 O 507.185 0.676011 -1.60548 0
M  V30 5341 C 504.317 1.21853 -3.18378 0
M  V30 5342 H 505.51 -0.573654 -2.94362 0
M  V30 5343 H 503.063 -0.335703 -1.52652 0
M  V30 5344 H 503.798 1.97173 -2.57475 0
M  V30 5345 H 503.583 0.738714 -3.85078 0
M  V30 5346 H 505.073 1.72768 -3.80186 0
M  V30 5347 N 505.51 1.54411 -0.315457 0
M  V30 5348 C 506.756 2.00716 0.289972 0
M  V30 5349 C 507.089 1.2034 1.5242 0
M  V30 5350 O 506.364 0.283579 1.92422 0
M  V30 5351 C 506.647 3.54507 0.632196 0
M  V30 5352 C 506.5 4.45615 -0.61218 0
M  V30 5353 C 507.819 4.15421 1.45305 0
M  V30 5354 H 504.938 0.729637 0.10392 0
M  V30 5355 H 507.58 1.8506 -0.430427 0
M  V30 5356 H 505.73 3.67979 1.24595 0
M  V30 5357 H 507.402 4.44026 -1.25053 0
M  V30 5358 H 505.645 4.15621 -1.24264 0
M  V30 5359 H 506.316 5.51022 -0.328379 0
M  V30 5360 H 508.792 4.05474 0.934331 0
M  V30 5361 H 507.668 5.23157 1.66127 0
M  V30 5362 H 507.929 3.68223 2.44671 0
M  V30 5363 N 506.988 0.0434614 1.5754 0
M  V30 5364 C 507.951 -0.918696 2.09982 0
M  V30 5365 C 508.951 -1.24488 1.01781 0
M  V30 5366 O 510.141 -1.18284 1.27885 0
M  V30 5367 C 507.273 -2.23093 2.57764 0
M  V30 5368 H 508.466 -0.464229 2.96285 0
M  V30 5369 H 506.019 -0.204818 1.54952 0
M  V30 5370 H 506.754 -2.73137 1.74832 0
M  V30 5371 H 506.539 -2.00724 3.36827 0
M  V30 5372 H 508.029 -2.92028 2.98512 0
M  V30 5373 N 508.466 -1.55915 -0.229846 0
M  V30 5374 C 509.413 -1.91734 -1.28478 0
M  V30 5375 C 510.383 -0.773539 -1.46988 0
M  V30 5376 O 511.568 -1.02871 -1.60693 0
M  V30 5377 C 508.708 -2.23224 -2.63182 0
M  V30 5378 C 507.821 -3.50497 -2.52539 0
M  V30 5379 C 506.956 -3.71474 -3.79711 0
M  V30 5380 C 505.995 -4.92289 -3.63755 0
M  V30 5381 N 505.132 -5.09698 -4.82858 0
M  V30 5382 H 509.972 -2.81692 -0.972308 0
M  V30 5383 H 507.509 -1.39429 -0.468815 0
M  V30 5384 H 509.467 -2.3949 -3.41614 0
M  V30 5385 H 508.097 -1.36451 -2.92542 0
M  V30 5386 H 507.149 -3.4247 -1.65585 0
M  V30 5387 H 508.461 -4.39079 -2.36666 0
M  V30 5388 H 507.615 -3.87791 -4.66586 0
M  V30 5389 H 506.354 -2.81157 -3.985 0
M  V30 5390 H 505.359 -4.7593 -2.75264 0
M  V30 5391 H 506.584 -5.84083 -3.46445 0
M  V30 5392 H 504.53 -4.22322 -5.01976 0
M  V30 5393 H 504.447 -5.92399 -4.69681 0
M  V30 5394 H 505.715 -5.30443 -5.71183 0
M  V30 5395 N 509.944 0.496216 -1.49584 0
M  V30 5396 C 511.169 1.27865 -1.63295 0
M  V30 5397 C 511.594 1.85592 -0.306156 0
M  V30 5398 O 510.952 1.66092 0.726851 0
M  V30 5399 C 511 2.38128 -2.7079 0
M  V30 5400 O 510.104 3.42108 -2.30296 0
M  V30 5401 H 509.445 0.377279 -0.546403 0
M  V30 5402 H 511.975 0.593497 -1.95803 0
M  V30 5403 H 511.985 2.8382 -2.93104 0
M  V30 5404 H 510.66 1.95479 -3.67098 0
M  V30 5405 H 509.237 3.02301 -2.18331 0
M  V30 5406 N 511.423 1.38739 0.74761 0
M  V30 5407 C 512.355 1.32341 1.87132 0
M  V30 5408 C 513.368 0.234502 1.61102 0
M  V30 5409 O 514.557 0.492516 1.71571 0
M  V30 5410 C 511.657 1.02915 3.22896 0
M  V30 5411 C 510.83 2.22834 3.76383 0
M  V30 5412 C 509.889 1.90059 4.90677 0
M  V30 5413 O 508.915 2.62615 5.04997 0
M  V30 5414 N 510.117 0.859141 5.74107 0
M  V30 5415 H 512.882 2.29175 1.93129 0
M  V30 5416 H 510.443 1.32678 0.927805 0
M  V30 5417 H 512.435 0.79031 3.96908 0
M  V30 5418 H 511.005 0.148572 3.12247 0
M  V30 5419 H 510.225 2.62747 2.93867 0
M  V30 5420 H 511.513 3.02851 4.08851 0
M  V30 5421 H 510.911 0.257564 5.65113 0
M  V30 5422 H 509.468 0.680189 6.48241 0
M  V30 5423 O 512.94 -0.888371 1.34871 0
M  V30 5424 H 513.631 -1.52504 1.19424 0
M  V30 END ATOM
M  V30 BEGIN BOND
M  V30 END BOND
M  V30 END CTAB
M  END
$$$$
