drugbank_target|P02748 Complement component C9 (DB09130)
 OpenBabel12092121073D

  0  0  0     0  0            999 V3000
M  V30 BEGIN CTAB
M  V30 COUNTS 8728 8812 0 0 0
M  V30 BEGIN ATOM
M  V30 1 H -0.908 1.98254 -0.117106 0
M  V30 2 N 0 1.576 0 0
M  V30 3 C 0.933 2.03868 1.02534 0
M  V30 4 C 1.911 0.928543 1.3348 0
M  V30 5 O 3.095 1.19667 1.45644 0
M  V30 6 C 0.222 2.43627 2.35294 0
M  V30 7 C -0.732 3.65373 2.2001 0
M  V30 8 S 0.101 5.13292 1.52614 0
M  V30 9 C 1.257 5.56322 2.86805 0
M  V30 10 H 1.49 2.90518 0.631377 0
M  V30 11 H -0.977 1.52953 0.210867 0
M  V30 12 H 0.981 2.67203 3.11629 0
M  V30 13 H -0.358 1.57376 2.7183 0
M  V30 14 H -1.165 3.90944 3.18086 0
M  V30 15 H -1.563 3.418 1.51819 0
M  V30 16 H 0.729 5.58782 3.83104 0
M  V30 17 H 1.672 6.56266 2.65933 0
M  V30 18 H 2.08 4.83886 2.90714 0
M  V30 19 N 1.4781 -0.272755 1.55222 0
M  V30 20 C 2.7031 -1.02683 1.80197 0
M  V30 21 C 3.1281 -1.79142 0.573551 0
M  V30 22 O 2.4861 -1.74917 -0.476849 0
M  V30 23 C 2.5341 -1.9609 3.02624 0
M  V30 24 O 1.6381 -3.04863 2.77727 0
M  V30 25 H 0.9791 -0.293557 0.595584 0
M  V30 26 H 3.5091 -0.30159 2.02365 0
M  V30 27 H 3.5191 -2.38039 3.31363 0
M  V30 28 H 2.1941 -1.39851 3.91682 0
M  V30 29 H 0.7711 -2.67228 2.60084 0
M  V30 30 N 2.9562 -1.48159 -0.537278 0
M  V30 31 C 3.9192 -1.61665 -1.62472 0
M  V30 32 C 4.9192 -0.490395 -1.5314 0
M  V30 33 O 6.1092 -0.755998 -1.5694 0
M  V30 34 C 3.2412 -1.57997 -3.02076 0
M  V30 35 H 4.4342 -2.58621 -1.51839 0
M  V30 36 H 1.9872 -1.36647 -0.758771 0
M  V30 37 H 2.7222 -0.624913 -3.18222 0
M  V30 38 H 2.5072 -2.39755 -3.10258 0
M  V30 39 H 3.9972 -1.70627 -3.81151 0
M  V30 40 N 4.4343 0.785586 -1.36625 0
M  V30 41 C 5.6743 1.55678 -1.32453 0
M  V30 42 C 6.0383 1.91769 0.0941089 0
M  V30 43 O 7.2393 2.67536 0.26042 0
M  V30 44 C 5.5103 2.79701 -2.22491 0
M  V30 45 S 7.0693 3.69907 -2.36038 0
M  V30 46 H 3.8873 0.533141 -0.470405 0
M  V30 47 H 6.4893 0.924953 -1.72235 0
M  V30 48 H 5.1933 2.51244 -3.24507 0
M  V30 49 H 4.7243 3.47854 -1.83742 0
M  V30 50 H 6.7393 4.71016 -1.56072 0
M  V30 51 N 5.9124 1.20967 1.01018 0
M  V30 52 C 7.3284 0.965905 1.27053 0
M  V30 53 C 7.5284 -0.350785 1.98423 0
M  V30 54 O 6.5844 -1.07773 2.28344 0
M  V30 55 C 7.8974 2.15294 2.09926 0
M  V30 56 C 9.4454 2.19463 2.23171 0
M  V30 57 C 9.9204 3.3767 3.09424 0
M  V30 58 N 11.4114 3.37724 3.17012 0
M  V30 59 C 12.1464 4.25837 3.83993 0
M  V30 60 N 11.6424 5.24138 4.53047 0
M  V30 61 N 13.4354 4.1366 3.80581 0
M  V30 62 H 5.5864 2.0565 0.531194 0
M  V30 63 H 7.8494 0.90024 0.297106 0
M  V30 64 H 7.5554 3.10684 1.64828 0
M  V30 65 H 7.4294 2.13923 3.10672 0
M  V30 66 H 9.8164 1.24632 2.6749 0
M  V30 67 H 9.8974 2.2488 1.21912 0
M  V30 68 H 9.5414 4.32791 2.65808 0
M  V30 69 H 9.4714 3.29491 4.10784 0
M  V30 70 H 11.9624 2.6658 2.6785 0
M  V30 71 H 12.2754 5.87684 5.01844 0
M  V30 72 H 10.6204 5.28068 4.5185 0
M  V30 73 H 13.8114 3.36127 3.25785 0
M  V30 74 H 13.9844 4.82538 4.32505 0
M  V30 75 N 7.3905 -1.2043 1.01659 0
M  V30 76 C 8.6155 -1.94318 0.724942 0
M  V30 77 C 9.0405 -1.74266 -0.708034 0
M  V30 78 O 8.3985 -1.03694 -1.48719 0
M  V30 79 C 8.4465 -3.44486 1.06591 0
M  V30 80 O 7.5505 -4.12017 0.177599 0
M  V30 81 H 6.8915 -0.60708 0.26898 0
M  V30 82 H 9.4215 -1.52861 1.35995 0
M  V30 83 H 9.4315 -3.95106 1.01762 0
M  V30 84 H 8.1065 -3.58404 2.10997 0
M  V30 85 H 6.6835 -3.71821 0.283421 0
M  V30 86 N 8.8686 -0.792821 -1.36206 0
M  V30 87 C 10.1156 -0.366786 -1.99151 0
M  V30 88 C 10.4436 1.06243 -1.62919 0
M  V30 89 O 9.6986 1.74927 -0.877442 0
M  V30 90 C 9.9976 -0.481501 -3.54142 0
M  V30 91 C 9.6636 -1.87202 -4.10203 0
M  V30 92 C 8.3256 -2.25248 -4.25226 0
M  V30 93 C 10.6776 -2.78237 -4.40719 0
M  V30 94 C 8.0056 -3.53723 -4.68078 0
M  V30 95 C 10.3576 -4.06144 -4.85005 0
M  V30 96 C 9.0216 -4.44207 -4.98234 0
M  V30 97 H 8.2916 -0.134217 -0.728743 0
M  V30 98 H 10.9386 -1.01094 -1.62641 0
M  V30 99 H 9.2436 0.246146 -3.91026 0
M  V30 100 H 10.9406 -0.132844 -4.0078 0
M  V30 101 H 7.5306 -1.56639 -3.98951 0
M  V30 102 H 11.7146 -2.50097 -4.28679 0
M  V30 103 H 6.9706 -3.8308 -4.76508 0
M  V30 104 H 11.1446 -4.76796 -5.07581 0
M  V30 105 H 8.7716 -5.43814 -5.31197 0
M  V30 106 N 10.3467 1.47872 -0.545128 0
M  V30 107 C 11.3097 2.28337 0.198717 0
M  V30 108 C 12.3097 1.36255 0.853888 0
M  V30 109 O 13.4997 1.59003 0.711606 0
M  V30 110 C 10.6317 3.15585 1.28915 0
M  V30 111 H 11.8247 2.95567 -0.507941 0
M  V30 112 H 9.3777 1.53362 -0.301616 0
M  V30 113 H 10.1127 2.53019 2.02859 0
M  V30 114 H 9.8977 3.83337 0.824309 0
M  V30 115 H 11.3877 3.76243 1.81194 0
M  V30 116 N 11.8248 0.280983 1.55075 0
M  V30 117 C 13.0708 -0.33461 2.00021 0
M  V30 118 C 13.4038 -1.55063 1.16915 0
M  V30 119 O 12.6788 -1.93006 0.240646 0
M  V30 120 C 12.9618 -0.711007 3.53011 0
M  V30 121 C 12.8148 0.512766 4.46868 0
M  V30 122 C 14.1338 -1.54522 4.12081 0
M  V30 123 H 11.2528 -0.120147 0.727141 0
M  V30 124 H 13.8948 0.389097 1.85973 0
M  V30 125 H 12.0448 -1.32761 3.65112 0
M  V30 126 H 13.7168 1.15131 4.46702 0
M  V30 127 H 11.9598 1.14975 4.18286 0
M  V30 128 H 12.6308 0.205556 5.51617 0
M  V30 129 H 15.1068 -1.02442 4.03293 0
M  V30 130 H 13.9828 -1.77739 5.19327 0
M  V30 131 H 14.2438 -2.52813 3.62682 0
M  V30 132 N 13.3029 -1.57598 0.00835791 0
M  V30 133 C 14.2659 -2.07884 -0.965242 0
M  V30 134 C 15.2659 -0.989825 -1.26725 0
M  V30 135 O 16.4559 -1.25218 -1.21104 0
M  V30 136 C 13.5879 -2.52731 -2.28779 0
M  V30 137 H 14.7809 -2.95178 -0.530112 0
M  V30 138 H 12.3339 -1.54458 -0.239283 0
M  V30 139 H 13.0689 -1.68705 -2.76964 0
M  V30 140 H 12.8539 -3.32272 -2.08177 0
M  V30 141 H 14.3439 -2.91933 -2.98605 0
M  V30 142 N 14.781 0.264519 -1.55364 0
M  V30 143 C 16.03 0.992812 -1.75574 0
M  V30 144 C 16.343 1.87142 -0.568979 0
M  V30 145 O 17.549 2.63513 -0.653682 0
M  V30 146 C 16.005 1.81519 -3.10771 0
M  V30 147 C 15.613 0.984839 -4.37041 0
M  V30 148 C 17.357 2.53727 -3.40327 0
M  V30 149 C 15.264 1.80209 -5.63275 0
M  V30 150 H 14.194 0.374412 -0.65447 0
M  V30 151 H 16.845 0.248138 -1.81815 0
M  V30 152 H 15.227 2.60115 -2.98591 0
M  V30 153 H 16.401 0.242455 -4.60162 0
M  V30 154 H 14.716 0.37691 -4.14691 0
M  V30 155 H 17.313 3.15292 -4.3185 0
M  V30 156 H 17.656 3.24447 -2.60845 0
M  V30 157 H 18.189 1.82156 -3.53644 0
M  V30 158 H 14.928 1.13896 -6.45529 0
M  V30 159 H 14.448 2.52022 -5.44284 0
M  V30 160 H 16.127 2.37364 -6.01887 0
M  V30 161 N 16.2591 1.48442 0.529413 0
M  V30 162 C 17.4991 1.58086 1.29569 0
M  V30 163 C 17.8631 0.249302 1.90375 0
M  V30 164 O 19.0641 0.220738 2.67892 0
M  V30 165 C 17.3351 2.68793 2.35552 0
M  V30 166 S 18.8941 2.98207 3.21898 0
M  V30 167 H 15.7121 0.557922 0.440732 0
M  V30 168 H 18.3141 1.85966 0.603059 0
M  V30 169 H 17.0181 3.64102 1.89363 0
M  V30 170 H 16.5491 2.42817 3.09522 0
M  V30 171 H 18.5641 2.37548 4.35644 0
M  V30 172 N 17.7372 -0.778329 1.37039 0
M  V30 173 C 18.9862 -1.53189 1.3121 0
M  V30 174 C 19.2992 -1.95328 -0.103095 0
M  V30 175 O 20.5052 -2.70012 -0.283826 0
M  V30 176 C 18.9612 -2.76591 2.30272 0
M  V30 177 C 18.5692 -2.41577 3.77286 0
M  V30 178 C 20.3132 -3.5455 2.33441 0
M  V30 179 C 18.2202 -3.61441 4.68096 0
M  V30 180 H 17.1502 -0.5751 0.487622 0
M  V30 181 H 19.8012 -0.853101 1.62464 0
M  V30 182 H 18.1832 -3.46326 1.92027 0
M  V30 183 H 19.3572 -1.79668 4.2433 0
M  V30 184 H 17.6722 -1.76806 3.76999 0
M  V30 185 H 20.2692 -4.43628 2.98493 0
M  V30 186 H 20.6122 -3.93936 1.34611 0
M  V30 187 H 21.1452 -2.91805 2.7036 0
M  V30 188 H 17.8842 -3.27142 5.6803 0
M  V30 189 H 17.4042 -4.22478 4.25761 0
M  V30 190 H 19.0832 -4.28335 4.8491 0
M  V30 191 N 19.2153 -1.21501 -1.00376 0
M  V30 192 C 20.1453 -0.999478 -2.11028 0
M  V30 193 C 21.1263 0.0759671 -1.6993 0
M  V30 194 O 22.3113 -0.0841106 -1.94018 0
M  V30 195 C 19.4413 -0.564709 -3.42678 0
M  V30 196 C 18.3953 -1.58486 -3.97576 0
M  V30 197 C 17.7213 -1.00628 -5.25146 0
M  V30 198 C 19.0213 -2.97204 -4.29496 0
M  V30 199 H 20.7153 -1.92495 -2.29317 0
M  V30 200 H 18.2613 -0.92693 -1.102 0
M  V30 201 H 20.2143 -0.401091 -4.19487 0
M  V30 202 H 18.9383 0.396411 -3.24185 0
M  V30 203 H 17.5973 -1.73606 -3.22888 0
M  V30 204 H 17.2453 -0.0368439 -5.02987 0
M  V30 205 H 16.9453 -1.68771 -5.62841 0
M  V30 206 H 18.4693 -0.854015 -6.04598 0
M  V30 207 H 19.8833 -2.8552 -4.97143 0
M  V30 208 H 18.2803 -3.62372 -4.78338 0
M  V30 209 H 19.3503 -3.47956 -3.3772 0
M  V30 210 N 20.6934 1.19889 -1.02296 0
M  V30 211 C 21.6034 2.26571 -0.608508 0
M  V30 212 C 22.6194 1.70299 0.356964 0
M  V30 213 O 23.7954 2.00235 0.216326 0
M  V30 214 C 20.8604 3.46677 0.0402814 0
M  V30 215 C 19.9214 4.18153 -0.97194 0
M  V30 216 C 19.1544 5.32525 -0.354016 0
M  V30 217 O 19.3774 5.64112 0.844604 0
M  V30 218 O 18.3114 5.92242 -1.07391 0
M  V30 219 H 22.1374 2.64251 -1.49684 0
M  V30 220 H 19.7224 1.26629 -0.792809 0
M  V30 221 H 21.6044 4.19475 0.402324 0
M  V30 222 H 20.2794 3.10858 0.902707 0
M  V30 223 H 19.1864 3.47499 -1.38546 0
M  V30 224 H 20.5194 4.57927 -1.80454 0
M  V30 225 N 22.1715 0.800033 1.35784 0
M  V30 226 C 23.4205 0.37387 1.98205 0
M  V30 227 C 23.7335 -1.06302 1.64193 0
M  V30 228 O 24.9395 -1.59198 2.19928 0
M  V30 229 C 23.3955 0.617532 3.54562 0
M  V30 230 C 23.0035 2.06654 3.9749 0
M  V30 231 C 24.7475 0.256401 4.23725 0
M  V30 232 C 22.6545 2.2563 5.46667 0
M  V30 233 H 21.5845 0.136055 0.741623 0
M  V30 234 H 24.2355 0.983166 1.54939 0
M  V30 235 H 22.6175 -0.0616248 3.95952 0
M  V30 236 H 23.7915 2.78296 3.67271 0
M  V30 237 H 22.1065 2.38691 3.41197 0
M  V30 238 H 24.7035 0.376318 5.33374 0
M  V30 239 H 25.0465 -0.796692 4.08606 0
M  V30 240 H 25.5795 0.889214 3.87734 0
M  V30 241 H 22.3185 3.2936 5.66747 0
M  V30 242 H 21.8385 1.58504 5.78478 0
M  V30 243 H 23.5175 2.06861 6.1304 0
M  V30 244 N 23.6496 -1.47581 0.552962 0
M  V30 245 C 24.8746 -2.07378 0.0300593 0
M  V30 246 C 25.2996 -1.40355 -1.25229 0
M  V30 247 O 24.6576 -0.477099 -1.7491 0
M  V30 248 C 24.7056 -3.60274 -0.153231 0
M  V30 249 O 23.8096 -3.94041 -1.21678 0
M  V30 250 H 23.1506 -0.662158 0.0494182 0
M  V30 251 H 25.6806 -1.89662 0.767434 0
M  V30 252 H 25.6906 -4.0633 -0.368761 0
M  V30 253 H 24.3656 -4.08455 0.783397 0
M  V30 254 H 22.9426 -3.59735 -0.982079 0
M  V30 255 N 25.1277 -0.289203 -1.54924 0
M  V30 256 C 26.3767 0.324231 -1.99077 0
M  V30 257 C 26.6897 1.5591 -1.18117 0
M  V30 258 O 27.8957 2.24637 -1.52481 0
M  V30 259 C 26.3517 0.628209 -3.54375 0
M  V30 260 C 25.9597 -0.587647 -4.44129 0
M  V30 261 C 27.7037 1.20349 -4.07083 0
M  V30 262 C 25.6107 -0.257475 -5.90839 0
M  V30 263 H 24.5407 0.124924 -0.743579 0
M  V30 264 H 27.1917 -0.396063 -1.79175 0
M  V30 265 H 25.5737 1.40778 -3.70132 0
M  V30 266 H 26.7477 -1.36418 -4.40144 0
M  V30 267 H 25.0627 -1.08074 -4.0213 0
M  V30 268 H 27.6597 1.46456 -5.14252 0
M  V30 269 H 28.0027 2.14195 -3.56968 0
M  V30 270 H 28.5357 0.485889 -3.94821 0
M  V30 271 H 25.2747 -1.16419 -6.45079 0
M  V30 272 H 24.7947 0.482018 -5.9786 0
M  V30 273 H 26.4737 0.145238 -6.46837 0
M  V30 274 N 26.6058 1.57591 -0.0167156 0
M  V30 275 C 27.5358 2.12496 0.967858 0
M  V30 276 C 28.5168 1.03807 1.34752 0
M  V30 277 O 29.7018 1.31577 1.42833 0
M  V30 278 C 26.8318 2.64194 2.25431 0
M  V30 279 C 25.7858 3.77559 2.01576 0
M  V30 280 C 25.1118 4.15636 3.36379 0
M  V30 281 C 26.4118 5.04151 1.36489 0
M  V30 282 H 28.1058 2.95013 0.510643 0
M  V30 283 H 25.6518 1.41915 0.244181 0
M  V30 284 H 27.6048 3.01236 2.94678 0
M  V30 285 H 26.3288 1.78821 2.73296 0
M  V30 286 H 24.9878 3.40937 1.34751 0
M  V30 287 H 24.6358 3.27263 3.81979 0
M  V30 288 H 24.3358 4.92022 3.21229 0
M  V30 289 H 25.8598 4.5525 4.06915 0
M  V30 290 H 27.2738 5.38857 1.95718 0
M  V30 291 H 25.6708 5.85453 1.31776 0
M  V30 292 H 26.7408 4.83733 0.336219 0
M  V30 293 N 28.0839 -0.256276 1.55502 0
M  V30 294 C 29.3119 -1.00342 1.8094 0
M  V30 295 C 29.7269 -1.79307 0.59114 0
M  V30 296 O 29.0839 -1.77114 -0.440081 0
M  V30 297 C 29.1349 -1.94875 3.04476 0
M  V30 298 O 28.8559 -1.19107 4.21598 0
M  V30 299 C 30.3569 -2.81266 3.42644 0
M  V30 300 H 27.5769 -0.295685 0.602338 0
M  V30 301 H 30.1209 -0.281998 2.02546 0
M  V30 302 H 28.2759 -2.62457 2.84947 0
M  V30 303 H 28.6899 -1.82969 4.91551 0
M  V30 304 H 30.1639 -3.43362 4.32211 0
M  V30 305 H 30.6409 -3.51897 2.62802 0
M  V30 306 H 31.2469 -2.1915 3.64491 0
M  V30 307 N 29.562 -1.4872 -0.521534 0
M  V30 308 C 30.525 -1.63379 -1.60748 0
M  V30 309 C 31.525 -0.50661 -1.52611 0
M  V30 310 O 32.715 -0.772601 -1.5613 0
M  V30 311 C 29.847 -1.61192 -3.00383 0
M  V30 312 H 31.04 -2.60217 -1.49087 0
M  V30 313 H 28.593 -1.37444 -0.744235 0
M  V30 314 H 29.328 -0.65863 -3.17541 0
M  V30 315 H 29.113 -2.43032 -3.07698 0
M  V30 316 H 30.603 -1.7466 -3.7932 0
M  V30 317 N 31.0401 0.771051 -1.3745 0
M  V30 318 C 31.9721 1.89352 -1.29146 0
M  V30 319 C 32.9851 1.61477 -0.207124 0
M  V30 320 O 34.1741 1.72382 -0.463324 0
M  V30 321 C 31.2741 3.24596 -0.974195 0
M  V30 322 C 30.4471 3.80111 -2.16413 0
M  V30 323 C 29.5061 4.93832 -1.81703 0
M  V30 324 O 28.5321 5.09382 -2.54006 0
M  V30 325 N 29.7341 5.75483 -0.761573 0
M  V30 326 H 32.4991 1.96991 -2.25864 0
M  V30 327 H 30.0601 0.950191 -1.31084 0
M  V30 328 H 32.0521 3.98193 -0.722828 0
M  V30 329 H 30.6221 3.12454 -0.0955527 0
M  V30 330 H 29.8421 2.98284 -2.57721 0
M  V30 331 H 31.1301 4.13932 -2.95867 0
M  V30 332 H 30.5281 5.65469 -0.161609 0
M  V30 333 H 29.0851 6.49302 -0.570064 0
M  V30 334 N 32.5182 1.22032 0.997298 0
M  V30 335 C 33.7482 1.06686 1.76923 0
M  V30 336 C 34.1562 -0.385838 1.85224 0
M  V30 337 O 33.4992 -1.27929 1.31833 0
M  V30 338 C 33.5612 1.59802 3.22031 0
M  V30 339 C 33.2252 3.08362 3.37286 0
M  V30 340 C 34.2222 4.05835 3.24952 0
M  V30 341 C 31.9072 3.47727 3.6248 0
M  V30 342 C 33.9012 5.4066 3.37588 0
M  V30 343 C 31.5882 4.82701 3.74757 0
M  V30 344 C 32.5862 5.78977 3.62319 0
M  V30 345 O 32.2742 7.11502 3.74193 0
M  V30 346 H 32.0062 0.374767 0.562606 0
M  V30 347 H 34.5602 1.61991 1.26286 0
M  V30 348 H 32.7902 0.989003 3.73839 0
M  V30 349 H 34.4792 1.40184 3.80924 0
M  V30 350 H 35.2452 3.76766 3.05405 0
M  V30 351 H 31.1242 2.73317 3.7124 0
M  V30 352 H 34.6682 6.15788 3.27796 0
M  V30 353 H 30.5652 5.11453 3.9381 0
M  V30 354 H 31.3332 7.19019 3.91093 0
M  V30 355 N 33.9963 -1.19345 1.0293 0
M  V30 356 C 35.2243 -1.92997 0.745644 0
M  V30 357 C 35.6393 -1.75519 -0.695589 0
M  V30 358 O 34.9963 -1.07737 -1.47306 0
M  V30 359 C 35.0473 -3.44741 1.08792 0
M  V30 360 O 34.7683 -3.61658 2.47256 0
M  V30 361 C 36.2693 -4.35515 0.827129 0
M  V30 362 H 33.4893 -0.613042 0.272801 0
M  V30 363 H 36.0333 -1.51473 1.3739 0
M  V30 364 H 34.1883 -3.84097 0.504832 0
M  V30 365 H 34.6023 -4.55514 2.60015 0
M  V30 366 H 36.0763 -5.40589 1.11658 0
M  V30 367 H 36.5533 -4.38552 -0.238436 0
M  V30 368 H 37.1593 -4.01841 1.39297 0
M  V30 369 N 35.4744 -0.807222 -1.35358 0
M  V30 370 C 36.7024 -0.400377 -2.02989 0
M  V30 371 C 37.1174 0.988859 -1.60832 0
M  V30 372 O 36.4744 1.63729 -0.806175 0
M  V30 373 C 36.5254 -0.474867 -3.58368 0
M  V30 374 O 36.2464 -1.80933 -3.98992 0
M  V30 375 C 37.7474 -0.0609112 -4.43258 0
M  V30 376 H 34.9674 -0.162587 -0.651004 0
M  V30 377 H 37.5114 -1.09102 -1.72965 0
M  V30 378 H 35.6664 0.167534 -3.87038 0
M  V30 379 H 36.0804 -1.77256 -4.9364 0
M  V30 380 H 37.5544 -0.164145 -5.51756 0
M  V30 381 H 38.0314 0.993831 -4.27808 0
M  V30 382 H 38.6374 -0.676492 -4.19885 0
M  V30 383 N 36.9525 1.47285 -0.560781 0
M  V30 384 C 38.1775 2.07359 -0.0410566 0
M  V30 385 C 38.6025 1.41017 1.24483 0
M  V30 386 O 37.9605 0.486368 1.74654 0
M  V30 387 C 38.0085 3.6035 0.134123 0
M  V30 388 O 37.1125 3.94681 1.19587 0
M  V30 389 H 36.4535 0.661887 -0.0529291 0
M  V30 390 H 38.9835 1.89252 -0.777482 0
M  V30 391 H 38.9935 4.0652 0.347207 0
M  V30 392 H 37.6685 4.08034 -0.805047 0
M  V30 393 H 36.2455 3.60251 0.962987 0
M  V30 394 N 38.4306 0.297415 1.54768 0
M  V30 395 C 39.6606 -0.315165 2.04182 0
M  V30 396 C 40.0686 -1.4834 1.17439 0
M  V30 397 O 39.4116 -1.82695 0.191891 0
M  V30 398 C 39.4736 -0.837583 3.49607 0
M  V30 399 C 39.1376 0.204912 4.5654 0
M  V30 400 C 40.1346 1.03214 5.09552 0
M  V30 401 C 37.8196 0.345578 5.0111 0
M  V30 402 C 39.8136 1.986 6.05671 0
M  V30 403 C 37.5006 1.30289 5.97049 0
M  V30 404 C 38.4986 2.12159 6.49213 0
M  V30 405 O 38.1866 3.06268 7.43273 0
M  V30 406 H 37.9186 -0.0729646 0.672051 0
M  V30 407 H 40.4726 0.433907 2.00765 0
M  V30 408 H 38.7026 -1.63712 3.50336 0
M  V30 409 H 40.3916 -1.36566 3.82236 0
M  V30 410 H 41.1576 0.934312 4.75916 0
M  V30 411 H 37.0366 -0.28171 4.60138 0
M  V30 412 H 40.5806 2.62542 6.46311 0
M  V30 413 H 36.4776 1.40145 6.30103 0
M  V30 414 H 37.2456 3.01205 7.61064 0
M  V30 415 N 39.9087 -1.5758 0.0250728 0
M  V30 416 C 41.1857 -1.82917 -0.692873 0
M  V30 417 C 41.5657 -0.908137 -1.90568 0
M  V30 418 O 40.9137 0.0372298 -2.2847 0
M  V30 419 C 41.1237 -3.32034 -1.07492 0
M  V30 420 C 42.4717 -3.98406 -1.46826 0
M  V30 421 O 43.4957 -3.36505 -1.16801 0
M  V30 422 O 42.3547 -5.07497 -2.02754 0
M  V30 423 H 39.4487 -0.754079 -0.33955 0
M  V30 424 H 41.9947 -1.69619 0.0524456 0
M  V30 425 H 40.7667 -3.90728 -0.211552 0
M  V30 426 H 40.3897 -3.50424 -1.87854 0
M  V30 427 N 41.3868 0.248026 -1.55636 0
M  V30 428 C 42.7978 0.817177 -1.67866 0
M  V30 429 C 43.1488 1.86069 -0.622322 0
M  V30 430 O 42.2738 2.15157 0.231618 0
M  V30 431 C 42.8688 1.489 -3.04326 0
M  V30 432 C 41.4278 2.00587 -3.185 0
M  V30 433 C 40.5748 0.856573 -2.63739 0
M  V30 434 H 43.5258 0.0238579 -1.58682 0
M  V30 435 H 43.5468 2.35698 -2.98708 0
M  V30 436 H 43.0588 0.729279 -3.81186 0
M  V30 437 H 41.1598 2.79443 -2.4646 0
M  V30 438 H 41.2728 2.20402 -4.25393 0
M  V30 439 H 39.6368 1.25678 -2.21534 0
M  V30 440 H 40.4198 0.109953 -3.43124 0
M  V30 441 N 42.8649 1.48995 0.513639 0
M  V30 442 C 43.7749 1.67443 1.64317 0
M  V30 443 C 44.7909 0.556947 1.64846 0
M  V30 444 O 45.9669 0.830082 1.83498 0
M  V30 445 C 43.0319 1.72515 3.00732 0
M  V30 446 C 42.0929 2.96009 3.1093 0
M  V30 447 C 41.3259 3.00829 4.40837 0
M  V30 448 O 41.5489 2.13594 5.28898 0
M  V30 449 O 40.4829 3.93168 4.55744 0
M  V30 450 H 44.3089 2.63106 1.51687 0
M  V30 451 H 41.8939 1.32588 0.688543 0
M  V30 452 H 43.7759 1.78277 3.81831 0
M  V30 453 H 42.4509 0.800278 3.13651 0
M  V30 454 H 41.3579 2.9577 2.29065 0
M  V30 455 H 42.6909 3.87934 3.02933 0
M  V30 456 N 44.343 -0.763751 1.37857 0
M  V30 457 C 45.273 -1.89103 1.36975 0
M  V30 458 C 46.254 -1.68439 0.237152 0
M  V30 459 O 47.439 -1.8918 0.438713 0
M  V30 460 C 44.569 -3.26496 1.18395 0
M  V30 461 C 43.523 -3.61741 2.28751 0
M  V30 462 C 42.849 -4.97762 1.95286 0
M  V30 463 C 44.149 -3.67665 3.70972 0
M  V30 464 H 45.843 -1.90099 2.31307 0
M  V30 465 H 43.389 -0.91319 1.11341 0
M  V30 466 H 45.342 -4.05003 1.16406 0
M  V30 467 H 44.066 -3.25955 0.205215 0
M  V30 468 H 42.725 -2.85547 2.29909 0
M  V30 469 H 42.373 -4.93769 0.959221 0
M  V30 470 H 42.073 -5.22313 2.69189 0
M  V30 471 H 43.597 -5.7866 1.94898 0
M  V30 472 H 45.011 -4.36307 3.719 0
M  V30 473 H 43.408 -4.03718 4.43995 0
M  V30 474 H 44.478 -2.68134 4.0402 0
M  V30 475 N 45.8211 -1.22559 -0.990812 0
M  V30 476 C 47.0491 -1.07779 -1.76611 0
M  V30 477 C 47.4641 0.371513 -1.85109 0
M  V30 478 O 46.8211 1.25737 -1.32274 0
M  V30 479 C 46.8721 -1.68512 -3.19822 0
M  V30 480 O 46.5931 -3.07774 -3.1178 0
M  V30 481 C 48.0941 -1.59035 -4.13791 0
M  V30 482 H 45.3141 -0.377729 -0.554583 0
M  V30 483 H 47.8581 -1.62195 -1.24551 0
M  V30 484 H 46.0131 -1.18154 -3.68942 0
M  V30 485 H 46.4271 -3.37062 -4.01858 0
M  V30 486 H 47.9011 -2.0625 -5.1202 0
M  V30 487 H 48.3781 -0.547273 -4.35777 0
M  V30 488 H 48.9841 -2.08709 -3.70568 0
M  V30 489 N 47.2992 1.18797 -1.03562 0
M  V30 490 C 48.2092 2.25913 -0.632505 0
M  V30 491 C 49.2252 1.70668 0.338882 0
M  V30 492 O 50.4012 2.00453 0.195076 0
M  V30 493 C 47.4662 3.467 0.00350942 0
M  V30 494 C 46.5272 4.17098 -1.01624 0
M  V30 495 C 45.7602 5.32119 -0.410478 0
M  V30 496 O 45.9832 5.64976 0.784725 0
M  V30 497 O 44.9172 5.9107 -1.13667 0
M  V30 498 H 48.7432 2.62648 -1.52478 0
M  V30 499 H 46.3282 1.25781 -0.806195 0
M  V30 500 H 48.2102 4.19878 0.35781 0
M  V30 501 H 46.8852 3.11798 0.869686 0
M  V30 502 H 45.7922 3.4601 -1.42224 0
M  V30 503 H 47.1252 4.55987 -1.85301 0
M  V30 504 N 48.7773 0.814389 1.34928 0
M  V30 505 C 50.0023 0.410097 2.03305 0
M  V30 506 C 50.4273 -0.973464 1.60951 0
M  V30 507 O 49.7853 -1.63185 0.789964 0
M  V30 508 C 49.8333 0.51049 3.56968 0
M  V30 509 O 48.9373 -0.473035 4.09678 0
M  V30 510 H 48.2783 0.170088 0.641846 0
M  V30 511 H 50.8083 1.10244 1.72358 0
M  V30 512 H 50.8183 0.383135 4.06197 0
M  V30 513 H 49.4933 1.51963 3.87144 0
M  V30 514 H 48.0703 -0.305272 3.71648 0
M  V30 515 N 50.2554 -1.46986 0.568584 0
M  V30 516 C 51.4804 -2.07335 0.0520528 0
M  V30 517 C 51.9054 -1.41675 -1.23733 0
M  V30 518 O 51.2634 -0.495623 -1.74394 0
M  V30 519 C 51.3114 -3.60417 -0.11501 0
M  V30 520 O 50.4154 -3.95309 -1.17492 0
M  V30 521 H 49.7564 -0.661597 0.0564385 0
M  V30 522 H 52.2864 -1.88837 0.787507 0
M  V30 523 H 52.2964 -4.06698 -0.325644 0
M  V30 524 H 50.9714 -4.07601 0.826675 0
M  V30 525 H 49.5484 -3.60757 -0.943869 0
M  V30 526 N 51.7335 -0.305618 -1.54608 0
M  V30 527 C 52.9815 0.301701 -1.99835 0
M  V30 528 C 53.3025 1.54054 -1.19551 0
M  V30 529 O 52.5725 1.93702 -0.292658 0
M  V30 530 H 51.1525 0.114468 -0.738178 0
M  V30 531 H 53.8145 -0.418016 -1.90364 0
M  V30 532 H 52.9105 0.570548 -3.06841 0
M  V30 533 N 53.2116 1.57565 -0.0334293 0
M  V30 534 C 54.4366 1.96689 0.657895 0
M  V30 535 C 54.8616 0.910057 1.64619 0
M  V30 536 O 54.2196 -0.128598 1.80843 0
M  V30 537 C 54.2676 3.34905 1.33683 0
M  V30 538 O 53.3716 3.31574 2.45219 0
M  V30 539 H 52.7126 0.641205 0.172489 0
M  V30 540 H 55.2426 2.04372 -0.0965621 0
M  V30 541 H 55.2526 3.71234 1.69262 0
M  V30 542 H 53.9276 4.11366 0.612411 0
M  V30 543 H 52.5046 3.06968 2.11719 0
M  V30 544 N 54.6897 -0.239769 1.55765 0
M  V30 545 C 55.6527 -1.28038 1.90103 0
M  V30 546 C 56.6527 -1.40723 0.778055 0
M  V30 547 O 57.8427 -1.39301 1.04599 0
M  V30 548 C 54.9747 -2.65702 2.13577 0
M  V30 549 H 56.1677 -0.988048 2.83157 0
M  V30 550 H 53.7207 -0.479382 1.48767 0
M  V30 551 H 54.4557 -3.00063 1.23015 0
M  V30 552 H 54.2407 -2.57875 2.95369 0
M  V30 553 H 55.7307 -3.40828 2.41301 0
M  V30 554 N 56.1678 -1.49265 -0.50573 0
M  V30 555 C 57.3928 -1.62478 -1.28902 0
M  V30 556 C 57.8178 -0.294332 -1.85783 0
M  V30 557 O 57.1758 0.737412 -1.65626 0
M  V30 558 C 57.2238 -2.69268 -2.39848 0
M  V30 559 O 56.3278 -2.28113 -3.43567 0
M  V30 560 H 55.6688 -0.54399 -0.380751 0
M  V30 561 H 58.1988 -1.95421 -0.605952 0
M  V30 562 H 58.2088 -2.91291 -2.85681 0
M  V30 563 H 56.8838 -3.65846 -1.97812 0
M  V30 564 H 55.4608 -2.16401 -3.03685 0
M  V30 565 N 57.6459 0.756429 -1.3826 0
M  V30 566 C 58.5959 1.86069 -1.31766 0
M  V30 567 C 59.5799 1.59621 -0.202483 0
M  V30 568 O 60.7719 1.7149 -0.438211 0
M  V30 569 C 57.9009 3.23742 -1.1422 0
M  V30 570 C 56.9869 3.56091 -2.30348 0
M  V30 571 N 57.3779 3.59517 -3.55783 0
M  V30 572 C 55.6759 3.86341 -2.22838 0
M  V30 573 C 56.3769 3.89052 -4.32451 0
M  V30 574 N 55.3529 4.05736 -3.61772 0
M  V30 575 H 59.1549 1.86992 -2.26741 0
M  V30 576 H 56.6689 0.953643 -1.31451 0
M  V30 577 H 58.6659 4.02761 -1.07652 0
M  V30 578 H 57.3259 3.24073 -0.201763 0
M  V30 579 H 58.3369 3.41347 -3.89491 0
M  V30 580 H 55.0139 3.94404 -1.36937 0
M  V30 581 H 56.4039 3.98349 -5.4108 0
M  V30 582 N 59.124 1.23083 0.984299 0
M  V30 583 C 60.373 1.05466 1.71929 0
M  V30 584 C 60.686 -0.409211 1.91272 0
M  V30 585 O 61.892 -0.705226 2.62181 0
M  V30 586 C 60.348 1.83874 3.09384 0
M  V30 587 C 59.956 3.34566 2.97943 0
M  V30 588 C 61.7 1.74734 3.8687 0
M  V30 589 C 59.607 4.05381 4.30605 0
M  V30 590 H 58.537 0.391039 0.644674 0
M  V30 591 H 61.188 1.47013 1.09815 0
M  V30 592 H 59.57 1.35131 3.72231 0
M  V30 593 H 60.744 3.90767 2.44209 0
M  V30 594 H 59.059 3.44476 2.33934 0
M  V30 595 H 61.656 2.24957 4.85076 0
M  V30 596 H 61.999 0.709372 4.10212 0
M  V30 597 H 62.532 2.21067 3.30717 0
M  V30 598 H 59.271 5.09467 4.1246 0
M  V30 599 H 58.791 3.53967 4.84218 0
M  V30 600 H 60.47 4.11458 4.99311 0
M  V30 601 N 60.6021 -1.18246 1.0419 0
M  V30 602 C 61.8791 -1.84121 0.660208 0
M  V30 603 C 62.2591 -1.92778 -0.860221 0
M  V30 604 O 61.6071 -1.45464 -1.76217 0
M  V30 605 C 61.8171 -3.22355 1.33747 0
M  V30 606 C 63.1651 -3.98376 1.46906 0
M  V30 607 O 64.1891 -3.31799 1.29568 0
M  V30 608 O 63.0481 -5.17665 1.75171 0
M  V30 609 H 60.1421 -0.794036 0.231161 0
M  V30 610 H 62.6881 -1.25628 1.14087 0
M  V30 611 H 61.4601 -3.10964 2.37522 0
M  V30 612 H 61.0831 -3.88506 0.845515 0
M  V30 613 N 62.0802 -0.821533 -1.34494 0
M  V30 614 C 63.3202 -0.414785 -2.00147 0
M  V30 615 C 63.6842 1.00299 -1.6372 0
M  V30 616 O 64.8852 1.51255 -2.22206 0
M  V30 617 C 63.1562 -0.609403 -3.52166 0
M  V30 618 S 64.7152 -0.295297 -4.37805 0
M  V30 619 H 61.5332 -0.15679 -0.693497 0
M  V30 620 H 64.1352 -1.06705 -1.63812 0
M  V30 621 H 62.8392 -1.64096 -3.76166 0
M  V30 622 H 62.3702 0.0576414 -3.93358 0
M  V30 623 H 64.3852 0.891531 -4.88125 0
M  V30 624 N 63.5583 1.46682 -0.576371 0
M  V30 625 C 64.9743 1.57822 -0.237562 0
M  V30 626 C 65.1743 1.57237 1.26011 0
M  V30 627 O 64.2303 1.48596 2.04146 0
M  V30 628 C 65.5433 2.87499 -0.881168 0
M  V30 629 C 67.0913 3.01119 -0.85417 0
M  V30 630 C 67.5663 4.33524 -1.4772 0
M  V30 631 N 69.0573 4.40207 -1.44125 0
M  V30 632 C 69.7923 5.4126 -1.89276 0
M  V30 633 N 69.2883 6.49021 -2.42371 0
M  V30 634 N 71.0813 5.32422 -1.80231 0
M  V30 635 H 63.2323 1.45306 -1.54919 0
M  V30 636 H 65.4953 0.692733 -0.647167 0
M  V30 637 H 65.2013 2.9372 -1.93447 0
M  V30 638 H 65.0753 3.75224 -0.385592 0
M  V30 639 H 67.4623 2.94485 0.190491 0
M  V30 640 H 67.5433 2.14887 -1.3877 0
M  V30 641 H 67.1873 4.40916 -2.52103 0
M  V30 642 H 67.1173 5.1852 -0.918947 0
M  V30 643 H 69.6083 3.62931 -1.05307 0
M  V30 644 H 69.9213 7.2233 -2.74698 0
M  V30 645 H 68.2663 6.49858 -2.46393 0
M  V30 646 H 71.4573 4.47137 -1.38514 0
M  V30 647 H 71.6303 6.11034 -2.15735 0
M  V30 648 N 65.0364 0.313813 1.54444 0
M  V30 649 C 65.9694 -0.598866 2.20202 0
M  V30 650 C 66.9474 -1.12318 1.17573 0
M  V30 651 O 68.1314 -1.18899 1.46271 0
M  V30 652 C 65.2584 -1.82071 2.85601 0
M  V30 653 C 64.3044 -1.42851 4.01865 0
M  V30 654 S 65.1374 -0.473512 5.33402 0
M  V30 655 C 66.2934 -1.70286 6.0229 0
M  V30 656 H 66.5264 -0.0402532 2.97273 0
M  V30 657 H 64.0594 0.0979165 1.54089 0
M  V30 658 H 66.0174 -2.52184 3.23904 0
M  V30 659 H 64.6784 -2.3505 2.08351 0
M  V30 660 H 63.8714 -2.33871 4.46453 0
M  V30 661 H 63.4734 -0.807198 3.65185 0
M  V30 662 H 65.7654 -2.64168 6.23876 0
M  V30 663 H 66.7084 -1.29932 6.96077 0
M  V30 664 H 67.1164 -1.88541 5.32083 0
M  V30 665 N 66.5145 -1.57545 0.0417849 0
M  V30 666 C 67.7395 -1.97035 -0.647455 0
M  V30 667 C 68.1645 -0.918775 -1.64135 0
M  V30 668 O 67.5225 0.119006 -1.80909 0
M  V30 669 C 67.5705 -3.35609 -1.31905 0
M  V30 670 O 66.6745 -3.3287 -2.43457 0
M  V30 671 H 66.0155 -0.64211 -0.169086 0
M  V30 672 H 68.5455 -2.04318 0.107399 0
M  V30 673 H 68.5555 -3.72126 -1.67291 0
M  V30 674 H 67.2305 -4.11685 -0.590586 0
M  V30 675 H 65.8075 -3.08087 -2.10088 0
M  V30 676 N 67.9926 0.231505 -1.5589 0
M  V30 677 C 69.4036 0.799327 -1.68724 0
M  V30 678 C 69.7546 1.85398 -0.642022 0
M  V30 679 O 68.8796 2.1539 0.208784 0
M  V30 680 C 69.4746 1.45664 -3.05888 0
M  V30 681 C 68.0336 1.97197 -3.20609 0
M  V30 682 C 67.1806 0.828552 -2.64632 0
M  V30 683 H 70.1316 0.00702616 -1.58698 0
M  V30 684 H 70.1526 2.32517 -3.01191 0
M  V30 685 H 69.6646 0.688808 -3.81939 0
M  V30 686 H 67.7656 2.76813 -2.4941 0
M  V30 687 H 67.8786 2.15878 -4.27707 0
M  V30 688 H 66.2426 1.23321 -2.22854 0
M  V30 689 H 67.0256 0.0735544 -3.43221 0
M  V30 690 N 69.4707 1.49531 0.497807 0
M  V30 691 C 70.7167 1.60388 1.25089 0
M  V30 692 C 71.0717 0.288328 1.90227 0
M  V30 693 O 70.3647 -0.711706 1.77891 0
M  V30 694 C 70.5587 2.70252 2.33878 0
M  V30 695 C 70.3877 4.12363 1.79408 0
M  V30 696 C 69.1577 4.7911 1.60566 0
M  V30 697 C 71.3557 4.97491 1.30412 0
M  V30 698 N 69.3377 6.05525 1.01059 0
M  V30 699 C 70.7087 6.14411 0.830595 0
M  V30 700 C 72.7637 4.83466 1.19015 0
M  V30 701 C 71.4667 7.1885 0.254371 0
M  V30 702 C 73.4927 5.88057 0.627892 0
M  V30 703 C 72.8547 7.04208 0.16461 0
M  V30 704 H 68.9537 0.641246 0.447579 0
M  V30 705 H 71.5377 1.86549 0.557441 0
M  V30 706 H 69.7087 2.45858 3.0068 0
M  V30 707 H 71.4407 2.70613 3.00917 0
M  V30 708 H 68.1957 4.35961 1.85026 0
M  V30 709 H 68.6197 6.73028 0.732236 0
M  V30 710 H 73.2617 3.93978 1.53431 0
M  V30 711 H 70.9797 8.08036 -0.102052 0
M  V30 712 H 74.5657 5.79266 0.542444 0
M  V30 713 H 73.4457 7.83757 -0.263669 0
M  V30 714 N 70.9488 -0.749086 1.3866 0
M  V30 715 C 72.1738 -1.54344 1.38538 0
M  V30 716 C 72.5988 -1.88088 -0.0216655 0
M  V30 717 O 71.9568 -1.50899 -1.00494 0
M  V30 718 C 72.0048 -2.8164 2.25192 0
M  V30 719 O 71.1088 -3.7698 1.67212 0
M  V30 720 H 70.4498 -0.466654 0.472367 0
M  V30 721 H 72.9798 -0.925355 1.82478 0
M  V30 722 H 72.9898 -3.30519 2.3921 0
M  V30 723 H 71.6648 -2.56411 3.27454 0
M  V30 724 H 70.2418 -3.35699 1.6236 0
M  V30 725 N 72.4269 -1.23603 -0.977757 0
M  V30 726 C 73.3369 -1.03632 -2.1047 0
M  V30 727 C 74.3529 0.0199435 -1.73989 0
M  V30 728 O 75.5289 -0.176076 -2.00629 0
M  V30 729 C 72.5939 -0.63276 -3.40877 0
M  V30 730 C 71.6549 -1.76437 -3.91367 0
M  V30 731 C 70.8879 -1.37997 -5.15551 0
M  V30 732 O 71.1109 -0.265357 -5.69782 0
M  V30 733 O 70.0449 -2.20201 -5.60174 0
M  V30 734 H 73.8709 -1.98086 -2.30208 0
M  V30 735 H 71.4559 -1.02332 -1.08851 0
M  V30 736 H 73.3379 -0.418761 -4.19314 0
M  V30 737 H 72.0129 0.282754 -3.22463 0
M  V30 738 H 70.9199 -2.03304 -3.14036 0
M  V30 739 H 72.2529 -2.6583 -4.14241 0
M  V30 740 N 73.905 1.17692 -1.04816 0
M  V30 741 C 75.151 1.88389 -0.766892 0
M  V30 742 C 75.506 1.79282 0.698269 0
M  V30 743 O 74.799 1.18739 1.50372 0
M  V30 744 C 74.993 3.37462 -1.17703 0
M  V30 745 C 74.822 3.6108 -2.68051 0
M  V30 746 C 73.592 3.78018 -3.35307 0
M  V30 747 C 75.79 3.61039 -3.66273 0
M  V30 748 N 73.772 3.89444 -4.74559 0
M  V30 749 C 75.143 3.78269 -4.91235 0
M  V30 750 C 77.198 3.44168 -3.59796 0
M  V30 751 C 75.901 3.80376 -6.10497 0
M  V30 752 C 77.927 3.4756 -4.78493 0
M  V30 753 C 77.289 3.65295 -6.02278 0
M  V30 754 H 73.388 0.707651 -0.332798 0
M  V30 755 H 75.972 1.41314 -1.33934 0
M  V30 756 H 74.143 3.83214 -0.63257 0
M  V30 757 H 75.875 3.95759 -0.845989 0
M  V30 758 H 72.63 3.77714 -2.85708 0
M  V30 759 H 73.054 3.98962 -5.46954 0
M  V30 760 H 77.696 3.29396 -2.65062 0
M  V30 761 H 75.414 3.93933 -7.05579 0
M  V30 762 H 79 3.3577 -4.75131 0
M  V30 763 H 77.88 3.6782 -6.92588 0
M  V30 764 N 75.3831 0.828654 1.34056 0
M  V30 765 C 76.6081 0.431637 2.02859 0
M  V30 766 C 77.0331 -0.956339 1.61975 0
M  V30 767 O 76.3911 -1.62338 0.807228 0
M  V30 768 C 76.4391 0.548323 3.56407 0
M  V30 769 O 75.5431 -0.429556 4.10157 0
M  V30 770 H 74.8841 0.176886 0.640006 0
M  V30 771 H 77.4141 1.12066 1.71179 0
M  V30 772 H 77.4241 0.426196 4.05768 0
M  V30 773 H 76.0991 1.5606 3.8551 0
M  V30 774 H 74.6761 -0.265836 3.71951 0
M  V30 775 N 76.8612 -1.46375 0.584142 0
M  V30 776 C 77.7932 -2.28443 -0.186119 0
M  V30 777 C 78.8062 -1.38596 -0.854115 0
M  V30 778 O 79.9952 -1.63183 -0.723438 0
M  V30 779 C 77.0952 -3.13671 -1.28311 0
M  V30 780 C 76.2682 -4.31652 -0.706758 0
M  V30 781 C 75.3272 -4.98267 -1.69163 0
M  V30 782 O 74.3532 -5.55815 -1.22712 0
M  V30 783 N 75.5552 -4.95408 -3.02575 0
M  V30 784 H 78.3202 -2.9519 0.517986 0
M  V30 785 H 75.8812 -1.56303 0.42201 0
M  V30 786 H 77.8732 -3.55101 -1.94128 0
M  V30 787 H 76.4432 -2.48989 -1.89005 0
M  V30 788 H 75.6632 -3.93989 0.128908 0
M  V30 789 H 76.9512 -5.07906 -0.301506 0
M  V30 790 H 76.3492 -4.49902 -3.42936 0
M  V30 791 H 74.9062 -5.40774 -3.63877 0
M  V30 792 N 78.3393 -0.321999 -1.54275 0
M  V30 793 C 79.5793 0.281657 -2.0245 0
M  V30 794 C 79.9433 1.49468 -1.20513 0
M  V30 795 O 81.1443 2.17109 -1.58484 0
M  V30 796 C 79.4153 0.609014 -3.52173 0
M  V30 797 S 80.9743 1.19255 -4.22284 0
M  V30 798 H 77.7923 0.0852825 -0.705867 0
M  V30 799 H 80.3943 -0.454758 -1.90137 0
M  V30 800 H 79.0983 -0.281982 -4.0943 0
M  V30 801 H 78.6293 1.37567 -3.68563 0
M  V30 802 H 80.6443 2.47944 -4.29812 0
M  V30 803 N 79.8174 1.5752 -0.0501392 0
M  V30 804 C 81.0944 1.83996 0.663685 0
M  V30 805 C 81.4744 0.938339 1.89099 0
M  V30 806 O 80.8224 -0.00087759 2.285 0
M  V30 807 C 81.0324 3.33702 1.02196 0
M  V30 808 C 82.3804 4.00691 1.40469 0
M  V30 809 O 83.4044 3.38321 1.11433 0
M  V30 810 O 82.2634 5.10658 1.94654 0
M  V30 811 H 79.3574 0.759385 0.32751 0
M  V30 812 H 81.9034 1.69514 -0.0794238 0
M  V30 813 H 80.6754 3.91015 0.149364 0
M  V30 814 H 80.2984 3.53368 1.82255 0
M  V30 815 N 81.2955 -0.223234 1.56011 0
M  V30 816 C 82.7065 -0.790368 1.69145 0
M  V30 817 C 83.0575 -1.85055 0.651845 0
M  V30 818 O 82.1825 -2.15498 -0.197359 0
M  V30 819 C 82.7775 -1.4404 3.06656 0
M  V30 820 C 81.3365 -1.95494 3.2165 0
M  V30 821 C 80.4835 -0.814506 2.65068 0
M  V30 822 H 83.4345 0.00139011 1.587 0
M  V30 823 H 83.4555 -2.30916 3.0242 0
M  V30 824 H 82.9675 -0.668543 3.82298 0
M  V30 825 H 81.0685 -2.75487 2.50874 0
M  V30 826 H 81.1815 -2.13607 4.28846 0
M  V30 827 H 79.5455 -1.22137 2.23505 0
M  V30 828 H 80.3285 -0.0553515 3.43255 0
M  V30 829 N 82.7736 -1.49793 -0.48987 0
M  V30 830 C 84.0136 -1.61466 -1.25332 0
M  V30 831 C 84.3776 -0.299688 -1.89647 0
M  V30 832 O 85.5786 -0.291687 -2.67213 0
M  V30 833 C 83.8496 -2.74944 -2.28343 0
M  V30 834 S 85.4086 -3.06637 -3.13878 0
M  V30 835 H 82.2266 -0.569411 -0.425784 0
M  V30 836 H 84.8286 -1.875 -0.553541 0
M  V30 837 H 83.5326 -3.68994 -1.79643 0
M  V30 838 H 83.0636 -2.50938 -3.02975 0
M  V30 839 H 85.0786 -2.49015 -4.29192 0
M  V30 840 N 84.2517 0.741722 -1.39055 0
M  V30 841 C 85.1817 1.869 -1.39966 0
M  V30 842 C 86.1627 1.6804 -0.26392 0
M  V30 843 O 87.3477 1.88458 -0.468755 0
M  V30 844 C 84.4777 3.24572 -1.23574 0
M  V30 845 C 83.4317 3.58056 -2.34477 0
M  V30 846 C 82.7577 4.94593 -2.0318 0
M  V30 847 C 84.0577 3.61716 -3.76774 0
M  V30 848 H 85.7517 1.86395 -2.34302 0
M  V30 849 H 83.2977 0.895361 -1.1278 0
M  V30 850 H 85.2507 4.031 -1.22834 0
M  V30 851 H 83.9747 3.25587 -0.257045 0
M  V30 852 H 82.6337 2.81854 -2.34423 0
M  V30 853 H 82.2817 4.92181 -1.03765 0
M  V30 854 H 81.9817 5.17964 -2.77465 0
M  V30 855 H 83.5057 5.75486 -2.04079 0
M  V30 856 H 84.9197 4.30335 -3.78794 0
M  V30 857 H 83.3167 3.96603 -4.50362 0
M  V30 858 H 84.3867 2.61672 -4.08235 0
M  V30 859 N 85.7298 1.2412 0.971189 0
M  V30 860 C 87.1458 1.00584 1.23916 0
M  V30 861 C 87.3458 -0.287481 1.99439 0
M  V30 862 O 86.4018 -1.00454 2.31658 0
M  V30 863 C 87.7148 2.21864 2.0297 0
M  V30 864 C 89.2628 2.26452 2.16076 0
M  V30 865 C 89.7378 3.47343 2.98524 0
M  V30 866 N 91.2288 3.47639 3.06107 0
M  V30 867 C 91.9638 4.37837 3.70251 0
M  V30 868 N 91.4598 5.38286 4.36142 0
M  V30 869 N 93.2528 4.25558 3.67228 0
M  V30 870 H 85.4038 2.07236 0.465499 0
M  V30 871 H 87.6668 0.909236 0.268315 0
M  V30 872 H 87.3728 3.15771 1.54861 0
M  V30 873 H 87.2468 2.23698 3.03709 0
M  V30 874 H 89.6338 1.33078 2.6339 0
M  V30 875 H 89.7148 2.28645 1.14696 0
M  V30 876 H 89.3588 4.41029 2.51905 0
M  V30 877 H 89.2888 3.42393 4.00093 0
M  V30 878 H 91.7798 2.74966 2.59233 0
M  V30 879 H 92.0928 6.03352 4.82894 0
M  V30 880 H 90.4378 5.42176 4.34822 0
M  V30 881 H 93.6288 3.46322 3.14927 0
M  V30 882 H 93.8018 4.96054 4.16935 0
M  V30 883 N 87.2079 -1.17134 1.05439 0
M  V30 884 C 88.1399 -2.2078 0.615539 0
M  V30 885 C 89.1529 -1.59584 -0.322001 0
M  V30 886 O 90.3419 -1.78133 -0.114344 0
M  V30 887 C 87.4419 -3.38691 -0.118938 0
M  V30 888 C 86.6149 -4.29454 0.829924 0
M  V30 889 C 85.6739 -5.26024 0.136258 0
M  V30 890 O 84.6999 -5.63952 0.77115 0
M  V30 891 N 85.9019 -5.69487 -1.1254 0
M  V30 892 H 88.6669 -2.59052 1.50705 0
M  V30 893 H 86.2279 -1.32058 0.936603 0
M  V30 894 H 88.2199 -4.00329 -0.593179 0
M  V30 895 H 86.7899 -2.98996 -0.91215 0
M  V30 896 H 86.0099 -3.65211 1.48373 0
M  V30 897 H 87.2979 -4.86984 1.47392 0
M  V30 898 H 86.6959 -5.4075 -1.6615 0
M  V30 899 H 85.2529 -6.33257 -1.54366 0
M  V30 900 N 88.686 -0.835752 -1.33615 0
M  V30 901 C 89.619 -0.211815 -2.27215 0
M  V30 902 C 90.597 0.639249 -1.49507 0
M  V30 903 O 91.781 0.600193 -1.78689 0
M  V30 904 C 88.908 0.702893 -3.31326 0
M  V30 905 C 87.954 -0.0723049 -4.26439 0
M  V30 906 S 88.787 -1.42811 -5.16106 0
M  V30 907 C 89.943 -0.518613 -6.23748 0
M  V30 908 H 90.176 -1.00533 -2.79786 0
M  V30 909 H 87.709 -0.632336 -1.40858 0
M  V30 910 H 89.667 1.22505 -3.91794 0
M  V30 911 H 88.328 1.47004 -2.77576 0
M  V30 912 H 87.521 0.62359 -5.00127 0
M  V30 913 H 87.123 -0.525424 -3.70291 0
M  V30 914 H 89.415 0.284778 -6.76901 0
M  V30 915 H 90.358 -1.22556 -6.97413 0
M  V30 916 H 90.766 -0.101344 -5.64409 0
M  V30 917 N 90.1641 1.46063 -0.591896 0
M  V30 918 C 91.4111 2.02338 -0.0809991 0
M  V30 919 C 91.7391 1.46228 1.28249 0
M  V30 920 O 90.9941 0.620818 1.85592 0
M  V30 921 C 91.2931 3.57391 0.0249813 0
M  V30 922 C 90.9591 4.32583 -1.27211 0
M  V30 923 C 89.6211 4.52844 -1.62745 0
M  V30 924 C 91.9731 4.75687 -2.13005 0
M  V30 925 C 89.3011 5.13462 -2.83855 0
M  V30 926 C 91.6531 5.37644 -3.3335 0
M  V30 927 C 90.3171 5.5613 -3.69155 0
M  V30 928 H 89.5871 0.740407 -0.0296397 0
M  V30 929 H 92.2341 1.75321 -0.770374 0
M  V30 930 H 90.5391 3.83597 0.797537 0
M  V30 931 H 92.2361 3.98621 0.436184 0
M  V30 932 H 88.8261 4.17116 -0.985499 0
M  V30 933 H 93.0101 4.59782 -1.86855 0
M  V30 934 H 88.2661 5.25965 -3.11722 0
M  V30 935 H 92.4401 5.7 -4.00092 0
M  V30 936 H 90.0671 6.0287 -4.63089 0
M  V30 937 N 91.6422 0.330177 1.54103 0
M  V30 938 C 93.0582 -0.0222371 1.59585 0
M  V30 939 C 93.2582 -1.49902 1.34654 0
M  V30 940 O 92.3142 -2.25592 1.13421 0
M  V30 941 C 93.6272 0.401932 2.98002 0
M  V30 942 C 95.1752 0.353145 3.11001 0
M  V30 943 C 95.6502 0.752576 4.51775 0
M  V30 944 N 97.1412 0.706239 4.57784 0
M  V30 945 C 97.8762 0.987417 5.64834 0
M  V30 946 N 97.3722 1.33607 6.79795 0
M  V30 947 N 99.1652 0.91254 5.54643 0
M  V30 948 H 91.3162 1.29228 1.68564 0
M  V30 949 H 93.5792 0.525906 0.78875 0
M  V30 950 H 93.2852 1.4311 3.21267 0
M  V30 951 H 93.1592 -0.229699 3.765 0
M  V30 952 H 95.5462 -0.666822 2.87467 0
M  V30 953 H 95.6272 1.0198 2.34593 0
M  V30 954 H 95.2712 1.77049 4.76042 0
M  V30 955 H 95.2012 0.0635409 5.26562 0
M  V30 956 H 97.6922 0.44889 3.75224 0
M  V30 957 H 98.0052 1.53582 7.57385 0
M  V30 958 H 96.3502 1.37439 6.81275 0
M  V30 959 H 99.5412 0.639601 4.6371 0
M  V30 960 H 99.7142 1.13503 6.37982 0
M  V30 961 N 93.1203 -1.57491 0.0584922 0
M  V30 962 C 94.3453 -1.97711 -0.62652 0
M  V30 963 C 94.7703 -0.936132 -1.63151 0
M  V30 964 O 94.1283 0.099811 -1.81025 0
M  V30 965 C 94.1763 -3.36989 -1.28338 0
M  V30 966 O 93.2803 -3.35433 -2.39913 0
M  V30 967 H 92.6213 -0.643868 -0.162266 0
M  V30 968 H 95.1513 -2.04193 0.129064 0
M  V30 969 H 95.1613 -3.73879 -1.63335 0
M  V30 970 H 93.8363 -4.12289 -0.546889 0
M  V30 971 H 92.4133 -3.10298 -2.06809 0
M  V30 972 N 94.5984 0.214957 -1.56127 0
M  V30 973 C 96.0144 0.564948 -1.49267 0
M  V30 974 C 96.2144 1.86827 -0.754838 0
M  V30 975 O 95.2704 2.50745 -0.297198 0
M  V30 976 C 96.5834 0.638071 -2.93852 0
M  V30 977 C 98.1314 0.728253 -3.0441 0
M  V30 978 C 98.6064 0.832663 -4.50367 0
M  V30 979 N 100.097 0.896712 -4.54437 0
M  V30 980 C 100.832 0.997324 -5.6466 0
M  V30 981 N 100.328 1.06147 -6.8462 0
M  V30 982 N 102.121 1.03297 -5.52527 0
M  V30 983 H 94.2724 -0.640211 -2.02522 0
M  V30 984 H 96.5354 -0.225507 -0.920788 0
M  V30 985 H 96.2414 -0.250126 -3.50809 0
M  V30 986 H 96.1154 1.49947 -3.46115 0
M  V30 987 H 98.5024 1.60689 -2.47514 0
M  V30 988 H 98.5834 -0.158952 -2.55306 0
M  V30 989 H 98.2274 -0.0415417 -5.07883 0
M  V30 990 H 98.1574 1.73538 -4.97184 0
M  V30 991 H 100.648 0.857188 -3.6805 0
M  V30 992 H 100.961 1.1382 -7.64372 0
M  V30 993 H 99.3064 1.03049 -6.87318 0
M  V30 994 H 102.497 0.979558 -4.57736 0
M  V30 995 H 102.67 1.10793 -6.38458 0
M  V30 996 N 96.0765 1.50051 0.48192 0
M  V30 997 C 97.3015 1.64508 1.26301 0
M  V30 998 C 97.7265 0.323851 1.85291 0
M  V30 999 O 97.0845 -0.710969 1.66778 0
M  V30 1000 C 97.1325 2.7305 2.35533 0
M  V30 1001 O 96.2365 2.3355 3.39895 0
M  V30 1002 H 95.5775 0.549978 0.372048 0
M  V30 1003 H 98.1075 1.9636 0.574786 0
M  V30 1004 H 98.1175 2.95799 2.8101 0
M  V30 1005 H 96.7925 3.68946 1.91967 0
M  V30 1006 H 95.3695 2.21205 3.00204 0
M  V30 1007 N 97.5546 -0.734337 1.39446 0
M  V30 1008 C 98.8036 -1.48937 1.36017 0
M  V30 1009 C 99.1166 -1.95557 -0.0409005 0
M  V30 1010 O 100.323 -2.70779 -0.19778 0
M  V30 1011 C 98.7786 -2.69125 2.38955 0
M  V30 1012 C 98.3866 -2.29452 3.8478 0
M  V30 1013 C 100.131 -3.46944 2.44603 0
M  V30 1014 C 98.0376 -3.46366 4.79358 0
M  V30 1015 H 96.9676 -0.559296 0.505672 0
M  V30 1016 H 99.6186 -0.800983 1.65095 0
M  V30 1017 H 98.0006 -3.40041 2.02948 0
M  V30 1018 H 99.1746 -1.66077 4.29831 0
M  V30 1019 H 97.4896 -1.64723 3.82433 0
M  V30 1020 H 100.087 -4.33907 3.12456 0
M  V30 1021 H 100.43 -3.89454 1.47076 0
M  V30 1022 H 100.963 -2.83056 2.79507 0
M  V30 1023 H 97.7016 -3.08905 5.78151 0
M  V30 1024 H 97.2216 -4.08719 4.38986 0
M  V30 1025 H 98.9006 -4.12691 4.98292 0
M  V30 1026 N 99.0327 -1.24633 -0.964593 0
M  V30 1027 C 99.9427 -1.05859 -2.09359 0
M  V30 1028 C 100.959 0.00148855 -1.74 0
M  V30 1029 O 102.135 -0.197346 -2.00431 0
M  V30 1030 C 99.1997 -0.668879 -3.40187 0
M  V30 1031 C 98.2607 -1.80578 -3.89474 0
M  V30 1032 C 97.4937 -1.43457 -5.14058 0
M  V30 1033 O 97.7167 -0.325775 -5.69469 0
M  V30 1034 O 96.6507 -2.2613 -5.57807 0
M  V30 1035 H 100.477 -2.00516 -2.28094 0
M  V30 1036 H 98.0617 -1.03481 -1.0776 0
M  V30 1037 H 99.9437 -0.463211 -4.18846 0
M  V30 1038 H 98.6187 0.248536 -3.22744 0
M  V30 1039 H 97.5257 -2.06623 -3.11862 0
M  V30 1040 H 98.8587 -2.70208 -4.11398 0
M  V30 1041 N 100.511 1.16574 -1.06058 0
M  V30 1042 C 101.757 1.87324 -0.777022 0
M  V30 1043 C 102.09 1.81351 0.694645 0
M  V30 1044 O 101.365 1.22753 1.50871 0
M  V30 1045 C 101.648 3.36991 -1.26922 0
M  V30 1046 C 101.501 3.51667 -2.80447 0
M  V30 1047 C 102.82 4.3131 -0.87521 0
M  V30 1048 H 99.9388 0.680191 -0.28374 0
M  V30 1049 H 102.581 1.37036 -1.3161 0
M  V30 1050 H 100.731 3.79949 -0.81063 0
M  V30 1051 H 102.403 3.17664 -3.34495 0
M  V30 1052 H 100.646 2.93656 -3.19294 0
M  V30 1053 H 101.317 4.56766 -3.0995 0
M  V30 1054 H 103.793 3.9624 -1.27014 0
M  V30 1055 H 102.669 5.34545 -1.2471 0
M  V30 1056 H 102.93 4.41552 0.220071 0
M  V30 1057 N 101.989 0.842826 1.3317 0
M  V30 1058 C 103.236 0.440447 1.97652 0
M  V30 1059 C 103.564 -1.00123 1.6675 0
M  V30 1060 O 102.819 -1.7155 0.941761 0
M  V30 1061 C 103.118 0.612607 3.52111 0
M  V30 1062 C 102.784 2.02297 4.02972 0
M  V30 1063 C 101.446 2.40874 4.16573 0
M  V30 1064 C 103.798 2.94402 4.30089 0
M  V30 1065 C 101.126 3.70852 4.54627 0
M  V30 1066 C 103.478 4.23865 4.69597 0
M  V30 1067 C 102.142 4.62392 4.81404 0
M  V30 1068 H 101.412 0.161171 0.72326 0
M  V30 1069 H 104.059 1.07061 1.58777 0
M  V30 1070 H 102.364 -0.100849 3.9167 0
M  V30 1071 H 104.061 0.2815 4.00011 0
M  V30 1072 H 100.651 1.71338 3.92863 0
M  V30 1073 H 104.835 2.65835 4.19101 0
M  V30 1074 H 100.091 4.00501 4.61962 0
M  V30 1075 H 104.265 4.95306 4.89536 0
M  V30 1076 H 101.892 5.63154 5.10648 0
M  V30 1077 N 103.467 -1.45747 0.599634 0
M  V30 1078 C 104.715 -2.01893 0.0915472 0
M  V30 1079 C 105.036 -1.47155 -1.27946 0
M  V30 1080 O 104.306 -0.66273 -1.84349 0
M  V30 1081 H 102.886 -0.746363 0.0308524 0
M  V30 1082 H 105.548 -1.78645 0.779237 0
M  V30 1083 H 104.644 -3.1208 0.0353086 0
M  V30 1084 N 104.945 -0.338344 -1.53925 0
M  V30 1085 C 105.877 0.555117 -2.22376 0
M  V30 1086 C 106.89 1.06812 -1.22862 0
M  V30 1087 O 108.079 0.979163 -1.49247 0
M  V30 1088 C 105.179 1.77609 -2.88631 0
M  V30 1089 C 104.352 1.39927 -4.14414 0
M  V30 1090 C 103.411 2.47936 -4.64127 0
M  V30 1091 O 102.437 2.11461 -5.28463 0
M  V30 1092 N 103.639 3.79107 -4.39612 0
M  V30 1093 H 106.404 -0.0310778 -2.99684 0
M  V30 1094 H 103.965 -0.162226 -1.61085 0
M  V30 1095 H 105.957 2.49287 -3.18807 0
M  V30 1096 H 104.527 2.26978 -2.14941 0
M  V30 1097 H 103.747 0.513481 -3.90841 0
M  V30 1098 H 105.035 1.12341 -4.96243 0
M  V30 1099 H 104.433 4.11531 -3.88148 0
M  V30 1100 H 102.99 4.4697 -4.74406 0
M  V30 1101 N 106.423 1.57458 -0.0668435 0
M  V30 1102 C 107.67 1.93301 0.603406 0
M  V30 1103 C 107.998 0.946486 1.69917 0
M  V30 1104 O 107.253 -0.0387021 1.95662 0
M  V30 1105 C 107.552 3.35784 1.22409 0
M  V30 1106 C 107.218 4.50179 0.254955 0
M  V30 1107 C 105.88 4.81199 -0.0116746 0
M  V30 1108 C 108.232 5.19598 -0.408338 0
M  V30 1109 C 105.56 5.78978 -0.94877 0
M  V30 1110 C 107.912 6.18381 -1.33372 0
M  V30 1111 C 106.576 6.47821 -1.60887 0
M  V30 1112 H 105.846 0.707338 0.220802 0
M  V30 1113 H 108.493 1.91012 -0.136665 0
M  V30 1114 H 106.798 3.34515 2.03978 0
M  V30 1115 H 108.495 3.60804 1.74989 0
M  V30 1116 H 105.085 4.25983 0.472954 0
M  V30 1117 H 109.269 4.95832 -0.215456 0
M  V30 1118 H 104.525 6.00115 -1.16925 0
M  V30 1119 H 108.699 6.71277 -1.85367 0
M  V30 1120 H 106.326 7.23399 -2.33661 0
M  V30 1121 N 107.901 -0.206675 1.56239 0
M  V30 1122 C 108.849 -1.27571 1.94495 0
M  V30 1123 C 109.843 -1.47737 0.828862 0
M  V30 1124 O 111.049 -1.48735 1.0138 0
M  V30 1125 H 107.424 -0.428029 0.6183 0
M  V30 1126 H 109.395 -0.925961 2.8367 0
M  V30 1127 C 108.144 -2.61568 2.29079 0
M  V30 1128 H 107.467 -2.46863 3.14482 0
M  V30 1129 H 108.907 -3.35144 2.5972 0
M  V30 1130 C 107.366 -3.17695 1.12123 0
M  V30 1131 O 107.896 -3.99801 0.390153 0
M  V30 1132 N 106.102 -2.76276 0.901097 0
M  V30 1133 H 105.649 -2.09613 1.49733 0
M  V30 1134 H 105.607 -3.1417 0.120319 0
M  V30 1135 N 109.379 -1.50304 -0.473955 0
M  V30 1136 C 110.627 -1.60832 -1.22382 0
M  V30 1137 C 110.948 -0.30939 -1.9253 0
M  V30 1138 O 110.218 0.67296 -1.83978 0
M  V30 1139 H 108.798 -0.592652 -0.454723 0
M  V30 1140 H 111.46 -1.87068 -0.546968 0
M  V30 1141 H 110.556 -2.41803 -1.97327 0
M  V30 1142 N 110.857 0.726932 -1.39834 0
M  V30 1143 C 111.804 1.841 -1.39197 0
M  V30 1144 C 112.774 1.642 -0.250502 0
M  V30 1145 O 113.959 1.85494 -0.446846 0
M  V30 1146 C 111.099 3.21697 -1.24919 0
M  V30 1147 C 110.212 3.53247 -2.48678 0
M  V30 1148 C 109.347 4.80289 -2.26928 0
M  V30 1149 C 108.386 5.04707 -3.4632 0
M  V30 1150 N 107.523 6.22956 -3.23836 0
M  V30 1151 H 112.363 1.83979 -2.34427 0
M  V30 1152 H 109.9 0.898876 -1.16442 0
M  V30 1153 H 111.858 4.01137 -1.1465 0
M  V30 1154 H 110.488 3.21076 -0.333153 0
M  V30 1155 H 109.54 2.68447 -2.69519 0
M  V30 1156 H 110.852 3.67205 -3.37582 0
M  V30 1157 H 110.006 5.67725 -2.13947 0
M  V30 1158 H 108.745 4.68519 -1.35431 0
M  V30 1159 H 107.75 4.1573 -3.5979 0
M  V30 1160 H 108.975 5.18357 -4.38729 0
M  V30 1161 H 106.921 6.12459 -2.35011 0
M  V30 1162 H 106.838 6.37539 -4.063 0
M  V30 1163 H 108.106 7.1321 -3.14566 0
M  V30 1164 N 112.336 1.25143 0.95797 0
M  V30 1165 C 113.752 1.01892 1.22842 0
M  V30 1166 C 113.952 -0.266311 1.99732 0
M  V30 1167 O 113.008 -0.979913 2.3271 0
M  V30 1168 C 114.321 2.24004 2.00606 0
M  V30 1169 C 115.869 2.28731 2.13662 0
M  V30 1170 C 116.344 3.5049 2.94823 0
M  V30 1171 N 117.835 3.50866 3.02403 0
M  V30 1172 C 118.57 4.4174 3.65586 0
M  V30 1173 N 118.066 5.42882 4.30408 0
M  V30 1174 N 119.859 4.29429 3.62694 0
M  V30 1175 H 112.01 2.07718 0.443493 0
M  V30 1176 H 114.273 0.912031 0.258657 0
M  V30 1177 H 113.979 3.17395 1.51503 0
M  V30 1178 H 113.853 2.26907 3.01319 0
M  V30 1179 H 116.24 1.35865 2.61963 0
M  V30 1180 H 116.321 2.29848 1.12265 0
M  V30 1181 H 115.965 4.43676 2.47213 0
M  V30 1182 H 115.895 3.46617 3.96439 0
M  V30 1183 H 118.386 2.777 2.56302 0
M  V30 1184 H 118.699 6.0844 4.76467 0
M  V30 1185 H 117.044 5.46758 4.29047 0
M  V30 1186 H 120.235 3.49643 3.11236 0
M  V30 1187 H 120.408 5.00448 4.1165 0
M  V30 1188 N 113.814 -1.1601 1.06675 0
M  V30 1189 C 115.054 -1.88304 0.795037 0
M  V30 1190 C 115.418 -1.80062 -0.666466 0
M  V30 1191 O 116.619 -2.47319 -1.05293 0
M  V30 1192 C 114.89 -3.33664 1.28076 0
M  V30 1193 S 116.449 -4.23768 1.13868 0
M  V30 1194 H 113.267 -0.649928 0.288296 0
M  V30 1195 H 115.869 -1.4001 1.36445 0
M  V30 1196 H 114.573 -3.37203 2.33927 0
M  V30 1197 H 114.104 -3.87009 0.706253 0
M  V30 1198 H 116.119 -4.96148 0.0719668 0
M  V30 1199 N 115.292 -0.849877 -1.32721 0
M  V30 1200 C 116.52 -0.464754 -2.01613 0
M  V30 1201 C 116.935 0.937191 -1.63897 0
M  V30 1202 O 116.292 1.61081 -0.857856 0
M  V30 1203 C 116.343 -0.588638 -3.56675 0
M  V30 1204 O 116.064 -1.93535 -3.93034 0
M  V30 1205 C 117.565 -0.2019 -4.4284 0
M  V30 1206 H 114.785 -0.183215 -0.645502 0
M  V30 1207 H 117.329 -1.1455 -1.69407 0
M  V30 1208 H 115.484 0.0443159 -3.87375 0
M  V30 1209 H 115.898 -1.92871 -4.87751 0
M  V30 1210 H 117.372 -0.339599 -5.50954 0
M  V30 1211 H 117.849 0.857224 -4.30753 0
M  V30 1212 H 118.455 -0.809733 -4.17521 0
M  V30 1213 N 116.77 1.45427 -0.607355 0
M  V30 1214 C 118.047 1.9557 -0.0344566 0
M  V30 1215 C 118.427 1.54979 1.43334 0
M  V30 1216 O 117.775 0.812241 2.13576 0
M  V30 1217 C 117.985 3.48226 -0.232321 0
M  V30 1218 C 119.333 4.2445 -0.113001 0
M  V30 1219 O 120.357 3.55829 -0.162431 0
M  V30 1220 O 119.216 5.465 0.00209442 0
M  V30 1221 H 116.31 0.826222 0.0358667 0
M  V30 1222 H 118.856 1.55594 -0.6774 0
M  V30 1223 H 117.628 3.70739 -1.25174 0
M  V30 1224 H 117.251 3.95092 0.445896 0
M  V30 1225 N 118.248 0.346503 1.53744 0
M  V30 1226 C 119.211 -0.496439 2.23759 0
M  V30 1227 C 120.211 -1.0252 1.2388 0
M  V30 1228 O 121.401 -0.913974 1.48297 0
M  V30 1229 C 118.533 -1.69187 2.95954 0
M  V30 1230 H 119.726 0.115952 2.99676 0
M  V30 1231 H 117.279 0.0978939 1.55993 0
M  V30 1232 H 118.014 -2.34288 2.24231 0
M  V30 1233 H 117.799 -1.31989 3.69217 0
M  V30 1234 H 119.289 -2.28969 3.49232 0
M  V30 1235 N 119.726 -1.57421 0.075193 0
M  V30 1236 C 120.972 -1.93905 -0.594025 0
M  V30 1237 C 121.305 -0.955701 -1.69056 0
M  V30 1238 O 120.58 0.0145373 -1.94495 0
M  V30 1239 C 120.863 -3.40638 -1.1678 0
M  V30 1240 C 120.716 -4.49733 -0.0776792 0
M  V30 1241 C 122.035 -3.88259 -2.07228 0
M  V30 1242 H 119.154 -0.705105 -0.214466 0
M  V30 1243 H 121.796 -1.8947 0.141854 0
M  V30 1244 H 119.946 -3.44549 -1.79494 0
M  V30 1245 H 121.618 -4.57942 0.555573 0
M  V30 1246 H 119.861 -4.29751 0.591286 0
M  V30 1247 H 120.532 -5.49549 -0.519603 0
M  V30 1248 H 123.008 -3.86376 -1.54445 0
M  V30 1249 H 121.884 -4.91533 -2.44308 0
M  V30 1250 H 122.145 -3.26396 -2.98191 0
M  V30 1251 N 121.204 0.198386 -1.56346 0
M  V30 1252 C 122.452 0.91747 -1.80075 0
M  V30 1253 C 122.773 1.83929 -0.647692 0
M  V30 1254 O 122.043 1.93029 0.334166 0
M  V30 1255 H 120.623 0.341774 -0.664228 0
M  V30 1256 H 123.285 0.204684 -1.93822 0
M  V30 1257 H 122.381 1.51055 -2.7311 0
M  V30 1258 N 122.682 1.50554 0.465978 0
M  V30 1259 C 123.959 1.5232 1.22712 0
M  V30 1260 C 124.339 0.270807 2.09356 0
M  V30 1261 O 123.687 -0.745541 2.15995 0
M  V30 1262 C 123.897 2.82175 2.05374 0
M  V30 1263 C 125.245 3.33033 2.6339 0
M  V30 1264 O 126.269 2.83531 2.15612 0
M  V30 1265 O 125.128 4.19336 3.50456 0
M  V30 1266 H 122.222 0.611183 0.557122 0
M  V30 1267 H 124.768 1.62847 0.477381 0
M  V30 1268 H 123.54 3.64797 1.41558 0
M  V30 1269 H 123.163 2.74675 2.87471 0
M  V30 1270 N 124.16 -0.719506 1.40217 0
M  V30 1271 C 125.576 -1.02707 1.22161 0
M  V30 1272 C 125.776 -2.0128 0.0940557 0
M  V30 1273 O 124.832 -2.46452 -0.549318 0
M  V30 1274 C 126.145 -1.57454 2.56181 0
M  V30 1275 C 127.693 -1.69458 2.63159 0
M  V30 1276 C 128.168 -2.27611 3.97438 0
M  V30 1277 N 129.659 -2.35002 3.99159 0
M  V30 1278 C 130.394 -2.80972 4.99842 0
M  V30 1279 N 129.89 -3.26723 6.10921 0
M  V30 1280 N 131.683 -2.80321 4.87213 0
M  V30 1281 H 123.834 -0.0660492 2.12297 0
M  V30 1282 H 126.097 -0.0919077 0.943534 0
M  V30 1283 H 125.803 -0.924873 3.39321 0
M  V30 1284 H 125.677 -2.56036 2.76993 0
M  V30 1285 H 128.064 -2.33543 1.80393 0
M  V30 1286 H 128.145 -0.694867 2.46181 0
M  V30 1287 H 127.789 -1.6415 4.80643 0
M  V30 1288 H 127.719 -3.2829 4.11744 0
M  V30 1289 H 130.21 -2.02685 3.18947 0
M  V30 1290 H 130.523 -3.60355 6.8364 0
M  V30 1291 H 128.868 -3.24692 6.14492 0
M  V30 1292 H 132.059 -2.43912 3.9953 0
M  V30 1293 H 132.232 -3.15831 5.65822 0
M  V30 1294 N 125.638 -1.25649 -0.95132 0
M  V30 1295 C 127.054 -1.02542 -1.223 0
M  V30 1296 C 127.254 0.255715 -1.99871 0
M  V30 1297 O 126.31 0.967558 -2.33226 0
M  V30 1298 C 127.623 -2.25065 -1.99415 0
M  V30 1299 C 129.171 -2.29861 -2.12446 0
M  V30 1300 C 129.646 -3.52048 -2.92961 0
M  V30 1301 N 131.137 -3.52465 -3.00538 0
M  V30 1302 C 131.872 -4.43672 -3.63239 0
M  V30 1303 N 131.368 -5.45157 -4.27523 0
M  V30 1304 N 133.161 -4.31346 -3.60412 0
M  V30 1305 H 125.312 -2.07951 -0.432471 0
M  V30 1306 H 127.575 -0.91339 -0.253816 0
M  V30 1307 H 127.281 -3.18194 -1.49817 0
M  V30 1308 H 127.155 -2.28502 -3.00111 0
M  V30 1309 H 129.542 -1.37252 -2.61239 0
M  V30 1310 H 129.623 -2.3044 -1.11044 0
M  V30 1311 H 129.267 -4.44981 -2.44856 0
M  V30 1312 H 129.197 -3.48715 -3.94596 0
M  V30 1313 H 131.688 -2.79056 -2.54826 0
M  V30 1314 H 132.001 -6.10958 -4.73234 0
M  V30 1315 H 130.346 -5.49025 -4.26141 0
M  V30 1316 H 133.537 -3.51288 -3.09377 0
M  V30 1317 H 133.71 -5.02624 -4.0899 0
M  V30 1318 N 127.117 1.15442 -1.07289 0
M  V30 1319 C 128.049 2.19773 -0.650585 0
M  V30 1320 C 129.062 1.60076 0.296572 0
M  V30 1321 O 130.251 1.78293 0.0859905 0
M  V30 1322 C 127.351 3.38838 0.0650398 0
M  V30 1323 C 126.524 4.2808 -0.898141 0
M  V30 1324 C 125.583 5.2574 -0.219926 0
M  V30 1325 O 124.609 5.62654 -0.860773 0
M  V30 1326 N 125.811 5.71205 1.03466 0
M  V30 1327 H 128.576 2.56622 -1.54808 0
M  V30 1328 H 126.137 1.30551 -0.957494 0
M  V30 1329 H 128.129 4.01222 0.529415 0
M  V30 1330 H 126.699 3.00409 0.864466 0
M  V30 1331 H 125.919 3.62804 -1.54165 0
M  V30 1332 H 127.207 4.84577 -1.5512 0
M  V30 1333 H 126.605 5.43325 1.57526 0
M  V30 1334 H 125.162 6.35633 1.44272 0
M  V30 1335 N 128.595 0.856903 1.32268 0
M  V30 1336 C 129.835 0.467705 1.98977 0
M  V30 1337 C 130.199 -0.959231 1.66321 0
M  V30 1338 O 131.4 -1.4531 2.26138 0
M  V30 1339 C 129.671 0.70256 3.50427 0
M  V30 1340 S 131.23 0.411269 4.36868 0
M  V30 1341 H 128.048 0.175121 0.689096 0
M  V30 1342 H 130.65 1.1101 1.60925 0
M  V30 1343 H 129.354 1.74012 3.71683 0
M  V30 1344 H 128.885 0.0466707 3.93372 0
M  V30 1345 H 130.9 -0.761799 4.90317 0
M  V30 1346 N 130.073 -1.45103 0.615059 0
M  V30 1347 C 131.319 -2.02483 0.113347 0
M  V30 1348 C 131.652 -1.48146 -1.25564 0
M  V30 1349 O 130.927 -0.659104 -1.82992 0
M  V30 1350 C 131.21 -3.60005 0.0825278 0
M  V30 1351 C 131.063 -4.2466 1.48271 0
M  V30 1352 C 132.382 -4.35972 -0.601401 0
M  V30 1353 H 129.501 -0.735764 0.0426632 0
M  V30 1354 H 132.143 -1.72868 0.788461 0
M  V30 1355 H 130.293 -3.85367 -0.492378 0
M  V30 1356 H 131.965 -4.10458 2.10527 0
M  V30 1357 H 130.208 -3.82772 2.04127 0
M  V30 1358 H 130.879 -5.336 1.41332 0
M  V30 1359 H 133.355 -4.15947 -0.112666 0
M  V30 1360 H 132.231 -5.45697 -0.592097 0
M  V30 1361 H 132.492 -4.09391 -1.66887 0
M  V30 1362 N 131.551 -0.354651 -1.53558 0
M  V30 1363 C 132.962 0.126902 -1.86268 0
M  V30 1364 C 133.313 1.49075 -1.27558 0
M  V30 1365 O 132.438 2.08105 -0.5934 0
M  V30 1366 C 133.033 0.237046 -3.3797 0
M  V30 1367 C 131.592 0.662842 -3.70518 0
M  V30 1368 C 130.739 -0.196652 -2.76602 0
M  V30 1369 H 133.69 -0.573849 -1.47962 0
M  V30 1370 H 133.711 1.06259 -3.65362 0
M  V30 1371 H 133.223 -0.755725 -3.80671 0
M  V30 1372 H 131.324 1.66424 -3.33367 0
M  V30 1373 H 131.437 0.445034 -4.77029 0
M  V30 1374 H 129.801 0.332763 -2.52517 0
M  V30 1375 H 130.584 -1.18676 -3.22135 0
M  V30 1376 N 133.029 1.57378 -0.0835403 0
M  V30 1377 C 134.257 1.98263 0.59157 0
M  V30 1378 C 134.672 0.962302 1.62435 0
M  V30 1379 O 134.029 -0.049581 1.82433 0
M  V30 1380 C 134.08 3.39214 1.24965 0
M  V30 1381 O 133.801 4.37339 0.258186 0
M  V30 1382 C 135.302 3.95038 2.01147 0
M  V30 1383 H 132.522 0.651773 0.159477 0
M  V30 1384 H 135.066 2.03878 -0.159415 0
M  V30 1385 H 133.221 3.34649 1.95164 0
M  V30 1386 H 133.635 5.19371 0.731734 0
M  V30 1387 H 135.109 4.95848 2.42567 0
M  V30 1388 H 135.586 3.32222 2.87272 0
M  V30 1389 H 136.192 4.0304 1.35789 0
M  V30 1390 N 134.507 -0.190092 1.56449 0
M  V30 1391 C 135.417 -1.25591 1.98152 0
M  V30 1392 C 136.433 -1.49519 0.889944 0
M  V30 1393 O 137.609 -1.62036 1.19609 0
M  V30 1394 C 134.674 -2.57916 2.3169 0
M  V30 1395 C 133.735 -2.42015 3.5458 0
M  V30 1396 C 132.968 -3.6803 3.8651 0
M  V30 1397 O 133.191 -4.72413 3.1966 0
M  V30 1398 O 132.125 -3.6326 4.79923 0
M  V30 1399 H 135.951 -0.931988 2.89046 0
M  V30 1400 H 133.536 -0.395488 1.4407 0
M  V30 1401 H 135.418 -3.36008 2.54316 0
M  V30 1402 H 134.093 -2.89925 1.43963 0
M  V30 1403 H 133 -1.62017 3.37196 0
M  V30 1404 H 134.333 -2.14937 4.4279 0
M  V30 1405 N 135.985 -1.50799 -0.457987 0
M  V30 1406 C 137.396 -1.55152 -1.0385 0
M  V30 1407 C 137.747 -0.362719 -1.92818 0
M  V30 1408 O 136.872 0.522915 -2.09987 0
M  V30 1409 C 137.467 -2.81173 -1.89017 0
M  V30 1410 C 136.026 -2.88164 -2.42154 0
M  V30 1411 C 135.173 -2.49591 -1.20829 0
M  V30 1412 H 138.124 -1.56874 -0.240068 0
M  V30 1413 H 138.145 -2.63769 -2.74238 0
M  V30 1414 H 137.657 -3.67677 -1.24238 0
M  V30 1415 H 135.758 -2.06042 -3.10447 0
M  V30 1416 H 135.871 -3.91356 -2.76364 0
M  V30 1417 H 134.235 -2.02322 -1.54719 0
M  V30 1418 H 135.018 -3.38418 -0.576927 0
M  V30 1419 N 137.463 0.71206 -1.40597 0
M  V30 1420 C 138.703 1.48438 -1.40519 0
M  V30 1421 C 139.067 1.91998 -0.00767611 0
M  V30 1422 O 140.268 2.6854 0.118239 0
M  V30 1423 C 138.539 2.67514 -2.37004 0
M  V30 1424 S 140.098 3.56875 -2.55315 0
M  V30 1425 H 136.916 0.507457 -0.498005 0
M  V30 1426 H 139.518 0.832355 -1.76896 0
M  V30 1427 H 138.222 2.33689 -3.37368 0
M  V30 1428 H 137.753 3.37625 -2.01923 0
M  V30 1429 H 139.768 4.62081 -1.8082 0
M  V30 1430 N 138.941 1.26152 0.944643 0
M  V30 1431 C 139.851 1.09176 2.07648 0
M  V30 1432 C 140.867 0.0261935 1.7398 0
M  V30 1433 O 142.043 0.229208 2.00091 0
M  V30 1434 C 139.108 0.722915 3.39079 0
M  V30 1435 C 138.169 1.86752 3.86552 0
M  V30 1436 C 137.402 1.51617 5.11711 0
M  V30 1437 O 137.625 0.416331 5.68879 0
M  V30 1438 O 136.559 2.34975 5.54139 0
M  V30 1439 H 140.385 2.0412 2.24875 0
M  V30 1440 H 137.97 1.05182 1.061 0
M  V30 1441 H 139.852 0.529787 4.18056 0
M  V30 1442 H 138.527 -0.197159 3.23099 0
M  V30 1443 H 137.434 2.11558 3.08535 0
M  V30 1444 H 138.767 2.76719 4.07047 0
M  V30 1445 N 140.419 -1.14872 1.07899 0
M  V30 1446 C 141.696 -1.81928 0.71845 0
M  V30 1447 C 142.076 -1.95417 -0.798455 0
M  V30 1448 O 141.424 -1.50997 -1.715 0
M  V30 1449 C 141.634 -3.17937 1.43935 0
M  V30 1450 C 142.982 -3.93501 1.59506 0
M  V30 1451 O 144.006 -3.27509 1.40058 0
M  V30 1452 O 142.865 -5.1183 1.91551 0
M  V30 1453 H 139.959 -0.78628 0.256305 0
M  V30 1454 H 142.505 -1.21934 1.18026 0
M  V30 1455 H 141.277 -3.0325 2.47295 0
M  V30 1456 H 140.9 -3.85619 0.968687 0
M  V30 1457 N 141.898 -0.863906 -1.31812 0
M  V30 1458 C 142.861 -0.320212 -2.26952 0
M  V30 1459 C 143.861 0.525369 -1.51975 0
M  V30 1460 O 145.051 0.335547 -1.70938 0
M  V30 1461 C 142.183 0.545919 -3.365 0
M  V30 1462 H 143.376 -1.16004 -2.76556 0
M  V30 1463 H 140.929 -0.638995 -1.42641 0
M  V30 1464 H 141.664 1.40718 -2.92179 0
M  V30 1465 H 141.449 -0.0594674 -3.92055 0
M  V30 1466 H 142.939 0.918796 -4.07367 0
M  V30 1467 N 143.376 1.44774 -0.622745 0
M  V30 1468 C 144.286 2.34433 0.0886031 0
M  V30 1469 C 145.302 1.52131 0.844529 0
M  V30 1470 O 146.478 1.84886 0.798691 0
M  V30 1471 C 143.543 3.29986 1.0635 0
M  V30 1472 C 142.604 4.28195 0.307873 0
M  V30 1473 C 141.837 5.19183 1.23633 0
M  V30 1474 O 142.06 5.13918 2.47476 0
M  V30 1475 O 140.994 5.97515 0.725189 0
M  V30 1476 H 144.82 2.96693 -0.648599 0
M  V30 1477 H 142.405 1.44408 -0.382957 0
M  V30 1478 H 144.287 3.88825 1.6246 0
M  V30 1479 H 142.962 2.70269 1.78146 0
M  V30 1480 H 141.869 3.72927 -0.296064 0
M  V30 1481 H 143.202 4.90808 -0.3699 0
M  V30 1482 N 144.854 0.36279 1.53368 0
M  V30 1483 C 146.131 -0.284021 1.93527 0
M  V30 1484 C 146.511 -1.66628 1.29608 0
M  V30 1485 O 145.859 -2.23942 0.45413 0
M  V30 1486 C 146.069 -0.337028 3.47369 0
M  V30 1487 C 147.417 -0.578708 4.20638 0
M  V30 1488 O 148.441 -0.418352 3.53735 0
M  V30 1489 O 147.3 -0.89074 5.39192 0
M  V30 1490 H 144.394 -0.169743 0.809393 0
M  V30 1491 H 146.94 0.41537 1.64538 0
M  V30 1492 H 145.712 0.632217 3.86159 0
M  V30 1493 H 145.335 -1.08243 3.82582 0
M  V30 1494 N 146.332 -1.57332 0.0918853 0
M  V30 1495 C 147.609 -1.85691 -0.614668 0
M  V30 1496 C 147.989 -0.988146 -1.86545 0
M  V30 1497 O 147.337 -0.0597055 -2.28422 0
M  V30 1498 C 147.547 -3.36294 -0.933126 0
M  V30 1499 C 148.895 -4.04275 -1.29796 0
M  V30 1500 O 149.919 -3.41157 -1.02424 0
M  V30 1501 O 148.778 -5.1564 -1.81047 0
M  V30 1502 H 145.872 -0.767802 -0.307261 0
M  V30 1503 H 148.418 -1.69244 0.12434 0
M  V30 1504 H 147.19 -3.91273 -0.0456404 0
M  V30 1505 H 146.813 -3.58076 -1.72822 0
M  V30 1506 N 147.81 0.181792 -1.56548 0
M  V30 1507 C 149.05 0.906711 -1.83189 0
M  V30 1508 C 149.414 1.79882 -0.671312 0
M  V30 1509 O 150.615 2.56054 -0.81792 0
M  V30 1510 C 148.886 1.69023 -3.14906 0
M  V30 1511 S 150.445 2.46535 -3.62996 0
M  V30 1512 H 147.263 0.303877 -0.642791 0
M  V30 1513 H 149.865 0.169107 -1.94767 0
M  V30 1514 H 148.569 1.02571 -3.97376 0
M  V30 1515 H 148.1 2.46941 -3.06241 0
M  V30 1516 H 150.115 3.71014 -3.29489 0
M  V30 1517 N 149.288 1.51039 0.449983 0
M  V30 1518 C 150.536 1.62759 1.19808 0
M  V30 1519 C 150.857 0.339981 1.92013 0
M  V30 1520 O 150.127 -0.643606 1.85026 0
M  V30 1521 H 148.707 0.599811 0.445237 0
M  V30 1522 H 151.369 1.87914 0.517138 0
M  V30 1523 H 150.465 2.44911 1.93455 0
M  V30 1524 N 150.766 -0.704594 1.40972 0
M  V30 1525 C 151.714 -1.83994 1.42299 0
M  V30 1526 C 152.708 -1.66684 0.302111 0
M  V30 1527 O 153.914 -1.73655 0.473697 0
M  V30 1528 H 150.289 -0.606171 0.44504 0
M  V30 1529 H 152.26 -1.79992 2.38003 0
M  V30 1530 C 151.009 -3.21946 1.31323 0
M  V30 1531 H 150.332 -3.35878 2.16855 0
M  V30 1532 H 151.772 -4.01491 1.36311 0
M  V30 1533 C 150.231 -3.36891 0.0245977 0
M  V30 1534 O 150.761 -3.90687 -0.934153 0
M  V30 1535 N 148.967 -2.90559 -0.0485243 0
M  V30 1536 H 148.514 -2.46968 0.732419 0
M  V30 1537 H 148.472 -3.00937 -0.910171 0
M  V30 1538 N 152.244 -1.26651 -0.937939 0
M  V30 1539 C 153.521 -1.0313 -1.66204 0
M  V30 1540 C 153.901 0.437256 -2.06522 0
M  V30 1541 O 153.249 1.41831 -1.79154 0
M  V30 1542 C 153.459 -1.98314 -2.87181 0
M  V30 1543 C 154.807 -2.27107 -3.58758 0
M  V30 1544 O 155.831 -1.96205 -2.97291 0
M  V30 1545 O 154.69 -2.79736 -4.69479 0
M  V30 1546 H 151.784 -0.392384 -0.727986 0
M  V30 1547 H 154.33 -1.37874 -0.989382 0
M  V30 1548 H 153.102 -2.97399 -2.54302 0
M  V30 1549 H 152.725 -1.64068 -3.6217 0
M  V30 1550 N 153.722 1.14298 -1.08507 0
M  V30 1551 C 154.969 1.85359 -0.815373 0
M  V30 1552 C 155.297 1.83001 0.658865 0
M  V30 1553 O 154.552 1.25655 1.50031 0
M  V30 1554 C 154.851 3.33547 -1.28379 0
M  V30 1555 C 154.517 3.56093 -2.76602 0
M  V30 1556 C 153.179 3.61955 -3.17084 0
M  V30 1557 C 155.531 3.64834 -3.72217 0
M  V30 1558 C 152.859 3.74082 -4.51973 0
M  V30 1559 C 155.211 3.78487 -5.06883 0
M  V30 1560 C 153.875 3.82598 -5.46969 0
M  V30 1561 H 153.145 0.678276 -0.298366 0
M  V30 1562 H 155.792 1.35002 -1.35819 0
M  V30 1563 H 154.097 3.86191 -0.660593 0
M  V30 1564 H 155.794 3.86959 -1.05186 0
M  V30 1565 H 152.384 3.52179 -2.4427 0
M  V30 1566 H 156.568 3.59595 -3.42061 0
M  V30 1567 H 151.824 3.75527 -4.82483 0
M  V30 1568 H 155.998 3.84193 -5.80834 0
M  V30 1569 H 153.625 3.91747 -6.51489 0
M  V30 1570 N 155.201 0.870884 1.31352 0
M  V30 1571 C 156.133 0.28455 2.27427 0
M  V30 1572 C 157.146 -0.552927 1.53123 0
M  V30 1573 O 158.335 -0.374771 1.74521 0
M  V30 1574 C 155.435 -0.615164 3.3327 0
M  V30 1575 C 154.608 0.190079 4.36987 0
M  V30 1576 C 153.667 -0.637917 5.22319 0
M  V30 1577 O 152.693 -0.065626 5.69162 0
M  V30 1578 N 153.895 -1.94973 5.46778 0
M  V30 1579 H 156.66 1.11017 2.7838 0
M  V30 1580 H 154.221 0.732458 1.44384 0
M  V30 1581 H 156.213 -1.1748 3.87273 0
M  V30 1582 H 154.783 -1.34146 2.82354 0
M  V30 1583 H 154.003 0.931165 3.83044 0
M  V30 1584 H 155.291 0.742579 5.03352 0
M  V30 1585 H 154.689 -2.4378 5.10478 0
M  V30 1586 H 153.246 -2.45713 6.03712 0
M  V30 1587 N 156.679 -1.44442 0.630414 0
M  V30 1588 C 157.919 -2.03934 0.137919 0
M  V30 1589 C 158.283 -1.48509 -1.21692 0
M  V30 1590 O 159.484 -1.99499 -1.80149 0
M  V30 1591 C 157.755 -3.57187 0.123373 0
M  V30 1592 S 159.314 -4.37741 -0.304604 0
M  V30 1593 H 156.132 -0.708401 0.0607353 0
M  V30 1594 H 158.734 -1.76835 0.833643 0
M  V30 1595 H 157.438 -3.95032 1.11256 0
M  V30 1596 H 156.969 -3.88895 -0.59362 0
M  V30 1597 H 158.984 -4.71403 -1.54897 0
M  V30 1598 N 158.157 -0.370918 -1.53173 0
M  V30 1599 C 159.382 0.220293 -2.06227 0
M  V30 1600 C 159.807 1.41243 -1.24225 0
M  V30 1601 O 159.165 1.79387 -0.262645 0
M  V30 1602 C 159.213 0.586663 -3.55796 0
M  V30 1603 O 158.317 1.68317 -3.76488 0
M  V30 1604 H 157.658 0.0308099 -0.663285 0
M  V30 1605 H 160.188 -0.533068 -1.97534 0
M  V30 1606 H 160.198 0.85617 -3.98916 0
M  V30 1607 H 158.873 -0.285013 -4.14922 0
M  V30 1608 H 157.45 1.40881 -3.45264 0
M  V30 1609 N 159.635 1.57281 -0.100228 0
M  V30 1610 C 160.863 1.98879 0.570509 0
M  V30 1611 C 161.278 0.979476 1.61405 0
M  V30 1612 O 160.635 -0.0302288 1.82475 0
M  V30 1613 C 160.686 3.4052 1.2136 0
M  V30 1614 O 160.407 4.37588 0.211786 0
M  V30 1615 C 161.908 3.97149 1.96945 0
M  V30 1616 H 159.128 0.653428 0.152555 0
M  V30 1617 H 161.672 2.03697 -0.18103 0
M  V30 1618 H 159.827 3.367 1.91603 0
M  V30 1619 H 160.241 5.20118 0.676607 0
M  V30 1620 H 161.715 4.98393 2.37294 0
M  V30 1621 H 162.192 3.3525 2.83733 0
M  V30 1622 H 162.798 4.04458 1.31506 0
M  V30 1623 N 161.113 -0.173488 1.56642 0
M  V30 1624 C 162.361 -0.888706 1.81512 0
M  V30 1625 C 162.682 -1.82875 0.676872 0
M  V30 1626 O 161.952 -1.93536 -0.303414 0
M  V30 1627 H 160.532 -0.331164 0.669582 0
M  V30 1628 H 163.194 -0.173823 1.94123 0
M  V30 1629 H 162.29 -1.46691 2.75478 0
M  V30 1630 N 162.591 -1.51276 -0.441967 0
M  V30 1631 C 164.007 -1.39349 -0.778083 0
M  V30 1632 C 164.207 -0.472212 -1.95889 0
M  V30 1633 O 163.263 0.0743551 -2.5239 0
M  V30 1634 C 164.576 -2.81292 -1.0628 0
M  V30 1635 C 166.124 -2.9041 -1.16751 0
M  V30 1636 C 166.599 -4.33251 -1.48519 0
M  V30 1637 N 168.09 -4.36336 -1.55453 0
M  V30 1638 C 168.825 -5.43885 -1.81596 0
M  V30 1639 N 168.321 -6.61601 -2.05562 0
M  V30 1640 N 170.114 -5.3136 -1.8334 0
M  V30 1641 H 162.265 -2.09729 0.335774 0
M  V30 1642 H 164.528 -0.943925 0.0878028 0
M  V30 1643 H 164.234 -3.50678 -0.267905 0
M  V30 1644 H 164.108 -3.20334 -1.99163 0
M  V30 1645 H 166.495 -2.21225 -1.95304 0
M  V30 1646 H 166.576 -2.54871 -0.217801 0
M  V30 1647 H 166.22 -5.02984 -0.704958 0
M  V30 1648 H 166.15 -4.66299 -2.44689 0
M  V30 1649 H 168.641 -3.51466 -1.38853 0
M  V30 1650 H 168.954 -7.39361 -2.24867 0
M  V30 1651 H 167.299 -6.64725 -2.02894 0
M  V30 1652 H 170.49 -4.38382 -1.64132 0
M  V30 1653 H 170.663 -6.15258 -2.03377 0
M  V30 1654 N 164.069 0.697108 -1.41344 0
M  V30 1655 C 165.309 1.46939 -1.42085 0
M  V30 1656 C 165.673 1.9198 -0.0280397 0
M  V30 1657 O 166.874 2.6865 0.0897504 0
M  V30 1658 C 165.145 2.64985 -2.39828 0
M  V30 1659 S 166.704 3.54147 -2.59085 0
M  V30 1660 H 163.522 0.502146 -0.503359 0
M  V30 1661 H 166.124 0.813546 -1.77769 0
M  V30 1662 H 164.828 2.30098 -3.39828 0
M  V30 1663 H 164.359 3.35464 -2.05493 0
M  V30 1664 H 166.374 4.60137 -1.85711 0
M  V30 1665 N 165.547 1.27147 0.931209 0
M  V30 1666 C 166.796 1.12664 1.67302 0
M  V30 1667 C 167.109 -0.327718 1.92835 0
M  V30 1668 O 168.315 -0.593392 2.64936 0
M  V30 1669 C 166.771 1.9683 3.01307 0
M  V30 1670 C 166.379 3.46901 2.83485 0
M  V30 1671 C 168.123 1.90985 3.79111 0
M  V30 1672 C 166.03 4.23279 4.13024 0
M  V30 1673 H 164.96 0.41803 0.627509 0
M  V30 1674 H 167.611 1.51539 1.03481 0
M  V30 1675 H 165.993 1.50797 3.66164 0
M  V30 1676 H 167.167 4.00773 2.27415 0
M  V30 1677 H 165.482 3.54088 2.19113 0
M  V30 1678 H 168.079 2.45328 4.75098 0
M  V30 1679 H 168.422 0.882718 4.06834 0
M  V30 1680 H 168.955 2.34895 3.21044 0
M  V30 1681 H 165.694 5.26503 3.90481 0
M  V30 1682 H 165.214 3.74186 4.6877 0
M  V30 1683 H 166.893 4.32265 4.81411 0
M  V30 1684 N 167.025 -1.13721 1.09112 0
M  V30 1685 C 167.972 -2.19031 0.727591 0
M  V30 1686 C 168.942 -1.63555 -0.289656 0
M  V30 1687 O 170.127 -1.90023 -0.172026 0
M  V30 1688 C 167.267 -3.4477 0.15082 0
M  V30 1689 C 166.38 -4.14365 1.22172 0
M  V30 1690 C 165.515 -5.27709 0.608042 0
M  V30 1691 C 164.554 -5.89147 1.66047 0
M  V30 1692 N 163.691 -6.93929 1.06806 0
M  V30 1693 H 168.531 -2.49475 1.62991 0
M  V30 1694 H 166.068 -1.22499 0.81439 0
M  V30 1695 H 168.026 -4.16714 -0.201358 0
M  V30 1696 H 166.656 -3.14787 -0.714783 0
M  V30 1697 H 165.708 -3.40737 1.69122 0
M  V30 1698 H 167.02 -4.56114 2.01895 0
M  V30 1699 H 166.174 -6.06355 0.204523 0
M  V30 1700 H 164.913 -4.872 -0.220769 0
M  V30 1701 H 163.918 -5.09198 2.07357 0
M  V30 1702 H 165.143 -6.31729 2.49189 0
M  V30 1703 H 163.089 -6.55483 0.260476 0
M  V30 1704 H 163.006 -7.34202 1.8023 0
M  V30 1705 H 164.274 -7.76434 0.690644 0
M  V30 1706 N 168.503 -0.877838 -1.30888 0
M  V30 1707 C 169.436 -0.283995 -2.26426 0
M  V30 1708 C 170.414 0.591361 -1.51465 0
M  V30 1709 O 171.598 0.54304 -1.80509 0
M  V30 1710 C 168.725 0.597129 -3.33395 0
M  V30 1711 C 167.771 -0.207937 -4.25993 0
M  V30 1712 S 168.604 -1.59158 -5.11301 0
M  V30 1713 C 169.76 -0.716791 -6.21782 0
M  V30 1714 H 169.993 -1.09383 -2.76446 0
M  V30 1715 H 167.526 -0.676828 -1.38775 0
M  V30 1716 H 169.484 1.09978 -3.95493 0
M  V30 1717 H 168.145 1.38099 -2.82113 0
M  V30 1718 H 167.338 0.464163 -5.01858 0
M  V30 1719 H 166.94 -0.642963 -3.68432 0
M  V30 1720 H 169.232 0.0692833 -6.77465 0
M  V30 1721 H 170.175 -1.44682 -6.93161 0
M  V30 1722 H 170.583 -0.280855 -5.63801 0
M  V30 1723 N 169.982 1.44106 -0.638065 0
M  V30 1724 C 171.398 1.56672 -0.304286 0
M  V30 1725 C 171.598 1.6244 1.19228 0
M  V30 1726 O 170.654 1.57121 1.9766 0
M  V30 1727 C 171.967 2.83503 -1.00231 0
M  V30 1728 C 173.515 2.97226 -0.981116 0
M  V30 1729 C 173.99 4.26868 -1.65974 0
M  V30 1730 N 175.481 4.33698 -1.62666 0
M  V30 1731 C 176.216 5.32745 -2.12063 0
M  V30 1732 N 175.712 6.38157 -2.6968 0
M  V30 1733 N 177.505 5.24299 -2.02651 0
M  V30 1734 H 169.656 1.38605 -1.60942 0
M  V30 1735 H 171.919 0.664661 -0.675965 0
M  V30 1736 H 171.625 2.85251 -2.0573 0
M  V30 1737 H 171.499 3.73251 -0.54439 0
M  V30 1738 H 173.886 2.95027 0.0654188 0
M  V30 1739 H 173.967 2.08808 -1.47759 0
M  V30 1740 H 173.611 4.29826 -2.70576 0
M  V30 1741 H 173.541 5.14156 -1.13804 0
M  V30 1742 H 176.032 3.58138 -1.20606 0
M  V30 1743 H 176.345 7.10029 -3.05087 0
M  V30 1744 H 174.69 6.38823 -2.73734 0
M  V30 1745 H 177.881 4.4086 -1.57353 0
M  V30 1746 H 178.054 6.01334 -2.41457 0
M  V30 1747 N 171.46 0.379036 1.52974 0
M  V30 1748 C 172.39 -0.452706 2.29069 0
M  V30 1749 C 173.371 -1.07237 1.32039 0
M  V30 1750 O 174.556 -1.08708 1.60923 0
M  V30 1751 C 171.686 -1.5856 3.08992 0
M  V30 1752 C 170.64 -1.0925 4.13822 0
M  V30 1753 C 169.966 -2.31668 4.81907 0
M  V30 1754 C 171.266 -0.167702 5.22031 0
M  V30 1755 H 172.96 0.182181 2.98845 0
M  V30 1756 H 170.506 0.0890592 1.43724 0
M  V30 1757 H 172.459 -2.1742 3.6098 0
M  V30 1758 H 171.183 -2.24792 2.36931 0
M  V30 1759 H 169.842 -0.526494 3.628 0
M  V30 1760 H 169.49 -2.96386 4.06404 0
M  V30 1761 H 169.19 -1.9934 5.52754 0
M  V30 1762 H 170.714 -2.91189 5.36695 0
M  V30 1763 H 172.128 -0.664186 5.6944 0
M  V30 1764 H 170.525 0.0653265 6.00064 0
M  V30 1765 H 171.595 0.786347 4.78482 0
M  V30 1766 N 172.938 -1.57226 0.108567 0
M  V30 1767 C 174.354 -1.5766 -0.248058 0
M  V30 1768 C 174.554 -1.12063 -1.67464 0
M  V30 1769 O 173.61 -0.803236 -2.39383 0
M  V30 1770 C 174.923 -3.0069 -0.0242287 0
M  V30 1771 C 176.471 -3.12868 -0.0909372 0
M  V30 1772 C 176.946 -4.57879 0.105067 0
M  V30 1773 N 178.437 -4.63172 0.0506846 0
M  V30 1774 C 179.172 -5.73126 0.177396 0
M  V30 1775 N 178.668 -6.91866 0.359696 0
M  V30 1776 N 180.461 -5.61977 0.117709 0
M  V30 1777 H 172.612 -1.85169 1.04049 0
M  V30 1778 H 174.875 -0.85529 0.40888 0
M  V30 1779 H 174.581 -3.38299 0.961604 0
M  V30 1780 H 174.455 -3.6945 -0.76068 0
M  V30 1781 H 176.842 -2.75124 -1.06729 0
M  V30 1782 H 176.923 -2.46672 0.677225 0
M  V30 1783 H 176.567 -4.96321 1.07834 0
M  V30 1784 H 176.497 -5.22153 -0.682954 0
M  V30 1785 H 178.988 -3.778 -0.0871266 0
M  V30 1786 H 179.301 -7.71503 0.447529 0
M  V30 1787 H 177.646 -6.93874 0.395536 0
M  V30 1788 H 180.837 -4.68094 -0.0236741 0
M  V30 1789 H 181.01 -6.47627 0.219905 0
M  V30 1790 N 174.416 0.165178 -1.56732 0
M  V30 1791 C 175.656 0.887231 -1.8414 0
M  V30 1792 C 176.02 1.79159 -0.690353 0
M  V30 1793 O 177.221 2.55172 -0.845032 0
M  V30 1794 C 175.492 1.65674 -3.16681 0
M  V30 1795 S 177.051 2.42671 -3.6559 0
M  V30 1796 H 173.869 0.297042 -0.645978 0
M  V30 1797 H 176.471 0.148439 -1.94936 0
M  V30 1798 H 175.175 0.983507 -3.98441 0
M  V30 1799 H 174.706 2.43679 -3.08843 0
M  V30 1800 H 176.721 3.67499 -3.33406 0
M  V30 1801 N 175.894 1.51508 0.433938 0
M  V30 1802 C 176.842 1.73646 1.54757 0
M  V30 1803 C 177.836 0.602854 1.5831 0
M  V30 1804 O 179.042 0.784318 1.62014 0
M  V30 1805 H 175.417 0.548718 0.51421 0
M  V30 1806 H 177.388 2.66991 1.33261 0
M  V30 1807 C 176.137 1.88172 2.92381 0
M  V30 1808 H 175.46 2.74808 2.90381 0
M  V30 1809 H 176.9 2.07672 3.6966 0
M  V30 1810 C 175.359 0.64239 3.30719 0
M  V30 1811 O 175.889 -0.201362 4.01195 0
M  V30 1812 N 174.095 0.485489 2.86516 0
M  V30 1813 H 173.642 1.17318 2.29334 0
M  V30 1814 H 173.6 -0.342482 3.12529 0
M  V30 1815 N 177.372 -0.689602 1.41712 0
M  V30 1816 C 178.62 -1.4468 1.4111 0
M  V30 1817 C 178.941 -1.94986 0.0232196 0
M  V30 1818 O 178.211 -1.72097 -0.935913 0
M  V30 1819 H 176.791 -0.536847 0.519427 0
M  V30 1820 H 179.453 -0.815825 1.77004 0
M  V30 1821 H 178.549 -2.30706 2.10193 0
M  V30 1822 N 178.85 -1.27639 -0.924453 0
M  V30 1823 C 180.127 -1.04887 -1.651 0
M  V30 1824 C 180.507 0.415327 -2.06974 0
M  V30 1825 O 179.855 1.39923 -1.80648 0
M  V30 1826 C 180.065 -2.01348 -2.85061 0
M  V30 1827 C 181.413 -2.30899 -3.56329 0
M  V30 1828 O 182.437 -1.99348 -2.95193 0
M  V30 1829 O 181.296 -2.84699 -4.66485 0
M  V30 1830 H 178.39 -0.400083 -0.723784 0
M  V30 1831 H 180.936 -1.38916 -0.974703 0
M  V30 1832 H 179.708 -3.0008 -2.51133 0
M  V30 1833 H 179.331 -1.679 -3.6041 0
M  V30 1834 N 180.328 1.1314 -1.09713 0
M  V30 1835 C 181.276 2.20717 -0.733934 0
M  V30 1836 C 182.27 1.6729 0.266506 0
M  V30 1837 O 183.476 1.79547 0.127656 0
M  V30 1838 H 179.851 0.719292 -0.21937 0
M  V30 1839 H 181.822 2.48611 -1.6503 0
M  V30 1840 C 180.571 3.47265 -0.173849 0
M  V30 1841 H 179.894 3.88716 -0.934873 0
M  V30 1842 H 181.334 4.23979 0.0423126 0
M  V30 1843 C 179.793 3.18724 1.09164 0
M  V30 1844 O 180.323 3.37762 2.17439 0
M  V30 1845 N 178.529 2.72583 1.00732 0
M  V30 1846 H 178.076 2.57291 0.126121 0
M  V30 1847 H 178.034 2.53862 1.85476 0
M  V30 1848 N 181.806 0.884767 1.30421 0
M  V30 1849 C 183.083 0.423185 1.90967 0
M  V30 1850 C 183.463 -1.09605 1.80416 0
M  V30 1851 O 182.811 -1.93126 1.22125 0
M  V30 1852 C 183.021 0.921056 3.36627 0
M  V30 1853 C 184.369 0.955903 4.137 0
M  V30 1854 O 185.393 0.867706 3.4547 0
M  V30 1855 O 184.252 1.08614 5.35598 0
M  V30 1856 H 181.346 0.129369 0.816819 0
M  V30 1857 H 183.892 0.973653 1.3899 0
M  V30 1858 H 182.664 1.96489 3.3839 0
M  V30 1859 H 182.287 0.349741 3.96059 0
M  V30 1860 N 183.284 -1.43765 0.645699 0
M  V30 1861 C 184.524 -2.03776 0.159542 0
M  V30 1862 C 184.888 -1.49792 -1.2011 0
M  V30 1863 O 186.089 -2.01398 -1.78023 0
M  V30 1864 C 184.36 -3.57036 0.161251 0
M  V30 1865 S 185.919 -4.3804 -0.258159 0
M  V30 1866 H 182.737 -0.707717 0.0682454 0
M  V30 1867 H 185.339 -1.75941 0.852352 0
M  V30 1868 H 184.043 -3.9383 1.15439 0
M  V30 1869 H 183.574 -3.89503 -0.552339 0
M  V30 1870 H 185.589 -4.7302 -1.49889 0
M  V30 1871 N 184.763 -0.387143 -1.52771 0
M  V30 1872 C 186.011 0.195349 -2.01154 0
M  V30 1873 C 186.332 1.475 -1.27549 0
M  V30 1874 O 185.602 1.91878 -0.394924 0
M  V30 1875 H 184.182 0.075178 -0.743207 0
M  V30 1876 H 186.844 -0.518337 -1.87881 0
M  V30 1877 H 185.94 0.407096 -3.09434 0
M  V30 1878 N 186.241 1.57166 -0.116904 0
M  V30 1879 C 187.518 1.86645 0.585049 0
M  V30 1880 C 187.898 1.0177 1.84949 0
M  V30 1881 O 187.246 0.0960379 2.28298 0
M  V30 1882 C 187.456 3.37736 0.879507 0
M  V30 1883 C 188.804 4.06289 1.23348 0
M  V30 1884 O 189.828 3.42743 0.969836 0
M  V30 1885 O 188.687 5.18455 1.7282 0
M  V30 1886 H 185.781 0.772593 0.295007 0
M  V30 1887 H 188.327 1.69025 -0.151249 0
M  V30 1888 H 187.099 3.91296 -0.0166136 0
M  V30 1889 H 186.722 3.6078 1.67103 0
M  V30 1890 N 187.719 -0.156864 1.56817 0
M  V30 1891 C 188.966 -0.871125 1.82805 0
M  V30 1892 C 189.294 -1.81611 0.696262 0
M  V30 1893 O 188.549 -1.93141 -0.315459 0
M  V30 1894 C 188.848 -1.68737 3.1506 0
M  V30 1895 C 188.514 -0.890045 4.42028 0
M  V30 1896 C 187.176 -0.670042 4.76512 0
M  V30 1897 C 189.528 -0.331769 5.20143 0
M  V30 1898 C 186.856 0.119104 5.86579 0
M  V30 1899 C 189.208 0.444365 6.31037 0
M  V30 1900 C 187.872 0.675035 6.64078 0
M  V30 1901 H 187.142 -0.318767 0.668931 0
M  V30 1902 H 189.789 -0.135274 1.91022 0
M  V30 1903 H 188.094 -2.49304 3.0225 0
M  V30 1904 H 189.791 -2.24331 3.3238 0
M  V30 1905 H 186.381 -1.07157 4.14988 0
M  V30 1906 H 190.565 -0.489043 4.93885 0
M  V30 1907 H 185.821 0.307417 6.10627 0
M  V30 1908 H 189.995 0.884139 6.90765 0
M  V30 1909 H 187.622 1.28839 7.49203 0
M  V30 1910 N 189.197 -1.51736 -0.425897 0
M  V30 1911 C 190.422 -1.69082 -1.20108 0
M  V30 1912 C 190.847 -0.392398 -1.83962 0
M  V30 1913 O 190.205 0.64858 -1.69302 0
M  V30 1914 C 190.253 -2.81604 -2.25237 0
M  V30 1915 O 189.357 -2.46004 -3.30992 0
M  V30 1916 H 188.698 -0.563408 -0.35138 0
M  V30 1917 H 191.228 -1.98358 -0.501512 0
M  V30 1918 H 191.238 -3.06025 -2.69838 0
M  V30 1919 H 189.913 -3.75817 -1.78142 0
M  V30 1920 H 188.49 -2.32195 -2.91787 0
M  V30 1921 N 190.675 0.682077 -1.42076 0
M  V30 1922 C 191.952 1.43755 -1.32642 0
M  V30 1923 C 192.332 2.11063 0.0396611 0
M  V30 1924 O 191.68 2.02701 1.05474 0
M  V30 1925 C 191.89 2.44596 -2.48946 0
M  V30 1926 C 193.238 3.09454 -2.9073 0
M  V30 1927 O 194.262 2.54922 -2.48783 0
M  V30 1928 O 193.121 4.08253 -3.63307 0
M  V30 1929 H 190.215 0.640857 -0.522715 0
M  V30 1930 H 192.761 0.711415 -1.54068 0
M  V30 1931 H 191.533 1.93609 -3.40046 0
M  V30 1932 H 191.156 3.24701 -2.29467 0
M  V30 1933 N 192.153 1.28127 0.917671 0
M  V30 1934 C 193.063 1.13556 2.05286 0
M  V30 1935 C 194.079 0.0630914 1.73886 0
M  V30 1936 O 195.255 0.271598 1.9956 0
M  V30 1937 C 192.32 0.794676 3.3747 0
M  V30 1938 C 191.381 1.94909 3.82504 0
M  V30 1939 C 190.614 1.62437 5.0838 0
M  V30 1940 O 190.837 0.536905 5.67867 0
M  V30 1941 O 189.771 2.46677 5.4903 0
M  V30 1942 H 193.597 2.08844 2.20495 0
M  V30 1943 H 191.182 1.07409 1.03845 0
M  V30 1944 H 193.064 0.618344 4.16839 0
M  V30 1945 H 191.739 -0.128581 3.23445 0
M  V30 1946 H 190.646 2.18055 3.03978 0
M  V30 1947 H 191.979 2.85291 4.01086 0
M  V30 1948 N 193.631 -1.12557 1.10312 0
M  V30 1949 C 194.908 -1.80363 0.756878 0
M  V30 1950 C 195.288 -1.97067 -0.756824 0
M  V30 1951 O 194.636 -1.54601 -1.68259 0
M  V30 1952 C 194.846 -3.14812 1.50647 0
M  V30 1953 C 196.194 -3.90029 1.67817 0
M  V30 1954 O 197.218 -3.24464 1.46974 0
M  V30 1955 O 196.077 -5.07652 2.02365 0
M  V30 1956 H 193.171 -0.780667 0.272926 0
M  V30 1957 H 195.717 -1.19404 1.20586 0
M  V30 1958 H 194.489 -2.97936 2.53672 0
M  V30 1959 H 194.112 -3.83478 1.05026 0
M  V30 1960 N 195.109 -0.891671 -1.2995 0
M  V30 1961 C 196.386 -0.433307 -1.9074 0
M  V30 1962 C 196.766 1.08646 -1.80995 0
M  V30 1963 O 196.114 1.92476 -1.23147 0
M  V30 1964 C 196.324 -0.938895 -3.36134 0
M  V30 1965 C 197.672 -0.977829 -4.13187 0
M  V30 1966 O 198.696 -0.886015 -3.45005 0
M  V30 1967 O 197.555 -1.11453 -5.35015 0
M  V30 1968 H 194.649 -0.133699 -0.816121 0
M  V30 1969 H 197.195 -0.981011 -1.38471 0
M  V30 1970 H 195.967 -1.98281 -3.37343 0
M  V30 1971 H 195.59 -0.37074 -3.95868 0
M  V30 1972 N 196.587 1.43421 -0.653314 0
M  V30 1973 C 197.827 2.03689 -0.170346 0
M  V30 1974 C 198.191 1.50427 1.19314 0
M  V30 1975 O 199.392 2.0234 1.76952 0
M  V30 1976 C 197.663 3.56946 -0.180183 0
M  V30 1977 S 199.222 4.38171 0.234925 0
M  V30 1978 H 196.04 0.707345 -0.0719976 0
M  V30 1979 H 198.642 1.75486 -0.86167 0
M  V30 1980 H 197.346 3.93212 -1.17526 0
M  V30 1981 H 196.877 3.89791 0.531675 0
M  V30 1982 H 198.892 4.73808 1.47378 0
M  V30 1983 N 198.065 0.39524 1.52563 0
M  V30 1984 C 198.975 -0.444232 2.30356 0
M  V30 1985 C 199.991 -1.06615 1.37511 0
M  V30 1986 O 201.167 -1.07067 1.70583 0
M  V30 1987 C 198.232 -1.55315 3.09964 0
M  V30 1988 C 197.293 -0.955734 4.18526 0
M  V30 1989 C 196.526 -2.01181 4.9433 0
M  V30 1990 O 196.749 -3.22781 4.70285 0
M  V30 1991 O 195.683 -1.62579 5.79527 0
M  V30 1992 H 199.509 0.189667 3.03107 0
M  V30 1993 H 197.094 0.1588 1.48554 0
M  V30 1994 H 198.976 -2.19724 3.59582 0
M  V30 1995 H 197.651 -2.17191 2.4002 0
M  V30 1996 H 196.558 -0.274743 3.7309 0
M  V30 1997 H 197.891 -0.381109 4.90722 0
M  V30 1998 N 199.544 -1.57102 0.125237 0
M  V30 1999 C 200.769 -2.0019 -0.542101 0
M  V30 2000 C 201.194 -1.00449 -1.59034 0
M  V30 2001 O 200.552 0.0229423 -1.81285 0
M  V30 2002 C 200.6 -3.42129 -1.13929 0
M  V30 2003 O 199.704 -3.45307 -2.2547 0
M  V30 2004 H 199.045 -0.650171 -0.134812 0
M  V30 2005 H 201.575 -2.03461 0.215553 0
M  V30 2006 H 201.585 -3.80471 -1.4733 0
M  V30 2007 H 200.26 -4.14237 -0.371531 0
M  V30 2008 H 198.837 -3.1879 -1.93462 0
M  V30 2009 N 201.022 0.148545 -1.56898 0
M  V30 2010 C 201.932 1.20293 -2.01412 0
M  V30 2011 C 202.948 1.47107 -0.929273 0
M  V30 2012 O 204.124 1.58807 -1.23863 0
M  V30 2013 C 201.189 2.51682 -2.38447 0
M  V30 2014 C 200.25 2.32529 -3.60872 0
M  V30 2015 C 199.483 3.57653 -3.96132 0
M  V30 2016 O 199.706 4.63771 -3.32073 0
M  V30 2017 O 198.64 3.50408 -4.89385 0
M  V30 2018 H 202.466 0.855025 -2.91416 0
M  V30 2019 H 200.051 0.357151 -1.45068 0
M  V30 2020 H 201.933 3.29147 -2.63135 0
M  V30 2021 H 200.608 2.86006 -1.51599 0
M  V30 2022 H 199.515 1.53019 -3.41373 0
M  V30 2023 H 200.848 2.03121 -4.48333 0
M  V30 2024 N 202.5 1.5196 0.417844 0
M  V30 2025 C 203.911 1.57851 0.997 0
M  V30 2026 C 204.262 0.413714 1.91789 0
M  V30 2027 O 203.387 -0.467057 2.113 0
M  V30 2028 C 203.982 2.86085 1.81496 0
M  V30 2029 C 202.541 2.94483 2.34428 0
M  V30 2030 C 201.688 2.52707 1.14169 0
M  V30 2031 H 204.639 1.57455 0.198392 0
M  V30 2032 H 204.66 2.70947 2.67148 0
M  V30 2033 H 204.172 3.70842 1.14446 0
M  V30 2034 H 202.273 2.142 3.04875 0
M  V30 2035 H 202.386 3.98546 2.65891 0
M  V30 2036 H 200.75 2.06353 1.49301 0
M  V30 2037 H 201.533 3.39828 0.486999 0
M  V30 2038 N 203.978 -0.674533 1.42435 0
M  V30 2039 C 205.394 -0.98769 1.25367 0
M  V30 2040 C 205.594 -2.00879 0.158044 0
M  V30 2041 O 204.65 -2.48075 -0.470633 0
M  V30 2042 C 205.963 -1.49224 2.6106 0
M  V30 2043 C 207.511 -1.61 2.68417 0
M  V30 2044 C 207.986 -2.14852 4.04478 0
M  V30 2045 N 209.477 -2.22185 4.06434 0
M  V30 2046 C 210.212 -2.64928 5.08528 0
M  V30 2047 N 209.708 -3.07121 6.21006 0
M  V30 2048 N 211.501 -2.64679 4.95885 0
M  V30 2049 H 203.652 0.00152503 2.124 0
M  V30 2050 H 205.915 -0.0618434 0.945981 0
M  V30 2051 H 205.621 -0.816453 3.42092 0
M  V30 2052 H 205.495 -2.47094 2.84999 0
M  V30 2053 H 207.882 -2.27686 1.87732 0
M  V30 2054 H 207.963 -0.616195 2.48267 0
M  V30 2055 H 207.607 -1.48775 4.85622 0
M  V30 2056 H 207.537 -3.15024 4.2198 0
M  V30 2057 H 210.028 -1.92435 3.25234 0
M  V30 2058 H 210.341 -3.38423 6.94759 0
M  V30 2059 H 208.686 -3.04978 6.24511 0
M  V30 2060 H 211.877 -2.31078 4.07088 0
M  V30 2061 H 212.05 -2.9767 5.75584 0
M  V30 2062 N 205.456 -1.28612 -0.910864 0
M  V30 2063 C 206.867 -1.14406 -1.47541 0
M  V30 2064 C 207.218 0.264901 -1.94403 0
M  V30 2065 O 206.343 1.15942 -1.82719 0
M  V30 2066 C 206.938 -2.07073 -2.68153 0
M  V30 2067 C 205.497 -1.96923 -3.20778 0
M  V30 2068 C 204.644 -1.98646 -1.93481 0
M  V30 2069 H 207.595 -1.41259 -0.723291 0
M  V30 2070 H 207.616 -1.63642 -3.43514 0
M  V30 2071 H 207.128 -3.09611 -2.34015 0
M  V30 2072 H 205.229 -0.97433 -3.59635 0
M  V30 2073 H 205.342 -2.84026 -3.85832 0
M  V30 2074 H 203.706 -1.43093 -2.10705 0
M  V30 2075 H 204.489 -3.02868 -1.61634 0
M  V30 2076 N 206.934 1.1197 -1.10907 0
M  V30 2077 C 208.345 1.65114 -0.871446 0
M  V30 2078 C 208.696 1.86885 0.597353 0
M  V30 2079 O 207.821 1.59896 1.45816 0
M  V30 2080 C 208.416 2.99944 -1.5754 0
M  V30 2081 C 206.975 3.50018 -1.38435 0
M  V30 2082 C 206.122 2.24941 -1.62164 0
M  V30 2083 H 209.073 0.956851 -1.2661 0
M  V30 2084 H 209.094 3.66651 -1.01721 0
M  V30 2085 H 208.606 2.84067 -2.64438 0
M  V30 2086 H 206.707 3.71071 -0.337214 0
M  V30 2087 H 206.82 4.29165 -2.12965 0
M  V30 2088 H 205.184 2.3229 -1.04467 0
M  V30 2089 H 205.967 2.11612 -2.70324 0
M  V30 2090 N 208.412 0.89855 1.29475 0
M  V30 2091 C 209.652 0.530771 1.97388 0
M  V30 2092 C 210.016 -0.905832 1.69289 0
M  V30 2093 O 211.217 -1.38042 2.30646 0
M  V30 2094 C 209.488 0.81369 3.48014 0
M  V30 2095 S 211.047 0.550048 4.35339 0
M  V30 2096 H 207.865 0.196956 0.683176 0
M  V30 2097 H 210.467 1.16074 1.57312 0
M  V30 2098 H 209.171 1.85749 3.65958 0
M  V30 2099 H 208.702 0.171795 3.93025 0
M  V30 2100 H 210.717 -0.605423 4.92493 0
M  V30 2101 N 209.89 -1.43072 0.660911 0
M  V30 2102 C 211.306 -1.56169 0.329173 0
M  V30 2103 C 211.506 -1.64317 -1.16629 0
M  V30 2104 O 210.562 -1.60245 -1.95135 0
M  V30 2105 C 211.875 -2.81873 1.04729 0
M  V30 2106 C 213.423 -2.95627 1.02828 0
M  V30 2107 C 213.898 -4.24174 1.72744 0
M  V30 2108 N 215.389 -4.31055 1.69545 0
M  V30 2109 C 216.124 -5.29304 2.20511 0
M  V30 2110 N 215.62 -6.33786 2.79799 0
M  V30 2111 N 217.413 -5.21008 2.10966 0
M  V30 2112 H 209.564 -1.36027 1.63127 0
M  V30 2113 H 211.827 -0.653823 0.686454 0
M  V30 2114 H 211.533 -2.81942 2.10242 0
M  V30 2115 H 211.407 -3.72338 0.603702 0
M  V30 2116 H 213.794 -2.95094 -0.0184742 0
M  V30 2117 H 213.875 -2.06431 1.51063 0
M  V30 2118 H 213.519 -4.25467 2.7738 0
M  V30 2119 H 213.449 -5.1228 1.2197 0
M  V30 2120 H 215.94 -3.56174 1.26288 0
M  V30 2121 H 216.253 -7.05086 3.16344 0
M  V30 2122 H 214.598 -6.34387 2.83863 0
M  V30 2123 H 217.789 -4.38301 1.64347 0
M  V30 2124 H 217.962 -5.97416 2.50993 0
M  V30 2125 N 211.368 -0.403325 -1.52352 0
M  V30 2126 C 212.645 0.232611 -1.94212 0
M  V30 2127 C 213.025 1.63133 -1.33981 0
M  V30 2128 O 212.373 2.22659 -0.513344 0
M  V30 2129 C 212.583 0.244811 -3.4814 0
M  V30 2130 C 213.931 0.46698 -4.22024 0
M  V30 2131 O 214.955 0.324419 -3.5472 0
M  V30 2132 O 213.814 0.74747 -5.41364 0
M  V30 2133 H 210.908 0.148223 -0.813609 0
M  V30 2134 H 213.454 -0.458848 -1.63379 0
M  V30 2135 H 212.226 -0.734378 -3.84347 0
M  V30 2136 H 211.849 0.980611 -3.85318 0
M  V30 2137 N 212.846 1.57033 -0.133567 0
M  V30 2138 C 214.262 1.58035 0.222944 0
M  V30 2139 C 214.462 1.14713 1.6566 0
M  V30 2140 O 213.518 0.841218 2.38075 0
M  V30 2141 C 214.831 3.00691 -0.0236116 0
M  V30 2142 C 216.379 3.12973 0.0411512 0
M  V30 2143 C 216.854 4.57654 -0.177899 0
M  V30 2144 N 218.345 4.63033 -0.124365 0
M  V30 2145 C 219.08 5.72771 -0.268553 0
M  V30 2146 N 218.576 6.91206 -0.46972 0
M  V30 2147 N 220.369 5.61718 -0.2071 0
M  V30 2148 H 212.52 1.8349 -1.06981 0
M  V30 2149 H 214.783 0.848677 -0.422436 0
M  V30 2150 H 214.489 3.36726 -1.0153 0
M  V30 2151 H 214.363 3.70614 0.701808 0
M  V30 2152 H 216.75 2.76787 1.02338 0
M  V30 2153 H 216.831 2.45564 -0.716383 0
M  V30 2154 H 216.475 4.94542 -1.15717 0
M  V30 2155 H 216.405 5.23173 0.599797 0
M  V30 2156 H 218.896 3.7789 0.027011 0
M  V30 2157 H 219.209 7.70693 -0.570212 0
M  V30 2158 H 217.554 6.93156 -0.505876 0
M  V30 2159 H 220.745 4.68072 -0.0507986 0
M  V30 2160 H 220.918 6.47195 -0.322909 0
M  V30 2161 N 214.325 -0.140222 1.56975 0
M  V30 2162 C 215.571 -0.852949 1.83991 0
M  V30 2163 C 215.904 -1.80512 0.716187 0
M  V30 2164 O 215.179 -1.92479 -0.279681 0
M  V30 2165 C 215.462 -1.6215 3.21527 0
M  V30 2166 C 215.315 -0.690363 4.4447 0
M  V30 2167 C 216.634 -2.58247 3.56366 0
M  V30 2168 H 213.753 -0.308634 0.669264 0
M  V30 2169 H 216.395 -0.117898 1.89634 0
M  V30 2170 H 214.545 -2.24812 3.16847 0
M  V30 2171 H 216.217 -0.0742264 4.6124 0
M  V30 2172 H 214.46 -0.000396433 4.338 0
M  V30 2173 H 215.131 -1.2643 5.37326 0
M  V30 2174 H 217.607 -2.05701 3.61699 0
M  V30 2175 H 216.483 -3.09067 4.53617 0
M  V30 2176 H 216.744 -3.39923 2.82674 0
M  V30 2177 N 215.803 -1.52179 -0.40978 0
M  V30 2178 C 217.049 -1.66453 -1.15851 0
M  V30 2179 C 217.382 -0.392972 -1.90182 0
M  V30 2180 O 216.657 0.608579 -1.84734 0
M  V30 2181 C 216.94 -2.88612 -2.15349 0
M  V30 2182 C 216.793 -4.25815 -1.44918 0
M  V30 2183 C 218.112 -3.06294 -3.16026 0
M  V30 2184 H 215.231 -0.60575 -0.419805 0
M  V30 2185 H 217.873 -1.84732 -0.444314 0
M  V30 2186 H 216.023 -2.73158 -2.76255 0
M  V30 2187 H 217.695 -4.52995 -0.871365 0
M  V30 2188 H 215.938 -4.27247 -0.751159 0
M  V30 2189 H 216.609 -5.07337 -2.17516 0
M  V30 2190 H 219.085 -3.20641 -2.65195 0
M  V30 2191 H 217.961 -3.93283 -3.8291 0
M  V30 2192 H 218.222 -2.19579 -3.83715 0
M  V30 2193 N 217.281 0.66697 -1.42791 0
M  V30 2194 C 218.191 1.80962 -1.49299 0
M  V30 2195 C 219.207 1.69775 -0.381108 0
M  V30 2196 O 220.383 1.91188 -0.633188 0
M  V30 2197 C 217.448 3.17156 -1.40045 0
M  V30 2198 C 216.509 3.40242 -2.6179 0
M  V30 2199 C 215.742 4.69939 -2.52969 0
M  V30 2200 O 215.965 5.48372 -1.56985 0
M  V30 2201 O 214.899 4.94441 -3.43237 0
M  V30 2202 H 218.725 1.78427 -2.45759 0
M  V30 2203 H 216.31 0.823713 -1.24641 0
M  V30 2204 H 218.192 3.98413 -1.37276 0
M  V30 2205 H 216.867 3.20312 -0.467138 0
M  V30 2206 H 215.774 2.58802 -2.70134 0
M  V30 2207 H 217.107 3.41923 -3.54047 0
M  V30 2208 N 218.759 1.29093 0.90403 0
M  V30 2209 C 219.669 1.15727 2.0407 0
M  V30 2210 C 220.685 0.0815308 1.73809 0
M  V30 2211 O 221.861 0.292749 1.99261 0
M  V30 2212 C 218.926 0.830424 3.36608 0
M  V30 2213 C 217.987 1.98955 3.80415 0
M  V30 2214 C 217.22 1.6782 5.06628 0
M  V30 2215 O 217.443 0.597105 5.67266 0
M  V30 2216 O 216.377 2.52486 5.46383 0
M  V30 2217 H 220.203 2.11171 2.18267 0
M  V30 2218 H 217.788 1.08504 1.027 0
M  V30 2219 H 219.67 0.662521 4.16159 0
M  V30 2220 H 218.345 -0.0942678 3.23563 0
M  V30 2221 H 217.252 2.21267 3.01648 0
M  V30 2222 H 218.585 2.89529 3.98037 0
M  V30 2223 N 220.237 -1.11381 1.11499 0
M  V30 2224 C 221.462 -1.87475 0.887019 0
M  V30 2225 C 221.887 -1.79639 -0.557796 0
M  V30 2226 O 221.245 -1.15924 -1.39396 0
M  V30 2227 C 221.293 -3.34213 1.35403 0
M  V30 2228 O 220.397 -4.0903 0.526146 0
M  V30 2229 H 219.738 -0.582099 0.319463 0
M  V30 2230 H 222.268 -1.40785 1.48461 0
M  V30 2231 H 222.278 -3.8506 1.34881 0
M  V30 2232 H 220.953 -3.39232 2.40612 0
M  V30 2233 H 219.53 -3.68082 0.597522 0
M  V30 2234 N 221.715 -0.905404 -1.28997 0
M  V30 2235 C 222.625 -0.392246 -2.31298 0
M  V30 2236 C 223.641 0.515889 -1.66176 0
M  V30 2237 O 224.817 0.404093 -1.97304 0
M  V30 2238 C 221.882 0.36686 -3.44754 0
M  V30 2239 C 220.943 -0.573485 -4.25452 0
M  V30 2240 C 220.176 0.149488 -5.33491 0
M  V30 2241 O 220.399 1.37255 -5.5364 0
M  V30 2242 O 219.333 -0.510919 -5.99728 0
M  V30 2243 H 223.159 -1.2411 -2.77183 0
M  V30 2244 H 220.744 -0.669926 -1.33538 0
M  V30 2245 H 222.626 0.795907 -4.13816 0
M  V30 2246 H 221.301 1.19169 -3.00966 0
M  V30 2247 H 220.208 -1.05176 -3.59011 0
M  V30 2248 H 221.541 -1.36489 -4.72897 0
M  V30 2249 N 223.193 1.4272 -0.668489 0
M  V30 2250 C 224.123 2.335 -0.000100175 0
M  V30 2251 C 225.104 1.50328 0.795964 0
M  V30 2252 O 226.289 1.78949 0.754385 0
M  V30 2253 C 223.419 3.33874 0.956302 0
M  V30 2254 C 222.373 4.27152 0.269278 0
M  V30 2255 C 221.699 5.17684 1.33818 0
M  V30 2256 C 222.999 5.15373 -0.847805 0
M  V30 2257 H 224.693 2.89639 -0.758244 0
M  V30 2258 H 222.239 1.39269 -0.366079 0
M  V30 2259 H 224.192 3.9629 1.43292 0
M  V30 2260 H 222.916 2.76025 1.74579 0
M  V30 2261 H 221.575 3.66123 -0.187042 0
M  V30 2262 H 221.223 4.56165 2.1195 0
M  V30 2263 H 220.923 5.80918 0.883659 0
M  V30 2264 H 222.447 5.82974 1.81586 0
M  V30 2265 H 223.861 5.7151 -0.452681 0
M  V30 2266 H 222.258 5.87407 -1.22773 0
M  V30 2267 H 223.328 4.5415 -1.69929 0
M  V30 2268 N 224.671 0.411399 1.52136 0
M  V30 2269 C 225.634 -0.401089 2.25663 0
M  V30 2270 C 226.634 -0.971732 1.28117 0
M  V30 2271 O 227.824 -0.850254 1.52041 0
M  V30 2272 C 224.956 -1.56483 3.02863 0
M  V30 2273 H 226.149 0.24295 2.98914 0
M  V30 2274 H 223.702 0.163968 1.55438 0
M  V30 2275 H 224.437 -2.24567 2.33967 0
M  V30 2276 H 224.222 -1.16211 3.74483 0
M  V30 2277 H 225.712 -2.13951 3.58629 0
M  V30 2278 N 226.149 -1.5696 0.141893 0
M  V30 2279 C 227.565 -1.58151 -0.21456 0
M  V30 2280 C 227.765 -1.1559 -1.65049 0
M  V30 2281 O 226.821 -0.853832 -2.37626 0
M  V30 2282 C 228.134 -3.00674 0.0395576 0
M  V30 2283 C 229.682 -3.1299 -0.0245529 0
M  V30 2284 C 230.157 -4.57554 0.202167 0
M  V30 2285 N 231.648 -4.62961 0.148919 0
M  V30 2286 C 232.383 -5.7262 0.298924 0
M  V30 2287 N 231.879 -6.90947 0.50637 0
M  V30 2288 N 233.672 -5.61601 0.236886 0
M  V30 2289 H 225.823 -1.8292 1.07953 0
M  V30 2290 H 228.086 -0.846425 0.42693 0
M  V30 2291 H 227.792 -3.36183 1.03315 0
M  V30 2292 H 227.666 -3.70981 -0.682143 0
M  V30 2293 H 230.053 -2.77326 -1.00869 0
M  V30 2294 H 230.134 -2.4518 0.729396 0
M  V30 2295 H 229.778 -4.93922 1.18338 0
M  V30 2296 H 229.708 -5.23484 -0.572044 0
M  V30 2297 H 232.199 -3.77899 -0.00697015 0
M  V30 2298 H 232.512 -7.7038 0.611076 0
M  V30 2299 H 230.857 -6.92878 0.542628 0
M  V30 2300 H 234.048 -4.68039 0.0756209 0
M  V30 2301 H 234.221 -6.47015 0.357227 0
M  V30 2302 N 227.627 0.131896 -1.57047 0
M  V30 2303 C 228.855 0.856461 -1.88341 0
M  V30 2304 C 229.27 1.74042 -0.731757 0
M  V30 2305 O 228.627 1.80051 0.297945 0
M  V30 2306 C 228.678 1.70064 -3.18999 0
M  V30 2307 O 228.399 0.852278 -4.2973 0
M  V30 2308 C 229.9 2.53148 -3.63911 0
M  V30 2309 H 227.12 0.246885 -0.62393 0
M  V30 2310 H 229.664 0.120152 -2.04147 0
M  V30 2311 H 227.819 2.38984 -3.04902 0
M  V30 2312 H 228.233 1.43329 -5.04537 0
M  V30 2313 H 229.707 3.07931 -4.58129 0
M  V30 2314 H 230.184 3.29901 -2.89935 0
M  V30 2315 H 230.79 1.89492 -3.80753 0
M  V30 2316 N 229.106 1.52395 0.401703 0
M  V30 2317 C 230.069 1.75636 1.47257 0
M  V30 2318 C 231.069 0.62628 1.48103 0
M  V30 2319 O 232.259 0.894227 1.49497 0
M  V30 2320 C 229.391 1.84553 2.86624 0
M  V30 2321 H 230.584 2.71241 1.27938 0
M  V30 2322 H 228.137 1.42923 0.632662 0
M  V30 2323 H 228.872 0.908882 3.11303 0
M  V30 2324 H 228.657 2.66715 2.87412 0
M  V30 2325 H 230.147 2.04251 3.64241 0
M  V30 2326 N 230.584 -0.659388 1.43143 0
M  V30 2327 C 231.832 -1.41654 1.44147 0
M  V30 2328 C 232.153 -1.94893 0.0645739 0
M  V30 2329 O 231.423 -1.74044 -0.899198 0
M  V30 2330 H 230.003 -0.525708 0.530697 0
M  V30 2331 H 232.665 -0.778097 1.78694 0
M  V30 2332 H 231.761 -2.26195 2.1504 0
M  V30 2333 N 232.062 -1.29571 -0.897171 0
M  V30 2334 C 233.292 -1.20408 -1.67886 0
M  V30 2335 C 233.7 0.237429 -1.87704 0
M  V30 2336 O 233.043 1.17048 -1.41582 0
M  V30 2337 C 233.105 -1.84887 -3.08314 0
M  V30 2338 C 232.769 -3.34189 -3.11716 0
M  V30 2339 C 233.766 -4.30374 -2.91675 0
M  V30 2340 C 231.451 -3.75431 -3.33701 0
M  V30 2341 C 233.445 -5.65776 -2.93557 0
M  V30 2342 C 231.132 -5.10955 -3.35214 0
M  V30 2343 C 232.13 -6.05938 -3.15164 0
M  V30 2344 O 231.818 -7.38987 -3.1647 0
M  V30 2345 H 231.55 -0.418289 -0.531046 0
M  V30 2346 H 234.104 -1.71514 -1.13014 0
M  V30 2347 H 232.334 -1.28295 -3.64798 0
M  V30 2348 H 234.023 -1.70011 -3.6858 0
M  V30 2349 H 234.789 -3.99844 -2.74499 0
M  V30 2350 H 230.668 -3.01953 -3.48347 0
M  V30 2351 H 234.212 -6.39889 -2.77826 0
M  V30 2352 H 230.109 -5.4113 -3.51922 0
M  V30 2353 H 230.877 -7.47823 -3.3272 0
M  V30 2354 N 233.54 1.10788 -1.12088 0
M  V30 2355 C 234.788 1.8231 -0.872205 0
M  V30 2356 C 235.109 1.85419 0.603709 0
M  V30 2357 O 234.379 1.32963 1.43867 0
M  V30 2358 H 232.959 0.675137 -0.319686 0
M  V30 2359 H 235.621 1.34068 -1.41463 0
M  V30 2360 H 234.717 2.85955 -1.25045 0
M  V30 2361 N 235.018 0.912232 1.28515 0
M  V30 2362 C 236.267 0.540504 1.94323 0
M  V30 2363 C 236.58 -0.920044 1.72611 0
M  V30 2364 O 237.786 -1.39986 2.32629 0
M  V30 2365 C 236.242 0.915803 3.48053 0
M  V30 2366 C 235.85 2.39598 3.78546 0
M  V30 2367 C 237.594 0.614588 4.20027 0
M  V30 2368 C 235.501 2.71148 5.25578 0
M  V30 2369 H 234.431 0.198418 0.727424 0
M  V30 2370 H 237.082 1.11094 1.46049 0
M  V30 2371 H 235.464 0.274168 3.9505 0
M  V30 2372 H 236.638 3.08422 3.42364 0
M  V30 2373 H 234.953 2.66749 3.1974 0
M  V30 2374 H 237.55 0.827002 5.28266 0
M  V30 2375 H 237.893 -0.447531 4.13887 0
M  V30 2376 H 238.426 1.21462 3.78803 0
M  V30 2377 H 235.165 3.76207 5.36794 0
M  V30 2378 H 234.685 2.0696 5.62963 0
M  V30 2379 H 236.364 2.58072 5.93302 0
M  V30 2380 N 236.496 -1.42363 0.676048 0
M  V30 2381 C 237.444 -2.32596 -0.0131507 0
M  V30 2382 C 238.438 -1.49891 -0.789238 0
M  V30 2383 O 239.644 -1.65955 -0.697061 0
M  V30 2384 H 236.019 -0.751647 -0.0230481 0
M  V30 2385 H 237.99 -2.88421 0.765243 0
M  V30 2386 C 236.739 -3.34479 -0.949702 0
M  V30 2387 H 236.062 -3.98158 -0.361938 0
M  V30 2388 H 237.502 -4.00199 -1.4006 0
M  V30 2389 C 235.961 -2.66838 -2.05667 0
M  V30 2390 O 236.491 -2.50124 -3.14326 0
M  V30 2391 N 234.697 -2.25843 -1.82875 0
M  V30 2392 H 234.244 -2.39637 -0.945085 0
M  V30 2393 H 234.202 -1.80918 -2.5713 0
M  V30 2394 N 237.974 -0.419461 -1.51915 0
M  V30 2395 C 239.223 0.154346 -2.01109 0
M  V30 2396 C 239.536 1.45338 -1.30905 0
M  V30 2397 O 240.742 2.10906 -1.7097 0
M  V30 2398 C 239.198 0.325615 -3.58424 0
M  V30 2399 C 238.806 -0.961934 -4.37551 0
M  V30 2400 C 240.55 0.854155 -4.15818 0
M  V30 2401 C 238.457 -0.757287 -5.86531 0
M  V30 2402 H 237.387 0.0614563 -0.751491 0
M  V30 2403 H 240.038 -0.54649 -1.75173 0
M  V30 2404 H 238.42 1.08903 -3.80731 0
M  V30 2405 H 239.594 -1.7323 -4.26999 0
M  V30 2406 H 237.909 -1.41766 -3.91524 0
M  V30 2407 H 240.506 1.02346 -5.24814 0
M  V30 2408 H 240.849 1.83172 -3.73837 0
M  V30 2409 H 241.382 0.149528 -3.97519 0
M  V30 2410 H 238.121 -1.70671 -6.32892 0
M  V30 2411 H 237.641 -0.0264061 -5.99794 0
M  V30 2412 H 239.32 -0.403482 -6.45741 0
M  V30 2413 N 239.452 1.56882 -0.150215 0
M  V30 2414 C 240.382 2.19935 0.784284 0
M  V30 2415 C 241.363 1.14854 1.25469 0
M  V30 2416 O 242.548 1.43209 1.31168 0
M  V30 2417 C 239.678 2.82349 2.02229 0
M  V30 2418 C 238.632 3.93285 1.68853 0
M  V30 2419 C 237.958 4.42649 2.99944 0
M  V30 2420 C 239.258 5.13904 0.932714 0
M  V30 2421 H 240.952 2.9828 0.258781 0
M  V30 2422 H 238.498 1.43473 0.123029 0
M  V30 2423 H 240.451 3.25126 2.68088 0
M  V30 2424 H 239.175 2.0134 2.57157 0
M  V30 2425 H 237.834 3.5113 1.05371 0
M  V30 2426 H 237.482 3.58458 3.52869 0
M  V30 2427 H 237.182 5.17476 2.78374 0
M  V30 2428 H 238.706 4.88099 3.66868 0
M  V30 2429 H 240.12 5.53506 1.49345 0
M  V30 2430 H 238.517 5.94515 0.81684 0
M  V30 2431 H 239.587 4.84842 -0.0749568 0
M  V30 2432 N 240.93 -0.123565 1.57115 0
M  V30 2433 C 242.178 -0.83051 1.84247 0
M  V30 2434 C 242.499 -1.80629 0.73471 0
M  V30 2435 O 241.769 -1.94403 -0.241688 0
M  V30 2436 H 240.349 -0.309694 0.679778 0
M  V30 2437 H 243.011 -0.111976 1.94578 0
M  V30 2438 H 242.107 -1.37852 2.80006 0
M  V30 2439 N 242.408 -1.52605 -0.393616 0
M  V30 2440 C 243.341 -1.71798 -1.50202 0
M  V30 2441 C 244.319 -0.565743 -1.52441 0
M  V30 2442 O 245.503 -0.794987 -1.70916 0
M  V30 2443 C 242.63 -1.7714 -2.88685 0
M  V30 2444 C 241.676 -2.98845 -3.04292 0
M  V30 2445 S 242.509 -4.58909 -2.75976 0
M  V30 2446 C 243.665 -4.6706 -4.1666 0
M  V30 2447 H 243.898 -2.65542 -1.33696 0
M  V30 2448 H 241.431 -1.42839 -0.586195 0
M  V30 2449 H 243.389 -1.80903 -3.68489 0
M  V30 2450 H 242.05 -0.844969 -3.02521 0
M  V30 2451 H 241.243 -2.99111 -4.05646 0
M  V30 2452 H 240.845 -2.9305 -2.32374 0
M  V30 2453 H 243.137 -4.45391 -5.10523 0
M  V30 2454 H 244.08 -5.6905 -4.21412 0
M  V30 2455 H 244.488 -3.95944 -4.02354 0
M  V30 2456 N 243.887 0.651787 -1.4349 0
M  V30 2457 C 245.164 1.40909 -1.35661 0
M  V30 2458 C 245.544 2.11099 -0.00511733 0
M  V30 2459 O 244.892 2.04892 1.0115 0
M  V30 2460 C 245.102 2.3926 -2.54078 0
M  V30 2461 C 246.45 3.03217 -2.97228 0
M  V30 2462 O 247.474 2.49588 -2.54135 0
M  V30 2463 O 246.333 4.00455 -3.71885 0
M  V30 2464 H 243.427 0.629625 -0.536191 0
M  V30 2465 H 245.973 0.678575 -1.55542 0
M  V30 2466 H 244.745 1.86352 -3.44076 0
M  V30 2467 H 244.368 3.1976 -2.36303 0
M  V30 2468 N 245.365 1.30045 0.890287 0
M  V30 2469 C 246.776 1.16738 1.45702 0
M  V30 2470 C 247.127 -0.233939 1.948 0
M  V30 2471 O 246.252 -1.13021 1.84541 0
M  V30 2472 C 246.847 2.11313 2.64825 0
M  V30 2473 C 245.406 2.02001 3.17604 0
M  V30 2474 C 244.553 2.01699 1.90296 0
M  V30 2475 H 247.504 1.42392 0.700726 0
M  V30 2476 H 247.525 1.69086 3.40867 0
M  V30 2477 H 247.037 3.13294 2.2906 0
M  V30 2478 H 245.138 1.03142 3.5804 0
M  V30 2479 H 245.251 2.90128 3.81264 0
M  V30 2480 H 243.615 1.46427 2.08402 0
M  V30 2481 H 244.398 3.05402 1.56795 0
M  V30 2482 N 246.843 -1.10192 1.12674 0
M  V30 2483 C 247.773 -2.18652 0.819362 0
M  V30 2484 C 248.754 -1.68698 -0.217915 0
M  V30 2485 O 249.939 -1.94041 -0.0785581 0
M  V30 2486 C 247.069 -3.46202 0.27594 0
M  V30 2487 C 246.023 -4.09444 1.24656 0
M  V30 2488 C 245.349 -5.31725 0.563258 0
M  V30 2489 C 246.649 -4.52863 2.60217 0
M  V30 2490 H 248.343 -2.44622 1.72628 0
M  V30 2491 H 245.889 -1.17571 0.831451 0
M  V30 2492 H 247.842 -4.21372 0.0486149 0
M  V30 2493 H 246.566 -3.1973 -0.666331 0
M  V30 2494 H 245.225 -3.36284 1.45974 0
M  V30 2495 H 244.873 -5.0153 -0.384235 0
M  V30 2496 H 244.573 -5.74991 1.21075 0
M  V30 2497 H 246.097 -6.09624 0.34503 0
M  V30 2498 H 247.511 -5.19294 2.42913 0
M  V30 2499 H 245.908 -5.06986 3.21068 0
M  V30 2500 H 246.978 -3.65656 3.18471 0
M  V30 2501 N 248.321 -0.919034 -1.28029 0
M  V30 2502 C 249.546 -0.570357 -1.99403 0
M  V30 2503 C 249.971 0.842486 -1.68178 0
M  V30 2504 O 249.329 1.56391 -0.917141 0
M  V30 2505 C 249.377 -0.792541 -3.51783 0
M  V30 2506 O 248.481 0.145988 -4.12142 0
M  V30 2507 H 247.822 -0.220555 -0.6263 0
M  V30 2508 H 250.352 -1.23592 -1.63053 0
M  V30 2509 H 250.362 -0.704708 -4.01868 0
M  V30 2510 H 249.037 -1.82247 -3.73844 0
M  V30 2511 H 247.614 0.00897528 -3.72899 0
M  V30 2512 N 249.799 1.42003 -0.683588 0
M  V30 2513 C 251.027 2.05746 -0.218182 0
M  V30 2514 C 251.442 1.51396 1.12804 0
M  V30 2515 O 250.799 0.657303 1.70252 0
M  V30 2516 C 250.85 3.61171 -0.154131 0
M  V30 2517 O 250.571 4.13508 -1.44716 0
M  V30 2518 C 252.072 4.42042 0.333713 0
M  V30 2519 H 249.292 0.662888 -0.10402 0
M  V30 2520 H 251.836 1.81987 -0.9328 0
M  V30 2521 H 249.991 3.84012 0.511231 0
M  V30 2522 H 250.405 5.07453 -1.32632 0
M  V30 2523 H 251.879 5.51028 0.327423 0
M  V30 2524 H 252.356 4.17269 1.37053 0
M  V30 2525 H 252.962 4.24239 -0.300222 0
M  V30 2526 N 251.277 0.427512 1.51691 0
M  V30 2527 C 252.688 -0.0378867 1.86662 0
M  V30 2528 C 253.039 -1.42819 1.34525 0
M  V30 2529 O 252.164 -2.05037 0.692014 0
M  V30 2530 C 252.759 -0.0755266 3.38716 0
M  V30 2531 C 251.318 -0.485309 3.73258 0
M  V30 2532 C 250.465 0.328399 2.75349 0
M  V30 2533 H 253.416 0.64379 1.45055 0
M  V30 2534 H 253.437 -0.887056 3.70016 0
M  V30 2535 H 252.949 0.936487 3.76632 0
M  V30 2536 H 251.05 -1.50329 3.40928 0
M  V30 2537 H 251.163 -0.21693 4.78609 0
M  V30 2538 H 249.527 -0.211905 2.53817 0
M  V30 2539 H 250.31 1.3391 3.16106 0
M  V30 2540 N 252.755 -1.56801 0.158532 0
M  V30 2541 C 254.002 -1.9649 -0.489679 0
M  V30 2542 C 254.33 -1.04394 -1.6411 0
M  V30 2543 O 253.585 -0.0754401 -1.95555 0
M  V30 2544 C 253.884 -3.4235 -1.02623 0
M  V30 2545 C 253.55 -4.50899 0.00794526 0
M  V30 2546 C 252.212 -4.80312 0.292207 0
M  V30 2547 C 254.564 -5.16333 0.710584 0
M  V30 2548 C 251.892 -5.72461 1.28472 0
M  V30 2549 C 254.244 -6.09553 1.69199 0
M  V30 2550 C 252.908 -6.37339 1.98383 0
M  V30 2551 H 252.178 -0.719009 -0.179186 0
M  V30 2552 H 254.825 -1.8989 0.247798 0
M  V30 2553 H 253.13 -3.45838 -1.84128 0
M  V30 2554 H 254.827 -3.70393 -1.53656 0
M  V30 2555 H 251.417 -4.28015 -0.22379 0
M  V30 2556 H 255.601 -4.93732 0.504174 0
M  V30 2557 H 250.857 -5.92278 1.51714 0
M  V30 2558 H 255.031 -6.59327 2.24189 0
M  V30 2559 H 252.658 -7.08546 2.7544 0
M  V30 2560 N 254.233 0.115231 -1.57178 0
M  V30 2561 C 255.51 0.852873 -1.76027 0
M  V30 2562 C 255.89 1.97892 -0.73498 0
M  V30 2563 O 255.238 2.27232 0.24036 0
M  V30 2564 C 255.448 1.36608 -3.21153 0
M  V30 2565 C 256.796 1.81692 -3.83762 0
M  V30 2566 O 257.82 1.46278 -3.24779 0
M  V30 2567 O 256.679 2.47104 -4.87444 0
M  V30 2568 H 253.773 0.405296 -0.720877 0
M  V30 2569 H 256.319 0.0986785 -1.69413 0
M  V30 2570 H 255.091 0.558357 -3.87296 0
M  V30 2571 H 254.714 2.18287 -3.3232 0
M  V30 2572 N 255.711 1.52812 0.385517 0
M  V30 2573 C 256.659 1.78482 1.49155 0
M  V30 2574 C 257.653 0.652914 1.56312 0
M  V30 2575 O 258.859 0.835464 1.59436 0
M  V30 2576 H 255.234 0.5648 0.496493 0
M  V30 2577 H 257.205 2.71095 1.24699 0
M  V30 2578 C 255.954 1.97378 2.86247 0
M  V30 2579 H 255.277 2.83907 2.81491 0
M  V30 2580 H 256.717 2.19327 3.62866 0
M  V30 2581 C 255.176 0.74728 3.28508 0
M  V30 2582 O 255.706 -0.0736232 4.01633 0
M  V30 2583 N 253.912 0.576396 2.84826 0
M  V30 2584 H 253.459 1.24555 2.25486 0
M  V30 2585 H 253.417 -0.24288 3.1346 0
M  V30 2586 N 257.189 -0.644168 1.43834 0
M  V30 2587 C 258.099 -1.78563 1.52159 0
M  V30 2588 C 259.115 -1.69147 0.408069 0
M  V30 2589 O 260.291 -1.90156 0.663524 0
M  V30 2590 C 257.356 -3.14888 1.45073 0
M  V30 2591 C 256.417 -3.36034 2.6717 0
M  V30 2592 C 255.65 -4.65855 2.60413 0
M  V30 2593 O 255.873 -5.45805 1.65689 0
M  V30 2594 O 254.807 -4.88918 3.5106 0
M  V30 2595 H 258.633 -1.74494 2.48567 0
M  V30 2596 H 256.218 -0.80378 1.25935 0
M  V30 2597 H 258.1 -3.96179 1.43597 0
M  V30 2598 H 256.775 -3.19528 0.518037 0
M  V30 2599 H 255.682 -2.54472 2.74217 0
M  V30 2600 H 257.015 -3.36247 3.59442 0
M  V30 2601 N 258.668 -1.30515 -0.883378 0
M  V30 2602 C 259.915 -1.1943 -1.63532 0
M  V30 2603 C 260.243 0.250627 -1.92878 0
M  V30 2604 O 259.498 1.19556 -1.54935 0
M  V30 2605 C 259.797 -1.96994 -2.98209 0
M  V30 2606 C 259.463 -3.466 -2.88408 0
M  V30 2607 C 258.125 -3.87397 -2.85442 0
M  V30 2608 C 260.477 -4.41863 -2.76418 0
M  V30 2609 C 257.805 -5.21745 -2.68327 0
M  V30 2610 C 260.157 -5.7632 -2.60841 0
M  V30 2611 C 258.821 -6.16354 -2.56251 0
M  V30 2612 H 258.091 -0.437025 -0.598406 0
M  V30 2613 H 260.738 -1.61635 -1.02696 0
M  V30 2614 H 259.043 -1.47429 -3.63004 0
M  V30 2615 H 260.74 -1.85808 -3.55354 0
M  V30 2616 H 257.33 -3.14182 -2.91527 0
M  V30 2617 H 261.514 -4.11285 -2.77775 0
M  V30 2618 H 256.77 -5.51853 -2.63189 0
M  V30 2619 H 260.944 -6.49772 -2.50538 0
M  V30 2620 H 258.571 -7.20401 -2.42748 0
M  V30 2621 N 260.146 1.09593 -1.13257 0
M  V30 2622 C 261.376 1.85231 -0.915049 0
M  V30 2623 C 261.784 1.81345 0.539498 0
M  V30 2624 O 261.127 1.20664 1.38513 0
M  V30 2625 C 261.189 3.34275 -1.3229 0
M  V30 2626 C 260.853 3.6191 -2.79052 0
M  V30 2627 C 261.85 3.57777 -3.77216 0
M  V30 2628 C 259.535 3.90309 -3.16171 0
M  V30 2629 C 261.529 3.81652 -5.1051 0
M  V30 2630 C 259.216 4.13839 -4.49644 0
M  V30 2631 C 260.214 4.09502 -5.46623 0
M  V30 2632 O 259.902 4.32426 -6.77689 0
M  V30 2633 H 259.634 0.591997 -0.326367 0
M  V30 2634 H 262.188 1.394 -1.50854 0
M  V30 2635 H 260.418 3.80805 -0.672667 0
M  V30 2636 H 262.107 3.9132 -1.07812 0
M  V30 2637 H 262.873 3.35865 -3.49885 0
M  V30 2638 H 258.752 3.92811 -2.41289 0
M  V30 2639 H 262.296 3.78182 -5.86195 0
M  V30 2640 H 258.193 4.35232 -4.767 0
M  V30 2641 H 258.961 4.49896 -6.83766 0
M  V30 2642 N 261.624 0.925811 1.2754 0
M  V30 2643 C 262.572 0.413897 2.28888 0
M  V30 2644 C 263.566 -0.500779 1.61829 0
M  V30 2645 O 264.772 -0.38069 1.75928 0
M  V30 2646 H 261.147 0.115274 0.743112 0
M  V30 2647 H 263.118 1.28151 2.69481 0
M  V30 2648 C 261.867 -0.319792 3.46226 0
M  V30 2649 H 261.19 0.374846 3.98039 0
M  V30 2650 H 262.63 -0.642435 4.19105 0
M  V30 2651 C 261.089 -1.53209 3.00048 0
M  V30 2652 O 261.619 -2.6309 3.03557 0
M  V30 2653 N 259.825 -1.38326 2.55566 0
M  V30 2654 H 259.372 -0.489292 2.5291 0
M  V30 2655 H 259.33 -2.19564 2.25031 0
M  V30 2656 N 263.102 -1.41638 0.69111 0
M  V30 2657 C 264.35 -2.00902 0.219758 0
M  V30 2658 C 264.671 -1.54994 -1.18329 0
M  V30 2659 O 263.941 -0.778628 -1.79762 0
M  V30 2660 H 262.521 -0.74289 0.0782558 0
M  V30 2661 H 265.183 -1.73327 0.891271 0
M  V30 2662 H 264.279 -3.11224 0.233708 0
M  V30 2663 N 264.58 -0.43555 -1.51462 0
M  V30 2664 C 265.51 0.367376 -2.30592 0
M  V30 2665 C 266.491 1.02263 -1.35928 0
M  V30 2666 O 267.676 1.02661 -1.64847 0
M  V30 2667 C 264.806 1.46983 -3.14664 0
M  V30 2668 C 263.76 0.938161 -4.17591 0
M  V30 2669 C 263.086 2.13622 -4.90173 0
M  V30 2670 C 264.386 -0.0261621 -5.22293 0
M  V30 2671 H 266.08 -0.292969 -2.97963 0
M  V30 2672 H 263.626 -0.14234 -1.43295 0
M  V30 2673 H 265.579 2.03873 -3.688 0
M  V30 2674 H 264.303 2.15843 -2.4511 0
M  V30 2675 H 262.962 0.391481 -3.64504 0
M  V30 2676 H 262.61 2.81098 -4.17124 0
M  V30 2677 H 262.31 1.78688 -5.59772 0
M  V30 2678 H 263.834 2.7107 -5.47132 0
M  V30 2679 H 265.248 0.452384 -5.71512 0
M  V30 2680 H 263.645 -0.287992 -5.99409 0
M  V30 2681 H 264.715 -0.963391 -4.75233 0
M  V30 2682 N 266.058 1.56714 -0.166846 0
M  V30 2683 C 267.298 1.98641 0.481763 0
M  V30 2684 C 267.662 1.05038 1.6072 0
M  V30 2685 O 268.863 1.36087 2.31805 0
M  V30 2686 C 267.134 3.44362 0.956517 0
M  V30 2687 S 268.693 4.08317 1.60694 0
M  V30 2688 H 265.511 0.693873 0.155116 0
M  V30 2689 H 268.113 1.93719 -0.263251 0
M  V30 2690 H 266.817 4.10204 0.126936 0
M  V30 2691 H 266.348 3.53041 1.73568 0
M  V30 2692 H 268.363 4.02999 2.89494 0
M  V30 2693 N 267.536 -0.106894 1.57237 0
M  V30 2694 C 268.484 -1.14944 2.02215 0
M  V30 2695 C 269.478 -1.42167 0.92114 0
M  V30 2696 O 270.684 -1.41987 1.10634 0
M  V30 2697 H 267.059 -0.387841 0.64427 0
M  V30 2698 H 269.03 -0.743683 2.88984 0
M  V30 2699 C 267.779 -2.4647 2.4525 0
M  V30 2700 H 267.102 -2.26363 3.29545 0
M  V30 2701 H 268.542 -3.17948 2.80508 0
M  V30 2702 C 267.001 -3.09921 1.321 0
M  V30 2703 O 267.531 -3.9651 0.643622 0
M  V30 2704 N 265.737 -2.69986 1.07497 0
M  V30 2705 H 265.284 -1.99667 1.62761 0
M  V30 2706 H 265.242 -3.12769 0.319876 0
M  V30 2707 N 269.014 -1.53014 -0.377408 0
M  V30 2708 C 270.43 -1.42523 -0.718281 0
M  V30 2709 C 270.63 -0.55487 -1.9371 0
M  V30 2710 O 269.686 -0.0327593 -2.52479 0
M  V30 2711 C 270.999 -2.85546 -0.942539 0
M  V30 2712 C 272.547 -2.95101 -1.04329 0
M  V30 2713 C 273.022 -4.3916 -1.3001 0
M  V30 2714 N 274.513 -4.42536 -1.36806 0
M  V30 2715 C 275.248 -5.51097 -1.58364 0
M  V30 2716 N 274.744 -6.69724 -1.77317 0
M  V30 2717 N 276.537 -5.38657 -1.60638 0
M  V30 2718 H 268.688 -2.08116 0.424426 0
M  V30 2719 H 270.951 -0.939352 0.127759 0
M  V30 2720 H 270.657 -3.51499 -0.118929 0
M  V30 2721 H 270.531 -3.28493 -1.85397 0
M  V30 2722 H 272.918 -2.29309 -1.85745 0
M  V30 2723 H 272.999 -2.55566 -0.109505 0
M  V30 2724 H 272.643 -5.05521 -0.490991 0
M  V30 2725 H 272.573 -4.76258 -2.24691 0
M  V30 2726 H 275.064 -3.57039 -1.23821 0
M  V30 2727 H 275.377 -7.48233 -1.93306 0
M  V30 2728 H 273.722 -6.72732 -1.74518 0
M  V30 2729 H 276.913 -4.44948 -1.45391 0
M  V30 2730 H 277.086 -6.2333 -1.77098 0
M  V30 2731 N 270.492 0.636531 -1.44174 0
M  V30 2732 C 271.769 1.39463 -1.37148 0
M  V30 2733 C 272.149 2.11082 -0.027507 0
M  V30 2734 O 271.497 2.05954 0.989716 0
M  V30 2735 C 271.707 2.36552 -2.56601 0
M  V30 2736 C 273.055 3.00048 -3.00427 0
M  V30 2737 O 274.079 2.46878 -2.56767 0
M  V30 2738 O 272.938 3.96488 -3.76111 0
M  V30 2739 H 270.032 0.623903 -0.542839 0
M  V30 2740 H 272.578 0.662039 -1.56253 0
M  V30 2741 H 271.35 1.82692 -3.46034 0
M  V30 2742 H 270.973 3.17236 -2.39681 0
M  V30 2743 N 271.97 1.30982 0.876444 0
M  V30 2744 C 273.386 1.09498 1.16113 0
M  V30 2745 C 273.586 -0.13875 2.01022 0
M  V30 2746 O 272.642 -0.829935 2.38471 0
M  V30 2747 C 273.955 2.36308 1.85954 0
M  V30 2748 C 275.503 2.41856 1.98683 0
M  V30 2749 C 275.978 3.6853 2.71937 0
M  V30 2750 N 277.469 3.69387 2.79477 0
M  V30 2751 C 278.204 4.64096 3.36753 0
M  V30 2752 N 277.7 5.69155 3.95012 0
M  V30 2753 N 279.493 4.51626 3.3465 0
M  V30 2754 H 271.644 2.10118 0.310494 0
M  V30 2755 H 273.907 0.926634 0.200131 0
M  V30 2756 H 273.613 3.26388 1.31011 0
M  V30 2757 H 273.487 2.4561 2.86278 0
M  V30 2758 H 275.874 1.52249 2.52793 0
M  V30 2759 H 275.955 2.36523 0.9742 0
M  V30 2760 H 275.599 4.58499 2.18496 0
M  V30 2761 H 275.529 3.71127 3.73593 0
M  V30 2762 H 278.02 2.93438 2.38123 0
M  V30 2763 H 278.333 6.3751 4.36808 0
M  V30 2764 H 276.678 5.72937 3.93406 0
M  V30 2765 H 279.869 3.68728 2.8837 0
M  V30 2766 H 280.042 5.25614 3.7899 0
M  V30 2767 N 273.449 -1.08991 1.13837 0
M  V30 2768 C 274.726 -1.77863 0.813876 0
M  V30 2769 C 275.106 -1.99375 -0.693746 0
M  V30 2770 O 274.454 -1.59875 -1.63255 0
M  V30 2771 C 274.664 -3.0986 1.60586 0
M  V30 2772 C 276.012 -3.84493 1.8014 0
M  V30 2773 O 277.036 -3.19624 1.57222 0
M  V30 2774 O 275.895 -5.00957 2.18413 0
M  V30 2775 H 272.989 -0.771589 0.297624 0
M  V30 2776 H 275.535 -1.15507 1.24323 0
M  V30 2777 H 274.307 -2.89715 2.63022 0
M  V30 2778 H 273.93 -3.79942 1.17173 0
M  V30 2779 N 274.927 -0.932562 -1.27047 0
M  V30 2780 C 276.175 -0.574422 -1.93765 0
M  V30 2781 C 276.496 0.887993 -1.73608 0
M  V30 2782 O 275.766 1.62999 -1.08665 0
M  V30 2783 H 274.346 -0.209451 -0.717035 0
M  V30 2784 H 277.008 -1.18601 -1.5466 0
M  V30 2785 H 276.104 -0.784841 -3.02071 0
M  V30 2786 N 276.405 1.4127 -0.698611 0
M  V30 2787 C 277.353 2.32588 -0.023855 0
M  V30 2788 C 278.347 1.51128 0.765292 0
M  V30 2789 O 279.553 1.67043 0.670571 0
M  V30 2790 H 275.928 0.751918 0.0110871 0
M  V30 2791 H 277.899 2.87167 -0.811031 0
M  V30 2792 C 276.648 3.35947 0.896369 0
M  V30 2793 H 275.971 3.98684 0.298548 0
M  V30 2794 H 277.411 4.02376 1.33676 0
M  V30 2795 C 275.87 2.70076 2.01396 0
M  V30 2796 O 276.4 2.55093 3.10307 0
M  V30 2797 N 274.606 2.28724 1.79259 0
M  V30 2798 H 274.153 2.4111 0.906841 0
M  V30 2799 H 274.111 1.84986 2.54219 0
M  V30 2800 N 277.883 0.443576 1.51229 0
M  V30 2801 C 279.111 -0.11929 2.06556 0
M  V30 2802 C 279.526 -1.35921 1.31038 0
M  V30 2803 O 278.883 -1.78675 0.371704 0
M  V30 2804 C 278.934 -0.435228 3.5887 0
M  V30 2805 O 278.655 0.755486 4.31537 0
M  V30 2806 C 280.156 -1.04808 4.30732 0
M  V30 2807 H 277.376 -0.0051584 0.67098 0
M  V30 2808 H 279.92 0.624453 1.94733 0
M  V30 2809 H 278.075 -1.12887 3.70588 0
M  V30 2810 H 278.489 0.483491 5.22267 0
M  V30 2811 H 279.963 -1.2191 5.3837 0
M  V30 2812 H 280.44 -2.03081 3.89429 0
M  V30 2813 H 281.046 -0.393637 4.23474 0
M  V30 2814 N 279.361 -1.56624 0.175154 0
M  V30 2815 C 280.291 -2.21155 -0.749195 0
M  V30 2816 C 281.272 -1.16836 -1.23626 0
M  V30 2817 O 282.457 -1.45277 -1.28873 0
M  V30 2818 C 279.587 -2.8553 -1.97711 0
M  V30 2819 C 278.541 -3.95921 -1.62575 0
M  V30 2820 C 277.867 -4.47365 -2.92864 0
M  V30 2821 C 279.167 -5.15323 -0.850838 0
M  V30 2822 H 280.861 -2.98653 -0.211295 0
M  V30 2823 H 278.407 -1.43651 -0.100188 0
M  V30 2824 H 280.36 -3.2935 -2.62881 0
M  V30 2825 H 279.084 -2.05406 -2.53921 0
M  V30 2826 H 277.743 -3.52762 -0.997719 0
M  V30 2827 H 277.391 -3.64027 -3.47122 0
M  V30 2828 H 277.091 -5.21839 -2.70106 0
M  V30 2829 H 278.615 -4.93873 -3.59056 0
M  V30 2830 H 280.029 -5.55812 -1.40521 0
M  V30 2831 H 278.426 -5.95739 -0.722154 0
M  V30 2832 H 279.496 -4.84661 0.152082 0
M  V30 2833 N 280.839 0.0985539 -1.57292 0
M  V30 2834 C 282.067 0.816318 -1.90115 0
M  V30 2835 C 282.482 1.72451 -0.768509 0
M  V30 2836 O 281.839 1.80643 0.259687 0
M  V30 2837 C 281.89 1.63259 -3.22535 0
M  V30 2838 O 281.611 0.760934 -4.31441 0
M  V30 2839 C 283.112 2.45372 -3.69199 0
M  V30 2840 H 280.332 0.233595 -0.629027 0
M  V30 2841 H 282.876 0.0768229 -2.04356 0
M  V30 2842 H 281.031 2.32463 -3.09903 0
M  V30 2843 H 281.445 1.32595 -5.07463 0
M  V30 2844 H 282.919 2.98144 -4.64558 0
M  V30 2845 H 283.396 3.23677 -2.96867 0
M  V30 2846 H 284.002 1.81373 -3.84687 0
M  V30 2847 N 282.317 1.53212 0.369288 0
M  V30 2848 C 283.547 1.72868 1.13139 0
M  V30 2849 C 283.955 0.455754 1.83629 0
M  V30 2850 O 283.298 -0.580861 1.74275 0
M  V30 2851 C 283.36 2.83667 2.20847 0
M  V30 2852 C 283.024 4.24142 1.70155 0
M  V30 2853 C 284.021 5.06619 1.16763 0
M  V30 2854 C 281.706 4.70539 1.7578 0
M  V30 2855 C 283.7 6.33581 0.696678 0
M  V30 2856 C 281.387 5.97481 1.28297 0
M  V30 2857 C 282.385 6.78833 0.753307 0
M  V30 2858 O 282.073 8.03393 0.285475 0
M  V30 2859 H 281.805 0.581707 0.344373 0
M  V30 2860 H 284.359 2.00736 0.435243 0
M  V30 2861 H 282.589 2.51265 2.93944 0
M  V30 2862 H 284.278 2.91536 2.82421 0
M  V30 2863 H 285.044 4.71948 1.11758 0
M  V30 2864 H 280.923 4.07293 2.15949 0
M  V30 2865 H 284.467 6.97027 0.282581 0
M  V30 2866 H 280.364 6.31651 1.32994 0
M  V30 2867 H 281.132 8.17497 0.405145 0
M  V30 2868 N 283.795 -0.628877 1.44509 0
M  V30 2869 C 285.025 -1.41349 1.50678 0
M  V30 2870 C 285.433 -1.88745 0.131075 0
M  V30 2871 O 284.776 -1.61592 -0.87371 0
M  V30 2872 C 284.838 -2.66608 2.41165 0
M  V30 2873 C 284.502 -2.40993 3.88293 0
M  V30 2874 C 285.499 -2.0268 4.78766 0
M  V30 2875 C 283.184 -2.54563 4.33016 0
M  V30 2876 C 285.178 -1.78269 6.11963 0
M  V30 2877 C 282.865 -2.29766 5.6626 0
M  V30 2878 C 283.863 -1.91678 6.55552 0
M  V30 2879 O 283.551 -1.67158 7.86329 0
M  V30 2880 H 283.283 -0.439851 0.51333 0
M  V30 2881 H 285.837 -0.776084 1.90174 0
M  V30 2882 H 284.067 -3.32994 1.96601 0
M  V30 2883 H 285.756 -3.28615 2.38259 0
M  V30 2884 H 286.522 -1.91751 4.45485 0
M  V30 2885 H 282.401 -2.83179 3.63773 0
M  V30 2886 H 285.945 -1.48465 6.81619 0
M  V30 2887 H 281.842 -2.40306 5.99102 0
M  V30 2888 H 282.61 -1.81386 7.98149 0
M  V30 2889 N 285.273 -1.31445 -0.869486 0
M  V30 2890 C 286.689 -1.10113 -1.15531 0
M  V30 2891 C 286.889 0.128087 -2.01092 0
M  V30 2892 O 285.945 0.817276 -2.38908 0
M  V30 2893 C 287.258 -2.37291 -1.84698 0
M  V30 2894 C 288.806 -2.42906 -1.97397 0
M  V30 2895 C 289.281 -3.69967 -2.69979 0
M  V30 2896 N 290.772 -3.70864 -2.77514 0
M  V30 2897 C 291.507 -4.65875 -3.34287 0
M  V30 2898 N 291.003 -5.71242 -3.91988 0
M  V30 2899 N 292.796 -4.53394 -3.3225 0
M  V30 2900 H 284.947 -2.1028 -0.299347 0
M  V30 2901 H 287.21 -0.927683 -0.195214 0
M  V30 2902 H 286.916 -3.27078 -1.29278 0
M  V30 2903 H 286.79 -2.47125 -2.84972 0
M  V30 2904 H 289.177 -1.53588 -2.51982 0
M  V30 2905 H 289.258 -2.37036 -0.961643 0
M  V30 2906 H 288.902 -4.59652 -2.16062 0
M  V30 2907 H 288.832 -3.73103 -3.7162 0
M  V30 2908 H 291.323 -2.94697 -2.36563 0
M  V30 2909 H 291.636 -6.39817 -4.33421 0
M  V30 2910 H 289.981 -5.75015 -3.90362 0
M  V30 2911 H 293.172 -3.70252 -2.8641 0
M  V30 2912 H 293.345 -5.27617 -3.76197 0
M  V30 2913 N 286.751 1.08385 -1.14413 0
M  V30 2914 C 288.167 1.32844 -0.884563 0
M  V30 2915 C 288.367 1.95841 0.474181 0
M  V30 2916 O 287.423 2.21158 1.21842 0
M  V30 2917 C 288.736 2.22978 -2.01745 0
M  V30 2918 C 290.284 2.36458 -2.05077 0
M  V30 2919 C 290.759 3.29934 -3.1766 0
M  V30 2920 N 292.25 3.37511 -3.17239 0
M  V30 2921 C 292.985 4.09871 -4.0099 0
M  V30 2922 N 292.481 4.84936 -4.94781 0
M  V30 2923 N 294.274 4.05704 -3.89051 0
M  V30 2924 H 286.425 0.658756 -2.01926 0
M  V30 2925 H 288.688 0.352821 -0.879899 0
M  V30 2926 H 288.394 1.83934 -2.99769 0
M  V30 2927 H 288.268 3.23441 -1.94077 0
M  V30 2928 H 290.655 2.7476 -1.0766 0
M  V30 2929 H 290.736 1.35736 -2.16816 0
M  V30 2930 H 290.38 2.92352 -4.15322 0
M  V30 2931 H 290.31 4.30584 -3.03158 0
M  V30 2932 H 292.801 2.83996 -2.49308 0
M  V30 2933 H 293.114 5.37612 -5.55151 0
M  V30 2934 H 291.459 4.83988 -4.98779 0
M  V30 2935 H 294.65 3.46167 -3.15097 0
M  V30 2936 H 294.823 4.61834 -4.54547 0
M  V30 2937 N 288.23 0.939286 1.26551 0
M  V30 2938 C 289.641 0.628782 1.75793 0
M  V30 2939 C 289.992 -0.856046 1.7654 0
M  V30 2940 O 289.117 -1.66994 1.3763 0
M  V30 2941 C 289.712 1.13465 3.19235 0
M  V30 2942 C 288.271 0.874601 3.66098 0
M  V30 2943 C 287.418 1.28667 2.45642 0
M  V30 2944 H 290.369 1.1178 1.12654 0
M  V30 2945 H 290.39 0.487609 3.77363 0
M  V30 2946 H 289.902 2.21535 3.1866 0
M  V30 2947 H 288.003 -0.191793 3.72106 0
M  V30 2948 H 288.116 1.50028 4.55004 0
M  V30 2949 H 286.48 0.705109 2.44745 0
M  V30 2950 H 287.263 2.37625 2.47769 0
M  V30 2951 N 289.708 -1.40897 0.706093 0
M  V30 2952 C 290.954 -2.01849 0.250681 0
M  V30 2953 C 291.309 -1.5496 -1.14041 0
M  V30 2954 O 290.602 -0.755566 -1.76073 0
M  V30 2955 C 290.796 -3.5646 0.259099 0
M  V30 2956 C 290.625 -4.18357 1.64947 0
M  V30 2957 C 289.395 -4.522 2.25485 0
M  V30 2958 C 291.593 -4.43856 2.598 0
M  V30 2959 N 289.575 -4.9944 3.56977 0
M  V30 2960 C 290.946 -4.92986 3.75985 0
M  V30 2961 C 293.001 -4.25882 2.57933 0
M  V30 2962 C 291.704 -5.2603 4.90597 0
M  V30 2963 C 293.73 -4.6002 3.71665 0
M  V30 2964 C 293.092 -5.09331 4.86581 0
M  V30 2965 H 289.191 -0.769843 0.137353 0
M  V30 2966 H 291.775 -1.71278 0.925845 0
M  V30 2967 H 289.946 -3.86481 -0.385592 0
M  V30 2968 H 291.678 -4.04144 -0.21213 0
M  V30 2969 H 288.433 -4.3901 1.77671 0
M  V30 2970 H 288.857 -5.27454 4.24407 0
M  V30 2971 H 293.499 -3.86986 1.70298 0
M  V30 2972 H 291.217 -5.63843 5.78884 0
M  V30 2973 H 294.803 -4.47762 3.71484 0
M  V30 2974 H 293.683 -5.35251 5.73129 0
M  V30 2975 N 291.186 -0.45159 -1.50991 0
M  V30 2976 C 292.134 0.366864 -2.29689 0
M  V30 2977 C 293.128 1.00809 -1.36139 0
M  V30 2978 O 294.334 0.941427 -1.53418 0
M  V30 2979 H 290.709 0.137133 -0.739391 0
M  V30 2980 H 292.68 -0.317538 -2.96706 0
M  V30 2981 C 291.429 1.44751 -3.16137 0
M  V30 2982 H 290.752 0.963473 -3.88017 0
M  V30 2983 H 292.192 1.99315 -3.74232 0
M  V30 2984 C 290.651 2.43869 -2.32442 0
M  V30 2985 O 291.181 3.4872 -1.99392 0
M  V30 2986 N 289.387 2.15105 -1.95392 0
M  V30 2987 H 288.934 1.29866 -2.22469 0
M  V30 2988 H 288.892 2.81661 -1.39693 0
M  V30 2989 N 292.664 1.56529 -0.183458 0
M  V30 2990 C 293.91 1.97537 0.459036 0
M  V30 2991 C 294.243 1.06989 1.62071 0
M  V30 2992 O 293.518 0.11948 1.94133 0
M  V30 2993 C 293.801 3.47874 0.930368 0
M  V30 2994 C 293.654 4.492 -0.232317 0
M  V30 2995 C 294.973 4.01612 1.79989 0
M  V30 2996 H 292.092 0.718204 0.165383 0
M  V30 2997 H 294.734 1.88042 -0.272038 0
M  V30 2998 H 292.884 3.56095 1.55333 0
M  V30 2999 H 294.556 4.53027 -0.86972 0
M  V30 3000 H 292.799 4.24657 -0.885928 0
M  V30 3001 H 293.47 5.51823 0.139796 0
M  V30 3002 H 295.946 3.96097 1.27461 0
M  V30 3003 H 294.822 5.07195 2.09867 0
M  V30 3004 H 295.083 3.46163 2.74998 0
M  V30 3005 N 294.142 -0.090211 1.57342 0
M  V30 3006 C 295.105 -1.09335 2.01441 0
M  V30 3007 C 296.105 -1.32666 0.908641 0
M  V30 3008 O 297.295 -1.28697 1.174 0
M  V30 3009 C 294.427 -2.44136 2.3793 0
M  V30 3010 H 295.62 -0.713662 2.91285 0
M  V30 3011 H 293.173 -0.335404 1.52659 0
M  V30 3012 H 293.908 -2.86972 1.51055 0
M  V30 3013 H 293.693 -2.28548 3.18603 0
M  V30 3014 H 295.183 -3.16277 2.72688 0
M  V30 3015 N 295.62 -1.53406 -0.361157 0
M  V30 3016 C 296.845 -1.74024 -1.12829 0
M  V30 3017 C 297.27 -0.470069 -1.82132 0
M  V30 3018 O 296.628 0.57619 -1.719 0
M  V30 3019 C 296.676 -2.90903 -2.13091 0
M  V30 3020 O 295.78 -2.59821 -3.20261 0
M  V30 3021 H 295.121 -0.577804 -0.327168 0
M  V30 3022 H 297.651 -2.00307 -0.41693 0
M  V30 3023 H 297.661 -3.17194 -2.56616 0
M  V30 3024 H 296.336 -3.83034 -1.62042 0
M  V30 3025 H 294.913 -2.44362 -2.81677 0
M  V30 3026 N 297.098 0.621204 -1.44841 0
M  V30 3027 C 298.028 1.74366 -1.55303 0
M  V30 3028 C 299.009 1.65199 -0.405385 0
M  V30 3029 O 300.194 1.83807 -0.626787 0
M  V30 3030 C 297.324 3.12931 -1.50637 0
M  V30 3031 C 296.278 3.36896 -2.63979 0
M  V30 3032 C 295.604 4.75594 -2.44366 0
M  V30 3033 C 296.904 3.28483 -4.06074 0
M  V30 3034 H 298.598 1.65867 -2.49256 0
M  V30 3035 H 296.144 0.796558 -1.19962 0
M  V30 3036 H 298.097 3.9124 -1.56555 0
M  V30 3037 H 296.821 3.22237 -0.532057 0
M  V30 3038 H 295.48 2.60972 -2.57467 0
M  V30 3039 H 295.128 4.81616 -1.45105 0
M  V30 3040 H 294.828 4.92586 -3.20364 0
M  V30 3041 H 296.352 5.5612 -2.52117 0
M  V30 3042 H 297.766 3.96684 -4.13902 0
M  V30 3043 H 296.163 3.57008 -4.82354 0
M  V30 3044 H 297.233 2.26133 -4.28943 0
M  V30 3045 N 298.576 1.31904 0.862503 0
M  V30 3046 C 299.825 1.21373 1.61094 0
M  V30 3047 C 300.138 -0.22504 1.94301 0
M  V30 3048 O 301.344 -0.452121 2.67709 0
M  V30 3049 C 299.8 2.12525 2.9045 0
M  V30 3050 C 299.408 3.61441 2.64697 0
M  V30 3051 C 301.152 2.10813 3.68454 0
M  V30 3052 C 299.059 4.44578 3.90006 0
M  V30 3053 H 297.989 0.450705 0.604468 0
M  V30 3054 H 300.64 1.56811 0.953027 0
M  V30 3055 H 299.022 1.69994 3.57656 0
M  V30 3056 H 300.196 4.12264 2.05851 0
M  V30 3057 H 298.511 3.65205 2.00036 0
M  V30 3058 H 301.108 2.70167 4.61426 0
M  V30 3059 H 301.451 1.09713 4.01583 0
M  V30 3060 H 301.984 2.51583 3.08141 0
M  V30 3061 H 298.723 5.46461 3.62023 0
M  V30 3062 H 298.243 3.98508 4.48276 0
M  V30 3063 H 299.922 4.57176 4.5782 0
M  V30 3064 N 300.054 -1.07777 1.14986 0
M  V30 3065 C 301.284 -1.83752 0.944402 0
M  V30 3066 C 301.692 -1.8218 -0.51058 0
M  V30 3067 O 301.035 -1.22852 -1.36576 0
M  V30 3068 C 301.097 -3.32128 1.37592 0
M  V30 3069 C 300.761 -3.57425 2.84775 0
M  V30 3070 C 301.758 -3.5173 3.8286 0
M  V30 3071 C 299.443 -3.8523 3.2234 0
M  V30 3072 C 301.437 -3.73482 5.16517 0
M  V30 3073 C 299.124 -4.06634 4.56171 0
M  V30 3074 C 300.122 -4.00754 5.53069 0
M  V30 3075 O 299.81 -4.2159 6.84483 0
M  V30 3076 H 299.542 -0.58673 0.335744 0
M  V30 3077 H 302.096 -1.36982 1.53052 0
M  V30 3078 H 300.326 -3.79686 0.733165 0
M  V30 3079 H 302.015 -3.89555 1.14024 0
M  V30 3080 H 302.781 -3.30256 3.55184 0
M  V30 3081 H 298.66 -3.88923 2.47508 0
M  V30 3082 H 302.204 -3.68808 5.92137 0
M  V30 3083 H 298.101 -4.27593 4.83564 0
M  V30 3084 H 298.869 -4.38961 6.90837 0
M  V30 3085 N 301.532 -0.945985 -1.26051 0
M  V30 3086 C 302.442 -0.465633 -2.29933 0
M  V30 3087 C 303.458 0.462761 -1.67733 0
M  V30 3088 O 304.634 0.341118 -1.9849 0
M  V30 3089 C 301.699 0.256994 -3.45746 0
M  V30 3090 C 300.76 -0.708549 -4.23412 0
M  V30 3091 C 299.993 -0.0203135 -5.33696 0
M  V30 3092 O 300.216 1.19571 -5.57726 0
M  V30 3093 O 299.15 -0.701459 -5.97799 0
M  V30 3094 H 302.976 -1.32866 -2.73094 0
M  V30 3095 H 300.561 -0.712071 -1.31339 0
M  V30 3096 H 302.443 0.663852 -4.16138 0
M  V30 3097 H 301.118 1.09533 -3.04605 0
M  V30 3098 H 300.025 -1.16545 -3.55483 0
M  V30 3099 H 301.358 -1.51465 -4.68315 0
M  V30 3100 N 303.011 1.40521 -0.713556 0
M  V30 3101 C 304.239 2.05237 -0.261775 0
M  V30 3102 C 304.654 1.53755 1.09567 0
M  V30 3103 O 304.011 0.693268 1.6882 0
M  V30 3104 C 304.062 3.60763 -0.230706 0
M  V30 3105 O 303.783 4.10345 -1.53455 0
M  V30 3106 C 305.284 4.42651 0.239874 0
M  V30 3107 H 302.504 0.660533 -0.118057 0
M  V30 3108 H 305.048 1.79967 -0.971192 0
M  V30 3109 H 303.203 3.8501 0.429661 0
M  V30 3110 H 303.617 5.04526 -1.43366 0
M  V30 3111 H 305.091 5.51599 0.210468 0
M  V30 3112 H 305.568 4.20082 1.28171 0
M  V30 3113 H 306.174 4.23507 -0.390142 0
M  V30 3114 N 304.489 0.459591 1.5075 0
M  V30 3115 C 305.436 -0.340524 2.28274 0
M  V30 3116 C 306.406 -0.997371 1.32822 0
M  V30 3117 O 307.591 -1.01202 1.61749 0
M  V30 3118 C 304.731 -1.42317 3.14388 0
M  V30 3119 C 303.844 -0.782251 4.24859 0
M  V30 3120 C 302.979 -1.84182 4.98247 0
M  V30 3121 C 302.018 -1.18053 6.00608 0
M  V30 3122 N 301.155 -2.18244 6.67319 0
M  V30 3123 H 305.995 0.326899 2.96202 0
M  V30 3124 H 303.532 0.173057 1.46078 0
M  V30 3125 H 305.49 -2.06241 3.62658 0
M  V30 3126 H 304.12 -2.05992 2.4853 0
M  V30 3127 H 303.172 -0.0307404 3.80388 0
M  V30 3128 H 304.484 -0.259663 4.98124 0
M  V30 3129 H 303.638 -2.55714 5.50177 0
M  V30 3130 H 302.377 -2.39819 4.24662 0
M  V30 3131 H 301.382 -0.450776 5.47949 0
M  V30 3132 H 302.607 -0.631202 6.7616 0
M  V30 3133 H 300.553 -2.72919 5.96533 0
M  V30 3134 H 300.47 -1.70938 7.36421 0
M  V30 3135 H 301.738 -2.89191 7.23871 0
M  V30 3136 N 305.967 -1.56429 0.191757 0
M  V30 3137 C 307.215 -1.97095 -0.447006 0
M  V30 3138 C 307.536 -1.07967 -1.62383 0
M  V30 3139 O 306.806 -0.150248 -1.95323 0
M  V30 3140 H 305.386 -0.727832 -0.168135 0
M  V30 3141 H 308.048 -1.92911 0.27771 0
M  V30 3142 H 307.144 -3.01848 -0.793371 0
M  V30 3143 N 307.445 0.0818655 -1.57387 0
M  V30 3144 C 308.355 1.11642 -2.06333 0
M  V30 3145 C 309.371 1.43033 -0.99083 0
M  V30 3146 O 310.547 1.53411 -1.30488 0
M  V30 3147 C 307.612 2.41342 -2.48907 0
M  V30 3148 C 306.673 2.17014 -3.7041 0
M  V30 3149 C 305.906 3.4053 -4.10944 0
M  V30 3150 O 306.129 4.4927 -3.51444 0
M  V30 3151 O 305.063 3.29336 -5.03807 0
M  V30 3152 H 308.889 0.730657 -2.9478 0
M  V30 3153 H 306.474 0.295301 -1.46452 0
M  V30 3154 H 308.356 3.17691 -2.76858 0
M  V30 3155 H 307.031 2.79319 -1.63593 0
M  V30 3156 H 305.938 1.38403 -3.47556 0
M  V30 3157 H 307.271 1.83923 -4.56545 0
M  V30 3158 N 308.923 1.53595 0.353017 0
M  V30 3159 C 309.87 1.80919 1.43308 0
M  V30 3160 C 310.84 0.654288 1.5267 0
M  V30 3161 O 312.025 0.897759 1.6836 0
M  V30 3162 C 309.165 2.01605 2.80089 0
M  V30 3163 C 308.278 3.29321 2.79593 0
M  V30 3164 C 307.413 3.40125 4.0803 0
M  V30 3165 C 306.452 4.61826 4.01725 0
M  V30 3166 N 305.589 4.69716 5.21834 0
M  V30 3167 H 310.429 2.73074 1.19308 0
M  V30 3168 H 307.966 1.35263 0.578131 0
M  V30 3169 H 309.924 2.11586 3.59565 0
M  V30 3170 H 308.554 1.12772 3.0246 0
M  V30 3171 H 307.606 3.28229 1.92276 0
M  V30 3172 H 308.918 4.18884 2.70809 0
M  V30 3173 H 308.072 3.49488 4.95927 0
M  V30 3174 H 306.811 2.48601 4.19582 0
M  V30 3175 H 305.816 4.52552 3.12213 0
M  V30 3176 H 307.041 5.54705 3.91764 0
M  V30 3177 H 304.987 3.81097 5.33948 0
M  V30 3178 H 304.904 5.53202 5.1527 0
M  V30 3179 H 306.172 4.83376 6.11529 0
M  V30 3180 N 310.401 -0.613514 1.45168 0
M  V30 3181 C 311.349 -1.74572 1.53712 0
M  V30 3182 C 312.343 -1.64426 0.407505 0
M  V30 3183 O 313.549 -1.70291 0.583176 0
M  V30 3184 H 309.924 -0.576641 0.48269 0
M  V30 3185 H 311.895 -1.64492 2.48968 0
M  V30 3186 C 310.644 -3.12943 1.51532 0
M  V30 3187 H 309.967 -3.21407 2.37776 0
M  V30 3188 H 311.407 -3.9201 1.61569 0
M  V30 3189 C 309.866 -3.36053 0.238798 0
M  V30 3190 O 310.396 -3.95837 -0.6838 0
M  V30 3191 N 308.602 -2.9028 0.136359 0
M  V30 3192 H 308.149 -2.41811 0.887999 0
M  V30 3193 H 308.107 -3.06116 -0.716944 0
M  V30 3194 N 311.879 -1.3236 -0.855495 0
M  V30 3195 C 313.126 -1.22872 -1.60962 0
M  V30 3196 C 313.454 0.209658 -1.93367 0
M  V30 3197 O 312.709 1.16243 -1.57436 0
M  V30 3198 C 313.008 -2.03275 -2.93963 0
M  V30 3199 C 312.674 -3.5264 -2.80991 0
M  V30 3200 C 311.336 -3.93364 -2.7716 0
M  V30 3201 C 313.688 -4.47626 -2.66983 0
M  V30 3202 C 311.016 -5.27319 -2.572 0
M  V30 3203 C 313.368 -5.81723 -2.48558 0
M  V30 3204 C 312.032 -6.2165 -2.4312 0
M  V30 3205 H 311.302 -0.44962 -0.589001 0
M  V30 3206 H 313.949 -1.63777 -0.992442 0
M  V30 3207 H 312.254 -1.55095 -3.59795 0
M  V30 3208 H 313.951 -1.93303 -3.51333 0
M  V30 3209 H 310.541 -3.20295 -2.84797 0
M  V30 3210 H 314.725 -4.17084 -2.68988 0
M  V30 3211 H 309.981 -5.57311 -2.51424 0
M  V30 3212 H 314.155 -6.5494 -2.36699 0
M  V30 3213 H 311.782 -7.25388 -2.27412 0
M  V30 3214 N 313.357 1.07166 -1.15556 0
M  V30 3215 C 314.773 1.31899 -0.898603 0
M  V30 3216 C 314.973 1.96333 0.453383 0
M  V30 3217 O 314.029 2.22438 1.19489 0
M  V30 3218 C 315.342 2.20826 -2.04099 0
M  V30 3219 C 316.89 2.34269 -2.07574 0
M  V30 3220 C 317.365 3.26546 -3.21141 0
M  V30 3221 N 318.856 3.34127 -3.20801 0
M  V30 3222 C 319.591 4.05595 -4.05315 0
M  V30 3223 N 319.087 4.79661 -4.99897 0
M  V30 3224 N 320.88 4.01555 -3.93332 0
M  V30 3225 H 313.031 0.637302 -2.02613 0
M  V30 3226 H 315.294 0.343468 -0.883591 0
M  V30 3227 H 315 1.80744 -3.01703 0
M  V30 3228 H 314.874 3.21364 -1.97496 0
M  V30 3229 H 317.261 2.73603 -1.10568 0
M  V30 3230 H 317.342 1.33429 -2.18244 0
M  V30 3231 H 316.986 2.87931 -4.184 0
M  V30 3232 H 316.916 4.27345 -3.07708 0
M  V30 3233 H 319.407 2.81336 -2.52306 0
M  V30 3234 H 319.72 5.31694 -5.60822 0
M  V30 3235 H 318.065 4.78671 -5.03884 0
M  V30 3236 H 321.256 3.42806 -3.18751 0
M  V30 3237 H 321.429 4.56987 -4.5942 0
M  V30 3238 N 314.835 0.952656 1.25548 0
M  V30 3239 C 316.063 0.623496 1.97282 0
M  V30 3240 C 316.478 -0.803987 1.70826 0
M  V30 3241 O 315.835 -1.53755 0.983147 0
M  V30 3242 C 315.886 0.870209 3.5087 0
M  V30 3243 O 315.607 2.24156 3.76412 0
M  V30 3244 C 317.108 0.553164 4.39835 0
M  V30 3245 H 314.328 0.233931 0.628902 0
M  V30 3246 H 316.872 1.27649 1.59768 0
M  V30 3247 H 315.027 0.263652 3.86502 0
M  V30 3248 H 315.441 2.31021 4.70882 0
M  V30 3249 H 316.915 0.776342 5.46513 0
M  V30 3250 H 317.392 -0.512215 4.36203 0
M  V30 3251 H 317.998 1.13896 4.09766 0
M  V30 3252 N 316.313 -1.40141 0.720998 0
M  V30 3253 C 317.223 -2.34486 0.0731031 0
M  V30 3254 C 318.239 -1.57587 -0.737723 0
M  V30 3255 O 319.415 -1.89949 -0.669429 0
M  V30 3256 C 316.48 -3.36528 -0.833656 0
M  V30 3257 C 315.541 -4.29298 -0.0121673 0
M  V30 3258 C 314.774 -5.26466 -0.875742 0
M  V30 3259 O 314.997 -5.29745 -2.11485 0
M  V30 3260 O 313.931 -6.01092 -0.31185 0
M  V30 3261 H 317.757 -2.9152 0.851444 0
M  V30 3262 H 315.342 -1.41427 0.481527 0
M  V30 3263 H 317.224 -3.99093 -1.35289 0
M  V30 3264 H 315.899 -2.81899 -1.59105 0
M  V30 3265 H 314.806 -3.70001 0.552262 0
M  V30 3266 H 316.139 -4.87094 0.707129 0
M  V30 3267 N 317.792 -0.46758 -1.50504 0
M  V30 3268 C 318.742 0.34698 -2.25344 0
M  V30 3269 C 319.726 0.964469 -1.2879 0
M  V30 3270 O 320.918 0.8776 -1.53711 0
M  V30 3271 C 318.047 1.43042 -3.1208 0
M  V30 3272 C 317.133 0.82084 -4.16081 0
M  V30 3273 N 317.524 -0.0567602 -5.05768 0
M  V30 3274 C 315.822 1.08517 -4.32597 0
M  V30 3275 C 316.523 -0.402343 -5.80307 0
M  V30 3276 N 315.499 0.221607 -5.43148 0
M  V30 3277 H 319.301 -0.329129 -2.92051 0
M  V30 3278 H 316.815 -0.281508 -1.59942 0
M  V30 3279 H 318.812 2.02712 -3.64299 0
M  V30 3280 H 317.472 2.10856 -2.46921 0
M  V30 3281 H 318.483 -0.425349 -5.1615 0
M  V30 3282 H 315.16 1.75855 -3.78657 0
M  V30 3283 H 316.55 -1.11834 -6.62528 0
M  V30 3284 N 319.27 1.56325 -0.20005 0
M  V30 3285 C 320.5 2.01811 0.442232 0
M  V30 3286 C 320.908 1.07932 1.55394 0
M  V30 3287 O 320.251 0.0772685 1.83537 0
M  V30 3288 C 320.313 3.43685 1.05457 0
M  V30 3289 C 319.977 4.56928 0.0809833 0
M  V30 3290 C 320.974 5.15009 -0.711471 0
M  V30 3291 C 318.659 5.0229 -0.0315364 0
M  V30 3292 C 320.653 6.16904 -1.60336 0
M  V30 3293 C 318.34 6.04028 -0.926981 0
M  V30 3294 C 319.338 6.6121 -1.71146 0
M  V30 3295 O 319.026 7.60971 -2.59189 0
M  V30 3296 H 318.758 0.666173 0.114848 0
M  V30 3297 H 321.312 2.03085 -0.307511 0
M  V30 3298 H 319.542 3.39413 1.85299 0
M  V30 3299 H 321.231 3.72948 1.60201 0
M  V30 3300 H 321.997 4.80827 -0.634873 0
M  V30 3301 H 317.876 4.57476 0.568902 0
M  V30 3302 H 321.42 6.61464 -2.21611 0
M  V30 3303 H 317.317 6.37634 -1.00468 0
M  V30 3304 H 318.085 7.7841 -2.53023 0
M  V30 3305 N 320.748 -0.0735177 1.57428 0
M  V30 3306 C 321.658 -1.10547 2.06922 0
M  V30 3307 C 322.674 -1.42506 0.998402 0
M  V30 3308 O 323.85 -1.52717 1.31299 0
M  V30 3309 C 320.915 -2.40019 2.50184 0
M  V30 3310 C 319.976 -2.15046 3.71556 0
M  V30 3311 C 319.209 -3.38345 4.12745 0
M  V30 3312 O 319.432 -4.47399 3.53822 0
M  V30 3313 O 318.366 -3.2666 5.05546 0
M  V30 3314 H 322.192 -0.715013 2.95163 0
M  V30 3315 H 319.777 -0.287531 1.46607 0
M  V30 3316 H 321.659 -3.16218 2.78539 0
M  V30 3317 H 320.334 -2.78447 1.65072 0
M  V30 3318 H 319.241 -1.36558 3.48285 0
M  V30 3319 H 320.574 -1.81499 4.57514 0
M  V30 3320 N 322.226 -1.5378 -0.344866 0
M  V30 3321 C 323.136 -1.84667 -1.4469 0
M  V30 3322 C 324.152 -0.736704 -1.57635 0
M  V30 3323 O 325.328 -1.02888 -1.73136 0
M  V30 3324 C 322.393 -2.04869 -2.79696 0
M  V30 3325 C 321.454 -3.28731 -2.76106 0
M  V30 3326 C 320.687 -3.4796 -4.04673 0
M  V30 3327 O 320.91 -2.71052 -5.01883 0
M  V30 3328 O 319.844 -4.41383 -4.09224 0
M  V30 3329 H 323.67 -2.78334 -1.21506 0
M  V30 3330 H 321.255 -1.39418 -0.536921 0
M  V30 3331 H 323.137 -2.19609 -3.59652 0
M  V30 3332 H 321.812 -1.14391 -3.02814 0
M  V30 3333 H 320.719 -3.19396 -1.94774 0
M  V30 3334 H 322.052 -4.19198 -2.57941 0
M  V30 3335 N 323.704 0.605807 -1.45491 0
M  V30 3336 C 324.636 1.73031 -1.5031 0
M  V30 3337 C 325.649 1.57968 -0.393687 0
M  V30 3338 O 326.838 1.65817 -0.660839 0
M  V30 3339 C 323.938 3.11049 -1.34543 0
M  V30 3340 C 323.111 3.52334 -2.59189 0
M  V30 3341 C 322.17 4.69323 -2.37954 0
M  V30 3342 O 321.196 4.7635 -3.11575 0
M  V30 3343 N 322.398 5.62705 -1.4263 0
M  V30 3344 H 325.163 1.6936 -2.4726 0
M  V30 3345 H 322.724 0.79114 -1.41254 0
M  V30 3346 H 324.716 3.87071 -1.18144 0
M  V30 3347 H 323.286 3.09217 -0.458623 0
M  V30 3348 H 322.506 2.66256 -2.90691 0
M  V30 3349 H 323.794 3.76677 -3.42041 0
M  V30 3350 H 323.192 5.59744 -0.818758 0
M  V30 3351 H 321.749 6.38252 -1.32202 0
M  V30 3352 N 325.182 1.32811 0.848464 0
M  V30 3353 C 326.431 1.23075 1.59798 0
M  V30 3354 C 326.744 -0.204419 1.94529 0
M  V30 3355 O 327.95 -0.423701 2.68173 0
M  V30 3356 C 326.406 2.15594 2.88179 0
M  V30 3357 C 326.014 3.64228 2.60849 0
M  V30 3358 C 327.758 2.14709 3.66197 0
M  V30 3359 C 325.665 4.48689 3.85269 0
M  V30 3360 H 324.595 0.457091 0.599653 0
M  V30 3361 H 327.246 1.57813 0.936342 0
M  V30 3362 H 325.628 1.73778 3.55833 0
M  V30 3363 H 326.802 4.14424 2.01467 0
M  V30 3364 H 325.117 3.67306 1.96151 0
M  V30 3365 H 327.714 2.75046 4.58534 0
M  V30 3366 H 328.057 1.13966 4.00397 0
M  V30 3367 H 328.59 2.54837 3.05455 0
M  V30 3368 H 325.329 5.5027 3.56207 0
M  V30 3369 H 324.849 4.03241 4.44024 0
M  V30 3370 H 326.528 4.62006 4.52946 0
M  V30 3371 N 326.66 -1.06551 1.16123 0
M  V30 3372 C 327.57 -2.17484 0.879662 0
M  V30 3373 C 328.586 -1.73377 -0.147104 0
M  V30 3374 O 329.762 -2.01379 0.0289128 0
M  V30 3375 C 326.827 -3.44591 0.381829 0
M  V30 3376 C 325.888 -4.0322 1.4735 0
M  V30 3377 C 325.121 -5.24261 0.999324 0
M  V30 3378 O 325.344 -5.70198 -0.151957 0
M  V30 3379 O 324.278 -5.74775 1.78653 0
M  V30 3380 H 328.104 -2.44075 1.80724 0
M  V30 3381 H 325.689 -1.16042 0.940992 0
M  V30 3382 H 327.571 -4.21254 0.111053 0
M  V30 3383 H 326.246 -3.19532 -0.51777 0
M  V30 3384 H 325.153 -3.2806 1.79798 0
M  V30 3385 H 326.486 -4.32568 2.34831 0
M  V30 3386 N 328.138 -0.959301 -1.25041 0
M  V30 3387 C 329.101 -0.487677 -2.23952 0
M  V30 3388 C 330.101 0.41119 -1.55454 0
M  V30 3389 O 331.291 0.207825 -1.72956 0
M  V30 3390 C 328.423 0.294807 -3.39623 0
M  V30 3391 H 329.616 -1.36198 -2.67189 0
M  V30 3392 H 327.169 -0.743042 -1.37508 0
M  V30 3393 H 327.904 1.18658 -3.01813 0
M  V30 3394 H 327.689 -0.35012 -3.90534 0
M  V30 3395 H 329.179 0.614089 -4.1306 0
M  V30 3396 N 329.616 1.39756 -0.72842 0
M  V30 3397 C 330.863 2.00645 -0.273487 0
M  V30 3398 C 331.191 1.57786 1.13727 0
M  V30 3399 O 330.446 0.794886 1.7883 0
M  V30 3400 C 330.745 3.56002 -0.315776 0
M  V30 3401 C 330.411 4.18489 -1.67863 0
M  V30 3402 C 329.073 4.3527 -2.05166 0
M  V30 3403 C 331.425 4.53219 -2.57375 0
M  V30 3404 C 328.753 4.84069 -3.31503 0
M  V30 3405 C 331.105 5.03423 -3.83077 0
M  V30 3406 C 329.769 5.18413 -4.20481 0
M  V30 3407 H 329.039 0.734211 -0.100076 0
M  V30 3408 H 331.686 1.6718 -0.933972 0
M  V30 3409 H 329.991 3.89452 0.428285 0
M  V30 3410 H 331.688 4.00963 0.0542575 0
M  V30 3411 H 328.278 4.05824 -1.37858 0
M  V30 3412 H 332.462 4.39878 -2.29827 0
M  V30 3413 H 327.718 4.93859 -3.60435 0
M  V30 3414 H 331.892 5.2927 -4.52599 0
M  V30 3415 H 329.519 5.55987 -5.18443 0
M  V30 3416 N 331.094 0.475555 1.50254 0
M  V30 3417 C 332.041 -0.316293 2.28622 0
M  V30 3418 C 333.011 -0.983227 1.33873 0
M  V30 3419 O 334.196 -0.994805 1.62814 0
M  V30 3420 C 331.336 -1.38975 3.1588 0
M  V30 3421 C 330.449 -0.737146 4.25664 0
M  V30 3422 C 329.584 -1.78887 5.00173 0
M  V30 3423 C 328.623 -1.11676 6.01826 0
M  V30 3424 N 327.76 -2.11154 6.69596 0
M  V30 3425 H 332.6 0.358297 2.95838 0
M  V30 3426 H 330.137 0.188541 1.45887 0
M  V30 3427 H 332.095 -2.02383 3.64825 0
M  V30 3428 H 330.725 -2.03344 2.50701 0
M  V30 3429 H 329.777 0.0096065 3.80399 0
M  V30 3430 H 331.089 -0.206816 4.98371 0
M  V30 3431 H 330.243 -2.49865 5.52859 0
M  V30 3432 H 328.982 -2.35302 4.27182 0
M  V30 3433 H 327.987 -0.392633 5.48396 0
M  V30 3434 H 329.212 -0.55945 6.76792 0
M  V30 3435 H 327.158 -2.66577 5.99394 0
M  V30 3436 H 327.075 -1.63118 7.38193 0
M  V30 3437 H 328.343 -2.81497 7.26897 0
M  V30 3438 N 332.573 -1.56217 0.208337 0
M  V30 3439 C 333.798 -2.02782 -0.435222 0
M  V30 3440 C 334.223 -1.08738 -1.53485 0
M  V30 3441 O 333.581 -0.0731855 -1.81152 0
M  V30 3442 C 333.629 -3.47687 -0.956335 0
M  V30 3443 O 332.733 -3.56773 -2.06849 0
M  V30 3444 H 332.074 -0.656403 -0.100158 0
M  V30 3445 H 334.604 -2.02033 0.3231 0
M  V30 3446 H 334.614 -3.87745 -1.26955 0
M  V30 3447 H 333.289 -4.15624 -0.15143 0
M  V30 3448 H 331.866 -3.28597 -1.76292 0
M  V30 3449 N 334.051 0.0651679 -1.57465 0
M  V30 3450 C 335.3 0.761916 -1.86756 0
M  V30 3451 C 335.613 1.78406 -0.801925 0
M  V30 3452 O 336.819 2.53084 -0.982885 0
M  V30 3453 C 335.275 1.40603 -3.31299 0
M  V30 3454 C 334.883 0.422115 -4.46007 0
M  V30 3455 C 336.627 2.08476 -3.69781 0
M  V30 3456 C 334.534 1.07252 -5.81593 0
M  V30 3457 H 333.464 0.288308 -0.696702 0
M  V30 3458 H 336.115 0.015344 -1.83494 0
M  V30 3459 H 334.497 2.20109 -3.29193 0
M  V30 3460 H 335.671 -0.343613 -4.59517 0
M  V30 3461 H 333.986 -0.152527 -4.16121 0
M  V30 3462 H 336.583 2.57925 -4.68379 0
M  V30 3463 H 336.926 2.88712 -2.99919 0
M  V30 3464 H 337.459 1.35792 -3.73905 0
M  V30 3465 H 334.198 0.310342 -6.54765 0
M  V30 3466 H 333.718 1.80895 -5.71872 0
M  V30 3467 H 335.397 1.59043 -6.27148 0
M  V30 3468 N 335.529 1.53961 0.336706 0
M  V30 3469 C 336.778 1.70751 1.07363 0
M  V30 3470 C 337.091 0.481061 1.89592 0
M  V30 3471 O 338.297 0.530046 2.66276 0
M  V30 3472 C 336.753 3.01965 1.95818 0
M  V30 3473 C 336.361 4.31971 1.18764 0
M  V30 3474 C 338.105 3.28121 2.69327 0
M  V30 3475 C 336.012 5.54255 2.06289 0
M  V30 3476 H 334.942 0.636292 0.404535 0
M  V30 3477 H 337.593 1.80459 0.332681 0
M  V30 3478 H 335.975 2.86132 2.7376 0
M  V30 3479 H 337.149 4.5853 0.456849 0
M  V30 3480 H 335.464 4.12481 0.569946 0
M  V30 3481 H 338.061 4.16673 3.35094 0
M  V30 3482 H 338.404 2.45426 3.36261 0
M  V30 3483 H 338.937 3.44762 1.98454 0
M  V30 3484 H 335.676 6.39513 1.43885 0
M  V30 3485 H 335.196 5.31935 2.77138 0
M  V30 3486 H 336.875 5.90159 2.65182 0
M  V30 3487 N 337.007 -0.598083 1.45811 0
M  V30 3488 C 337.939 -1.72231 1.51225 0
M  V30 3489 C 338.952 -1.57757 0.402059 0
M  V30 3490 O 340.141 -1.65464 0.669624 0
M  V30 3491 C 337.241 -3.10331 1.3619 0
M  V30 3492 C 336.414 -3.50955 2.61054 0
M  V30 3493 C 335.473 -4.68055 2.40439 0
M  V30 3494 O 334.499 -4.74691 3.14097 0
M  V30 3495 N 335.701 -5.61941 1.45612 0
M  V30 3496 H 338.466 -1.68046 2.48154 0
M  V30 3497 H 336.027 -0.783637 1.41671 0
M  V30 3498 H 338.019 -3.86439 1.20195 0
M  V30 3499 H 336.589 -3.0897 0.475015 0
M  V30 3500 H 335.809 -2.64711 2.92099 0
M  V30 3501 H 337.097 -3.74858 3.44034 0
M  V30 3502 H 336.495 -5.59301 0.848431 0
M  V30 3503 H 335.052 -6.37542 1.35585 0
M  V30 3504 N 338.485 -1.33259 -0.841409 0
M  V30 3505 C 339.395 -1.25332 -1.98316 0
M  V30 3506 C 340.411 -0.164364 -1.73222 0
M  V30 3507 O 341.587 -0.387486 -1.97637 0
M  V30 3508 C 338.652 -0.990078 -3.32262 0
M  V30 3509 C 337.713 -2.16879 -3.70489 0
M  V30 3510 C 336.946 -1.91801 -4.98044 0
M  V30 3511 O 337.169 -0.867075 -5.63771 0
M  V30 3512 O 336.103 -2.78267 -5.33714 0
M  V30 3513 H 339.929 -2.21344 -2.07944 0
M  V30 3514 H 337.514 -1.1328 -0.974058 0
M  V30 3515 H 339.396 -0.860321 -4.12524 0
M  V30 3516 H 338.071 -0.0602155 -3.23644 0
M  V30 3517 H 336.978 -2.35407 -2.90748 0
M  V30 3518 H 338.311 -3.0819 -3.8377 0
M  V30 3519 N 339.963 1.05934 -1.16686 0
M  V30 3520 C 340.91 2.13499 -0.876748 0
M  V30 3521 C 341.88 1.65162 0.176299 0
M  V30 3522 O 343.065 1.90757 0.0407143 0
M  V30 3523 C 340.205 3.42912 -0.387967 0
M  V30 3524 C 339.318 4.04964 -1.50426 0
M  V30 3525 C 338.453 5.22266 -0.970125 0
M  V30 3526 C 337.492 5.76309 -2.06238 0
M  V30 3527 N 336.629 6.84922 -1.54356 0
M  V30 3528 H 341.469 2.37654 -1.7979 0
M  V30 3529 H 339.006 1.16598 -0.896843 0
M  V30 3530 H 340.964 4.17111 -0.086186 0
M  V30 3531 H 339.594 3.18963 0.496235 0
M  V30 3532 H 338.646 3.28277 -1.92193 0
M  V30 3533 H 339.958 4.41122 -2.32836 0
M  V30 3534 H 339.112 6.03506 -0.621743 0
M  V30 3535 H 337.851 4.87564 -0.115377 0
M  V30 3536 H 336.856 4.93704 -2.41942 0
M  V30 3537 H 338.081 6.13062 -2.92115 0
M  V30 3538 H 336.027 6.52131 -0.711406 0
M  V30 3539 H 335.944 7.20043 -2.30379 0
M  V30 3540 H 337.212 7.69832 -1.22387 0
M  V30 3541 N 341.441 0.965919 1.2453 0
M  V30 3542 C 342.669 0.644385 1.96609 0
M  V30 3543 C 343.084 -0.785823 1.71669 0
M  V30 3544 O 342.441 -1.52703 0.999399 0
M  V30 3545 C 342.492 0.907375 3.49927 0
M  V30 3546 O 342.213 2.28136 3.74013 0
M  V30 3547 C 343.714 0.599784 4.39224 0
M  V30 3548 H 340.934 0.240588 0.626385 0
M  V30 3549 H 343.478 1.29337 1.58405 0
M  V30 3550 H 341.633 0.304631 3.862 0
M  V30 3551 H 342.047 2.36002 4.68405 0
M  V30 3552 H 343.521 0.834263 5.45659 0
M  V30 3553 H 343.998 -0.465921 4.36722 0
M  V30 3554 H 344.604 1.18235 4.08535 0
M  V30 3555 N 342.919 -1.39368 0.735821 0
M  V30 3556 C 344.144 -2.05319 0.293052 0
M  V30 3557 C 344.569 -1.55115 -1.064 0
M  V30 3558 O 343.927 -0.695261 -1.67439 0
M  V30 3559 C 343.975 -3.59305 0.305323 0
M  V30 3560 O 343.079 -4.06299 -0.706761 0
M  V30 3561 H 342.42 -0.650529 0.13307 0
M  V30 3562 H 344.95 -1.78386 1.00197 0
M  V30 3563 H 344.96 -4.07724 0.149997 0
M  V30 3564 H 343.635 -3.95207 1.29553 0
M  V30 3565 H 342.212 -3.69292 -0.517504 0
M  V30 3566 N 344.397 -0.483516 -1.5 0
M  V30 3567 C 345.345 0.318061 -2.30415 0
M  V30 3568 C 346.339 0.978988 -1.38247 0
M  V30 3569 O 347.545 0.908673 -1.55381 0
M  V30 3570 H 343.92 0.121419 -0.742133 0
M  V30 3571 H 345.891 -0.380403 -2.95965 0
M  V30 3572 C 344.64 1.38013 -3.19136 0
M  V30 3573 H 343.963 0.880952 -3.89973 0
M  V30 3574 H 345.403 1.91332 -3.78375 0
M  V30 3575 C 343.862 2.38884 -2.37563 0
M  V30 3576 O 344.392 3.44412 -2.06744 0
M  V30 3577 N 342.598 2.10912 -1.99911 0
M  V30 3578 H 342.145 1.25118 -2.25174 0
M  V30 3579 H 342.103 2.78635 -1.45636 0
M  V30 3580 N 345.875 1.56104 -0.216619 0
M  V30 3581 C 347.122 1.98172 0.416416 0
M  V30 3582 C 347.45 1.10413 1.60122 0
M  V30 3583 O 346.705 0.147967 1.9514 0
M  V30 3584 C 347.004 3.45923 0.898464 0
M  V30 3585 C 346.67 4.50559 -0.175288 0
M  V30 3586 C 345.332 4.78897 -0.470271 0
M  V30 3587 C 347.684 5.1334 -0.901728 0
M  V30 3588 C 345.012 5.67299 -1.4963 0
M  V30 3589 C 347.364 6.02853 -1.91705 0
M  V30 3590 C 346.028 6.29537 -2.21901 0
M  V30 3591 H 345.298 0.725164 0.152377 0
M  V30 3592 H 347.945 1.88839 -0.318103 0
M  V30 3593 H 346.25 3.52434 1.71165 0
M  V30 3594 H 347.947 3.75841 1.39803 0
M  V30 3595 H 344.537 4.28551 0.0647806 0
M  V30 3596 H 348.721 4.91521 -0.687072 0
M  V30 3597 H 343.977 5.86239 -1.73592 0
M  V30 3598 H 348.151 6.50552 -2.48505 0
M  V30 3599 H 345.778 6.97835 -3.01548 0
M  V30 3600 N 347.353 -0.0568162 1.57498 0
M  V30 3601 C 348.301 -1.08452 2.05769 0
M  V30 3602 C 349.295 -1.39164 0.965903 0
M  V30 3603 O 350.501 -1.38395 1.15095 0
M  V30 3604 H 346.876 -0.367148 0.656282 0
M  V30 3605 H 348.847 -0.651368 2.91204 0
M  V30 3606 C 347.596 -2.38543 2.52968 0
M  V30 3607 H 346.919 -2.15765 3.36579 0
M  V30 3608 H 348.359 -3.08863 2.90481 0
M  V30 3609 C 346.818 -3.05562 1.41893 0
M  V30 3610 O 347.348 -3.94262 0.769442 0
M  V30 3611 N 345.554 -2.6643 1.16032 0
M  V30 3612 H 345.101 -1.94387 1.6903 0
M  V30 3613 H 345.059 -3.11593 0.419219 0
M  V30 3614 N 348.832 -1.54138 -0.328536 0
M  V30 3615 C 349.795 -1.82462 -1.38709 0
M  V30 3616 C 350.795 -0.696229 -1.44946 0
M  V30 3617 O 351.985 -0.964535 -1.4506 0
M  V30 3618 C 349.117 -1.98018 -2.77492 0
M  V30 3619 H 350.31 -2.77037 -1.14851 0
M  V30 3620 H 347.863 -1.45779 -0.563751 0
M  V30 3621 H 348.598 -1.05637 -3.06613 0
M  V30 3622 H 348.383 -2.80124 -2.74359 0
M  V30 3623 H 349.873 -2.21396 -3.54081 0
M  V30 3624 N 350.31 0.590341 -1.46126 0
M  V30 3625 C 351.273 1.68194 -1.55703 0
M  V30 3626 C 352.273 1.54808 -0.434868 0
M  V30 3627 O 353.463 1.59564 -0.698928 0
M  V30 3628 C 350.595 3.07575 -1.47005 0
M  V30 3629 H 351.788 1.61064 -2.52979 0
M  V30 3630 H 349.341 0.807541 -1.33823 0
M  V30 3631 H 350.076 3.20268 -0.509785 0
M  V30 3632 H 349.861 3.187 -2.28414 0
M  V30 3633 H 351.351 3.87055 -1.56776 0
M  V30 3634 N 351.788 1.33704 0.83433 0
M  V30 3635 C 353.037 1.24763 1.58484 0
M  V30 3636 C 353.35 -0.183775 1.94735 0
M  V30 3637 O 354.556 -0.395234 2.68608 0
M  V30 3638 C 353.012 2.18638 2.85876 0
M  V30 3639 C 352.62 3.66974 2.56971 0
M  V30 3640 C 354.364 2.18581 3.63899 0
M  V30 3641 C 352.271 4.5275 3.80488 0
M  V30 3642 H 351.201 0.463425 0.594772 0
M  V30 3643 H 353.852 1.58797 0.919551 0
M  V30 3644 H 352.234 1.77542 3.5397 0
M  V30 3645 H 353.408 4.16538 1.9706 0
M  V30 3646 H 351.723 3.69366 1.92244 0
M  V30 3647 H 354.32 2.79894 4.55591 0
M  V30 3648 H 354.663 1.18207 3.99165 0
M  V30 3649 H 355.196 2.58062 3.02735 0
M  V30 3650 H 351.935 5.54017 3.5035 0
M  V30 3651 H 351.455 4.07927 4.39722 0
M  V30 3652 H 353.134 4.66784 4.4802 0
M  V30 3653 N 353.266 -1.05314 1.17247 0
M  V30 3654 C 354.491 -1.82509 0.985148 0
M  V30 3655 C 354.916 -1.82343 -0.461788 0
M  V30 3656 O 354.274 -1.23151 -1.33055 0
M  V30 3657 C 354.322 -3.26566 1.52929 0
M  V30 3658 O 353.426 -4.05666 0.742225 0
M  V30 3659 H 352.767 -0.564347 0.349869 0
M  V30 3660 H 355.297 -1.32718 1.55715 0
M  V30 3661 H 355.307 -3.77369 1.55103 0
M  V30 3662 H 353.982 -3.26001 2.58256 0
M  V30 3663 H 352.559 -3.64397 0.791794 0
M  V30 3664 N 354.744 -0.972509 -1.24016 0
M  V30 3665 C 355.674 -0.525548 -2.27509 0
M  V30 3666 C 356.655 0.437262 -1.64384 0
M  V30 3667 O 357.84 0.332343 -1.91335 0
M  V30 3668 C 354.97 0.180448 -3.46831 0
M  V30 3669 C 353.924 -0.698859 -4.22256 0
M  V30 3670 C 353.25 0.138903 -5.3452 0
M  V30 3671 C 354.55 -1.98582 -4.83076 0
M  V30 3672 H 356.244 -1.39058 -2.65148 0
M  V30 3673 H 353.79 -0.67009 -1.27459 0
M  V30 3674 H 355.743 0.504387 -4.18371 0
M  V30 3675 H 354.467 1.07987 -3.08231 0
M  V30 3676 H 353.126 -1.00614 -3.52523 0
M  V30 3677 H 352.774 1.03862 -4.9216 0
M  V30 3678 H 352.474 -0.446259 -5.85903 0
M  V30 3679 H 353.998 0.457404 -6.08884 0
M  V30 3680 H 355.412 -1.72715 -5.46665 0
M  V30 3681 H 353.809 -2.5181 -5.44713 0
M  V30 3682 H 354.879 -2.67769 -4.04262 0
M  V30 3683 N 356.222 1.38976 -0.743202 0
M  V30 3684 C 357.169 2.30544 -0.10861 0
M  V30 3685 C 358.139 1.49642 0.720869 0
M  V30 3686 O 359.324 1.78304 0.679142 0
M  V30 3687 C 356.464 3.36018 0.786496 0
M  V30 3688 C 355.577 4.31963 -0.0564849 0
M  V30 3689 C 354.712 5.24506 0.840657 0
M  V30 3690 C 353.751 6.121 -0.00658363 0
M  V30 3691 N 352.888 6.96973 0.846943 0
M  V30 3692 H 357.728 2.8424 -0.895088 0
M  V30 3693 H 355.265 1.3995 -0.453048 0
M  V30 3694 H 357.223 3.95768 1.31999 0
M  V30 3695 H 355.853 2.83758 1.53887 0
M  V30 3696 H 354.905 3.73763 -0.707492 0
M  V30 3697 H 356.217 4.93703 -0.711229 0
M  V30 3698 H 355.371 5.89322 1.4417 0
M  V30 3699 H 354.11 4.63107 1.52916 0
M  V30 3700 H 353.115 5.46289 -0.620366 0
M  V30 3701 H 354.34 6.75565 -0.691992 0
M  V30 3702 H 352.286 6.38133 1.52059 0
M  V30 3703 H 352.203 7.5559 0.248864 0
M  V30 3704 H 353.471 7.6621 1.43328 0
M  V30 3705 N 357.7 0.491464 1.49741 0
M  V30 3706 C 358.947 -0.0564256 2.02421 0
M  V30 3707 C 359.275 -1.37872 1.37192 0
M  V30 3708 O 358.53 -1.89375 0.493508 0
M  V30 3709 C 358.829 -0.267329 3.56399 0
M  V30 3710 C 358.495 0.975775 4.40215 0
M  V30 3711 C 357.157 1.31655 4.62839 0
M  V30 3712 C 359.509 1.80251 4.89039 0
M  V30 3713 C 356.837 2.48375 5.31532 0
M  V30 3714 C 359.189 2.96116 5.59015 0
M  V30 3715 C 357.853 3.30585 5.79888 0
M  V30 3716 H 357.123 -0.0206476 0.740712 0
M  V30 3717 H 359.77 0.649686 1.80143 0
M  V30 3718 H 358.075 -1.05588 3.77304 0
M  V30 3719 H 359.772 -0.705549 3.94744 0
M  V30 3720 H 356.362 0.700315 4.2284 0
M  V30 3721 H 360.546 1.55239 4.71396 0
M  V30 3722 H 355.802 2.7533 5.45897 0
M  V30 3723 H 359.976 3.60509 5.95824 0
M  V30 3724 H 357.603 4.21132 6.32892 0
M  V30 3725 N 359.178 -1.55987 0.224894 0
M  V30 3726 C 360.406 -2.02784 -0.410665 0
M  V30 3727 C 360.821 -1.10464 -1.53112 0
M  V30 3728 O 360.178 -0.114871 -1.82138 0
M  V30 3729 C 360.229 -3.49087 -0.939165 0
M  V30 3730 O 359.95 -4.37887 0.136614 0
M  V30 3731 C 361.451 -4.11543 -1.64763 0
M  V30 3732 H 358.671 -0.663484 -0.100148 0
M  V30 3733 H 361.215 -2.01614 0.342326 0
M  V30 3734 H 359.37 -3.50861 -1.64242 0
M  V30 3735 H 359.784 -5.23849 -0.261155 0
M  V30 3736 H 361.258 -5.15673 -1.96939 0
M  V30 3737 H 361.735 -3.56736 -2.56195 0
M  V30 3738 H 362.341 -4.13629 -0.989503 0
M  V30 3739 N 360.656 0.0484629 -1.57525 0
M  V30 3740 C 362.067 0.597486 -1.76881 0
M  V30 3741 C 362.418 1.76664 -0.853475 0
M  V30 3742 O 361.543 2.16357 -0.0433656 0
M  V30 3743 C 362.138 1.09066 -3.20765 0
M  V30 3744 C 360.697 1.58535 -3.41385 0
M  V30 3745 C 359.844 0.514868 -2.72478 0
M  V30 3746 H 362.795 -0.177758 -1.57701 0
M  V30 3747 H 362.816 1.95875 -3.2621 0
M  V30 3748 H 362.328 0.239521 -3.8736 0
M  V30 3749 H 360.429 2.45898 -2.79937 0
M  V30 3750 H 360.542 1.64622 -4.49929 0
M  V30 3751 H 358.906 0.965407 -2.35695 0
M  V30 3752 H 359.689 -0.32648 -3.41744 0
M  V30 3753 N 362.134 1.5431 0.320358 0
M  V30 3754 C 363.362 1.76636 1.07738 0
M  V30 3755 C 363.777 0.51649 1.81598 0
M  V30 3756 O 363.134 -0.512942 1.75143 0
M  V30 3757 C 363.185 2.96158 2.07299 0
M  V30 3758 O 362.906 4.16313 1.36438 0
M  V30 3759 C 364.407 3.3072 2.95193 0
M  V30 3760 H 361.627 0.589597 0.320339 0
M  V30 3761 H 364.171 2.01207 0.36551 0
M  V30 3762 H 362.326 2.73851 2.74016 0
M  V30 3763 H 362.74 4.83565 2.03138 0
M  V30 3764 H 364.214 4.17643 3.60941 0
M  V30 3765 H 364.691 2.48026 3.62463 0
M  V30 3766 H 365.297 3.55117 2.34034 0
M  V30 3767 N 363.613 -0.582584 1.46437 0
M  V30 3768 C 364.523 -1.71949 1.59595 0
M  V30 3769 C 365.539 -1.67264 0.479443 0
M  V30 3770 O 366.715 -1.87171 0.743579 0
M  V30 3771 C 363.78 -3.08452 1.58298 0
M  V30 3772 C 362.841 -3.244 2.81182 0
M  V30 3773 C 362.074 -4.54391 2.79937 0
M  V30 3774 O 362.297 -5.38287 1.8869 0
M  V30 3775 O 361.231 -4.73588 3.71481 0
M  V30 3776 H 365.057 -1.63795 2.55744 0
M  V30 3777 H 362.642 -0.749643 1.29231 0
M  V30 3778 H 364.524 -3.89732 1.60271 0
M  V30 3779 H 363.199 -3.17043 0.653094 0
M  V30 3780 H 362.106 -2.42613 2.84763 0
M  V30 3781 H 363.439 -3.20699 3.7338 0
M  V30 3782 N 365.091 -1.34144 -0.827227 0
M  V30 3783 C 366.319 -1.29325 -1.61501 0
M  V30 3784 C 366.734 0.13354 -1.88327 0
M  V30 3785 O 366.091 1.0793 -1.47164 0
M  V30 3786 C 366.142 -2.07746 -2.95844 0
M  V30 3787 O 365.863 -3.4486 -2.70191 0
M  V30 3788 C 367.364 -2.10273 -3.90256 0
M  V30 3789 H 364.584 -0.445069 -0.50215 0
M  V30 3790 H 367.128 -1.76693 -1.02955 0
M  V30 3791 H 365.283 -1.6403 -3.5096 0
M  V30 3792 H 365.697 -3.85345 -3.55822 0
M  V30 3793 H 367.171 -2.69575 -4.81698 0
M  V30 3794 H 367.648 -1.096 -4.25305 0
M  V30 3795 H 368.254 -2.54059 -3.41078 0
M  V30 3796 N 366.569 1.04691 -1.17803 0
M  V30 3797 C 367.517 2.14665 -0.895635 0
M  V30 3798 C 368.511 1.68806 0.141679 0
M  V30 3799 O 369.717 1.79999 -0.00587914 0
M  V30 3800 H 366.092 0.701038 -0.272121 0
M  V30 3801 H 368.063 2.35685 -1.83017 0
M  V30 3802 C 366.812 3.45019 -0.430962 0
M  V30 3803 H 366.135 3.8071 -1.22064 0
M  V30 3804 H 367.575 4.23125 -0.272301 0
M  V30 3805 C 366.034 3.25943 0.852207 0
M  V30 3806 O 366.564 3.5296 1.91786 0
M  V30 3807 N 364.77 2.79304 0.802346 0
M  V30 3808 H 364.317 2.57518 -0.0650788 0
M  V30 3809 H 364.275 2.66921 1.66134 0
M  V30 3810 N 368.047 0.979072 1.23499 0
M  V30 3811 C 368.994 0.517904 2.24914 0
M  V30 3812 C 369.964 -0.442525 1.60097 0
M  V30 3813 O 371.149 -0.350365 1.87556 0
M  V30 3814 C 368.289 -0.174813 3.44657 0
M  V30 3815 C 367.402 0.825721 4.24035 0
M  V30 3816 C 366.537 0.107946 5.3109 0
M  V30 3817 C 365.576 1.09778 6.02175 0
M  V30 3818 N 364.713 0.40925 7.00906 0
M  V30 3819 H 369.553 1.38751 2.63727 0
M  V30 3820 H 367.09 0.695303 1.2963 0
M  V30 3821 H 369.048 -0.593233 4.12961 0
M  V30 3822 H 367.678 -1.0083 3.06648 0
M  V30 3823 H 366.73 1.36253 3.55161 0
M  V30 3824 H 368.042 1.58005 4.73113 0
M  V30 3825 H 367.196 -0.367904 6.05583 0
M  V30 3826 H 365.935 -0.678994 4.8295 0
M  V30 3827 H 364.94 1.5844 5.26476 0
M  V30 3828 H 366.165 1.88536 6.52404 0
M  V30 3829 H 364.111 -0.358506 6.5502 0
M  V30 3830 H 364.028 1.10226 7.47921 0
M  V30 3831 H 365.296 -0.0442557 7.79487 0
M  V30 3832 N 369.525 -1.3858 0.750561 0
M  V30 3833 C 370.488 -2.28836 0.129152 0
M  V30 3834 C 371.488 -1.47045 -0.650714 0
M  V30 3835 O 372.678 -1.6753 -0.477428 0
M  V30 3836 C 369.81 -3.30751 -0.825622 0
M  V30 3837 H 371.003 -2.85294 0.924516 0
M  V30 3838 H 368.556 -1.47489 0.517376 0
M  V30 3839 H 369.291 -2.79378 -1.64677 0
M  V30 3840 H 369.076 -3.91177 -0.268852 0
M  V30 3841 H 370.566 -3.98249 -1.2565 0
M  V30 3842 N 371.003 -0.499398 -1.49478 0
M  V30 3843 C 371.913 0.284489 -2.32869 0
M  V30 3844 C 372.929 0.968885 -1.44529 0
M  V30 3845 O 374.105 0.95062 -1.77553 0
M  V30 3846 C 371.17 1.33594 -3.19928 0
M  V30 3847 C 370.231 0.665149 -4.24116 0
M  V30 3848 C 369.464 1.6665 -5.07014 0
M  V30 3849 O 369.687 2.89618 -4.91404 0
M  V30 3850 O 368.621 1.22271 -5.8935 0
M  V30 3851 H 372.447 -0.39802 -3.01081 0
M  V30 3852 H 370.032 -0.260758 -1.47107 0
M  V30 3853 H 371.914 1.94431 -3.73864 0
M  V30 3854 H 370.589 2.0014 -2.54412 0
M  V30 3855 H 369.496 0.0170769 -3.74096 0
M  V30 3856 H 370.829 0.0421555 -4.92182 0
M  V30 3857 N 372.481 1.55866 -0.233164 0
M  V30 3858 C 373.413 2.18099 0.704668 0
M  V30 3859 C 374.426 1.15334 1.14899 0
M  V30 3860 O 375.615 1.42262 1.07814 0
M  V30 3861 C 372.715 2.7592 1.96777 0
M  V30 3862 C 371.888 4.03969 1.67713 0
M  V30 3863 C 370.947 4.46242 2.78845 0
M  V30 3864 O 369.973 5.12903 2.46818 0
M  V30 3865 N 371.175 4.12886 4.08051 0
M  V30 3866 H 373.94 2.99205 0.172258 0
M  V30 3867 H 371.501 1.61815 -0.0525945 0
M  V30 3868 H 373.493 3.01165 2.70337 0
M  V30 3869 H 372.063 1.99051 2.41034 0
M  V30 3870 H 371.283 3.86459 0.777391 0
M  V30 3871 H 372.571 4.8748 1.4574 0
M  V30 3872 H 371.969 3.59342 4.3691 0
M  V30 3873 H 370.526 4.42997 4.78118 0
M  V30 3874 N 373.959 -0.0401083 1.57549 0
M  V30 3875 C 375.199 -0.738098 1.90608 0
M  V30 3876 C 375.563 -1.73107 0.830539 0
M  V30 3877 O 376.764 -2.4765 1.04513 0
M  V30 3878 C 375.035 -1.39985 3.28845 0
M  V30 3879 S 376.594 -2.12852 3.83718 0
M  V30 3880 H 373.412 -0.24477 0.667539 0
M  V30 3881 H 376.014 0.00693599 1.95499 0
M  V30 3882 H 374.718 -0.663775 4.04997 0
M  V30 3883 H 374.249 -2.18366 3.2723 0
M  V30 3884 H 376.264 -3.39842 3.61555 0
M  V30 3885 N 375.437 -1.54477 -0.31217 0
M  V30 3886 C 376.677 -1.74958 -1.05684 0
M  V30 3887 C 377.041 -0.518414 -1.84869 0
M  V30 3888 O 378.242 -0.600759 -2.62001 0
M  V30 3889 C 376.513 -2.99656 -1.94785 0
M  V30 3890 S 378.072 -3.4109 -2.76049 0
M  V30 3891 H 374.89 -0.615104 -0.356606 0
M  V30 3892 H 377.492 -1.92669 -0.331514 0
M  V30 3893 H 376.196 -3.87397 -1.35468 0
M  V30 3894 H 375.727 -2.845 -2.71704 0
M  V30 3895 H 377.742 -2.97283 -3.97287 0
M  V30 3896 N 376.915 0.57481 -1.46744 0
M  V30 3897 C 377.825 1.711 -1.60505 0
M  V30 3898 C 378.841 1.67008 -0.488307 0
M  V30 3899 O 380.017 1.86774 -0.753495 0
M  V30 3900 C 377.082 3.07608 -1.59932 0
M  V30 3901 C 376.143 3.22904 -2.82898 0
M  V30 3902 C 375.376 4.529 -2.82343 0
M  V30 3903 O 375.599 5.37278 -1.91542 0
M  V30 3904 O 374.533 4.71611 -3.73987 0
M  V30 3905 H 378.359 1.62436 -2.56609 0
M  V30 3906 H 375.944 0.742779 -1.29627 0
M  V30 3907 H 377.826 3.88877 -1.62336 0
M  V30 3908 H 376.501 3.16692 -0.669898 0
M  V30 3909 H 375.408 2.41099 -2.86046 0
M  V30 3910 H 376.741 3.18715 -3.75076 0
M  V30 3911 N 378.394 1.34581 0.820102 0
M  V30 3912 C 379.304 1.28471 1.96297 0
M  V30 3913 C 380.32 0.191902 1.72939 0
M  V30 3914 O 381.496 0.418879 1.96996 0
M  V30 3915 C 378.561 1.04281 3.30645 0
M  V30 3916 C 377.622 2.22745 3.66992 0
M  V30 3917 C 376.855 1.997 4.9493 0
M  V30 3918 O 377.078 0.956656 5.6232 0
M  V30 3919 O 376.012 2.86723 5.2922 0
M  V30 3920 H 379.838 2.24624 2.04396 0
M  V30 3921 H 377.423 1.14816 0.955913 0
M  V30 3922 H 379.305 0.925841 4.11104 0
M  V30 3923 H 377.98 0.111697 3.23507 0
M  V30 3924 H 376.887 2.40003 2.86966 0
M  V30 3925 H 378.22 3.14257 3.78819 0
M  V30 3926 N 379.872 -1.04064 1.18357 0
M  V30 3927 C 381.1 -1.80916 1.00384 0
M  V30 3928 C 381.515 -1.83414 -0.447738 0
M  V30 3929 O 380.872 -1.26962 -1.31099 0
M  V30 3930 C 380.923 -3.26516 1.55144 0
M  V30 3931 O 380.644 -3.2424 2.94618 0
M  V30 3932 C 382.145 -4.20013 1.41789 0
M  V30 3933 H 379.365 -0.569728 0.354474 0
M  V30 3934 H 381.909 -1.31151 1.56906 0
M  V30 3935 H 380.064 -3.73512 1.02798 0
M  V30 3936 H 380.478 -4.15452 3.20156 0
M  V30 3937 H 381.952 -5.20111 1.84901 0
M  V30 3938 H 382.429 -4.37667 0.36661 0
M  V30 3939 H 383.035 -3.78881 1.93207 0
M  V30 3940 N 381.35 -0.985608 -1.22978 0
M  V30 3941 C 382.313 -0.535071 -2.22867 0
M  V30 3942 C 383.313 0.378123 -1.56291 0
M  V30 3943 O 384.503 0.171092 -1.73358 0
M  V30 3944 C 381.635 0.222702 -3.40172 0
M  V30 3945 H 382.828 -1.41835 -2.6424 0
M  V30 3946 H 380.381 -0.772042 -1.35901 0
M  V30 3947 H 381.116 1.12229 -3.04262 0
M  V30 3948 H 380.901 -0.43288 -3.89703 0
M  V30 3949 H 382.391 0.526335 -4.1427 0
M  V30 3950 N 382.828 1.3818 -0.7579 0
M  V30 3951 C 384.053 2.04827 -0.325679 0
M  V30 3952 C 384.478 1.56788 1.03919 0
M  V30 3953 O 383.836 0.721811 1.66312 0
M  V30 3954 C 383.884 3.58774 -0.362447 0
M  V30 3955 O 382.988 4.07372 0.642033 0
M  V30 3956 H 382.329 0.64833 -0.143402 0
M  V30 3957 H 384.859 1.7677 -1.03023 0
M  V30 3958 H 384.869 4.07434 -0.214844 0
M  V30 3959 H 383.544 3.93096 -1.35824 0
M  V30 3960 H 382.121 3.70068 0.458688 0
M  V30 3961 N 384.306 0.507319 1.49211 0
M  V30 3962 C 385.531 -0.033725 2.07373 0
M  V30 3963 C 385.956 -1.29485 1.36437 0
M  V30 3964 O 385.314 -1.76294 0.423087 0
M  V30 3965 C 385.362 -0.263945 3.59633 0
M  V30 3966 O 384.466 -1.33737 3.90113 0
M  V30 3967 H 383.807 0.0290331 0.663365 0
M  V30 3968 H 386.337 0.708749 1.91932 0
M  V30 3969 H 386.347 -0.493536 4.05004 0
M  V30 3970 H 385.022 0.657424 4.10671 0
M  V30 3971 H 383.599 -1.09224 3.56545 0
M  V30 3972 N 385.784 -1.5574 0.241426 0
M  V30 3973 C 387.033 -1.97986 -0.385295 0
M  V30 3974 C 387.346 -1.13267 -1.59468 0
M  V30 3975 O 388.552 -1.45501 -2.2922 0
M  V30 3976 C 387.008 -3.52275 -0.736884 0
M  V30 3977 C 386.616 -4.45726 0.450796 0
M  V30 3978 C 388.36 -4.03189 -1.3281 0
M  V30 3979 C 386.267 -5.91352 0.0756662 0
M  V30 3980 H 385.197 -0.739386 -0.147731 0
M  V30 3981 H 387.848 -1.80308 0.340779 0
M  V30 3982 H 386.23 -3.65628 -1.52094 0
M  V30 3983 H 387.404 -4.44131 1.22819 0
M  V30 3984 H 385.719 -4.05264 0.956573 0
M  V30 3985 H 388.316 -5.09505 -1.62201 0
M  V30 3986 H 388.659 -3.50212 -2.25071 0
M  V30 3987 H 389.192 -3.93141 -0.607069 0
M  V30 3988 H 385.931 -6.48354 0.965272 0
M  V30 3989 H 385.451 -5.96095 -0.665635 0
M  V30 3990 H 387.13 -6.46084 -0.344075 0
M  V30 3991 N 387.262 0.0317525 -1.57568 0
M  V30 3992 C 388.487 0.738664 -1.938 0
M  V30 3993 C 388.912 1.68242 -0.841208 0
M  V30 3994 O 388.27 1.80157 0.203267 0
M  V30 3995 C 388.318 1.47417 -3.29091 0
M  V30 3996 O 387.422 2.5872 -3.2115 0
M  V30 3997 H 386.763 0.198856 -0.633524 0
M  V30 3998 H 389.293 -0.0119713 -2.04596 0
M  V30 3999 H 389.303 1.84468 -3.63917 0
M  V30 4000 H 387.978 0.781988 -4.08482 0
M  V30 4001 H 386.555 2.24231 -2.97951 0
M  V30 4002 N 388.74 1.54641 0.303973 0
M  V30 4003 C 389.67 1.88386 1.3796 0
M  V30 4004 C 390.651 0.742485 1.5304 0
M  V30 4005 O 391.836 0.997959 1.66597 0
M  V30 4006 C 388.966 2.12854 2.74427 0
M  V30 4007 C 387.92 3.28702 2.74115 0
M  V30 4008 C 387.246 3.38582 4.13844 0
M  V30 4009 C 388.546 4.65881 2.3612 0
M  V30 4010 H 390.24 2.78474 1.09966 0
M  V30 4011 H 387.786 1.33988 0.527556 0
M  V30 4012 H 389.739 2.35047 3.49758 0
M  V30 4013 H 388.463 1.19535 3.03939 0
M  V30 4014 H 387.122 3.06428 2.0124 0
M  V30 4015 H 386.77 2.42784 4.40528 0
M  V30 4016 H 386.47 4.16453 4.14537 0
M  V30 4017 H 387.994 3.63031 4.90959 0
M  V30 4018 H 389.408 4.87823 3.01167 0
M  V30 4019 H 387.805 5.46444 2.48031 0
M  V30 4020 H 388.875 4.66799 1.3125 0
M  V30 4021 N 390.218 -0.567019 1.47046 0
M  V30 4022 C 391.168 -1.67018 1.55207 0
M  V30 4023 C 392.152 -1.55543 0.411714 0
M  V30 4024 O 393.344 -1.64192 0.661064 0
M  V30 4025 C 390.473 -3.05801 1.56014 0
M  V30 4026 C 389.559 -3.22515 2.75399 0
M  V30 4027 N 389.95 -3.09329 4.00186 0
M  V30 4028 C 388.248 -3.53493 2.71954 0
M  V30 4029 C 388.949 -3.2847 4.80086 0
M  V30 4030 N 387.925 -3.54352 4.12233 0
M  V30 4031 H 391.727 -1.55377 2.4947 0
M  V30 4032 H 389.241 -0.771503 1.42904 0
M  V30 4033 H 391.238 -3.84996 1.59949 0
M  V30 4034 H 389.898 -3.18561 0.628396 0
M  V30 4035 H 390.909 -2.86863 4.31196 0
M  V30 4036 H 387.586 -3.7284 1.87873 0
M  V30 4037 H 388.976 -3.23326 5.88991 0
M  V30 4038 N 391.696 -1.35014 -0.812953 0
M  V30 4039 C 392.944 -1.27678 -1.56661 0
M  V30 4040 C 393.265 0.150359 -1.94419 0
M  V30 4041 O 392.535 1.08532 -1.63088 0
M  V30 4042 H 391.115 -0.469602 -0.580933 0
M  V30 4043 H 393.777 -1.69043 -0.970076 0
M  V30 4044 H 392.873 -1.88833 -2.48492 0
M  V30 4045 N 393.175 1.03435 -1.18907 0
M  V30 4046 C 394.122 2.11591 -0.921837 0
M  V30 4047 C 395.092 1.65499 0.141226 0
M  V30 4048 O 396.277 1.908 0.000242829 0
M  V30 4049 C 393.417 3.42012 -0.460616 0
M  V30 4050 C 392.53 4.01682 -1.58982 0
M  V30 4051 C 391.665 5.20091 -1.08069 0
M  V30 4052 C 390.704 5.71805 -2.18416 0
M  V30 4053 N 389.841 6.81494 -1.68849 0
M  V30 4054 H 394.681 2.33787 -1.8479 0
M  V30 4055 H 392.218 1.1467 -0.921373 0
M  V30 4056 H 394.176 4.16834 -0.174642 0
M  V30 4057 H 392.806 3.19944 0.428467 0
M  V30 4058 H 391.858 3.24127 -1.99113 0
M  V30 4059 H 393.17 4.36084 -2.4214 0
M  V30 4060 H 392.324 6.02051 -0.749615 0
M  V30 4061 H 391.063 4.87209 -0.218771 0
M  V30 4062 H 390.068 4.88461 -2.5236 0
M  V30 4063 H 391.293 6.06728 -3.05054 0
M  V30 4064 H 389.239 6.50475 -0.849572 0
M  V30 4065 H 389.156 7.14994 -2.45601 0
M  V30 4066 H 390.424 7.67063 -1.38689 0
M  V30 4067 N 394.653 0.992116 1.22453 0
M  V30 4068 C 395.901 0.666215 1.90804 0
M  V30 4069 C 396.222 -0.804152 1.77647 0
M  V30 4070 O 395.492 -1.57629 1.16318 0
M  V30 4071 H 394.072 0.243423 0.706225 0
M  V30 4072 H 396.734 1.25845 1.48825 0
M  V30 4073 H 395.83 0.928069 2.97982 0
M  V30 4074 N 396.131 -1.37776 0.765217 0
M  V30 4075 C 397.356 -2.04651 0.336537 0
M  V30 4076 C 397.781 -1.57337 -1.03086 0
M  V30 4077 O 397.139 -0.730621 -1.65927 0
M  V30 4078 C 397.187 -3.58577 0.381468 0
M  V30 4079 O 396.291 -4.07706 -0.62042 0
M  V30 4080 H 395.632 -0.64756 0.146838 0
M  V30 4081 H 398.162 -1.76221 1.03959 0
M  V30 4082 H 398.172 -4.07314 0.236448 0
M  V30 4083 H 396.847 -3.9237 1.37907 0
M  V30 4084 H 395.424 -3.70306 -0.439056 0
M  V30 4085 N 397.609 -0.515225 -1.4894 0
M  V30 4086 C 398.856 0.024215 -2.02486 0
M  V30 4087 C 399.184 1.35671 -1.39368 0
M  V30 4088 O 398.439 1.88566 -0.523574 0
M  V30 4089 C 398.738 0.210595 -3.56779 0
M  V30 4090 C 398.404 -1.04569 -4.38607 0
M  V30 4091 C 397.066 -1.39002 -4.60686 0
M  V30 4092 C 399.418 -1.88008 -4.86109 0
M  V30 4093 C 396.746 -2.568 -5.27514 0
M  V30 4094 C 399.098 -3.04972 -5.54234 0
M  V30 4095 C 397.762 -3.39768 -5.74555 0
M  V30 4096 H 397.032 0.00886088 -0.740947 0
M  V30 4097 H 399.679 -0.678263 -1.79086 0
M  V30 4098 H 397.984 0.99572 -3.78936 0
M  V30 4099 H 399.681 0.642659 -3.95817 0
M  V30 4100 H 396.271 -0.767497 -4.21672 0
M  V30 4101 H 400.455 -1.62719 -4.68867 0
M  V30 4102 H 395.711 -2.8398 -5.41447 0
M  V30 4103 H 399.885 -3.69943 -5.90013 0
M  V30 4104 H 397.512 -4.31148 -6.26112 0
M  V30 4105 N 399.087 1.5561 -0.249682 0
M  V30 4106 C 400.503 1.59254 0.105103 0
M  V30 4107 C 400.703 1.26685 1.56694 0
M  V30 4108 O 399.759 1.0155 2.31179 0
M  V30 4109 C 401.072 2.99687 -0.246592 0
M  V30 4110 C 402.62 3.12416 -0.191118 0
M  V30 4111 C 403.095 4.55074 -0.516885 0
M  V30 4112 N 404.586 4.60835 -0.467489 0
M  V30 4113 C 405.321 5.69201 -0.69268 0
M  V30 4114 N 404.817 6.85817 -0.981146 0
M  V30 4115 N 406.61 5.58635 -0.623198 0
M  V30 4116 H 398.761 1.75049 -1.20298 0
M  V30 4117 H 401.024 0.815003 -0.484225 0
M  V30 4118 H 400.73 3.28267 -1.26228 0
M  V30 4119 H 400.604 3.74798 0.424962 0
M  V30 4120 H 402.991 2.83615 0.815247 0
M  V30 4121 H 403.072 2.39573 -0.896563 0
M  V30 4122 H 402.716 4.84596 -1.52082 0
M  V30 4123 H 402.646 5.26181 0.210068 0
M  V30 4124 H 405.137 3.7705 -0.253373 0
M  V30 4125 H 405.45 7.64341 -1.14032 0
M  V30 4126 H 403.795 6.87494 -1.01865 0
M  V30 4127 H 406.986 4.66406 -0.397863 0
M  V30 4128 H 407.159 6.43017 -0.802093 0
M  V30 4129 N 400.565 -0.0233959 1.57583 0
M  V30 4130 C 401.812 -0.713063 1.8953 0
M  V30 4131 C 402.14 -1.75056 0.847673 0
M  V30 4132 O 401.395 -1.95119 -0.150636 0
M  V30 4133 C 401.694 -1.41428 3.28227 0
M  V30 4134 C 401.36 -0.512222 4.47981 0
M  V30 4135 C 400.022 -0.263785 4.80476 0
M  V30 4136 C 402.374 0.110248 5.21083 0
M  V30 4137 C 399.702 0.615804 5.83459 0
M  V30 4138 C 402.054 0.977573 6.25001 0
M  V30 4139 C 400.718 1.23542 6.55968 0
M  V30 4140 H 399.988 -0.260928 0.69354 0
M  V30 4141 H 402.635 0.0271047 1.91481 0
M  V30 4142 H 400.94 -2.22791 3.22291 0
M  V30 4143 H 402.637 -1.95355 3.50196 0
M  V30 4144 H 399.227 -0.716013 4.22577 0
M  V30 4145 H 403.411 -0.0687137 4.96252 0
M  V30 4146 H 398.667 0.82382 6.05824 0
M  V30 4147 H 402.841 1.46638 6.80786 0
M  V30 4148 H 400.468 1.91871 7.35588 0
M  V30 4149 N 402.043 -1.548 -0.295768 0
M  V30 4150 C 403.268 -1.78653 -1.05346 0
M  V30 4151 C 403.693 -0.546894 -1.79974 0
M  V30 4152 O 403.051 0.502763 -1.7419 0
M  V30 4153 C 403.099 -2.99679 -2.00561 0
M  V30 4154 O 402.203 -2.7317 -3.08953 0
M  V30 4155 H 401.544 -0.59116 -0.302367 0
M  V30 4156 H 404.074 -2.01895 -0.331598 0
M  V30 4157 H 404.084 -3.27793 -2.42932 0
M  V30 4158 H 402.759 -3.89562 -1.4565 0
M  V30 4159 H 401.336 -2.56089 -2.71059 0
M  V30 4160 N 403.521 0.559213 -1.47345 0
M  V30 4161 C 404.751 1.33999 -1.57251 0
M  V30 4162 C 405.159 1.87905 -0.220978 0
M  V30 4163 O 404.502 1.65577 0.795617 0
M  V30 4164 C 404.564 2.54798 -2.53611 0
M  V30 4165 C 404.228 2.22192 -3.99349 0
M  V30 4166 C 405.225 1.79607 -4.87891 0
M  V30 4167 C 402.91 2.33613 -4.44669 0
M  V30 4168 C 404.904 1.48868 -6.19772 0
M  V30 4169 C 402.591 2.02487 -5.76578 0
M  V30 4170 C 403.589 1.60183 -6.63951 0
M  V30 4171 O 403.277 1.29451 -7.93409 0
M  V30 4172 H 403.009 0.414858 -0.533731 0
M  V30 4173 H 405.563 0.684465 -1.9366 0
M  V30 4174 H 403.793 3.23235 -2.12265 0
M  V30 4175 H 405.482 3.16873 -2.53666 0
M  V30 4176 H 406.248 1.70278 -4.54126 0
M  V30 4177 H 402.127 2.65501 -3.76869 0
M  V30 4178 H 405.671 1.15775 -6.87926 0
M  V30 4179 H 401.568 2.11448 -6.09885 0
M  V30 4180 H 402.336 1.43098 -8.05894 0
M  V30 4181 N 404.999 1.35443 0.805782 0
M  V30 4182 C 406.224 1.32037 1.59941 0
M  V30 4183 C 406.649 -0.0994215 1.87837 0
M  V30 4184 O 406.007 -1.06648 1.46615 0
M  V30 4185 C 406.055 2.13354 2.90711 0
M  V30 4186 O 405.159 1.5148 3.83572 0
M  V30 4187 H 404.5 0.452666 0.485787 0
M  V30 4188 H 407.03 1.78496 1.00002 0
M  V30 4189 H 407.04 2.25338 3.40128 0
M  V30 4190 H 405.715 3.16572 2.69732 0
M  V30 4191 H 404.292 1.4834 3.42125 0
M  V30 4192 N 406.477 -1.02803 1.19454 0
M  V30 4193 C 407.424 -2.11099 0.933046 0
M  V30 4194 C 408.394 -1.65571 -0.132447 0
M  V30 4195 O 409.579 -1.90797 0.00987576 0
M  V30 4196 C 406.719 -3.41763 0.478747 0
M  V30 4197 C 405.832 -4.00833 1.6111 0
M  V30 4198 C 404.967 -5.19511 1.10825 0
M  V30 4199 C 404.006 -5.70639 2.21445 0
M  V30 4200 N 403.143 -6.80589 1.72461 0
M  V30 4201 H 407.983 -2.32804 1.86028 0
M  V30 4202 H 405.52 -1.14179 0.927441 0
M  V30 4203 H 407.478 -4.16736 0.196745 0
M  V30 4204 H 406.108 -3.20166 -0.411493 0
M  V30 4205 H 405.16 -3.23066 2.00829 0
M  V30 4206 H 406.472 -4.34794 2.4445 0
M  V30 4207 H 405.626 -6.01645 0.781533 0
M  V30 4208 H 404.365 -4.87086 0.244606 0
M  V30 4209 H 403.37 -4.87116 2.54947 0
M  V30 4210 H 404.595 -6.05102 3.08267 0
M  V30 4211 H 402.541 -6.50016 0.884056 0
M  V30 4212 H 402.458 -7.13681 2.49389 0
M  V30 4213 H 403.726 -7.66317 1.42755 0
M  V30 4214 N 407.956 -0.998596 -1.21925 0
M  V30 4215 C 408.904 -0.546641 -2.26085 0
M  V30 4216 C 409.898 0.405576 -1.64473 0
M  V30 4217 O 411.104 0.277471 -1.77849 0
M  V30 4218 H 407.479 -0.158403 -0.735127 0
M  V30 4219 H 409.45 -1.43645 -2.61551 0
M  V30 4220 C 408.199 0.117388 -3.47502 0
M  V30 4221 H 407.522 -0.606277 -3.95176 0
M  V30 4222 H 408.962 0.396993 -4.22137 0
M  V30 4223 C 407.421 1.35455 -3.0847 0
M  V30 4224 O 407.951 2.44944 -3.18379 0
M  V30 4225 N 406.157 1.23191 -2.63196 0
M  V30 4226 H 405.704 0.341006 -2.55333 0
M  V30 4227 H 405.662 2.06071 -2.37449 0
M  V30 4228 N 409.434 1.37368 -0.772513 0
M  V30 4229 C 410.344 2.34053 -0.160081 0
M  V30 4230 C 411.36 1.60216 0.678728 0
M  V30 4231 O 412.536 1.92303 0.59847 0
M  V30 4232 C 409.601 3.3939 0.708182 0
M  V30 4233 C 408.662 4.29048 -0.147172 0
M  V30 4234 C 407.895 5.29354 0.679744 0
M  V30 4235 O 408.118 5.3723 1.91678 0
M  V30 4236 O 407.052 6.01835 0.0885444 0
M  V30 4237 H 410.878 2.88159 -0.959053 0
M  V30 4238 H 408.463 1.39543 -0.533685 0
M  V30 4239 H 410.345 4.03839 1.20384 0
M  V30 4240 H 409.02 2.8761 1.48533 0
M  V30 4241 H 407.927 3.67697 -0.689205 0
M  V30 4242 H 409.26 4.84134 -0.887423 0
M  V30 4243 N 410.912 0.523116 1.48665 0
M  V30 4244 C 412.14 -0.0096312 2.06898 0
M  V30 4245 C 412.555 -1.28784 1.38059 0
M  V30 4246 O 411.912 -1.76453 0.465893 0
M  V30 4247 C 411.963 -0.244386 3.60673 0
M  V30 4248 O 411.684 0.983172 4.26925 0
M  V30 4249 C 413.185 -0.818289 4.35682 0
M  V30 4250 H 410.405 0.0304161 0.67031 0
M  V30 4251 H 412.949 0.726799 1.91149 0
M  V30 4252 H 411.104 -0.930847 3.76051 0
M  V30 4253 H 411.518 0.759653 5.1897 0
M  V30 4254 H 412.992 -0.93201 5.44075 0
M  V30 4255 H 413.469 -1.82153 3.99646 0
M  V30 4256 H 414.075 -0.168609 4.24966 0
M  V30 4257 N 412.39 -1.55475 0.257931 0
M  V30 4258 C 413.62 -2.03314 -0.367026 0
M  V30 4259 C 414.028 -1.13625 -1.51281 0
M  V30 4260 O 413.371 -0.145334 -1.83124 0
M  V30 4261 C 413.433 -3.47362 -0.926284 0
M  V30 4262 C 413.097 -4.56914 0.0886584 0
M  V30 4263 C 414.094 -5.12013 0.902123 0
M  V30 4264 C 411.779 -5.01827 0.217936 0
M  V30 4265 C 413.773 -6.10529 1.83122 0
M  V30 4266 C 411.46 -6.00172 1.15052 0
M  V30 4267 C 412.458 -6.54402 1.95568 0
M  V30 4268 O 412.146 -7.50827 2.87253 0
M  V30 4269 H 411.878 -0.669976 -0.0900443 0
M  V30 4270 H 414.432 -2.01804 0.382673 0
M  V30 4271 H 412.662 -3.46056 -1.72575 0
M  V30 4272 H 414.351 -3.78637 -1.46249 0
M  V30 4273 H 415.117 -4.78139 0.812891 0
M  V30 4274 H 410.996 -4.59272 -0.398721 0
M  V30 4275 H 414.54 -6.52783 2.46008 0
M  V30 4276 H 410.437 -6.33465 1.24064 0
M  V30 4277 H 411.205 -7.68483 2.81739 0
M  V30 4278 N 413.868 0.0150385 -1.57593 0
M  V30 4279 C 414.8 1.03912 -2.04291 0
M  V30 4280 C 415.813 1.31618 -0.958146 0
M  V30 4281 O 417.002 1.28859 -1.23522 0
M  V30 4282 C 414.102 2.37749 -2.41514 0
M  V30 4283 C 413.275 2.29198 -3.72541 0
M  V30 4284 C 412.334 3.45598 -3.96797 0
M  V30 4285 O 411.36 3.24461 -4.67668 0
M  V30 4286 N 412.562 4.67945 -3.43523 0
M  V30 4287 H 415.327 0.64099 -2.92765 0
M  V30 4288 H 412.888 0.20272 -1.60626 0
M  V30 4289 H 414.88 3.14364 -2.54867 0
M  V30 4290 H 413.45 2.69357 -1.58637 0
M  V30 4291 H 412.67 1.3759 -3.69408 0
M  V30 4292 H 413.958 2.20642 -4.5847 0
M  V30 4293 H 413.356 4.88017 -2.86104 0
M  V30 4294 H 411.913 5.41878 -3.62232 0
M  V30 4295 N 415.346 1.54954 0.287554 0
M  V30 4296 C 416.276 1.89839 1.35954 0
M  V30 4297 C 417.257 0.758675 1.52244 0
M  V30 4298 O 418.442 1.01557 1.65529 0
M  V30 4299 C 415.572 2.15753 2.72154 0
M  V30 4300 C 414.526 3.3159 2.70614 0
M  V30 4301 C 413.852 3.42952 4.10229 0
M  V30 4302 C 415.152 4.68359 2.31165 0
M  V30 4303 H 416.846 2.79625 1.07007 0
M  V30 4304 H 414.392 1.3454 0.513316 0
M  V30 4305 H 416.345 2.38743 3.47246 0
M  V30 4306 H 415.069 1.22752 3.02654 0
M  V30 4307 H 413.728 3.08545 1.97979 0
M  V30 4308 H 413.376 2.47443 4.37928 0
M  V30 4309 H 413.076 4.20826 4.10097 0
M  V30 4310 H 414.6 3.68218 4.87081 0
M  V30 4311 H 416.014 4.9099 2.95976 0
M  V30 4312 H 414.411 5.49044 2.42221 0
M  V30 4313 H 415.481 4.68165 1.26291 0
M  V30 4314 N 416.824 -0.551391 1.4764 0
M  V30 4315 C 418.071 -1.3083 1.54563 0
M  V30 4316 C 418.399 -1.93359 0.210361 0
M  V30 4317 O 417.654 -1.78721 -0.797332 0
M  V30 4318 C 417.953 -2.43469 2.61644 0
M  V30 4319 C 417.619 -1.98732 4.04742 0
M  V30 4320 C 416.281 -1.86248 4.43695 0
M  V30 4321 C 418.633 -1.64659 4.94507 0
M  V30 4322 C 415.961 -1.37995 5.70241 0
M  V30 4323 C 418.313 -1.17875 6.21521 0
M  V30 4324 C 416.977 -1.03992 6.5935 0
M  V30 4325 H 416.247 -0.478741 0.565587 0
M  V30 4326 H 418.894 -0.617697 1.81264 0
M  V30 4327 H 417.199 -3.18109 2.28722 0
M  V30 4328 H 418.896 -3.01642 2.64222 0
M  V30 4329 H 415.486 -2.09393 3.73968 0
M  V30 4330 H 419.67 -1.73174 4.65107 0
M  V30 4331 H 414.926 -1.25915 5.98294 0
M  V30 4332 H 419.1 -0.905739 6.90485 0
M  V30 4333 H 416.727 -0.663794 7.57296 0
M  V30 4334 N 418.302 -1.35869 -0.798587 0
M  V30 4335 C 419.232 -1.32118 -1.92528 0
M  V30 4336 C 420.213 -0.194209 -1.68988 0
M  V30 4337 O 421.398 -0.390426 -1.90235 0
M  V30 4338 C 418.528 -1.10047 -3.29404 0
M  V30 4339 C 417.482 -2.19471 -3.67446 0
M  V30 4340 C 416.808 -1.82555 -5.02571 0
M  V30 4341 C 418.108 -3.61495 -3.76987 0
M  V30 4342 H 419.802 -2.26394 -1.95924 0
M  V30 4343 H 417.348 -1.08981 -0.94123 0
M  V30 4344 H 419.301 -1.06061 -4.07835 0
M  V30 4345 H 418.025 -0.122195 -3.26371 0
M  V30 4346 H 416.684 -2.22568 -2.91306 0
M  V30 4347 H 416.332 -0.833249 -4.9605 0
M  V30 4348 H 416.032 -2.5581 -5.28995 0
M  V30 4349 H 417.556 -1.80108 -5.83432 0
M  V30 4350 H 418.97 -3.60676 -4.4563 0
M  V30 4351 H 417.367 -4.33577 -4.14887 0
M  V30 4352 H 418.437 -3.97065 -2.78329 0
M  V30 4353 N 419.78 1.02168 -1.19998 0
M  V30 4354 C 421.005 1.79833 -1.03319 0
M  V30 4355 C 421.43 1.83504 0.413281 0
M  V30 4356 O 420.788 1.26635 1.29743 0
M  V30 4357 C 420.836 3.22396 -1.61533 0
M  V30 4358 O 419.94 4.03555 -0.849519 0
M  V30 4359 H 419.281 0.554872 -0.364709 0
M  V30 4360 H 421.811 1.28542 -1.59179 0
M  V30 4361 H 421.821 3.73124 -1.65054 0
M  V30 4362 H 420.496 3.19039 -2.66809 0
M  V30 4363 H 419.073 3.62169 -0.888129 0
M  V30 4364 N 421.258 1.00505 1.21394 0
M  V30 4365 C 422.488 0.705584 1.94178 0
M  V30 4366 C 422.896 -0.735846 1.74304 0
M  V30 4367 O 422.239 -1.50954 1.04683 0
M  V30 4368 C 422.301 0.94689 3.46806 0
M  V30 4369 C 421.965 2.37517 3.90429 0
M  V30 4370 C 422.962 3.35539 3.97127 0
M  V30 4371 C 420.647 2.71284 4.22742 0
M  V30 4372 C 422.641 4.65395 4.3553 0
M  V30 4373 C 420.328 4.01356 4.60822 0
M  V30 4374 C 421.326 4.98223 4.67186 0
M  V30 4375 O 421.014 6.25969 5.04399 0
M  V30 4376 H 420.746 0.259216 0.624326 0
M  V30 4377 H 423.3 1.34592 1.55159 0
M  V30 4378 H 421.53 0.249386 3.85895 0
M  V30 4379 H 423.219 0.640804 4.0081 0
M  V30 4380 H 423.985 3.10786 3.7234 0
M  V30 4381 H 419.864 1.96581 4.16985 0
M  V30 4382 H 423.408 5.41002 4.40412 0
M  V30 4383 H 419.305 4.25893 4.85063 0
M  V30 4384 H 420.073 6.30085 5.22431 0
M  V30 4385 N 422.737 -1.36956 0.779787 0
M  V30 4386 C 423.962 -2.04283 0.358224 0
M  V30 4387 C 424.387 -1.58422 -1.01411 0
M  V30 4388 O 423.745 -0.748179 -1.65142 0
M  V30 4389 C 423.793 -3.58152 0.419479 0
M  V30 4390 O 422.897 -4.08342 -0.577142 0
M  V30 4391 H 422.238 -0.645967 0.153698 0
M  V30 4392 H 424.768 -1.75108 1.05822 0
M  V30 4393 H 424.778 -4.07041 0.279636 0
M  V30 4394 H 423.453 -3.90886 1.42061 0
M  V30 4395 H 422.03 -3.70751 -0.399755 0
M  V30 4396 N 424.215 -0.530993 -1.48385 0
M  V30 4397 C 425.44 0.000729535 -2.074 0
M  V30 4398 C 425.865 1.27298 -1.3848 0
M  V30 4399 O 425.223 1.75599 -0.451081 0
M  V30 4400 C 425.271 0.206697 -3.60007 0
M  V30 4401 O 424.375 1.27514 -3.92191 0
M  V30 4402 H 423.716 -0.039583 -0.662819 0
M  V30 4403 H 426.246 -0.739194 -1.9078 0
M  V30 4404 H 426.256 0.42904 -4.05738 0
M  V30 4405 H 424.931 -0.722675 -4.09573 0
M  V30 4406 H 423.508 1.03537 -3.58238 0
M  V30 4407 N 425.693 1.55336 -0.266172 0
M  V30 4408 C 426.64 2.22172 0.625165 0
M  V30 4409 C 427.61 1.19211 1.15663 0
M  V30 4410 O 428.795 1.47723 1.20758 0
M  V30 4411 C 425.935 2.93972 1.8076 0
M  V30 4412 C 425.048 4.11632 1.31084 0
M  V30 4413 C 424.183 4.71099 2.45436 0
M  V30 4414 C 423.222 5.8097 1.92718 0
M  V30 4415 N 422.359 6.34538 3.00509 0
M  V30 4416 H 427.199 2.9796 0.0485582 0
M  V30 4417 H 424.736 1.47095 0.0122024 0
M  V30 4418 H 426.694 3.33811 2.50251 0
M  V30 4419 H 425.324 2.20623 2.35638 0
M  V30 4420 H 424.376 3.76975 0.509326 0
M  V30 4421 H 425.688 4.90893 0.884633 0
M  V30 4422 H 424.842 5.13612 3.22936 0
M  V30 4423 H 423.581 3.91096 2.91368 0
M  V30 4424 H 422.586 5.37916 1.13695 0
M  V30 4425 H 423.811 6.62836 1.47733 0
M  V30 4426 H 421.757 5.57433 3.45839 0
M  V30 4427 H 421.674 7.09046 2.62279 0
M  V30 4428 H 422.942 6.81709 3.78011 0
M  V30 4429 N 427.171 -0.0066808 1.57599 0
M  V30 4430 C 428.118 -1.00024 2.08 0
M  V30 4431 C 429.088 -1.34549 0.973943 0
M  V30 4432 O 430.273 -1.44502 1.24595 0
M  V30 4433 C 427.413 -2.2891 2.58252 0
M  V30 4434 C 426.526 -2.00346 3.82734 0
M  V30 4435 C 425.661 -3.23265 4.21513 0
M  V30 4436 C 424.7 -2.90357 5.3885 0
M  V30 4437 N 423.837 -4.05793 5.72954 0
M  V30 4438 H 428.677 -0.563499 2.92624 0
M  V30 4439 H 426.214 -0.266592 1.44664 0
M  V30 4440 H 428.172 -3.04247 2.85464 0
M  V30 4441 H 426.802 -2.70265 1.76512 0
M  V30 4442 H 425.854 -1.15406 3.62471 0
M  V30 4443 H 427.166 -1.72086 4.68175 0
M  V30 4444 H 426.32 -4.06953 4.49971 0
M  V30 4445 H 425.059 -3.54657 3.34768 0
M  V30 4446 H 424.064 -2.05075 5.10122 0
M  V30 4447 H 425.289 -2.60219 6.27266 0
M  V30 4448 H 423.235 -4.37094 4.89167 0
M  V30 4449 H 423.152 -3.81034 6.52954 0
M  V30 4450 H 424.42 -4.90289 6.06001 0
M  V30 4451 N 428.649 -1.55105 -0.279332 0
M  V30 4452 C 429.559 -1.90638 -1.36727 0
M  V30 4453 C 430.575 -0.802899 -1.54368 0
M  V30 4454 O 431.751 -1.10138 -1.68616 0
M  V30 4455 C 428.816 -2.16547 -2.70755 0
M  V30 4456 C 427.877 -3.40146 -2.61915 0
M  V30 4457 C 427.11 -3.6481 -3.8955 0
M  V30 4458 O 427.333 -2.92095 -4.89935 0
M  V30 4459 O 426.267 -4.58343 -3.90135 0
M  V30 4460 H 430.093 -2.83237 -1.09591 0
M  V30 4461 H 427.678 -1.4157 -0.477306 0
M  V30 4462 H 429.56 -2.34665 -3.50014 0
M  V30 4463 H 428.235 -1.27131 -2.9769 0
M  V30 4464 H 427.142 -3.2737 -1.81052 0
M  V30 4465 H 428.475 -4.29761 -2.3993 0
M  V30 4466 N 430.127 0.543554 -1.4793 0
M  V30 4467 C 431.074 1.64942 -1.6144 0
M  V30 4468 C 432.044 1.59692 -0.456903 0
M  V30 4469 O 433.229 1.78321 -0.678688 0
M  V30 4470 C 430.369 3.03238 -1.64744 0
M  V30 4471 C 429.482 3.18823 -2.91506 0
M  V30 4472 C 428.617 4.47599 -2.86057 0
M  V30 4473 C 427.656 4.56664 -4.07584 0
M  V30 4474 N 426.793 5.76811 -4.00292 0
M  V30 4475 H 431.633 1.52733 -2.55884 0
M  V30 4476 H 429.17 0.7438 -1.2691 0
M  V30 4477 H 431.128 3.83339 -1.64641 0
M  V30 4478 H 429.758 3.1425 -0.738017 0
M  V30 4479 H 428.81 2.32064 -3.01414 0
M  V30 4480 H 430.122 3.21384 -3.81463 0
M  V30 4481 H 429.276 5.35975 -2.84281 0
M  V30 4482 H 428.015 4.47538 -1.93807 0
M  V30 4483 H 427.02 3.66697 -4.09651 0
M  V30 4484 H 428.245 4.58474 -5.00978 0
M  V30 4485 H 426.191 5.77673 -3.10853 0
M  V30 4486 H 426.108 5.80808 -4.8394 0
M  V30 4487 H 427.376 6.67512 -4.02553 0
M  V30 4488 N 431.605 1.3629 0.791371 0
M  V30 4489 C 432.538 1.24816 1.9104 0
M  V30 4490 C 433.516 0.132739 1.62057 0
M  V30 4491 O 434.7 0.303527 1.8604 0
M  V30 4492 C 431.827 0.925355 3.25814 0
M  V30 4493 C 430.873 2.05495 3.7373 0
M  V30 4494 S 431.706 3.67255 3.89723 0
M  V30 4495 C 432.862 3.37084 5.27376 0
M  V30 4496 H 433.095 2.19533 2.00481 0
M  V30 4497 H 430.628 1.21684 0.950393 0
M  V30 4498 H 432.586 0.745924 4.03666 0
M  V30 4499 H 431.247 -0.00400098 3.141 0
M  V30 4500 H 430.44 1.7836 4.71385 0
M  V30 4501 H 430.042 2.1935 3.02922 0
M  V30 4502 H 432.334 2.90856 6.1189 0
M  V30 4503 H 433.277 4.33995 5.59512 0
M  V30 4504 H 433.685 2.7248 4.94383 0
M  V30 4505 N 433.083 -1.0153 1.20538 0
M  V30 4506 C 434.33 -1.75149 1.01633 0
M  V30 4507 C 434.658 -1.89189 -0.451399 0
M  V30 4508 O 433.913 -1.41551 -1.35136 0
M  V30 4509 C 434.212 -3.17213 1.64654 0
M  V30 4510 C 433.878 -3.23146 3.14464 0
M  V30 4511 C 432.54 -3.24472 3.55347 0
M  V30 4512 C 434.892 -3.21207 4.10458 0
M  V30 4513 C 432.22 -3.21532 4.90748 0
M  V30 4514 C 434.572 -3.19808 5.45807 0
M  V30 4515 C 433.236 -3.19439 5.86102 0
M  V30 4516 H 432.506 -0.640914 0.3719 0
M  V30 4517 H 435.153 -1.19071 1.49981 0
M  V30 4518 H 433.458 -3.76457 1.08571 0
M  V30 4519 H 435.155 -3.72871 1.4754 0
M  V30 4520 H 431.745 -3.2285 2.81897 0
M  V30 4521 H 435.929 -3.19351 3.79906 0
M  V30 4522 H 431.185 -3.19578 5.21229 0
M  V30 4523 H 435.359 -3.1726 6.19935 0
M  V30 4524 H 432.986 -3.16915 6.90991 0
M  V30 4525 N 434.561 -1.01147 -1.20859 0
M  V30 4526 C 435.491 -0.597663 -2.25722 0
M  V30 4527 C 436.472 0.384744 -1.65692 0
M  V30 4528 O 437.657 0.271303 -1.92296 0
M  V30 4529 C 434.787 0.0700149 -3.47229 0
M  V30 4530 C 433.741 -0.832843 -4.19819 0
M  V30 4531 C 433.067 -0.0312202 -5.34691 0
M  V30 4532 C 434.367 -2.1385 -4.76514 0
M  V30 4533 H 436.061 -1.47423 -2.60589 0
M  V30 4534 H 433.607 -0.710301 -1.25263 0
M  V30 4535 H 435.56 0.37103 -4.19763 0
M  V30 4536 H 434.284 0.981259 -3.11511 0
M  V30 4537 H 432.943 -1.11778 -3.49144 0
M  V30 4538 H 432.591 0.881515 -4.95215 0
M  V30 4539 H 432.291 -0.632434 -5.84187 0
M  V30 4540 H 433.815 0.26346 -6.10031 0
M  V30 4541 H 435.229 -1.9002 -5.40893 0
M  V30 4542 H 433.626 -2.69012 -5.36426 0
M  V30 4543 H 434.696 -2.80495 -3.95538 0
M  V30 4544 N 436.039 1.36541 -0.78704 0
M  V30 4545 C 436.989 2.27459 -0.156957 0
M  V30 4546 C 437.973 1.46843 0.657709 0
M  V30 4547 O 439.165 1.69245 0.518173 0
M  V30 4548 C 436.294 3.35893 0.709278 0
M  V30 4549 C 435.38 4.23947 -0.114049 0
M  V30 4550 N 435.771 4.92145 -1.16736 0
M  V30 4551 C 434.069 4.4587 0.107497 0
M  V30 4552 C 434.77 5.57261 -1.66837 0
M  V30 4553 N 433.746 5.3473 -0.977992 0
M  V30 4554 H 437.548 2.77669 -0.963185 0
M  V30 4555 H 435.062 1.49839 -0.62627 0
M  V30 4556 H 437.059 3.99953 1.17656 0
M  V30 4557 H 435.719 2.87238 1.51408 0
M  V30 4558 H 436.73 4.94169 -1.54976 0
M  V30 4559 H 433.407 4.08056 0.882994 0
M  V30 4560 H 434.797 6.21728 -2.54762 0
M  V30 4561 N 437.518 0.538854 1.48102 0
M  V30 4562 C 438.764 0.00801365 2.02798 0
M  V30 4563 C 439.097 -1.3309 1.41424 0
M  V30 4564 O 438.372 -1.86169 0.563158 0
M  V30 4565 C 438.655 -0.104589 3.59948 0
M  V30 4566 C 438.508 1.26012 4.31788 0
M  V30 4567 C 439.827 -0.827055 4.32259 0
M  V30 4568 H 436.946 0.00438624 0.736987 0
M  V30 4569 H 439.588 0.6976 1.7673 0
M  V30 4570 H 437.738 -0.691893 3.82289 0
M  V30 4571 H 439.41 1.88922 4.2084 0
M  V30 4572 H 437.653 1.83968 3.92859 0
M  V30 4573 H 438.324 1.13424 5.40221 0
M  V30 4574 H 440.8 -0.328578 4.14801 0
M  V30 4575 H 439.676 -0.87476 5.41885 0
M  V30 4576 H 439.937 -1.87927 4.0017 0
M  V30 4577 N 438.996 -1.55193 0.274407 0
M  V30 4578 C 439.943 -2.225 -0.613374 0
M  V30 4579 C 440.913 -1.19823 -1.15029 0
M  V30 4580 O 442.098 -1.48362 -1.19973 0
M  V30 4581 C 439.238 -2.94927 -1.79199 0
M  V30 4582 C 438.351 -4.12322 -1.28899 0
M  V30 4583 C 437.486 -4.72394 -2.42934 0
M  V30 4584 C 436.525 -5.81984 -1.89634 0
M  V30 4585 N 435.662 -6.36123 -2.9714 0
M  V30 4586 H 440.502 -2.97982 -0.032756 0
M  V30 4587 H 438.039 -1.47099 -0.00440146 0
M  V30 4588 H 439.997 -3.35134 -2.48478 0
M  V30 4589 H 438.627 -2.2187 -2.34465 0
M  V30 4590 H 437.679 -3.7724 -0.489327 0
M  V30 4591 H 438.991 -4.91355 -0.858587 0
M  V30 4592 H 438.145 -5.15317 -3.20208 0
M  V30 4593 H 436.884 -3.92636 -2.8929 0
M  V30 4594 H 435.889 -5.38511 -1.1084 0
M  V30 4595 H 437.114 -6.6361 -1.44215 0
M  V30 4596 H 435.06 -5.59259 -3.42878 0
M  V30 4597 H 434.977 -7.10427 -2.58515 0
M  V30 4598 H 436.245 -6.83704 -3.74391 0
M  V30 4599 N 440.474 -0.00167713 -1.576 0
M  V30 4600 C 441.722 0.681471 -1.90264 0
M  V30 4601 C 442.043 1.7422 -0.875924 0
M  V30 4602 O 441.313 1.95709 0.0864412 0
M  V30 4603 H 439.893 0.254696 -0.702239 0
M  V30 4604 H 442.555 -0.0429996 -1.94853 0
M  V30 4605 H 441.651 1.15166 -2.90075 0
M  V30 4606 N 441.952 1.55251 0.271103 0
M  V30 4607 C 442.862 1.9136 1.35714 0
M  V30 4608 C 443.878 0.811075 1.5394 0
M  V30 4609 O 445.054 1.11031 1.6803 0
M  V30 4610 C 442.119 2.1798 2.69603 0
M  V30 4611 C 441.18 3.4153 2.60107 0
M  V30 4612 C 440.413 3.66871 3.8761 0
M  V30 4613 O 440.636 2.94689 4.8838 0
M  V30 4614 O 439.57 4.60405 3.87699 0
M  V30 4615 H 443.396 2.83815 1.08088 0
M  V30 4616 H 440.981 1.41821 0.469792 0
M  V30 4617 H 442.863 2.36518 3.48765 0
M  V30 4618 H 441.538 1.28708 2.97012 0
M  V30 4619 H 440.445 3.28325 1.79314 0
M  V30 4620 H 441.778 4.31027 2.37647 0
M  V30 4621 N 443.43 -0.535701 1.48216 0
M  V30 4622 C 444.679 -1.28828 1.55197 0
M  V30 4623 C 444.992 -1.94263 0.228278 0
M  V30 4624 O 446.198 -2.70927 0.176278 0
M  V30 4625 C 444.654 -2.33727 2.73678 0
M  V30 4626 C 444.262 -1.74386 4.12666 0
M  V30 4627 C 446.006 -3.1003 2.89968 0
M  V30 4628 C 443.913 -2.77192 5.22416 0
M  V30 4629 H 442.843 -0.484484 0.577747 0
M  V30 4630 H 445.494 -0.56646 1.74538 0
M  V30 4631 H 443.876 -3.08919 2.4776 0
M  V30 4632 H 445.05 -1.05421 4.48579 0
M  V30 4633 H 443.365 -1.10595 4.01445 0
M  V30 4634 H 445.962 -3.86842 3.6913 0
M  V30 4635 H 446.305 -3.65542 1.9921 0
M  V30 4636 H 446.838 -2.41952 3.15759 0
M  V30 4637 H 443.577 -2.26507 6.15122 0
M  V30 4638 H 443.097 -3.44502 4.90998 0
M  V30 4639 H 444.776 -3.40285 5.50286 0
M  V30 4640 N 444.908 -1.36708 -0.784132 0
M  V30 4641 C 445.858 -1.2799 -1.88686 0
M  V30 4642 C 446.842 -0.170282 -1.59996 0
M  V30 4643 O 448.034 -0.403571 -1.72338 0
M  V30 4644 C 445.163 -1.07674 -3.25977 0
M  V30 4645 C 444.249 -2.23127 -3.60659 0
M  V30 4646 N 444.64 -3.48467 -3.66612 0
M  V30 4647 C 442.938 -2.15009 -3.90752 0
M  V30 4648 C 443.639 -4.24525 -3.97685 0
M  V30 4649 N 442.615 -3.53524 -4.12943 0
M  V30 4650 H 446.417 -2.22927 -1.91522 0
M  V30 4651 H 443.931 -1.29503 -0.979933 0
M  V30 4652 H 445.928 -0.995151 -4.04849 0
M  V30 4653 H 444.588 -0.13643 -3.24413 0
M  V30 4654 H 445.599 -3.82534 -3.49125 0
M  V30 4655 H 442.276 -1.28963 -3.97083 0
M  V30 4656 H 443.666 -5.32944 -4.0917 0
M  V30 4657 N 446.386 1.0089 -1.21074 0
M  V30 4658 C 447.316 2.1145 -0.990523 0
M  V30 4659 C 448.297 1.69897 0.0831699 0
M  V30 4660 O 449.482 1.94052 -0.0758853 0
M  V30 4661 C 446.612 3.42914 -0.550177 0
M  V30 4662 C 445.566 3.98244 -1.56799 0
M  V30 4663 C 444.892 5.25568 -0.984013 0
M  V30 4664 C 446.192 4.30752 -2.95381 0
M  V30 4665 H 447.886 2.3013 -1.91521 0
M  V30 4666 H 445.432 1.10592 -0.92225 0
M  V30 4667 H 447.385 4.19653 -0.383305 0
M  V30 4668 H 446.109 3.24014 0.41015 0
M  V30 4669 H 444.768 3.23621 -1.72236 0
M  V30 4670 H 444.416 5.02998 -0.0155216 0
M  V30 4671 H 444.116 5.63551 -1.66384 0
M  V30 4672 H 445.64 6.04955 -0.828378 0
M  V30 4673 H 447.054 4.98349 -2.8341 0
M  V30 4674 H 445.451 4.79869 -3.60341 0
M  V30 4675 H 446.521 3.39192 -3.46521 0
M  V30 4676 N 447.864 1.01787 1.20321 0
M  V30 4677 C 449.112 0.706538 1.89347 0
M  V30 4678 C 449.433 -0.766289 1.79313 0
M  V30 4679 O 448.703 -1.55126 1.19635 0
M  V30 4680 H 447.283 0.258348 0.700903 0
M  V30 4681 H 449.945 1.28974 1.46122 0
M  V30 4682 H 449.041 0.991066 2.95946 0
M  V30 4683 N 449.342 -1.36122 0.79427 0
M  V30 4684 C 450.758 -1.5232 0.476525 0
M  V30 4685 C 450.958 -1.74685 -1.00436 0
M  V30 4686 O 450.014 -1.78115 -1.78973 0
M  V30 4687 C 451.327 -2.70607 1.31119 0
M  V30 4688 C 452.875 -2.8448 1.30537 0
M  V30 4689 C 453.35 -4.05778 2.12387 0
M  V30 4690 N 454.841 -4.12933 2.09859 0
M  V30 4691 C 455.576 -5.05876 2.69957 0
M  V30 4692 N 455.072 -6.04232 3.38934 0
M  V30 4693 N 456.865 -4.98528 2.59665 0
M  V30 4694 H 449.016 -1.1986 1.75349 0
M  V30 4695 H 451.279 -0.585418 0.745647 0
M  V30 4696 H 450.985 -2.60619 2.36158 0
M  V30 4697 H 450.859 -3.64888 0.955843 0
M  V30 4698 H 453.246 -2.93927 0.262876 0
M  V30 4699 H 453.327 -1.91093 1.70051 0
M  V30 4700 H 452.971 -3.97092 3.1667 0
M  V30 4701 H 452.901 -4.98323 1.70242 0
M  V30 4702 H 455.392 -3.42515 1.59662 0
M  V30 4703 H 455.705 -6.71724 3.82109 0
M  V30 4704 H 454.05 -6.04443 3.43036 0
M  V30 4705 H 457.241 -4.20641 2.05375 0
M  V30 4706 H 457.414 -5.70773 3.06793 0
M  V30 4707 N 450.82 -0.546701 -1.47814 0
M  V30 4708 C 452.067 -0.0187407 -2.02491 0
M  V30 4709 C 452.395 1.32685 -1.42215 0
M  V30 4710 O 451.65 1.87413 -0.563454 0
M  V30 4711 C 451.949 0.134869 -3.57145 0
M  V30 4712 C 451.615 -1.13849 -4.3629 0
M  V30 4713 C 450.277 -1.48743 -4.57634 0
M  V30 4714 C 452.629 -1.98277 -4.82012 0
M  V30 4715 C 449.957 -2.67932 -5.21948 0
M  V30 4716 C 452.309 -3.16659 -5.4764 0
M  V30 4717 C 450.973 -3.51879 -5.67219 0
M  V30 4718 H 450.243 -0.0068577 -0.740968 0
M  V30 4719 H 452.89 -0.716097 -1.77607 0
M  V30 4720 H 451.195 0.915118 -3.80963 0
M  V30 4721 H 452.892 0.558556 -3.97091 0
M  V30 4722 H 449.482 -0.856767 -4.19949 0
M  V30 4723 H 453.666 -1.72628 -4.6531 0
M  V30 4724 H 448.922 -2.95401 -5.35302 0
M  V30 4725 H 453.096 -3.82374 -5.82033 0
M  V30 4726 H 450.723 -4.44331 -6.16825 0
M  V30 4727 N 452.299 1.55045 -0.282633 0
M  V30 4728 C 453.545 2.00056 0.332481 0
M  V30 4729 C 453.878 1.1708 1.54939 0
M  V30 4730 O 453.153 0.2427 1.9298 0
M  V30 4731 C 453.436 3.53086 0.70725 0
M  V30 4732 C 453.289 4.46813 -0.517521 0
M  V30 4733 C 454.608 4.12245 1.54084 0
M  V30 4734 H 451.727 0.727268 0.119373 0
M  V30 4735 H 454.369 1.85932 -0.391076 0
M  V30 4736 H 452.519 3.65253 1.32372 0
M  V30 4737 H 454.191 4.46579 -1.15607 0
M  V30 4738 H 452.434 4.18163 -1.1542 0
M  V30 4739 H 453.105 5.51595 -0.211426 0
M  V30 4740 H 455.581 4.03401 1.02013 0
M  V30 4741 H 454.457 5.19515 1.77186 0
M  V30 4742 H 454.718 3.62951 2.52427 0
M  V30 4743 N 453.777 0.010035 1.57597 0
M  V30 4744 C 454.71 -1.01234 2.04516 0
M  V30 4745 C 455.688 -1.32886 0.937024 0
M  V30 4746 O 456.872 -1.44879 1.20592 0
M  V30 4747 C 453.999 -2.33738 2.45121 0
M  V30 4748 C 453.045 -2.17679 3.66767 0
M  V30 4749 S 453.878 -1.49343 5.14254 0
M  V30 4750 C 455.034 -2.83256 5.58137 0
M  V30 4751 H 455.267 -0.612866 2.90914 0
M  V30 4752 H 452.8 -0.201124 1.53084 0
M  V30 4753 H 454.758 -3.09922 2.69182 0
M  V30 4754 H 453.419 -2.70823 1.59103 0
M  V30 4755 H 452.612 -3.1559 3.92962 0
M  V30 4756 H 452.214 -1.4964 3.42759 0
M  V30 4757 H 454.506 -3.79538 5.6121 0
M  V30 4758 H 455.449 -2.61749 6.57946 0
M  V30 4759 H 455.857 -2.87627 4.85727 0
M  V30 4760 N 455.255 -1.55392 -0.262866 0
M  V30 4761 C 456.671 -1.47459 -0.610582 0
M  V30 4762 C 456.871 -0.697031 -1.8906 0
M  V30 4763 O 455.927 -0.219952 -2.5154 0
M  V30 4764 C 457.24 -2.91751 -0.728131 0
M  V30 4765 C 458.788 -3.02027 -0.821517 0
M  V30 4766 C 459.263 -4.47594 -0.97076 0
M  V30 4767 N 460.754 -4.51465 -1.03603 0
M  V30 4768 C 461.489 -5.61326 -1.17049 0
M  V30 4769 N 460.985 -6.81032 -1.2715 0
M  V30 4770 N 462.778 -5.49089 -1.20239 0
M  V30 4771 H 454.929 -2.04395 0.577632 0
M  V30 4772 H 457.192 -0.927287 0.197086 0
M  V30 4773 H 456.898 -3.51413 0.142132 0
M  V30 4774 H 456.772 -3.4134 -1.6052 0
M  V30 4775 H 459.159 -2.42456 -1.68224 0
M  V30 4776 H 459.24 -2.55674 0.0803688 0
M  V30 4777 H 458.884 -5.07771 -0.114655 0
M  V30 4778 H 458.814 -4.91613 -1.88745 0
M  V30 4779 H 461.305 -3.6524 -0.96996 0
M  V30 4780 H 461.618 -7.60511 -1.37271 0
M  V30 4781 H 459.963 -6.83824 -1.24136 0
M  V30 4782 H 463.154 -4.54507 -1.11985 0
M  V30 4783 H 463.327 -6.34749 -1.30373 0
M  V30 4784 N 456.733 0.527833 -1.48498 0
M  V30 4785 C 457.681 1.65313 -1.63628 0
M  V30 4786 C 458.675 1.6177 -0.502676 0
M  V30 4787 O 459.881 1.66601 -0.681469 0
M  V30 4788 H 456.256 0.547518 -0.515488 0
M  V30 4789 H 458.227 1.49696 -2.58135 0
M  V30 4790 C 456.976 3.03576 -1.6952 0
M  V30 4791 H 456.299 3.06997 -2.56111 0
M  V30 4792 H 457.739 3.81923 -1.84149 0
M  V30 4793 C 456.198 3.34089 -0.43432 0
M  V30 4794 O 456.728 3.99151 0.451852 0
M  V30 4795 N 454.934 2.88991 -0.305368 0
M  V30 4796 H 454.481 2.36222 -1.02747 0
M  V30 4797 H 454.439 3.09776 0.537249 0
M  V30 4798 N 458.211 1.37122 0.776871 0
M  V30 4799 C 459.627 1.1781 1.07671 0
M  V30 4800 C 459.827 0.0107454 2.01497 0
M  V30 4801 O 458.883 -0.650756 2.4397 0
M  V30 4802 C 460.196 2.49451 1.67913 0
M  V30 4803 C 461.744 2.55927 1.80195 0
M  V30 4804 C 462.219 3.87686 2.43851 0
M  V30 4805 N 463.71 3.891 2.51307 0
M  V30 4806 C 464.445 4.87797 3.014 0
M  V30 4807 N 463.941 5.96888 3.51705 0
M  V30 4808 N 465.734 4.75205 3.00227 0
M  V30 4809 H 457.885 2.11843 0.153778 0
M  V30 4810 H 460.148 0.938927 0.130844 0
M  V30 4811 H 459.854 3.35207 1.06439 0
M  V30 4812 H 459.728 2.66169 2.67271 0
M  V30 4813 H 462.115 1.70582 2.40803 0
M  V30 4814 H 462.196 2.43097 0.796069 0
M  V30 4815 H 461.84 4.73444 1.83884 0
M  V30 4816 H 461.77 3.97817 3.45035 0
M  V30 4817 H 464.261 3.10293 2.157 0
M  V30 4818 H 464.574 6.68155 3.88316 0
M  V30 4819 H 462.919 6.0054 3.49824 0
M  V30 4820 H 466.11 3.89103 2.60224 0
M  V30 4821 H 466.283 5.52279 3.38957 0
M  V30 4822 N 459.689 -1.00246 1.21608 0
M  V30 4823 C 460.966 -1.71336 0.943568 0
M  V30 4824 C 461.346 -2.03972 -0.543943 0
M  V30 4825 O 460.694 -1.71545 -1.50946 0
M  V30 4826 C 460.904 -2.97094 1.83128 0
M  V30 4827 C 462.252 -3.70071 2.08165 0
M  V30 4828 O 463.276 -3.07081 1.80498 0
M  V30 4829 O 462.135 -4.83376 2.54971 0
M  V30 4830 H 459.229 -0.747386 0.354039 0
M  V30 4831 H 461.775 -1.05967 1.32549 0
M  V30 4832 H 460.547 -2.69407 2.83788 0
M  V30 4833 H 460.17 -3.70204 1.45034 0
M  V30 4834 N 461.167 -1.02423 -1.1978 0
M  V30 4835 C 462.413 -0.719051 -1.89625 0
M  V30 4836 C 462.746 0.750083 -1.7913 0
M  V30 4837 O 462.021 1.54574 -1.18056 0
M  V30 4838 C 462.304 -1.16499 -3.40735 0
M  V30 4839 C 462.157 -2.695 -3.60125 0
M  V30 4840 C 463.476 -0.742166 -4.33797 0
M  V30 4841 H 460.595 -0.26269 -0.688595 0
M  V30 4842 H 463.237 -1.27333 -1.41018 0
M  V30 4843 H 461.387 -0.69341 -3.82262 0
M  V30 4844 H 463.059 -3.24569 -3.278 0
M  V30 4845 H 461.302 -3.10113 -3.03336 0
M  V30 4846 H 461.973 -2.95757 -4.66081 0
M  V30 4847 H 464.449 -1.1477 -3.99959 0
M  V30 4848 H 463.325 -1.08213 -5.38127 0
M  V30 4849 H 463.586 0.355747 -4.40666 0
M  V30 4850 N 462.645 1.35699 -0.801477 0
M  V30 4851 C 463.891 1.99208 -0.380022 0
M  V30 4852 C 464.224 1.63445 1.04878 0
M  V30 4853 O 463.499 0.895223 1.72673 0
M  V30 4854 C 463.782 3.55755 -0.557708 0
M  V30 4855 C 463.635 4.01332 -2.03107 0
M  V30 4856 C 464.954 4.40096 0.0197968 0
M  V30 4857 H 462.073 0.723667 -0.139552 0
M  V30 4858 H 464.715 1.60928 -1.01006 0
M  V30 4859 H 462.865 3.88494 -0.0213741 0
M  V30 4860 H 464.537 3.79026 -2.62939 0
M  V30 4861 H 462.78 3.52429 -2.52936 0
M  V30 4862 H 463.451 5.10234 -2.1063 0
M  V30 4863 H 465.927 4.13786 -0.438179 0
M  V30 4864 H 464.803 5.48735 -0.134477 0
M  V30 4865 H 465.064 4.2786 1.11303 0
M  V30 4866 N 464.123 0.554532 1.47522 0
M  V30 4867 C 465.053 -0.182974 2.32782 0
M  V30 4868 C 466.034 -0.911377 1.43624 0
M  V30 4869 O 467.219 -0.892366 1.72483 0
M  V30 4870 C 464.349 -1.21513 3.25349 0
M  V30 4871 C 463.303 -0.603355 4.23726 0
M  V30 4872 C 462.629 -1.73995 5.05598 0
M  V30 4873 C 463.929 0.441121 5.20434 0
M  V30 4874 H 465.623 0.52882 2.94693 0
M  V30 4875 H 463.169 0.255759 1.41711 0
M  V30 4876 H 465.122 -1.73922 3.83835 0
M  V30 4877 H 463.846 -1.95683 2.61487 0
M  V30 4878 H 462.505 -0.10059 3.66462 0
M  V30 4879 H 462.153 -2.47063 4.38143 0
M  V30 4880 H 461.853 -1.3364 5.72201 0
M  V30 4881 H 463.377 -2.26735 5.66942 0
M  V30 4882 H 464.791 0.00319931 5.733 0
M  V30 4883 H 463.188 0.763402 5.95224 0
M  V30 4884 H 464.258 1.33799 4.66075 0
M  V30 4885 N 465.601 -1.54893 0.290851 0
M  V30 4886 C 466.829 -2.04343 -0.324288 0
M  V30 4887 C 467.244 -1.16859 -1.48289 0
M  V30 4888 O 466.601 -0.192018 -1.81487 0
M  V30 4889 C 466.652 -3.52756 -0.79026 0
M  V30 4890 O 466.373 -4.36913 0.322213 0
M  V30 4891 C 467.874 -4.18161 -1.4716 0
M  V30 4892 H 465.094 -0.667135 -0.0719173 0
M  V30 4893 H 467.638 -1.99981 0.427529 0
M  V30 4894 H 465.793 -3.57511 -1.49213 0
M  V30 4895 H 466.207 -5.24486 -0.0387372 0
M  V30 4896 H 467.681 -5.23562 -1.7489 0
M  V30 4897 H 468.158 -3.67282 -2.40834 0
M  V30 4898 H 468.764 -4.17454 -0.813178 0
M  V30 4899 N 467.08 -0.0183926 -1.57589 0
M  V30 4900 C 468.308 0.673046 -1.95647 0
M  V30 4901 C 468.723 1.66275 -0.894312 0
M  V30 4902 O 468.08 1.82072 0.124975 0
M  V30 4903 C 468.131 1.38884 -3.33756 0
M  V30 4904 O 467.852 0.438806 -4.35897 0
M  V30 4905 C 469.353 2.1731 -3.86383 0
M  V30 4906 H 466.573 0.186292 -0.644621 0
M  V30 4907 H 469.117 -0.0749748 -2.04363 0
M  V30 4908 H 467.272 2.08835 -3.26293 0
M  V30 4909 H 467.686 0.945869 -5.15901 0
M  V30 4910 H 469.16 2.62863 -4.85394 0
M  V30 4911 H 469.637 3.00764 -3.20059 0
M  V30 4912 H 470.243 1.52339 -3.97081 0
M  V30 4913 N 468.558 1.5553 0.254621 0
M  V30 4914 C 469.786 1.81046 1.00149 0
M  V30 4915 C 470.201 0.593047 1.79244 0
M  V30 4916 O 469.558 -0.438196 1.77161 0
M  V30 4917 C 469.609 3.04684 1.94551 0
M  V30 4918 O 469.33 4.21725 1.18658 0
M  V30 4919 C 470.831 3.42943 2.80901 0
M  V30 4920 H 468.051 0.602653 0.295044 0
M  V30 4921 H 470.595 2.02576 0.279842 0
M  V30 4922 H 468.75 2.85226 2.62154 0
M  V30 4923 H 469.164 4.91746 1.82445 0
M  V30 4924 H 470.638 4.32576 3.42902 0
M  V30 4925 H 471.115 2.63176 3.51617 0
M  V30 4926 H 471.721 3.64724 2.18762 0
M  V30 4927 N 470.036 -0.519951 1.48776 0
M  V30 4928 C 471.283 -1.27522 1.57303 0
M  V30 4929 C 471.611 -1.92869 0.251328 0
M  V30 4930 O 470.866 -1.80372 -0.759243 0
M  V30 4931 C 471.165 -2.37864 2.6675 0
M  V30 4932 C 470.831 -1.90103 4.08867 0
M  V30 4933 C 469.493 -1.76795 4.47546 0
M  V30 4934 C 471.845 -1.54133 4.97888 0
M  V30 4935 C 469.173 -1.25868 5.73039 0
M  V30 4936 C 471.525 -1.04665 6.23881 0
M  V30 4937 C 470.189 -0.899823 6.61407 0
M  V30 4938 H 469.459 -0.466636 0.575614 0
M  V30 4939 H 472.106 -0.579109 1.82534 0
M  V30 4940 H 470.411 -3.13186 2.35418 0
M  V30 4941 H 472.108 -2.95969 2.70561 0
M  V30 4942 H 468.698 -2.01414 3.78326 0
M  V30 4943 H 472.882 -1.6327 4.68675 0
M  V30 4944 H 468.138 -1.13196 6.0083 0
M  V30 4945 H 472.312 -0.759074 6.92251 0
M  V30 4946 H 469.939 -0.503011 7.58534 0
M  V30 4947 N 471.514 -1.37532 -0.769588 0
M  V30 4948 C 472.76 -1.33057 -1.53048 0
M  V30 4949 C 473.093 0.0841865 -1.94017 0
M  V30 4950 O 472.368 1.04198 -1.64235 0
M  V30 4951 C 472.651 -2.27166 -2.79406 0
M  V30 4952 C 472.504 -3.77429 -2.44677 0
M  V30 4953 C 473.823 -2.19683 -3.81349 0
M  V30 4954 H 470.942 -0.484655 -0.555228 0
M  V30 4955 H 473.584 -1.68251 -0.882702 0
M  V30 4956 H 471.734 -1.97283 -3.34682 0
M  V30 4957 H 473.406 -4.17918 -1.953 0
M  V30 4958 H 471.649 -3.95892 -1.77346 0
M  V30 4959 H 472.32 -4.38716 -3.35011 0
M  V30 4960 H 474.796 -2.46029 -3.35573 0
M  V30 4961 H 473.672 -2.87668 -4.67481 0
M  V30 4962 H 473.933 -1.19045 -4.25771 0
M  V30 4963 N 472.992 0.995999 -1.22138 0
M  V30 4964 C 474.269 1.70834 -0.952642 0
M  V30 4965 C 474.649 2.04257 0.533119 0
M  V30 4966 O 473.997 1.72343 1.50034 0
M  V30 4967 C 474.207 2.96119 -1.84701 0
M  V30 4968 C 475.555 3.68962 -2.10124 0
M  V30 4969 O 476.579 3.0612 -1.82124 0
M  V30 4970 O 475.438 4.82017 -2.57531 0
M  V30 4971 H 472.532 0.745498 -0.357997 0
M  V30 4972 H 475.078 1.05262 -1.33109 0
M  V30 4973 H 473.85 2.67898 -2.85213 0
M  V30 4974 H 473.473 3.6943 -1.46995 0
M  V30 4975 N 474.47 1.03057 1.19235 0
M  V30 4976 C 475.747 0.642608 1.84743 0
M  V30 4977 C 476.127 -0.878577 1.91948 0
M  V30 4978 O 475.475 -1.77597 1.43776 0
M  V30 4979 C 475.685 1.30665 3.23616 0
M  V30 4980 C 477.033 1.43098 3.9976 0
M  V30 4981 O 478.057 1.26396 3.3302 0
M  V30 4982 O 476.916 1.70223 5.19313 0
M  V30 4983 H 474.01 0.223573 0.796206 0
M  V30 4984 H 476.556 1.12883 1.26711 0
M  V30 4985 H 475.328 2.34544 3.13217 0
M  V30 4986 H 474.951 0.808405 3.89295 0
M  V30 4987 N 475.948 -1.35272 0.808662 0
M  V30 4988 C 477.197 -1.97963 0.386483 0
M  V30 4989 C 477.51 -1.64866 -1.05255 0
M  V30 4990 O 478.716 -2.20937 -1.57794 0
M  V30 4991 C 477.172 -3.54162 0.640096 0
M  V30 4992 C 476.78 -3.96166 2.0918 0
M  V30 4993 C 478.524 -4.23553 0.283376 0
M  V30 4994 C 476.431 -5.4522 2.29106 0
M  V30 4995 H 475.361 -0.740742 0.140774 0
M  V30 4996 H 478.012 -1.5431 0.993012 0
M  V30 4997 H 476.394 -3.95983 -0.0364117 0
M  V30 4998 H 477.568 -3.65491 2.80629 0
M  V30 4999 H 475.883 -3.3967 2.40859 0
M  V30 5000 H 478.48 -5.33124 0.410273 0
M  V30 5001 H 478.823 -4.09105 -0.770659 0
M  V30 5002 H 479.356 -3.8716 0.913884 0
M  V30 5003 H 476.095 -5.64638 3.32962 0
M  V30 5004 H 475.615 -5.77457 1.62184 0
M  V30 5005 H 477.294 -6.1171 2.1076 0
M  V30 5006 N 477.426 -0.562348 -1.47226 0
M  V30 5007 C 478.373 0.182461 -2.30078 0
M  V30 5008 C 479.343 0.903503 -1.39377 0
M  V30 5009 O 480.528 0.898188 -1.68337 0
M  V30 5010 C 477.668 1.20322 -3.23445 0
M  V30 5011 C 476.781 0.487717 -4.29238 0
M  V30 5012 C 475.916 1.49422 -5.09752 0
M  V30 5013 C 474.955 0.763976 -6.07314 0
M  V30 5014 N 474.092 1.71755 -6.80768 0
M  V30 5015 H 478.932 -0.530169 -2.93246 0
M  V30 5016 H 476.469 -0.273276 -1.44539 0
M  V30 5017 H 478.427 1.80768 -3.76004 0
M  V30 5018 H 477.057 1.88382 -2.6213 0
M  V30 5019 H 476.109 -0.231374 -3.79696 0
M  V30 5020 H 477.421 -0.0841003 -4.98729 0
M  V30 5021 H 476.575 2.17206 -5.66486 0
M  V30 5022 H 475.314 2.09995 -4.40174 0
M  V30 5023 H 474.319 0.0722344 -5.49753 0
M  V30 5024 H 475.544 0.16391 -6.78902 0
M  V30 5025 H 473.49 2.31177 -6.13916 0
M  V30 5026 H 473.407 1.19802 -7.46447 0
M  V30 5027 H 474.675 2.38638 -7.42073 0
M  V30 5028 N 478.904 1.54736 -0.299062 0
M  V30 5029 C 479.867 2.22127 0.565012 0
M  V30 5030 C 480.867 1.20669 1.06281 0
M  V30 5031 O 482.057 1.45417 0.959145 0
M  V30 5032 C 479.189 2.90611 1.78208 0
M  V30 5033 H 480.382 2.99891 -0.0237448 0
M  V30 5034 H 477.935 1.5622 -0.0498788 0
M  V30 5035 H 478.67 2.16921 2.41072 0
M  V30 5036 H 478.455 3.64984 1.43281 0
M  V30 5037 H 479.945 3.42026 2.396 0
M  V30 5038 N 480.382 0.0267497 1.57577 0
M  V30 5039 C 481.312 -0.954308 2.13108 0
M  V30 5040 C 482.293 -1.34088 1.04663 0
M  V30 5041 O 483.478 -1.41992 1.32484 0
M  V30 5042 C 480.608 -2.23744 2.65624 0
M  V30 5043 C 479.562 -1.99168 3.78835 0
M  V30 5044 C 478.888 -3.33726 4.17769 0
M  V30 5045 C 480.188 -1.33277 5.0501 0
M  V30 5046 H 481.882 -0.491848 2.95332 0
M  V30 5047 H 479.428 -0.23514 1.42067 0
M  V30 5048 H 481.381 -2.92754 3.03106 0
M  V30 5049 H 480.105 -2.72151 1.80558 0
M  V30 5050 H 478.764 -1.32577 3.41788 0
M  V30 5051 H 478.412 -3.79888 3.29688 0
M  V30 5052 H 478.112 -3.18089 4.94058 0
M  V30 5053 H 479.636 -4.04008 4.57832 0
M  V30 5054 H 481.05 -1.92283 5.40093 0
M  V30 5055 H 479.447 -1.28045 5.8628 0
M  V30 5056 H 480.517 -0.305411 4.83937 0
M  V30 5057 N 481.861 -1.55662 -0.24637 0
M  V30 5058 C 483.272 -1.67953 -0.81539 0
M  V30 5059 C 483.623 -0.624302 -1.86002 0
M  V30 5060 O 482.748 0.229328 -2.15181 0
M  V30 5061 C 483.343 -3.04484 -1.48576 0
M  V30 5062 C 481.902 -3.18713 -2.00248 0
M  V30 5063 C 481.049 -2.6383 -0.853766 0
M  V30 5064 H 484 -1.58685 -0.0221692 0
M  V30 5065 H 484.021 -2.98959 -2.3538 0
M  V30 5066 H 483.533 -3.81264 -0.725222 0
M  V30 5067 H 481.634 -2.46757 -2.79181 0
M  V30 5068 H 481.747 -4.25628 -2.1995 0
M  V30 5069 H 480.111 -2.21667 -1.25442 0
M  V30 5070 H 480.894 -3.43135 -0.106302 0
M  V30 5071 N 483.339 0.512053 -1.4905 0
M  V30 5072 C 484.567 1.29116 -1.61669 0
M  V30 5073 C 484.982 1.86655 -0.283787 0
M  V30 5074 O 484.339 1.67293 0.729331 0
M  V30 5075 C 484.39 2.4293 -2.67707 0
M  V30 5076 O 484.111 1.87758 -3.95826 0
M  V30 5077 C 485.612 3.34476 -2.90931 0
M  V30 5078 H 482.832 0.392009 -0.544583 0
M  V30 5079 H 485.376 0.615881 -1.95006 0
M  V30 5080 H 483.531 3.06308 -2.37179 0
M  V30 5081 H 483.945 2.62393 -4.54148 0
M  V30 5082 H 485.419 4.10642 -3.68886 0
M  V30 5083 H 485.896 3.90801 -2.00427 0
M  V30 5084 H 486.502 2.76874 -3.22832 0
M  V30 5085 N 484.817 1.37938 0.762283 0
M  V30 5086 C 486.045 1.36883 1.55147 0
M  V30 5087 C 486.46 -0.0435348 1.8875 0
M  V30 5088 O 485.817 -1.00786 1.52146 0
M  V30 5089 C 485.868 2.21624 2.85596 0
M  V30 5090 O 485.589 3.57358 2.5343 0
M  V30 5091 C 487.09 2.28653 3.7978 0
M  V30 5092 H 484.31 0.468521 0.480343 0
M  V30 5093 H 486.854 1.81404 0.944079 0
M  V30 5094 H 485.009 1.80588 3.42734 0
M  V30 5095 H 485.423 4.01883 3.37032 0
M  V30 5096 H 486.897 2.9225 4.68288 0
M  V30 5097 H 487.374 1.29767 4.19592 0
M  V30 5098 H 487.98 2.70043 3.28568 0
M  V30 5099 N 486.295 -0.989507 1.22664 0
M  V30 5100 C 487.525 -1.7624 1.0781 0
M  V30 5101 C 487.933 -1.85466 -0.374036 0
M  V30 5102 O 487.276 -1.32645 -1.27087 0
M  V30 5103 C 487.338 -3.21007 1.61849 0
M  V30 5104 C 487.002 -3.35316 3.10503 0
M  V30 5105 C 487.999 -3.22362 4.07896 0
M  V30 5106 C 485.684 -3.60258 3.50028 0
M  V30 5107 C 487.678 -3.34139 5.42798 0
M  V30 5108 C 485.365 -3.71676 4.85078 0
M  V30 5109 C 486.363 -3.58625 5.81272 0
M  V30 5110 O 486.051 -3.69655 7.1387 0
M  V30 5111 H 485.783 -0.560209 0.378341 0
M  V30 5112 H 488.337 -1.25252 1.62792 0
M  V30 5113 H 486.567 -3.73202 1.01279 0
M  V30 5114 H 488.256 -3.80024 1.42606 0
M  V30 5115 H 489.022 -3.03 3.78703 0
M  V30 5116 H 484.901 -3.69492 2.75675 0
M  V30 5117 H 488.445 -3.23869 6.17863 0
M  V30 5118 H 484.342 -3.90545 5.1395 0
M  V30 5119 H 485.11 -3.86507 7.21495 0
M  V30 5120 N 487.773 -1.03688 -1.18687 0
M  V30 5121 C 488.683 -0.634908 -2.25845 0
M  V30 5122 C 489.699 0.337065 -1.70704 0
M  V30 5123 O 490.875 0.192943 -2.00474 0
M  V30 5124 C 487.94 -0.000180054 -3.467 0
M  V30 5125 C 487.001 -1.02067 -4.1699 0
M  V30 5126 C 486.234 -0.41614 -5.32075 0
M  V30 5127 O 486.457 0.778712 -5.65059 0
M  V30 5128 O 485.391 -1.14296 -5.90948 0
M  V30 5129 H 489.217 -1.52757 -2.62486 0
M  V30 5130 H 486.802 -0.807533 -1.25695 0
M  V30 5131 H 488.684 0.353342 -4.19916 0
M  V30 5132 H 487.359 0.866367 -3.11891 0
M  V30 5133 H 486.266 -1.42592 -3.45859 0
M  V30 5134 H 487.599 -1.85786 -4.5579 0
M  V30 5135 N 489.251 1.34841 -0.815825 0
M  V30 5136 C 490.198 2.29644 -0.230664 0
M  V30 5137 C 491.168 1.53253 0.640533 0
M  V30 5138 O 492.353 1.81653 0.583672 0
M  V30 5139 C 489.493 3.39715 0.607275 0
M  V30 5140 C 488.606 4.31056 -0.28538 0
M  V30 5141 C 487.741 5.28225 0.561446 0
M  V30 5142 C 486.78 6.11204 -0.331035 0
M  V30 5143 N 485.917 7.00483 0.476302 0
M  V30 5144 H 490.757 2.79095 -1.0445 0
M  V30 5145 H 488.294 1.37351 -0.526595 0
M  V30 5146 H 490.252 4.02208 1.10835 0
M  V30 5147 H 488.882 2.91517 1.38629 0
M  V30 5148 H 487.934 3.69487 -0.904621 0
M  V30 5149 H 489.246 4.89239 -0.97193 0
M  V30 5150 H 488.4 5.96135 1.12728 0
M  V30 5151 H 487.139 4.70562 1.28153 0
M  V30 5152 H 486.144 5.42232 -0.909069 0
M  V30 5153 H 487.369 6.70947 -1.04912 0
M  V30 5154 H 485.315 6.45296 1.18019 0
M  V30 5155 H 485.232 7.55847 -0.152008 0
M  V30 5156 H 486.5 7.7273 1.02512 0
M  V30 5157 N 490.729 0.570148 1.46925 0
M  V30 5158 C 491.977 0.0508523 2.02036 0
M  V30 5159 C 492.298 -1.30885 1.44548 0
M  V30 5160 O 491.568 -1.85647 0.625453 0
M  V30 5161 H 490.148 0.0158088 0.746833 0
M  V30 5162 H 492.81 0.743086 1.80178 0
M  V30 5163 H 491.906 -0.027575 3.12088 0
M  V30 5164 N 492.207 -1.54576 0.307264 0
M  V30 5165 C 493.117 -2.27435 -0.57536 0
M  V30 5166 C 494.133 -1.31183 -1.14311 0
M  V30 5167 O 495.309 -1.64175 -1.16656 0
M  V30 5168 C 492.374 -3.00566 -1.72803 0
M  V30 5169 C 491.435 -4.12369 -1.19373 0
M  V30 5170 C 490.668 -4.82003 -2.29147 0
M  V30 5171 O 490.891 -4.51038 -3.49171 0
M  V30 5172 O 489.825 -5.69271 -1.95485 0
M  V30 5173 H 493.651 -3.03696 0.0158558 0
M  V30 5174 H 491.236 -1.49219 0.0735064 0
M  V30 5175 H 493.118 -3.46416 -2.39946 0
M  V30 5176 H 491.793 -2.27195 -2.30574 0
M  V30 5177 H 490.7 -3.70905 -0.487851 0
M  V30 5178 H 492.033 -4.87736 -0.661376 0
M  V30 5179 N 493.685 -0.035106 -1.57561 0
M  V30 5180 C 494.915 0.651312 -1.96065 0
M  V30 5181 C 495.323 1.6585 -0.910514 0
M  V30 5182 O 494.666 1.83336 0.11552 0
M  V30 5183 C 494.728 1.40897 -3.30739 0
M  V30 5184 C 494.392 0.559436 -4.53563 0
M  V30 5185 C 495.389 -0.16778 -5.19629 0
M  V30 5186 C 493.074 0.495079 -4.99854 0
M  V30 5187 C 495.068 -0.947963 -6.30311 0
M  V30 5188 C 492.755 -0.288804 -6.10417 0
M  V30 5189 C 493.753 -1.00903 -6.75505 0
M  V30 5190 O 493.441 -1.78005 -7.83945 0
M  V30 5191 H 493.173 0.184036 -0.650467 0
M  V30 5192 H 495.727 -0.0929677 -2.05189 0
M  V30 5193 H 493.957 2.19852 -3.18123 0
M  V30 5194 H 495.646 1.98407 -3.54104 0
M  V30 5195 H 496.412 -0.12743 -4.84833 0
M  V30 5196 H 492.291 1.04524 -4.48994 0
M  V30 5197 H 495.835 -1.51064 -6.81047 0
M  V30 5198 H 491.732 -0.33085 -6.44652 0
M  V30 5199 H 492.5 -1.70046 -8.00641 0
M  V30 5200 N 495.163 1.55791 0.238111 0
M  V30 5201 C 496.41 1.78033 0.964907 0
M  V30 5202 C 496.738 0.600984 1.84982 0
M  V30 5203 O 495.993 -0.41536 1.91241 0
M  V30 5204 C 496.292 3.05869 1.84875 0
M  V30 5205 C 495.958 4.36808 1.11846 0
M  V30 5206 C 494.62 4.72388 0.916662 0
M  V30 5207 C 496.972 5.17717 0.60151 0
M  V30 5208 C 494.3 5.86406 0.185756 0
M  V30 5209 C 496.652 6.32494 -0.115972 0
M  V30 5210 C 495.316 6.66688 -0.329168 0
M  V30 5211 H 494.586 0.651469 0.353085 0
M  V30 5212 H 497.233 1.90061 0.234318 0
M  V30 5213 H 495.538 2.88891 2.64668 0
M  V30 5214 H 497.235 3.20278 2.41294 0
M  V30 5215 H 493.825 4.08862 1.28569 0
M  V30 5216 H 498.009 4.90678 0.744932 0
M  V30 5217 H 493.265 6.11399 0.0101886 0
M  V30 5218 H 497.439 6.94425 -0.524127 0
M  V30 5219 H 495.066 7.54884 -0.897474 0
M  V30 5220 N 496.642 -0.504142 1.49319 0
M  V30 5221 C 497.605 -1.5883 1.65244 0
M  V30 5222 C 498.605 -1.52009 0.524386 0
M  V30 5223 O 499.795 -1.55218 0.79077 0
M  V30 5224 C 496.927 -2.98481 1.64687 0
M  V30 5225 H 498.12 -1.4604 2.61939 0
M  V30 5226 H 495.673 -0.728144 1.38303 0
M  V30 5227 H 496.408 -3.16751 0.695644 0
M  V30 5228 H 496.193 -3.0484 2.46607 0
M  V30 5229 H 497.683 -3.77256 1.79075 0
M  V30 5230 N 498.12 -1.38341 -0.754957 0
M  V30 5231 C 499.367 -1.34473 -1.51404 0
M  V30 5232 C 499.695 0.0656458 -1.94389 0
M  V30 5233 O 498.95 1.04244 -1.65625 0
M  V30 5234 C 499.249 -2.2452 -2.78075 0
M  V30 5235 C 498.915 -3.72512 -2.54059 0
M  V30 5236 C 497.577 -4.1284 -2.47218 0
M  V30 5237 C 499.929 -4.66197 -2.33044 0
M  V30 5238 C 497.257 -5.44945 -2.17376 0
M  V30 5239 C 499.609 -5.98558 -2.04723 0
M  V30 5240 C 498.273 -6.37972 -1.96337 0
M  V30 5241 H 497.543 -0.492072 -0.554027 0
M  V30 5242 H 500.19 -1.70687 -0.868223 0
M  V30 5243 H 498.495 -1.81357 -3.473 0
M  V30 5244 H 500.192 -2.18832 -3.36026 0
M  V30 5245 H 496.782 -3.40538 -2.60253 0
M  V30 5246 H 500.966 -4.35888 -2.37309 0
M  V30 5247 H 496.222 -5.74426 -2.09391 0
M  V30 5248 H 500.396 -6.70693 -1.87465 0
M  V30 5249 H 498.023 -7.40258 -1.72978 0
M  V30 5250 N 499.598 0.982988 -1.23187 0
M  V30 5251 C 500.528 2.09301 -1.03515 0
M  V30 5252 C 501.509 1.70035 0.0471136 0
M  V30 5253 O 502.694 1.93847 -0.117029 0
M  V30 5254 C 499.824 3.4167 -0.622791 0
M  V30 5255 C 498.778 3.94828 -1.65211 0
M  V30 5256 C 498.104 5.23362 -1.09527 0
M  V30 5257 C 499.404 4.2439 -3.04451 0
M  V30 5258 H 501.098 2.26016 -1.96359 0
M  V30 5259 H 498.644 1.08611 -0.945501 0
M  V30 5260 H 500.597 4.18746 -0.472233 0
M  V30 5261 H 499.321 3.24811 0.341329 0
M  V30 5262 H 497.98 3.19895 -1.79061 0
M  V30 5263 H 497.628 5.02852 -0.122211 0
M  V30 5264 H 497.328 5.59895 -1.783 0
M  V30 5265 H 498.852 6.03062 -0.956511 0
M  V30 5266 H 500.266 4.92225 -2.93917 0
M  V30 5267 H 498.663 4.72118 -3.70438 0
M  V30 5268 H 499.733 3.31765 -3.53638 0
M  V30 5269 N 501.076 1.04316 1.18135 0
M  V30 5270 C 501.986 0.646876 2.25505 0
M  V30 5271 C 503.002 -0.328008 1.7088 0
M  V30 5272 O 504.178 -0.182309 2.00573 0
M  V30 5273 C 501.243 0.0185664 3.46695 0
M  V30 5274 C 500.304 1.04277 4.16443 0
M  V30 5275 C 499.537 0.444352 5.31847 0
M  V30 5276 O 499.76 -0.748735 5.65465 0
M  V30 5277 O 498.694 1.17428 5.90334 0
M  V30 5278 H 502.52 1.54147 2.61672 0
M  V30 5279 H 500.105 0.814188 1.25265 0
M  V30 5280 H 501.987 -0.331068 4.20097 0
M  V30 5281 H 500.662 -0.849814 3.12346 0
M  V30 5282 H 499.569 1.44425 3.45098 0
M  V30 5283 H 500.902 1.882 4.54798 0
M  V30 5284 N 502.554 -1.34406 0.822964 0
M  V30 5285 C 503.782 -2.02508 0.424039 0
M  V30 5286 C 504.197 -1.61975 -0.970022 0
M  V30 5287 O 503.554 -0.825228 -1.62777 0
M  V30 5288 C 503.605 -3.57789 0.516657 0
M  V30 5289 O 503.326 -3.96853 1.85577 0
M  V30 5290 C 504.827 -4.43157 0.112637 0
M  V30 5291 H 502.047 -0.649063 0.170173 0
M  V30 5292 H 504.591 -1.7168 1.11113 0
M  V30 5293 H 502.746 -3.87207 -0.122353 0
M  V30 5294 H 503.16 -4.91538 1.83005 0
M  V30 5295 H 504.634 -5.51527 0.228526 0
M  V30 5296 H 505.111 -4.28939 -0.943837 0
M  V30 5297 H 505.717 -4.19067 0.725449 0
M  V30 5298 N 504.032 -0.577932 -1.46621 0
M  V30 5299 C 505.262 -0.0670668 -2.06491 0
M  V30 5300 C 505.67 1.24119 -1.42798 0
M  V30 5301 O 505.013 1.76016 -0.525759 0
M  V30 5302 C 505.075 0.177995 -3.59059 0
M  V30 5303 C 504.739 -1.04394 -4.44917 0
M  V30 5304 C 505.736 -1.95479 -4.81751 0
M  V30 5305 C 503.421 -1.26444 -4.86125 0
M  V30 5306 C 505.415 -3.06965 -5.58615 0
M  V30 5307 C 503.102 -2.38237 -5.62749 0
M  V30 5308 C 504.1 -3.28327 -5.98908 0
M  V30 5309 O 503.788 -4.38179 -6.73984 0
M  V30 5310 H 503.52 -0.0523159 -0.673973 0
M  V30 5311 H 506.074 -0.796966 -1.89308 0
M  V30 5312 H 504.304 0.962451 -3.74531 0
M  V30 5313 H 505.993 0.636782 -4.00874 0
M  V30 5314 H 506.759 -1.79657 -4.50498 0
M  V30 5315 H 502.638 -0.572316 -4.57434 0
M  V30 5316 H 506.182 -3.77309 -5.86757 0
M  V30 5317 H 502.079 -2.54023 -5.93416 0
M  V30 5318 H 502.847 -4.36486 -6.92403 0
M  V30 5319 N 505.51 1.54411 -0.315457 0
M  V30 5320 C 506.758 2.00023 0.288971 0
M  V30 5321 C 507.079 1.20529 1.5329 0
M  V30 5322 O 506.349 0.304986 1.93511 0
M  V30 5323 H 504.929 0.738891 0.109766 0
M  V30 5324 H 507.591 1.90094 -0.430129 0
M  V30 5325 H 506.687 3.07198 0.550999 0
M  V30 5326 N 506.988 0.0434614 1.5754 0
M  V30 5327 C 508.216 -0.641835 1.96693 0
M  V30 5328 C 508.631 -1.64832 0.920652 0
M  V30 5329 O 507.988 -1.82247 -0.095993 0
M  V30 5330 C 508.039 -1.33557 3.35924 0
M  V30 5331 O 507.76 -0.369403 4.3654 0
M  V30 5332 C 509.261 -2.11135 3.89791 0
M  V30 5333 H 506.481 -0.176013 0.647503 0
M  V30 5334 H 509.025 0.107478 2.04217 0
M  V30 5335 H 507.18 -2.03617 3.29574 0
M  V30 5336 H 507.594 -0.863674 5.1734 0
M  V30 5337 H 509.068 -2.55107 4.89514 0
M  V30 5338 H 509.545 -2.95634 3.24803 0
M  V30 5339 H 510.151 -1.46002 3.99454 0
M  V30 5340 N 508.466 -1.55915 -0.229846 0
M  V30 5341 C 509.416 -1.8813 -1.28807 0
M  V30 5342 C 510.4 -0.743621 -1.42685 0
M  V30 5343 O 511.592 -1.00588 -1.4564 0
M  V30 5344 C 508.721 -2.19431 -2.64017 0
M  V30 5345 C 507.807 -3.39569 -2.54074 0
M  V30 5346 N 508.198 -4.58404 -2.13774 0
M  V30 5347 C 506.496 -3.43019 -2.85051 0
M  V30 5348 C 507.197 -5.40557 -2.1488 0
M  V30 5349 N 506.173 -4.80054 -2.55047 0
M  V30 5350 H 509.975 -2.77527 -0.967261 0
M  V30 5351 H 507.489 -1.5637 -0.438433 0
M  V30 5352 H 509.486 -2.40681 -3.40409 0
M  V30 5353 H 508.146 -1.31341 -2.9695 0
M  V30 5354 H 509.157 -4.83716 -1.8504 0
M  V30 5355 H 505.834 -2.65249 -3.22411 0
M  V30 5356 H 507.224 -6.45666 -1.85918 0
M  V30 5357 N 509.944 0.496216 -1.49584 0
M  V30 5358 C 511.174 1.27209 -1.62793 0
M  V30 5359 C 511.582 1.86799 -0.300476 0
M  V30 5360 O 510.925 1.68802 0.724674 0
M  V30 5361 C 510.987 2.43812 -2.64189 0
M  V30 5362 C 510.651 2.05055 -4.08414 0
M  V30 5363 C 511.648 1.58752 -4.9507 0
M  V30 5364 C 509.333 2.14543 -4.54177 0
M  V30 5365 C 511.327 1.22448 -6.25528 0
M  V30 5366 C 509.014 1.77851 -5.84647 0
M  V30 5367 C 510.012 1.31878 -6.70147 0
M  V30 5368 O 509.7 0.956834 -7.98185 0
M  V30 5369 H 509.432 0.391848 -0.550846 0
M  V30 5370 H 511.986 0.601712 -1.96389 0
M  V30 5371 H 510.216 3.13941 -2.25783 0
M  V30 5372 H 511.905 3.05829 -2.66877 0
M  V30 5373 H 512.671 1.50863 -4.60939 0
M  V30 5374 H 508.55 2.49277 -3.87791 0
M  V30 5375 H 512.094 0.864933 -6.92217 0
M  V30 5376 H 507.991 1.8539 -6.18305 0
M  V30 5377 H 508.759 1.08789 -8.11238 0
M  V30 5378 N 511.423 1.38739 0.74761 0
M  V30 5379 C 512.648 1.38702 1.54197 0
M  V30 5380 C 513.073 -0.019664 1.8809 0
M  V30 5381 O 512.431 -1.00333 1.51006 0
M  V30 5382 C 512.479 2.25492 2.814 0
M  V30 5383 O 511.583 1.67613 3.76802 0
M  V30 5384 H 510.924 0.472863 0.466151 0
M  V30 5385 H 513.454 1.82577 0.923413 0
M  V30 5386 H 513.464 2.39561 3.30264 0
M  V30 5387 H 512.139 3.27727 2.56062 0
M  V30 5388 H 510.716 1.62718 3.35526 0
M  V30 5389 N 512.901 -0.976442 1.23707 0
M  V30 5390 C 514.126 -1.75875 1.09922 0
M  V30 5391 C 514.551 -1.84911 -0.34489 0
M  V30 5392 O 513.909 -1.31363 -1.24954 0
M  V30 5393 C 513.957 -3.16179 1.73388 0
M  V30 5394 O 513.061 -4.00124 0.99871 0
M  V30 5395 H 512.402 -0.540954 0.385052 0
M  V30 5396 H 514.932 -1.22546 1.6384 0
M  V30 5397 H 514.942 -3.66741 1.78788 0
M  V30 5398 H 513.617 -3.08917 2.78466 0
M  V30 5399 H 512.194 -3.58624 1.02193 0
M  V30 5400 N 514.379 -1.04941 -1.1758 0
M  V30 5401 C 515.604 -0.778253 -1.92245 0
M  V30 5402 C 516.029 0.659707 -1.76152 0
M  V30 5403 O 515.387 1.45803 -1.07755 0
M  V30 5404 C 515.435 -1.16051 -3.41416 0
M  V30 5405 O 514.539 -0.291153 -4.11371 0
M  V30 5406 H 513.88 -0.285619 -0.599431 0
M  V30 5407 H 516.41 -1.40159 -1.49052 0
M  V30 5408 H 516.42 -1.12619 -3.92149 0
M  V30 5409 H 515.095 -2.208 -3.52449 0
M  V30 5410 H 513.672 -0.385851 -3.70898 0
M  V30 5411 N 515.857 1.33968 -0.830081 0
M  V30 5412 C 517.105 1.97672 -0.420734 0
M  V30 5413 C 517.426 1.66111 1.02138 0
M  V30 5414 O 516.696 0.955503 1.71017 0
M  V30 5415 H 515.276 0.73125 -0.152587 0
M  V30 5416 H 517.938 1.63483 -1.0611 0
M  V30 5417 H 517.034 3.07294 -0.545588 0
M  V30 5418 N 517.335 0.585699 1.46312 0
M  V30 5419 C 518.56 0.0762461 2.0726 0
M  V30 5420 C 518.985 -1.22071 1.43109 0
M  V30 5421 O 518.343 -1.73804 0.515942 0
M  V30 5422 C 518.391 -0.0729404 3.60526 0
M  V30 5423 O 517.495 -1.1287 3.96654 0
M  V30 5424 H 516.836 0.0641558 0.660893 0
M  V30 5425 H 519.366 0.809492 1.87905 0
M  V30 5426 H 519.376 -0.278158 4.07051 0
M  V30 5427 H 518.051 0.874188 4.06609 0
M  V30 5428 H 516.628 -0.901703 3.61834 0
M  V30 5429 N 518.813 -1.54241 0.323641 0
M  V30 5430 C 519.743 -2.27289 -0.534993 0
M  V30 5431 C 520.724 -1.28087 -1.11927 0
M  V30 5432 O 521.909 -1.56899 -1.14439 0
M  V30 5433 C 519.039 -3.03075 -1.69596 0
M  V30 5434 C 517.993 -4.09614 -1.24098 0
M  V30 5435 C 517.319 -4.73242 -2.4889 0
M  V30 5436 C 518.619 -5.21087 -0.355789 0
M  V30 5437 H 520.313 -2.99308 0.0743257 0
M  V30 5438 H 517.859 -1.43952 0.0371874 0
M  V30 5439 H 519.812 -3.52907 -2.30293 0
M  V30 5440 H 518.536 -2.28673 -2.33187 0
M  V30 5441 H 517.195 -3.60666 -0.656945 0
M  V30 5442 H 516.843 -3.95455 -3.10845 0
M  V30 5443 H 516.543 -5.45209 -2.19138 0
M  V30 5444 H 518.067 -5.25848 -3.10348 0
M  V30 5445 H 519.481 -5.66675 -0.869042 0
M  V30 5446 H 517.878 -5.9991 -0.151045 0
M  V30 5447 H 518.948 -4.81005 0.613339 0
M  V30 5448 N 520.291 -0.0518155 -1.57515 0
M  V30 5449 C 521.539 0.620595 -1.92336 0
M  V30 5450 C 521.86 1.71345 -0.930907 0
M  V30 5451 O 521.13 1.95885 0.0241341 0
M  V30 5452 H 519.71 0.232226 -0.709986 0
M  V30 5453 H 522.372 -0.104969 -1.94617 0
M  V30 5454 H 521.468 1.05879 -2.93592 0
M  V30 5455 N 521.769 1.56035 0.221574 0
M  V30 5456 C 523.017 1.78693 0.944102 0
M  V30 5457 C 523.338 0.620317 1.8487 0
M  V30 5458 O 522.608 -0.362784 1.92512 0
M  V30 5459 H 521.188 0.659082 0.351597 0
M  V30 5460 H 523.85 1.93497 0.233435 0
M  V30 5461 H 522.946 2.70837 1.55093 0
M  V30 5462 N 523.247 -0.488276 1.49845 0
M  V30 5463 C 524.177 -1.59675 1.70371 0
M  V30 5464 C 525.158 -1.60878 0.552473 0
M  V30 5465 O 526.343 -1.77417 0.78973 0
M  V30 5466 C 523.473 -2.98098 1.782 0
M  V30 5467 C 522.427 -3.11761 2.93239 0
M  V30 5468 C 521.753 -4.51661 2.86193 0
M  V30 5469 C 523.053 -2.90589 4.33999 0
M  V30 5470 H 524.747 -1.42752 2.63177 0
M  V30 5471 H 522.293 -0.685317 1.26647 0
M  V30 5472 H 524.246 -3.75555 1.91144 0
M  V30 5473 H 522.97 -3.16138 0.820018 0
M  V30 5474 H 521.629 -2.36732 2.79917 0
M  V30 5475 H 521.277 -4.66595 1.87877 0
M  V30 5476 H 520.977 -4.61742 3.63412 0
M  V30 5477 H 522.501 -5.31162 3.01163 0
M  V30 5478 H 523.915 -3.57807 4.47936 0
M  V30 5479 H 522.312 -3.1213 5.12538 0
M  V30 5480 H 523.382 -1.86595 4.4756 0
M  V30 5481 N 524.725 -1.39134 -0.740242 0
M  V30 5482 C 525.955 -1.39132 -1.52728 0
M  V30 5483 C 526.363 0.0173133 -1.89192 0
M  V30 5484 O 525.706 0.997715 -1.54244 0
M  V30 5485 C 525.768 -2.1952 -2.84695 0
M  V30 5486 C 525.432 -3.68203 -2.70695 0
M  V30 5487 C 526.429 -4.61401 -2.39593 0
M  V30 5488 C 524.114 -4.11724 -2.8773 0
M  V30 5489 C 526.108 -5.96102 -2.25701 0
M  V30 5490 C 523.795 -5.46503 -2.73456 0
M  V30 5491 C 524.793 -6.38506 -2.42486 0
M  V30 5492 O 524.481 -7.70803 -2.28295 0
M  V30 5493 H 524.213 -0.477263 -0.478744 0
M  V30 5494 H 526.767 -1.83504 -0.922799 0
M  V30 5495 H 524.997 -1.69888 -3.47383 0
M  V30 5496 H 526.686 -2.1176 -3.46284 0
M  V30 5497 H 527.452 -4.29079 -2.26088 0
M  V30 5498 H 523.331 -3.4045 -3.10829 0
M  V30 5499 H 526.875 -6.6788 -2.0145 0
M  V30 5500 H 522.772 -5.78417 -2.86538 0
M  V30 5501 H 523.54 -7.8147 -2.43405 0
M  V30 5502 N 526.204 0.969867 -1.24223 0
M  V30 5503 C 527.114 2.09806 -1.0497 0
M  V30 5504 C 528.13 1.73998 0.00886455 0
M  V30 5505 O 529.306 2.00513 -0.188848 0
M  V30 5506 C 526.371 3.40467 -0.654452 0
M  V30 5507 C 525.432 3.90236 -1.78926 0
M  V30 5508 C 524.665 5.14662 -1.41277 0
M  V30 5509 O 524.888 5.69602 -0.301632 0
M  V30 5510 O 523.822 5.58761 -2.23763 0
M  V30 5511 H 527.648 2.28942 -1.99548 0
M  V30 5512 H 525.233 1.08197 -1.03023 0
M  V30 5513 H 527.115 4.19039 -0.445452 0
M  V30 5514 H 525.79 3.22636 0.262216 0
M  V30 5515 H 524.697 3.12735 -2.05299 0
M  V30 5516 H 526.03 4.1254 -2.68462 0
M  V30 5517 N 527.682 1.05563 1.17022 0
M  V30 5518 C 528.612 0.681026 2.23348 0
M  V30 5519 C 529.593 -0.322983 1.67005 0
M  V30 5520 O 530.778 -0.199746 1.9317 0
M  V30 5521 C 527.908 0.0589053 3.4725 0
M  V30 5522 C 526.862 0.988082 4.16438 0
M  V30 5523 C 526.188 0.229646 5.34207 0
M  V30 5524 C 527.488 2.31388 4.68249 0
M  V30 5525 H 529.182 1.56993 2.54938 0
M  V30 5526 H 526.728 0.756302 1.2254 0
M  V30 5527 H 528.681 -0.214982 4.20851 0
M  V30 5528 H 527.405 -0.864968 3.14938 0
M  V30 5529 H 526.064 1.24659 3.44754 0
M  V30 5530 H 525.712 -0.697111 4.98146 0
M  V30 5531 H 525.412 0.848815 5.81437 0
M  V30 5532 H 526.936 -0.0368694 6.10589 0
M  V30 5533 H 528.35 2.09964 5.33468 0
M  V30 5534 H 526.747 2.88736 5.26072 0
M  V30 5535 H 527.817 2.94982 3.84855 0
M  V30 5536 N 529.16 -1.33526 0.837174 0
M  V30 5537 C 530.409 -1.97098 0.428387 0
M  V30 5538 C 530.722 -1.67062 -1.01734 0
M  V30 5539 O 531.928 -2.24235 -1.53072 0
M  V30 5540 C 530.384 -3.52725 0.715075 0
M  V30 5541 C 529.992 -3.9164 2.17537 0
M  V30 5542 C 531.736 -4.22857 0.373154 0
M  V30 5543 C 529.643 -5.40237 2.40619 0
M  V30 5544 H 528.573 -0.737589 0.156455 0
M  V30 5545 H 531.224 -1.52169 1.02552 0
M  V30 5546 H 529.606 -3.95971 0.0475904 0
M  V30 5547 H 530.78 -3.59456 2.88319 0
M  V30 5548 H 529.095 -3.34485 2.4801 0
M  V30 5549 H 531.692 -5.32133 0.523264 0
M  V30 5550 H 532.035 -4.10647 -0.683708 0
M  V30 5551 H 532.568 -3.85135 0.995801 0
M  V30 5552 H 529.307 -5.57449 3.44864 0
M  V30 5553 H 528.827 -5.73887 1.74396 0
M  V30 5554 H 530.506 -6.07102 2.23688 0
M  V30 5555 N 530.638 -0.59345 -1.46 0
M  V30 5556 C 531.868 -0.0889642 -2.06408 0
M  V30 5557 C 532.276 1.22597 -1.44106 0
M  V30 5558 O 531.619 1.75448 -0.544398 0
M  V30 5559 C 531.681 0.139902 -3.59228 0
M  V30 5560 C 531.345 -1.09107 -4.43784 0
M  V30 5561 C 532.342 -2.00577 -4.79651 0
M  V30 5562 C 530.027 -1.31593 -4.84756 0
M  V30 5563 C 532.021 -3.12873 -5.55328 0
M  V30 5564 C 529.708 -2.44192 -5.60191 0
M  V30 5565 C 530.706 -3.34661 -5.95392 0
M  V30 5566 O 530.394 -4.45302 -6.69299 0
M  V30 5567 H 530.126 -0.0594613 -0.67338 0
M  V30 5568 H 532.68 -0.817 -1.88452 0
M  V30 5569 H 530.91 0.922672 -3.75531 0
M  V30 5570 H 532.599 0.594228 -4.01527 0
M  V30 5571 H 533.365 -1.84425 -4.48567 0
M  V30 5572 H 529.244 -0.620801 -4.56801 0
M  V30 5573 H 532.788 -3.83511 -5.82722 0
M  V30 5574 H 528.685 -2.60303 -5.90688 0
M  V30 5575 H 529.453 -4.43805 -6.87735 0
M  V30 5576 N 532.116 1.54067 -0.331816 0
M  V30 5577 C 533.362 2.01012 0.268667 0
M  V30 5578 C 533.695 1.2195 1.51136 0
M  V30 5579 O 532.97 0.303972 1.9211 0
M  V30 5580 C 533.253 3.55158 0.59456 0
M  V30 5581 C 533.106 4.4494 -0.659409 0
M  V30 5582 C 534.425 4.16939 1.4089 0
M  V30 5583 H 531.544 0.730698 0.0961756 0
M  V30 5584 H 534.186 1.84593 -0.450031 0
M  V30 5585 H 532.336 3.6928 1.20685 0
M  V30 5586 H 534.008 4.42675 -1.29756 0
M  V30 5587 H 532.251 4.1428 -1.28665 0
M  V30 5588 H 532.922 5.50643 -0.386804 0
M  V30 5589 H 535.398 4.06443 0.891272 0
M  V30 5590 H 534.274 5.24889 1.60569 0
M  V30 5591 H 534.535 3.70798 2.40752 0
M  V30 5592 N 533.594 0.0601682 1.57485 0
M  V30 5593 C 534.524 -0.90889 2.15085 0
M  V30 5594 C 535.505 -1.31838 1.07484 0
M  V30 5595 O 536.69 -1.3915 1.35466 0
M  V30 5596 C 533.82 -2.18059 2.7031 0
M  V30 5597 C 532.774 -1.91088 3.82974 0
M  V30 5598 C 532.1 -3.24789 4.24754 0
M  V30 5599 C 533.4 -1.22535 5.07723 0
M  V30 5600 H 535.094 -0.429093 2.96309 0
M  V30 5601 H 532.64 -0.204952 1.42534 0
M  V30 5602 H 534.593 -2.86258 3.09248 0
M  V30 5603 H 533.317 -2.6826 1.8629 0
M  V30 5604 H 531.976 -1.25297 3.44523 0
M  V30 5605 H 531.624 -3.72809 3.37672 0
M  V30 5606 H 531.324 -3.07538 5.00694 0
M  V30 5607 H 532.848 -3.94205 4.66299 0
M  V30 5608 H 534.262 -1.80783 5.4405 0
M  V30 5609 H 532.659 -1.1558 5.88864 0
M  V30 5610 H 533.729 -0.202692 4.84476 0
M  V30 5611 N 535.072 -1.5615 -0.213296 0
M  V30 5612 C 536.349 -1.70349 -0.961281 0
M  V30 5613 C 536.729 -0.609791 -2.02101 0
M  V30 5614 O 536.077 0.381987 -2.25285 0
M  V30 5615 C 536.287 -3.11982 -1.56424 0
M  V30 5616 C 537.635 -3.71649 -2.05334 0
M  V30 5617 O 538.659 -3.14995 -1.66302 0
M  V30 5618 O 537.518 -4.71038 -2.77102 0
M  V30 5619 H 534.612 -0.694121 -0.449582 0
M  V30 5620 H 537.158 -1.68464 -0.204426 0
M  V30 5621 H 535.93 -3.83046 -0.799457 0
M  V30 5622 H 535.553 -3.18019 -2.38641 0
M  V30 5623 N 536.55 0.480323 -1.50102 0
M  V30 5624 C 537.497 1.57946 -1.6829 0
M  V30 5625 C 538.467 1.57611 -0.524223 0
M  V30 5626 O 539.652 1.75282 -0.753709 0
M  V30 5627 C 536.792 2.95978 -1.77457 0
M  V30 5628 C 535.905 3.06173 -3.04766 0
M  V30 5629 C 535.04 4.35063 -3.04784 0
M  V30 5630 C 534.079 4.38966 -4.26586 0
M  V30 5631 N 533.216 5.59314 -4.24396 0
M  V30 5632 H 538.056 1.41743 -2.62131 0
M  V30 5633 H 535.593 0.689304 -1.2995 0
M  V30 5634 H 537.551 3.76011 -1.80752 0
M  V30 5635 H 536.181 3.10837 -0.870637 0
M  V30 5636 H 535.233 2.19071 -3.10986 0
M  V30 5637 H 536.545 3.04916 -3.9475 0
M  V30 5638 H 535.699 5.23436 -3.06757 0
M  V30 5639 H 534.438 4.38915 -2.12614 0
M  V30 5640 H 533.443 3.48992 -4.24835 0
M  V30 5641 H 534.668 4.36813 -5.19972 0
M  V30 5642 H 532.614 5.63969 -3.35074 0
M  V30 5643 H 532.531 5.5976 -5.08138 0
M  V30 5644 H 533.799 6.49837 -4.30502 0
M  V30 5645 N 538.028 1.39524 0.732853 0
M  V30 5646 C 538.991 1.38189 1.82857 0
M  V30 5647 C 539.991 0.278624 1.58368 0
M  V30 5648 O 541.181 0.536639 1.65728 0
M  V30 5649 C 538.313 1.15661 3.2068 0
M  V30 5650 H 539.506 2.35692 1.85444 0
M  V30 5651 H 537.059 1.2512 0.936728 0
M  V30 5652 H 537.794 0.188482 3.23752 0
M  V30 5653 H 537.579 1.95559 3.39852 0
M  V30 5654 H 539.069 1.17472 4.00737 0
M  V30 5655 N 539.506 -0.963266 1.24736 0
M  V30 5656 C 540.731 -1.74699 1.11781 0
M  V30 5657 C 541.156 -1.85267 -0.325258 0
M  V30 5658 O 540.514 -1.32681 -1.23553 0
M  V30 5659 C 540.562 -3.14322 1.76731 0
M  V30 5660 O 539.666 -3.99043 1.04109 0
M  V30 5661 H 539.007 -0.53684 0.390767 0
M  V30 5662 H 541.537 -1.20801 1.65131 0
M  V30 5663 H 541.547 -3.64824 1.82668 0
M  V30 5664 H 540.222 -3.05946 2.81726 0
M  V30 5665 H 538.799 -3.5752 1.05991 0
M  V30 5666 N 540.985 -1.06182 -1.16461 0
M  V30 5667 C 541.918 -0.615859 -2.19733 0
M  V30 5668 C 542.896 0.360766 -1.58547 0
M  V30 5669 O 544.08 0.270009 -1.86556 0
M  V30 5670 C 541.207 0.097312 -3.3856 0
M  V30 5671 C 540.253 -0.835889 -4.18229 0
M  V30 5672 S 541.086 -2.33052 -4.82128 0
M  V30 5673 C 542.242 -1.62881 -6.04335 0
M  V30 5674 H 542.475 -1.49079 -2.57221 0
M  V30 5675 H 540.008 -0.874692 -1.27234 0
M  V30 5676 H 541.966 0.502563 -4.07412 0
M  V30 5677 H 540.627 0.948418 -2.99439 0
M  V30 5678 H 539.82 -0.283426 -5.03202 0
M  V30 5679 H 539.422 -1.18097 -3.54865 0
M  V30 5680 H 541.714 -0.933764 -6.71034 0
M  V30 5681 H 542.657 -2.45641 -6.64128 0
M  V30 5682 H 543.065 -1.11189 -5.53441 0
M  V30 5683 N 542.463 1.3308 -0.844243 0
M  V30 5684 C 543.41 2.29104 -0.279323 0
M  V30 5685 C 544.38 1.54577 0.607882 0
M  V30 5686 O 545.565 1.8285 0.545009 0
M  V30 5687 C 542.705 3.40927 0.53508 0
M  V30 5688 C 541.818 4.30354 -0.376749 0
M  V30 5689 C 540.953 5.29297 0.449276 0
M  V30 5690 C 539.992 6.10365 -0.460606 0
M  V30 5691 N 539.129 7.01335 0.327612 0
M  V30 5692 H 543.969 2.76817 -1.10346 0
M  V30 5693 H 541.506 1.36203 -0.555611 0
M  V30 5694 H 543.464 4.04469 1.02278 0
M  V30 5695 H 542.094 2.94391 1.32414 0
M  V30 5696 H 541.146 3.67485 -0.982791 0
M  V30 5697 H 542.458 4.87067 -1.07549 0
M  V30 5698 H 541.612 5.98392 1.00058 0
M  V30 5699 H 540.351 4.73174 1.18143 0
M  V30 5700 H 539.356 5.40182 -1.02388 0
M  V30 5701 H 540.581 6.68571 -1.1912 0
M  V30 5702 H 538.527 6.47655 1.04305 0
M  V30 5703 H 538.444 7.55355 -0.3123 0
M  V30 5704 H 539.712 7.74731 0.86098 0
M  V30 5705 N 543.941 0.601185 1.45683 0
M  V30 5706 C 545.357 0.264315 1.57396 0
M  V30 5707 C 545.557 -1.23324 1.59353 0
M  V30 5708 O 544.613 -2.01594 1.52039 0
M  V30 5709 C 545.926 0.929839 2.85962 0
M  V30 5710 C 547.474 0.905156 2.99626 0
M  V30 5711 C 547.949 1.55057 4.30954 0
M  V30 5712 N 549.44 1.51576 4.37697 0
M  V30 5713 C 550.175 1.98436 5.37969 0
M  V30 5714 N 549.671 2.53352 6.44813 0
M  V30 5715 N 551.464 1.89242 5.29286 0
M  V30 5716 H 543.615 1.57363 1.42656 0
M  V30 5717 H 545.878 0.658831 0.681649 0
M  V30 5718 H 545.584 1.98404 2.90394 0
M  V30 5719 H 545.458 0.449224 3.74515 0
M  V30 5720 H 547.845 -0.14048 2.94765 0
M  V30 5721 H 547.926 1.42397 2.12501 0
M  V30 5722 H 547.57 2.5955 4.36573 0
M  V30 5723 H 547.5 1.00682 5.16886 0
M  V30 5724 H 549.991 1.11452 3.61091 0
M  V30 5725 H 550.304 2.86918 7.17564 0
M  V30 5726 H 548.649 2.57388 6.45582 0
M  V30 5727 H 551.84 1.46083 4.44722 0
M  V30 5728 H 552.013 2.26075 6.07284 0
M  V30 5729 N 545.419 -1.53889 0.339982 0
M  V30 5730 C 546.366 -2.24902 -0.518452 0
M  V30 5731 C 547.336 -1.24593 -1.09844 0
M  V30 5732 O 548.521 -1.53317 -1.13572 0
M  V30 5733 C 545.661 -3.02262 -1.66529 0
M  V30 5734 C 544.774 -4.17418 -1.11295 0
M  V30 5735 C 543.909 -4.82273 -2.2268 0
M  V30 5736 C 542.948 -5.89503 -1.6478 0
M  V30 5737 N 542.085 -6.48153 -2.69893 0
M  V30 5738 H 546.925 -2.97853 0.0936579 0
M  V30 5739 H 544.462 -1.46986 0.0579924 0
M  V30 5740 H 546.42 -3.45371 -2.3404 0
M  V30 5741 H 545.05 -2.31614 -2.24844 0
M  V30 5742 H 544.102 -3.78976 -0.328886 0
M  V30 5743 H 545.414 -4.94554 -0.649414 0
M  V30 5744 H 544.568 -5.28435 -2.98063 0
M  V30 5745 H 543.307 -4.04552 -2.72376 0
M  V30 5746 H 542.312 -5.42728 -0.879004 0
M  V30 5747 H 543.537 -6.6913 -1.1594 0
M  V30 5748 H 541.483 -5.73298 -3.1885 0
M  V30 5749 H 541.4 -7.20752 -2.28151 0
M  V30 5750 H 542.668 -6.98968 -3.45056 0
M  V30 5751 N 546.897 -0.0685191 -1.57451 0
M  V30 5752 C 548.145 0.60016 -1.92983 0
M  V30 5753 C 548.466 1.70348 -0.949028 0
M  V30 5754 O 547.736 1.959 0.00335647 0
M  V30 5755 H 546.316 0.224682 -0.712409 0
M  V30 5756 H 548.978 -0.125605 -1.94495 0
M  V30 5757 H 548.074 1.02759 -2.94698 0
M  V30 5758 N 548.375 1.56261 0.205012 0
M  V30 5759 C 549.621 1.80306 0.9283 0
M  V30 5760 C 549.954 0.640932 1.83319 0
M  V30 5761 O 549.229 -0.359032 1.91158 0
M  V30 5762 C 549.512 3.14547 1.75306 0
M  V30 5763 C 549.365 4.41236 0.873562 0
M  V30 5764 C 550.684 3.45382 2.72762 0
M  V30 5765 H 547.803 0.655929 0.336044 0
M  V30 5766 H 550.445 1.88984 0.196211 0
M  V30 5767 H 548.595 3.0728 2.37721 0
M  V30 5768 H 550.267 4.60539 0.264887 0
M  V30 5769 H 548.51 4.33427 0.179773 0
M  V30 5770 H 549.181 5.31639 1.48541 0
M  V30 5771 H 551.657 3.52884 2.20481 0
M  V30 5772 H 550.533 4.40449 3.2756 0
M  V30 5773 H 550.794 2.68377 3.51321 0
M  V30 5774 N 549.853 -0.472356 1.50355 0
M  V30 5775 C 550.763 -1.59637 1.7191 0
M  V30 5776 C 551.779 -1.63247 0.602195 0
M  V30 5777 O 552.955 -1.81139 0.880369 0
M  V30 5778 C 550.02 -2.9586 1.80742 0
M  V30 5779 C 549.081 -3.02649 3.04471 0
M  V30 5780 C 548.314 -4.32374 3.12872 0
M  V30 5781 O 548.537 -5.22807 2.28099 0
M  V30 5782 O 547.471 -4.44728 4.05587 0
M  V30 5783 H 551.297 -1.44373 2.67189 0
M  V30 5784 H 548.882 -0.651717 1.34436 0
M  V30 5785 H 550.764 -3.7677 1.88739 0
M  V30 5786 H 549.439 -3.11325 0.88647 0
M  V30 5787 H 548.346 -2.20821 3.01975 0
M  V30 5788 H 549.679 -2.92119 3.9614 0
M  V30 5789 N 551.331 -1.39911 -0.725443 0
M  V30 5790 C 552.261 -1.42138 -1.85254 0
M  V30 5791 C 553.242 -0.283513 -1.67721 0
M  V30 5792 O 554.427 -0.490717 -1.87898 0
M  V30 5793 C 551.557 -1.27354 -3.23107 0
M  V30 5794 C 550.511 -2.3864 -3.55296 0
M  V30 5795 C 549.837 -2.08939 -4.92188 0
M  V30 5796 C 551.137 -3.8097 -3.57295 0
M  V30 5797 H 552.831 -2.36461 -1.83648 0
M  V30 5798 H 550.377 -1.13817 -0.882138 0
M  V30 5799 H 552.33 -1.2753 -4.01639 0
M  V30 5800 H 551.054 -0.295025 -3.25265 0
M  V30 5801 H 549.713 -2.37696 -2.79099 0
M  V30 5802 H 549.361 -1.09502 -4.90936 0
M  V30 5803 H 549.061 -2.83491 -5.14691 0
M  V30 5804 H 550.585 -2.10781 -5.73065 0
M  V30 5805 H 551.999 -3.8379 -4.25885 0
M  V30 5806 H 550.396 -4.5496 -3.9132 0
M  V30 5807 H 551.466 -4.11261 -2.5689 0
M  V30 5808 N 552.809 0.956637 -1.25245 0
M  V30 5809 C 553.756 2.053 -1.05454 0
M  V30 5810 C 554.726 1.66062 0.0356889 0
M  V30 5811 O 555.911 1.90415 -0.121099 0
M  V30 5812 C 553.051 3.38391 -0.677191 0
M  V30 5813 C 552.164 3.90758 -1.84206 0
M  V30 5814 C 551.299 5.12165 -1.40926 0
M  V30 5815 C 550.338 5.56757 -2.54338 0
M  V30 5816 N 549.475 6.69376 -2.11848 0
M  V30 5817 H 554.315 2.21562 -1.99284 0
M  V30 5818 H 551.852 1.08578 -0.992434 0
M  V30 5819 H 553.81 4.1488 -0.43938 0
M  V30 5820 H 552.44 3.22021 0.224127 0
M  V30 5821 H 551.492 3.10808 -2.19323 0
M  V30 5822 H 552.804 4.19802 -2.69383 0
M  V30 5823 H 551.958 5.96065 -1.13098 0
M  V30 5824 H 550.697 4.84832 -0.528175 0
M  V30 5825 H 549.702 4.71423 -2.82913 0
M  V30 5826 H 550.927 5.861 -3.43022 0
M  V30 5827 H 548.873 6.43756 -1.26153 0
M  V30 5828 H 548.79 6.97927 -2.90574 0
M  V30 5829 H 550.058 7.5669 -1.87191 0
M  V30 5830 N 554.287 1.06798 1.15896 0
M  V30 5831 C 555.564 0.701057 1.82605 0
M  V30 5832 C 555.944 -0.817066 1.94646 0
M  V30 5833 O 555.292 -1.72933 1.49353 0
M  V30 5834 C 555.502 1.40895 3.19296 0
M  V30 5835 C 556.85 1.55744 3.95005 0
M  V30 5836 O 557.874 1.36927 3.28831 0
M  V30 5837 O 556.733 1.86658 5.13635 0
M  V30 5838 H 553.827 0.248791 0.78869 0
M  V30 5839 H 556.373 1.16857 1.23055 0
M  V30 5840 H 555.145 2.4439 3.05596 0
M  V30 5841 H 554.768 0.931847 3.86526 0
M  V30 5842 N 555.766 -1.3263 0.851289 0
M  V30 5843 C 557.015 -1.96633 0.449267 0
M  V30 5844 C 557.328 -1.68131 -0.999562 0
M  V30 5845 O 558.534 -2.25845 -1.50685 0
M  V30 5846 C 556.99 -3.51946 0.752446 0
M  V30 5847 C 556.598 -3.89311 2.21678 0
M  V30 5848 C 558.342 -4.22437 0.417983 0
M  V30 5849 C 556.249 -5.37655 2.46336 0
M  V30 5850 H 555.179 -0.735888 0.164269 0
M  V30 5851 H 557.83 -1.51073 1.0416 0
M  V30 5852 H 556.212 -3.95899 0.0895858 0
M  V30 5853 H 557.386 -3.56378 2.92115 0
M  V30 5854 H 555.701 -3.31836 2.51543 0
M  V30 5855 H 558.298 -5.31549 0.579674 0
M  V30 5856 H 558.641 -4.11349 -0.640115 0
M  V30 5857 H 559.174 -3.84057 1.03659 0
M  V30 5858 H 555.913 -5.5376 3.50757 0
M  V30 5859 H 555.433 -5.72005 1.80473 0
M  V30 5860 H 557.112 -6.04695 2.30115 0
M  V30 5861 N 557.244 -0.608902 -1.45362 0
M  V30 5862 C 558.191 0.109172 -2.30542 0
M  V30 5863 C 559.161 0.858704 -1.42181 0
M  V30 5864 O 560.346 0.844178 -1.71109 0
M  V30 5865 C 557.486 1.09971 -3.27109 0
M  V30 5866 C 556.599 0.350911 -4.30572 0
M  V30 5867 C 555.734 1.33129 -5.14247 0
M  V30 5868 C 554.773 0.570377 -6.09437 0
M  V30 5869 N 553.91 1.5001 -6.85887 0
M  V30 5870 H 558.75 -0.623195 -2.91411 0
M  V30 5871 H 556.287 -0.319122 -1.43597 0
M  V30 5872 H 558.245 1.68714 -3.81564 0
M  V30 5873 H 556.875 1.79947 -2.67991 0
M  V30 5874 H 555.927 -0.352054 -3.78767 0
M  V30 5875 H 557.239 -0.242725 -4.98209 0
M  V30 5876 H 556.393 1.99074 -5.73109 0
M  V30 5877 H 555.132 1.95885 -4.46632 0
M  V30 5878 H 554.137 -0.102702 -5.49704 0
M  V30 5879 H 555.362 -0.0521607 -6.7908 0
M  V30 5880 H 553.308 2.11529 -6.2096 0
M  V30 5881 H 553.225 0.959934 -7.49881 0
M  V30 5882 H 554.493 2.14909 -7.49289 0
M  V30 5883 N 558.722 1.53707 -0.348139 0
M  V30 5884 C 560.138 1.596 0.00361134 0
M  V30 5885 C 560.338 1.36394 1.4832 0
M  V30 5886 O 559.394 1.16046 2.24253 0
M  V30 5887 C 560.707 2.97512 -0.436682 0
M  V30 5888 C 562.255 3.10568 -0.389416 0
M  V30 5889 C 562.73 4.50866 -0.805249 0
M  V30 5890 N 564.221 4.56929 -0.759616 0
M  V30 5891 C 564.956 5.63643 -1.05327 0
M  V30 5892 N 564.452 6.78189 -1.41531 0
M  V30 5893 N 566.245 5.5354 -0.977207 0
M  V30 5894 H 558.396 1.67044 -1.31187 0
M  V30 5895 H 560.659 0.782559 -0.535075 0
M  V30 5896 H 560.365 3.19575 -1.46849 0
M  V30 5897 H 560.239 3.76742 0.185744 0
M  V30 5898 H 562.626 2.88226 0.633228 0
M  V30 5899 H 562.707 2.33387 -1.04711 0
M  V30 5900 H 562.351 4.73943 -1.82593 0
M  V30 5901 H 562.281 5.26452 -0.124989 0
M  V30 5902 H 564.772 3.74675 -0.49265 0
M  V30 5903 H 565.085 7.55541 -1.62411 0
M  V30 5904 H 563.43 6.79624 -1.45381 0
M  V30 5905 H 566.621 4.62932 -0.693675 0
M  V30 5906 H 566.794 6.36614 -1.2094 0
M  V30 5907 N 560.2 0.0768682 1.57412 0
M  V30 5908 C 561.44 -0.594676 1.95558 0
M  V30 5909 C 561.804 -1.66469 0.956658 0
M  V30 5910 O 563.005 -2.39215 1.22595 0
M  V30 5911 C 561.276 -1.15206 3.38323 0
M  V30 5912 S 562.835 -1.83803 3.9845 0
M  V30 5913 H 559.653 -0.194579 0.683857 0
M  V30 5914 H 562.255 0.151933 1.94909 0
M  V30 5915 H 560.959 -0.36153 4.08805 0
M  V30 5916 H 560.49 -1.93491 3.42527 0
M  V30 5917 H 562.505 -3.12087 3.85767 0
M  V30 5918 N 561.678 -1.56367 -0.196722 0
M  V30 5919 C 562.608 -1.97442 -1.24655 0
M  V30 5920 C 563.589 -0.846147 -1.47561 0
M  V30 5921 O 564.774 -1.11035 -1.59326 0
M  V30 5922 C 561.904 -2.31253 -2.59112 0
M  V30 5923 C 560.858 -3.46804 -2.50821 0
M  V30 5924 C 560.184 -3.66286 -3.89536 0
M  V30 5925 C 561.484 -4.8104 -2.03465 0
M  V30 5926 H 563.178 -2.85388 -0.905216 0
M  V30 5927 H 560.724 -1.37304 -0.434002 0
M  V30 5928 H 562.677 -2.58583 -3.32736 0
M  V30 5929 H 561.401 -1.40188 -2.94983 0
M  V30 5930 H 560.06 -3.19563 -1.79653 0
M  V30 5931 H 559.708 -2.72555 -4.22756 0
M  V30 5932 H 559.408 -4.4402 -3.84864 0
M  V30 5933 H 560.932 -3.9599 -4.64784 0
M  V30 5934 H 562.346 -5.07411 -2.66846 0
M  V30 5935 H 560.743 -5.62232 -2.09798 0
M  V30 5936 H 561.813 -4.74732 -0.98781 0
M  V30 5937 N 563.156 0.464375 -1.50603 0
M  V30 5938 C 564.404 1.21356 -1.61608 0
M  V30 5939 C 564.725 1.92329 -0.321643 0
M  V30 5940 O 563.995 1.84403 0.661232 0
M  V30 5941 H 562.575 0.45094 -0.595535 0
M  V30 5942 H 565.237 0.535046 -1.87412 0
M  V30 5943 H 564.333 1.95783 -2.43054 0
M  V30 5944 N 564.634 1.40294 0.718013 0
M  V30 5945 C 565.864 1.41544 1.50495 0
M  V30 5946 C 566.272 0.0127877 1.89196 0
M  V30 5947 O 565.615 -0.97305 1.55812 0
M  V30 5948 C 565.677 2.24021 2.81167 0
M  V30 5949 C 565.341 3.72463 2.64803 0
M  V30 5950 C 566.338 4.65154 2.32223 0
M  V30 5951 C 564.023 4.1625 2.81143 0
M  V30 5952 C 566.017 5.99618 2.16189 0
M  V30 5953 C 563.704 5.50784 2.64727 0
M  V30 5954 C 564.702 6.42283 2.32297 0
M  V30 5955 O 564.39 7.74337 2.16004 0
M  V30 5956 H 564.122 0.484819 0.471091 0
M  V30 5957 H 566.676 1.84948 0.893488 0
M  V30 5958 H 564.906 1.75393 3.44636 0
M  V30 5959 H 566.595 2.17243 3.42871 0
M  V30 5960 H 567.361 4.32622 2.19234 0
M  V30 5961 H 563.24 3.45352 3.05373 0
M  V30 5962 H 566.784 6.71 1.90799 0
M  V30 5963 H 562.681 5.82902 2.773 0
M  V30 5964 H 563.449 7.85244 2.30942 0
M  V30 5965 N 566.112 -0.949982 1.2575 0
M  V30 5966 C 567.062 -2.03297 1.03221 0
M  V30 5967 C 568.046 -1.60867 -0.0324751 0
M  V30 5968 O 569.238 -1.76047 0.183423 0
M  V30 5969 C 566.367 -3.36938 0.657841 0
M  V30 5970 C 565.453 -3.85878 1.75952 0
M  V30 5971 N 565.844 -4.0756 2.99547 0
M  V30 5972 C 564.142 -4.14709 1.64111 0
M  V30 5973 C 564.843 -4.47961 3.71087 0
M  V30 5974 N 563.819 -4.5416 2.98731 0
M  V30 5975 H 567.621 -2.1806 1.97045 0
M  V30 5976 H 565.135 -1.13516 1.16138 0
M  V30 5977 H 567.132 -4.14155 0.477614 0
M  V30 5978 H 565.792 -3.2355 -0.273025 0
M  V30 5979 H 566.803 -3.94501 3.35544 0
M  V30 5980 H 563.48 -4.10158 0.779527 0
M  V30 5981 H 564.87 -4.73002 4.77199 0
M  V30 5982 N 567.59 -1.07411 -1.15328 0
M  V30 5983 C 568.52 -0.716472 -2.22236 0
M  V30 5984 C 569.501 0.296373 -1.67498 0
M  V30 5985 O 570.686 0.168989 -1.93463 0
M  V30 5986 C 567.816 -0.114142 -3.47112 0
M  V30 5987 C 566.77 -1.05421 -4.14814 0
M  V30 5988 C 566.096 -0.314604 -5.33774 0
M  V30 5989 C 567.396 -2.38808 -4.64508 0
M  V30 5990 H 569.09 -1.61029 -2.52408 0
M  V30 5991 H 566.636 -0.775702 -1.21321 0
M  V30 5992 H 568.589 0.148001 -4.2114 0
M  V30 5993 H 567.313 0.814755 -3.16274 0
M  V30 5994 H 565.972 -1.30128 -3.42728 0
M  V30 5995 H 565.62 0.617772 -4.99192 0
M  V30 5996 H 565.32 -0.941209 -5.80013 0
M  V30 5997 H 566.844 -0.0602747 -6.1057 0
M  V30 5998 H 568.258 -2.18424 -5.3006 0
M  V30 5999 H 566.655 -2.97069 -5.21412 0
M  V30 6000 H 567.725 -3.01067 -3.80114 0
M  V30 6001 N 569.068 1.32177 -0.85831 0
M  V30 6002 C 570.345 1.91781 -0.384624 0
M  V30 6003 C 570.725 1.78171 1.13217 0
M  V30 6004 O 570.073 1.18209 1.95548 0
M  V30 6005 C 570.283 3.38414 -0.853047 0
M  V30 6006 C 571.631 4.15542 -0.872359 0
M  V30 6007 O 572.655 3.47148 -0.797926 0
M  V30 6008 O 571.514 5.37678 -0.978009 0
M  V30 6009 H 568.608 0.819259 -0.112886 0
M  V30 6010 H 571.154 1.40923 -0.945453 0
M  V30 6011 H 569.926 3.4228 -1.89632 0
M  V30 6012 H 569.549 3.96683 -0.269874 0
M  V30 6013 N 570.547 0.616602 1.45037 0
M  V30 6014 C 571.793 0.115501 2.02471 0
M  V30 6015 C 572.126 -1.25406 1.4828 0
M  V30 6016 O 571.401 -1.82922 0.661051 0
M  V30 6017 C 571.684 0.0863588 3.59996 0
M  V30 6018 C 571.537 1.48723 4.24501 0
M  V30 6019 C 572.856 -0.596762 4.36035 0
M  V30 6020 H 569.975 0.0434461 0.735718 0
M  V30 6021 H 572.617 0.7903 1.72784 0
M  V30 6022 H 570.767 -0.488277 3.85419 0
M  V30 6023 H 572.439 2.10964 4.10234 0
M  V30 6024 H 570.682 2.04534 3.82555 0
M  V30 6025 H 571.353 1.419 5.3345 0
M  V30 6026 H 573.829 -0.10824 4.15959 0
M  V30 6027 H 572.705 -0.586289 5.4576 0
M  V30 6028 H 572.966 -1.66451 4.09569 0
M  V30 6029 N 572.025 -1.5352 0.356285 0
M  V30 6030 C 573.25 -2.06007 -0.239961 0
M  V30 6031 C 573.675 -1.22872 -1.42422 0
M  V30 6032 O 573.033 -0.245516 -1.7963 0
M  V30 6033 C 573.081 -3.5522 -0.620587 0
M  V30 6034 O 572.185 -3.74864 -1.71902 0
M  V30 6035 H 571.526 -0.662961 -0.0371377 0
M  V30 6036 H 574.056 -1.98033 0.514194 0
M  V30 6037 H 574.066 -3.98081 -0.894197 0
M  V30 6038 H 572.741 -4.15175 0.245407 0
M  V30 6039 H 571.318 -3.43904 -1.44169 0
M  V30 6040 N 573.503 -0.0852151 -1.57369 0
M  V30 6041 C 574.433 0.874556 -2.16503 0
M  V30 6042 C 575.414 1.30111 -1.09568 0
M  V30 6043 O 576.599 1.36977 -1.37662 0
M  V30 6044 C 573.729 2.13731 -2.73745 0
M  V30 6045 C 572.683 1.84971 -3.85966 0
M  V30 6046 C 572.009 3.17991 -4.29867 0
M  V30 6047 C 573.309 1.14442 -5.09608 0
M  V30 6048 H 575.003 0.381899 -2.96954 0
M  V30 6049 H 572.549 0.18225 -1.42842 0
M  V30 6050 H 574.502 2.81302 -3.13763 0
M  V30 6051 H 573.226 2.65263 -1.90534 0
M  V30 6052 H 571.885 1.19801 -3.46473 0
M  V30 6053 H 571.533 3.6739 -3.4356 0
M  V30 6054 H 571.233 2.99534 -5.05523 0
M  V30 6055 H 572.757 3.86737 -4.72511 0
M  V30 6056 H 574.171 1.72105 -5.46857 0
M  V30 6057 H 572.568 1.06197 -5.90629 0
M  V30 6058 H 573.638 0.12559 -4.84737 0
M  V30 6059 N 574.981 1.5647 0.188427 0
M  V30 6060 C 575.944 1.9421 1.21718 0
M  V30 6061 C 576.944 0.823901 1.38089 0
M  V30 6062 O 578.134 1.09122 1.35787 0
M  V30 6063 C 575.266 2.22197 2.58537 0
M  V30 6064 H 576.459 2.86252 0.894418 0
M  V30 6065 H 574.012 1.50263 0.430211 0
M  V30 6066 H 574.747 1.32814 2.95856 0
M  V30 6067 H 574.532 3.03688 2.48025 0
M  V30 6068 H 576.022 2.52376 3.3271 0
M  V30 6069 N 576.459 -0.456382 1.50847 0
M  V30 6070 C 577.706 -1.20736 1.62571 0
M  V30 6071 C 578.034 -1.9163 0.332904 0
M  V30 6072 O 577.289 -1.8343 -0.682058 0
M  V30 6073 C 577.588 -2.26336 2.76599 0
M  V30 6074 C 577.254 -1.7259 4.16562 0
M  V30 6075 C 575.916 -1.57654 4.54641 0
M  V30 6076 C 578.268 -1.32877 5.03977 0
M  V30 6077 C 575.596 -1.0145 5.77862 0
M  V30 6078 C 577.948 -0.7811 6.27759 0
M  V30 6079 C 576.612 -0.618488 6.64628 0
M  V30 6080 H 575.882 -0.441803 0.594888 0
M  V30 6081 H 578.529 -0.501169 1.84826 0
M  V30 6082 H 576.834 -3.0292 2.48489 0
M  V30 6083 H 578.531 -2.84227 2.82871 0
M  V30 6084 H 575.121 -1.85187 3.86528 0
M  V30 6085 H 579.305 -1.43245 4.75179 0
M  V30 6086 H 574.561 -0.876109 6.0509 0
M  V30 6087 H 578.735 -0.464783 6.94847 0
M  V30 6088 H 576.362 -0.180838 7.59985 0
M  V30 6089 N 577.937 -1.40673 -0.710563 0
M  V30 6090 C 579.162 -1.42741 -1.50465 0
M  V30 6091 C 579.587 -0.0302116 -1.88076 0
M  V30 6092 O 578.945 0.962945 -1.53613 0
M  V30 6093 C 578.993 -2.32873 -2.75322 0
M  V30 6094 O 578.097 -1.77544 -3.72226 0
M  V30 6095 H 577.438 -0.485056 -0.45345 0
M  V30 6096 H 579.968 -1.84961 -0.874681 0
M  V30 6097 H 579.978 -2.48233 -3.23797 0
M  V30 6098 H 578.653 -3.34401 -2.47283 0
M  V30 6099 H 577.23 -1.71556 -3.31093 0
M  V30 6100 N 579.415 0.9433 -1.26252 0
M  V30 6101 C 580.325 2.07532 -1.09397 0
M  V30 6102 C 581.341 1.73977 -0.0280449 0
M  V30 6103 O 582.517 2.00067 -0.231337 0
M  V30 6104 C 579.582 3.39002 -0.726523 0
M  V30 6105 C 578.643 3.86353 -1.87163 0
M  V30 6106 C 577.876 5.11549 -1.52162 0
M  V30 6107 O 578.099 5.68834 -0.422385 0
M  V30 6108 O 577.033 5.53889 -2.35565 0
M  V30 6109 H 580.859 2.24658 -2.04359 0
M  V30 6110 H 578.444 1.05988 -1.05295 0
M  V30 6111 H 580.326 4.18 -0.534236 0
M  V30 6112 H 579.001 3.2312 0.193721 0
M  V30 6113 H 577.908 3.0831 -2.11886 0
M  V30 6114 H 579.241 4.06752 -2.77152 0
M  V30 6115 N 580.893 1.08022 1.14757 0
M  V30 6116 C 582.142 0.802468 1.8505 0
M  V30 6117 C 582.455 -0.674061 1.83619 0
M  V30 6118 O 583.661 -1.06683 2.49662 0
M  V30 6119 C 582.117 1.38551 3.32162 0
M  V30 6120 C 581.725 2.89354 3.42021 0
M  V30 6121 C 583.469 1.18608 4.07594 0
M  V30 6122 C 581.376 3.40815 4.83321 0
M  V30 6123 H 580.306 0.296518 0.693248 0
M  V30 6124 H 582.957 1.30114 1.29393 0
M  V30 6125 H 581.339 0.814556 3.87532 0
M  V30 6126 H 582.513 3.52552 2.96722 0
M  V30 6127 H 580.828 3.08165 2.80041 0
M  V30 6128 H 583.425 1.54525 5.11885 0
M  V30 6129 H 583.768 0.125599 4.1611 0
M  V30 6130 H 584.301 1.72375 3.58513 0
M  V30 6131 H 581.04 4.46418 4.79991 0
M  V30 6132 H 580.56 2.82374 5.29174 0
M  V30 6133 H 582.239 3.37171 5.522 0
M  V30 6134 N 582.371 -1.3172 0.865308 0
M  V30 6135 C 583.596 -2.01591 0.487415 0
M  V30 6136 C 584.021 -1.6455 -0.911307 0
M  V30 6137 O 583.379 -0.851689 -1.6005 0
M  V30 6138 C 583.427 -3.54759 0.646401 0
M  V30 6139 O 582.531 -4.11185 -0.316284 0
M  V30 6140 H 581.872 -0.634884 0.194468 0
M  V30 6141 H 584.402 -1.68024 1.16744 0
M  V30 6142 H 584.412 -4.04438 0.537932 0
M  V30 6143 H 583.087 -3.8106 1.66632 0
M  V30 6144 H 581.664 -3.72543 -0.163162 0
M  V30 6145 N 583.85 -0.624285 -1.44708 0
M  V30 6146 C 585.096 -0.126237 -2.02407 0
M  V30 6147 C 585.428 1.24618 -1.48943 0
M  V30 6148 O 584.704 1.82569 -0.670742 0
M  V30 6149 C 584.986 -0.105449 -3.59946 0
M  V30 6150 C 584.84 -1.50972 -4.23707 0
M  V30 6151 C 586.159 0.573629 -4.36346 0
M  V30 6152 H 583.278 -0.0473472 -0.735478 0
M  V30 6153 H 585.92 -0.799452 -1.72362 0
M  V30 6154 H 584.07 0.46783 -3.85673 0
M  V30 6155 H 585.742 -2.13136 -4.0911 0
M  V30 6156 H 583.985 -2.0656 -3.81465 0
M  V30 6157 H 584.656 -1.44727 -5.32689 0
M  V30 6158 H 587.132 0.0861787 -4.16011 0
M  V30 6159 H 586.008 0.557338 -5.46063 0
M  V30 6160 H 586.269 1.64276 -4.10446 0
M  V30 6161 N 585.328 1.53329 -0.364422 0
M  V30 6162 C 586.576 2.00842 0.225189 0
M  V30 6163 C 586.897 1.25345 1.49378 0
M  V30 6164 O 586.167 0.366396 1.92443 0
M  V30 6165 H 584.747 0.742009 0.0862027 0
M  V30 6166 H 587.409 1.8863 -0.490389 0
M  V30 6167 H 586.505 3.08795 0.452987 0
M  V30 6168 N 586.806 0.0935595 1.57322 0
M  V30 6169 C 587.769 -0.851426 2.12799 0
M  V30 6170 C 588.769 -1.21187 1.0569 0
M  V30 6171 O 589.959 -1.14156 1.31583 0
M  V30 6172 C 587.091 -2.14779 2.64731 0
M  V30 6173 H 588.284 -0.369733 2.97612 0
M  V30 6174 H 585.837 -0.155417 1.55525 0
M  V30 6175 H 586.572 -2.67437 1.83434 0
M  V30 6176 H 586.357 -1.89907 3.43042 0
M  V30 6177 H 587.847 -2.82383 3.07651 0
M  V30 6178 N 588.284 -1.56567 -0.180126 0
M  V30 6179 C 589.194 -1.98947 -1.24327 0
M  V30 6180 C 590.21 -0.899446 -1.4895 0
M  V30 6181 O 591.386 -1.20639 -1.61271 0
M  V30 6182 C 588.451 -2.33328 -2.56435 0
M  V30 6183 C 587.512 -3.56114 -2.39752 0
M  V30 6184 C 586.745 -3.88845 -3.65561 0
M  V30 6185 O 586.968 -3.22662 -4.70368 0
M  V30 6186 O 585.902 -4.82226 -3.60197 0
M  V30 6187 H 589.728 -2.89634 -0.913565 0
M  V30 6188 H 587.313 -1.44319 -0.386306 0
M  V30 6189 H 589.195 -2.5645 -3.34382 0
M  V30 6190 H 587.87 -1.45806 -2.89002 0
M  V30 6191 H 586.777 -3.38221 -1.59866 0
M  V30 6192 H 588.11 -4.4415 -2.12113 0
M  V30 6193 N 589.762 0.448376 -1.51087 0
M  V30 6194 C 591.009 1.19872 -1.63209 0
M  V30 6195 C 591.337 1.91451 -0.343062 0
M  V30 6196 O 590.592 1.83789 0.672321 0
M  V30 6197 C 590.891 2.24866 -2.77795 0
M  V30 6198 C 590.557 1.70378 -4.17471 0
M  V30 6199 C 589.219 1.55241 -4.55471 0
M  V30 6200 C 591.571 1.30203 -5.04675 0
M  V30 6201 C 588.899 0.983844 -5.78392 0
M  V30 6202 C 591.251 0.747798 -6.28165 0
M  V30 6203 C 589.915 0.583233 -6.64947 0
M  V30 6204 H 589.185 0.438642 -0.597222 0
M  V30 6205 H 591.832 0.49136 -1.85089 0
M  V30 6206 H 590.137 3.01598 -2.50092 0
M  V30 6207 H 591.834 2.82723 -2.84374 0
M  V30 6208 H 588.424 1.83134 -3.87505 0
M  V30 6209 H 592.608 1.40723 -4.75932 0
M  V30 6210 H 587.864 0.844007 -6.05546 0
M  V30 6211 H 592.038 0.427927 -6.95084 0
M  V30 6212 H 589.665 0.140532 -7.6007 0
M  V30 6213 N 591.24 1.41047 0.703093 0
M  V30 6214 C 592.188 1.42494 1.83843 0
M  V30 6215 C 593.182 0.303885 1.66652 0
M  V30 6216 O 594.388 0.475544 1.73605 0
M  V30 6217 H 590.763 0.445685 0.605697 0
M  V30 6218 H 592.734 2.38194 1.79739 0
M  V30 6219 C 591.483 1.31666 3.21807 0
M  V30 6220 H 590.806 2.17212 3.35647 0
M  V30 6221 H 592.246 1.36738 4.01346 0
M  V30 6222 C 590.705 0.0281828 3.36888 0
M  V30 6223 O 591.235 -0.929995 3.90786 0
M  V30 6224 N 589.441 -0.0454322 2.90564 0
M  V30 6225 H 588.988 0.735046 2.4689 0
M  V30 6226 H 588.946 -0.906968 3.01034 0
M  V30 6227 N 592.718 -0.936591 1.26751 0
M  V30 6228 C 593.665 -2.03597 1.08706 0
M  V30 6229 C 594.635 -1.66097 -0.00926542 0
M  V30 6230 O 595.82 -1.90199 0.151377 0
M  V30 6231 C 592.96 -3.3727 0.73094 0
M  V30 6232 C 592.073 -3.87778 1.90399 0
M  V30 6233 C 591.208 -5.09859 1.49056 0
M  V30 6234 C 590.247 -5.5264 2.63164 0
M  V30 6235 N 589.384 -6.65921 2.22471 0
M  V30 6236 H 594.224 -2.18364 2.02784 0
M  V30 6237 H 591.761 -1.06985 1.00958 0
M  V30 6238 H 593.719 -4.14128 0.505328 0
M  V30 6239 H 592.349 -3.22337 -0.172868 0
M  V30 6240 H 591.401 -3.07279 2.2424 0
M  V30 6241 H 592.713 -4.15464 2.76028 0
M  V30 6242 H 591.867 -5.9419 1.22567 0
M  V30 6243 H 590.606 -4.8393 0.60524 0
M  V30 6244 H 589.611 -4.66863 2.90377 0
M  V30 6245 H 590.836 -5.80568 3.52303 0
M  V30 6246 H 588.782 -6.41667 1.36379 0
M  V30 6247 H 588.699 -6.93216 3.01641 0
M  V30 6248 H 589.967 -7.53616 1.99205 0
M  V30 6249 N 594.196 -1.08629 -1.14182 0
M  V30 6250 C 595.473 -0.73002 -1.81466 0
M  V30 6251 C 595.853 0.785996 -1.95922 0
M  V30 6252 O 595.201 1.70535 -1.52086 0
M  V30 6253 C 595.411 -1.45957 -3.17014 0
M  V30 6254 C 596.759 -1.62008 -3.92477 0
M  V30 6255 O 597.783 -1.42141 -3.26611 0
M  V30 6256 O 596.642 -1.94806 -5.106 0
M  V30 6257 H 593.736 -0.261307 -0.784632 0
M  V30 6258 H 596.282 -1.188 -1.2118 0
M  V30 6259 H 595.054 -2.49221 -3.01669 0
M  V30 6260 H 594.677 -0.993222 -3.84995 0
M  V30 6261 N 595.674 1.31259 -0.872281 0
M  V30 6262 C 596.951 1.91362 -0.404943 0
M  V30 6263 C 597.331 1.79362 1.11321 0
M  V30 6264 O 596.679 1.20277 1.94283 0
M  V30 6265 C 596.889 3.3749 -0.888893 0
M  V30 6266 C 598.237 4.14593 -0.916384 0
M  V30 6267 O 599.261 3.46282 -0.834701 0
M  V30 6268 O 598.12 5.3661 -1.03498 0
M  V30 6269 H 595.214 0.818016 -0.121569 0
M  V30 6270 H 597.76 1.39912 -0.960346 0
M  V30 6271 H 596.532 3.40249 -1.93251 0
M  V30 6272 H 596.155 3.96375 -0.311932 0
M  V30 6273 N 597.152 0.631951 1.44375 0
M  V30 6274 C 598.392 0.14009 2.03919 0
M  V30 6275 C 598.756 -1.21534 1.48639 0
M  V30 6276 O 599.957 -1.79936 1.99691 0
M  V30 6277 C 598.228 0.127174 3.57174 0
M  V30 6278 S 599.787 -0.299946 4.37774 0
M  V30 6279 H 596.605 0.0614891 0.708336 0
M  V30 6280 H 599.207 0.835524 1.76746 0
M  V30 6281 H 597.911 1.11676 3.94913 0
M  V30 6282 H 597.442 -0.589482 3.88958 0
M  V30 6283 H 599.457 -1.54396 4.71568 0
M  V30 6284 N 598.631 -1.53133 0.372548 0
M  V30 6285 C 599.877 -2.01654 -0.215277 0
M  V30 6286 C 600.21 -1.25914 -1.47849 0
M  V30 6287 O 599.485 -0.3548 -1.91237 0
M  V30 6288 C 599.768 -3.56609 -0.500187 0
M  V30 6289 C 599.621 -4.43036 0.777145 0
M  V30 6290 C 600.94 -4.20528 -1.29786 0
M  V30 6291 H 598.059 -0.732991 -0.0767686 0
M  V30 6292 H 600.701 -1.83335 0.498814 0
M  V30 6293 H 598.851 -3.7235 -1.10852 0
M  V30 6294 H 600.523 -4.39079 1.41447 0
M  V30 6295 H 598.766 -4.10723 1.39604 0
M  V30 6296 H 599.437 -5.49424 0.532662 0
M  V30 6297 H 601.913 -4.08663 -0.783198 0
M  V30 6298 H 600.789 -5.28962 -1.46596 0
M  V30 6299 H 601.05 -3.77051 -2.30836 0
M  V30 6300 N 600.109 -0.101901 -1.5727 0
M  V30 6301 C 601.056 0.854577 -2.14396 0
M  V30 6302 C 602.026 1.27521 -1.06432 0
M  V30 6303 O 603.211 1.35575 -1.34253 0
M  V30 6304 C 600.351 2.10576 -2.73408 0
M  V30 6305 C 599.464 1.73504 -3.95626 0
M  V30 6306 C 598.599 2.9346 -4.42781 0
M  V30 6307 C 597.638 2.52547 -5.57572 0
M  V30 6308 N 596.775 3.65359 -5.99547 0
M  V30 6309 H 601.615 0.360578 -2.9581 0
M  V30 6310 H 599.152 0.166303 -1.46157 0
M  V30 6311 H 601.11 2.83859 -3.05745 0
M  V30 6312 H 599.74 2.57463 -1.94711 0
M  V30 6313 H 598.792 0.901622 -3.6956 0
M  V30 6314 H 600.104 1.39426 -4.78917 0
M  V30 6315 H 599.258 3.74988 -4.76937 0
M  V30 6316 H 597.997 3.30753 -3.58404 0
M  V30 6317 H 597.002 1.69446 -5.23037 0
M  V30 6318 H 598.227 2.1639 -6.43702 0
M  V30 6319 H 596.173 4.02358 -5.18116 0
M  V30 6320 H 596.09 3.35148 -6.77652 0
M  V30 6321 H 597.358 4.47378 -6.38336 0
M  V30 6322 N 601.587 1.56661 0.17182 0
M  V30 6323 C 603.003 1.50768 0.52357 0
M  V30 6324 C 603.203 0.806072 1.84675 0
M  V30 6325 O 602.259 0.366233 2.4983 0
M  V30 6326 C 603.572 2.955 0.556793 0
M  V30 6327 C 605.12 3.06303 0.644029 0
M  V30 6328 C 605.595 4.52492 0.708148 0
M  V30 6329 N 607.086 4.56737 0.771051 0
M  V30 6330 C 607.821 5.67196 0.841229 0
M  V30 6331 N 607.317 6.87287 0.872272 0
M  V30 6332 N 609.11 5.55165 0.88021 0
M  V30 6333 H 601.261 2.00679 -0.695817 0
M  V30 6334 H 603.524 0.914219 -0.250814 0
M  V30 6335 H 603.23 3.49986 -0.346774 0
M  V30 6336 H 603.104 3.50119 1.40346 0
M  V30 6337 H 605.491 2.51851 1.53802 0
M  V30 6338 H 605.572 2.5477 -0.229297 0
M  V30 6339 H 605.216 5.07575 -0.181585 0
M  V30 6340 H 605.146 5.01781 1.59761 0
M  V30 6341 H 607.637 3.70274 0.755364 0
M  V30 6342 H 607.95 7.6722 0.92698 0
M  V30 6343 H 606.295 6.89898 0.840557 0
M  V30 6344 H 609.486 4.60263 0.852956 0
M  V30 6345 H 609.659 6.41271 0.931439 0
M  V30 6346 N 603.065 -0.440357 1.51323 0
M  V30 6347 C 604.313 -1.18769 1.63518 0
M  V30 6348 C 604.634 -1.91793 0.352201 0
M  V30 6349 O 603.904 -1.85432 -0.631811 0
M  V30 6350 H 602.484 -0.441408 0.602634 0
M  V30 6351 H 605.146 -0.505162 1.8824 0
M  V30 6352 H 604.242 -1.91892 2.46138 0
M  V30 6353 N 604.543 -1.41418 -0.695603 0
M  V30 6354 C 605.453 -1.45622 -1.83933 0
M  V30 6355 C 606.469 -0.346825 -1.70508 0
M  V30 6356 O 607.645 -0.59454 -1.92424 0
M  V30 6357 C 604.71 -1.33627 -3.19914 0
M  V30 6358 C 603.771 -2.54882 -3.45447 0
M  V30 6359 C 603.004 -2.43449 -4.7494 0
M  V30 6360 O 603.227 -1.45905 -5.51424 0
M  V30 6361 O 602.161 -3.33206 -5.01256 0
M  V30 6362 H 605.987 -2.42114 -1.83342 0
M  V30 6363 H 603.572 -1.22956 -0.848658 0
M  V30 6364 H 605.454 -1.29221 -4.01098 0
M  V30 6365 H 604.129 -0.402508 -3.21188 0
M  V30 6366 H 603.036 -2.64865 -2.64192 0
M  V30 6367 H 604.369 -3.47087 -3.48987 0
M  V30 6368 N 606.021 0.929856 -1.27246 0
M  V30 6369 C 607.269 1.674 -1.13233 0
M  V30 6370 C 607.59 1.92311 0.322744 0
M  V30 6371 O 606.86 1.52784 1.22612 0
M  V30 6372 H 605.44 0.620411 -0.416052 0
M  V30 6373 H 608.102 1.11663 -1.59741 0
M  V30 6374 H 607.198 2.64308 -1.65975 0
M  V30 6375 N 607.499 1.09233 1.13605 0
M  V30 6376 C 608.915 0.82163 1.36826 0
M  V30 6377 C 609.115 -0.565021 1.93416 0
M  V30 6378 O 608.171 -1.32026 2.15234 0
M  V30 6379 C 609.484 1.91124 2.32147 0
M  V30 6380 C 611.032 1.93824 2.45767 0
M  V30 6381 C 611.507 3.01923 3.44393 0
M  V30 6382 N 612.998 3.01149 3.51942 0
M  V30 6383 C 613.733 3.81434 4.2813 0
M  V30 6384 N 613.229 4.71621 5.07489 0
M  V30 6385 N 615.022 3.69702 4.23411 0
M  V30 6386 H 607.173 1.98633 0.752234 0
M  V30 6387 H 609.436 0.862482 0.393482 0
M  V30 6388 H 609.142 2.90862 1.97717 0
M  V30 6389 H 609.016 1.78777 3.32142 0
M  V30 6390 H 611.403 0.94726 2.79483 0
M  V30 6391 H 611.484 2.10248 1.45703 0
M  V30 6392 H 611.128 4.01232 3.11408 0
M  V30 6393 H 611.058 2.82742 4.44257 0
M  V30 6394 H 613.549 2.35789 2.95317 0
M  V30 6395 H 613.862 5.29468 5.62924 0
M  V30 6396 H 612.207 4.75658 5.06729 0
M  V30 6397 H 615.398 2.98606 3.60489 0
M  V30 6398 H 615.571 4.32509 4.82535 0
M  V30 6399 N 608.977 -1.30795 0.87923 0
M  V30 6400 C 609.94 -2.26563 0.346676 0
M  V30 6401 C 610.94 -1.52578 -0.507597 0
M  V30 6402 O 612.13 -1.71318 -0.315575 0
M  V30 6403 C 609.262 -3.37115 -0.506611 0
M  V30 6404 H 610.455 -2.75183 1.19223 0
M  V30 6405 H 608.008 -1.41886 0.655598 0
M  V30 6406 H 608.743 -2.93802 -1.37299 0
M  V30 6407 H 608.528 -3.91959 0.105218 0
M  V30 6408 H 610.018 -4.08412 -0.871192 0
M  V30 6409 N 610.455 -0.639598 -1.44038 0
M  V30 6410 C 611.701 -0.147698 -2.02261 0
M  V30 6411 C 612.034 1.23031 -1.50256 0
M  V30 6412 O 611.309 1.81847 -0.690068 0
M  V30 6413 C 611.592 -0.14362 -3.59813 0
M  V30 6414 C 611.445 -1.55458 -4.22082 0
M  V30 6415 C 612.764 0.527317 -4.36929 0
M  V30 6416 H 609.883 -0.0551453 -0.734934 0
M  V30 6417 H 612.525 -0.817688 -1.71505 0
M  V30 6418 H 610.675 0.426898 -3.86147 0
M  V30 6419 H 612.347 -2.17464 -4.06826 0
M  V30 6420 H 610.59 -2.10594 -3.79253 0
M  V30 6421 H 611.261 -1.50369 -5.31124 0
M  V30 6422 H 613.737 0.0420504 -4.16079 0
M  V30 6423 H 612.613 0.499389 -5.46624 0
M  V30 6424 H 612.874 1.59914 -4.12165 0
M  V30 6425 N 611.933 1.52934 -0.380664 0
M  V30 6426 C 612.881 2.27727 0.47361 0
M  V30 6427 C 613.875 1.31288 1.0705 0
M  V30 6428 O 615.081 1.4886 1.01197 0
M  V30 6429 H 611.456 0.732189 0.171475 0
M  V30 6430 H 613.427 2.97864 -0.178785 0
M  V30 6431 C 612.176 3.0904 1.59341 0
M  V30 6432 H 611.499 3.831 1.14343 0
M  V30 6433 H 612.939 3.64527 2.16555 0
M  V30 6434 C 611.398 2.20813 2.54447 0
M  V30 6435 O 611.928 1.82907 3.57642 0
M  V30 6436 N 610.134 1.85145 2.23986 0
M  V30 6437 H 609.681 2.16169 1.40103 0
M  V30 6438 H 609.639 1.26402 2.87871 0
M  V30 6439 N 613.412 0.11024 1.57214 0
M  V30 6440 C 614.661 -0.549638 1.94067 0
M  V30 6441 C 614.974 -1.68388 0.995234 0
M  V30 6442 O 616.18 -2.40593 1.25807 0
M  V30 6443 C 614.636 -1.02912 3.44873 0
M  V30 6444 C 614.244 0.0761861 4.47935 0
M  V30 6445 C 615.988 -1.66087 3.9066 0
M  V30 6446 C 613.895 -0.419502 5.8991 0
M  V30 6447 H 612.825 -0.209092 0.724428 0
M  V30 6448 H 615.476 0.188683 1.82527 0
M  V30 6449 H 613.858 -1.82159 3.51616 0
M  V30 6450 H 615.032 0.852185 4.52851 0
M  V30 6451 H 613.347 0.614052 4.11847 0
M  V30 6452 H 615.944 -2.04272 4.94143 0
M  V30 6453 H 616.287 -2.53591 3.30148 0
M  V30 6454 H 616.82 -0.933959 3.86681 0
M  V30 6455 H 613.559 0.419277 6.54158 0
M  V30 6456 H 613.079 -1.16217 5.88433 0
M  V30 6457 H 614.758 -0.883577 6.40938 0
M  V30 6458 N 614.89 -1.56749 -0.16351 0
M  V30 6459 C 616.118 -1.86577 -0.894233 0
M  V30 6460 C 616.533 -0.696543 -1.75481 0
M  V30 6461 O 615.89 0.334161 -1.79415 0
M  V30 6462 C 615.941 -3.15508 -1.76456 0
M  V30 6463 O 615.662 -4.27926 -0.938685 0
M  V30 6464 C 617.163 -3.58737 -2.60428 0
M  V30 6465 H 614.383 -0.618829 -0.259405 0
M  V30 6466 H 616.927 -2.03863 -0.161259 0
M  V30 6467 H 615.082 -3.00025 -2.45079 0
M  V30 6468 H 615.496 -5.01546 -1.53465 0
M  V30 6469 H 616.97 -4.51832 -3.17099 0
M  V30 6470 H 617.447 -2.83229 -3.35675 0
M  V30 6471 H 618.053 -3.76858 -1.97125 0
M  V30 6472 N 616.368 0.432326 -1.51554 0
M  V30 6473 C 617.593 1.20824 -1.68571 0
M  V30 6474 C 618.018 1.84126 -0.384596 0
M  V30 6475 O 617.376 1.69025 0.655751 0
M  V30 6476 C 617.424 2.26429 -2.80646 0
M  V30 6477 O 616.528 3.32032 -2.44598 0
M  V30 6478 H 615.869 0.353765 -0.561913 0
M  V30 6479 H 618.399 0.509916 -1.98144 0
M  V30 6480 H 618.409 2.71133 -3.04878 0
M  V30 6481 H 617.084 1.79733 -3.75058 0
M  V30 6482 H 615.661 2.92769 -2.30956 0
M  V30 6483 N 617.846 1.41785 0.688094 0
M  V30 6484 C 618.756 1.46596 1.83158 0
M  V30 6485 C 619.772 0.355862 1.70322 0
M  V30 6486 O 620.948 0.604737 1.92106 0
M  V30 6487 C 618.013 1.35322 3.192 0
M  V30 6488 C 617.074 2.56711 3.4409 0
M  V30 6489 C 616.307 2.45965 4.73642 0
M  V30 6490 O 616.53 1.48827 5.50642 0
M  V30 6491 O 615.464 3.35859 4.99482 0
M  V30 6492 H 619.29 2.43083 1.82056 0
M  V30 6493 H 616.875 1.23404 0.842126 0
M  V30 6494 H 618.757 1.31347 4.00407 0
M  V30 6495 H 617.432 0.419536 3.2097 0
M  V30 6496 H 616.339 2.66262 2.62784 0
M  V30 6497 H 617.672 3.48933 3.47141 0
M  V30 6498 N 619.324 -0.923095 1.27737 0
M  V30 6499 C 620.272 -2.04567 1.10703 0
M  V30 6500 C 621.266 -1.69375 0.0288445 0
M  V30 6501 O 622.472 -1.79027 0.186913 0
M  V30 6502 H 618.847 -0.670109 0.34126 0
M  V30 6503 H 620.818 -2.1608 2.05796 0
M  V30 6504 C 619.567 -3.38934 0.775837 0
M  V30 6505 H 618.89 -3.66501 1.59741 0
M  V30 6506 H 620.33 -4.18239 0.696548 0
M  V30 6507 C 618.789 -3.32863 -0.520012 0
M  V30 6508 O 619.319 -3.70462 -1.55308 0
M  V30 6509 N 617.525 -2.85958 -0.51732 0
M  V30 6510 H 617.072 -2.55557 0.32379 0
M  V30 6511 H 617.03 -2.82279 -1.38441 0
M  V30 6512 N 620.802 -1.09834 -1.13024 0
M  V30 6513 C 621.732 -0.763451 -2.20666 0
M  V30 6514 C 622.713 0.260778 -1.68089 0
M  V30 6515 O 623.898 0.127915 -1.93778 0
M  V30 6516 C 621.028 -0.187744 -3.46792 0
M  V30 6517 C 619.982 -1.14196 -4.12484 0
M  V30 6518 C 619.308 -0.427755 -5.32986 0
M  V30 6519 C 620.608 -2.48607 -4.59338 0
M  V30 6520 H 622.302 -1.66347 -2.48936 0
M  V30 6521 H 619.848 -0.801261 -1.19649 0
M  V30 6522 H 621.801 0.0586375 -4.21359 0
M  V30 6523 H 620.525 0.747485 -3.17931 0
M  V30 6524 H 619.184 -1.37369 -3.3989 0
M  V30 6525 H 618.832 0.511747 -5.0039 0
M  V30 6526 H 618.532 -1.06403 -5.77886 0
M  V30 6527 H 620.056 -0.189772 -6.10305 0
M  V30 6528 H 621.47 -2.29618 -5.25308 0
M  V30 6529 H 619.867 -3.08062 -5.14993 0
M  V30 6530 H 620.937 -3.09062 -3.73642 0
M  V30 6531 N 622.28 1.30327 -0.886154 0
M  V30 6532 C 623.529 1.95373 -0.501243 0
M  V30 6533 C 623.842 1.70722 0.954634 0
M  V30 6534 O 625.048 2.29761 1.44644 0
M  V30 6535 C 623.504 3.49828 -0.845493 0
M  V30 6536 C 623.112 3.83296 -2.31922 0
M  V30 6537 C 624.856 4.2118 -0.529838 0
M  V30 6538 C 622.763 5.30935 -2.60504 0
M  V30 6539 H 621.693 0.731274 -0.183722 0
M  V30 6540 H 624.344 1.48258 -1.08129 0
M  V30 6541 H 622.726 3.95522 -0.19452 0
M  V30 6542 H 623.9 3.48508 -3.01461 0
M  V30 6543 H 622.215 3.2505 -2.60253 0
M  V30 6544 H 624.812 5.29825 -0.720401 0
M  V30 6545 H 625.155 4.12902 0.530828 0
M  V30 6546 H 625.688 3.81173 -1.13806 0
M  V30 6547 H 622.427 5.44265 -3.65316 0
M  V30 6548 H 621.947 5.67019 -1.95575 0
M  V30 6549 H 623.626 5.98381 -2.46066 0
M  V30 6550 N 623.758 0.647228 1.43697 0
M  V30 6551 C 625.035 0.0883758 1.954 0
M  V30 6552 C 625.415 -1.39006 1.58873 0
M  V30 6553 O 624.763 -2.11255 0.87083 0
M  V30 6554 C 624.973 0.328263 3.47453 0
M  V30 6555 C 626.321 0.230009 4.23977 0
M  V30 6556 O 627.345 0.260496 3.55246 0
M  V30 6557 O 626.204 0.148615 5.46298 0
M  V30 6558 H 623.298 -0.0130683 0.826897 0
M  V30 6559 H 625.844 0.72005 1.53666 0
M  V30 6560 H 624.616 1.3535 3.67146 0
M  V30 6561 H 624.239 -0.336772 3.96171 0
M  V30 6562 N 625.236 -1.5273 0.388769 0
M  V30 6563 C 626.513 -1.93981 -0.251133 0
M  V30 6564 C 626.893 -1.32418 -1.64404 0
M  V30 6565 O 626.241 -0.492074 -2.23139 0
M  V30 6566 C 626.451 -3.47891 -0.27802 0
M  V30 6567 C 627.799 -4.21559 -0.507229 0
M  V30 6568 O 628.823 -3.54394 -0.358252 0
M  V30 6569 O 627.682 -5.40626 -0.799094 0
M  V30 6570 H 624.776 -0.812157 -0.15598 0
M  V30 6571 H 627.322 -1.63809 0.443237 0
M  V30 6572 H 626.094 -3.8503 0.697669 0
M  V30 6573 H 625.717 -3.84364 -1.01733 0
M  V30 6574 N 626.714 -0.118576 -1.57153 0
M  V30 6575 C 627.96 0.540326 -1.95469 0
M  V30 6576 C 628.293 1.66356 -1.00196 0
M  V30 6577 O 627.568 1.94461 -0.039104 0
M  V30 6578 C 627.851 1.07342 -3.43729 0
M  V30 6579 C 627.704 -0.0463732 -4.49776 0
M  V30 6580 C 629.023 1.96442 -3.93826 0
M  V30 6581 H 626.142 0.19494 -0.710751 0
M  V30 6582 H 628.784 -0.19405 -1.89006 0
M  V30 6583 H 626.934 1.69925 -3.49368 0
M  V30 6584 H 628.606 -0.681648 -4.56236 0
M  V30 6585 H 626.849 -0.709574 -4.27957 0
M  V30 6586 H 627.52 0.367856 -5.50773 0
M  V30 6587 H 629.996 1.43731 -3.90488 0
M  V30 6588 H 628.872 2.3066 -4.98084 0
M  V30 6589 H 629.133 2.89077 -3.34495 0
M  V30 6590 N 628.193 1.56834 0.155195 0
M  V30 6591 C 629.439 1.83169 0.870467 0
M  V30 6592 C 629.772 0.698929 1.81187 0
M  V30 6593 O 629.047 -0.298035 1.92203 0
M  V30 6594 C 629.33 3.19965 1.65211 0
M  V30 6595 C 629.183 4.43792 0.732744 0
M  V30 6596 C 630.502 3.53885 2.61636 0
M  V30 6597 H 627.621 0.666288 0.315006 0
M  V30 6598 H 630.263 1.89513 0.135988 0
M  V30 6599 H 628.413 3.14687 2.27825 0
M  V30 6600 H 630.085 4.61148 0.118236 0
M  V30 6601 H 628.328 4.3378 0.0417906 0
M  V30 6602 H 628.999 5.36095 1.31552 0
M  V30 6603 H 631.475 3.5972 2.09143 0
M  V30 6604 H 630.351 4.50648 3.13381 0
M  V30 6605 H 630.612 2.79418 3.42605 0
M  V30 6606 N 629.671 -0.424282 1.51781 0
M  V30 6607 C 630.896 -1.19928 1.6921 0
M  V30 6608 C 631.321 -1.8392 0.394355 0
M  V30 6609 O 630.679 -1.69371 -0.646778 0
M  V30 6610 C 630.727 -2.24937 2.81843 0
M  V30 6611 O 629.831 -3.3073 2.46356 0
M  V30 6612 H 629.172 -0.35078 0.563781 0
M  V30 6613 H 631.702 -0.499401 1.98412 0
M  V30 6614 H 631.712 -2.69512 3.06312 0
M  V30 6615 H 630.387 -1.77742 3.76006 0
M  V30 6616 H 628.964 -2.9154 2.32505 0
M  V30 6617 N 631.149 -1.42148 -0.680565 0
M  V30 6618 C 632.079 -1.4796 -1.80638 0
M  V30 6619 C 633.06 -0.336728 -1.66734 0
M  V30 6620 O 634.245 -0.550247 -1.86242 0
M  V30 6621 C 631.375 -1.37569 -3.18892 0
M  V30 6622 C 630.329 -2.49823 -3.47524 0
M  V30 6623 C 629.655 -2.24491 -4.85291 0
M  V30 6624 C 630.955 -3.92144 -3.44994 0
M  V30 6625 H 632.649 -2.42184 -1.76032 0
M  V30 6626 H 630.195 -1.16566 -0.845481 0
M  V30 6627 H 632.148 -1.40243 -3.97379 0
M  V30 6628 H 630.872 -0.398357 -3.24162 0
M  V30 6629 H 629.531 -2.46455 -2.71395 0
M  V30 6630 H 629.179 -1.25066 -4.87204 0
M  V30 6631 H 628.879 -2.99722 -5.05411 0
M  V30 6632 H 630.403 -2.28906 -5.66069 0
M  V30 6633 H 631.817 -3.97145 -4.13459 0
M  V30 6634 H 630.214 -4.67179 -3.76648 0
M  V30 6635 H 631.284 -4.19225 -2.43676 0
M  V30 6636 N 632.627 0.916307 -1.28225 0
M  V30 6637 C 633.876 1.65975 -1.14608 0
M  V30 6638 C 634.189 1.93204 0.305191 0
M  V30 6639 O 635.395 2.65611 0.562432 0
M  V30 6640 C 633.851 2.98989 -2.00333 0
M  V30 6641 C 633.459 2.79417 -3.50186 0
M  V30 6642 C 635.203 3.76856 -1.95397 0
M  V30 6643 C 633.11 4.08056 -4.28071 0
M  V30 6644 H 632.04 0.622587 -0.425324 0
M  V30 6645 H 634.691 1.01705 -1.52736 0
M  V30 6646 H 633.073 3.6438 -1.5506 0
M  V30 6647 H 634.247 2.22723 -4.034 0
M  V30 6648 H 632.562 2.14966 -3.56621 0
M  V30 6649 H 635.159 4.72203 -2.50856 0
M  V30 6650 H 635.502 4.05776 -0.930137 0
M  V30 6651 H 636.035 3.1828 -2.38626 0
M  V30 6652 H 632.774 3.8431 -5.31024 0
M  V30 6653 H 632.294 4.64371 -3.79631 0
M  V30 6654 H 633.973 4.76333 -4.37854 0
M  V30 6655 N 634.105 1.10431 1.1244 0
M  V30 6656 C 635.521 0.836096 1.35947 0
M  V30 6657 C 635.721 -0.544475 1.94004 0
M  V30 6658 O 634.777 -1.29735 2.16622 0
M  V30 6659 C 636.09 1.93575 2.30107 0
M  V30 6660 C 637.638 1.9642 2.43697 0
M  V30 6661 C 638.113 3.05559 3.41171 0
M  V30 6662 N 639.604 3.04865 3.48728 0
M  V30 6663 C 640.339 3.85954 4.24061 0
M  V30 6664 N 639.835 4.76977 5.02458 0
M  V30 6665 N 641.628 3.74172 4.19466 0
M  V30 6666 H 633.779 1.9942 0.731124 0
M  V30 6667 H 636.042 0.866607 0.384312 0
M  V30 6668 H 635.748 2.92943 1.94621 0
M  V30 6669 H 635.622 1.8229 3.30227 0
M  V30 6670 H 638.009 0.97685 2.78463 0
M  V30 6671 H 638.09 2.11782 1.43465 0
M  V30 6672 H 637.734 4.04513 3.07135 0
M  V30 6673 H 637.664 2.87438 4.41234 0
M  V30 6674 H 640.155 2.38908 2.92799 0
M  V30 6675 H 640.468 5.35409 5.57277 0
M  V30 6676 H 638.813 4.81006 5.01655 0
M  V30 6677 H 642.004 3.02412 3.57302 0
M  V30 6678 H 642.177 4.37602 4.77921 0
M  V30 6679 N 635.583 -1.29855 0.893053 0
M  V30 6680 C 636.831 -1.9544 0.514566 0
M  V30 6681 C 637.152 -1.70795 -0.940959 0
M  V30 6682 O 636.422 -1.03601 -1.66264 0
M  V30 6683 H 635.002 -0.723137 0.187302 0
M  V30 6684 H 637.664 -1.58234 1.13789 0
M  V30 6685 H 636.76 -3.04341 0.691581 0
M  V30 6686 N 637.061 -0.65484 -1.43351 0
M  V30 6687 C 638.309 -0.168559 -2.01396 0
M  V30 6688 C 638.63 1.22235 -1.51933 0
M  V30 6689 O 637.9 1.81685 -0.732627 0
M  V30 6690 H 636.48 -0.0593244 -0.744641 0
M  V30 6691 H 639.142 -0.846871 -1.75539 0
M  V30 6692 H 638.238 -0.154428 -3.11718 0
M  V30 6693 N 638.539 1.52521 -0.396863 0
M  V30 6694 C 639.767 2.06091 0.18275 0
M  V30 6695 C 640.182 1.26796 1.39886 0
M  V30 6696 O 639.539 0.316585 1.79733 0
M  V30 6697 C 639.59 3.57362 0.545377 0
M  V30 6698 O 639.311 4.33656 -0.622428 0
M  V30 6699 C 640.812 4.27305 1.18004 0
M  V30 6700 H 638.032 0.670504 0.025789 0
M  V30 6701 H 640.576 1.96561 -0.564276 0
M  V30 6702 H 638.731 3.66941 1.2423 0
M  V30 6703 H 639.145 5.23507 -0.322662 0
M  V30 6704 H 640.619 5.34366 1.38408 0
M  V30 6705 H 641.096 3.83 2.1496 0
M  V30 6706 H 641.702 4.22064 0.523671 0
M  V30 6707 N 640.017 0.126909 1.57088 0
M  V30 6708 C 641.433 -0.229641 1.57939 0
M  V30 6709 C 641.633 -1.66145 1.1401 0
M  V30 6710 O 640.689 -2.3843 0.831119 0
M  V30 6711 C 642.002 0.0108648 3.00698 0
M  V30 6712 C 643.55 -0.054418 3.12953 0
M  V30 6713 C 644.025 0.158497 4.57726 0
M  V30 6714 N 645.516 0.104735 4.63082 0
M  V30 6715 C 646.251 0.24427 5.72879 0
M  V30 6716 N 645.747 0.440415 6.91399 0
M  V30 6717 N 647.54 0.183286 5.61801 0
M  V30 6718 H 639.691 1.06203 1.83942 0
M  V30 6719 H 641.954 0.418834 0.85046 0
M  V30 6720 H 641.66 1.00102 3.37154 0
M  V30 6721 H 641.534 -0.717512 3.70313 0
M  V30 6722 H 643.921 -1.0351 2.7635 0
M  V30 6723 H 644.002 0.705967 2.45865 0
M  V30 6724 H 643.646 1.13619 4.95028 0
M  V30 6725 H 643.576 -0.62197 5.22914 0
M  V30 6726 H 646.067 -0.0430298 3.77876 0
M  V30 6727 H 646.38 0.537536 7.70928 0
M  V30 6728 H 644.725 0.476488 6.93365 0
M  V30 6729 H 647.916 0.0309561 4.6809 0
M  V30 6730 H 648.089 0.295471 6.47326 0
M  V30 6731 N 641.495 -1.56914 -0.146875 0
M  V30 6732 C 642.442 -1.98275 -1.18134 0
M  V30 6733 C 643.412 -0.850367 -1.42681 0
M  V30 6734 O 644.597 -1.11244 -1.55014 0
M  V30 6735 C 641.737 -2.36861 -2.5098 0
M  V30 6736 C 640.85 -3.63391 -2.33605 0
M  V30 6737 C 639.985 -3.91079 -3.59486 0
M  V30 6738 C 639.024 -5.10879 -3.37149 0
M  V30 6739 N 638.161 -5.34577 -4.55161 0
M  V30 6740 H 643.001 -2.8645 -0.821622 0
M  V30 6741 H 640.538 -1.41718 -0.394248 0
M  V30 6742 H 642.496 -2.57262 -3.28439 0
M  V30 6743 H 641.126 -1.51766 -2.84898 0
M  V30 6744 H 640.178 -3.50766 -1.47199 0
M  V30 6745 H 641.49 -4.51007 -2.13059 0
M  V30 6746 H 640.644 -4.11979 -4.45374 0
M  V30 6747 H 639.383 -3.01885 -3.83036 0
M  V30 6748 H 638.388 -4.89853 -2.49649 0
M  V30 6749 H 639.613 -6.01626 -3.14997 0
M  V30 6750 H 637.559 -4.48337 -4.78884 0
M  V30 6751 H 637.476 -6.16463 -4.37618 0
M  V30 6752 H 638.744 -5.59975 -5.42263 0
M  V30 6753 N 642.974 0.416227 -1.52004 0
M  V30 6754 C 644.204 1.18401 -1.69307 0
M  V30 6755 C 644.612 1.84943 -0.399072 0
M  V30 6756 O 643.955 1.72406 0.634177 0
M  V30 6757 C 644.017 2.29465 -2.76742 0
M  V30 6758 C 643.681 1.83117 -4.18709 0
M  V30 6759 C 644.678 1.32286 -5.02789 0
M  V30 6760 C 642.363 1.90167 -4.64911 0
M  V30 6761 C 644.357 0.891178 -6.31139 0
M  V30 6762 C 642.044 1.4661 -5.93253 0
M  V30 6763 C 643.042 0.961696 -6.76196 0
M  V30 6764 O 642.73 0.532388 -8.02135 0
M  V30 6765 H 642.462 0.362098 -0.570843 0
M  V30 6766 H 645.016 0.496764 -1.99302 0
M  V30 6767 H 643.246 3.01531 -2.42107 0
M  V30 6768 H 644.935 2.91252 -2.82713 0
M  V30 6769 H 645.701 1.26218 -4.68288 0
M  V30 6770 H 641.58 2.28371 -4.00459 0
M  V30 6771 H 645.124 0.496788 -6.95829 0
M  V30 6772 H 641.021 1.52355 -6.27263 0
M  V30 6773 H 641.789 0.656339 -8.15864 0
M  V30 6774 N 644.452 1.42507 0.673017 0
M  V30 6775 C 645.415 1.4582 1.76831 0
M  V30 6776 C 646.415 0.345542 1.57043 0
M  V30 6777 O 647.605 0.606447 1.63303 0
M  V30 6778 C 644.737 1.29158 3.15485 0
M  V30 6779 H 645.93 2.43345 1.7528 0
M  V30 6780 H 643.483 1.28981 0.882817 0
M  V30 6781 H 644.218 0.325626 3.22661 0
M  V30 6782 H 644.003 2.09797 3.31252 0
M  V30 6783 H 645.493 1.34363 3.95394 0
M  V30 6784 N 645.93 -0.909495 1.28709 0
M  V30 6785 C 647.177 -1.65905 1.16111 0
M  V30 6786 C 647.505 -1.92334 -0.289436 0
M  V30 6787 O 646.76 -1.52495 -1.22653 0
M  V30 6788 C 647.059 -3.02117 1.90945 0
M  V30 6789 C 646.725 -2.95332 3.40719 0
M  V30 6790 C 645.387 -2.93189 3.81567 0
M  V30 6791 C 647.739 -2.85264 4.36204 0
M  V30 6792 C 645.067 -2.78784 5.16233 0
M  V30 6793 C 647.419 -2.724 5.70948 0
M  V30 6794 C 646.083 -2.68617 6.11066 0
M  V30 6795 H 645.353 -0.60709 0.42488 0
M  V30 6796 H 648 -1.05932 1.59533 0
M  V30 6797 H 646.305 -3.65901 1.40085 0
M  V30 6798 H 648.002 -3.59026 1.7861 0
M  V30 6799 H 644.592 -2.97797 3.08245 0
M  V30 6800 H 648.776 -2.86005 4.05605 0
M  V30 6801 H 644.032 -2.74254 5.46438 0
M  V30 6802 H 648.206 -2.63579 6.44592 0
M  V30 6803 H 645.833 -2.57213 7.15364 0
M  V30 6804 N 647.408 -1.11026 -1.11852 0
M  V30 6805 C 648.318 -0.777252 -2.2135 0
M  V30 6806 C 649.334 0.227821 -1.72502 0
M  V30 6807 O 650.51 0.0650587 -2.01295 0
M  V30 6808 C 647.575 -0.220668 -3.45997 0
M  V30 6809 C 646.636 -1.2838 -4.09655 0
M  V30 6810 C 645.869 -0.753678 -5.28352 0
M  V30 6811 O 646.092 0.417779 -5.68868 0
M  V30 6812 O 645.026 -1.51647 -5.82483 0
M  V30 6813 H 648.852 -1.69141 -2.5224 0
M  V30 6814 H 646.437 -0.885836 -1.20305 0
M  V30 6815 H 648.319 0.0855756 -4.21313 0
M  V30 6816 H 646.994 0.666262 -3.16769 0
M  V30 6817 H 645.901 -1.64299 -3.3609 0
M  V30 6818 H 647.234 -2.14396 -4.43052 0
M  V30 6819 N 648.886 1.2938 -0.899927 0
M  V30 6820 C 649.816 2.30144 -0.39446 0
M  V30 6821 C 650.797 1.61611 0.530639 0
M  V30 6822 O 651.982 1.89119 0.441319 0
M  V30 6823 C 649.112 3.45229 0.37868 0
M  V30 6824 C 648.066 4.25564 -0.456012 0
M  V30 6825 C 647.392 5.32848 0.444637 0
M  V30 6826 C 648.692 4.93651 -1.70605 0
M  V30 6827 H 650.386 2.72673 -1.23653 0
M  V30 6828 H 647.932 1.31086 -0.596034 0
M  V30 6829 H 649.885 4.14797 0.743037 0
M  V30 6830 H 648.609 3.01545 1.25453 0
M  V30 6831 H 647.268 3.57704 -0.802704 0
M  V30 6832 H 646.916 4.85408 1.31863 0
M  V30 6833 H 646.616 5.87497 -0.110154 0
M  V30 6834 H 648.14 6.05268 0.805182 0
M  V30 6835 H 649.554 5.55655 -1.41141 0
M  V30 6836 H 647.951 5.58233 -2.20217 0
M  V30 6837 H 649.021 4.18926 -2.4419 0
M  V30 6838 N 650.364 0.662433 1.43002 0
M  V30 6839 C 651.311 -0.0235324 2.30788 0
M  V30 6840 C 652.281 -0.805342 1.4527 0
M  V30 6841 O 653.466 -0.78009 1.74124 0
M  V30 6842 C 650.606 -0.977545 3.30965 0
M  V30 6843 C 649.719 -0.190865 4.31578 0
M  V30 6844 C 648.854 -1.13951 5.18834 0
M  V30 6845 C 647.893 -0.343796 6.11134 0
M  V30 6846 N 647.03 -1.2445 6.90982 0
M  V30 6847 H 651.87 0.730921 2.88897 0
M  V30 6848 H 649.407 0.372197 1.42313 0
M  V30 6849 H 651.365 -1.54437 3.87563 0
M  V30 6850 H 649.995 -1.69877 2.74484 0
M  V30 6851 H 649.047 0.492388 3.772 0
M  V30 6852 H 650.359 0.427464 4.96965 0
M  V30 6853 H 649.513 -1.77666 5.80103 0
M  V30 6854 H 648.252 -1.79174 4.53595 0
M  V30 6855 H 647.257 0.30665 5.48944 0
M  V30 6856 H 648.482 0.304161 6.78419 0
M  V30 6857 H 646.428 -1.88336 6.28383 0
M  V30 6858 H 646.345 -0.680959 7.52927 0
M  V30 6859 H 647.613 -1.86952 7.56749 0
M  V30 6860 N 651.842 -1.52309 0.404946 0
M  V30 6861 C 652.752 -2.30634 -0.429555 0
M  V30 6862 C 653.768 -1.38187 -1.05737 0
M  V30 6863 O 654.944 -1.71261 -1.05979 0
M  V30 6864 C 652.009 -3.10947 -1.53339 0
M  V30 6865 C 651.07 -4.19126 -0.929065 0
M  V30 6866 C 650.303 -4.95601 -1.9803 0
M  V30 6867 O 650.526 -4.72331 -3.1978 0
M  V30 6868 O 649.46 -5.80551 -1.58886 0
M  V30 6869 H 653.286 -3.0298 0.208963 0
M  V30 6870 H 650.871 -1.4845 0.168255 0
M  V30 6871 H 652.753 -3.60974 -2.1743 0
M  V30 6872 H 651.428 -2.41399 -2.15658 0
M  V30 6873 H 650.335 -3.73257 -0.250982 0
M  V30 6874 H 651.668 -4.90955 -0.349855 0
M  V30 6875 N 653.32 -0.135238 -1.57019 0
M  V30 6876 C 654.267 0.808908 -2.1616 0
M  V30 6877 C 655.237 1.25234 -1.09113 0
M  V30 6878 O 656.422 1.32697 -1.37099 0
M  V30 6879 C 653.562 2.04729 -2.77813 0
M  V30 6880 C 652.675 1.65074 -3.99218 0
M  V30 6881 C 651.81 2.84002 -4.48906 0
M  V30 6882 C 650.849 2.40663 -5.62803 0
M  V30 6883 N 649.986 3.5256 -6.07162 0
M  V30 6884 H 654.826 0.297751 -2.96509 0
M  V30 6885 H 652.363 0.135264 -1.46477 0
M  V30 6886 H 654.321 2.7731 -3.11697 0
M  V30 6887 H 652.951 2.53275 -2.00128 0
M  V30 6888 H 652.003 0.823029 -3.7139 0
M  V30 6889 H 653.315 1.29236 -4.81767 0
M  V30 6890 H 652.469 3.64788 -4.84783 0
M  V30 6891 H 651.208 3.23076 -3.65339 0
M  V30 6892 H 650.213 1.58314 -5.26514 0
M  V30 6893 H 651.438 2.02687 -6.48147 0
M  V30 6894 H 649.384 3.91278 -5.26534 0
M  V30 6895 H 649.301 3.20699 -6.84608 0
M  V30 6896 H 650.569 4.33738 -6.47682 0
M  V30 6897 N 654.798 1.5699 0.138552 0
M  V30 6898 C 655.728 2.01933 1.17241 0
M  V30 6899 C 656.709 0.90033 1.44319 0
M  V30 6900 O 657.894 1.16872 1.55095 0
M  V30 6901 C 655.024 2.40711 2.50351 0
M  V30 6902 C 653.978 3.55874 2.37776 0
M  V30 6903 C 653.304 3.80491 3.75674 0
M  V30 6904 C 654.604 4.8826 1.85472 0
M  V30 6905 H 656.298 2.88551 0.798672 0
M  V30 6906 H 653.844 1.3882 0.382743 0
M  V30 6907 H 655.797 2.70754 3.22909 0
M  V30 6908 H 654.521 1.5104 2.89576 0
M  V30 6909 H 653.18 3.2601 1.67669 0
M  V30 6910 H 652.828 2.88057 4.12349 0
M  V30 6911 H 652.528 4.57998 3.68119 0
M  V30 6912 H 654.052 4.12967 4.49767 0
M  V30 6913 H 655.466 5.16965 2.4783 0
M  V30 6914 H 653.863 5.69631 1.88787 0
M  V30 6915 H 654.933 4.78071 0.810935 0
M  V30 6916 N 656.276 -0.40816 1.52223 0
M  V30 6917 C 657.206 -1.5042 1.78595 0
M  V30 6918 C 658.187 -1.57723 0.636974 0
M  V30 6919 O 659.372 -1.72982 0.882664 0
M  V30 6920 C 656.502 -2.88232 1.93751 0
M  V30 6921 C 655.456 -2.95779 3.09352 0
M  V30 6922 C 654.782 -4.35855 3.09732 0
M  V30 6923 C 656.082 -2.67175 4.48793 0
M  V30 6924 H 657.776 -1.28601 2.70374 0
M  V30 6925 H 655.322 -0.617221 1.30101 0
M  V30 6926 H 657.275 -3.64895 2.10783 0
M  V30 6927 H 655.999 -3.11347 0.986443 0
M  V30 6928 H 654.658 -2.21561 2.92072 0
M  V30 6929 H 654.306 -4.55981 2.12346 0
M  V30 6930 H 654.006 -4.41829 3.87377 0
M  V30 6931 H 655.53 -5.14451 3.28895 0
M  V30 6932 H 656.944 -3.3356 4.66273 0
M  V30 6933 H 655.341 -2.84523 5.28362 0
M  V30 6934 H 656.411 -1.62609 4.56822 0
M  V30 6935 N 657.755 -1.42862 -0.66545 0
M  V30 6936 C 659.171 -1.25993 -0.979687 0
M  V30 6937 C 659.371 -0.170831 -2.00775 0
M  V30 6938 O 658.427 0.454827 -2.4837 0
M  V30 6939 C 659.74 -2.62005 -1.47559 0
M  V30 6940 C 661.288 -2.69437 -1.59288 0
M  V30 6941 C 661.763 -4.05838 -2.12272 0
M  V30 6942 N 663.254 -4.0784 -2.19592 0
M  V30 6943 C 663.989 -5.10205 -2.61684 0
M  V30 6944 N 663.485 -6.22949 -3.03161 0
M  V30 6945 N 665.278 -4.9756 -2.61516 0
M  V30 6946 H 657.429 -2.12395 0.0150493 0
M  V30 6947 H 659.692 -0.946355 -0.0558187 0
M  V30 6948 H 659.398 -3.42605 -0.794654 0
M  V30 6949 H 659.272 -2.86566 -2.45275 0
M  V30 6950 H 661.659 -1.89178 -2.26486 0
M  V30 6951 H 661.74 -2.48655 -0.600374 0
M  V30 6952 H 661.384 -4.86559 -1.4568 0
M  V30 6953 H 661.314 -4.23977 -3.12331 0
M  V30 6954 H 663.805 -3.26452 -1.90361 0
M  V30 6955 H 664.118 -6.96899 -3.33993 0
M  V30 6956 H 662.463 -6.2644 -3.00995 0
M  V30 6957 H 665.654 -4.08551 -2.28481 0
M  V30 6958 H 665.827 -5.77468 -2.93999 0
M  V30 6959 N 659.233 0.902656 -1.29189 0
M  V30 6960 C 660.481 1.6496 -1.16758 0
M  V30 6961 C 660.802 1.92952 0.28188 0
M  V30 6962 O 660.072 1.55351 1.19344 0
M  V30 6963 H 658.652 0.611447 -0.429118 0
M  V30 6964 H 661.314 1.0825 -1.62074 0
M  V30 6965 H 660.41 2.60728 -1.71544 0
M  V30 6966 N 660.711 1.11618 1.11262 0
M  V30 6967 C 661.939 0.888739 1.8684 0
M  V30 6968 C 662.354 -0.561558 1.80255 0
M  V30 6969 O 661.711 -1.38782 1.18515 0
M  V30 6970 C 661.762 1.34422 3.35579 0
M  V30 6971 O 661.483 2.73766 3.42029 0
M  V30 6972 C 662.984 1.15246 4.28058 0
M  V30 6973 H 660.204 0.318152 0.590779 0
M  V30 6974 H 662.748 1.48398 1.40707 0
M  V30 6975 H 660.903 0.79239 3.7921 0
M  V30 6976 H 661.317 2.9355 4.34659 0
M  V30 6977 H 662.791 1.52015 5.30656 0
M  V30 6978 H 663.268 0.0922007 4.39103 0
M  V30 6979 H 663.874 1.69136 3.90222 0
M  V30 6980 N 662.189 -1.289 0.906776 0
M  V30 6981 C 663.435 -1.95558 0.53712 0
M  V30 6982 C 663.768 -1.71262 -0.915582 0
M  V30 6983 O 663.043 -1.02961 -1.65013 0
M  V30 6984 C 663.326 -3.50198 0.838645 0
M  V30 6985 C 663.179 -3.83923 2.34357 0
M  V30 6986 C 664.498 -4.38861 0.329988 0
M  V30 6987 H 661.617 -0.710289 0.196617 0
M  V30 6988 H 664.259 -1.52392 1.13475 0
M  V30 6989 H 662.409 -3.87096 0.330024 0
M  V30 6990 H 664.081 -3.56933 2.92227 0
M  V30 6991 H 662.324 -3.31215 2.80141 0
M  V30 6992 H 662.995 -4.91883 2.5051 0
M  V30 6993 H 665.471 -4.08996 0.765609 0
M  V30 6994 H 664.347 -5.45931 0.570105 0
M  V30 6995 H 664.608 -4.35352 -0.769511 0
M  V30 6996 N 663.667 -0.670007 -1.42649 0
M  V30 6997 C 664.916 -0.187526 -2.00826 0
M  V30 6998 C 665.229 1.21142 -1.53571 0
M  V30 6999 O 666.435 1.79001 -2.04134 0
M  V30 7000 C 664.891 -0.284409 -3.58774 0
M  V30 7001 C 664.499 -1.6871 -4.15019 0
M  V30 7002 C 666.243 0.139605 -4.2427 0
M  V30 7003 C 664.15 -1.73701 -5.65316 0
M  V30 7004 H 663.08 -0.0663468 -0.751075 0
M  V30 7005 H 665.731 -0.834492 -1.63427 0
M  V30 7006 H 664.113 0.430364 -3.93655 0
M  V30 7007 H 665.287 -2.42857 -3.91608 0
M  V30 7008 H 663.602 -2.05855 -3.61957 0
M  V30 7009 H 666.199 0.122398 -5.3456 0
M  V30 7010 H 666.542 1.17403 -3.99402 0
M  V30 7011 H 667.075 -0.523995 -3.94334 0
M  V30 7012 H 663.814 -2.75109 -5.94975 0
M  V30 7013 H 663.334 -1.03903 -5.90732 0
M  V30 7014 H 665.013 -1.48829 -6.2965 0
M  V30 7015 N 665.145 1.52092 -0.413018 0
M  V30 7016 C 666.422 1.94356 0.22024 0
M  V30 7017 C 666.802 1.35017 1.62277 0
M  V30 7018 O 666.15 0.527511 2.22328 0
M  V30 7019 C 666.36 3.48289 0.222638 0
M  V30 7020 C 667.708 4.22313 0.440098 0
M  V30 7021 O 668.732 3.54919 0.301826 0
M  V30 7022 O 667.591 5.41829 0.712984 0
M  V30 7023 H 664.685 0.814536 0.14304 0
M  V30 7024 H 667.231 1.63083 -0.469242 0
M  V30 7025 H 666.003 3.83872 -0.758836 0
M  V30 7026 H 665.626 3.85934 0.956057 0
M  V30 7027 N 666.623 0.143563 1.56945 0
M  V30 7028 C 667.869 -0.50916 1.96304 0
M  V30 7029 C 668.202 -1.64741 1.0283 0
M  V30 7030 O 667.477 -1.94374 0.0700361 0
M  V30 7031 C 667.76 -1.0186 3.45393 0
M  V30 7032 C 667.613 0.117923 4.49645 0
M  V30 7033 C 668.932 -1.90151 3.96901 0
M  V30 7034 H 666.051 -0.183608 0.713763 0
M  V30 7035 H 668.693 0.224095 1.88674 0
M  V30 7036 H 666.843 -1.64345 3.52027 0
M  V30 7037 H 668.515 0.754145 4.55094 0
M  V30 7038 H 666.758 0.777568 4.26774 0
M  V30 7039 H 667.429 -0.280187 5.51288 0
M  V30 7040 H 669.905 -1.375 3.92725 0
M  V30 7041 H 668.781 -2.22707 5.0169 0
M  V30 7042 H 669.042 -2.83718 3.39052 0
M  V30 7043 N 668.101 -1.57061 -0.130224 0
M  V30 7044 C 669.329 -1.88432 -0.854456 0
M  V30 7045 C 669.744 -0.733608 -1.73964 0
M  V30 7046 O 669.101 0.296029 -1.80083 0
M  V30 7047 C 669.152 -3.1918 -1.69724 0
M  V30 7048 O 668.873 -4.2982 -0.847705 0
M  V30 7049 C 670.374 -3.6418 -2.5276 0
M  V30 7050 H 667.594 -0.624193 -0.246221 0
M  V30 7051 H 670.138 -2.04159 -0.11798 0
M  V30 7052 H 668.293 -3.05156 -2.3866 0
M  V30 7053 H 668.707 -5.04689 -1.42792 0
M  V30 7054 H 670.181 -4.58457 -3.07443 0
M  V30 7055 H 670.658 -2.90285 -3.29592 0
M  V30 7056 H 671.264 -3.80954 -1.89087 0
M  V30 7057 N 669.579 0.400081 -1.52437 0
M  V30 7058 C 670.856 1.15973 -1.57511 0
M  V30 7059 C 671.236 2.0798 -0.361572 0
M  V30 7060 O 670.584 2.19032 0.650929 0
M  V30 7061 C 670.794 1.92912 -2.90837 0
M  V30 7062 C 672.142 2.48662 -3.44169 0
M  V30 7063 O 673.166 2.03081 -2.92637 0
M  V30 7064 O 672.025 3.31894 -4.34176 0
M  V30 7065 H 669.119 0.530023 -0.634827 0
M  V30 7066 H 671.665 0.40613 -1.64769 0
M  V30 7067 H 670.437 1.25564 -3.70607 0
M  V30 7068 H 670.06 2.75257 -2.86913 0
M  V30 7069 N 671.057 1.43213 0.657864 0
M  V30 7070 C 672.304 1.44584 1.41781 0
M  V30 7071 C 672.632 0.0684208 1.9438 0
M  V30 7072 O 671.887 -0.925872 1.72413 0
M  V30 7073 C 672.186 2.43143 2.61947 0
M  V30 7074 C 671.852 3.89128 2.27794 0
M  V30 7075 C 670.514 4.28889 2.18191 0
M  V30 7076 C 672.866 4.81144 2.00375 0
M  V30 7077 C 670.194 5.58625 1.79319 0
M  V30 7078 C 672.546 6.11239 1.63003 0
M  V30 7079 C 671.21 6.49981 1.51922 0
M  V30 7080 H 670.48 0.529069 0.518813 0
M  V30 7081 H 673.127 1.76263 0.748577 0
M  V30 7082 H 671.432 2.04851 3.33981 0
M  V30 7083 H 673.129 2.4146 3.20153 0
M  V30 7084 H 669.719 3.57657 2.36176 0
M  V30 7085 H 673.903 4.512 2.06718 0
M  V30 7086 H 669.159 5.87486 1.69323 0
M  V30 7087 H 673.333 6.82014 1.40817 0
M  V30 7088 H 670.96 7.50416 1.21572 0
M  V30 7089 N 672.536 -0.895792 1.29666 0
M  V30 7090 C 673.782 -1.64908 1.18039 0
M  V30 7091 C 674.115 -1.9236 -0.266682 0
M  V30 7092 O 673.39 -1.53682 -1.19214 0
M  V30 7093 C 673.673 -2.99574 1.99819 0
M  V30 7094 C 673.526 -2.79163 3.52687 0
M  V30 7095 C 674.845 -4.00358 1.82761 0
M  V30 7096 H 671.964 -0.598437 0.430165 0
M  V30 7097 H 674.606 -1.03736 1.59182 0
M  V30 7098 H 672.756 -3.51786 1.64859 0
M  V30 7099 H 674.428 -2.33821 3.9765 0
M  V30 7100 H 672.671 -2.13871 3.77414 0
M  V30 7101 H 673.342 -3.74871 4.05186 0
M  V30 7102 H 675.818 -3.57268 2.13304 0
M  V30 7103 H 674.694 -4.92514 2.42325 0
M  V30 7104 H 674.955 -4.35096 0.783839 0
M  V30 7105 N 674.014 -1.12206 -1.10668 0
M  V30 7106 C 674.962 -0.782918 -2.19028 0
M  V30 7107 C 675.956 0.229175 -1.67843 0
M  V30 7108 O 677.162 0.0876295 -1.79787 0
M  V30 7109 H 673.537 -0.235339 -0.714227 0
M  V30 7110 H 675.508 -1.70527 -2.44874 0
M  V30 7111 C 674.257 -0.25116 -3.46792 0
M  V30 7112 H 673.58 -1.02123 -3.86537 0
M  V30 7113 H 675.02 -0.0521409 -4.23968 0
M  V30 7114 C 673.479 1.02037 -3.21076 0
M  V30 7115 O 674.009 2.09862 -3.42522 0
M  V30 7116 N 672.215 0.946348 -2.74759 0
M  V30 7117 H 671.762 0.068777 -2.57508 0
M  V30 7118 H 671.72 1.79775 -2.57931 0
M  V30 7119 N 675.492 1.28418 -0.913599 0
M  V30 7120 C 676.738 1.95627 -0.556933 0
M  V30 7121 C 677.093 1.706 0.889565 0
M  V30 7122 O 676.386 1.01637 1.6242 0
M  V30 7123 C 676.58 3.48283 -0.802099 0
M  V30 7124 C 676.409 3.88151 -2.27088 0
M  V30 7125 C 675.179 4.1232 -2.92096 0
M  V30 7126 C 677.377 3.98819 -3.24728 0
M  V30 7127 N 675.359 4.3886 -4.29272 0
M  V30 7128 C 676.73 4.29571 -4.47067 0
M  V30 7129 C 678.785 3.81342 -3.20129 0
M  V30 7130 C 677.488 4.44667 -5.65388 0
M  V30 7131 C 679.514 3.97656 -4.37749 0
M  V30 7132 C 678.876 4.2878 -5.58862 0
M  V30 7133 H 674.975 0.739715 -0.253664 0
M  V30 7134 H 677.559 1.55074 -1.1773 0
M  V30 7135 H 675.73 3.87826 -0.211007 0
M  V30 7136 H 677.462 4.02623 -0.409478 0
M  V30 7137 H 674.217 4.06611 -2.42826 0
M  V30 7138 H 674.641 4.56214 -5.00198 0
M  V30 7139 H 679.283 3.56331 -2.2757 0
M  V30 7140 H 677.001 4.68509 -6.58426 0
M  V30 7141 H 680.587 3.85569 -4.35692 0
M  V30 7142 H 679.467 4.41136 -6.48359 0
M  V30 7143 N 676.97 0.677563 1.42291 0
M  V30 7144 C 677.933 0.0101085 2.29198 0
M  V30 7145 C 678.933 -0.726219 1.43467 0
M  V30 7146 O 680.123 -0.563807 1.64824 0
M  V30 7147 C 677.255 -0.996316 3.26016 0
M  V30 7148 H 678.448 0.775071 2.89711 0
M  V30 7149 H 676.001 0.440065 1.49977 0
M  V30 7150 H 676.736 -1.78967 2.70446 0
M  V30 7151 H 676.521 -0.471687 3.89253 0
M  V30 7152 H 678.011 -1.46167 3.91184 0
M  V30 7153 N 678.448 -1.51871 0.421078 0
M  V30 7154 C 679.673 -2.0684 -0.152371 0
M  V30 7155 C 680.098 -1.28802 -1.37083 0
M  V30 7156 O 679.456 -0.321482 -1.78427 0
M  V30 7157 C 679.504 -3.57532 -0.469368 0
M  V30 7158 O 678.608 -3.81818 -1.55848 0
M  V30 7159 H 677.949 -0.663939 -0.00898586 0
M  V30 7160 H 680.479 -1.95674 0.597724 0
M  V30 7161 H 680.489 -4.01515 -0.724553 0
M  V30 7162 H 679.164 -4.13761 0.421276 0
M  V30 7163 H 677.741 -3.49709 -1.29453 0
M  V30 7164 N 679.926 -0.151884 -1.56866 0
M  V30 7165 C 681.151 0.508044 -2.01081 0
M  V30 7166 C 681.576 1.57306 -1.03134 0
M  V30 7167 O 680.934 1.81298 -0.0078309 0
M  V30 7168 C 680.982 1.08106 -3.44014 0
M  V30 7169 O 680.086 2.19577 -3.49084 0
M  V30 7170 H 679.427 0.123757 -0.652365 0
M  V30 7171 H 681.957 -0.250055 -2.03066 0
M  V30 7172 H 681.967 1.40851 -3.82916 0
M  V30 7173 H 680.642 0.301168 -4.14808 0
M  V30 7174 H 679.219 1.88023 -3.22027 0
M  V30 7175 N 681.404 1.57128 0.121893 0
M  V30 7176 C 682.653 1.83888 0.828748 0
M  V30 7177 C 682.966 0.737087 1.81181 0
M  V30 7178 O 684.172 0.891007 2.56463 0
M  V30 7179 C 682.628 3.26014 1.52455 0
M  V30 7180 C 682.236 4.44195 0.58263 0
M  V30 7181 C 683.98 3.62025 2.21671 0
M  V30 7182 C 681.887 5.77349 1.28149 0
M  V30 7183 H 680.817 0.685856 0.313238 0
M  V30 7184 H 683.468 1.83319 0.0814851 0
M  V30 7185 H 681.85 3.21044 2.31834 0
M  V30 7186 H 683.024 4.60457 -0.177729 0
M  V30 7187 H 681.339 4.164 -0.00241228 0
M  V30 7188 H 683.936 4.58776 2.74643 0
M  V30 7189 H 684.279 2.89315 2.99337 0
M  V30 7190 H 684.812 3.68767 1.49184 0
M  V30 7191 H 681.551 6.53221 0.546189 0
M  V30 7192 H 681.071 5.64978 2.01394 0
M  V30 7193 H 682.75 6.21006 1.81549 0
M  V30 7194 N 682.882 -0.391992 1.52647 0
M  V30 7195 C 683.83 -1.4991 1.77848 0
M  V30 7196 C 684.824 -1.56587 0.646282 0
M  V30 7197 O 686.03 -1.59789 0.828698 0
M  V30 7198 H 682.405 -0.498883 0.56269 0
M  V30 7199 H 684.376 -1.25847 2.70564 0
M  V30 7200 C 683.125 -2.87081 1.96163 0
M  V30 7201 H 682.448 -2.82692 2.82711 0
M  V30 7202 H 683.888 -3.63792 2.17787 0
M  V30 7203 C 682.347 -3.28822 0.733348 0
M  V30 7204 O 682.877 -4.01598 -0.0906481 0
M  V30 7205 N 681.083 -2.85068 0.564317 0
M  V30 7206 H 680.63 -2.26012 1.23598 0
M  V30 7207 H 680.588 -3.13355 -0.256166 0
M  V30 7208 N 684.36 -1.4356 -0.65026 0
M  V30 7209 C 685.637 -1.35811 -1.40765 0
M  V30 7210 C 686.017 -0.00736379 -2.11099 0
M  V30 7211 O 685.365 1.00932 -2.05 0
M  V30 7212 C 685.575 -2.54332 -2.3899 0
M  V30 7213 C 686.923 -2.97551 -3.02901 0
M  V30 7214 O 687.947 -2.544 -2.49317 0
M  V30 7215 O 686.806 -3.72311 -4.00059 0
M  V30 7216 H 683.9 -0.536861 -0.629054 0
M  V30 7217 H 686.446 -1.55615 -0.676919 0
M  V30 7218 H 685.218 -3.44274 -1.85986 0
M  V30 7219 H 684.841 -2.36643 -3.19509 0
M  V30 7220 N 685.838 0.888903 -1.30139 0
M  V30 7221 C 686.801 1.97576 -1.16174 0
M  V30 7222 C 687.801 1.60525 -0.094086 0
M  V30 7223 O 688.991 1.70812 -0.341889 0
M  V30 7224 C 686.123 3.3188 -0.778983 0
M  V30 7225 H 687.316 2.11393 -2.12728 0
M  V30 7226 H 684.869 1.0748 -1.1348 0
M  V30 7227 H 685.604 3.23765 0.186225 0
M  V30 7228 H 685.389 3.60141 -1.55051 0
M  V30 7229 H 686.879 4.11612 -0.704631 0
M  V30 7230 N 687.317 1.12792 1.10072 0
M  V30 7231 C 688.728 0.899346 1.63611 0
M  V30 7232 C 689.079 -0.565547 1.87872 0
M  V30 7233 O 688.204 -1.43081 1.62348 0
M  V30 7234 C 688.799 1.62608 2.97227 0
M  V30 7235 C 687.358 1.44356 3.47618 0
M  V30 7236 C 686.505 1.65958 2.22156 0
M  V30 7237 H 689.456 1.28216 0.935223 0
M  V30 7238 H 689.477 1.0793 3.64872 0
M  V30 7239 H 688.989 2.69221 2.79538 0
M  V30 7240 H 687.09 0.400148 3.70445 0
M  V30 7241 H 687.203 2.20218 4.25489 0
M  V30 7242 H 685.567 1.08395 2.30484 0
M  V30 7243 H 686.35 2.73877 2.06993 0
M  V30 7244 N 688.795 -1.27931 0.920396 0
M  V30 7245 C 690.041 -1.94977 0.557832 0
M  V30 7246 C 690.374 -1.72224 -0.897365 0
M  V30 7247 O 689.649 -1.04705 -1.63912 0
M  V30 7248 C 689.932 -3.49289 0.875741 0
M  V30 7249 C 689.785 -3.81416 2.38416 0
M  V30 7250 C 691.104 -4.38486 0.376517 0
M  V30 7251 H 688.223 -0.708164 0.20414 0
M  V30 7252 H 690.865 -1.5118 1.15085 0
M  V30 7253 H 689.015 -3.86724 0.371062 0
M  V30 7254 H 690.687 -3.53813 2.95997 0
M  V30 7255 H 688.93 -3.28225 2.83639 0
M  V30 7256 H 689.601 -4.89198 2.55713 0
M  V30 7257 H 692.077 -4.08161 0.808945 0
M  V30 7258 H 690.953 -5.45296 0.627976 0
M  V30 7259 H 691.214 -4.36143 -0.723293 0
M  V30 7260 N 690.273 -0.685099 -1.4193 0
M  V30 7261 C 691.203 -0.0273506 -2.33484 0
M  V30 7262 C 692.184 0.778366 -1.51246 0
M  V30 7263 O 693.369 0.733449 -1.79817 0
M  V30 7264 C 690.499 0.917272 -3.34968 0
M  V30 7265 C 689.453 0.21941 -4.27437 0
M  V30 7266 C 688.779 1.27768 -5.1921 0
M  V30 7267 C 690.079 -0.907894 -5.14349 0
M  V30 7268 H 691.773 -0.791994 -2.88735 0
M  V30 7269 H 689.319 -0.382308 -1.38832 0
M  V30 7270 H 691.272 1.38657 -3.97935 0
M  V30 7271 H 689.996 1.71346 -2.78043 0
M  V30 7272 H 688.655 -0.229757 -3.65879 0
M  V30 7273 H 688.303 2.06612 -4.58607 0
M  V30 7274 H 688.003 0.815803 -5.81909 0
M  V30 7275 H 689.527 1.7477 -5.85054 0
M  V30 7276 H 690.941 -0.519348 -5.70943 0
M  V30 7277 H 689.338 -1.2962 -5.85934 0
M  V30 7278 H 690.408 -1.75218 -4.52136 0
M  V30 7279 N 691.751 1.51645 -0.429126 0
M  V30 7280 C 693 2.01203 0.141538 0
M  V30 7281 C 693.313 1.31828 1.44502 0
M  V30 7282 O 694.519 1.7231 2.09813 0
M  V30 7283 C 692.975 3.58624 0.302786 0
M  V30 7284 C 692.583 4.3693 -0.989775 0
M  V30 7285 C 694.327 4.16353 0.827661 0
M  V30 7286 C 692.234 5.86037 -0.794619 0
M  V30 7287 H 691.164 0.751867 0.05667 0
M  V30 7288 H 693.815 1.74822 -0.557633 0
M  V30 7289 H 692.197 3.81417 1.06476 0
M  V30 7290 H 693.371 4.25887 -1.75945 0
M  V30 7291 H 691.686 3.90614 -1.44256 0
M  V30 7292 H 694.283 5.25455 0.990026 0
M  V30 7293 H 694.626 3.74995 1.80787 0
M  V30 7294 H 695.159 3.97606 0.124213 0
M  V30 7295 H 691.898 6.31792 -1.74697 0
M  V30 7296 H 691.418 5.99765 -0.0645968 0
M  V30 7297 H 693.097 6.45471 -0.444591 0
M  V30 7298 N 693.229 0.160201 1.56784 0
M  V30 7299 C 694.454 -0.497373 2.01348 0
M  V30 7300 C 694.879 -1.56757 1.03966 0
M  V30 7301 O 694.237 -1.81292 0.0174455 0
M  V30 7302 C 694.285 -1.0628 3.44582 0
M  V30 7303 O 693.389 -2.17723 3.50244 0
M  V30 7304 H 692.73 -0.120295 0.653012 0
M  V30 7305 H 695.26 0.260821 2.02931 0
M  V30 7306 H 695.27 -1.38819 3.83658 0
M  V30 7307 H 693.945 -0.279166 4.14962 0
M  V30 7308 H 692.522 -1.86313 3.2302 0
M  V30 7309 N 694.707 -1.5719 -0.113559 0
M  V30 7310 C 695.639 -1.97393 -1.16484 0
M  V30 7311 C 696.652 -0.873964 -1.37352 0
M  V30 7312 O 697.841 -1.15222 -1.36331 0
M  V30 7313 C 694.941 -2.26174 -2.52386 0
M  V30 7314 C 694.114 -3.57479 -2.52046 0
M  V30 7315 C 693.173 -3.74409 -3.69735 0
M  V30 7316 O 692.199 -4.46463 -3.53071 0
M  V30 7317 N 693.401 -3.13588 -4.88511 0
M  V30 7318 H 696.166 -2.88184 -0.822814 0
M  V30 7319 H 693.727 -1.59044 -0.302769 0
M  V30 7320 H 695.719 -2.3471 -3.29687 0
M  V30 7321 H 694.289 -1.41483 -2.7875 0
M  V30 7322 H 693.509 -3.60081 -1.60421 0
M  V30 7323 H 694.797 -4.43775 -2.48881 0
M  V30 7324 H 694.195 -2.55026 -5.04953 0
M  V30 7325 H 692.752 -3.27637 -5.63469 0
M  V30 7326 N 696.185 0.383891 -1.52853 0
M  V30 7327 C 697.132 1.46924 -1.77995 0
M  V30 7328 C 698.102 1.53958 -0.623396 0
M  V30 7329 O 699.287 1.70134 -0.863657 0
M  V30 7330 C 696.427 2.84093 -1.95921 0
M  V30 7331 C 695.54 2.86171 -3.23621 0
M  V30 7332 C 694.675 4.14799 -3.31836 0
M  V30 7333 C 693.714 4.10948 -4.53639 0
M  V30 7334 N 692.851 5.31192 -4.59107 0
M  V30 7335 H 697.691 1.24786 -2.70615 0
M  V30 7336 H 695.228 0.605265 -1.34071 0
M  V30 7337 H 697.186 3.63755 -2.04299 0
M  V30 7338 H 695.816 3.04671 -1.06656 0
M  V30 7339 H 694.868 1.9885 -3.24288 0
M  V30 7340 H 696.18 2.79194 -4.13343 0
M  V30 7341 H 695.334 5.02867 -3.39425 0
M  V30 7342 H 694.073 4.24505 -2.40097 0
M  V30 7343 H 693.078 3.21268 -4.46169 0
M  V30 7344 H 694.303 4.0286 -5.467 0
M  V30 7345 H 692.249 5.41518 -3.70262 0
M  V30 7346 H 692.166 5.26311 -5.42708 0
M  V30 7347 H 693.434 6.21143 -4.70958 0
M  V30 7348 N 697.663 1.43903 0.642637 0
M  V30 7349 C 698.593 1.52697 1.76652 0
M  V30 7350 C 699.574 0.380816 1.65782 0
M  V30 7351 O 700.759 0.599432 1.84717 0
M  V30 7352 C 697.889 1.45975 3.15133 0
M  V30 7353 C 696.843 2.58949 3.40778 0
M  V30 7354 C 696.169 2.37279 4.79169 0
M  V30 7355 C 697.469 4.01153 3.34475 0
M  V30 7356 H 699.163 2.46766 1.69549 0
M  V30 7357 H 696.709 1.18767 0.814279 0
M  V30 7358 H 698.662 1.5073 3.93521 0
M  V30 7359 H 697.386 0.484162 3.22991 0
M  V30 7360 H 696.045 2.53564 2.64765 0
M  V30 7361 H 695.693 1.37939 4.83717 0
M  V30 7362 H 695.393 3.13016 4.97287 0
M  V30 7363 H 696.917 2.43834 5.59801 0
M  V30 7364 H 698.331 4.07968 4.02784 0
M  V30 7365 H 696.728 4.77001 3.64129 0
M  V30 7366 H 697.798 4.25539 2.32475 0
M  V30 7367 N 699.141 -0.881989 1.30609 0
M  V30 7368 C 700.366 -1.67236 1.22665 0
M  V30 7369 C 700.791 -1.8696 -0.206777 0
M  V30 7370 O 700.149 -1.4027 -1.14865 0
M  V30 7371 C 700.197 -3.02446 1.96363 0
M  V30 7372 O 699.301 -3.91614 1.29276 0
M  V30 7373 H 698.642 -0.510902 0.424117 0
M  V30 7374 H 701.172 -1.10055 1.72479 0
M  V30 7375 H 701.182 -3.52468 2.055 0
M  V30 7376 H 699.857 -2.8741 3.00613 0
M  V30 7377 H 698.434 -3.50055 1.28514 0
M  V30 7378 N 700.619 -1.13374 -1.09472 0
M  V30 7379 C 702.03 -0.90801 -1.63132 0
M  V30 7380 C 702.381 0.555576 -1.8817 0
M  V30 7381 O 701.506 1.42218 -1.63104 0
M  V30 7382 C 702.101 -1.64182 -2.96361 0
M  V30 7383 C 700.66 -1.46197 -3.46848 0
M  V30 7384 C 699.807 -1.67134 -2.21273 0
M  V30 7385 H 702.758 -1.2871 -0.928411 0
M  V30 7386 H 702.779 -1.09863 -3.64294 0
M  V30 7387 H 702.291 -2.707 -2.78106 0
M  V30 7388 H 700.392 -0.419788 -3.70228 0
M  V30 7389 H 700.505 -2.22472 -4.24315 0
M  V30 7390 H 698.869 -1.09616 -2.29905 0
M  V30 7391 H 699.652 -2.74971 -2.05538 0
M  V30 7392 N 702.098 1.27442 -0.927168 0
M  V30 7393 C 703.347 1.93679 -0.563146 0
M  V30 7394 C 703.66 1.73673 0.899837 0
M  V30 7395 O 704.866 2.34247 1.37262 0
M  V30 7396 C 703.322 3.46961 -0.95636 0
M  V30 7397 C 702.93 3.75724 -2.43999 0
M  V30 7398 C 704.674 4.19282 -0.663565 0
M  V30 7399 C 702.581 5.22378 -2.77263 0
M  V30 7400 H 701.511 0.725059 -0.206894 0
M  V30 7401 H 704.162 1.44743 -1.12791 0
M  V30 7402 H 702.544 3.94703 -0.320254 0
M  V30 7403 H 703.718 3.38741 -3.12396 0
M  V30 7404 H 702.033 3.16605 -2.70463 0
M  V30 7405 H 704.63 5.27265 -0.888596 0
M  V30 7406 H 704.973 4.14382 0.399198 0
M  V30 7407 H 705.506 3.7736 -1.25875 0
M  V30 7408 H 702.245 5.32367 -3.82446 0
M  V30 7409 H 701.765 5.6051 -2.13516 0
M  V30 7410 H 703.444 5.9025 -2.64979 0
M  V30 7411 N 703.576 0.692616 1.41565 0
M  V30 7412 C 704.806 0.230943 2.05305 0
M  V30 7413 C 705.214 -1.12379 1.52209 0
M  V30 7414 O 704.557 -1.71281 0.663968 0
M  V30 7415 C 704.619 0.107894 3.59338 0
M  V30 7416 C 704.283 1.39419 4.35214 0
M  V30 7417 C 705.28 2.33143 4.64694 0
M  V30 7418 C 702.965 1.64674 4.74539 0
M  V30 7419 C 704.959 3.50385 5.32456 0
M  V30 7420 C 702.646 2.82202 5.42038 0
M  V30 7421 C 703.644 3.74881 5.70923 0
M  V30 7422 O 703.332 4.90351 6.37033 0
M  V30 7423 H 703.064 0.105708 0.667684 0
M  V30 7424 H 705.618 0.94488 1.82376 0
M  V30 7425 H 703.848 -0.661785 3.80995 0
M  V30 7426 H 705.537 -0.316213 4.04666 0
M  V30 7427 H 706.303 2.14887 4.34797 0
M  V30 7428 H 702.182 0.934007 4.51439 0
M  V30 7429 H 705.726 4.22743 5.54918 0
M  V30 7430 H 701.623 3.00376 5.71353 0
M  V30 7431 H 702.391 4.90128 6.55528 0
M  V30 7432 N 705.054 -1.51416 0.437162 0
M  V30 7433 C 706.002 -2.29328 -0.388765 0
M  V30 7434 C 706.996 -1.35171 -1.02104 0
M  V30 7435 O 708.202 -1.52513 -0.956024 0
M  V30 7436 H 704.577 -0.738048 -0.144183 0
M  V30 7437 H 706.548 -2.96995 0.289212 0
M  V30 7438 C 705.297 -3.14741 -1.47761 0
M  V30 7439 H 704.62 -3.8708 -1.00045 0
M  V30 7440 H 706.06 -3.72313 -2.02877 0
M  V30 7441 C 704.519 -2.30105 -2.46076 0
M  V30 7442 O 705.049 -1.96055 -3.50607 0
M  V30 7443 N 703.255 -1.93331 -2.1696 0
M  V30 7444 H 702.802 -2.2122 -1.31983 0
M  V30 7445 H 702.76 -1.36999 -2.82982 0
M  V30 7446 N 706.532 -0.168513 -1.56696 0
M  V30 7447 C 707.462 0.758563 -2.20835 0
M  V30 7448 C 708.443 1.24121 -1.1631 0
M  V30 7449 O 709.628 1.29487 -1.4473 0
M  V30 7450 C 706.758 1.9892 -2.8469 0
M  V30 7451 C 705.712 1.64252 -3.95228 0
M  V30 7452 C 705.038 2.94757 -4.46119 0
M  V30 7453 C 706.338 0.872675 -5.14958 0
M  V30 7454 H 708.032 0.223953 -2.98561 0
M  V30 7455 H 705.578 0.106277 -1.43607 0
M  V30 7456 H 707.531 2.64275 -3.28233 0
M  V30 7457 H 706.255 2.5479 -2.04327 0
M  V30 7458 H 704.914 1.01266 -3.52336 0
M  V30 7459 H 704.562 3.48662 -3.62552 0
M  V30 7460 H 704.262 2.72316 -5.2069 0
M  V30 7461 H 705.786 3.61147 -4.92347 0
M  V30 7462 H 707.2 1.42875 -5.55211 0
M  V30 7463 H 705.597 0.747402 -5.95428 0
M  V30 7464 H 706.667 -0.131535 -4.84722 0
M  V30 7465 N 708.01 1.57248 0.105221 0
M  V30 7466 C 709.256 1.85845 0.811753 0
M  V30 7467 C 709.589 0.756219 1.78871 0
M  V30 7468 O 708.864 -0.236736 1.93054 0
M  V30 7469 C 709.147 3.25059 1.54947 0
M  V30 7470 C 709 4.45898 0.591185 0
M  V30 7471 C 710.319 3.6203 2.50245 0
M  V30 7472 H 707.438 0.675973 0.293649 0
M  V30 7473 H 710.08 1.89849 0.0756269 0
M  V30 7474 H 708.23 3.21776 2.17698 0
M  V30 7475 H 709.902 4.61291 -0.0285352 0
M  V30 7476 H 708.145 4.33693 -0.0962343 0
M  V30 7477 H 708.816 5.40009 1.1443 0
M  V30 7478 H 711.292 3.66192 1.97593 0
M  V30 7479 H 710.168 4.60389 2.98886 0
M  V30 7480 H 710.429 2.90176 3.33542 0
M  V30 7481 N 709.488 -0.375779 1.53054 0
M  V30 7482 C 710.899 -0.95309 1.6054 0
M  V30 7483 C 711.25 -1.90575 0.466446 0
M  V30 7484 O 710.375 -2.12507 -0.408609 0
M  V30 7485 C 710.97 -1.73537 2.90982 0
M  V30 7486 C 709.529 -2.26218 3.00836 0
M  V30 7487 C 708.676 -1.07157 2.55759 0
M  V30 7488 H 711.627 -0.154895 1.57942 0
M  V30 7489 H 711.648 -2.59574 2.78211 0
M  V30 7490 H 711.16 -1.04176 3.73857 0
M  V30 7491 H 709.261 -2.98852 2.22527 0
M  V30 7492 H 709.374 -2.54799 4.05727 0
M  V30 7493 H 707.738 -1.43553 2.10391 0
M  V30 7494 H 708.521 -0.393099 3.41042 0
M  V30 7495 N 710.966 -1.44241 -0.634997 0
M  V30 7496 C 712.212 -1.47038 -1.39669 0
M  V30 7497 C 712.545 -0.101122 -1.93937 0
M  V30 7498 O 711.82 0.880699 -1.73418 0
M  V30 7499 C 712.103 -2.52763 -2.56482 0
M  V30 7500 C 711.956 -3.99032 -2.07589 0
M  V30 7501 C 713.275 -2.55031 -3.58674 0
M  V30 7502 H 710.394 -0.53537 -0.506506 0
M  V30 7503 H 713.036 -1.75898 -0.718317 0
M  V30 7504 H 711.186 -2.28284 -3.14354 0
M  V30 7505 H 712.858 -4.3463 -1.54577 0
M  V30 7506 H 711.101 -4.10994 -1.38804 0
M  V30 7507 H 711.772 -4.68649 -2.91671 0
M  V30 7508 H 714.248 -2.76893 -3.10595 0
M  V30 7509 H 713.124 -3.30916 -4.37934 0
M  V30 7510 H 713.385 -1.59085 -4.12486 0
M  V30 7511 N 712.444 0.87505 -1.31075 0
M  V30 7512 C 713.391 1.98178 -1.18296 0
M  V30 7513 C 714.361 1.65952 -0.0699923 0
M  V30 7514 O 715.546 1.8926 -0.241951 0
M  V30 7515 C 712.686 3.33399 -0.891024 0
M  V30 7516 C 711.799 3.78253 -2.08684 0
M  V30 7517 C 710.934 5.02166 -1.73212 0
M  V30 7518 C 709.973 5.39455 -2.89231 0
M  V30 7519 N 709.11 6.54549 -2.53989 0
M  V30 7520 H 713.95 2.0844 -2.12971 0
M  V30 7521 H 711.487 1.02047 -1.05948 0
M  V30 7522 H 713.445 4.11246 -0.702338 0
M  V30 7523 H 712.075 3.22794 0.0188799 0
M  V30 7524 H 711.127 2.9623 -2.38646 0
M  V30 7525 H 712.439 4.01821 -2.95536 0
M  V30 7526 H 711.593 5.87666 -1.50777 0
M  V30 7527 H 710.332 4.80491 -0.83544 0
M  V30 7528 H 709.337 4.52477 -3.12321 0
M  V30 7529 H 710.562 5.63098 -3.79601 0
M  V30 7530 H 708.508 6.3443 -1.66838 0
M  V30 7531 H 708.425 6.78035 -3.34372 0
M  V30 7532 H 709.693 7.43254 -2.34934 0
M  V30 7533 N 713.922 1.13953 1.08869 0
M  V30 7534 C 714.855 0.765765 2.14968 0
M  V30 7535 C 715.833 -0.250689 1.60656 0
M  V30 7536 O 717.017 -0.140852 1.87973 0
M  V30 7537 C 714.144 0.136146 3.38426 0
M  V30 7538 C 713.19 1.12201 4.11477 0
M  V30 7539 S 714.023 2.65711 4.64928 0
M  V30 7540 C 715.179 2.04125 5.91679 0
M  V30 7541 H 715.412 1.66444 2.46341 0
M  V30 7542 H 712.945 0.960263 1.20906 0
M  V30 7543 H 714.903 -0.220712 4.09906 0
M  V30 7544 H 713.564 -0.739887 3.05261 0
M  V30 7545 H 712.757 0.629398 5.00055 0
M  V30 7546 H 712.359 1.42262 3.45886 0
M  V30 7547 H 714.651 1.39381 6.63008 0
M  V30 7548 H 715.594 2.90808 6.45629 0
M  V30 7549 H 716.002 1.4905 5.44467 0
M  V30 7550 N 715.4 -1.26948 0.933913 0
M  V30 7551 C 716.347 -2.26635 0.436484 0
M  V30 7552 C 717.317 -1.58397 -0.499953 0
M  V30 7553 O 718.502 -1.86171 -0.417753 0
M  V30 7554 C 715.642 -3.43803 -0.298951 0
M  V30 7555 C 714.755 -4.26736 0.672316 0
M  V30 7556 C 713.89 -5.31134 -0.0835872 0
M  V30 7557 C 712.929 -6.05742 0.879979 0
M  V30 7558 N 712.066 -7.01926 0.156301 0
M  V30 7559 H 716.906 -2.68558 1.29154 0
M  V30 7560 H 714.443 -1.32052 0.648118 0
M  V30 7561 H 716.401 -4.10554 -0.741723 0
M  V30 7562 H 715.031 -3.02814 -1.1182 0
M  V30 7563 H 714.083 -3.59842 1.23361 0
M  V30 7564 H 715.395 -4.78502 1.40846 0
M  V30 7565 H 714.549 -6.03863 -0.585984 0
M  V30 7566 H 713.288 -4.80188 -0.852661 0
M  V30 7567 H 712.293 -5.31846 1.39357 0
M  V30 7568 H 713.518 -6.58777 1.64894 0
M  V30 7569 H 711.464 -6.53301 -0.594413 0
M  V30 7570 H 711.381 -7.51409 0.831906 0
M  V30 7571 H 712.649 -7.78821 -0.325239 0
M  V30 7572 N 716.879 -0.700114 -1.41195 0
M  V30 7573 C 717.827 -0.0263301 -2.32585 0
M  V30 7574 C 718.821 0.763683 -1.51209 0
M  V30 7575 O 720.027 0.668793 -1.67114 0
M  V30 7576 H 716.402 0.0102869 -0.75193 0
M  V30 7577 H 718.373 -0.814087 -2.8708 0
M  V30 7578 C 717.122 0.892793 -3.36042 0
M  V30 7579 H 716.445 0.294306 -3.98715 0
M  V30 7580 H 717.885 1.33247 -4.02518 0
M  V30 7581 C 716.344 2.01109 -2.7029 0
M  V30 7582 O 716.874 3.10035 -2.55423 0
M  V30 7583 N 715.08 1.79015 -2.28915 0
M  V30 7584 H 714.627 0.904275 -2.41207 0
M  V30 7585 H 714.585 2.54022 -1.85257 0
M  V30 7586 N 718.357 1.51182 -0.445186 0
M  V30 7587 C 719.32 2.26501 0.350722 0
M  V30 7588 C 720.32 1.3025 0.942952 0
M  V30 7589 O 721.51 1.53897 0.816175 0
M  V30 7590 C 718.642 3.06274 1.49697 0
M  V30 7591 H 719.835 2.98299 -0.309474 0
M  V30 7592 H 717.388 1.55034 -0.198551 0
M  V30 7593 H 718.123 2.38911 2.19299 0
M  V30 7594 H 717.908 3.76979 1.0784 0
M  V30 7595 H 719.398 3.63306 2.05909 0
M  V30 7596 N 719.835 0.176821 1.56605 0
M  V30 7597 C 720.785 -0.763718 2.14829 0
M  V30 7598 C 721.769 -1.18903 1.08401 0
M  V30 7599 O 722.961 -1.15048 1.3451 0
M  V30 7600 C 720.09 -1.99069 2.7969 0
M  V30 7601 C 719.176 -1.58711 3.93283 0
M  V30 7602 N 719.567 -0.893423 4.97847 0
M  V30 7603 C 717.865 -1.87774 4.04545 0
M  V30 7604 C 718.566 -0.693866 5.77547 0
M  V30 7605 N 717.542 -1.23699 5.29339 0
M  V30 7606 H 721.344 -0.224811 2.93039 0
M  V30 7607 H 718.858 -0.0236563 1.62383 0
M  V30 7608 H 720.855 -2.67478 3.19783 0
M  V30 7609 H 719.515 -2.53449 2.02962 0
M  V30 7610 H 720.526 -0.550868 5.14962 0
M  V30 7611 H 717.203 -2.43793 3.38927 0
M  V30 7612 H 718.593 -0.144899 6.71744 0
M  V30 7613 N 721.313 -1.57302 -0.09688 0
M  V30 7614 C 722.243 -2.0497 -1.11846 0
M  V30 7615 C 723.224 -0.938278 -1.41882 0
M  V30 7616 O 724.409 -1.20943 -1.51942 0
M  V30 7617 C 721.539 -2.47264 -2.43881 0
M  V30 7618 C 720.493 -3.62053 -2.28257 0
M  V30 7619 C 719.819 -3.90318 -3.65453 0
M  V30 7620 C 721.119 -4.93005 -1.72461 0
M  V30 7621 H 722.813 -2.90567 -0.721888 0
M  V30 7622 H 720.359 -1.39786 -0.345803 0
M  V30 7623 H 722.312 -2.7922 -3.15617 0
M  V30 7624 H 721.036 -1.58664 -2.8547 0
M  V30 7625 H 719.695 -3.30341 -1.58967 0
M  V30 7626 H 719.343 -2.98889 -4.04567 0
M  V30 7627 H 719.043 -4.67597 -3.55846 0
M  V30 7628 H 720.567 -4.24747 -4.3866 0
M  V30 7629 H 721.981 -5.23354 -2.34036 0
M  V30 7630 H 720.378 -5.74436 -1.73618 0
M  V30 7631 H 721.448 -4.80053 -0.683898 0
M  V30 7632 N 722.791 0.367657 -1.53252 0
M  V30 7633 C 723.738 1.45028 -1.79543 0
M  V30 7634 C 724.708 1.53288 -0.63969 0
M  V30 7635 O 725.893 1.69209 -0.881653 0
M  V30 7636 C 723.033 2.82 -1.98923 0
M  V30 7637 C 722.146 2.82722 -3.26638 0
M  V30 7638 C 721.281 4.11257 -3.36216 0
M  V30 7639 C 720.32 4.06113 -4.57972 0
M  V30 7640 N 719.457 5.26293 -4.64715 0
M  V30 7641 H 724.297 1.21908 -2.71923 0
M  V30 7642 H 721.834 0.591011 -1.34705 0
M  V30 7643 H 723.792 3.61568 -2.08146 0
M  V30 7644 H 722.422 3.03523 -1.09881 0
M  V30 7645 H 721.474 1.95399 -3.26379 0
M  V30 7646 H 722.786 2.74794 -4.16281 0
M  V30 7647 H 721.94 4.99239 -3.44739 0
M  V30 7648 H 720.679 4.21935 -2.44586 0
M  V30 7649 H 719.684 3.16517 -4.49552 0
M  V30 7650 H 720.909 3.97039 -5.50942 0
M  V30 7651 H 718.855 5.37561 -3.75985 0
M  V30 7652 H 718.772 5.20526 -5.4826 0
M  V30 7653 H 720.04 6.16113 -4.77519 0
M  V30 7654 N 724.269 1.44576 0.627338 0
M  V30 7655 C 725.216 1.51734 1.73912 0
M  V30 7656 C 726.186 0.364745 1.62046 0
M  V30 7657 O 727.371 0.575503 1.81914 0
M  V30 7658 C 724.511 1.47116 3.12171 0
M  V30 7659 C 723.624 2.72778 3.34986 0
M  V30 7660 C 722.759 2.59968 4.63239 0
M  V30 7661 C 721.798 3.80776 4.79245 0
M  V30 7662 N 720.935 3.66618 5.98778 0
M  V30 7663 H 725.775 2.46722 1.6713 0
M  V30 7664 H 723.312 1.22444 0.815224 0
M  V30 7665 H 725.27 1.42429 3.92135 0
M  V30 7666 H 723.9 0.556928 3.17959 0
M  V30 7667 H 722.952 2.87637 2.48936 0
M  V30 7668 H 724.264 3.62441 3.42692 0
M  V30 7669 H 723.418 2.53135 5.51369 0
M  V30 7670 H 722.157 1.67872 4.57898 0
M  V30 7671 H 721.162 3.87989 3.89544 0
M  V30 7672 H 722.387 4.73913 4.86398 0
M  V30 7673 H 720.333 2.77277 5.9452 0
M  V30 7674 H 720.25 4.499 6.07557 0
M  V30 7675 H 721.518 3.63684 6.89459 0
M  V30 7676 N 725.747 -0.868086 1.31537 0
M  V30 7677 C 726.679 -1.98165 1.15166 0
M  V30 7678 C 727.692 -1.6255 0.0902335 0
M  V30 7679 O 728.881 -1.75272 0.33791 0
M  V30 7680 C 725.981 -3.30772 0.737776 0
M  V30 7681 C 725.154 -3.94716 1.88462 0
M  V30 7682 C 724.213 -5.05641 1.45648 0
M  V30 7683 O 723.239 -5.2636 2.16642 0
M  V30 7684 N 724.441 -5.79474 0.34493 0
M  V30 7685 H 727.206 -2.12754 2.11083 0
M  V30 7686 H 724.767 -1.04217 1.23897 0
M  V30 7687 H 726.759 -4.02366 0.434032 0
M  V30 7688 H 725.329 -3.1233 -0.129834 0
M  V30 7689 H 724.549 -3.16079 2.35558 0
M  V30 7690 H 725.837 -4.34175 2.65273 0
M  V30 7691 H 725.235 -5.65164 -0.246259 0
M  V30 7692 H 723.792 -6.51722 0.100728 0
M  V30 7693 N 727.225 -1.14528 -1.08264 0
M  V30 7694 C 728.173 -0.829201 -2.17318 0
M  V30 7695 C 729.167 0.193521 -1.68291 0
M  V30 7696 O 730.373 0.0494744 -1.79932 0
M  V30 7697 H 726.748 -0.250435 -0.709074 0
M  V30 7698 H 728.719 -1.75683 -2.41201 0
M  V30 7699 C 727.468 -0.324663 -3.46181 0
M  V30 7700 H 726.791 -1.10299 -3.84284 0
M  V30 7701 H 728.231 -0.142059 -4.23762 0
M  V30 7702 C 726.69 0.952033 -3.23169 0
M  V30 7703 O 727.22 2.02549 -3.46896 0
M  V30 7704 N 725.426 0.887854 -2.76705 0
M  V30 7705 H 724.973 0.0141402 -2.57596 0
M  V30 7706 H 724.931 1.74263 -2.61686 0
M  V30 7707 N 728.703 1.26451 -0.940633 0
M  V30 7708 C 729.633 2.28773 -0.467479 0
M  V30 7709 C 730.614 1.63218 0.478955 0
M  V30 7710 O 731.799 1.90427 0.380929 0
M  V30 7711 C 728.929 3.46259 0.268656 0
M  V30 7712 C 727.883 4.23898 -0.591171 0
M  V30 7713 C 727.209 5.33993 0.274891 0
M  V30 7714 C 728.509 4.87974 -1.86223 0
M  V30 7715 H 730.203 2.68601 -1.32265 0
M  V30 7716 H 727.749 1.29123 -0.637436 0
M  V30 7717 H 729.702 4.16951 0.610696 0
M  V30 7718 H 728.426 3.05383 1.15796 0
M  V30 7719 H 727.085 3.54969 -0.916098 0
M  V30 7720 H 726.733 4.89358 1.16353 0
M  V30 7721 H 726.433 5.86849 -0.297006 0
M  V30 7722 H 727.957 6.07523 0.612213 0
M  V30 7723 H 729.371 5.50883 -1.58747 0
M  V30 7724 H 727.768 5.50945 -2.37866 0
M  V30 7725 H 728.838 4.10945 -2.57394 0
M  V30 7726 N 730.181 0.707592 1.40822 0
M  V30 7727 C 731.091 0.0507246 2.34545 0
M  V30 7728 C 732.107 -0.752727 1.56876 0
M  V30 7729 O 733.283 -0.687524 1.89302 0
M  V30 7730 C 730.348 -0.865731 3.35717 0
M  V30 7731 C 729.409 -0.0531313 4.29267 0
M  V30 7732 C 728.642 -0.925939 5.25606 0
M  V30 7733 O 728.865 -2.16531 5.27703 0
M  V30 7734 O 727.799 -0.369194 6.00767 0
M  V30 7735 H 731.625 0.823587 2.9232 0
M  V30 7736 H 729.21 0.46801 1.4188 0
M  V30 7737 H 731.092 -1.39091 3.97783 0
M  V30 7738 H 729.767 -1.61788 2.80368 0
M  V30 7739 H 728.674 0.516931 3.70511 0
M  V30 7740 H 730.007 0.660617 4.87747 0
M  V30 7741 N 731.66 -1.50943 0.453197 0
M  V30 7742 C 733.076 -1.59245 0.106342 0
M  V30 7743 C 733.276 -1.46287 -1.38572 0
M  V30 7744 O 732.332 -1.31219 -2.15726 0
M  V30 7745 C 733.645 -2.93797 0.640595 0
M  V30 7746 C 735.193 -3.07148 0.602435 0
M  V30 7747 C 735.668 -4.44247 1.11393 0
M  V30 7748 N 737.159 -4.50611 1.07258 0
M  V30 7749 C 737.894 -5.55049 1.43905 0
M  V30 7750 N 737.39 -6.66828 1.87914 0
M  V30 7751 N 739.183 -5.45494 1.35621 0
M  V30 7752 H 731.334 -1.5761 1.42382 0
M  V30 7753 H 733.597 -0.74384 0.587713 0
M  V30 7754 H 733.303 -3.087 1.68515 0
M  V30 7755 H 733.177 -3.77127 0.0742272 0
M  V30 7756 H 735.564 -2.91903 -0.433171 0
M  V30 7757 H 735.645 -2.25619 1.20539 0
M  V30 7758 H 735.289 -4.60239 2.14808 0
M  V30 7759 H 735.219 -5.2434 0.487353 0
M  V30 7760 H 737.71 -3.70391 0.749585 0
M  V30 7761 H 738.023 -7.42558 2.14072 0
M  V30 7762 H 736.368 -6.67995 1.91853 0
M  V30 7763 H 739.559 -4.57053 1.01093 0
M  V30 7764 H 739.732 -6.2677 1.64508 0
M  V30 7765 N 733.138 -0.185124 -1.56509 0
M  V30 7766 C 734.101 0.72591 -2.17401 0
M  V30 7767 C 735.101 1.14819 -1.12575 0
M  V30 7768 O 736.291 1.0629 -1.38015 0
M  V30 7769 C 733.423 1.98979 -2.76803 0
M  V30 7770 H 734.616 0.195588 -2.99262 0
M  V30 7771 H 732.169 0.0644772 -1.56167 0
M  V30 7772 H 732.904 2.56287 -1.98714 0
M  V30 7773 H 732.689 1.69583 -3.53531 0
M  V30 7774 H 734.179 2.63966 -3.23592 0
M  V30 7775 N 734.616 1.57351 0.0885366 0
M  V30 7776 C 735.865 1.85604 0.789556 0
M  V30 7777 C 736.178 0.775352 1.79576 0
M  V30 7778 O 737.384 0.945206 2.54515 0
M  V30 7779 C 735.84 3.29175 1.45506 0
M  V30 7780 C 735.448 4.45331 0.488278 0
M  V30 7781 C 737.192 3.66646 2.13942 0
M  V30 7782 C 735.099 5.79937 1.15874 0
M  V30 7783 H 734.029 0.692346 0.298619 0
M  V30 7784 H 736.68 1.83451 0.0425821 0
M  V30 7785 H 735.062 3.25889 2.24972 0
M  V30 7786 H 736.236 4.59977 -0.275359 0
M  V30 7787 H 734.551 4.16301 -0.0907363 0
M  V30 7788 H 737.148 4.64498 2.6485 0
M  V30 7789 H 737.491 2.956 2.93132 0
M  V30 7790 H 738.024 3.71848 1.41328 0
M  V30 7791 H 734.763 6.54232 0.407508 0
M  V30 7792 H 734.283 5.69123 1.89364 0
M  V30 7793 H 735.962 6.24718 1.68336 0
M  V30 7794 N 736.094 -0.359525 1.53444 0
M  V30 7795 C 737.004 -1.46445 1.83278 0
M  V30 7796 C 738.02 -1.5833 0.721629 0
M  V30 7797 O 739.196 -1.7411 1.01231 0
M  V30 7798 C 736.261 -2.81638 2.02191 0
M  V30 7799 C 735.322 -2.7923 3.26082 0
M  V30 7800 C 734.555 -4.07974 3.44082 0
M  V30 7801 O 734.778 -5.04447 2.66251 0
M  V30 7802 O 733.712 -4.13417 4.37458 0
M  V30 7803 H 737.538 -1.24156 2.77162 0
M  V30 7804 H 735.123 -0.550201 1.389 0
M  V30 7805 H 737.005 -3.61732 2.16167 0
M  V30 7806 H 735.68 -3.03892 1.11496 0
M  V30 7807 H 734.587 -1.97813 3.17523 0
M  V30 7808 H 735.92 -2.6193 4.16718 0
M  V30 7809 N 737.572 -1.44907 -0.619662 0
M  V30 7810 C 738.849 -1.38766 -1.37852 0
M  V30 7811 C 739.229 -0.0521393 -2.11036 0
M  V30 7812 O 738.577 0.965613 -2.07095 0
M  V30 7813 C 738.787 -2.59344 -2.33541 0
M  V30 7814 C 740.135 -3.03909 -2.96521 0
M  V30 7815 O 741.159 -2.59631 -2.43865 0
M  V30 7816 O 740.018 -3.80713 -3.92071 0
M  V30 7817 H 737.112 -0.550083 -0.617525 0
M  V30 7818 H 739.658 -1.57015 -0.643759 0
M  V30 7819 H 738.43 -3.48142 -1.78642 0
M  V30 7820 H 738.053 -2.43367 -3.14417 0
M  V30 7821 N 739.05 0.861098 -1.31996 0
M  V30 7822 C 740.28 1.64501 -1.24992 0
M  V30 7823 C 740.688 1.88288 0.185576 0
M  V30 7824 O 740.031 1.44756 1.131 0
M  V30 7825 C 740.093 3.03098 -1.93319 0
M  V30 7826 C 739.757 3.02381 -3.42658 0
M  V30 7827 C 740.754 2.79696 -4.38254 0
M  V30 7828 C 738.439 3.23221 -3.84491 0
M  V30 7829 C 740.433 2.77843 -5.73657 0
M  V30 7830 C 738.12 3.20996 -5.20005 0
M  V30 7831 C 739.118 2.98335 -6.14398 0
M  V30 7832 O 738.806 2.95971 -7.47433 0
M  V30 7833 H 738.538 0.519309 -0.432775 0
M  V30 7834 H 741.092 1.08241 -1.74565 0
M  V30 7835 H 739.322 3.61121 -1.38306 0
M  V30 7836 H 741.011 3.63751 -1.8011 0
M  V30 7837 H 741.777 2.63368 -4.07262 0
M  V30 7838 H 737.656 3.39887 -3.11445 0
M  V30 7839 H 741.2 2.60074 -6.47308 0
M  V30 7840 H 737.097 3.36865 -5.50629 0
M  V30 7841 H 737.865 3.1197 -7.56714 0
M  V30 7842 N 740.528 1.15101 1.07655 0
M  V30 7843 C 741.777 0.918528 1.79572 0
M  V30 7844 C 742.09 -0.555922 1.87534 0
M  V30 7845 O 743.296 -0.905893 2.55941 0
M  V30 7846 C 741.752 1.59394 3.22679 0
M  V30 7847 C 741.36 3.1052 3.22927 0
M  V30 7848 C 743.104 1.44289 3.99225 0
M  V30 7849 C 741.011 3.70862 4.60668 0
M  V30 7850 H 739.941 0.340006 0.672987 0
M  V30 7851 H 742.592 1.38079 1.20857 0
M  V30 7852 H 740.974 1.05936 3.81567 0
M  V30 7853 H 742.148 3.70708 2.737 0
M  V30 7854 H 740.463 3.25351 2.59876 0
M  V30 7855 H 743.06 1.86766 5.01022 0
M  V30 7856 H 743.403 0.389975 4.14469 0
M  V30 7857 H 743.936 1.94826 3.46825 0
M  V30 7858 H 740.675 4.7604 4.50628 0
M  V30 7859 H 740.195 3.15456 5.10145 0
M  V30 7860 H 741.874 3.71607 5.29639 0
M  V30 7861 N 742.006 -1.2595 0.947325 0
M  V30 7862 C 742.954 -2.28152 0.452687 0
M  V30 7863 C 743.948 -1.62655 -0.473239 0
M  V30 7864 O 745.154 -1.76549 -0.350774 0
M  V30 7865 H 741.529 -0.741049 0.12787 0
M  V30 7866 H 743.5 -2.67267 1.32707 0
M  V30 7867 C 742.249 -3.46719 -0.26098 0
M  V30 7868 H 741.572 -3.97345 0.442352 0
M  V30 7869 H 743.012 -4.20135 -0.571208 0
M  V30 7870 C 741.471 -3.02605 -1.48094 0
M  V30 7871 O 742.001 -3.07979 -2.57899 0
M  V30 7872 N 740.207 -2.57877 -1.33969 0
M  V30 7873 H 739.754 -2.53704 -0.446295 0
M  V30 7874 H 739.712 -2.28725 -2.15713 0
M  V30 7875 N 743.484 -0.715051 -1.40445 0
M  V30 7876 C 744.394 -0.0631624 -2.34515 0
M  V30 7877 C 745.41 0.744397 -1.57273 0
M  V30 7878 O 746.586 0.677475 -1.89663 0
M  V30 7879 C 743.651 0.847915 -3.36172 0
M  V30 7880 C 742.712 0.0303655 -4.29289 0
M  V30 7881 C 741.945 0.898051 -5.2609 0
M  V30 7882 O 742.168 2.13729 -5.28844 0
M  V30 7883 O 741.102 0.337328 -6.00954 0
M  V30 7884 H 744.928 -0.839078 -2.91879 0
M  V30 7885 H 742.513 -0.475527 -1.4163 0
M  V30 7886 H 744.395 1.3698 -3.98515 0
M  V30 7887 H 743.07 1.60299 -2.81222 0
M  V30 7888 H 741.977 -0.536573 -3.70232 0
M  V30 7889 H 743.31 -0.686474 -4.87389 0
M  V30 7890 N 744.962 1.50701 -0.461195 0
M  V30 7891 C 746.209 2.02267 0.0971971 0
M  V30 7892 C 746.537 1.34387 1.40608 0
M  V30 7893 O 745.792 0.455254 1.90331 0
M  V30 7894 C 746.091 3.55788 0.33908 0
M  V30 7895 C 745.757 4.42092 -0.886885 0
M  V30 7896 C 744.419 4.65398 -1.22304 0
M  V30 7897 C 746.771 4.92571 -1.70361 0
M  V30 7898 C 744.099 5.36429 -2.37616 0
M  V30 7899 C 746.451 5.64868 -2.84793 0
M  V30 7900 C 745.115 5.86431 -3.18834 0
M  V30 7901 H 744.385 0.740146 0.0355669 0
M  V30 7902 H 747.032 1.81415 -0.61326 0
M  V30 7903 H 745.337 3.751 1.13168 0
M  V30 7904 H 747.034 3.93243 0.784937 0
M  V30 7905 H 743.624 4.24165 -0.614981 0
M  V30 7906 H 747.808 4.74428 -1.4571 0
M  V30 7907 H 743.064 5.51333 -2.64276 0
M  V30 7908 H 747.238 6.02966 -3.48432 0
M  V30 7909 H 744.865 6.41248 -4.08296 0
M  V30 7910 N 746.441 0.193421 1.56409 0
M  V30 7911 C 747.666 -0.454552 2.02358 0
M  V30 7912 C 748.091 -1.54516 1.07268 0
M  V30 7913 O 747.449 -1.81214 0.0558962 0
M  V30 7914 C 747.497 -0.989469 3.46759 0
M  V30 7915 O 746.601 -2.10244 3.54783 0
M  V30 7916 H 745.942 -0.106417 0.655417 0
M  V30 7917 H 748.472 0.303807 2.02332 0
M  V30 7918 H 748.482 -1.30649 3.86516 0
M  V30 7919 H 747.157 -0.191083 4.15461 0
M  V30 7920 H 745.734 -1.79419 3.26899 0
M  V30 7921 N 747.919 -1.57396 -0.0801906 0
M  V30 7922 C 749.165 -1.87113 -0.782083 0
M  V30 7923 C 749.498 -0.78458 -1.77646 0
M  V30 7924 O 748.773 0.205993 -1.93406 0
M  V30 7925 C 749.056 -3.27483 -1.49756 0
M  V30 7926 C 748.909 -4.46782 -0.520171 0
M  V30 7927 C 750.228 -3.65965 -2.44454 0
M  V30 7928 H 747.347 -0.680559 -0.282858 0
M  V30 7929 H 749.989 -1.89946 -0.0454139 0
M  V30 7930 H 748.139 -3.25199 -2.12551 0
M  V30 7931 H 749.811 -4.61187 0.101919 0
M  V30 7932 H 748.054 -4.33485 0.165219 0
M  V30 7933 H 748.725 -5.41761 -1.05824 0
M  V30 7934 H 751.201 -3.69289 -1.91742 0
M  V30 7935 H 750.077 -4.65086 -2.91524 0
M  V30 7936 H 750.338 -2.95446 -3.28883 0
M  V30 7937 N 749.397 0.351382 -1.53633 0
M  V30 7938 C 750.813 0.693987 -1.43722 0
M  V30 7939 C 751.013 1.9274 -0.587669 0
M  V30 7940 O 750.069 2.52387 -0.0756082 0
M  V30 7941 C 751.382 0.893937 -2.87105 0
M  V30 7942 C 752.93 0.993051 -2.96829 0
M  V30 7943 C 753.405 1.22537 -4.41303 0
M  V30 7944 N 754.896 1.29275 -4.44795 0
M  V30 7945 C 755.631 1.48988 -5.53706 0
M  V30 7946 N 755.127 1.65924 -6.72637 0
M  V30 7947 N 756.92 1.51472 -5.41306 0
M  V30 7948 H 749.071 -0.459688 -2.07366 0
M  V30 7949 H 751.334 -0.143684 -0.937048 0
M  V30 7950 H 751.04 0.0592517 -3.5165 0
M  V30 7951 H 750.914 1.79795 -3.31592 0
M  V30 7952 H 753.301 1.81827 -2.32429 0
M  V30 7953 H 753.382 0.0661119 -2.55715 0
M  V30 7954 H 753.026 0.405117 -5.06282 0
M  V30 7955 H 752.956 2.16575 -4.80003 0
M  V30 7956 H 755.447 1.17743 -3.59089 0
M  V30 7957 H 755.76 1.80578 -7.51406 0
M  V30 7958 H 754.105 1.63075 -6.75597 0
M  V30 7959 H 757.296 1.37818 -4.47352 0
M  V30 7960 H 757.469 1.66493 -6.26246 0
M  V30 7961 N 750.875 1.45233 0.611969 0
M  V30 7962 C 751.822 1.5357 1.72293 0
M  V30 7963 C 752.792 0.381912 1.6165 0
M  V30 7964 O 753.977 0.594765 1.81293 0
M  V30 7965 C 751.117 1.50419 3.10593 0
M  V30 7966 C 750.23 2.76316 3.32074 0
M  V30 7967 C 749.365 2.64866 4.60456 0
M  V30 7968 C 748.404 3.85838 4.7518 0
M  V30 7969 N 747.541 3.72949 5.94856 0
M  V30 7970 H 752.381 2.4848 1.64504 0
M  V30 7971 H 749.918 1.23302 0.802191 0
M  V30 7972 H 751.876 1.4658 3.90602 0
M  V30 7973 H 750.506 0.590621 3.17351 0
M  V30 7974 H 749.558 2.90261 2.45872 0
M  V30 7975 H 750.87 3.66055 3.38829 0
M  V30 7976 H 750.024 2.58969 5.48653 0
M  V30 7977 H 748.763 1.72719 4.56092 0
M  V30 7978 H 747.768 3.92099 3.85407 0
M  V30 7979 H 748.993 4.79045 4.81344 0
M  V30 7980 H 746.939 2.83567 5.91545 0
M  V30 7981 H 746.856 4.56319 6.02751 0
M  V30 7982 H 748.124 3.70976 6.85563 0
M  V30 7983 N 752.353 -0.854086 1.3245 0
M  V30 7984 C 753.593 -1.62216 1.2436 0
M  V30 7985 C 753.957 -1.91042 -0.191564 0
M  V30 7986 O 755.158 -2.65864 -0.396211 0
M  V30 7987 C 753.429 -2.9066 2.0797 0
M  V30 7988 S 754.988 -3.81438 2.16911 0
M  V30 7989 H 751.806 -0.556386 0.442669 0
M  V30 7990 H 754.408 -1.01139 1.67305 0
M  V30 7991 H 753.112 -2.6743 3.11302 0
M  V30 7992 H 752.643 -3.56753 1.65805 0
M  V30 7993 H 754.658 -4.78347 1.31903 0
M  V30 7994 N 753.831 -1.1567 -1.07043 0
M  V30 7995 C 754.781 -0.824733 -2.12561 0
M  V30 7996 C 755.765 0.19243 -1.59745 0
M  V30 7997 O 756.957 -0.00728759 -1.76998 0
M  V30 7998 C 754.086 -0.31921 -3.41813 0
M  V30 7999 C 753.172 -1.36671 -4.01475 0
M  V30 8000 N 753.563 -2.57493 -4.35351 0
M  V30 8001 C 751.861 -1.22018 -4.28984 0
M  V30 8002 C 752.562 -3.24658 -4.82672 0
M  V30 8003 N 751.538 -2.52043 -4.81638 0
M  V30 8004 H 755.34 -1.74363 -2.3659 0
M  V30 8005 H 752.854 -1.04262 -1.24511 0
M  V30 8006 H 754.851 -0.0630216 -4.16852 0
M  V30 8007 H 753.511 0.593708 -3.19226 0
M  V30 8008 H 754.522 -2.94612 -4.25939 0
M  V30 8009 H 751.199 -0.367414 -4.1588 0
M  V30 8010 H 752.589 -4.2775 -5.1815 0
M  V30 8011 N 755.309 1.25446 -0.953992 0
M  V30 8012 C 756.537 1.97215 -0.625595 0
M  V30 8013 C 756.952 1.70911 0.802168 0
M  V30 8014 O 756.309 0.984782 1.5365 0
M  V30 8015 C 756.36 3.50777 -0.873943 0
M  V30 8016 O 756.081 3.76173 -2.24556 0
M  V30 8017 C 757.582 4.39776 -0.557845 0
M  V30 8018 H 754.802 0.628652 -0.2346 0
M  V30 8019 H 757.346 1.59632 -1.27819 0
M  V30 8020 H 755.501 3.86474 -0.267765 0
M  V30 8021 H 755.915 4.70636 -2.31522 0
M  V30 8022 H 757.389 5.46431 -0.782157 0
M  V30 8023 H 757.866 4.36257 0.507573 0
M  V30 8024 H 758.472 4.09644 -1.14332 0
M  V30 8025 N 756.787 0.722489 1.40064 0
M  V30 8026 C 758.027 0.269491 2.02616 0
M  V30 8027 C 758.391 -1.11835 1.56067 0
M  V30 8028 O 759.592 -1.66873 2.1073 0
M  V30 8029 C 757.863 0.354066 3.55642 0
M  V30 8030 S 759.422 -0.0209309 4.38795 0
M  V30 8031 H 756.24 0.106412 0.702992 0
M  V30 8032 H 758.842 0.946237 1.71075 0
M  V30 8033 H 757.546 1.36565 3.87012 0
M  V30 8034 H 757.077 -0.340925 3.9192 0
M  V30 8035 H 759.092 -1.24093 4.80432 0
M  V30 8036 N 758.265 -1.50454 0.469181 0
M  V30 8037 C 759.197 -2.26319 -0.362247 0
M  V30 8038 C 760.21 -1.31574 -0.958751 0
M  V30 8039 O 761.399 -1.57099 -0.847482 0
M  V30 8040 C 758.499 -3.02808 -1.52187 0
M  V30 8041 C 757.672 -4.24893 -1.03849 0
M  V30 8042 C 756.731 -4.83691 -2.07194 0
M  V30 8043 O 755.757 -5.44659 -1.65333 0
M  V30 8044 N 756.959 -4.70522 -3.39985 0
M  V30 8045 H 759.724 -2.98312 0.288124 0
M  V30 8046 H 757.285 -1.59099 0.299856 0
M  V30 8047 H 759.277 -3.39023 -2.21011 0
M  V30 8048 H 757.847 -2.33625 -2.07697 0
M  V30 8049 H 757.067 -3.93806 -0.176203 0
M  V30 8050 H 758.355 -5.04053 -0.693435 0
M  V30 8051 H 757.753 -4.2203 -3.76706 0
M  V30 8052 H 756.31 -5.11011 -4.04612 0
M  V30 8053 N 759.743 -0.201713 -1.56304 0
M  V30 8054 C 760.691 0.733133 -2.20744 0
M  V30 8055 C 761.685 1.2148 -1.18064 0
M  V30 8056 O 762.891 1.17692 -1.36193 0
M  V30 8057 H 759.266 0.254789 -0.707521 0
M  V30 8058 H 761.237 0.165996 -2.97938 0
M  V30 8059 C 759.986 1.93925 -2.88597 0
M  V30 8060 H 759.309 1.5777 -3.67353 0
M  V30 8061 H 760.749 2.57158 -3.37114 0
M  V30 8062 C 759.208 2.78219 -1.89989 0
M  V30 8063 O 759.738 3.76353 -1.40432 0
M  V30 8064 N 757.944 2.43847 -1.58072 0
M  V30 8065 H 757.491 1.64103 -1.98565 0
M  V30 8066 H 757.449 3.0053 -0.923524 0
M  V30 8067 N 761.222 1.57436 0.0718424 0
M  V30 8068 C 762.47 1.86878 0.769484 0
M  V30 8069 C 762.791 0.7937 1.78116 0
M  V30 8070 O 762.061 -0.177642 1.95093 0
M  V30 8071 H 760.641 0.689593 0.287177 0
M  V30 8072 H 763.303 1.94841 0.0479427 0
M  V30 8073 H 762.399 2.84387 1.28572 0
M  V30 8074 N 762.7 -0.34323 1.53817 0
M  V30 8075 C 763.948 -1.0813 1.70741 0
M  V30 8076 C 764.269 -1.89165 0.473461 0
M  V30 8077 O 763.539 -1.89075 -0.512605 0
M  V30 8078 H 762.119 -0.40219 0.629486 0
M  V30 8079 H 764.781 -0.384426 1.91071 0
M  V30 8080 H 763.877 -1.7585 2.57843 0
M  V30 8081 N 764.178 -1.45556 -0.604258 0
M  V30 8082 C 765.406 -1.53278 -1.38973 0
M  V30 8083 C 765.821 -0.166509 -1.88064 0
M  V30 8084 O 765.178 0.832519 -1.62405 0
M  V30 8085 C 765.229 -2.51992 -2.59195 0
M  V30 8086 O 764.95 -3.8331 -2.12143 0
M  V30 8087 C 766.451 -2.69445 -3.52015 0
M  V30 8088 H 763.671 -0.519003 -0.425297 0
M  V30 8089 H 766.215 -1.90773 -0.736621 0
M  V30 8090 H 764.37 -2.17561 -3.2054 0
M  V30 8091 H 764.784 -4.3685 -2.90279 0
M  V30 8092 H 766.258 -3.42485 -4.32907 0
M  V30 8093 H 766.735 -1.75596 -4.0257 0
M  V30 8094 H 767.341 -3.04886 -2.9652 0
M  V30 8095 N 765.656 0.84705 -1.32902 0
M  V30 8096 C 766.902 1.60414 -1.24078 0
M  V30 8097 C 767.235 1.93217 0.195105 0
M  V30 8098 O 766.51 1.58001 1.13428 0
M  V30 8099 C 766.793 2.91951 -2.108 0
M  V30 8100 C 766.646 2.6588 -3.62805 0
M  V30 8101 C 767.965 3.93299 -1.97494 0
M  V30 8102 H 765.084 0.58206 -0.452079 0
M  V30 8103 H 767.726 0.977562 -1.62922 0
M  V30 8104 H 765.876 3.45425 -1.77802 0
M  V30 8105 H 767.548 2.18902 -4.06054 0
M  V30 8106 H 765.791 1.99716 -3.85092 0
M  V30 8107 H 766.462 3.59574 -4.1882 0
M  V30 8108 H 768.938 3.49105 -2.26417 0
M  V30 8109 H 767.814 4.8318 -2.60438 0
M  V30 8110 H 768.075 4.31887 -0.944782 0
M  V30 8111 N 767.134 1.16236 1.06428 0
M  V30 8112 C 768.383 0.937523 1.78587 0
M  V30 8113 C 768.696 -0.536 1.88113 0
M  V30 8114 O 769.902 -0.878697 2.56887 0
M  V30 8115 C 768.358 1.62808 3.2097 0
M  V30 8116 C 767.966 3.13927 3.19615 0
M  V30 8117 C 769.71 1.48515 3.97673 0
M  V30 8118 C 767.617 3.75727 4.56709 0
M  V30 8119 H 766.547 0.347125 0.669343 0
M  V30 8120 H 769.198 1.39353 1.19385 0
M  V30 8121 H 767.58 1.09977 3.80422 0
M  V30 8122 H 768.754 3.7359 2.69753 0
M  V30 8123 H 767.069 3.28089 2.56411 0
M  V30 8124 H 769.666 1.92069 4.99013 0
M  V30 8125 H 770.009 0.433913 4.14032 0
M  V30 8126 H 770.542 1.98494 3.44739 0
M  V30 8127 H 767.281 4.80793 4.45554 0
M  V30 8128 H 766.801 3.20849 5.0677 0
M  V30 8129 H 768.48 3.77203 5.25668 0
M  V30 8130 N 768.612 -1.24939 0.960631 0
M  V30 8131 C 769.542 -2.28 0.503815 0
M  V30 8132 C 770.523 -1.63959 -0.452928 0
M  V30 8133 O 771.708 -1.91009 -0.350585 0
M  V30 8134 C 768.838 -3.46643 -0.213535 0
M  V30 8135 C 767.792 -4.22903 0.658535 0
M  V30 8136 C 767.118 -5.34363 -0.189902 0
M  V30 8137 C 768.418 -4.84949 1.93963 0
M  V30 8138 H 770.112 -2.66462 1.36521 0
M  V30 8139 H 767.658 -1.28093 0.657897 0
M  V30 8140 H 769.611 -4.1787 -0.544286 0
M  V30 8141 H 768.335 -3.07187 -1.10923 0
M  V30 8142 H 766.994 -3.53467 0.972455 0
M  V30 8143 H 766.642 -4.91147 -1.08553 0
M  V30 8144 H 766.342 -5.86302 0.390331 0
M  V30 8145 H 767.866 -6.0842 -0.515484 0
M  V30 8146 H 769.28 -5.48288 1.67491 0
M  V30 8147 H 767.677 -5.47091 2.46601 0
M  V30 8148 H 768.747 -4.06799 2.639 0
M  V30 8149 N 770.09 -0.729906 -1.39679 0
M  V30 8150 C 771.023 -0.0354454 -2.28172 0
M  V30 8151 C 772.001 0.752968 -1.44115 0
M  V30 8152 O 773.185 0.736599 -1.73512 0
M  V30 8153 C 770.312 0.957047 -3.24897 0
M  V30 8154 C 769.358 0.257734 -4.25721 0
M  V30 8155 S 770.191 -1.02466 -5.25605 0
M  V30 8156 C 771.347 -0.0346322 -6.2589 0
M  V30 8157 H 771.58 -0.785922 -2.86724 0
M  V30 8158 H 769.113 -0.521497 -1.45326 0
M  V30 8159 H 771.071 1.52441 -3.81146 0
M  V30 8160 H 769.732 1.68033 -2.65375 0
M  V30 8161 H 768.925 1.00854 -4.93806 0
M  V30 8162 H 768.527 -0.237454 -3.73245 0
M  V30 8163 H 770.819 0.807464 -6.72671 0
M  V30 8164 H 771.762 -0.682491 -7.04803 0
M  V30 8165 H 772.17 0.335492 -5.63502 0
M  V30 8166 N 771.568 1.50203 -0.477153 0
M  V30 8167 C 772.845 1.95115 0.137609 0
M  V30 8168 C 773.225 1.41778 1.56404 0
M  V30 8169 O 772.573 0.621333 2.1989 0
M  V30 8170 C 772.783 3.4892 0.0747168 0
M  V30 8171 C 774.131 4.238 0.260585 0
M  V30 8172 O 775.155 3.5588 0.151021 0
M  V30 8173 O 774.014 5.44366 0.482534 0
M  V30 8174 H 771.108 0.81987 0.108364 0
M  V30 8175 H 773.654 1.60946 -0.537989 0
M  V30 8176 H 772.426 3.80308 -0.920966 0
M  V30 8177 H 772.049 3.89642 0.791509 0
M  V30 8178 N 773.046 0.209999 1.56195 0
M  V30 8179 C 774.294 -0.423974 1.97603 0
M  V30 8180 C 774.615 -1.61112 1.09854 0
M  V30 8181 O 773.885 -1.95134 0.173032 0
M  V30 8182 H 772.465 -0.159629 0.729745 0
M  V30 8183 H 775.127 0.300205 1.92574 0
M  V30 8184 H 774.223 -0.75809 3.02753 0
M  V30 8185 N 774.524 -1.57472 -0.0634922 0
M  V30 8186 C 775.471 -2.04258 -1.07457 0
M  V30 8187 C 776.441 -0.924804 -1.37973 0
M  V30 8188 O 777.626 -1.19305 -1.48899 0
M  V30 8189 C 774.766 -2.49832 -2.38071 0
M  V30 8190 C 773.879 -3.75263 -2.14014 0
M  V30 8191 C 773.014 -4.09585 -3.38251 0
M  V30 8192 C 772.053 -5.28032 -3.09594 0
M  V30 8193 N 771.19 -5.57953 -4.26185 0
M  V30 8194 H 776.03 -2.90402 -0.668626 0
M  V30 8195 H 773.567 -1.43609 -0.318572 0
M  V30 8196 H 775.525 -2.7431 -3.14341 0
M  V30 8197 H 774.155 -1.66654 -2.76453 0
M  V30 8198 H 773.207 -3.58075 -1.28399 0
M  V30 8199 H 774.519 -4.61667 -1.88852 0
M  V30 8200 H 773.673 -4.35008 -4.2291 0
M  V30 8201 H 772.412 -3.21765 -3.66495 0
M  V30 8202 H 771.417 -5.02397 -2.23332 0
M  V30 8203 H 772.642 -6.17477 -2.82663 0
M  V30 8204 H 770.588 -4.73092 -4.54445 0
M  V30 8205 H 770.505 -6.38793 -4.04326 0
M  V30 8206 H 771.773 -5.87931 -5.11817 0
M  V30 8207 N 776.003 0.335068 -1.53997 0
M  V30 8208 C 777.243 1.0827 -1.7337 0
M  V30 8209 C 777.607 1.85618 -0.490913 0
M  V30 8210 O 778.808 2.62864 -0.561799 0
M  V30 8211 C 777.079 1.99212 -2.96731 0
M  V30 8212 S 778.638 2.81083 -3.36954 0
M  V30 8213 H 775.456 0.365698 -0.609743 0
M  V30 8214 H 778.058 0.360079 -1.92155 0
M  V30 8215 H 776.762 1.41204 -3.85344 0
M  V30 8216 H 776.293 2.75898 -2.80436 0
M  V30 8217 H 778.308 4.01657 -2.91352 0
M  V30 8218 N 777.481 1.45874 0.596531 0
M  V30 8219 C 778.411 1.5824 1.71705 0
M  V30 8220 C 779.392 0.433366 1.64487 0
M  V30 8221 O 780.577 0.657895 1.82717 0
M  V30 8222 C 777.707 1.55927 3.10329 0
M  V30 8223 C 776.661 2.69659 3.32367 0
M  V30 8224 C 775.987 2.52403 4.71377 0
M  V30 8225 C 777.287 4.11591 3.21544 0
M  V30 8226 H 778.981 2.52035 1.61613 0
M  V30 8227 H 776.527 1.21297 0.776082 0
M  V30 8228 H 778.48 1.63173 3.88526 0
M  V30 8229 H 777.204 0.586674 3.21288 0
M  V30 8230 H 775.863 2.61859 2.56564 0
M  V30 8231 H 775.511 1.53258 4.79083 0
M  V30 8232 H 775.211 3.28679 4.87077 0
M  V30 8233 H 776.735 2.6152 5.5176 0
M  V30 8234 H 778.149 4.20576 3.89601 0
M  V30 8235 H 776.546 4.88344 3.4877 0
M  V30 8236 H 777.616 4.32719 2.1882 0
M  V30 8237 N 778.959 -0.83999 1.33349 0
M  V30 8238 C 780.199 -1.60888 1.26073 0
M  V30 8239 C 780.563 -1.91234 -0.17129 0
M  V30 8240 O 781.764 -2.66269 -0.36799 0
M  V30 8241 C 780.035 -2.88438 2.11042 0
M  V30 8242 S 781.594 -3.79116 2.20944 0
M  V30 8243 H 778.412 -0.55166 0.448545 0
M  V30 8244 H 781.014 -0.99359 1.68369 0
M  V30 8245 H 779.718 -2.64113 3.14121 0
M  V30 8246 H 779.249 -3.54974 1.69579 0
M  V30 8247 H 781.264 -4.76921 1.36969 0
M  V30 8248 N 780.437 -1.16799 -1.0581 0
M  V30 8249 C 781.4 -0.881396 -2.11575 0
M  V30 8250 C 782.4 0.12574 -1.60308 0
M  V30 8251 O 783.59 -0.105716 -1.73879 0
M  V30 8252 C 780.722 -0.319037 -3.39404 0
M  V30 8253 H 781.915 -1.81907 -2.38432 0
M  V30 8254 H 779.468 -0.977597 -1.21954 0
M  V30 8255 H 780.203 0.626082 -3.18199 0
M  V30 8256 H 779.988 -1.04481 -3.77923 0
M  V30 8257 H 781.478 -0.13663 -4.17376 0
M  V30 8258 N 781.915 1.24427 -0.967243 0
M  V30 8259 C 783.155 1.9423 -0.636723 0
M  V30 8260 C 783.519 1.73939 0.812971 0
M  V30 8261 O 784.72 2.37773 1.25369 0
M  V30 8262 C 782.991 3.43105 -1.00067 0
M  V30 8263 S 784.55 4.31728 -0.784633 0
M  V30 8264 H 781.368 0.671527 -0.233607 0
M  V30 8265 H 783.97 1.50806 -1.2441 0
M  V30 8266 H 782.674 3.5538 -2.05264 0
M  V30 8267 H 782.205 3.91521 -0.384054 0
M  V30 8268 H 784.22 4.95046 0.338244 0
M  V30 8269 N 783.393 0.737304 1.3929 0
M  V30 8270 C 784.804 0.355966 1.83275 0
M  V30 8271 C 785.155 -1.11295 1.6158 0
M  V30 8272 O 784.28 -1.85871 1.10819 0
M  V30 8273 C 784.875 0.63931 3.32713 0
M  V30 8274 C 783.434 0.31144 3.75109 0
M  V30 8275 C 782.581 0.900765 2.62262 0
M  V30 8276 H 785.532 0.934763 1.28249 0
M  V30 8277 H 785.553 -0.0881293 3.80398 0
M  V30 8278 H 785.065 1.70847 3.48472 0
M  V30 8279 H 783.166 -0.751791 3.64937 0
M  V30 8280 H 783.279 0.795611 4.72448 0
M  V30 8281 H 781.643 0.327239 2.52589 0
M  V30 8282 H 782.426 1.97463 2.80826 0
M  V30 8283 N 784.871 -1.49948 0.485112 0
M  V30 8284 C 786.118 -2.02396 -0.0650059 0
M  V30 8285 C 786.446 -1.36606 -1.38452 0
M  V30 8286 O 785.701 -0.485476 -1.89583 0
M  V30 8287 C 786 -3.56282 -0.282434 0
M  V30 8288 C 785.666 -4.40625 0.957106 0
M  V30 8289 C 784.328 -4.63393 1.29692 0
M  V30 8290 C 786.68 -4.89799 1.78176 0
M  V30 8291 C 784.008 -5.3258 2.4612 0
M  V30 8292 C 786.36 -5.60266 2.93743 0
M  V30 8293 C 785.024 -5.81284 3.28124 0
M  V30 8294 H 784.294 -0.740618 -0.0237873 0
M  V30 8295 H 786.941 -1.80416 0.642044 0
M  V30 8296 H 785.246 -3.76853 -1.07186 0
M  V30 8297 H 786.943 -3.94442 -0.722276 0
M  V30 8298 H 783.533 -4.23133 0.682384 0
M  V30 8299 H 787.717 -4.7205 1.53239 0
M  V30 8300 H 782.973 -5.47059 2.73014 0
M  V30 8301 H 787.147 -5.97347 3.5798 0
M  V30 8302 H 784.774 -6.34671 4.18446 0
M  V30 8303 N 786.349 -0.21828 -1.56081 0
M  V30 8304 C 787.296 0.693189 -2.20144 0
M  V30 8305 C 788.266 1.19274 -1.15598 0
M  V30 8306 O 789.451 1.25243 -1.4394 0
M  V30 8307 C 786.591 1.89715 -2.88275 0
M  V30 8308 C 785.704 1.4368 -4.07407 0
M  V30 8309 C 784.839 2.59807 -4.63329 0
M  V30 8310 C 783.878 2.10492 -5.74769 0
M  V30 8311 N 783.015 3.1988 -6.24997 0
M  V30 8312 H 787.855 0.14016 -2.9767 0
M  V30 8313 H 785.392 0.0574292 -1.46988 0
M  V30 8314 H 787.35 2.60398 -3.25958 0
M  V30 8315 H 785.98 2.42311 -2.13273 0
M  V30 8316 H 785.032 0.625007 -3.7523 0
M  V30 8317 H 786.344 1.03517 -4.8794 0
M  V30 8318 H 785.498 3.38577 -5.03438 0
M  V30 8319 H 784.237 3.03256 -3.81951 0
M  V30 8320 H 783.242 1.30182 -5.34165 0
M  V30 8321 H 784.467 1.68045 -6.5798 0
M  V30 8322 H 782.413 3.62817 -5.46534 0
M  V30 8323 H 782.33 2.83958 -7.00645 0
M  V30 8324 H 783.598 3.98796 -6.69763 0
M  V30 8325 N 787.827 1.57504 0.0551401 0
M  V30 8326 C 789.074 1.88055 0.751104 0
M  V30 8327 C 789.402 0.812231 1.76729 0
M  V30 8328 O 788.657 -0.189918 1.94776 0
M  V30 8329 C 788.956 3.25311 1.48013 0
M  V30 8330 C 788.622 4.46858 0.602375 0
M  V30 8331 C 787.284 4.79847 0.360536 0
M  V30 8332 C 789.636 5.212 -0.00524047 0
M  V30 8333 C 786.964 5.84582 -0.498127 0
M  V30 8334 C 789.316 6.26844 -0.851453 0
M  V30 8335 C 787.98 6.58324 -1.103 0
M  V30 8336 H 787.25 0.688142 0.274848 0
M  V30 8337 H 789.897 1.91497 0.0114795 0
M  V30 8338 H 788.202 3.17737 2.29239 0
M  V30 8339 H 789.899 3.46189 2.02371 0
M  V30 8340 H 786.489 4.21049 0.801007 0
M  V30 8341 H 790.673 4.96013 0.168682 0
M  V30 8342 H 785.929 6.07361 -0.701594 0
M  V30 8343 H 790.103 6.83603 -1.32893 0
M  V30 8344 H 787.73 7.39304 -1.77011 0
M  V30 8345 N 789.305 -0.326896 1.54172 0
M  V30 8346 C 790.215 -1.42525 1.86343 0
M  V30 8347 C 791.231 -1.56764 0.75505 0
M  V30 8348 O 792.407 -1.71924 1.04901 0
M  V30 8349 C 789.472 -2.77286 2.08119 0
M  V30 8350 C 788.533 -2.7225 3.31931 0
M  V30 8351 C 787.766 -4.00584 3.52659 0
M  V30 8352 O 787.989 -4.98686 2.76891 0
M  V30 8353 O 786.923 -4.04045 4.46129 0
M  V30 8354 H 790.749 -1.18249 2.79734 0
M  V30 8355 H 788.334 -0.520614 1.40036 0
M  V30 8356 H 790.216 -3.57065 2.23791 0
M  V30 8357 H 788.891 -3.01459 1.17917 0
M  V30 8358 H 787.798 -1.91033 3.21647 0
M  V30 8359 H 789.131 -2.53032 4.2218 0
M  V30 8360 N 790.784 -1.46188 -0.588786 0
M  V30 8361 C 792.032 -1.50885 -1.34455 0
M  V30 8362 C 792.353 -0.159555 -1.94346 0
M  V30 8363 O 791.623 0.813239 -1.78222 0
M  V30 8364 H 790.203 -0.555707 -0.499198 0
M  V30 8365 H 792.865 -1.82277 -0.690014 0
M  V30 8366 H 791.961 -2.25816 -2.15438 0
M  V30 8367 N 792.262 0.832906 -1.33792 0
M  V30 8368 C 793.511 1.58351 -1.24932 0
M  V30 8369 C 793.824 1.94754 0.181703 0
M  V30 8370 O 795.03 2.6865 0.392375 0
M  V30 8371 C 793.486 2.85643 -2.18943 0
M  V30 8372 C 793.094 2.56581 -3.67247 0
M  V30 8373 C 794.838 3.63667 -2.18968 0
M  V30 8374 C 792.745 3.80006 -4.53155 0
M  V30 8375 H 791.675 0.594278 -0.464058 0
M  V30 8376 H 794.326 0.91786 -1.58895 0
M  V30 8377 H 792.708 3.53781 -1.77919 0
M  V30 8378 H 793.882 1.96617 -4.16747 0
M  V30 8379 H 792.197 1.91851 -3.6957 0
M  V30 8380 H 794.794 4.55293 -2.80379 0
M  V30 8381 H 795.137 3.99039 -1.18631 0
M  V30 8382 H 795.67 3.0246 -2.58384 0
M  V30 8383 H 792.409 3.4976 -5.5439 0
M  V30 8384 H 791.929 4.39288 -4.08395 0
M  V30 8385 H 793.608 4.47523 -4.6726 0
M  V30 8386 N 793.74 1.17359 1.05189 0
M  V30 8387 C 794.703 0.892604 2.11105 0
M  V30 8388 C 795.703 -0.117236 1.60372 0
M  V30 8389 O 796.893 0.114936 1.7382 0
M  V30 8390 C 794.025 0.337032 3.3923 0
M  V30 8391 H 795.218 1.83169 2.37464 0
M  V30 8392 H 792.771 0.984051 1.21434 0
M  V30 8393 H 793.506 -0.609198 3.18527 0
M  V30 8394 H 793.291 1.06484 3.77364 0
M  V30 8395 H 794.781 0.158763 4.17298 0
M  V30 8396 N 795.218 -1.23913 0.973828 0
M  V30 8397 C 796.458 -1.93889 0.647015 0
M  V30 8398 C 796.822 -1.74368 -0.803735 0
M  V30 8399 O 798.023 -2.38435 -1.24106 0
M  V30 8400 C 796.294 -3.4257 1.01885 0
M  V30 8401 S 797.853 -4.31306 0.807517 0
M  V30 8402 H 794.671 -0.670279 0.237165 0
M  V30 8403 H 797.273 -1.50144 1.25208 0
M  V30 8404 H 795.977 -3.54286 2.07146 0
M  V30 8405 H 795.508 -3.91312 0.404812 0
M  V30 8406 H 797.523 -4.95218 -0.311986 0
M  V30 8407 N 796.696 -0.74468 -1.38897 0
M  V30 8408 C 797.606 -0.112892 -2.34328 0
M  V30 8409 C 798.622 0.71087 -1.58816 0
M  V30 8410 O 799.798 0.637092 -1.91058 0
M  V30 8411 C 796.863 0.776417 -3.37894 0
M  V30 8412 C 795.924 -0.0606999 -4.29257 0
M  V30 8413 C 795.157 0.786258 -5.27877 0
M  V30 8414 O 795.38 2.02463 -5.33259 0
M  V30 8415 O 794.314 0.209781 -6.01534 0
M  V30 8416 H 798.14 -0.900801 -2.90033 0
M  V30 8417 H 795.725 -0.505462 -1.4059 0
M  V30 8418 H 797.607 1.28496 -4.01331 0
M  V30 8419 H 796.282 1.54297 -2.84559 0
M  V30 8420 H 795.189 -0.614984 -3.69011 0
M  V30 8421 H 796.522 -0.789702 -4.85824 0
M  V30 8422 N 798.174 1.49689 -0.493057 0
M  V30 8423 C 799.423 2.01622 0.0560733 0
M  V30 8424 C 799.736 1.37838 1.3878 0
M  V30 8425 O 800.942 1.81054 2.02316 0
M  V30 8426 C 799.398 3.59586 0.150409 0
M  V30 8427 C 799.006 4.32338 -1.1742 0
M  V30 8428 C 800.75 4.19489 0.650327 0
M  V30 8429 C 798.657 5.8214 -1.04246 0
M  V30 8430 H 797.587 0.753594 0.0247297 0
M  V30 8431 H 800.238 1.723 -0.631279 0
M  V30 8432 H 798.62 3.8559 0.902035 0
M  V30 8433 H 799.794 4.18042 -1.9385 0
M  V30 8434 H 798.109 3.84144 -1.60694 0
M  V30 8435 H 800.706 5.29181 0.766272 0
M  V30 8436 H 801.049 3.82326 1.6472 0
M  V30 8437 H 801.582 3.97775 -0.0445371 0
M  V30 8438 H 798.321 6.23814 -2.01336 0
M  V30 8439 H 797.841 5.98952 -0.31892 0
M  V30 8440 H 799.52 6.43004 -0.717957 0
M  V30 8441 N 799.652 0.226554 1.55963 0
M  V30 8442 C 800.877 -0.411527 2.03276 0
M  V30 8443 C 801.302 -1.52206 1.10521 0
M  V30 8444 O 800.66 -1.81054 0.0943217 0
M  V30 8445 C 800.708 -0.915694 3.4878 0
M  V30 8446 O 799.812 -2.02672 3.59163 0
M  V30 8447 H 799.153 -0.0924907 0.657527 0
M  V30 8448 H 801.683 0.346656 2.01642 0
M  V30 8449 H 801.693 -1.22421 3.892 0
M  V30 8450 H 800.368 -0.102915 4.15773 0
M  V30 8451 H 798.945 -1.72445 3.30632 0
M  V30 8452 N 801.13 -1.57531 -0.0467866 0
M  V30 8453 C 802.077 -2.05387 -1.05285 0
M  V30 8454 C 803.047 -0.939385 -1.36985 0
M  V30 8455 O 804.232 -1.20877 -1.47626 0
M  V30 8456 C 801.372 -2.52343 -2.35408 0
M  V30 8457 C 800.485 -3.77512 -2.10022 0
M  V30 8458 C 799.62 -4.1315 -3.33887 0
M  V30 8459 C 798.659 -5.31286 -3.03976 0
M  V30 8460 N 797.796 -5.62441 -4.20243 0
M  V30 8461 H 802.636 -2.91095 -0.637788 0
M  V30 8462 H 800.173 -1.43939 -0.303322 0
M  V30 8463 H 802.131 -2.77628 -3.11413 0
M  V30 8464 H 800.761 -1.69577 -2.7467 0
M  V30 8465 H 799.813 -3.59417 -1.24594 0
M  V30 8466 H 801.125 -4.63644 -1.83945 0
M  V30 8467 H 800.279 -4.39469 -4.18273 0
M  V30 8468 H 799.018 -3.25634 -3.63062 0
M  V30 8469 H 798.023 -5.04738 -2.17991 0
M  V30 8470 H 799.248 -6.20441 -2.76098 0
M  V30 8471 H 797.194 -4.77885 -4.49402 0
M  V30 8472 H 797.111 -6.43046 -3.97528 0
M  V30 8473 H 798.379 -5.93327 -5.05553 0
M  V30 8474 N 802.608 0.318715 -1.54344 0
M  V30 8475 C 803.54 1.41364 -1.80413 0
M  V30 8476 C 804.553 1.47627 -0.686294 0
M  V30 8477 O 805.742 1.50264 -0.963486 0
M  V30 8478 C 802.842 2.79867 -1.91123 0
M  V30 8479 C 802.015 2.96749 -3.21339 0
M  V30 8480 C 801.074 4.15642 -3.22689 0
M  V30 8481 O 800.1 4.08571 -3.96306 0
M  V30 8482 N 801.302 5.25416 -2.46817 0
M  V30 8483 H 804.067 1.19363 -2.74905 0
M  V30 8484 H 801.628 0.508722 -1.537 0
M  V30 8485 H 803.62 3.57619 -1.89448 0
M  V30 8486 H 802.19 2.94896 -1.03706 0
M  V30 8487 H 801.41 2.06257 -3.35934 0
M  V30 8488 H 802.698 3.04927 -4.07304 0
M  V30 8489 H 802.096 5.34037 -1.86605 0
M  V30 8490 H 800.653 6.01569 -2.50915 0
M  V30 8491 N 804.086 1.46499 0.581025 0
M  V30 8492 C 805.033 1.5719 1.68997 0
M  V30 8493 C 806.003 0.416114 1.60803 0
M  V30 8494 O 807.188 0.633086 1.79991 0
M  V30 8495 C 804.328 1.56973 3.07333 0
M  V30 8496 C 803.441 2.83298 3.26139 0
M  V30 8497 C 802.576 2.74574 4.54734 0
M  V30 8498 C 801.615 3.9583 4.66889 0
M  V30 8499 N 800.752 3.85482 5.86811 0
M  V30 8500 H 805.592 2.51914 1.59196 0
M  V30 8501 H 803.129 1.24975 0.775857 0
M  V30 8502 H 805.087 1.54832 3.87405 0
M  V30 8503 H 803.717 0.657803 3.16027 0
M  V30 8504 H 802.769 2.95411 2.3966 0
M  V30 8505 H 804.081 3.7316 3.30988 0
M  V30 8506 H 803.235 2.70548 5.43036 0
M  V30 8507 H 801.974 1.82354 4.52325 0
M  V30 8508 H 800.979 4.00186 3.77003 0
M  V30 8509 H 802.204 4.89148 4.71075 0
M  V30 8510 H 800.15 2.96051 5.85397 0
M  V30 8511 H 800.067 4.69002 5.92936 0
M  V30 8512 H 801.335 3.85434 6.7754 0
M  V30 8513 N 805.565 -0.825799 1.34232 0
M  V30 8514 C 806.814 -1.57686 1.2577 0
M  V30 8515 C 807.127 -1.94848 -0.171372 0
M  V30 8516 O 808.333 -2.68854 -0.378123 0
M  V30 8517 C 806.789 -2.84478 2.20454 0
M  V30 8518 C 806.397 -2.54629 3.68603 0
M  V30 8519 C 808.141 -3.625 2.20893 0
M  V30 8520 C 806.048 -3.77597 4.55164 0
M  V30 8521 H 804.978 -0.591809 0.467203 0
M  V30 8522 H 807.629 -0.909421 1.59379 0
M  V30 8523 H 806.011 -3.52832 1.79793 0
M  V30 8524 H 807.185 -1.94404 4.17784 0
M  V30 8525 H 805.5 -1.89888 3.70582 0
M  V30 8526 H 808.097 -4.538 2.82789 0
M  V30 8527 H 808.44 -3.98404 1.20746 0
M  V30 8528 H 808.973 -3.01086 2.59985 0
M  V30 8529 H 805.712 -3.46815 5.56237 0
M  V30 8530 H 805.232 -4.37116 4.10719 0
M  V30 8531 H 806.911 -4.45039 4.69627 0
M  V30 8532 N 807.043 -1.17915 -1.04565 0
M  V30 8533 C 808.268 -0.996749 -1.81878 0
M  V30 8534 C 808.693 0.450169 -1.82634 0
M  V30 8535 O 808.051 1.32268 -1.23995 0
M  V30 8536 C 808.099 -1.55005 -3.25585 0
M  V30 8537 O 807.203 -0.76804 -4.05185 0
M  V30 8538 H 806.544 -0.353456 -0.562108 0
M  V30 8539 H 809.074 -1.56557 -1.31723 0
M  V30 8540 H 809.084 -1.57503 -3.76373 0
M  V30 8541 H 807.759 -2.60327 -3.2435 0
M  V30 8542 H 806.336 -0.81498 -3.63885 0
M  V30 8543 N 808.521 1.23394 -0.980386 0
M  V30 8544 C 809.431 2.28561 -0.528864 0
M  V30 8545 C 810.447 1.68946 0.416329 0
M  V30 8546 O 811.623 1.99355 0.286251 0
M  V30 8547 C 808.688 3.46323 0.16155 0
M  V30 8548 C 807.749 4.21297 -0.825044 0
M  V30 8549 C 806.982 5.33437 -0.167483 0
M  V30 8550 O 807.205 5.60812 1.04146 0
M  V30 8551 O 806.139 5.95637 -0.866047 0
M  V30 8552 H 809.965 2.69326 -1.40346 0
M  V30 8553 H 807.55 1.29325 -0.748019 0
M  V30 8554 H 809.432 4.17811 0.548841 0
M  V30 8555 H 808.107 3.0751 1.01092 0
M  V30 8556 H 807.014 3.52134 -1.26303 0
M  V30 8557 H 808.347 4.6396 -1.64322 0
M  V30 8558 N 809.999 0.752036 1.385 0
M  V30 8559 C 811.247 0.306895 1.99756 0
M  V30 8560 C 811.568 -1.11478 1.59992 0
M  V30 8561 O 810.838 -1.76206 0.856045 0
M  V30 8562 H 809.418 0.11048 0.738785 0
M  V30 8563 H 812.08 0.965785 1.69289 0
M  V30 8564 H 811.176 0.368797 3.09913 0
M  V30 8565 N 811.477 -1.49425 0.500989 0
M  V30 8566 C 812.407 -2.31971 -0.266775 0
M  V30 8567 C 813.388 -1.40245 -0.962563 0
M  V30 8568 O 814.573 -1.69154 -0.953968 0
M  V30 8569 C 811.703 -3.20757 -1.33163 0
M  V30 8570 C 810.657 -4.21275 -0.75572 0
M  V30 8571 C 809.983 -4.98997 -1.92109 0
M  V30 8572 C 811.283 -5.21686 0.253213 0
M  V30 8573 H 812.977 -2.96408 0.422237 0
M  V30 8574 H 810.523 -1.4254 0.204505 0
M  V30 8575 H 812.476 -3.77315 -1.87646 0
M  V30 8576 H 811.2 -2.54263 -2.04983 0
M  V30 8577 H 809.859 -3.65861 -0.232637 0
M  V30 8578 H 809.507 -4.28951 -2.62698 0
M  V30 8579 H 809.207 -5.67011 -1.54182 0
M  V30 8580 H 810.731 -5.584 -2.47026 0
M  V30 8581 H 812.145 -5.72939 -0.203483 0
M  V30 8582 H 810.542 -5.9759 0.548322 0
M  V30 8583 H 811.612 -4.70596 1.16909 0
M  V30 8584 N 812.955 -0.234822 -1.55841 0
M  V30 8585 C 814.366 0.270588 -1.84729 0
M  V30 8586 C 814.717 1.58494 -1.15646 0
M  V30 8587 O 813.842 2.12071 -0.430667 0
M  V30 8588 C 814.437 0.497733 -3.35124 0
M  V30 8589 C 812.996 0.947428 -3.64281 0
M  V30 8590 C 812.143 0.01787 -2.77294 0
M  V30 8591 H 815.094 -0.457691 -1.51957 0
M  V30 8592 H 815.115 1.34199 -3.56049 0
M  V30 8593 H 814.627 -0.459037 -3.85376 0
M  V30 8594 H 812.728 1.91709 -3.19497 0
M  V30 8595 H 812.841 0.812651 -4.72158 0
M  V30 8596 H 811.205 0.527071 -2.49187 0
M  V30 8597 H 811.988 -0.934056 -3.30349 0
M  V30 8598 N 814.433 1.57553 0.0384317 0
M  V30 8599 C 815.396 2.04927 1.02653 0
M  V30 8600 C 816.396 0.951768 1.29607 0
M  V30 8601 O 817.586 1.21568 1.24768 0
M  V30 8602 C 814.718 2.45828 2.36181 0
M  V30 8603 H 815.911 2.93474 0.617508 0
M  V30 8604 H 813.464 1.53679 0.285031 0
M  V30 8605 H 814.199 1.60408 2.8185 0
M  V30 8606 H 813.984 3.25945 2.1795 0
M  V30 8607 H 815.474 2.82939 3.0714 0
M  V30 8608 N 815.911 -0.310526 1.54511 0
M  V30 8609 C 816.841 -1.38757 1.878 0
M  V30 8610 C 817.822 -1.53353 0.735991 0
M  V30 8611 O 819.007 -1.67018 0.990887 0
M  V30 8612 C 816.137 -2.75327 2.11689 0
M  V30 8613 C 815.091 -2.75506 3.27537 0
M  V30 8614 C 814.417 -4.15275 3.36824 0
M  V30 8615 C 815.717 -2.38093 4.64875 0
M  V30 8616 H 817.411 -1.11146 2.78005 0
M  V30 8617 H 814.957 -0.533232 1.33763 0
M  V30 8618 H 816.91 -3.50752 2.33562 0
M  V30 8619 H 815.634 -3.04443 1.18245 0
M  V30 8620 H 814.293 -2.02538 3.05572 0
M  V30 8621 H 813.941 -4.41553 2.40915 0
M  V30 8622 H 813.641 -4.16299 4.14692 0
M  V30 8623 H 815.165 -4.92493 3.60947 0
M  V30 8624 H 816.579 -3.03232 4.86542 0
M  V30 8625 H 814.976 -2.50345 5.45387 0
M  V30 8626 H 816.046 -1.33227 4.66239 0
M  V30 8627 N 817.389 -1.46805 -0.573248 0
M  V30 8628 C 818.299 -1.60687 -1.70929 0
M  V30 8629 C 819.315 -0.490084 -1.66956 0
M  V30 8630 O 820.491 -0.755482 -1.86693 0
M  V30 8631 C 817.556 -1.60259 -3.07438 0
M  V30 8632 C 816.617 -2.83242 -3.22603 0
M  V30 8633 C 815.85 -2.82825 -4.52599 0
M  V30 8634 O 816.073 -1.92113 -5.37074 0
M  V30 8635 O 815.007 -3.74489 -4.71213 0
M  V30 8636 H 818.833 -2.56782 -1.62163 0
M  V30 8637 H 816.418 -1.29706 -0.741399 0
M  V30 8638 H 818.3 -1.6275 -3.88704 0
M  V30 8639 H 816.975 -0.673268 -3.16621 0
M  V30 8640 H 815.882 -2.86302 -2.40794 0
M  V30 8641 H 817.215 -3.75415 -3.18315 0
M  V30 8642 N 818.867 0.818669 -1.34668 0
M  V30 8643 C 820.114 1.57512 -1.27264 0
M  V30 8644 C 820.442 1.93871 0.156254 0
M  V30 8645 O 819.697 1.60582 1.11857 0
M  V30 8646 C 819.996 2.88245 -2.11304 0
M  V30 8647 C 819.662 2.71159 -3.60255 0
M  V30 8648 C 818.324 2.66207 -4.00858 0
M  V30 8649 C 820.676 2.54538 -4.54819 0
M  V30 8650 C 818.004 2.4256 -5.34211 0
M  V30 8651 C 820.356 2.32421 -5.88356 0
M  V30 8652 C 819.02 2.25884 -6.28118 0
M  V30 8653 H 818.29 0.576378 -0.465692 0
M  V30 8654 H 820.937 0.9469 -1.66451 0
M  V30 8655 H 819.242 3.55381 -1.64958 0
M  V30 8656 H 820.939 3.45869 -2.02919 0
M  V30 8657 H 817.529 2.75856 -3.28027 0
M  V30 8658 H 821.713 2.57384 -4.24343 0
M  V30 8659 H 816.969 2.35959 -5.64033 0
M  V30 8660 H 821.143 2.18548 -6.61218 0
M  V30 8661 H 818.77 2.07322 -7.31383 0
M  V30 8662 N 820.346 1.18468 1.03938 0
M  V30 8663 C 821.757 0.984808 1.58614 0
M  V30 8664 C 822.108 -0.465165 1.90606 0
M  V30 8665 O 821.233 -1.34274 1.69704 0
M  V30 8666 C 821.828 1.78135 2.8819 0
M  V30 8667 C 820.387 1.62579 3.39478 0
M  V30 8668 C 819.534 1.77501 2.13046 0
M  V30 8669 H 822.485 1.32993 0.865944 0
M  V30 8670 H 822.506 1.27119 3.58638 0
M  V30 8671 H 822.018 2.83661 2.64874 0
M  V30 8672 H 820.119 0.59595 3.67803 0
M  V30 8673 H 820.232 2.42463 4.13217 0
M  V30 8674 H 818.596 1.2046 2.24414 0
M  V30 8675 H 819.379 2.84464 1.92185 0
M  V30 8676 N 821.824 -1.22873 0.986916 0
M  V30 8677 C 822.772 -2.26597 0.525043 0
M  V30 8678 C 823.766 -1.64079 -0.421252 0
M  V30 8679 O 824.972 -1.77576 -0.294429 0
M  V30 8680 H 821.347 -0.736606 0.151381 0
M  V30 8681 H 823.318 -2.62909 1.41142 0
M  V30 8682 C 822.067 -3.47374 -0.150542 0
M  V30 8683 H 821.39 -3.95737 0.568541 0
M  V30 8684 H 822.83 -4.21739 -0.437256 0
M  V30 8685 C 821.289 -3.07163 -1.38392 0
M  V30 8686 O 821.819 -3.16028 -2.47971 0
M  V30 8687 N 820.025 -2.62009 -1.25697 0
M  V30 8688 H 819.572 -2.54996 -0.365355 0
M  V30 8689 H 819.53 -2.35472 -2.08327 0
M  V30 8690 N 823.302 -0.75937 -1.38099 0
M  V30 8691 C 824.212 -0.13774 -2.34195 0
M  V30 8692 C 825.228 0.693985 -1.59561 0
M  V30 8693 O 826.404 0.616792 -1.91723 0
M  V30 8694 C 823.469 0.740535 -3.38699 0
M  V30 8695 C 822.53 -0.106225 -4.29169 0
M  V30 8696 C 821.763 0.730225 -5.28681 0
M  V30 8697 O 821.986 1.96796 -5.35376 0
M  V30 8698 O 820.92 0.145969 -6.01723 0
M  V30 8699 H 824.746 -0.931512 -2.89061 0
M  V30 8700 H 822.331 -0.520345 -1.40046 0
M  V30 8701 H 824.213 1.24232 -4.02672 0
M  V30 8702 H 822.888 1.51271 -2.8618 0
M  V30 8703 H 821.795 -0.654088 -3.68337 0
M  V30 8704 H 823.128 -0.841186 -4.84959 0
M  V30 8705 N 824.78 1.49157 -0.508906 0
M  V30 8706 C 825.727 2.2927 0.265288 0
M  V30 8707 C 826.697 1.3603 0.953162 0
M  V30 8708 O 827.882 1.64989 0.958291 0
M  V30 8709 C 825.022 3.18897 1.31904 0
M  V30 8710 C 824.135 4.27201 0.642144 0
M  V30 8711 C 823.27 5.04033 1.67701 0
M  V30 8712 C 822.309 6.04165 0.982422 0
M  V30 8713 N 821.446 6.74133 1.96186 0
M  V30 8714 H 826.286 2.94967 -0.424107 0
M  V30 8715 H 823.823 1.45431 -0.220991 0
M  V30 8716 H 825.781 3.69242 1.94206 0
M  V30 8717 H 824.411 2.55168 1.97709 0
M  V30 8718 H 823.463 3.80283 -0.0943395 0
M  V30 8719 H 824.775 4.98708 0.0957507 0
M  V30 8720 H 823.929 5.58287 2.37487 0
M  V30 8721 H 822.668 4.32317 2.25728 0
M  V30 8722 H 821.673 5.49135 0.270378 0
M  V30 8723 H 822.898 6.7787 0.408554 0
M  V30 8724 H 820.844 6.05183 2.53159 0
M  V30 8725 H 820.761 7.41643 1.46634 0
M  V30 8726 H 822.029 7.32987 2.65236 0
M  V30 8727 O 826.297 0.384829 1.56848 0
M  V30 8728 H 826.988 -0.161361 1.93027 0
M  V30 END ATOM
M  V30 BEGIN BOND
M  V30 END BOND
M  V30 END CTAB
M  END
$$$$
