drugbank_target|P02792 Ferritin light chain (DB00893; DB02285; DB09147; DB09517; DB13995)
 OpenBabel12092119243D

  0  0  0     0  0            999 V3000
M  V30 BEGIN CTAB
M  V30 COUNTS 2794 2821 0 0 0
M  V30 BEGIN ATOM
M  V30 1 H -0.908 1.98254 -0.117106 0
M  V30 2 N 0 1.576 0 0
M  V30 3 C 0.933 2.03868 1.02534 0
M  V30 4 C 1.911 0.928543 1.3348 0
M  V30 5 O 3.095 1.19667 1.45644 0
M  V30 6 C 0.222 2.43627 2.35294 0
M  V30 7 C -0.732 3.65373 2.2001 0
M  V30 8 S 0.101 5.13292 1.52614 0
M  V30 9 C 1.257 5.56322 2.86805 0
M  V30 10 H 1.49 2.90518 0.631377 0
M  V30 11 H -0.977 1.52953 0.210867 0
M  V30 12 H 0.981 2.67203 3.11629 0
M  V30 13 H -0.358 1.57376 2.7183 0
M  V30 14 H -1.165 3.90944 3.18086 0
M  V30 15 H -1.563 3.418 1.51819 0
M  V30 16 H 0.729 5.58782 3.83104 0
M  V30 17 H 1.672 6.56266 2.65933 0
M  V30 18 H 2.08 4.83886 2.90714 0
M  V30 19 N 1.4781 -0.272755 1.55222 0
M  V30 20 C 2.7031 -1.02683 1.80197 0
M  V30 21 C 3.1281 -1.79142 0.573551 0
M  V30 22 O 2.4861 -1.74917 -0.476849 0
M  V30 23 C 2.5341 -1.9609 3.02624 0
M  V30 24 O 1.6381 -3.04863 2.77727 0
M  V30 25 H 0.9791 -0.293557 0.595584 0
M  V30 26 H 3.5091 -0.30159 2.02365 0
M  V30 27 H 3.5191 -2.38039 3.31363 0
M  V30 28 H 2.1941 -1.39851 3.91682 0
M  V30 29 H 0.7711 -2.67228 2.60084 0
M  V30 30 N 2.9562 -1.48159 -0.537278 0
M  V30 31 C 4.1812 -1.59707 -1.32319 0
M  V30 32 C 4.6062 -0.254859 -1.86365 0
M  V30 33 O 3.9642 0.772378 -1.64024 0
M  V30 34 C 4.0122 -2.6412 -2.45505 0
M  V30 35 O 3.1162 -2.20774 -3.48328 0
M  V30 36 H 2.4572 -0.535791 -0.392204 0
M  V30 37 H 4.9872 -1.94092 -0.647268 0
M  V30 38 H 4.9972 -2.85166 -2.91795 0
M  V30 39 H 3.6722 -3.61567 -2.05528 0
M  V30 40 H 2.2492 -2.09911 -3.08207 0
M  V30 41 N 4.4343 0.785586 -1.36625 0
M  V30 42 C 5.3663 1.90711 -1.2713 0
M  V30 43 C 6.3793 1.61688 -0.189986 0
M  V30 44 O 7.5683 1.72864 -0.445014 0
M  V30 45 C 4.6683 3.25611 -0.939713 0
M  V30 46 C 3.8413 3.82385 -2.12369 0
M  V30 47 C 2.9003 4.95732 -1.76456 0
M  V30 48 O 1.9263 5.12047 -2.48589 0
M  V30 49 N 3.1283 5.76258 -0.700492 0
M  V30 50 H 5.8933 1.99376 -2.23762 0
M  V30 51 H 3.4543 0.964041 -1.30069 0
M  V30 52 H 5.4463 3.98937 -0.680554 0
M  V30 53 H 4.0163 3.12538 -0.0624074 0
M  V30 54 H 3.2363 3.01001 -2.54543 0
M  V30 55 H 4.5243 4.17047 -2.9146 0
M  V30 56 H 3.9223 5.65609 -0.101624 0
M  V30 57 H 2.4793 6.4987 -0.501165 0
M  V30 58 N 5.9124 1.20967 1.01018 0
M  V30 59 C 7.1614 1.01796 1.74128 0
M  V30 60 C 7.4744 -0.449691 1.90361 0
M  V30 61 O 8.6804 -0.76068 2.60626 0
M  V30 62 C 7.1364 1.7727 3.13215 0
M  V30 63 C 6.7444 3.28171 3.04972 0
M  V30 64 C 8.4884 1.66489 3.90489 0
M  V30 65 C 6.3954 3.96156 4.39107 0
M  V30 66 H 5.3254 0.377276 0.652824 0
M  V30 67 H 7.9764 1.44651 1.12909 0
M  V30 68 H 6.3584 1.27205 3.75013 0
M  V30 69 H 7.5324 3.85499 2.52443 0
M  V30 70 H 5.8474 3.39437 2.41188 0
M  V30 71 H 8.4444 2.14617 4.89738 0
M  V30 72 H 8.7874 0.6222 4.11624 0
M  V30 73 H 9.3204 2.14003 3.35332 0
M  V30 74 H 6.0594 5.00604 4.23174 0
M  V30 75 H 5.5794 3.43617 4.91617 0
M  V30 76 H 7.2584 4.00774 5.07926 0
M  V30 77 N 7.3905 -1.2043 1.01659 0
M  V30 78 C 8.8065 -1.41852 0.731442 0
M  V30 79 C 9.0065 -1.89358 -0.688898 0
M  V30 80 O 8.0625 -2.06247 -1.45666 0
M  V30 81 C 9.3755 -2.44019 1.75714 0
M  V30 82 C 10.9235 -2.57785 1.77527 0
M  V30 83 C 11.3985 -3.63194 2.79023 0
M  V30 84 N 12.8895 -3.70678 2.77763 0
M  V30 85 C 13.6245 -4.51897 3.52954 0
M  V30 86 N 13.1205 -5.36921 4.37821 0
M  V30 87 N 14.9135 -4.4643 3.41551 0
M  V30 88 H 7.0645 -0.879093 1.93354 0
M  V30 89 H 9.3275 -0.448425 0.835236 0
M  V30 90 H 9.0335 -2.1611 2.77469 0
M  V30 91 H 8.9075 -3.43007 1.56927 0
M  V30 92 H 11.2945 -2.85023 0.764569 0
M  V30 93 H 11.3755 -1.58992 2.00387 0
M  V30 94 H 11.0195 -3.36699 3.80258 0
M  V30 95 H 10.9495 -4.61609 2.53425 0
M  V30 96 H 13.4405 -3.09944 2.16201 0
M  V30 97 H 13.7535 -5.95981 4.91962 0
M  V30 98 H 12.0985 -5.36424 4.41899 0
M  V30 99 H 15.2895 -3.79042 2.74672 0
M  V30 100 H 15.4625 -5.09491 4.00404 0
M  V30 101 N 8.8686 -0.792821 -1.36206 0
M  V30 102 C 9.8006 -0.151469 -2.28699 0
M  V30 103 C 10.8136 0.641262 -1.49638 0
M  V30 104 O 12.0026 0.475885 -1.72039 0
M  V30 105 C 9.1026 0.808424 -3.29117 0
M  V30 106 C 8.2756 0.0650202 -4.37352 0
M  V30 107 C 7.3346 0.941358 -5.17711 0
M  V30 108 O 6.3606 0.397352 -5.67811 0
M  V30 109 N 7.5626 2.2652 -5.3448 0
M  V30 110 H 10.3276 -0.945982 -2.84379 0
M  V30 111 H 7.8886 -0.647032 -1.48409 0
M  V30 112 H 9.8806 1.3986 -3.79765 0
M  V30 113 H 8.4506 1.5038 -2.74052 0
M  V30 114 H 7.6706 -0.706255 -3.87822 0
M  V30 115 H 8.9586 -0.447847 -5.06825 0
M  V30 116 H 8.3566 2.73128 -4.95396 0
M  V30 117 H 6.9136 2.80493 -5.88359 0
M  V30 118 N 10.3467 1.47872 -0.545128 0
M  V30 119 C 11.2947 2.31533 0.222512 0
M  V30 120 C 12.2887 1.42177 0.920985 0
M  V30 121 O 13.4947 1.59005 0.843645 0
M  V30 122 H 9.8697 0.746519 0.0906278 0
M  V30 123 H 11.8407 2.94139 -0.50246 0
M  V30 124 C 10.5897 3.2457 1.24699 0
M  V30 125 H 9.9127 3.93283 0.718944 0
M  V30 126 H 11.3527 3.85963 1.75523 0
M  V30 127 C 9.8117 2.47237 2.28856 0
M  V30 128 O 10.3417 2.20808 3.35569 0
M  V30 129 N 8.5477 2.08461 2.02466 0
M  V30 130 H 8.0947 2.30155 1.157 0
M  V30 131 H 8.0527 1.57033 2.72375 0
M  V30 132 N 11.8248 0.280983 1.55075 0
M  V30 133 C 13.0548 -0.336804 2.03836 0
M  V30 134 C 13.4628 -1.49577 1.15859 0
M  V30 135 O 12.8058 -1.82888 0.172503 0
M  V30 136 C 12.8678 -0.874616 3.48699 0
M  V30 137 C 12.5318 0.156478 4.56732 0
M  V30 138 C 13.5288 0.978032 5.10618 0
M  V30 139 C 11.2138 0.292409 5.01448 0
M  V30 140 C 13.2078 1.92165 6.07743 0
M  V30 141 C 10.8948 1.23949 5.98398 0
M  V30 142 C 11.8928 2.05261 6.51427 0
M  V30 143 O 11.5808 2.98367 7.4648 0
M  V30 144 H 11.3128 -0.0800885 0.671239 0
M  V30 145 H 13.8668 0.412589 2.01213 0
M  V30 146 H 12.0968 -1.67418 3.4858 0
M  V30 147 H 13.7858 -1.40612 3.80766 0
M  V30 148 H 14.5518 0.883782 4.7688 0
M  V30 149 H 10.4308 -0.330498 4.59814 0
M  V30 150 H 13.9748 2.55672 6.49059 0
M  V30 151 H 9.8718 1.33454 6.31554 0
M  V30 152 H 10.6398 2.93116 7.64215 0
M  V30 153 N 13.3029 -1.57598 0.00835791 0
M  V30 154 C 14.5279 -1.95617 -0.689103 0
M  V30 155 C 14.9529 -0.883753 -1.66046 0
M  V30 156 O 14.3109 0.157352 -1.80616 0
M  V30 157 C 14.3589 -3.32736 -1.38994 0
M  V30 158 O 13.4629 -3.27631 -2.50463 0
M  V30 159 H 12.8039 -0.638379 -0.182668 0
M  V30 160 H 15.3339 -2.045 0.064036 0
M  V30 161 H 15.3439 -3.68494 -1.75147 0
M  V30 162 H 14.0189 -4.1034 -0.677778 0
M  V30 163 H 12.5959 -3.03561 -2.16576 0
M  V30 164 N 14.781 0.264519 -1.55364 0
M  V30 165 C 16.009 1.013 -1.80405 0
M  V30 166 C 16.424 1.79618 -0.581622 0
M  V30 167 O 15.781 1.76879 0.449468 0
M  V30 168 C 15.832 1.96487 -3.03439 0
M  V30 169 O 15.553 1.21341 -4.20961 0
M  V30 170 C 17.054 2.83079 -3.41147 0
M  V30 171 H 14.274 0.298875 -0.600762 0
M  V30 172 H 16.818 0.292736 -2.02394 0
M  V30 173 H 14.973 2.63965 -2.83551 0
M  V30 174 H 15.387 1.85573 -4.90574 0
M  V30 175 H 16.861 3.4565 -4.30384 0
M  V30 176 H 17.338 3.53286 -2.60932 0
M  V30 177 H 17.944 2.2108 -3.63323 0
M  V30 178 N 16.2591 1.48442 0.529413 0
M  V30 179 C 17.5361 1.46978 1.29062 0
M  V30 180 C 17.9161 0.181769 2.10316 0
M  V30 181 O 17.2641 -0.836481 2.12639 0
M  V30 182 C 17.4741 2.7321 2.17157 0
M  V30 183 C 18.8221 3.21562 2.77278 0
M  V30 184 O 19.8461 2.74131 2.27444 0
M  V30 185 O 18.7051 4.04094 3.67927 0
M  V30 186 H 15.7991 0.587003 0.582543 0
M  V30 187 H 18.3451 1.60676 0.546021 0
M  V30 188 H 17.1171 3.58465 1.56903 0
M  V30 189 H 16.7401 2.62235 2.98862 0
M  V30 190 N 17.7372 -0.778329 1.37039 0
M  V30 191 C 18.9832 -1.53892 1.32079 0
M  V30 192 C 19.3162 -1.9396 -0.0965386 0
M  V30 193 O 18.5912 -1.63568 -1.05242 0
M  V30 194 C 18.8742 -2.80847 2.25382 0
M  V30 195 C 18.7272 -2.47076 3.75864 0
M  V30 196 C 20.0462 -3.82741 2.1725 0
M  V30 197 H 17.1652 -0.558303 0.48111 0
M  V30 198 H 19.8072 -0.893397 1.67685 0
M  V30 199 H 17.9572 -3.35931 1.95148 0
M  V30 200 H 19.6292 -1.97957 4.16666 0
M  V30 201 H 17.8722 -1.79863 3.94755 0
M  V30 202 H 18.5432 -3.37798 4.36574 0
M  V30 203 H 21.0192 -3.37133 2.43887 0
M  V30 204 H 19.8952 -4.69303 2.84686 0
M  V30 205 H 20.1562 -4.2652 1.16331 0
M  V30 206 N 19.2153 -1.21501 -1.00376 0
M  V30 207 C 20.1253 -0.991447 -2.12621 0
M  V30 208 C 21.1413 0.0568446 -1.73907 0
M  V30 209 O 22.3173 -0.13348 -2.00957 0
M  V30 210 C 19.3823 -0.560312 -3.42142 0
M  V30 211 C 18.4433 -1.68096 -3.95022 0
M  V30 212 C 17.6763 -1.2703 -5.18362 0
M  V30 213 O 17.8993 -0.144438 -5.70217 0
M  V30 214 O 16.8333 -2.08269 -5.64719 0
M  V30 215 H 20.6593 -1.93158 -2.34358 0
M  V30 216 H 18.2443 -0.999999 -1.10997 0
M  V30 217 H 20.1263 -0.329724 -4.20108 0
M  V30 218 H 18.8013 0.351089 -3.2179 0
M  V30 219 H 17.7083 -1.96597 -3.18278 0
M  V30 220 H 19.0413 -2.56983 -4.19786 0
M  V30 221 N 20.6934 1.19889 -1.02296 0
M  V30 222 C 21.6564 2.21116 -0.603351 0
M  V30 223 C 22.6564 1.5738 0.329884 0
M  V30 224 O 23.8464 1.73802 0.117702 0
M  V30 225 C 20.9784 3.40696 0.117992 0
M  V30 226 H 22.1714 2.59754 -1.49893 0
M  V30 227 H 19.7244 1.33463 -0.813468 0
M  V30 228 H 20.4594 3.07569 1.0282 0
M  V30 229 H 20.2444 3.88188 -0.552511 0
M  V30 230 H 21.7344 4.15692 0.398696 0
M  V30 231 N 22.1715 0.800033 1.35784 0
M  V30 232 C 23.1345 0.211565 2.28221 0
M  V30 233 C 24.1345 -0.59728 1.49296 0
M  V30 234 O 25.3245 -0.416721 1.69142 0
M  V30 235 C 22.4565 -0.705846 3.33513 0
M  V30 236 H 23.6495 1.02677 2.81776 0
M  V30 237 H 21.2025 0.570211 1.45528 0
M  V30 238 H 21.9375 -1.54498 2.85133 0
M  V30 239 H 21.7225 -0.127655 3.91892 0
M  V30 240 H 23.2125 -1.11211 4.02519 0
M  V30 241 N 23.6496 -1.47581 0.552962 0
M  V30 242 C 24.8956 -2.02782 0.0273648 0
M  V30 243 C 25.2286 -1.42687 -1.31734 0
M  V30 244 O 24.5036 -0.580897 -1.85623 0
M  V30 245 C 24.7866 -3.60031 -0.0702371 0
M  V30 246 C 24.6396 -4.30566 1.30126 0
M  V30 247 C 25.9586 -4.33028 -0.785771 0
M  V30 248 H 23.0776 -0.736912 0.0114185 0
M  V30 249 H 25.7196 -1.76056 0.714432 0
M  V30 250 H 23.8696 -3.82932 -0.655382 0
M  V30 251 H 25.5416 -4.19018 1.92929 0
M  V30 252 H 23.7846 -3.91086 1.87709 0
M  V30 253 H 24.4556 -5.39114 1.18573 0
M  V30 254 H 26.9316 -4.15095 -0.288982 0
M  V30 255 H 25.8076 -5.42695 -0.823013 0
M  V30 256 H 26.0686 -4.01945 -1.841 0
M  V30 257 N 25.1277 -0.289203 -1.54924 0
M  V30 258 C 26.0757 0.607966 -2.24514 0
M  V30 259 C 27.0697 1.14655 -1.24702 0
M  V30 260 O 28.2757 1.09856 -1.4259 0
M  V30 261 H 24.6507 0.21464 -0.720718 0
M  V30 262 H 26.6217 -0.00164182 -2.984 0
M  V30 263 C 25.3707 1.77406 -2.99036 0
M  V30 264 H 24.6937 1.36884 -3.75637 0
M  V30 265 H 26.1337 2.37814 -3.51028 0
M  V30 266 C 24.5927 2.67107 -2.05318 0
M  V30 267 O 25.1227 3.6787 -1.61353 0
M  V30 268 N 23.3287 2.34582 -1.71521 0
M  V30 269 H 22.8757 1.52688 -2.07471 0
M  V30 270 H 22.8337 2.94867 -1.0909 0
M  V30 271 N 26.6058 1.57591 -0.0167156 0
M  V30 272 C 27.8308 1.9598 0.67872 0
M  V30 273 C 28.2558 0.892546 1.65575 0
M  V30 274 O 27.6138 -0.147772 1.80697 0
M  V30 275 C 27.6618 3.33468 1.37227 0
M  V30 276 O 26.7658 3.28954 2.48722 0
M  V30 277 H 26.1068 0.639339 0.17928 0
M  V30 278 H 28.6368 2.04463 -0.0748802 0
M  V30 279 H 28.6468 3.69417 1.7319 0
M  V30 280 H 27.3218 4.10694 0.656007 0
M  V30 281 H 25.8988 3.04705 2.14963 0
M  V30 282 N 28.0839 -0.256276 1.55502 0
M  V30 283 C 29.0139 -1.32102 1.92539 0
M  V30 284 C 29.9949 -1.50684 0.789194 0
M  V30 285 O 31.1799 -1.63449 1.04872 0
M  V30 286 C 28.3099 -2.67752 2.21192 0
M  V30 287 C 27.2639 -2.63878 3.36975 0
M  V30 288 C 26.5899 -4.03236 3.51147 0
M  V30 289 C 27.8899 -2.21682 4.72921 0
M  V30 290 H 29.5839 -1.01351 2.81724 0
M  V30 291 H 27.1299 -0.486105 1.35547 0
M  V30 292 H 29.0829 -3.42365 2.45691 0
M  V30 293 H 27.8069 -3.0012 1.28824 0
M  V30 294 H 26.4659 -1.91722 3.12471 0
M  V30 295 H 26.1139 -4.32854 2.56216 0
M  V30 296 H 25.8139 -4.01535 4.29003 0
M  V30 297 H 27.3379 -4.79563 3.77957 0
M  V30 298 H 28.7519 -2.86023 4.96854 0
M  V30 299 H 27.1489 -2.3111 5.53812 0
M  V30 300 H 28.2189 -1.16833 4.70615 0
M  V30 301 N 29.562 -1.4872 -0.521534 0
M  V30 302 C 30.808 -1.574 -1.27879 0
M  V30 303 C 31.141 -0.250817 -1.92573 0
M  V30 304 O 30.416 0.743934 -1.79711 0
M  V30 305 C 30.699 -2.71843 -2.36164 0
M  V30 306 C 30.552 -4.13893 -1.76105 0
M  V30 307 C 31.871 -2.82008 -3.37875 0
M  V30 308 H 28.99 -0.572941 -0.463581 0
M  V30 309 H 31.632 -1.80927 -0.580119 0
M  V30 310 H 29.782 -2.51914 -2.95756 0
M  V30 311 H 31.454 -4.45284 -1.20499 0
M  V30 312 H 29.697 -4.20498 -1.06601 0
M  V30 313 H 30.368 -4.89804 -2.5455 0
M  V30 314 H 32.844 -3.00086 -2.88249 0
M  V30 315 H 31.72 -3.63796 -4.11028 0
M  V30 316 H 31.981 -1.90511 -3.98946 0
M  V30 317 N 31.0401 0.771051 -1.3745 0
M  V30 318 C 31.9881 1.90574 -1.33358 0
M  V30 319 C 32.9821 1.67936 -0.22224 0
M  V30 320 O 34.1881 1.75717 -0.390304 0
M  V30 321 H 30.5631 0.626714 -0.415612 0
M  V30 322 H 32.5341 1.91142 -2.29144 0
M  V30 323 C 31.2831 3.27845 -1.15813 0
M  V30 324 H 30.6061 3.45842 -2.00583 0
M  V30 325 H 32.0461 4.07538 -1.17 0
M  V30 326 C 30.5051 3.36625 0.136165 0
M  V30 327 O 31.0351 3.85785 1.11949 0
M  V30 328 N 29.2411 2.89997 0.187099 0
M  V30 329 H 28.7881 2.50182 -0.613753 0
M  V30 330 H 28.7461 2.96252 1.05272 0
M  V30 331 N 32.5182 1.22032 0.997298 0
M  V30 332 C 33.4482 1.01065 2.10495 0
M  V30 333 C 34.4292 -0.0669542 1.69968 0
M  V30 334 O 35.6142 0.0943987 1.9397 0
M  V30 335 C 32.7442 0.582874 3.42374 0
M  V30 336 C 31.6982 1.60592 3.96729 0
M  V30 337 C 31.0242 1.03412 5.24605 0
M  V30 338 C 32.3242 2.99478 4.27914 0
M  V30 339 H 34.0182 1.93708 2.28292 0
M  V30 340 H 31.5642 0.932761 1.09707 0
M  V30 341 H 33.5172 0.423332 4.19268 0
M  V30 342 H 32.2412 -0.379213 3.24391 0
M  V30 343 H 30.9002 1.75316 3.21963 0
M  V30 344 H 30.5482 0.063518 5.0296 0
M  V30 345 H 30.2482 1.71754 5.61938 0
M  V30 346 H 31.7722 0.886066 6.04137 0
M  V30 347 H 33.1862 2.88153 4.95622 0
M  V30 348 H 31.5832 3.64903 4.76409 0
M  V30 349 H 32.6532 3.49742 3.3587 0
M  V30 350 N 33.9963 -1.19345 1.0293 0
M  V30 351 C 35.2263 -1.92717 0.744563 0
M  V30 352 C 35.6343 -1.75751 -0.700579 0
M  V30 353 O 34.9773 -1.07703 -1.48815 0
M  V30 354 C 35.0393 -3.44828 1.01657 0
M  V30 355 C 34.7033 -3.85564 2.45335 0
M  V30 356 C 35.7003 -3.90286 3.43472 0
M  V30 357 C 33.3853 -4.1719 2.79746 0
M  V30 358 C 35.3793 -4.26065 4.74075 0
M  V30 359 C 33.0663 -4.52642 4.10559 0
M  V30 360 C 34.0643 -4.57054 5.07534 0
M  V30 361 O 33.7523 -4.91685 6.36004 0
M  V30 362 H 33.4843 -0.618977 0.271742 0
M  V30 363 H 36.0383 -1.52415 1.37691 0
M  V30 364 H 34.2683 -3.85314 0.327084 0
M  V30 365 H 35.9573 -3.99437 0.721427 0
M  V30 366 H 36.7233 -3.66002 3.18225 0
M  V30 367 H 32.6023 -4.1294 2.04943 0
M  V30 368 H 36.1463 -4.29423 5.49765 0
M  V30 369 H 32.0433 -4.76383 4.35579 0
M  V30 370 H 32.8113 -5.09631 6.40483 0
M  V30 371 N 35.4744 -0.807222 -1.35358 0
M  V30 372 C 36.4044 -0.232509 -2.3234 0
M  V30 373 C 37.3854 0.642386 -1.57504 0
M  V30 374 O 38.5704 0.572526 -1.85569 0
M  V30 375 C 35.7004 0.619238 -3.41735 0
M  V30 376 C 34.6544 -0.157215 -4.27711 0
M  V30 377 C 33.9804 0.816273 -5.28433 0
M  V30 378 C 35.2804 -1.35656 -5.04376 0
M  V30 379 H 36.9744 -1.04276 -2.80654 0
M  V30 380 H 34.5204 -0.50288 -1.34934 0
M  V30 381 H 36.4734 1.03137 -4.08584 0
M  V30 382 H 35.1974 1.46239 -2.92031 0
M  V30 383 H 33.8564 -0.550525 -3.62443 0
M  V30 384 H 33.5044 1.65494 -4.74996 0
M  V30 385 H 33.2044 0.301067 -5.86828 0
M  V30 386 H 34.7284 1.22659 -5.98153 0
M  V30 387 H 36.1424 -1.01927 -5.64166 0
M  V30 388 H 34.5394 -1.8063 -5.7227 0
M  V30 389 H 35.6094 -2.14288 -4.34981 0
M  V30 390 N 36.9525 1.47285 -0.560781 0
M  V30 391 C 37.8845 2.28118 0.222438 0
M  V30 392 C 38.8975 1.37219 0.876056 0
M  V30 393 O 40.0865 1.62011 0.749307 0
M  V30 394 C 37.1865 3.1159 1.33285 0
M  V30 395 C 36.3595 4.30473 0.77534 0
M  V30 396 C 35.4185 4.95513 1.77069 0
M  V30 397 O 34.4445 5.53792 1.31539 0
M  V30 398 N 35.6465 4.90531 3.10418 0
M  V30 399 H 38.4115 2.95976 -0.470958 0
M  V30 400 H 35.9725 1.56955 -0.39709 0
M  V30 401 H 37.9645 3.51967 1.99752 0
M  V30 402 H 36.5345 2.45951 1.92943 0
M  V30 403 H 35.7545 3.94144 -0.0662113 0
M  V30 404 H 37.0425 5.07362 0.382272 0
M  V30 405 H 36.4405 4.44389 3.5005 0
M  V30 406 H 34.9975 5.34917 3.72434 0
M  V30 407 N 38.4306 0.297415 1.54768 0
M  V30 408 C 39.3936 -0.567375 2.22066 0
M  V30 409 C 40.3936 -1.06409 1.20556 0
M  V30 410 O 41.5836 -0.960691 1.45315 0
M  V30 411 C 38.7156 -1.78517 2.90421 0
M  V30 412 H 39.9086 0.0205534 2.99893 0
M  V30 413 H 37.4616 0.0482163 1.56226 0
M  V30 414 H 38.1966 -2.41303 2.16664 0
M  V30 415 H 37.9816 -1.43669 3.64831 0
M  V30 416 H 39.4716 -2.39964 3.41771 0
M  V30 417 N 39.9087 -1.5758 0.0250728 0
M  V30 418 C 41.1337 -1.96337 -0.668317 0
M  V30 419 C 41.5587 -0.901314 -1.651 0
M  V30 420 O 40.9167 0.138187 -1.80773 0
M  V30 421 C 40.9647 -3.34191 -1.35457 0
M  V30 422 O 40.0687 -3.30269 -2.46974 0
M  V30 423 H 39.4097 -0.640281 -0.175887 0
M  V30 424 H 41.9397 -2.0442 0.0857224 0
M  V30 425 H 41.9497 -3.70331 -1.71228 0
M  V30 426 H 40.6247 -4.11036 -0.634218 0
M  V30 427 H 39.2017 -3.05841 -2.13344 0
M  V30 428 N 41.3868 0.248026 -1.55636 0
M  V30 429 C 42.6168 0.992367 -1.81206 0
M  V30 430 C 43.0248 1.7949 -0.598324 0
M  V30 431 O 42.3678 1.78292 0.442434 0
M  V30 432 C 42.4298 1.97926 -3.00109 0
M  V30 433 C 42.0938 1.36377 -4.36177 0
M  V30 434 C 43.0908 0.76682 -5.14214 0
M  V30 435 C 40.7758 1.38347 -4.82872 0
M  V30 436 C 42.7698 0.197778 -6.37093 0
M  V30 437 C 40.4568 0.810574 -6.057 0
M  V30 438 C 41.4548 0.218754 -6.8265 0
M  V30 439 O 41.1428 -0.345298 -8.03158 0
M  V30 440 H 40.8748 0.297704 -0.606917 0
M  V30 441 H 43.4288 0.276517 -2.0353 0
M  V30 442 H 41.6588 2.73339 -2.73538 0
M  V30 443 H 43.3478 2.58694 -3.12781 0
M  V30 444 H 44.1138 0.744114 -4.79258 0
M  V30 445 H 39.9928 1.8335 -4.2297 0
M  V30 446 H 43.5368 -0.264788 -6.97097 0
M  V30 447 H 39.4338 0.830604 -6.40134 0
M  V30 448 H 40.2018 -0.237055 -8.18157 0
M  V30 449 N 42.8649 1.48995 0.513639 0
M  V30 450 C 44.0929 1.61531 1.29288 0
M  V30 451 C 44.5079 0.281801 1.86685 0
M  V30 452 O 43.8649 -0.731111 1.67215 0
M  V30 453 C 43.9159 2.67449 2.43215 0
M  V30 454 O 43.6369 3.95626 1.88179 0
M  V30 455 C 45.1379 2.90575 3.34785 0
M  V30 456 H 42.3579 0.544165 0.392588 0
M  V30 457 H 44.9019 1.9494 0.617956 0
M  V30 458 H 43.0569 2.36853 3.0656 0
M  V30 459 H 43.4709 4.53868 2.62876 0
M  V30 460 H 44.9449 3.68449 4.11035 0
M  V30 461 H 45.4219 2.00011 3.91015 0
M  V30 462 H 46.0279 3.22538 2.77218 0
M  V30 463 N 44.343 -0.763751 1.37857 0
M  V30 464 C 45.573 -1.55067 1.3652 0
M  V30 465 C 45.981 -1.89135 -0.0494227 0
M  V30 466 O 45.324 -1.52529 -1.02375 0
M  V30 467 C 45.386 -2.8838 2.14656 0
M  V30 468 C 45.05 -2.76905 3.63555 0
M  V30 469 C 46.047 -2.4739 4.57268 0
M  V30 470 C 43.732 -2.94676 4.06781 0
M  V30 471 C 45.726 -2.35786 5.92186 0
M  V30 472 C 43.413 -2.82692 5.41782 0
M  V30 473 C 44.411 -2.53289 6.34298 0
M  V30 474 O 44.099 -2.41345 7.66817 0
M  V30 475 H 43.831 -0.486776 0.469069 0
M  V30 476 H 46.385 -0.953812 1.81911 0
M  V30 477 H 44.615 -3.50217 1.63967 0
M  V30 478 H 46.304 -3.49828 2.05852 0
M  V30 479 H 47.07 -2.33339 4.2518 0
M  V30 480 H 42.949 -3.16563 3.35126 0
M  V30 481 H 46.493 -2.12757 6.64365 0
M  V30 482 H 42.39 -2.96314 5.7347 0
M  V30 483 H 43.158 -2.56634 7.77226 0
M  V30 484 N 45.8211 -1.22559 -0.990812 0
M  V30 485 C 46.7511 -1.0218 -2.09956 0
M  V30 486 C 47.7321 0.0579394 -1.70001 0
M  V30 487 O 48.9171 -0.104684 -1.93918 0
M  V30 488 C 46.0471 -0.601023 -3.4206 0
M  V30 489 C 45.0011 -1.62694 -3.95872 0
M  V30 490 C 44.3271 -1.06193 -5.24049 0
M  V30 491 C 45.6271 -3.01743 -4.2632 0
M  V30 492 H 47.3211 -1.94916 -2.27262 0
M  V30 493 H 44.8671 -0.938566 -1.09211 0
M  V30 494 H 46.8201 -0.445561 -4.19038 0
M  V30 495 H 45.5441 0.362005 -3.24588 0
M  V30 496 H 44.2031 -1.77021 -3.21028 0
M  V30 497 H 43.8511 -0.0901903 -5.02919 0
M  V30 498 H 43.5511 -1.74732 -5.61019 0
M  V30 499 H 45.0751 -0.918092 -6.03658 0
M  V30 500 H 46.4891 -2.90777 -4.94087 0
M  V30 501 H 44.8861 -3.67425 -4.74467 0
M  V30 502 H 45.9561 -3.51518 -3.34011 0
M  V30 503 N 47.2992 1.18797 -1.03562 0
M  V30 504 C 48.5242 1.9314 -0.755764 0
M  V30 505 C 48.9492 1.7537 0.68022 0
M  V30 506 O 48.3072 1.06046 1.47051 0
M  V30 507 C 48.3552 3.42747 -1.12058 0
M  V30 508 O 47.4592 4.11683 -0.243124 0
M  V30 509 H 46.8002 0.602724 -0.278604 0
M  V30 510 H 49.3302 1.50678 -1.3841 0
M  V30 511 H 49.3402 3.93437 -1.08035 0
M  V30 512 H 48.0152 3.55002 -2.16672 0
M  V30 513 H 46.5922 3.71323 -0.342539 0
M  V30 514 N 48.7773 0.814389 1.34928 0
M  V30 515 C 49.7073 0.244827 2.32213 0
M  V30 516 C 50.6883 -0.634024 1.57842 0
M  V30 517 O 51.8733 -0.562676 1.8587 0
M  V30 518 C 49.0033 -0.601106 3.42058 0
M  V30 519 C 47.9573 0.179896 4.27622 0
M  V30 520 C 47.2833 -0.788237 5.28858 0
M  V30 521 C 48.5833 1.38329 5.03649 0
M  V30 522 H 50.2773 1.05763 2.80097 0
M  V30 523 H 47.8233 0.510029 1.34665 0
M  V30 524 H 49.7763 -1.00968 4.09125 0
M  V30 525 H 48.5003 -1.44688 2.92802 0
M  V30 526 H 47.1593 0.569739 3.62146 0
M  V30 527 H 46.8073 -1.62973 4.75866 0
M  V30 528 H 46.5073 -0.269942 5.8698 0
M  V30 529 H 48.0313 -1.19485 5.98795 0
M  V30 530 H 49.4453 1.04918 5.63618 0
M  V30 531 H 47.8423 1.83662 5.71304 0
M  V30 532 H 48.9123 2.16592 4.33839 0
M  V30 533 N 50.2554 -1.46986 0.568584 0
M  V30 534 C 51.5034 -2.02041 0.0487022 0
M  V30 535 C 51.8244 -1.44408 -1.31039 0
M  V30 536 O 51.0944 -0.623477 -1.85714 0
M  V30 537 H 49.6744 -0.746849 0.015014 0
M  V30 538 H 52.3364 -1.80257 0.741168 0
M  V30 539 H 51.4324 -3.12085 -0.0308961 0
M  V30 540 N 51.7335 -0.305618 -1.54608 0
M  V30 541 C 52.9805 0.302298 -2.00231 0
M  V30 542 C 53.3085 1.5354 -1.19398 0
M  V30 543 O 52.5635 1.93973 -0.259423 0
M  V30 544 C 52.8625 0.698983 -3.50498 0
M  V30 545 C 52.5285 -0.432903 -4.48817 0
M  V30 546 C 51.1905 -0.743622 -4.75419 0
M  V30 547 C 53.5425 -1.19409 -5.07337 0
M  V30 548 C 50.8705 -1.81857 -5.57804 0
M  V30 549 C 53.2225 -2.25899 -5.90891 0
M  V30 550 C 51.8865 -2.57572 -6.15803 0
M  V30 551 H 51.1565 0.110619 -0.732697 0
M  V30 552 H 53.8035 -0.425674 -1.86709 0
M  V30 553 H 52.1085 1.50711 -3.61654 0
M  V30 554 H 53.8055 1.1806 -3.83227 0
M  V30 555 H 50.3955 -0.18063 -4.28219 0
M  V30 556 H 54.5795 -0.967295 -4.86782 0
M  V30 557 H 49.8355 -2.06864 -5.75341 0
M  V30 558 H 54.0095 -2.85335 -6.35261 0
M  V30 559 H 51.6365 -3.40998 -6.7943 0
M  V30 560 N 53.2116 1.57565 -0.0334293 0
M  V30 561 C 54.4416 1.95996 0.653398 0
M  V30 562 C 54.8496 0.908749 1.65947 0
M  V30 563 O 54.1926 -0.117471 1.83324 0
M  V30 564 C 54.2546 3.30589 1.41249 0
M  V30 565 C 53.9186 4.53503 0.564263 0
M  V30 566 C 54.9156 5.19647 -0.16225 0
M  V30 567 C 52.6006 4.99801 0.500398 0
M  V30 568 C 54.5946 6.30412 -0.941255 0
M  V30 569 C 52.2816 6.10448 -0.282308 0
M  V30 570 C 53.2796 6.75612 -1.00184 0
M  V30 571 O 52.9676 7.84134 -1.77171 0
M  V30 572 H 52.6996 0.65027 0.184728 0
M  V30 573 H 55.2536 2.05199 -0.0907841 0
M  V30 574 H 53.4836 3.17888 2.20191 0
M  V30 575 H 55.1726 3.53892 1.98784 0
M  V30 576 H 55.9386 4.84846 -0.12227 0
M  V30 577 H 51.8176 4.48883 1.05002 0
M  V30 578 H 55.3616 6.81208 -1.50339 0
M  V30 579 H 51.2586 6.44686 -0.323989 0
M  V30 580 H 52.0266 8.00822 -1.69194 0
M  V30 581 N 54.6897 -0.239769 1.55765 0
M  V30 582 C 55.9367 -0.966801 1.7793 0
M  V30 583 C 56.2647 -1.85046 0.599015 0
M  V30 584 O 55.5197 -1.91197 -0.417395 0
M  V30 585 C 55.8187 -1.852 3.05672 0
M  V30 586 C 55.4847 -1.1231 4.36689 0
M  V30 587 C 54.1467 -0.921689 4.72291 0
M  V30 588 C 56.4987 -0.607019 5.17653 0
M  V30 589 C 53.8267 -0.191996 5.86386 0
M  V30 590 C 56.1787 0.109241 6.32506 0
M  V30 591 C 54.8427 0.322073 6.66723 0
M  V30 592 H 54.1127 -0.353778 0.651093 0
M  V30 593 H 56.7597 -0.23634 1.90036 0
M  V30 594 H 55.0647 -2.64975 2.8861 0
M  V30 595 H 56.7617 -2.41635 3.20021 0
M  V30 596 H 53.3517 -1.29004 4.08725 0
M  V30 597 H 57.5357 -0.750153 4.90598 0
M  V30 598 H 52.7917 -0.0166949 6.11398 0
M  V30 599 H 56.9657 0.516737 6.9448 0
M  V30 600 H 54.5927 0.88944 7.54979 0
M  V30 601 N 56.1678 -1.49265 -0.50573 0
M  V30 602 C 57.4448 -1.49012 -1.26707 0
M  V30 603 C 57.8248 -0.215205 -2.1 0
M  V30 604 O 57.1728 0.802547 -2.13943 0
M  V30 605 C 57.3828 -2.7663 -2.12783 0
M  V30 606 C 58.7308 -3.25932 -2.72127 0
M  V30 607 O 59.7548 -2.77715 -2.23054 0
M  V30 608 O 58.6138 -4.09897 -3.61451 0
M  V30 609 H 55.7078 -0.596197 -0.57313 0
M  V30 610 H 58.2538 -1.61524 -0.52039 0
M  V30 611 H 57.0258 -3.60916 -1.5118 0
M  V30 612 H 56.6488 -2.66956 -2.94653 0
M  V30 613 N 57.6459 0.756429 -1.3826 0
M  V30 614 C 59.0619 1.0591 -1.19395 0
M  V30 615 C 59.2619 2.01459 -0.0406567 0
M  V30 616 O 58.3179 2.44909 0.614467 0
M  V30 617 C 59.6309 1.64191 -2.51916 0
M  V30 618 C 61.1789 1.76376 -2.58574 0
M  V30 619 C 61.6539 2.38069 -3.91264 0
M  V30 620 N 63.1449 2.45503 -3.92788 0
M  V30 621 C 63.8799 2.94126 -4.92217 0
M  V30 622 N 63.3759 3.42805 -6.02043 0
M  V30 623 N 65.1689 2.9314 -4.7961 0
M  V30 624 H 57.3199 0.122313 -2.12048 0
M  V30 625 H 59.5829 0.116892 -0.940766 0
M  V30 626 H 59.2889 1.01451 -3.3675 0
M  V30 627 H 59.1629 2.6329 -2.70108 0
M  V30 628 H 61.5499 2.38244 -1.74137 0
M  V30 629 H 61.6309 0.759894 -2.44252 0
M  V30 630 H 61.2749 1.76835 -4.76121 0
M  V30 631 H 61.2049 3.39091 -4.02895 0
M  V30 632 H 63.6959 2.1107 -3.13461 0
M  V30 633 H 64.0089 3.78354 -6.73846 0
M  V30 634 H 62.3539 3.4087 -6.05667 0
M  V30 635 H 65.5449 2.54419 -3.92923 0
M  V30 636 H 65.7179 3.30721 -5.5725 0
M  V30 637 N 59.124 1.23083 0.984299 0
M  V30 638 C 60.401 0.9689 1.69917 0
M  V30 639 C 60.781 -0.513604 2.04757 0
M  V30 640 O 60.129 -1.48383 1.73767 0
M  V30 641 C 60.339 1.87518 2.94343 0
M  V30 642 C 61.687 2.13636 3.6694 0
M  V30 643 O 62.711 1.85036 3.04368 0
M  V30 644 O 61.57 2.62119 4.79537 0
M  V30 645 H 58.664 0.365095 0.742048 0
M  V30 646 H 61.21 1.34107 1.03987 0
M  V30 647 H 59.982 2.87756 2.65164 0
M  V30 648 H 59.605 1.50514 3.6801 0
M  V30 649 N 60.6021 -1.18246 1.0419 0
M  V30 650 C 61.8791 -1.84121 0.660208 0
M  V30 651 C 62.2591 -1.92778 -0.860221 0
M  V30 652 O 61.6071 -1.45464 -1.76217 0
M  V30 653 C 61.8171 -3.22355 1.33747 0
M  V30 654 C 63.1651 -3.98376 1.46906 0
M  V30 655 O 64.1891 -3.31799 1.29568 0
M  V30 656 O 63.0481 -5.17665 1.75171 0
M  V30 657 H 60.1421 -0.794036 0.231161 0
M  V30 658 H 62.6881 -1.25628 1.14087 0
M  V30 659 H 61.4601 -3.10964 2.37522 0
M  V30 660 H 61.0831 -3.88506 0.845515 0
M  V30 661 N 62.0802 -0.821533 -1.34494 0
M  V30 662 C 63.3262 -0.409552 -1.98622 0
M  V30 663 C 63.6592 1.0244 -1.64984 0
M  V30 664 O 62.9342 1.71325 -0.920758 0
M  V30 665 C 63.2172 -0.610458 -3.54888 0
M  V30 666 C 63.0702 -2.09043 -3.98273 0
M  V30 667 C 64.3892 -0.0455379 -4.40076 0
M  V30 668 H 61.5082 -0.15028 -0.721516 0
M  V30 669 H 64.1502 -1.03384 -1.59411 0
M  V30 670 H 62.3002 -0.079044 -3.8842 0
M  V30 671 H 63.9722 -2.68537 -3.75081 0
M  V30 672 H 62.2152 -2.58139 -3.48635 0
M  V30 673 H 62.8862 -2.18182 -5.07051 0
M  V30 674 H 65.3622 -0.499557 -4.1309 0
M  V30 675 H 64.2382 -0.215922 -5.48475 0
M  V30 676 H 64.4992 1.04939 -4.29465 0
M  V30 677 N 63.5583 1.46682 -0.576371 0
M  V30 678 C 64.5213 2.28707 0.150239 0
M  V30 679 C 65.5213 1.38035 0.824794 0
M  V30 680 O 66.7113 1.60476 0.677719 0
M  V30 681 C 63.8433 3.18248 1.22192 0
M  V30 682 H 65.0363 2.94423 -0.570521 0
M  V30 683 H 62.5893 1.52688 -0.334078 0
M  V30 684 H 63.3243 2.57265 1.97447 0
M  V30 685 H 63.1093 3.85 0.742812 0
M  V30 686 H 64.5993 3.80001 1.73172 0
M  V30 687 N 65.0364 0.313813 1.54444 0
M  V30 688 C 65.9664 -0.549454 2.26943 0
M  V30 689 C 66.9474 -1.12741 1.27372 0
M  V30 690 O 68.1324 -1.15436 1.56167 0
M  V30 691 C 65.2624 -1.71523 3.01989 0
M  V30 692 C 64.2164 -1.26703 4.08816 0
M  V30 693 C 63.5424 -2.51898 4.71647 0
M  V30 694 C 64.8424 -0.388962 5.2085 0
M  V30 695 H 66.5364 0.0552661 2.99349 0
M  V30 696 H 64.0824 0.0280207 1.43973 0
M  V30 697 H 66.0354 -2.32535 3.51433 0
M  V30 698 H 64.7594 -2.34639 2.27183 0
M  V30 699 H 63.4184 -0.679896 3.6024 0
M  V30 700 H 63.0664 -3.13356 3.93468 0
M  V30 701 H 62.7664 -2.22605 5.43802 0
M  V30 702 H 64.2904 -3.1369 5.23861 0
M  V30 703 H 65.7044 -0.905107 5.6611 0
M  V30 704 H 64.1014 -0.18924 5.99802 0
M  V30 705 H 65.1714 0.582699 4.81386 0
M  V30 706 N 66.5145 -1.57545 0.0417849 0
M  V30 707 C 67.4245 -2.14451 -0.951213 0
M  V30 708 C 68.4405 -1.09992 -1.34825 0
M  V30 709 O 69.6165 -1.42114 -1.42708 0
M  V30 710 C 66.6815 -2.67063 -2.21084 0
M  V30 711 C 65.7425 -3.86284 -1.87304 0
M  V30 712 C 64.9755 -4.36378 -3.07261 0
M  V30 713 O 65.1985 -3.85587 -4.20332 0
M  V30 714 O 64.1325 -5.28077 -2.88822 0
M  V30 715 H 67.9585 -2.99601 -0.497287 0
M  V30 716 H 65.5435 -1.48317 -0.179567 0
M  V30 717 H 67.4255 -3.00914 -2.95006 0
M  V30 718 H 66.1005 -1.84989 -2.65633 0
M  V30 719 H 65.0075 -3.57338 -1.10727 0
M  V30 720 H 66.3405 -4.6956 -1.47562 0
M  V30 721 N 67.9926 0.231505 -1.5589 0
M  V30 722 C 69.2406 0.955461 -1.78088 0
M  V30 723 C 69.5616 1.85262 -0.608533 0
M  V30 724 O 68.8316 1.92277 0.375035 0
M  V30 725 H 67.4116 0.355787 -0.656829 0
M  V30 726 H 70.0736 0.245751 -1.93344 0
M  V30 727 H 69.1696 1.56814 -2.69844 0
M  V30 728 N 69.4707 1.49531 0.497807 0
M  V30 729 C 70.7167 1.59415 1.25358 0
M  V30 730 C 71.0497 0.281422 1.9215 0
M  V30 731 O 70.3247 -0.715249 1.80871 0
M  V30 732 C 70.6077 2.75566 2.3181 0
M  V30 733 C 70.4607 4.16642 1.69498 0
M  V30 734 C 71.7797 2.87347 3.33346 0
M  V30 735 H 68.8987 0.580244 0.454408 0
M  V30 736 H 71.5407 1.81827 0.551262 0
M  V30 737 H 69.6907 2.56587 2.91711 0
M  V30 738 H 71.3627 4.47145 1.13399 0
M  V30 739 H 69.6057 4.22141 0.998978 0
M  V30 740 H 70.2767 4.93792 2.46725 0
M  V30 741 H 72.7527 3.04634 2.83438 0
M  V30 742 H 71.6287 3.70289 4.05188 0
M  V30 743 H 71.8897 1.96834 3.95865 0
M  V30 744 N 70.9488 -0.749086 1.3866 0
M  V30 745 C 72.1738 -1.54344 1.38538 0
M  V30 746 C 72.5988 -1.88088 -0.0216655 0
M  V30 747 O 71.9568 -1.50899 -1.00494 0
M  V30 748 C 72.0048 -2.8164 2.25192 0
M  V30 749 O 71.1088 -3.7698 1.67212 0
M  V30 750 H 70.4498 -0.466654 0.472367 0
M  V30 751 H 72.9798 -0.925355 1.82478 0
M  V30 752 H 72.9898 -3.30519 2.3921 0
M  V30 753 H 71.6648 -2.56411 3.27454 0
M  V30 754 H 70.2418 -3.35699 1.6236 0
M  V30 755 N 72.4269 -1.23603 -0.977757 0
M  V30 756 C 73.3769 -0.986664 -2.05545 0
M  V30 757 C 74.3609 0.0683009 -1.60755 0
M  V30 758 O 75.5529 -0.144162 -1.76412 0
M  V30 759 C 72.6819 -0.582623 -3.3832 0
M  V30 760 C 71.7679 -1.67313 -3.89701 0
M  V30 761 N 72.1589 -2.90394 -4.14132 0
M  V30 762 C 70.4569 -1.54832 -4.18262 0
M  V30 763 C 71.1579 -3.61017 -4.56116 0
M  V30 764 N 70.1339 -2.8854 -4.60701 0
M  V30 765 H 73.9359 -1.92139 -2.22396 0
M  V30 766 H 71.4499 -1.1358 -1.16074 0
M  V30 767 H 73.4469 -0.38524 -4.15116 0
M  V30 768 H 72.1069 0.34503 -3.22862 0
M  V30 769 H 73.1179 -3.26673 -4.01877 0
M  V30 770 H 69.7949 -0.687969 -4.11793 0
M  V30 771 H 71.1849 -4.66544 -4.83514 0
M  V30 772 N 73.905 1.17692 -1.04816 0
M  V30 773 C 75.152 1.87859 -0.75599 0
M  V30 774 C 75.48 1.80812 0.716752 0
M  V30 775 O 74.735 1.20819 1.53952 0
M  V30 776 C 75.034 3.37462 -1.17703 0
M  V30 777 C 74.7 3.64713 -2.65133 0
M  V30 778 C 73.362 3.71859 -3.05408 0
M  V30 779 C 75.714 3.76492 -3.60421 0
M  V30 780 C 73.042 3.88271 -4.39843 0
M  V30 781 C 75.394 3.94421 -4.94585 0
M  V30 782 C 74.058 3.99806 -5.3452 0
M  V30 783 H 73.328 0.687425 -0.276636 0
M  V30 784 H 75.975 1.39255 -1.31455 0
M  V30 785 H 74.28 3.88097 -0.537395 0
M  V30 786 H 75.977 3.90109 -0.928218 0
M  V30 787 H 72.567 3.59772 -2.32942 0
M  V30 788 H 76.751 3.70295 -3.30447 0
M  V30 789 H 72.007 3.90687 -4.70291 0
M  V30 790 H 76.181 4.02477 -5.68318 0
M  V30 791 H 73.808 4.12276 -6.38696 0
M  V30 792 N 75.3831 0.828654 1.34056 0
M  V30 793 C 76.6301 0.419458 1.98108 0
M  V30 794 C 76.9581 -1.01886 1.65679 0
M  V30 795 O 76.2131 -1.72539 0.923512 0
M  V30 796 C 76.5121 0.575226 3.52741 0
M  V30 797 C 76.1781 1.98012 4.05095 0
M  V30 798 C 74.8401 2.36442 4.19104 0
M  V30 799 C 77.1921 2.89824 4.33188 0
M  V30 800 C 74.5201 3.66009 4.58535 0
M  V30 801 C 76.8721 4.1886 4.74066 0
M  V30 802 C 75.5361 4.5726 4.86281 0
M  V30 803 H 74.8061 0.153491 0.724929 0
M  V30 804 H 77.4531 1.05371 1.59904 0
M  V30 805 H 75.7581 -0.142385 3.91541 0
M  V30 806 H 77.4551 0.239057 4.00287 0
M  V30 807 H 74.0451 1.67162 3.94658 0
M  V30 808 H 78.2291 2.61375 4.21897 0
M  V30 809 H 73.4851 3.95579 4.66184 0
M  V30 810 H 77.6591 4.90086 4.94761 0
M  V30 811 H 75.2861 5.57707 5.16592 0
M  V30 812 N 76.8612 -1.46375 0.584142 0
M  V30 813 C 78.2772 -1.57694 0.245929 0
M  V30 814 C 78.4772 -1.57903 -1.25175 0
M  V30 815 O 77.5332 -1.49676 -2.03355 0
M  V30 816 C 78.8462 -2.87028 0.896402 0
M  V30 817 C 80.3942 -3.00662 0.870127 0
M  V30 818 C 80.8692 -4.32734 1.50017 0
M  V30 819 N 82.3602 -4.39436 1.46458 0
M  V30 820 C 83.0952 -5.40248 1.92144 0
M  V30 821 N 82.5912 -6.47726 2.4581 0
M  V30 822 N 84.3842 -5.31459 1.83052 0
M  V30 823 H 76.5352 -1.44483 1.55687 0
M  V30 824 H 78.7982 -0.689291 0.650831 0
M  V30 825 H 78.5042 -2.9269 1.95002 0
M  V30 826 H 78.3782 -3.75014 0.405486 0
M  V30 827 H 80.7652 -2.94581 -0.174871 0
M  V30 828 H 80.8462 -2.14148 1.39908 0
M  V30 829 H 80.4902 -4.39573 2.54437 0
M  V30 830 H 80.4202 -5.18025 0.946432 0
M  V30 831 H 82.9112 -3.62367 1.07231 0
M  V30 832 H 83.2242 -7.20863 2.78525 0
M  V30 833 H 81.5692 -6.48542 2.49836 0
M  V30 834 H 84.7602 -4.46396 1.40883 0
M  V30 835 H 84.9332 -6.09881 2.18973 0
M  V30 836 N 78.3393 -0.321999 -1.54275 0
M  V30 837 C 79.2493 0.553631 -2.27974 0
M  V30 838 C 80.2653 1.13054 -1.32268 0
M  V30 839 O 81.4413 1.15084 -1.6528 0
M  V30 840 C 78.5063 1.69927 -3.02201 0
M  V30 841 C 77.5673 1.15433 -4.1349 0
M  V30 842 C 76.8003 2.24537 -4.84168 0
M  V30 843 O 77.0233 3.44852 -4.5435 0
M  V30 844 O 75.9573 1.90044 -5.7111 0
M  V30 845 H 79.7833 -0.0448345 -3.03667 0
M  V30 846 H 77.3683 -0.0877418 -1.49142 0
M  V30 847 H 79.2503 2.3663 -3.48689 0
M  V30 848 H 77.9253 2.28395 -2.29385 0
M  V30 849 H 76.8323 0.452436 -3.71354 0
M  V30 850 H 78.1653 0.614805 -4.88345 0
M  V30 851 N 79.8174 1.5752 -0.0501392 0
M  V30 852 C 80.7474 2.14502 0.922566 0
M  V30 853 C 81.7284 1.06642 1.3252 0
M  V30 854 O 82.9134 1.34577 1.4001 0
M  V30 855 C 80.0434 2.68916 2.19776 0
M  V30 856 C 78.9974 3.8175 1.93523 0
M  V30 857 C 78.3234 4.22677 3.27487 0
M  V30 858 C 79.6234 5.06932 1.25765 0
M  V30 859 H 81.3174 2.9603 0.447952 0
M  V30 860 H 78.8634 1.42401 0.214024 0
M  V30 861 H 80.8164 3.07419 2.88222 0
M  V30 862 H 79.5404 1.84578 2.69441 0
M  V30 863 H 78.1994 3.43718 1.27489 0
M  V30 864 H 77.8474 3.35291 3.74952 0
M  V30 865 H 77.5474 4.98725 3.1072 0
M  V30 866 H 79.0714 4.63779 3.97166 0
M  V30 867 H 80.4854 5.42888 1.84244 0
M  V30 868 H 78.8824 5.88116 1.19328 0
M  V30 869 H 79.9524 4.84337 0.233536 0
M  V30 870 N 81.2955 -0.223234 1.56011 0
M  V30 871 C 82.2585 -1.26014 1.9145 0
M  V30 872 C 83.2585 -1.3989 0.792937 0
M  V30 873 O 84.4485 -1.38184 1.0607 0
M  V30 874 C 81.5805 -2.63422 2.16383 0
M  V30 875 H 82.7735 -0.95796 2.84189 0
M  V30 876 H 80.3265 -0.463576 1.49267 0
M  V30 877 H 81.0615 -2.98741 1.2619 0
M  V30 878 H 80.8465 -2.54728 2.98088 0
M  V30 879 H 82.3365 -3.38249 2.44903 0
M  V30 880 N 82.7736 -1.49793 -0.48987 0
M  V30 881 C 83.6836 -1.70036 -1.61632 0
M  V30 882 C 84.6996 -0.583102 -1.63939 0
M  V30 883 O 85.8756 -0.859169 -1.82154 0
M  V30 884 C 82.9406 -1.77277 -2.97949 0
M  V30 885 C 82.0016 -3.00918 -3.06181 0
M  V30 886 C 81.2346 -3.07804 -4.35996 0
M  V30 887 O 81.4576 -2.21982 -5.25433 0
M  V30 888 O 80.3916 -4.00369 -4.49431 0
M  V30 889 H 84.2176 -2.65486 -1.47482 0
M  V30 890 H 81.8026 -1.33666 -0.667362 0
M  V30 891 H 83.6846 -1.84329 -3.78947 0
M  V30 892 H 82.3596 -0.850076 -3.12339 0
M  V30 893 H 81.2666 -2.99377 -2.2433 0
M  V30 894 H 82.5996 -3.92704 -2.96723 0
M  V30 895 N 84.2517 0.741722 -1.39055 0
M  V30 896 C 85.1617 1.88621 -1.39496 0
M  V30 897 C 86.1777 1.71557 -0.290578 0
M  V30 898 O 87.3537 1.94275 -0.530954 0
M  V30 899 C 84.4187 3.24134 -1.23037 0
M  V30 900 C 83.4797 3.5364 -2.43387 0
M  V30 901 C 82.7127 4.82687 -2.27703 0
M  V30 902 O 82.9357 5.55922 -1.27696 0
M  V30 903 O 81.8697 5.1194 -3.16545 0
M  V30 904 H 85.6957 1.91203 -2.35956 0
M  V30 905 H 83.2807 0.888625 -1.20099 0
M  V30 906 H 85.1627 4.0513 -1.15964 0
M  V30 907 H 83.8377 3.22337 -0.296691 0
M  V30 908 H 82.7447 2.72758 -2.56035 0
M  V30 909 H 84.0777 3.60209 -3.35425 0
M  V30 910 N 85.7298 1.2412 0.971189 0
M  V30 911 C 86.6768 1.0305 2.06517 0
M  V30 912 C 87.6468 -0.0550666 1.66009 0
M  V30 913 O 88.8318 0.0988688 1.90544 0
M  V30 914 C 85.9718 0.637653 3.39158 0
M  V30 915 C 85.0848 1.79633 3.92882 0
M  V30 916 C 84.2198 1.34939 5.13775 0
M  V30 917 C 83.2588 2.47823 5.59687 0
M  V30 918 N 82.3958 2.04022 6.71803 0
M  V30 919 H 87.2358 1.96685 2.23873 0
M  V30 920 H 84.7728 0.979694 1.09729 0
M  V30 921 H 86.7308 0.390931 4.15364 0
M  V30 922 H 85.3608 -0.261693 3.21737 0
M  V30 923 H 84.4128 2.15681 3.13346 0
M  V30 924 H 85.7248 2.64466 4.22918 0
M  V30 925 H 84.8788 1.06134 5.97345 0
M  V30 926 H 83.6178 0.471557 4.85415 0
M  V30 927 H 82.6228 2.77392 4.74693 0
M  V30 928 H 83.8478 3.36158 5.90063 0
M  V30 929 H 81.7938 1.18632 6.45184 0
M  V30 930 H 81.7108 2.82409 7.01271 0
M  V30 931 H 82.9788 1.78347 7.58823 0
M  V30 932 N 87.2079 -1.17134 1.05439 0
M  V30 933 C 88.6239 -1.39454 0.776201 0
M  V30 934 C 88.8239 -1.91454 -0.628307 0
M  V30 935 O 87.8799 -2.10777 -1.39031 0
M  V30 936 C 89.1929 -2.38305 1.83388 0
M  V30 937 C 90.7409 -2.52006 1.85639 0
M  V30 938 C 91.2159 -3.54133 2.90437 0
M  V30 939 N 92.7069 -3.61653 2.89415 0
M  V30 940 C 93.4419 -4.4044 3.67152 0
M  V30 941 N 92.9379 -5.22721 4.54681 0
M  V30 942 N 94.7309 -4.35337 3.55581 0
M  V30 943 H 86.8819 -0.817134 1.96053 0
M  V30 944 H 89.1449 -0.421626 0.849079 0
M  V30 945 H 88.8509 -2.07173 2.84204 0
M  V30 946 H 88.7249 -3.37841 1.67761 0
M  V30 947 H 91.1119 -2.82447 0.85486 0
M  V30 948 H 91.1929 -1.52537 2.05344 0
M  V30 949 H 90.8369 -3.24431 3.90777 0
M  V30 950 H 90.7669 -4.53313 2.67983 0
M  V30 951 H 93.2579 -3.02909 2.25952 0
M  V30 952 H 93.5709 -5.80027 5.10674 0
M  V30 953 H 91.9159 -5.22093 4.58741 0
M  V30 954 H 95.1069 -3.70112 2.86592 0
M  V30 955 H 95.2799 -4.96494 4.1641 0
M  V30 956 N 88.686 -0.835752 -1.33615 0
M  V30 957 C 89.596 -0.269088 -2.33052 0
M  V30 958 C 90.612 0.603251 -1.63208 0
M  V30 959 O 91.788 0.508112 -1.94885 0
M  V30 960 C 88.853 0.549091 -3.42324 0
M  V30 961 C 87.914 -0.347156 -4.27894 0
M  V30 962 C 87.147 0.43207 -5.31948 0
M  V30 963 O 87.37 1.66409 -5.45586 0
M  V30 964 O 86.304 -0.192298 -6.01593 0
M  V30 965 H 90.13 -1.09243 -2.83372 0
M  V30 966 H 87.715 -0.598198 -1.36901 0
M  V30 967 H 89.597 1.01414 -4.09015 0
M  V30 968 H 88.272 1.34955 -2.94226 0
M  V30 969 H 87.179 -0.859979 -3.64081 0
M  V30 970 H 88.512 -1.1123 -4.79467 0
M  V30 971 N 90.1641 1.46063 -0.591896 0
M  V30 972 C 91.4121 2.01938 -0.0808391 0
M  V30 973 C 91.7331 1.46475 1.28725 0
M  V30 974 O 91.0031 0.652944 1.84698 0
M  V30 975 H 89.5831 0.746516 -0.0268938 0
M  V30 976 H 92.2451 1.79055 -0.769752 0
M  V30 977 H 91.3411 3.12094 -0.0187578 0
M  V30 978 N 91.6422 0.330177 1.54103 0
M  V30 979 C 92.8722 -0.271784 2.04805 0
M  V30 980 C 93.2802 -1.45816 1.20559 0
M  V30 981 O 92.6232 -1.82247 0.2306 0
M  V30 982 C 92.6852 -0.763238 3.51305 0
M  V30 983 C 92.3492 0.301705 4.56003 0
M  V30 984 C 93.3462 1.13999 5.07248 0
M  V30 985 C 91.0312 0.451793 5.00264 0
M  V30 986 C 93.0252 2.11402 6.01322 0
M  V30 987 C 90.7122 1.42924 5.94151 0
M  V30 988 C 91.7102 2.25882 6.44567 0
M  V30 989 O 91.3982 3.21965 7.3661 0
M  V30 990 H 91.1302 -0.058693 0.673447 0
M  V30 991 H 93.6842 0.476395 1.99799 0
M  V30 992 H 91.9142 -1.56244 3.5373 0
M  V30 993 H 93.6032 -1.28427 3.85047 0
M  V30 994 H 94.3692 1.03505 4.73827 0
M  V30 995 H 90.2482 -0.184044 4.60632 0
M  V30 996 H 93.7922 2.76192 6.40596 0
M  V30 997 H 89.6892 1.53479 6.26988 0
M  V30 998 H 90.4572 3.17281 7.54503 0
M  V30 999 N 93.1203 -1.57491 0.0584922 0
M  V30 1000 C 94.0303 -2.15448 -0.928414 0
M  V30 1001 C 95.0463 -1.11416 -1.3365 0
M  V30 1002 O 96.2223 -1.4362 -1.41193 0
M  V30 1003 C 93.2873 -2.69393 -2.18239 0
M  V30 1004 C 92.3483 -3.88249 -1.83196 0
M  V30 1005 C 91.5813 -4.39613 -3.02616 0
M  V30 1006 O 91.8043 -3.90023 -4.16219 0
M  V30 1007 O 90.7383 -5.31111 -2.83204 0
M  V30 1008 H 94.5643 -3.00112 -0.465483 0
M  V30 1009 H 92.1493 -1.48499 -0.163826 0
M  V30 1010 H 94.0313 -3.04026 -2.91798 0
M  V30 1011 H 92.7063 -1.87796 -2.63656 0
M  V30 1012 H 91.6133 -3.58492 -1.06931 0
M  V30 1013 H 92.9463 -4.71098 -1.42573 0
M  V30 1014 N 94.5984 0.214957 -1.56127 0
M  V30 1015 C 96.0144 0.564948 -1.49267 0
M  V30 1016 C 96.2144 1.86827 -0.754838 0
M  V30 1017 O 95.2704 2.50745 -0.297198 0
M  V30 1018 C 96.5834 0.638071 -2.93852 0
M  V30 1019 C 98.1314 0.728253 -3.0441 0
M  V30 1020 C 98.6064 0.832663 -4.50367 0
M  V30 1021 N 100.097 0.896712 -4.54437 0
M  V30 1022 C 100.832 0.997324 -5.6466 0
M  V30 1023 N 100.328 1.06147 -6.8462 0
M  V30 1024 N 102.121 1.03297 -5.52527 0
M  V30 1025 H 94.2724 -0.640211 -2.02522 0
M  V30 1026 H 96.5354 -0.225507 -0.920788 0
M  V30 1027 H 96.2414 -0.250126 -3.50809 0
M  V30 1028 H 96.1154 1.49947 -3.46115 0
M  V30 1029 H 98.5024 1.60689 -2.47514 0
M  V30 1030 H 98.5834 -0.158952 -2.55306 0
M  V30 1031 H 98.2274 -0.0415417 -5.07883 0
M  V30 1032 H 98.1574 1.73538 -4.97184 0
M  V30 1033 H 100.648 0.857188 -3.6805 0
M  V30 1034 H 100.961 1.1382 -7.64372 0
M  V30 1035 H 99.3064 1.03049 -6.87318 0
M  V30 1036 H 102.497 0.979558 -4.57736 0
M  V30 1037 H 102.67 1.10793 -6.38458 0
M  V30 1038 N 96.0765 1.50051 0.48192 0
M  V30 1039 C 97.0065 1.71046 1.58951 0
M  V30 1040 C 97.9875 0.559288 1.60642 0
M  V30 1041 O 99.1725 0.797243 1.77081 0
M  V30 1042 C 96.3025 1.79462 2.97339 0
M  V30 1043 C 95.2565 2.94558 3.10515 0
M  V30 1044 C 94.5825 2.88105 4.50444 0
M  V30 1045 C 95.8825 4.35227 2.88747 0
M  V30 1046 H 97.5765 2.6378 1.41635 0
M  V30 1047 H 95.1225 1.26936 0.679942 0
M  V30 1048 H 97.0755 1.92734 3.74742 0
M  V30 1049 H 95.7995 0.833412 3.15788 0
M  V30 1050 H 94.4585 2.80918 2.35543 0
M  V30 1051 H 94.1065 1.89853 4.65795 0
M  V30 1052 H 93.8065 3.65366 4.60197 0
M  V30 1053 H 95.3305 3.03412 5.29881 0
M  V30 1054 H 96.7445 4.49449 3.55905 0
M  V30 1055 H 95.1415 5.13856 3.09955 0
M  V30 1056 H 96.2115 4.48347 1.84696 0
M  V30 1057 N 97.5546 -0.734337 1.39446 0
M  V30 1058 C 98.4846 -1.86155 1.40955 0
M  V30 1059 C 99.4656 -1.67898 0.272827 0
M  V30 1060 O 100.651 -1.88207 0.478743 0
M  V30 1061 C 97.7806 -3.23912 1.25294 0
M  V30 1062 C 96.7346 -3.56808 2.36373 0
M  V30 1063 C 96.0606 -4.93508 2.058 0
M  V30 1064 C 97.3606 -3.59713 3.78687 0
M  V30 1065 H 99.0546 -1.8515 2.35287 0
M  V30 1066 H 96.6006 -0.889367 1.13253 0
M  V30 1067 H 98.5536 -4.02443 1.2497 0
M  V30 1068 H 97.2776 -3.25446 0.274308 0
M  V30 1069 H 95.9366 -2.80606 2.35914 0
M  V30 1070 H 95.5846 -4.91623 1.06374 0
M  V30 1071 H 95.2846 -5.16486 2.80208 0
M  V30 1072 H 96.8086 -5.74396 2.07128 0
M  V30 1073 H 98.2226 -4.2832 3.81071 0
M  V30 1074 H 96.6196 -3.94209 4.52459 0
M  V30 1075 H 97.6896 -2.59504 4.09617 0
M  V30 1076 N 99.0327 -1.24633 -0.964593 0
M  V30 1077 C 99.9797 -1.04144 -2.05968 0
M  V30 1078 C 100.95 0.046262 -1.66036 0
M  V30 1079 O 102.135 -0.108972 -1.90489 0
M  V30 1080 C 99.2747 -0.65563 -3.38815 0
M  V30 1081 C 98.3877 -1.81714 -3.91923 0
M  V30 1082 C 97.5227 -1.37662 -5.13052 0
M  V30 1083 C 96.5617 -2.50788 -5.58365 0
M  V30 1084 N 95.6987 -2.07582 -6.70712 0
M  V30 1085 H 100.539 -1.9787 -2.22827 0
M  V30 1086 H 98.0757 -0.9855 -1.09208 0
M  V30 1087 H 100.034 -0.412954 -4.15151 0
M  V30 1088 H 98.6637 0.244627 -3.21872 0
M  V30 1089 H 97.7157 -2.1734 -3.12198 0
M  V30 1090 H 99.0277 -2.66705 -4.21509 0
M  V30 1091 H 98.1817 -1.093 -5.96773 0
M  V30 1092 H 96.9207 -0.497293 -4.85158 0
M  V30 1093 H 95.9257 -2.79906 -4.73215 0
M  V30 1094 H 97.1507 -3.39283 -5.88272 0
M  V30 1095 H 95.0967 -1.22051 -6.44546 0
M  V30 1096 H 95.0137 -2.86125 -6.99763 0
M  V30 1097 H 96.2817 -1.82369 -7.57867 0
M  V30 1098 N 100.511 1.16574 -1.06058 0
M  V30 1099 C 101.444 2.19798 -0.61352 0
M  V30 1100 C 102.422 1.58509 0.362453 0
M  V30 1101 O 103.606 1.86527 0.271994 0
M  V30 1102 C 100.733 3.3855 0.100915 0
M  V30 1103 C 99.7788 4.18317 -0.831438 0
M  V30 1104 S 100.612 4.82375 -2.32539 0
M  V30 1105 C 101.768 6.04508 -1.62238 0
M  V30 1106 H 102.001 2.5738 -1.48805 0
M  V30 1107 H 99.5338 1.27327 -0.873338 0
M  V30 1108 H 101.492 4.07358 0.506898 0
M  V30 1109 H 100.153 2.99338 0.951604 0
M  V30 1110 H 99.3458 5.03232 -0.278071 0
M  V30 1111 H 98.9478 3.5499 -1.17719 0
M  V30 1112 H 101.24 6.71133 -0.926622 0
M  V30 1113 H 102.183 6.64389 -2.44934 0
M  V30 1114 H 102.591 5.53559 -1.106 0
M  V30 1115 N 101.989 0.842826 1.3317 0
M  V30 1116 C 102.921 0.236245 2.27979 0
M  V30 1117 C 103.934 -0.585282 1.51915 0
M  V30 1118 O 105.123 -0.411705 1.73687 0
M  V30 1119 C 102.223 -0.685717 3.3189 0
M  V30 1120 C 101.396 0.0973448 4.37292 0
M  V30 1121 C 100.455 -0.748565 5.20848 0
M  V30 1122 O 99.4809 -0.186339 5.68895 0
M  V30 1123 N 100.683 -2.06527 5.42519 0
M  V30 1124 H 103.448 1.05088 2.80672 0
M  V30 1125 H 101.009 0.701667 1.45905 0
M  V30 1126 H 103.001 -1.25669 3.84694 0
M  V30 1127 H 101.571 -1.40105 2.79445 0
M  V30 1128 H 100.791 0.849706 3.84933 0
M  V30 1129 H 102.079 0.635643 5.04814 0
M  V30 1130 H 101.477 -2.54554 5.05192 0
M  V30 1131 H 100.034 -2.58464 5.98364 0
M  V30 1132 N 103.467 -1.45747 0.599634 0
M  V30 1133 C 104.415 -2.322 -0.136426 0
M  V30 1134 C 105.409 -1.45497 -0.867583 0
M  V30 1135 O 106.615 -1.62027 -0.78405 0
M  V30 1136 H 102.99 -0.749368 -0.0628588 0
M  V30 1137 H 104.961 -2.92072 0.611281 0
M  V30 1138 C 103.71 -3.28974 -1.12567 0
M  V30 1139 H 103.033 -3.9568 -0.572484 0
M  V30 1140 H 104.473 -3.92212 -1.61077 0
M  V30 1141 C 102.932 -2.55561 -2.19523 0
M  V30 1142 O 103.462 -2.33111 -3.27143 0
M  V30 1143 N 101.668 -2.15832 -1.94589 0
M  V30 1144 H 101.215 -2.3429 -1.07078 0
M  V30 1145 H 101.173 -1.67034 -2.66359 0
M  V30 1146 N 104.945 -0.338344 -1.53925 0
M  V30 1147 C 105.877 0.555117 -2.22376 0
M  V30 1148 C 106.89 1.06812 -1.22862 0
M  V30 1149 O 108.079 0.979163 -1.49247 0
M  V30 1150 C 105.179 1.77609 -2.88631 0
M  V30 1151 C 104.352 1.39927 -4.14414 0
M  V30 1152 C 103.411 2.47936 -4.64127 0
M  V30 1153 O 102.437 2.11461 -5.28463 0
M  V30 1154 N 103.639 3.79107 -4.39612 0
M  V30 1155 H 106.404 -0.0310778 -2.99684 0
M  V30 1156 H 103.965 -0.162226 -1.61085 0
M  V30 1157 H 105.957 2.49287 -3.18807 0
M  V30 1158 H 104.527 2.26978 -2.14941 0
M  V30 1159 H 103.747 0.513481 -3.90841 0
M  V30 1160 H 105.035 1.12341 -4.96243 0
M  V30 1161 H 104.433 4.11531 -3.88148 0
M  V30 1162 H 102.99 4.4697 -4.74406 0
M  V30 1163 N 106.423 1.57458 -0.0668435 0
M  V30 1164 C 107.839 1.56947 0.289772 0
M  V30 1165 C 108.039 1.07584 1.70376 0
M  V30 1166 O 107.095 0.739486 2.41429 0
M  V30 1167 C 108.408 3.0052 0.103943 0
M  V30 1168 C 109.956 3.12517 0.173857 0
M  V30 1169 C 110.431 4.57997 0.0163682 0
M  V30 1170 N 111.922 4.63144 0.0721352 0
M  V30 1171 C 112.657 5.73394 -0.0253794 0
M  V30 1172 N 112.153 6.92576 -0.176133 0
M  V30 1173 N 113.946 5.62091 0.0313305 0
M  V30 1174 H 106.097 1.87863 -0.991027 0
M  V30 1175 H 108.36 0.86583 -0.38606 0
M  V30 1176 H 108.066 3.40729 -0.871572 0
M  V30 1177 H 107.94 3.67304 0.858366 0
M  V30 1178 H 110.327 2.72197 1.13985 0
M  V30 1179 H 110.408 2.48381 -0.611586 0
M  V30 1180 H 110.052 4.99005 -0.946374 0
M  V30 1181 H 109.982 5.20158 0.821153 0
M  V30 1182 H 112.473 3.77436 0.187263 0
M  V30 1183 H 112.786 7.72418 -0.242821 0
M  V30 1184 H 111.131 6.94678 -0.211429 0
M  V30 1185 H 114.322 4.67867 0.147773 0
M  V30 1186 H 114.495 6.47982 -0.048121 0
M  V30 1187 N 107.901 -0.206675 1.56239 0
M  V30 1188 C 109.149 -0.927007 1.79586 0
M  V30 1189 C 109.47 -1.8427 0.637929 0
M  V30 1190 O 108.74 -1.92849 -0.344398 0
M  V30 1191 H 107.32 -0.345292 0.662407 0
M  V30 1192 H 109.982 -0.21496 1.93711 0
M  V30 1193 H 109.078 -1.52501 2.72305 0
M  V30 1194 N 109.379 -1.50304 -0.473955 0
M  V30 1195 C 110.627 -1.60832 -1.22382 0
M  V30 1196 C 110.948 -0.30939 -1.9253 0
M  V30 1197 O 110.218 0.67296 -1.83978 0
M  V30 1198 H 108.798 -0.592652 -0.454723 0
M  V30 1199 H 111.46 -1.87068 -0.546968 0
M  V30 1200 H 110.556 -2.41803 -1.97327 0
M  V30 1201 N 110.857 0.726932 -1.39834 0
M  V30 1202 C 112.273 1.03354 -1.21615 0
M  V30 1203 C 112.473 2.01327 -0.08338 0
M  V30 1204 O 111.529 2.46158 0.56238 0
M  V30 1205 C 112.842 1.58811 -2.55342 0
M  V30 1206 C 114.39 1.70851 -2.62257 0
M  V30 1207 C 114.865 2.29716 -3.96225 0
M  V30 1208 N 116.356 2.37116 -3.97907 0
M  V30 1209 C 117.091 2.83619 -4.98345 0
M  V30 1210 N 116.587 3.29958 -6.09179 0
M  V30 1211 N 118.38 2.82901 -4.8572 0
M  V30 1212 H 110.531 0.0773069 -2.12259 0
M  V30 1213 H 112.794 0.0969102 -0.943034 0
M  V30 1214 H 112.5 0.942855 -3.38826 0
M  V30 1215 H 112.374 2.57502 -2.75632 0
M  V30 1216 H 114.761 2.34497 -1.79152 0
M  V30 1217 H 114.842 0.707913 -2.45809 0
M  V30 1218 H 114.486 1.66696 -4.79765 0
M  V30 1219 H 114.416 3.30469 -4.09997 0
M  V30 1220 H 116.907 2.04374 -3.17868 0
M  V30 1221 H 117.22 3.63976 -6.8172 0
M  V30 1222 H 115.565 3.27946 -6.12761 0
M  V30 1223 H 118.756 2.46027 -3.98231 0
M  V30 1224 H 118.929 3.18827 -5.6414 0
M  V30 1225 N 112.336 1.25143 0.95797 0
M  V30 1226 C 113.299 1.05321 2.03569 0
M  V30 1227 C 114.299 0.007152 1.60798 0
M  V30 1228 O 115.489 0.24903 1.72411 0
M  V30 1229 C 112.621 0.598394 3.35607 0
M  V30 1230 H 113.814 2.00986 2.22586 0
M  V30 1231 H 111.367 1.07502 1.13459 0
M  V30 1232 H 112.102 -0.361014 3.22284 0
M  V30 1233 H 111.887 1.35351 3.67998 0
M  V30 1234 H 113.377 0.48104 4.1482 0
M  V30 1235 N 113.814 -1.1601 1.06675 0
M  V30 1236 C 114.744 -2.22688 0.702307 0
M  V30 1237 C 115.725 -1.67306 -0.307032 0
M  V30 1238 O 116.91 -1.93352 -0.181305 0
M  V30 1239 C 114.04 -3.47178 0.092038 0
M  V30 1240 C 112.994 -4.15477 1.02777 0
M  V30 1241 C 112.32 -5.33963 0.28061 0
M  V30 1242 C 113.62 -4.66019 2.35846 0
M  V30 1243 H 115.314 -2.53429 1.59419 0
M  V30 1244 H 112.86 -1.21813 0.767961 0
M  V30 1245 H 114.813 -4.21037 -0.174814 0
M  V30 1246 H 113.537 -3.15749 -0.834877 0
M  V30 1247 H 112.196 -3.43549 1.27944 0
M  V30 1248 H 111.844 -4.98788 -0.649545 0
M  V30 1249 H 111.544 -5.806 0.904258 0
M  V30 1250 H 113.068 -6.10596 0.021396 0
M  V30 1251 H 114.482 -5.3144 2.15045 0
M  V30 1252 H 112.879 -5.23293 2.93743 0
M  V30 1253 H 113.949 -3.82023 2.98641 0
M  V30 1254 N 115.292 -0.849877 -1.32721 0
M  V30 1255 C 116.539 -0.450923 -1.97416 0
M  V30 1256 C 116.867 0.992376 -1.67279 0
M  V30 1257 O 116.122 1.71048 -0.950845 0
M  V30 1258 C 116.421 -0.631272 -3.51781 0
M  V30 1259 C 116.087 -2.04432 -4.01894 0
M  V30 1260 C 114.749 -2.4308 -4.1529 0
M  V30 1261 C 117.101 -2.96679 -4.28522 0
M  V30 1262 C 114.429 -3.73257 -4.52654 0
M  V30 1263 C 116.781 -4.26349 -4.67343 0
M  V30 1264 C 115.445 -4.64939 -4.78945 0
M  V30 1265 H 114.715 -0.165004 -0.722395 0
M  V30 1266 H 117.362 -1.07901 -1.58207 0
M  V30 1267 H 115.667 0.0800767 -3.91718 0
M  V30 1268 H 117.364 -0.302709 -3.99856 0
M  V30 1269 H 113.954 -1.73419 -3.91949 0
M  V30 1270 H 118.138 -2.68054 -4.17685 0
M  V30 1271 H 113.394 -4.02946 -4.59831 0
M  V30 1272 H 117.568 -4.97895 -4.86902 0
M  V30 1273 H 115.195 -5.65855 -5.07654 0
M  V30 1274 N 116.77 1.45427 -0.607355 0
M  V30 1275 C 117.702 2.2871 0.149752 0
M  V30 1276 C 118.715 1.39937 0.831958 0
M  V30 1277 O 119.904 1.64313 0.697385 0
M  V30 1278 C 117.004 3.15673 1.23304 0
M  V30 1279 C 116.177 4.32722 0.637996 0
M  V30 1280 C 115.236 5.00895 1.61215 0
M  V30 1281 O 114.262 5.57697 1.13854 0
M  V30 1282 N 115.464 5.00159 2.94655 0
M  V30 1283 H 118.229 2.94328 -0.564882 0
M  V30 1284 H 115.79 1.55612 -0.446823 0
M  V30 1285 H 117.782 3.58144 1.88454 0
M  V30 1286 H 116.352 2.51965 1.8502 0
M  V30 1287 H 115.572 3.93734 -0.191572 0
M  V30 1288 H 116.86 5.08321 0.220665 0
M  V30 1289 H 116.258 4.553 3.35735 0
M  V30 1290 H 114.815 5.46495 3.55228 0
M  V30 1291 N 118.248 0.346503 1.53744 0
M  V30 1292 C 119.525 -0.304532 1.93215 0
M  V30 1293 C 119.905 -1.67993 1.27834 0
M  V30 1294 O 119.253 -2.24411 0.430352 0
M  V30 1295 C 119.463 -0.373852 3.46992 0
M  V30 1296 C 120.811 -0.62329 4.2 0
M  V30 1297 O 121.835 -0.455847 3.53271 0
M  V30 1298 O 120.694 -0.947879 5.38217 0
M  V30 1299 H 117.788 -0.178318 0.807547 0
M  V30 1300 H 120.334 0.397895 1.64969 0
M  V30 1301 H 119.106 0.591224 3.86808 0
M  V30 1302 H 118.729 -1.12294 3.81413 0
M  V30 1303 N 119.726 -1.57421 0.075193 0
M  V30 1304 C 120.975 -1.92794 -0.592731 0
M  V30 1305 C 121.288 -0.957478 -1.70563 0
M  V30 1306 O 122.494 -1.20417 -2.43335 0
M  V30 1307 C 120.95 -3.42495 -1.10569 0
M  V30 1308 C 120.558 -4.47994 -0.0236121 0
M  V30 1309 C 122.302 -3.86864 -1.74748 0
M  V30 1310 C 120.209 -5.88829 -0.550803 0
M  V30 1311 H 119.139 -0.719591 -0.225177 0
M  V30 1312 H 121.79 -1.82902 0.147978 0
M  V30 1313 H 120.172 -3.47471 -1.89947 0
M  V30 1314 H 121.346 -4.54637 0.751099 0
M  V30 1315 H 119.661 -4.13113 0.522159 0
M  V30 1316 H 122.258 -4.8947 -2.15229 0
M  V30 1317 H 122.601 -3.24417 -2.60882 0
M  V30 1318 H 123.134 -3.84504 -1.01986 0
M  V30 1319 H 119.873 -6.54929 0.273457 0
M  V30 1320 H 119.393 -5.85698 -1.29296 0
M  V30 1321 H 121.072 -6.38811 -1.02613 0
M  V30 1322 N 121.204 0.198386 -1.56346 0
M  V30 1323 C 122.151 1.24589 -1.94284 0
M  V30 1324 C 123.121 1.454 -0.802997 0
M  V30 1325 O 124.306 1.58588 -1.06087 0
M  V30 1326 C 121.446 2.58631 -2.28482 0
M  V30 1327 C 120.559 2.45426 -3.55514 0
M  V30 1328 C 119.694 3.7215 -3.79049 0
M  V30 1329 C 118.733 3.53763 -4.99518 0
M  V30 1330 N 117.87 4.72491 -5.19323 0
M  V30 1331 H 122.71 0.915356 -2.83593 0
M  V30 1332 H 120.247 0.440629 -1.40346 0
M  V30 1333 H 122.205 3.3672 -2.46324 0
M  V30 1334 H 120.835 2.89734 -1.42317 0
M  V30 1335 H 119.887 1.58652 -3.45737 0
M  V30 1336 H 121.199 2.27772 -4.43758 0
M  V30 1337 H 120.353 4.58679 -3.97113 0
M  V30 1338 H 119.092 3.92754 -2.89129 0
M  V30 1339 H 118.097 2.65619 -4.8138 0
M  V30 1340 H 119.322 3.34607 -5.90944 0
M  V30 1341 H 117.268 4.93365 -4.3235 0
M  V30 1342 H 117.185 4.5765 -6.01741 0
M  V30 1343 H 118.453 5.6038 -5.41843 0
M  V30 1344 N 122.682 1.50554 0.465978 0
M  V30 1345 C 123.629 1.6979 1.56333 0
M  V30 1346 C 124.599 0.539239 1.57103 0
M  V30 1347 O 125.784 0.770401 1.74555 0
M  V30 1348 C 122.924 1.80273 2.94271 0
M  V30 1349 C 122.037 3.07674 3.0325 0
M  V30 1350 C 121.172 3.08922 4.32135 0
M  V30 1351 C 120.211 4.30755 4.34875 0
M  V30 1352 N 119.348 4.29714 5.55239 0
M  V30 1353 H 124.188 2.63472 1.39235 0
M  V30 1354 H 121.725 1.30602 0.676873 0
M  V30 1355 H 123.683 1.84332 3.74269 0
M  V30 1356 H 122.313 0.900258 3.09992 0
M  V30 1357 H 121.365 3.13062 2.16094 0
M  V30 1358 H 122.677 3.97642 3.01135 0
M  V30 1359 H 121.831 3.11738 5.20485 0
M  V30 1360 H 120.57 2.16792 4.36866 0
M  V30 1361 H 119.575 4.28146 3.44922 0
M  V30 1362 H 120.8 5.24117 4.31831 0
M  V30 1363 H 118.746 3.4044 5.60746 0
M  V30 1364 H 118.663 5.13456 5.54886 0
M  V30 1365 H 119.931 4.36683 6.457 0
M  V30 1366 N 124.16 -0.719506 1.40217 0
M  V30 1367 C 125.571 -1.29848 1.34151 0
M  V30 1368 C 125.922 -1.96196 0.0131349 0
M  V30 1369 O 125.047 -1.973 -0.88892 0
M  V30 1370 C 125.642 -2.36118 2.42968 0
M  V30 1371 C 124.201 -2.8965 2.40374 0
M  V30 1372 C 123.348 -1.63393 2.24049 0
M  V30 1373 H 126.299 -0.51591 1.5008 0
M  V30 1374 H 126.32 -3.16871 2.10649 0
M  V30 1375 H 125.832 -1.878 3.39636 0
M  V30 1376 H 123.933 -3.42208 1.47392 0
M  V30 1377 H 124.046 -3.4171 3.35814 0
M  V30 1378 H 122.41 -1.88312 1.71495 0
M  V30 1379 H 123.193 -1.17104 3.2271 0
M  V30 1380 N 125.638 -1.25649 -0.95132 0
M  V30 1381 C 126.601 -1.06399 -2.03007 0
M  V30 1382 C 127.601 -0.0156794 -1.60792 0
M  V30 1383 O 128.791 -0.25817 -1.72276 0
M  V30 1384 C 125.923 -0.616184 -3.35285 0
M  V30 1385 H 127.116 -2.02164 -2.21517 0
M  V30 1386 H 124.669 -1.08103 -1.12887 0
M  V30 1387 H 125.404 0.343917 -3.22471 0
M  V30 1388 H 125.189 -1.37301 -3.67275 0
M  V30 1389 H 126.679 -0.503032 -4.14559 0
M  V30 1390 N 127.117 1.15442 -1.07289 0
M  V30 1391 C 128.027 2.23786 -0.704057 0
M  V30 1392 C 129.043 1.7166 0.284413 0
M  V30 1393 O 130.219 2.00972 0.131205 0
M  V30 1394 C 127.284 3.46535 -0.106792 0
M  V30 1395 C 126.345 4.13654 -1.14842 0
M  V30 1396 C 125.578 5.30544 -0.57956 0
M  V30 1397 O 125.801 5.67187 0.604585 0
M  V30 1398 O 124.735 5.87154 -1.32414 0
M  V30 1399 H 128.561 2.57664 -1.60757 0
M  V30 1400 H 126.146 1.23152 -0.845803 0
M  V30 1401 H 128.028 4.20804 0.224048 0
M  V30 1402 H 126.703 3.14407 0.770049 0
M  V30 1403 H 125.61 3.4131 -1.5316 0
M  V30 1404 H 126.943 4.49861 -1.99714 0
M  V30 1405 N 128.595 0.856903 1.32268 0
M  V30 1406 C 129.872 0.382583 1.91822 0
M  V30 1407 C 130.252 -1.13407 1.78051 0
M  V30 1408 O 129.6 -1.95673 1.18001 0
M  V30 1409 C 129.81 0.849446 3.38505 0
M  V30 1410 C 131.158 0.867936 4.15634 0
M  V30 1411 O 132.182 0.794232 3.47232 0
M  V30 1412 O 131.041 0.972286 5.37781 0
M  V30 1413 H 128.135 0.112014 0.819379 0
M  V30 1414 H 130.681 0.943952 1.41024 0
M  V30 1415 H 129.453 1.89267 3.42482 0
M  V30 1416 H 129.076 0.265652 3.96712 0
M  V30 1417 N 130.073 -1.45103 0.615059 0
M  V30 1418 C 130.983 -2.34382 -0.101034 0
M  V30 1419 C 131.999 -1.51681 -0.852585 0
M  V30 1420 O 133.175 -1.8446 -0.808484 0
M  V30 1421 C 130.24 -3.29417 -1.08099 0
M  V30 1422 C 129.301 -4.28025 -0.330577 0
M  V30 1423 C 128.534 -5.1852 -1.26385 0
M  V30 1424 O 128.757 -5.12598 -2.50198 0
M  V30 1425 O 127.691 -5.97122 -0.756866 0
M  V30 1426 H 131.517 -2.97033 0.632855 0
M  V30 1427 H 129.102 -1.4461 0.375293 0
M  V30 1428 H 130.984 -3.87958 -1.6452 0
M  V30 1429 H 129.659 -2.69321 -1.79577 0
M  V30 1430 H 128.566 -3.73078 0.276283 0
M  V30 1431 H 129.899 -4.90997 0.343866 0
M  V30 1432 N 131.551 -0.354651 -1.53558 0
M  V30 1433 C 132.797 0.231422 -2.02079 0
M  V30 1434 C 133.152 1.47308 -1.23767 0
M  V30 1435 O 132.445 1.8891 -0.319947 0
M  V30 1436 C 132.639 0.587121 -3.52545 0
M  V30 1437 C 132.468 -0.618513 -4.45426 0
M  V30 1438 C 131.238 -1.12724 -4.92566 0
M  V30 1439 C 133.436 -1.48039 -4.92533 0
M  V30 1440 N 131.418 -2.29404 -5.69427 0
M  V30 1441 C 132.789 -2.49397 -5.67628 0
M  V30 1442 C 134.844 -1.50454 -4.74624 0
M  V30 1443 C 133.547 -3.53013 -6.26717 0
M  V30 1444 C 135.573 -2.52958 -5.34571 0
M  V30 1445 C 134.935 -3.5304 -6.09543 0
M  V30 1446 H 131.034 0.0476909 -0.780544 0
M  V30 1447 H 133.618 -0.496727 -1.88257 0
M  V30 1448 H 131.789 1.28436 -3.6655 0
M  V30 1449 H 133.521 1.15734 -3.87799 0
M  V30 1450 H 130.276 -0.693577 -4.68494 0
M  V30 1451 H 130.7 -2.88347 -6.12524 0
M  V30 1452 H 135.342 -0.744356 -4.16196 0
M  V30 1453 H 133.06 -4.2992 -6.84247 0
M  V30 1454 H 136.646 -2.55667 -5.22614 0
M  V30 1455 H 135.526 -4.31056 -6.55103 0
M  V30 1456 N 133.029 1.57378 -0.0835403 0
M  V30 1457 C 134.277 1.93547 0.581718 0
M  V30 1458 C 134.598 0.96524 1.69435 0
M  V30 1459 O 133.868 0.0153369 1.95894 0
M  V30 1460 H 132.448 0.714521 0.217874 0
M  V30 1461 H 135.11 1.94366 -0.144158 0
M  V30 1462 H 134.206 2.95665 0.999423 0
M  V30 1463 N 134.507 -0.190092 1.56449 0
M  V30 1464 C 135.454 -1.23557 1.94942 0
M  V30 1465 C 136.424 -1.44972 0.810696 0
M  V30 1466 O 137.609 -1.58023 1.06927 0
M  V30 1467 C 134.749 -2.57416 2.2985 0
M  V30 1468 C 133.862 -2.43537 3.5681 0
M  V30 1469 C 132.997 -3.70134 3.81017 0
M  V30 1470 C 132.036 -3.51109 5.01387 0
M  V30 1471 N 131.173 -4.6973 5.21822 0
M  V30 1472 H 136.013 -0.900304 2.84075 0
M  V30 1473 H 133.55 -0.43318 1.40577 0
M  V30 1474 H 135.508 -3.35409 2.48106 0
M  V30 1475 H 134.138 -2.88975 1.43852 0
M  V30 1476 H 133.19 -1.56816 3.46573 0
M  V30 1477 H 134.502 -2.25415 4.4496 0
M  V30 1478 H 133.656 -4.56566 3.9954 0
M  V30 1479 H 132.395 -3.91215 2.91207 0
M  V30 1480 H 131.4 -2.63063 4.82782 0
M  V30 1481 H 132.625 -3.31468 5.9271 0
M  V30 1482 H 130.571 -4.91065 4.34961 0
M  V30 1483 H 130.488 -4.54452 6.0416 0
M  V30 1484 H 131.756 -5.57499 5.44808 0
M  V30 1485 N 135.985 -1.50799 -0.457987 0
M  V30 1486 C 137.213 -1.66218 -1.23203 0
M  V30 1487 C 137.628 -0.350894 -1.85511 0
M  V30 1488 O 136.985 0.668546 -1.69814 0
M  V30 1489 C 137.036 -2.76291 -2.33121 0
M  V30 1490 O 136.757 -4.02338 -1.73366 0
M  V30 1491 C 138.258 -3.028 -3.2377 0
M  V30 1492 H 135.478 -0.558361 -0.372121 0
M  V30 1493 H 138.022 -1.97099 -0.545179 0
M  V30 1494 H 136.177 -2.48068 -2.97558 0
M  V30 1495 H 136.591 -4.63312 -2.4585 0
M  V30 1496 H 138.065 -3.8345 -3.97077 0
M  V30 1497 H 138.542 -2.14385 -3.83322 0
M  V30 1498 H 139.148 -3.32604 -2.65056 0
M  V30 1499 N 137.463 0.71206 -1.40597 0
M  V30 1500 C 138.874 1.29135 -1.34837 0
M  V30 1501 C 139.225 1.96186 -0.0235395 0
M  V30 1502 O 138.35 1.97768 0.878444 0
M  V30 1503 C 138.945 2.34827 -2.44217 0
M  V30 1504 C 137.504 2.88371 -2.41907 0
M  V30 1505 C 136.651 1.62202 -2.24913 0
M  V30 1506 H 139.602 0.507944 -1.50352 0
M  V30 1507 H 139.623 3.15749 -2.12327 0
M  V30 1508 H 139.135 1.85996 -3.40627 0
M  V30 1509 H 137.236 3.41422 -1.49204 0
M  V30 1510 H 137.349 3.39925 -3.37621 0
M  V30 1511 H 135.713 1.874 -1.72492 0
M  V30 1512 H 136.496 1.15391 -3.23326 0
M  V30 1513 N 138.941 1.26152 0.944643 0
M  V30 1514 C 140.218 1.02247 1.66748 0
M  V30 1515 C 140.598 -0.448202 2.06287 0
M  V30 1516 O 139.946 -1.42779 1.78399 0
M  V30 1517 C 140.156 1.96788 2.88228 0
M  V30 1518 C 141.504 2.25201 3.59958 0
M  V30 1519 O 142.528 1.94626 2.98327 0
M  V30 1520 O 141.387 2.77242 4.70956 0
M  V30 1521 H 138.481 0.388517 0.730057 0
M  V30 1522 H 141.027 1.37348 0.99668 0
M  V30 1523 H 139.799 2.96047 2.55875 0
M  V30 1524 H 139.422 1.62145 3.63035 0
M  V30 1525 N 140.419 -1.14872 1.07899 0
M  V30 1526 C 141.382 -2.17986 0.708161 0
M  V30 1527 C 142.382 -1.58775 -0.25442 0
M  V30 1528 O 143.572 -1.74166 -0.034645 0
M  V30 1529 C 140.704 -3.40871 0.0446929 0
M  V30 1530 H 141.897 -2.52306 1.62116 0
M  V30 1531 H 139.45 -1.2943 0.876218 0
M  V30 1532 H 140.185 -3.12124 -0.880281 0
M  V30 1533 H 139.97 -3.8511 0.737091 0
M  V30 1534 H 141.46 -4.17121 -0.19991 0
M  V30 1535 N 141.898 -0.863906 -1.31812 0
M  V30 1536 C 142.831 -0.259963 -2.26714 0
M  V30 1537 C 143.809 0.607392 -1.50829 0
M  V30 1538 O 144.993 0.562155 -1.79922 0
M  V30 1539 C 142.12 0.632456 -3.32743 0
M  V30 1540 C 141.166 -0.162743 -4.26189 0
M  V30 1541 S 141.999 -1.53726 -5.12961 0
M  V30 1542 C 143.155 -0.650803 -6.22507 0
M  V30 1543 H 143.388 -1.06445 -2.77591 0
M  V30 1544 H 140.921 -0.662071 -1.39485 0
M  V30 1545 H 142.879 1.14167 -3.94305 0
M  V30 1546 H 141.54 1.41083 -2.80632 0
M  V30 1547 H 140.733 0.517366 -5.01338 0
M  V30 1548 H 140.335 -0.60385 -3.69093 0
M  V30 1549 H 142.627 0.141134 -6.77353 0
M  V30 1550 H 143.57 -1.37322 -6.94657 0
M  V30 1551 H 143.978 -0.221041 -5.64067 0
M  V30 1552 N 143.376 1.44774 -0.622745 0
M  V30 1553 C 144.323 2.30635 0.0871679 0
M  V30 1554 C 145.293 1.42994 0.845097 0
M  V30 1555 O 146.478 1.71907 0.827812 0
M  V30 1556 C 143.618 3.28144 1.06844 0
M  V30 1557 C 142.731 4.30888 0.309809 0
M  V30 1558 C 141.866 5.15494 1.28215 0
M  V30 1559 C 140.905 6.09953 0.512198 0
M  V30 1560 N 140.042 6.87287 1.43458 0
M  V30 1561 H 144.882 2.90803 -0.650974 0
M  V30 1562 H 142.419 1.43286 -0.33281 0
M  V30 1563 H 144.377 3.83157 1.65066 0
M  V30 1564 H 143.007 2.69695 1.77382 0
M  V30 1565 H 142.059 3.78414 -0.388181 0
M  V30 1566 H 143.371 4.97955 -0.290254 0
M  V30 1567 H 142.525 5.74983 1.93596 0
M  V30 1568 H 141.264 4.48481 1.91614 0
M  V30 1569 H 140.269 5.49581 -0.155151 0
M  V30 1570 H 141.494 6.78999 -0.116958 0
M  V30 1571 H 139.44 6.2295 2.05594 0
M  V30 1572 H 139.357 7.50763 0.888335 0
M  V30 1573 H 140.625 7.51306 2.07749 0
M  V30 1574 N 144.854 0.36279 1.53368 0
M  V30 1575 C 145.817 -0.472679 2.24273 0
M  V30 1576 C 146.817 -1.012 1.24961 0
M  V30 1577 O 148.007 -0.898194 1.49259 0
M  V30 1578 C 145.139 -1.66039 2.97731 0
M  V30 1579 H 146.332 0.14773 2.99536 0
M  V30 1580 H 143.885 0.114434 1.55881 0
M  V30 1581 H 144.62 -2.31896 2.26704 0
M  V30 1582 H 144.405 -1.28066 3.70596 0
M  V30 1583 H 145.895 -2.25252 3.51641 0
M  V30 1584 N 146.332 -1.57332 0.0918853 0
M  V30 1585 C 147.295 -2.12708 -0.85369 0
M  V30 1586 C 148.295 -1.05561 -1.213 0
M  V30 1587 O 149.485 -1.31461 -1.14296 0
M  V30 1588 C 146.617 -2.64503 -2.15061 0
M  V30 1589 H 147.81 -2.97573 -0.3729 0
M  V30 1590 H 145.363 -1.55509 -0.157072 0
M  V30 1591 H 146.098 -1.83149 -2.67632 0
M  V30 1592 H 145.883 -3.4284 -1.90272 0
M  V30 1593 H 147.373 -3.07351 -2.82711 0
M  V30 1594 N 147.81 0.181792 -1.56548 0
M  V30 1595 C 148.743 1.25366 -1.90679 0
M  V30 1596 C 149.721 1.43299 -0.768376 0
M  V30 1597 O 150.905 1.58475 -1.02068 0
M  V30 1598 C 148.032 2.61826 -2.1486 0
M  V30 1599 C 147.078 2.60688 -3.37556 0
M  V30 1600 S 147.911 2.10804 -4.92262 0
M  V30 1601 C 149.067 3.49062 -5.19525 0
M  V30 1602 H 149.3 0.962277 -2.81296 0
M  V30 1603 H 146.833 0.385892 -1.495 0
M  V30 1604 H 148.791 3.40371 -2.29473 0
M  V30 1605 H 147.452 2.88169 -1.24969 0
M  V30 1606 H 146.645 3.61058 -3.51643 0
M  V30 1607 H 146.247 1.90232 -3.22006 0
M  V30 1608 H 148.539 4.45003 -5.10861 0
M  V30 1609 H 149.482 3.39859 -6.2121 0
M  V30 1610 H 149.89 3.4459 -4.47122 0
M  V30 1611 N 149.288 1.51039 0.449983 0
M  V30 1612 C 150.251 1.70863 1.5277 0
M  V30 1613 C 151.251 0.578846 1.5002 0
M  V30 1614 O 152.441 0.846213 1.52266 0
M  V30 1615 C 149.573 1.75341 2.9235 0
M  V30 1616 H 150.766 2.67034 1.36502 0
M  V30 1617 H 148.319 1.40838 0.677812 0
M  V30 1618 H 149.054 0.809383 3.14037 0
M  V30 1619 H 148.839 2.57436 2.95752 0
M  V30 1620 H 150.329 1.92559 3.70555 0
M  V30 1621 N 150.766 -0.704594 1.40972 0
M  V30 1622 C 151.696 -1.83124 1.44872 0
M  V30 1623 C 152.677 -1.67281 0.30838 0
M  V30 1624 O 153.862 -1.87149 0.518556 0
M  V30 1625 C 150.992 -3.21181 1.32136 0
M  V30 1626 C 149.946 -3.51714 2.43888 0
M  V30 1627 C 149.272 -4.89032 2.16222 0
M  V30 1628 C 150.572 -3.516 3.86232 0
M  V30 1629 H 152.266 -1.80117 2.39161 0
M  V30 1630 H 149.812 -0.865145 1.15114 0
M  V30 1631 H 151.765 -3.99702 1.33479 0
M  V30 1632 H 150.489 -3.24791 0.343279 0
M  V30 1633 H 149.148 -2.75539 2.41813 0
M  V30 1634 H 148.796 -4.89256 1.16778 0
M  V30 1635 H 148.496 -5.10426 2.911 0
M  V30 1636 H 150.02 -5.69873 2.19265 0
M  V30 1637 H 151.434 -4.2014 3.9007 0
M  V30 1638 H 149.831 -3.84523 4.60719 0
M  V30 1639 H 150.901 -2.50757 4.15029 0
M  V30 1640 N 152.244 -1.26651 -0.937939 0
M  V30 1641 C 153.154 -1.10276 -2.07066 0
M  V30 1642 C 154.17 -0.0354197 -1.73964 0
M  V30 1643 O 155.346 -0.239816 -1.99967 0
M  V30 1644 C 152.411 -0.740887 -3.38691 0
M  V30 1645 C 151.472 -1.88799 -3.85556 0
M  V30 1646 C 150.705 -1.54329 -5.10899 0
M  V30 1647 O 150.928 -0.446494 -5.6865 0
M  V30 1648 O 149.862 -2.37911 -5.52885 0
M  V30 1649 H 153.688 -2.05309 -2.23789 0
M  V30 1650 H 151.273 -1.05743 -1.0554 0
M  V30 1651 H 153.155 -0.55195 -4.1777 0
M  V30 1652 H 151.83 0.180022 -3.23199 0
M  V30 1653 H 150.737 -2.13191 -3.07409 0
M  V30 1654 H 152.07 -2.78874 -4.05574 0
M  V30 1655 N 153.722 1.14298 -1.08507 0
M  V30 1656 C 154.669 2.19414 -0.715965 0
M  V30 1657 C 155.639 1.63399 0.298326 0
M  V30 1658 O 156.824 1.89929 0.182101 0
M  V30 1659 C 153.964 3.44845 -0.132534 0
M  V30 1660 C 153.077 4.15007 -1.19973 0
M  V30 1661 C 152.212 5.28024 -0.580048 0
M  V30 1662 C 151.251 5.9002 -1.62921 0
M  V30 1663 N 150.388 6.94485 -1.03125 0
M  V30 1664 H 155.228 2.50336 -1.61666 0
M  V30 1665 H 152.765 1.2293 -0.807882 0
M  V30 1666 H 154.723 4.16601 0.223454 0
M  V30 1667 H 153.353 3.14403 0.731467 0
M  V30 1668 H 152.405 3.41629 -1.67313 0
M  V30 1669 H 153.717 4.57178 -1.99473 0
M  V30 1670 H 152.871 6.06455 -0.172364 0
M  V30 1671 H 151.61 4.87076 0.246603 0
M  V30 1672 H 150.615 5.10291 -2.04654 0
M  V30 1673 H 151.84 6.33042 -2.45835 0
M  V30 1674 H 149.786 6.55612 -0.225711 0
M  V30 1675 H 149.703 7.35148 -1.76334 0
M  V30 1676 H 150.971 7.7679 -0.649458 0
M  V30 1677 N 155.201 0.870884 1.31352 0
M  V30 1678 C 156.148 0.325425 2.28494 0
M  V30 1679 C 157.118 -0.576615 1.5577 0
M  V30 1680 O 158.303 -0.508059 1.83911 0
M  V30 1681 C 155.443 -0.466283 3.41935 0
M  V30 1682 C 154.556 0.463378 4.29508 0
M  V30 1683 C 153.691 -0.342544 5.30094 0
M  V30 1684 C 152.73 0.583486 6.09313 0
M  V30 1685 N 151.867 -0.186244 7.01853 0
M  V30 1686 H 156.707 1.15901 2.74538 0
M  V30 1687 H 154.244 0.58294 1.35056 0
M  V30 1688 H 156.202 -0.941085 4.06447 0
M  V30 1689 H 154.832 -1.26456 2.97 0
M  V30 1690 H 153.884 1.05663 3.65431 0
M  V30 1691 H 155.196 1.1734 4.84802 0
M  V30 1692 H 154.35 -0.879816 6.00287 0
M  V30 1693 H 153.089 -1.08585 4.75458 0
M  V30 1694 H 152.094 1.13251 5.3801 0
M  V30 1695 H 153.319 1.32566 6.66035 0
M  V30 1696 H 151.265 -0.912348 6.49625 0
M  V30 1697 H 151.182 0.464422 7.54572 0
M  V30 1698 H 152.45 -0.704716 7.76308 0
M  V30 1699 N 156.679 -1.44442 0.630414 0
M  V30 1700 C 157.609 -2.33418 -0.0618083 0
M  V30 1701 C 158.59 -1.48165 -0.835541 0
M  V30 1702 O 159.775 -1.76886 -0.801564 0
M  V30 1703 C 156.905 -3.31222 -1.04449 0
M  V30 1704 C 155.859 -4.26288 -0.382436 0
M  V30 1705 C 155.185 -5.13954 -1.47497 0
M  V30 1706 C 156.485 -5.1744 0.710865 0
M  V30 1707 H 158.179 -2.91548 0.681184 0
M  V30 1708 H 155.725 -1.40191 0.329026 0
M  V30 1709 H 157.678 -3.92351 -1.53748 0
M  V30 1710 H 156.402 -2.71299 -1.81836 0
M  V30 1711 H 155.061 -3.6649 0.0899054 0
M  V30 1712 H 154.709 -4.50385 -2.2397 0
M  V30 1713 H 154.409 -5.7837 -1.03737 0
M  V30 1714 H 155.933 -5.77955 -1.96979 0
M  V30 1715 H 157.347 -5.72509 0.300996 0
M  V30 1716 H 155.744 -5.90455 1.07156 0
M  V30 1717 H 156.814 -4.58496 1.57829 0
M  V30 1718 N 158.157 -0.370918 -1.53173 0
M  V30 1719 C 159.105 0.488101 -2.27421 0
M  V30 1720 C 160.099 1.07884 -1.30604 0
M  V30 1721 O 161.305 1.02143 -1.48212 0
M  V30 1722 H 157.68 0.176134 -0.731082 0
M  V30 1723 H 159.651 -0.159815 -2.97972 0
M  V30 1724 C 158.4 1.61306 -3.08019 0
M  V30 1725 H 157.723 1.1678 -3.82364 0
M  V30 1726 H 159.163 2.18872 -3.63141 0
M  V30 1727 C 157.622 2.55848 -2.19188 0
M  V30 1728 O 158.152 3.58799 -1.80626 0
M  V30 1729 N 156.358 2.2516 -1.83715 0
M  V30 1730 H 155.905 1.41476 -2.15273 0
M  V30 1731 H 155.863 2.8867 -1.24567 0
M  V30 1732 N 159.635 1.57281 -0.100228 0
M  V30 1733 C 160.567 2.11342 0.886972 0
M  V30 1734 C 161.58 1.05182 1.24261 0
M  V30 1735 O 162.769 1.32613 1.19483 0
M  V30 1736 C 159.869 2.5825 2.19454 0
M  V30 1737 C 159.042 3.88302 2.01346 0
M  V30 1738 C 158.101 4.21004 3.15661 0
M  V30 1739 O 157.127 4.9014 2.89398 0
M  V30 1740 N 158.329 3.76818 4.41575 0
M  V30 1741 H 161.094 2.96668 0.425216 0
M  V30 1742 H 158.655 1.61678 0.0847334 0
M  V30 1743 H 160.647 2.7717 2.94888 0
M  V30 1744 H 159.217 1.77907 2.57037 0
M  V30 1745 H 158.437 3.7848 1.10212 0
M  V30 1746 H 159.725 4.73375 1.8653 0
M  V30 1747 H 159.123 3.2102 4.65792 0
M  V30 1748 H 157.68 4.00882 5.13942 0
M  V30 1749 N 161.113 -0.173488 1.56642 0
M  V30 1750 C 162.076 -1.19859 1.95362 0
M  V30 1751 C 163.076 -1.37296 0.83704 0
M  V30 1752 O 164.266 -1.34739 1.10413 0
M  V30 1753 C 161.398 -2.56405 2.24654 0
M  V30 1754 H 162.591 -0.867062 2.87092 0
M  V30 1755 H 160.144 -0.415853 1.50666 0
M  V30 1756 H 160.879 -2.94576 1.35631 0
M  V30 1757 H 160.664 -2.45115 3.06041 0
M  V30 1758 H 162.154 -3.30287 2.5554 0
M  V30 1759 N 162.591 -1.51276 -0.441967 0
M  V30 1760 C 163.521 -1.752 -1.54361 0
M  V30 1761 C 164.502 -0.601682 -1.59103 0
M  V30 1762 O 165.687 -0.843913 -1.74905 0
M  V30 1763 C 162.817 -1.87282 -2.92477 0
M  V30 1764 C 161.771 -3.02687 -3.02596 0
M  V30 1765 C 161.097 -2.99947 -4.42647 0
M  V30 1766 C 162.397 -4.4273 -2.77106 0
M  V30 1767 H 164.091 -2.67442 -1.34592 0
M  V30 1768 H 161.637 -1.28694 -0.646048 0
M  V30 1769 H 163.59 -2.02602 -3.695 0
M  V30 1770 H 162.314 -0.916844 -3.13467 0
M  V30 1771 H 160.973 -2.87065 -2.28012 0
M  V30 1772 H 160.621 -2.02136 -4.60597 0
M  V30 1773 H 160.321 -3.77439 -4.50348 0
M  V30 1774 H 161.845 -3.17354 -5.2165 0
M  V30 1775 H 163.259 -4.58727 -3.43864 0
M  V30 1776 H 161.656 -5.21893 -2.96222 0
M  V30 1777 H 162.726 -4.53087 -1.72744 0
M  V30 1778 N 164.069 0.697108 -1.41344 0
M  V30 1779 C 164.999 1.82353 -1.45841 0
M  V30 1780 C 165.98 1.67115 -0.317247 0
M  V30 1781 O 167.165 1.86871 -0.528474 0
M  V30 1782 C 164.295 3.20476 -1.33838 0
M  V30 1783 C 163.249 3.50415 -2.4575 0
M  V30 1784 C 162.575 4.87878 -2.18813 0
M  V30 1785 C 163.875 3.49546 -3.88091 0
M  V30 1786 H 165.569 1.78846 -2.40113 0
M  V30 1787 H 163.115 0.859028 -1.15571 0
M  V30 1788 H 165.068 3.98988 -1.35596 0
M  V30 1789 H 163.792 3.24604 -0.360498 0
M  V30 1790 H 162.451 2.74253 -2.43271 0
M  V30 1791 H 162.099 4.8863 -1.19371 0
M  V30 1792 H 161.799 5.08875 -2.93803 0
M  V30 1793 H 163.323 5.68702 -2.22284 0
M  V30 1794 H 164.737 4.18066 -3.92293 0
M  V30 1795 H 163.134 3.82075 -4.62751 0
M  V30 1796 H 164.204 2.48552 -4.16353 0
M  V30 1797 N 165.547 1.27147 0.931209 0
M  V30 1798 C 166.824 1.0401 1.65654 0
M  V30 1799 C 167.204 -0.426297 2.06751 0
M  V30 1800 O 166.552 -1.40879 1.79904 0
M  V30 1801 C 166.762 1.99834 2.86125 0
M  V30 1802 C 168.11 2.29007 3.57549 0
M  V30 1803 O 169.134 1.97779 2.96246 0
M  V30 1804 O 167.993 2.82222 4.67989 0
M  V30 1805 H 165.087 0.396239 0.725895 0
M  V30 1806 H 167.633 1.38397 0.982056 0
M  V30 1807 H 166.405 2.98744 2.52721 0
M  V30 1808 H 166.028 1.65987 3.61295 0
M  V30 1809 N 167.025 -1.13721 1.09112 0
M  V30 1810 C 167.955 -2.21148 0.749385 0
M  V30 1811 C 168.936 -1.6792 -0.271475 0
M  V30 1812 O 170.121 -1.93693 -0.140251 0
M  V30 1813 C 167.251 -3.46905 0.165659 0
M  V30 1814 C 166.205 -4.13203 1.11567 0
M  V30 1815 C 165.531 -5.33248 0.393809 0
M  V30 1816 C 166.831 -4.60912 2.45678 0
M  V30 1817 H 168.525 -2.4999 1.64758 0
M  V30 1818 H 166.071 -1.20156 0.793626 0
M  V30 1819 H 168.024 -4.21313 -0.085466 0
M  V30 1820 H 166.748 -3.17449 -0.767714 0
M  V30 1821 H 165.407 -3.40758 1.35202 0
M  V30 1822 H 165.055 -5.00054 -0.543599 0
M  V30 1823 H 164.755 -5.78552 1.02721 0
M  V30 1824 H 166.279 -6.10413 0.150908 0
M  V30 1825 H 167.693 -5.26759 2.26269 0
M  V30 1826 H 166.09 -5.16944 3.04776 0
M  V30 1827 H 167.16 -3.75603 3.06677 0
M  V30 1828 N 168.503 -0.877838 -1.30888 0
M  V30 1829 C 169.453 -0.310872 -2.25871 0
M  V30 1830 C 170.437 0.556596 -1.50966 0
M  V30 1831 O 171.629 0.402187 -1.7237 0
M  V30 1832 C 168.758 0.479821 -3.3993 0
M  V30 1833 C 167.844 -0.401333 -4.22197 0
M  V30 1834 N 168.235 -1.49848 -4.83093 0
M  V30 1835 C 166.533 -0.195167 -4.45573 0
M  V30 1836 C 167.234 -2.0425 -5.44662 0
M  V30 1837 N 166.21 -1.33843 -5.26865 0
M  V30 1838 H 170.012 -1.1493 -2.70496 0
M  V30 1839 H 167.526 -0.726458 -1.45246 0
M  V30 1840 H 169.523 0.902582 -4.07012 0
M  V30 1841 H 168.183 1.31577 -2.96846 0
M  V30 1842 H 169.194 -1.88137 -4.82519 0
M  V30 1843 H 165.871 0.604192 -4.13105 0
M  V30 1844 H 167.261 -2.96345 -6.03017 0
M  V30 1845 N 169.982 1.44106 -0.638065 0
M  V30 1846 C 170.945 2.29138 0.0531013 0
M  V30 1847 C 171.945 1.41409 0.765506 0
M  V30 1848 O 173.135 1.63206 0.609046 0
M  V30 1849 C 170.267 3.23144 1.08584 0
M  V30 1850 H 171.46 2.91739 -0.694883 0
M  V30 1851 H 169.013 1.51134 -0.398538 0
M  V30 1852 H 169.748 2.65408 1.86357 0
M  V30 1853 H 169.533 3.87804 0.578852 0
M  V30 1854 H 171.023 3.87004 1.56899 0
M  V30 1855 N 171.46 0.379036 1.52974 0
M  V30 1856 C 172.39 -0.452706 2.29069 0
M  V30 1857 C 173.371 -1.07237 1.32039 0
M  V30 1858 O 174.556 -1.08708 1.60923 0
M  V30 1859 C 171.686 -1.5856 3.08992 0
M  V30 1860 C 170.64 -1.0925 4.13822 0
M  V30 1861 C 169.966 -2.31668 4.81907 0
M  V30 1862 C 171.266 -0.167702 5.22031 0
M  V30 1863 H 172.96 0.182181 2.98845 0
M  V30 1864 H 170.506 0.0890592 1.43724 0
M  V30 1865 H 172.459 -2.1742 3.6098 0
M  V30 1866 H 171.183 -2.24792 2.36931 0
M  V30 1867 H 169.842 -0.526494 3.628 0
M  V30 1868 H 169.49 -2.96386 4.06404 0
M  V30 1869 H 169.19 -1.9934 5.52754 0
M  V30 1870 H 170.714 -2.91189 5.36695 0
M  V30 1871 H 172.128 -0.664186 5.6944 0
M  V30 1872 H 170.525 0.0653265 6.00064 0
M  V30 1873 H 171.595 0.786347 4.78482 0
M  V30 1874 N 172.938 -1.57226 0.108567 0
M  V30 1875 C 174.186 -1.94448 -0.550853 0
M  V30 1876 C 174.507 -0.992074 -1.67878 0
M  V30 1877 O 173.777 -0.0465 -1.95845 0
M  V30 1878 H 172.357 -0.717897 -0.206479 0
M  V30 1879 H 175.019 -1.94112 0.175062 0
M  V30 1880 H 174.115 -2.97218 -0.952259 0
M  V30 1881 N 174.416 0.165178 -1.56732 0
M  V30 1882 C 175.641 0.900253 -1.86843 0
M  V30 1883 C 176.066 1.74766 -0.695596 0
M  V30 1884 O 175.424 1.77786 0.35522 0
M  V30 1885 C 175.472 1.74777 -3.15413 0
M  V30 1886 O 174.576 2.85007 -2.98068 0
M  V30 1887 H 173.917 0.251832 -0.614391 0
M  V30 1888 H 176.447 0.161468 -2.03962 0
M  V30 1889 H 176.457 2.14646 -3.46974 0
M  V30 1890 H 175.132 1.12537 -4.00385 0
M  V30 1891 H 173.709 2.48676 -2.77875 0
M  V30 1892 N 175.894 1.51508 0.433938 0
M  V30 1893 C 176.857 1.72473 1.50949 0
M  V30 1894 C 177.857 0.594725 1.49398 0
M  V30 1895 O 179.047 0.862315 1.5136 0
M  V30 1896 C 176.179 1.78431 2.90474 0
M  V30 1897 H 177.372 2.68467 1.33662 0
M  V30 1898 H 174.925 1.41549 0.662836 0
M  V30 1899 H 175.66 0.842645 3.13161 0
M  V30 1900 H 175.445 2.60558 2.93005 0
M  V30 1901 H 176.935 1.96479 3.68491 0
M  V30 1902 N 177.372 -0.689602 1.41712 0
M  V30 1903 C 178.788 -1.00093 1.24312 0
M  V30 1904 C 178.988 -2.01036 0.136729 0
M  V30 1905 O 178.044 -2.47562 -0.496918 0
M  V30 1906 C 179.357 -1.51985 2.59463 0
M  V30 1907 C 180.905 -1.63838 2.66695 0
M  V30 1908 C 181.38 -2.1913 4.02177 0
M  V30 1909 N 182.871 -2.26483 4.04054 0
M  V30 1910 C 183.606 -2.70306 5.0569 0
M  V30 1911 N 183.102 -3.13691 6.17713 0
M  V30 1912 N 184.895 -2.69923 4.9305 0
M  V30 1913 H 177.046 -0.0210029 2.1239 0
M  V30 1914 H 179.309 -0.0718733 0.945272 0
M  V30 1915 H 179.015 -0.85269 3.41207 0
M  V30 1916 H 178.889 -2.50103 2.82362 0
M  V30 1917 H 181.276 -2.29664 1.85306 0
M  V30 1918 H 181.357 -0.642492 2.476 0
M  V30 1919 H 181.001 -1.53918 4.84016 0
M  V30 1920 H 180.931 -3.19482 4.18615 0
M  V30 1921 H 183.422 -1.95874 3.23174 0
M  V30 1922 H 183.735 -3.45773 6.9113 0
M  V30 1923 H 182.08 -3.11585 6.21241 0
M  V30 1924 H 185.271 -2.35382 4.04614 0
M  V30 1925 H 185.444 -3.03758 5.72394 0
M  V30 1926 N 178.85 -1.27639 -0.924453 0
M  V30 1927 C 180.078 -1.16989 -1.70649 0
M  V30 1928 C 180.493 0.272869 -1.86818 0
M  V30 1929 O 179.85 1.18549 -1.38753 0
M  V30 1930 C 179.901 -1.85229 -3.10439 0
M  V30 1931 O 179.622 -3.23868 -2.95028 0
M  V30 1932 C 181.123 -1.80746 -4.04779 0
M  V30 1933 H 178.343 -0.406595 -0.53378 0
M  V30 1934 H 180.887 -1.68569 -1.15778 0
M  V30 1935 H 179.042 -1.37545 -3.6216 0
M  V30 1936 H 179.456 -3.57889 -3.83426 0
M  V30 1937 H 180.93 -2.33101 -5.00368 0
M  V30 1938 H 181.407 -0.777499 -4.32263 0
M  V30 1939 H 182.013 -2.28059 -3.58984 0
M  V30 1940 N 180.328 1.1314 -1.09713 0
M  V30 1941 C 181.605 1.80762 -0.747302 0
M  V30 1942 C 181.985 1.96663 0.767265 0
M  V30 1943 O 181.333 1.53706 1.69076 0
M  V30 1944 C 181.543 3.15606 -1.48975 0
M  V30 1945 C 182.891 3.90914 -1.65746 0
M  V30 1946 O 183.915 3.25239 -1.45251 0
M  V30 1947 O 182.774 5.08718 -1.9967 0
M  V30 1948 H 179.868 0.782103 -0.268782 0
M  V30 1949 H 182.414 1.20041 -1.19951 0
M  V30 1950 H 181.186 2.99278 -2.52088 0
M  V30 1951 H 180.809 3.84029 -1.02991 0
M  V30 1952 N 181.806 0.884767 1.30421 0
M  V30 1953 C 183.217 0.553656 1.78302 0
M  V30 1954 C 183.568 -0.930153 1.7275 0
M  V30 1955 O 182.693 -1.72681 1.30423 0
M  V30 1956 C 183.288 0.998234 3.2376 0
M  V30 1957 C 181.847 0.71854 3.69478 0
M  V30 1958 C 180.994 1.18132 2.50879 0
M  V30 1959 H 183.945 1.06901 1.17294 0
M  V30 1960 H 183.966 0.327118 3.79091 0
M  V30 1961 H 183.478 2.0782 3.27769 0
M  V30 1962 H 181.579 -0.349444 3.70958 0
M  V30 1963 H 181.692 1.30595 4.60958 0
M  V30 1964 H 180.056 0.600669 2.47516 0
M  V30 1965 H 180.839 2.26902 2.57624 0
M  V30 1966 N 183.284 -1.43765 0.645699 0
M  V30 1967 C 184.234 -2.27884 -0.0726442 0
M  V30 1968 C 185.218 -1.39483 -0.802086 0
M  V30 1969 O 186.41 -1.63174 -0.685791 0
M  V30 1970 C 183.539 -3.27055 -1.04356 0
M  V30 1971 C 182.625 -4.22944 -0.312985 0
M  V30 1972 N 183.016 -5.01391 0.666386 0
M  V30 1973 C 181.314 -4.42528 -0.55546 0
M  V30 1974 C 182.015 -5.71217 1.09935 0
M  V30 1975 N 180.991 -5.41856 0.435137 0
M  V30 1976 H 184.793 -2.85949 0.678988 0
M  V30 1977 H 182.307 -1.55378 0.472368 0
M  V30 1978 H 184.304 -3.86089 -1.57292 0
M  V30 1979 H 182.964 -2.70551 -1.79534 0
M  V30 1980 H 183.975 -5.07252 1.04481 0
M  V30 1981 H 180.652 -3.97104 -1.28899 0
M  V30 1982 H 182.042 -6.44202 1.90929 0
M  V30 1983 N 184.763 -0.387143 -1.52771 0
M  V30 1984 C 185.693 0.440551 -2.29306 0
M  V30 1985 C 186.674 1.06535 -1.32606 0
M  V30 1986 O 187.859 1.07853 -1.61497 0
M  V30 1987 C 184.989 1.56919 -3.09829 0
M  V30 1988 C 183.943 1.07054 -4.14395 0
M  V30 1989 C 183.269 2.29109 -4.83129 0
M  V30 1990 C 184.569 0.140015 -5.22112 0
M  V30 1991 H 186.263 -0.198026 -2.98744 0
M  V30 1992 H 183.809 -0.09668 -1.43675 0
M  V30 1993 H 185.762 2.15503 -3.62128 0
M  V30 1994 H 184.486 2.23532 -2.3812 0
M  V30 1995 H 183.145 0.507247 -3.63074 0
M  V30 1996 H 182.793 2.94227 -4.0797 0
M  V30 1997 H 182.493 1.96406 -5.53804 0
M  V30 1998 H 184.017 2.88339 -5.38231 0
M  V30 1999 H 185.431 0.633978 -5.69784 0
M  V30 2000 H 183.828 -0.0971485 -6.00021 0
M  V30 2001 H 184.898 -0.811711 -4.78058 0
M  V30 2002 N 186.241 1.57166 -0.116904 0
M  V30 2003 C 187.481 1.97008 0.544715 0
M  V30 2004 C 187.845 0.998713 1.63981 0
M  V30 2005 O 189.046 1.28644 2.36018 0
M  V30 2006 C 187.317 3.41145 1.06559 0
M  V30 2007 S 188.876 4.02998 1.73603 0
M  V30 2008 H 185.694 0.688587 0.177112 0
M  V30 2009 H 188.296 1.94459 -0.201487 0
M  V30 2010 H 187 4.09592 0.257374 0
M  V30 2011 H 186.531 3.4734 1.84712 0
M  V30 2012 H 188.546 3.93585 3.02168 0
M  V30 2013 N 187.719 -0.156864 1.56817 0
M  V30 2014 C 188.996 -0.899244 1.73704 0
M  V30 2015 C 189.376 -1.99771 0.682254 0
M  V30 2016 O 188.724 -2.26515 -0.300522 0
M  V30 2017 C 188.934 -1.45075 3.17418 0
M  V30 2018 C 190.282 -1.91802 3.7881 0
M  V30 2019 O 191.306 -1.54838 3.20786 0
M  V30 2020 O 190.165 -2.5994 4.80722 0
M  V30 2021 H 187.259 -0.424267 0.709878 0
M  V30 2022 H 189.805 -0.143561 1.69092 0
M  V30 2023 H 188.577 -0.660846 3.85679 0
M  V30 2024 H 188.2 -2.27021 3.26416 0
M  V30 2025 N 189.197 -1.51736 -0.425897 0
M  V30 2026 C 190.444 -1.6497 -1.17436 0
M  V30 2027 C 190.772 -0.371445 -1.9092 0
M  V30 2028 O 190.027 0.644963 -1.84767 0
M  V30 2029 C 190.326 -2.81103 -2.20717 0
M  V30 2030 C 189.992 -4.19954 -1.64162 0
M  V30 2031 C 188.654 -4.57725 -1.48462 0
M  V30 2032 C 191.006 -5.06552 -1.22696 0
M  V30 2033 C 188.334 -5.79789 -0.897873 0
M  V30 2034 C 190.686 -6.29205 -0.654464 0
M  V30 2035 C 189.35 -6.6574 -0.484456 0
M  V30 2036 H 188.62 -0.603668 -0.429727 0
M  V30 2037 H 191.267 -1.85798 -0.463829 0
M  V30 2038 H 189.572 -2.54542 -2.97852 0
M  V30 2039 H 191.269 -2.8854 -2.78471 0
M  V30 2040 H 187.859 -3.90181 -1.77361 0
M  V30 2041 H 192.043 -4.77968 -1.33642 0
M  V30 2042 H 187.299 -6.06733 -0.75402 0
M  V30 2043 H 191.473 -6.95643 -0.324694 0
M  V30 2044 H 189.1 -7.60195 -0.0276833 0
M  V30 2045 N 190.675 0.682077 -1.42076 0
M  V30 2046 C 191.605 1.80796 -1.47767 0
M  V30 2047 C 192.586 1.6677 -0.334954 0
M  V30 2048 O 193.771 1.863 -0.548264 0
M  V30 2049 C 190.901 3.19038 -1.37229 0
M  V30 2050 C 189.855 3.47789 -2.49453 0
M  V30 2051 C 189.181 4.8553 -2.23975 0
M  V30 2052 C 190.481 3.45411 -3.91776 0
M  V30 2053 H 192.175 1.7629 -2.41997 0
M  V30 2054 H 189.721 0.846721 -1.16476 0
M  V30 2055 H 191.674 3.97528 -1.39821 0
M  V30 2056 H 190.398 3.24204 -0.394907 0
M  V30 2057 H 189.057 2.71657 -2.46166 0
M  V30 2058 H 188.705 4.87337 -1.24547 0
M  V30 2059 H 188.405 5.0573 -2.99184 0
M  V30 2060 H 189.929 5.66312 -2.28304 0
M  V30 2061 H 191.343 4.13882 -3.96705 0
M  V30 2062 H 189.74 3.77145 -4.66778 0
M  V30 2063 H 190.81 2.44122 -4.18966 0
M  V30 2064 N 192.153 1.28127 0.917671 0
M  V30 2065 C 193.063 1.13556 2.05286 0
M  V30 2066 C 194.079 0.0630914 1.73886 0
M  V30 2067 O 195.255 0.271598 1.9956 0
M  V30 2068 C 192.32 0.794676 3.3747 0
M  V30 2069 C 191.381 1.94909 3.82504 0
M  V30 2070 C 190.614 1.62437 5.0838 0
M  V30 2071 O 190.837 0.536905 5.67867 0
M  V30 2072 O 189.771 2.46677 5.4903 0
M  V30 2073 H 193.597 2.08844 2.20495 0
M  V30 2074 H 191.182 1.07409 1.03845 0
M  V30 2075 H 193.064 0.618344 4.16839 0
M  V30 2076 H 191.739 -0.128581 3.23445 0
M  V30 2077 H 190.646 2.18055 3.03978 0
M  V30 2078 H 191.979 2.85291 4.01086 0
M  V30 2079 N 193.631 -1.12557 1.10312 0
M  V30 2080 C 194.859 -1.87864 0.866873 0
M  V30 2081 C 195.274 -1.79588 -0.582557 0
M  V30 2082 O 194.631 -1.16887 -1.40156 0
M  V30 2083 C 194.682 -3.37125 1.30496 0
M  V30 2084 O 194.403 -3.45201 2.69755 0
M  V30 2085 C 195.904 -4.29373 1.10243 0
M  V30 2086 H 193.124 -0.594452 0.311236 0
M  V30 2087 H 195.668 -1.42429 1.46745 0
M  V30 2088 H 193.823 -3.80109 0.748081 0
M  V30 2089 H 194.237 -4.38056 2.88457 0
M  V30 2090 H 195.711 -5.32394 1.45811 0
M  V30 2091 H 196.188 -4.39181 0.0409492 0
M  V30 2092 H 196.794 -3.92169 1.64571 0
M  V30 2093 N 195.109 -0.891671 -1.2995 0
M  V30 2094 C 196.059 -0.334811 -2.25528 0
M  V30 2095 C 197.043 0.540553 -1.51548 0
M  V30 2096 O 198.235 0.383882 -1.72787 0
M  V30 2097 C 195.364 0.44374 -3.4042 0
M  V30 2098 C 194.45 -0.44609 -4.21747 0
M  V30 2099 N 194.841 -1.54963 -4.81477 0
M  V30 2100 C 193.139 -0.242415 -4.45341 0
M  V30 2101 C 193.84 -2.10015 -5.42465 0
M  V30 2102 N 192.816 -1.39423 -5.25416 0
M  V30 2103 H 196.618 -1.17792 -2.69262 0
M  V30 2104 H 194.132 -0.741822 -1.44467 0
M  V30 2105 H 196.129 0.859362 -4.07947 0
M  V30 2106 H 194.789 1.28421 -2.98225 0
M  V30 2107 H 195.8 -1.93244 -4.80497 0
M  V30 2108 H 192.477 0.560342 -4.13723 0
M  V30 2109 H 193.867 -3.02724 -5.9984 0
M  V30 2110 N 196.587 1.43421 -0.653314 0
M  V30 2111 C 197.834 2.01812 -0.166745 0
M  V30 2112 C 198.162 1.51535 1.21931 0
M  V30 2113 O 197.417 0.698975 1.82792 0
M  V30 2114 C 197.716 3.57176 -0.126623 0
M  V30 2115 C 197.382 4.26798 -1.45444 0
M  V30 2116 C 196.044 4.45534 -1.81805 0
M  V30 2117 C 198.396 4.66225 -2.32989 0
M  V30 2118 C 195.724 5.00961 -3.05377 0
M  V30 2119 C 198.076 5.23021 -3.55853 0
M  V30 2120 C 196.74 5.39973 -3.9241 0
M  V30 2121 H 196.01 0.738484 -0.0610162 0
M  V30 2122 H 198.657 1.71896 -0.84404 0
M  V30 2123 H 196.962 3.86634 0.634123 0
M  V30 2124 H 198.659 4.00112 0.266723 0
M  V30 2125 H 195.249 4.12561 -1.16153 0
M  V30 2126 H 199.433 4.51443 -2.06187 0
M  V30 2127 H 194.689 5.12271 -3.3375 0
M  V30 2128 H 198.863 5.52518 -4.23907 0
M  V30 2129 H 196.49 5.82687 -4.88242 0
M  V30 2130 N 198.065 0.39524 1.52563 0
M  V30 2131 C 198.995 -0.428384 2.29537 0
M  V30 2132 C 199.976 -1.05831 1.33169 0
M  V30 2133 O 201.161 -1.06995 1.62067 0
M  V30 2134 C 198.291 -1.55274 3.10656 0
M  V30 2135 C 197.245 -1.04855 4.14957 0
M  V30 2136 C 196.571 -2.26543 4.84337 0
M  V30 2137 C 197.871 -0.112324 5.22179 0
M  V30 2138 H 199.565 0.213867 2.98635 0
M  V30 2139 H 197.111 0.104298 1.43622 0
M  V30 2140 H 199.064 -2.1358 3.63265 0
M  V30 2141 H 197.788 -2.22266 2.39302 0
M  V30 2142 H 196.447 -0.487985 3.63338 0
M  V30 2143 H 196.095 -2.92059 4.09525 0
M  V30 2144 H 195.795 -1.93466 5.54837 0
M  V30 2145 H 197.319 -2.85481 5.39753 0
M  V30 2146 H 198.733 -0.603752 5.70112 0
M  V30 2147 H 197.13 0.128968 5.99961 0
M  V30 2148 H 198.2 0.837052 4.77621 0
M  V30 2149 N 199.544 -1.57102 0.125237 0
M  V30 2150 C 200.821 -1.86953 -0.575142 0
M  V30 2151 C 201.201 -1.02749 -1.84407 0
M  V30 2152 O 200.549 -0.108144 -2.28244 0
M  V30 2153 C 200.759 -3.38198 -0.861583 0
M  V30 2154 C 202.107 -4.06937 -1.21192 0
M  V30 2155 O 203.131 -3.43252 -0.951645 0
M  V30 2156 O 201.99 -5.19364 -1.70068 0
M  V30 2157 H 199.084 -0.774147 -0.290906 0
M  V30 2158 H 201.63 -1.68942 0.160211 0
M  V30 2159 H 200.402 -3.91282 0.0373647 0
M  V30 2160 H 200.025 -3.61661 -1.65188 0
M  V30 2161 N 201.022 0.148545 -1.56898 0
M  V30 2162 C 201.932 1.20293 -2.01412 0
M  V30 2163 C 202.948 1.47107 -0.929273 0
M  V30 2164 O 204.124 1.58807 -1.23863 0
M  V30 2165 C 201.189 2.51682 -2.38447 0
M  V30 2166 C 200.25 2.32529 -3.60872 0
M  V30 2167 C 199.483 3.57653 -3.96132 0
M  V30 2168 O 199.706 4.63771 -3.32073 0
M  V30 2169 O 198.64 3.50408 -4.89385 0
M  V30 2170 H 202.466 0.855025 -2.91416 0
M  V30 2171 H 200.051 0.357151 -1.45068 0
M  V30 2172 H 201.933 3.29147 -2.63135 0
M  V30 2173 H 200.608 2.86006 -1.51599 0
M  V30 2174 H 199.515 1.53019 -3.41373 0
M  V30 2175 H 200.848 2.03121 -4.48333 0
M  V30 2176 N 202.5 1.5196 0.417844 0
M  V30 2177 C 203.41 1.77554 1.53336 0
M  V30 2178 C 204.426 0.660655 1.6097 0
M  V30 2179 O 205.602 0.945099 1.77848 0
M  V30 2180 C 202.667 1.91291 2.89152 0
M  V30 2181 C 201.728 3.15183 2.91475 0
M  V30 2182 C 200.961 3.28256 4.20813 0
M  V30 2183 O 201.184 2.46798 5.14244 0
M  V30 2184 O 200.118 4.21356 4.29817 0
M  V30 2185 H 203.944 2.7222 1.34647 0
M  V30 2186 H 201.529 1.36698 0.602828 0
M  V30 2187 H 203.411 2.02199 3.69721 0
M  V30 2188 H 202.086 0.998129 3.07927 0
M  V30 2189 H 200.993 3.09739 2.09791 0
M  V30 2190 H 202.326 4.06414 2.77648 0
M  V30 2191 N 203.978 -0.674533 1.42435 0
M  V30 2192 C 205.224 -1.43671 1.43131 0
M  V30 2193 C 205.557 -1.94142 0.0476021 0
M  V30 2194 O 204.832 -1.70924 -0.928188 0
M  V30 2195 C 205.115 -2.63355 2.45594 0
M  V30 2196 C 204.968 -2.18514 3.93156 0
M  V30 2197 C 206.287 -3.65571 2.45043 0
M  V30 2198 H 203.406 -0.521077 0.521198 0
M  V30 2199 H 206.048 -0.766551 1.7385 0
M  V30 2200 H 204.198 -3.2053 2.19528 0
M  V30 2201 H 205.87 -1.66504 4.30202 0
M  V30 2202 H 204.113 -1.50086 4.07009 0
M  V30 2203 H 204.784 -3.04484 4.60428 0
M  V30 2204 H 207.26 -3.18113 2.68223 0
M  V30 2205 H 206.136 -4.46893 3.18713 0
M  V30 2206 H 206.397 -4.16716 1.47649 0
M  V30 2207 N 205.456 -1.28612 -0.910864 0
M  V30 2208 C 206.403 -1.12786 -2.01365 0
M  V30 2209 C 207.373 -0.024201 -1.66082 0
M  V30 2210 O 208.558 -0.189667 -1.89855 0
M  V30 2211 C 205.698 -0.798743 -3.35729 0
M  V30 2212 C 204.811 -1.98173 -3.83864 0
M  V30 2213 C 203.946 -1.59298 -5.06752 0
M  V30 2214 C 202.985 -2.74245 -5.47226 0
M  V30 2215 N 202.122 -2.35842 -6.61304 0
M  V30 2216 H 206.962 -2.07142 -2.14234 0
M  V30 2217 H 204.499 -1.03093 -1.0493 0
M  V30 2218 H 206.457 -0.588662 -4.13026 0
M  V30 2219 H 205.087 0.10789 -3.2262 0
M  V30 2220 H 204.139 -2.30386 -3.02699 0
M  V30 2221 H 205.451 -2.84343 -4.09818 0
M  V30 2222 H 204.605 -1.34513 -5.916 0
M  V30 2223 H 203.344 -0.702618 -4.82612 0
M  V30 2224 H 202.349 -2.99725 -4.60918 0
M  V30 2225 H 203.574 -3.63928 -5.73353 0
M  V30 2226 H 201.52 -1.49279 -6.38789 0
M  V30 2227 H 201.437 -3.15546 -6.86998 0
M  V30 2228 H 202.705 -2.14348 -7.4945 0
M  V30 2229 N 206.934 1.1197 -1.10907 0
M  V30 2230 C 207.864 2.19928 -0.784473 0
M  V30 2231 C 208.845 1.6833 0.244726 0
M  V30 2232 O 210.03 1.93892 0.109418 0
M  V30 2233 C 207.16 3.46597 -0.220827 0
M  V30 2234 C 206.114 4.11376 -1.18127 0
M  V30 2235 C 205.44 5.32554 -0.478594 0
M  V30 2236 C 206.74 4.56945 -2.52979 0
M  V30 2237 H 208.434 2.47337 -1.68715 0
M  V30 2238 H 205.98 1.18879 -0.812642 0
M  V30 2239 H 207.933 4.21396 0.0184278 0
M  V30 2240 H 206.657 3.1863 0.717113 0
M  V30 2241 H 205.316 3.38564 -1.40606 0
M  V30 2242 H 204.964 5.00856 0.463976 0
M  V30 2243 H 204.664 5.76844 -1.11912 0
M  V30 2244 H 206.188 6.10096 -0.248 0
M  V30 2245 H 207.602 5.23093 -2.3462 0
M  V30 2246 H 205.999 5.1203 -3.12962 0
M  V30 2247 H 207.069 3.70676 -3.12614 0
M  V30 2248 N 208.412 0.89855 1.29475 0
M  V30 2249 C 209.661 0.519863 1.94885 0
M  V30 2250 C 209.974 -0.9383 1.71625 0
M  V30 2251 O 211.18 -1.42445 2.31131 0
M  V30 2252 C 209.636 0.878836 3.49005 0
M  V30 2253 C 209.244 2.35569 3.81066 0
M  V30 2254 C 210.988 0.570004 4.20656 0
M  V30 2255 C 208.895 2.65558 5.28425 0
M  V30 2256 H 207.825 0.190692 0.729488 0
M  V30 2257 H 210.476 1.09539 1.47219 0
M  V30 2258 H 208.858 0.232253 3.95318 0
M  V30 2259 H 210.032 3.04773 3.45616 0
M  V30 2260 H 208.347 2.63343 3.22552 0
M  V30 2261 H 210.944 0.770925 5.29113 0
M  V30 2262 H 211.287 -0.491404 4.1339 0
M  V30 2263 H 211.82 1.17438 3.8007 0
M  V30 2264 H 208.559 3.70493 5.40754 0
M  V30 2265 H 208.079 2.00977 5.65127 0
M  V30 2266 H 209.758 2.51765 5.96006 0
M  V30 2267 N 209.89 -1.43072 0.660911 0
M  V30 2268 C 210.837 -2.30785 -0.0259884 0
M  V30 2269 C 211.807 -1.45184 -0.806888 0
M  V30 2270 O 212.992 -1.74041 -0.781943 0
M  V30 2271 C 210.132 -3.30861 -0.981067 0
M  V30 2272 C 209.245 -4.31558 -0.195458 0
M  V30 2273 C 208.38 -5.18712 -1.14503 0
M  V30 2274 C 207.419 -6.11097 -0.350299 0
M  V30 2275 N 206.556 -6.90849 -1.25186 0
M  V30 2276 H 211.396 -2.88975 0.727846 0
M  V30 2277 H 208.933 -1.42353 0.370682 0
M  V30 2278 H 210.891 -3.87399 -1.54849 0
M  V30 2279 H 209.521 -2.74304 -1.70169 0
M  V30 2280 H 208.573 -3.77252 0.488374 0
M  V30 2281 H 209.885 -4.9701 0.422176 0
M  V30 2282 H 209.039 -5.79914 -1.78284 0
M  V30 2283 H 207.778 -4.53404 -1.79656 0
M  V30 2284 H 206.783 -5.48976 0.300808 0
M  V30 2285 H 208.008 -6.7845 0.296941 0
M  V30 2286 H 205.954 -6.28182 -1.89005 0
M  V30 2287 H 205.871 -7.52854 -0.688971 0
M  V30 2288 H 207.139 -7.5655 -1.87757 0
M  V30 2289 N 211.368 -0.403325 -1.52352 0
M  V30 2290 C 212.315 0.425011 -2.26853 0
M  V30 2291 C 213.285 1.04598 -1.29029 0
M  V30 2292 O 214.47 1.07135 -1.57882 0
M  V30 2293 C 211.61 1.53888 -3.08889 0
M  V30 2294 C 210.723 0.939396 -4.21663 0
M  V30 2295 C 209.858 2.02547 -4.91068 0
M  V30 2296 C 208.897 1.40263 -5.95813 0
M  V30 2297 N 208.034 2.4286 -6.58759 0
M  V30 2298 H 212.874 -0.21674 -2.97211 0
M  V30 2299 H 210.411 -0.118722 -1.4662 0
M  V30 2300 H 212.369 2.19558 -3.54753 0
M  V30 2301 H 210.999 2.15074 -2.40714 0
M  V30 2302 H 210.051 0.171898 -3.80011 0
M  V30 2303 H 211.363 0.44436 -4.96817 0
M  V30 2304 H 210.517 2.75958 -5.40308 0
M  V30 2305 H 209.256 2.55415 -4.15469 0
M  V30 2306 H 208.261 0.653833 -5.45898 0
M  V30 2307 H 209.486 0.881719 -6.73352 0
M  V30 2308 H 207.432 2.94871 -5.85992 0
M  V30 2309 H 207.349 1.98152 -7.2957 0
M  V30 2310 H 208.617 3.15858 -7.12639 0
M  V30 2311 N 212.846 1.57033 -0.133567 0
M  V30 2312 C 213.779 2.11824 0.848872 0
M  V30 2313 C 214.757 1.03833 1.2513 0
M  V30 2314 O 215.941 1.31579 1.34978 0
M  V30 2315 C 213.068 2.62692 2.138 0
M  V30 2316 C 212.114 3.82705 1.88253 0
M  V30 2317 S 212.947 5.2438 1.08563 0
M  V30 2318 C 214.103 5.78627 2.38624 0
M  V30 2319 H 214.336 2.94824 0.38289 0
M  V30 2320 H 211.869 1.5419 0.0804796 0
M  V30 2321 H 213.827 2.92652 2.87863 0
M  V30 2322 H 212.488 1.79847 2.57515 0
M  V30 2323 H 211.681 4.16496 2.83809 0
M  V30 2324 H 211.283 3.53437 1.22305 0
M  V30 2325 H 213.575 5.8924 3.34369 0
M  V30 2326 H 214.518 6.76443 2.09358 0
M  V30 2327 H 214.926 5.06783 2.48658 0
M  V30 2328 N 214.325 -0.140222 1.56975 0
M  V30 2329 C 215.573 -0.850005 1.83356 0
M  V30 2330 C 215.894 -1.81399 0.71551 0
M  V30 2331 O 215.164 -1.94136 -0.262294 0
M  V30 2332 H 213.744 -0.316886 0.676456 0
M  V30 2333 H 216.406 -0.132608 1.94448 0
M  V30 2334 H 215.502 -1.40814 2.78528 0
M  V30 2335 N 215.803 -1.52179 -0.40978 0
M  V30 2336 C 217.08 -1.56769 -1.16974 0
M  V30 2337 C 217.46 -0.348322 -2.08206 0
M  V30 2338 O 216.808 0.664862 -2.18613 0
M  V30 2339 C 217.018 -2.89603 -1.9476 0
M  V30 2340 C 218.366 -3.42579 -2.50849 0
M  V30 2341 O 219.39 -2.91338 -2.04941 0
M  V30 2342 O 218.249 -4.32054 -3.34652 0
M  V30 2343 H 215.343 -0.631439 -0.534054 0
M  V30 2344 H 217.889 -1.64507 -0.416613 0
M  V30 2345 H 216.661 -3.698 -1.27921 0
M  V30 2346 H 216.284 -2.85155 -2.77079 0
M  V30 2347 N 217.281 0.66697 -1.42791 0
M  V30 2348 C 218.231 1.77313 -1.43332 0
M  V30 2349 C 219.215 1.5801 -0.303586 0
M  V30 2350 O 220.407 1.68356 -0.546385 0
M  V30 2351 C 217.536 3.15822 -1.34578 0
M  V30 2352 C 216.622 3.40721 -2.52528 0
M  V30 2353 N 217.013 3.36162 -3.77927 0
M  V30 2354 C 215.311 3.71387 -2.46956 0
M  V30 2355 C 216.012 3.60762 -4.56318 0
M  V30 2356 N 214.988 3.81908 -3.86843 0
M  V30 2357 H 218.79 1.72193 -2.38174 0
M  V30 2358 H 216.304 0.868114 -1.3725 0
M  V30 2359 H 218.301 3.951 -1.33048 0
M  V30 2360 H 216.961 3.22133 -0.407453 0
M  V30 2361 H 217.972 3.15885 -4.10411 0
M  V30 2362 H 214.649 3.84897 -1.61743 0
M  V30 2363 H 216.039 3.63132 -5.65318 0
M  V30 2364 N 218.759 1.29093 0.90403 0
M  V30 2365 C 219.689 1.16401 2.02418 0
M  V30 2366 C 220.67 0.0593085 1.69997 0
M  V30 2367 O 221.855 0.238021 1.92736 0
M  V30 2368 C 218.985 0.835233 3.37107 0
M  V30 2369 C 217.939 1.89578 3.83724 0
M  V30 2370 C 217.265 1.42041 5.15489 0
M  V30 2371 C 218.565 3.30394 4.04521 0
M  V30 2372 H 220.259 2.10109 2.13295 0
M  V30 2373 H 217.805 1.01157 1.02486 0
M  V30 2374 H 219.758 0.733169 4.14973 0
M  V30 2375 H 218.482 -0.137543 3.2631 0
M  V30 2376 H 217.141 1.98715 3.08071 0
M  V30 2377 H 216.789 0.436426 5.01103 0
M  V30 2378 H 216.489 2.12964 5.4765 0
M  V30 2379 H 218.013 1.33176 5.959 0
M  V30 2380 H 219.427 3.24123 4.72882 0
M  V30 2381 H 217.824 3.99237 4.48029 0
M  V30 2382 H 218.894 3.73692 3.09002 0
M  V30 2383 N 220.237 -1.11381 1.11499 0
M  V30 2384 C 221.465 -1.86934 0.88675 0
M  V30 2385 C 221.88 -1.80195 -0.563476 0
M  V30 2386 O 221.237 -1.18367 -1.38908 0
M  V30 2387 C 221.288 -3.35722 1.34064 0
M  V30 2388 O 221.009 -3.4232 2.73401 0
M  V30 2389 C 222.51 -4.2818 1.14791 0
M  V30 2390 H 219.73 -0.591117 0.317523 0
M  V30 2391 H 222.274 -1.40865 1.48248 0
M  V30 2392 H 220.429 -3.79294 0.788355 0
M  V30 2393 H 220.843 -4.34971 2.93087 0
M  V30 2394 H 222.317 -5.30817 1.5145 0
M  V30 2395 H 222.794 -4.39113 0.0875279 0
M  V30 2396 H 223.4 -3.90402 1.68721 0
M  V30 2397 N 221.715 -0.905404 -1.28997 0
M  V30 2398 C 222.663 -0.377431 -2.29517 0
M  V30 2399 C 223.657 0.526461 -1.61012 0
M  V30 2400 O 224.863 0.40863 -1.753 0
M  V30 2401 H 221.238 -0.103437 -0.744852 0
M  V30 2402 H 223.209 -1.23848 -2.71485 0
M  V30 2403 C 221.958 0.374833 -3.45674 0
M  V30 2404 H 221.281 -0.311474 -3.98585 0
M  V30 2405 H 222.721 0.70903 -4.1803 0
M  V30 2406 C 221.18 1.57963 -2.97572 0
M  V30 2407 O 221.71 2.67886 -2.99333 0
M  V30 2408 N 219.916 1.42375 -2.53333 0
M  V30 2409 H 219.463 0.529466 -2.521 0
M  V30 2410 H 219.421 2.23117 -2.21509 0
M  V30 2411 N 223.193 1.4272 -0.668489 0
M  V30 2412 C 224.123 2.335 -0.000100175 0
M  V30 2413 C 225.104 1.50328 0.795964 0
M  V30 2414 O 226.289 1.78949 0.754385 0
M  V30 2415 C 223.419 3.33874 0.956302 0
M  V30 2416 C 222.373 4.27152 0.269278 0
M  V30 2417 C 221.699 5.17684 1.33818 0
M  V30 2418 C 222.999 5.15373 -0.847805 0
M  V30 2419 H 224.693 2.89639 -0.758244 0
M  V30 2420 H 222.239 1.39269 -0.366079 0
M  V30 2421 H 224.192 3.9629 1.43292 0
M  V30 2422 H 222.916 2.76025 1.74579 0
M  V30 2423 H 221.575 3.66123 -0.187042 0
M  V30 2424 H 221.223 4.56165 2.1195 0
M  V30 2425 H 220.923 5.80918 0.883659 0
M  V30 2426 H 222.447 5.82974 1.81586 0
M  V30 2427 H 223.861 5.7151 -0.452681 0
M  V30 2428 H 222.258 5.87407 -1.22773 0
M  V30 2429 H 223.328 4.5415 -1.69929 0
M  V30 2430 N 224.671 0.411399 1.52136 0
M  V30 2431 C 225.621 -0.430376 2.23901 0
M  V30 2432 C 226.605 -1.0116 1.25121 0
M  V30 2433 O 227.797 -0.934044 1.50348 0
M  V30 2434 C 224.926 -1.54527 3.06556 0
M  V30 2435 C 224.012 -0.9747 4.12747 0
M  V30 2436 N 224.403 -0.130991 5.0563 0
M  V30 2437 C 222.701 -1.24497 4.28271 0
M  V30 2438 C 223.402 0.186689 5.814 0
M  V30 2439 N 222.378 -0.42304 5.41951 0
M  V30 2440 H 226.18 0.220509 2.93072 0
M  V30 2441 H 223.694 0.221952 1.60876 0
M  V30 2442 H 225.691 -2.16093 3.56524 0
M  V30 2443 H 224.351 -2.19875 2.38925 0
M  V30 2444 H 225.362 0.23349 5.17373 0
M  V30 2445 H 222.039 -1.89787 3.7187 0
M  V30 2446 H 223.429 0.871673 6.66222 0
M  V30 2447 N 226.149 -1.5696 0.141893 0
M  V30 2448 C 227.565 -1.58151 -0.21456 0
M  V30 2449 C 227.765 -1.1559 -1.65049 0
M  V30 2450 O 226.821 -0.853832 -2.37626 0
M  V30 2451 C 228.134 -3.00674 0.0395576 0
M  V30 2452 C 229.682 -3.1299 -0.0245529 0
M  V30 2453 C 230.157 -4.57554 0.202167 0
M  V30 2454 N 231.648 -4.62961 0.148919 0
M  V30 2455 C 232.383 -5.7262 0.298924 0
M  V30 2456 N 231.879 -6.90947 0.50637 0
M  V30 2457 N 233.672 -5.61601 0.236886 0
M  V30 2458 H 225.823 -1.8292 1.07953 0
M  V30 2459 H 228.086 -0.846425 0.42693 0
M  V30 2460 H 227.792 -3.36183 1.03315 0
M  V30 2461 H 227.666 -3.70981 -0.682143 0
M  V30 2462 H 230.053 -2.77326 -1.00869 0
M  V30 2463 H 230.134 -2.4518 0.729396 0
M  V30 2464 H 229.778 -4.93922 1.18338 0
M  V30 2465 H 229.708 -5.23484 -0.572044 0
M  V30 2466 H 232.199 -3.77899 -0.00697015 0
M  V30 2467 H 232.512 -7.7038 0.611076 0
M  V30 2468 H 230.857 -6.92878 0.542628 0
M  V30 2469 H 234.048 -4.68039 0.0756209 0
M  V30 2470 H 234.221 -6.47015 0.357227 0
M  V30 2471 N 227.627 0.131896 -1.57047 0
M  V30 2472 C 228.557 1.16384 -2.02428 0
M  V30 2473 C 229.538 1.43936 -0.90644 0
M  V30 2474 O 230.723 1.54599 -1.17528 0
M  V30 2475 C 227.853 2.49328 -2.4177 0
M  V30 2476 C 226.807 2.36266 -3.56879 0
M  V30 2477 C 226.133 3.74057 -3.8208 0
M  V30 2478 C 227.433 1.834 -4.89042 0
M  V30 2479 H 229.127 0.786433 -2.88887 0
M  V30 2480 H 226.673 0.376855 -1.38981 0
M  V30 2481 H 228.626 3.21759 -2.7212 0
M  V30 2482 H 227.35 2.88934 -1.52266 0
M  V30 2483 H 226.009 1.66286 -3.26718 0
M  V30 2484 H 225.657 4.11125 -2.89803 0
M  V30 2485 H 225.357 3.66174 -4.59554 0
M  V30 2486 H 226.881 4.48012 -4.1487 0
M  V30 2487 H 228.295 2.45636 -5.18011 0
M  V30 2488 H 226.692 1.8637 -5.70426 0
M  V30 2489 H 227.762 0.790662 -4.7841 0
M  V30 2490 N 229.106 1.52395 0.401703 0
M  V30 2491 C 230.354 1.66488 1.14569 0
M  V30 2492 C 230.675 0.400897 1.90835 0
M  V30 2493 O 229.945 -0.584415 1.8698 0
M  V30 2494 H 228.525 0.613672 0.425929 0
M  V30 2495 H 231.187 1.89464 0.457093 0
M  V30 2496 H 230.283 2.50942 1.85566 0
M  V30 2497 N 230.584 -0.659388 1.43143 0
M  V30 2498 C 231.832 -1.41654 1.44147 0
M  V30 2499 C 232.153 -1.94893 0.0645739 0
M  V30 2500 O 231.423 -1.74044 -0.899198 0
M  V30 2501 H 230.003 -0.525708 0.530697 0
M  V30 2502 H 232.665 -0.778097 1.78694 0
M  V30 2503 H 231.761 -2.26195 2.1504 0
M  V30 2504 N 232.062 -1.29571 -0.897171 0
M  V30 2505 C 233.473 -1.15964 -1.46319 0
M  V30 2506 C 233.824 0.244267 -1.94674 0
M  V30 2507 O 232.949 1.13998 -1.83939 0
M  V30 2508 C 233.544 -2.09906 -2.65942 0
M  V30 2509 C 232.103 -2.00314 -3.18671 0
M  V30 2510 C 231.25 -2.00687 -1.91363 0
M  V30 2511 H 234.201 -1.42019 -0.708268 0
M  V30 2512 H 234.222 -1.67276 -3.41759 0
M  V30 2513 H 233.734 -3.12075 -2.30718 0
M  V30 2514 H 231.835 -1.01242 -3.58582 0
M  V30 2515 H 231.948 -2.88102 -3.82798 0
M  V30 2516 H 230.312 -1.45319 -2.09175 0
M  V30 2517 H 231.095 -3.04566 -1.58413 0
M  V30 2518 N 233.54 1.10788 -1.12088 0
M  V30 2519 C 234.45 2.20599 -0.798338 0
M  V30 2520 C 235.466 1.72712 0.21135 0
M  V30 2521 O 236.642 2.01348 0.0458477 0
M  V30 2522 C 233.707 3.45771 -0.253674 0
M  V30 2523 C 232.768 4.08411 -1.32283 0
M  V30 2524 C 232.001 5.27608 -0.80406 0
M  V30 2525 O 232.224 5.69241 0.363478 0
M  V30 2526 O 231.158 5.8101 -1.57198 0
M  V30 2527 H 234.984 2.50614 -1.7154 0
M  V30 2528 H 232.569 1.19454 -0.897275 0
M  V30 2529 H 234.451 4.21376 0.0453691 0
M  V30 2530 H 233.126 3.1739 0.636005 0
M  V30 2531 H 232.033 3.34507 -1.67499 0
M  V30 2532 H 233.366 4.40986 -2.18614 0
M  V30 2533 N 235.018 0.912232 1.28515 0
M  V30 2534 C 235.981 0.404223 2.25607 0
M  V30 2535 C 236.981 -0.468602 1.53821 0
M  V30 2536 O 238.171 -0.271873 1.72065 0
M  V30 2537 C 235.303 -0.420653 3.38295 0
M  V30 2538 H 236.496 1.26188 2.7206 0
M  V30 2539 H 234.049 0.691495 1.40171 0
M  V30 2540 H 234.784 -1.29777 2.97201 0
M  V30 2541 H 234.569 0.204935 3.91564 0
M  V30 2542 H 236.059 -0.766971 4.10496 0
M  V30 2543 N 236.496 -1.42363 0.676048 0
M  V30 2544 C 237.744 -2.01123 0.198437 0
M  V30 2545 C 238.065 -1.53731 -1.19966 0
M  V30 2546 O 237.335 -0.759518 -1.80577 0
M  V30 2547 H 235.915 -0.743678 0.0703721 0
M  V30 2548 H 238.577 -1.74263 0.872837 0
M  V30 2549 H 237.673 -3.11454 0.200686 0
M  V30 2550 N 237.974 -0.419461 -1.51915 0
M  V30 2551 C 238.904 0.391813 -2.30189 0
M  V30 2552 C 239.885 1.03699 -1.34836 0
M  V30 2553 O 241.07 1.04403 -1.63748 0
M  V30 2554 C 238.2 1.50312 -3.13087 0
M  V30 2555 C 237.154 0.9824 -4.16573 0
M  V30 2556 C 236.48 2.18809 -4.8788 0
M  V30 2557 C 237.78 0.0292356 -5.22292 0
M  V30 2558 H 239.474 -0.26135 -2.98257 0
M  V30 2559 H 237.02 -0.127134 -1.43438 0
M  V30 2560 H 238.973 2.07773 -3.66617 0
M  V30 2561 H 237.697 2.18431 -2.42807 0
M  V30 2562 H 236.356 0.430119 -3.64068 0
M  V30 2563 H 236.004 2.85507 -4.14119 0
M  V30 2564 H 235.704 1.84615 -5.57845 0
M  V30 2565 H 237.228 2.76858 -5.44226 0
M  V30 2566 H 238.642 0.512976 -5.71 0
M  V30 2567 H 237.039 -0.2244 -5.9968 0
M  V30 2568 H 238.109 -0.912931 -4.76228 0
M  V30 2569 N 239.452 1.56882 -0.150215 0
M  V30 2570 C 240.7 1.9584 0.499105 0
M  V30 2571 C 241.021 1.03623 1.65188 0
M  V30 2572 O 240.291 0.0984084 1.95653 0
M  V30 2573 H 238.871 0.723119 0.187373 0
M  V30 2574 H 241.533 1.9358 -0.226466 0
M  V30 2575 H 240.629 2.99638 0.873122 0
M  V30 2576 N 240.93 -0.123565 1.57115 0
M  V30 2577 C 241.84 -1.17074 2.033 0
M  V30 2578 C 242.856 -1.4561 0.952559 0
M  V30 2579 O 244.032 -1.56817 1.26374 0
M  V30 2580 C 241.097 -2.47857 2.42421 0
M  V30 2581 C 240.158 -2.26758 3.64526 0
M  V30 2582 C 239.391 -3.51305 4.01771 0
M  V30 2583 O 239.614 -4.5843 3.39409 0
M  V30 2584 O 238.548 -3.42578 4.94898 0
M  V30 2585 H 242.374 -0.808555 2.92739 0
M  V30 2586 H 239.959 -0.334027 1.45618 0
M  V30 2587 H 241.841 -3.2492 2.68338 0
M  V30 2588 H 240.516 -2.83558 1.5613 0
M  V30 2589 H 239.423 -1.47569 3.43765 0
M  V30 2590 H 240.756 -1.95963 4.51508 0
M  V30 2591 N 242.408 -1.52605 -0.393616 0
M  V30 2592 C 243.638 -1.71046 -1.15874 0
M  V30 2593 C 244.046 -0.426483 -1.84331 0
M  V30 2594 O 243.389 0.608513 -1.73329 0
M  V30 2595 C 243.451 -2.80118 -2.25332 0
M  V30 2596 C 243.115 -4.21381 -1.76881 0
M  V30 2597 C 244.112 -5.04697 -1.24808 0
M  V30 2598 C 241.797 -4.67683 -1.83244 0
M  V30 2599 C 243.791 -6.32393 -0.797387 0
M  V30 2600 C 241.478 -5.95364 -1.37787 0
M  V30 2601 C 242.476 -6.77549 -0.861208 0
M  V30 2602 O 242.164 -8.02837 -0.413252 0
M  V30 2603 H 241.896 -0.576155 -0.353583 0
M  V30 2604 H 244.45 -2.00018 -0.467123 0
M  V30 2605 H 242.68 -2.46557 -2.97904 0
M  V30 2606 H 244.369 -2.87006 -2.87023 0
M  V30 2607 H 245.135 -4.70111 -1.19252 0
M  V30 2608 H 241.014 -4.03805 -2.22401 0
M  V30 2609 H 244.558 -6.9649 -0.393437 0
M  V30 2610 H 240.455 -6.29455 -1.43026 0
M  V30 2611 H 241.223 -8.16749 -0.53515 0
M  V30 2612 N 243.887 0.651787 -1.4349 0
M  V30 2613 C 244.817 1.77621 -1.51569 0
M  V30 2614 C 245.798 1.66022 -0.370253 0
M  V30 2615 O 246.983 1.85095 -0.587658 0
M  V30 2616 C 244.113 3.16056 -1.43966 0
M  V30 2617 C 243.067 3.4242 -2.56774 0
M  V30 2618 C 242.393 4.8067 -2.34223 0
M  V30 2619 C 243.693 3.37023 -3.99015 0
M  V30 2620 H 245.387 1.71117 -2.45681 0
M  V30 2621 H 242.933 0.821825 -1.18246 0
M  V30 2622 H 244.886 3.94472 -1.48221 0
M  V30 2623 H 243.61 3.23293 -0.463586 0
M  V30 2624 H 242.269 2.66375 -2.51873 0
M  V30 2625 H 241.917 4.84585 -1.34856 0
M  V30 2626 H 241.617 4.9927 -3.09844 0
M  V30 2627 H 243.141 5.61342 -2.40265 0
M  V30 2628 H 244.555 4.05374 -4.05395 0
M  V30 2629 H 242.952 3.67159 -4.74673 0
M  V30 2630 H 244.022 2.3518 -4.2405 0
M  V30 2631 N 245.365 1.30045 0.890287 0
M  V30 2632 C 246.612 1.18561 1.64163 0
M  V30 2633 C 246.94 -0.260852 1.92743 0
M  V30 2634 O 246.195 -1.20376 1.54299 0
M  V30 2635 C 246.494 1.95409 2.99249 0
M  V30 2636 C 246.16 3.45066 2.90242 0
M  V30 2637 C 244.822 3.85878 2.87492 0
M  V30 2638 C 247.174 4.4039 2.78758 0
M  V30 2639 C 244.502 5.20314 2.7109 0
M  V30 2640 C 246.854 5.74928 2.63894 0
M  V30 2641 C 245.518 6.14986 2.59516 0
M  V30 2642 H 244.788 0.433846 0.600715 0
M  V30 2643 H 247.435 1.61088 1.03552 0
M  V30 2644 H 245.74 1.45501 3.63781 0
M  V30 2645 H 247.437 1.8392 3.56334 0
M  V30 2646 H 244.027 3.12631 2.93189 0
M  V30 2647 H 248.211 4.09806 2.79952 0
M  V30 2648 H 243.467 5.50449 2.66112 0
M  V30 2649 H 247.641 6.48434 2.53981 0
M  V30 2650 H 245.268 7.19104 2.46565 0
M  V30 2651 N 246.843 -1.10192 1.12674 0
M  V30 2652 C 247.753 -2.20172 0.810026 0
M  V30 2653 C 248.769 -1.72821 -0.202188 0
M  V30 2654 O 249.945 -2.01369 -0.0351691 0
M  V30 2655 C 247.01 -3.45631 0.272007 0
M  V30 2656 C 246.071 -4.07704 1.34447 0
M  V30 2657 C 245.304 -5.27175 0.832029 0
M  V30 2658 O 245.527 -5.69425 -0.333284 0
M  V30 2659 O 244.461 -5.80168 1.60277 0
M  V30 2660 H 248.287 -2.49701 1.72867 0
M  V30 2661 H 245.872 -1.18977 0.903597 0
M  V30 2662 H 247.754 -4.21394 -0.0230219 0
M  V30 2663 H 246.429 -3.17723 -0.619164 0
M  V30 2664 H 245.336 -3.33614 1.6927 0
M  V30 2665 H 246.669 -4.3982 2.2095 0
M  V30 2666 N 248.321 -0.919034 -1.28029 0
M  V30 2667 C 249.737 -0.617972 -1.4715 0
M  V30 2668 C 249.937 0.835242 -1.83374 0
M  V30 2669 O 248.993 1.61388 -1.94191 0
M  V30 2670 C 250.306 -1.56041 -2.57044 0
M  V30 2671 C 251.854 -1.56769 -2.7091 0
M  V30 2672 C 252.329 -2.49688 -3.83953 0
M  V30 2673 N 253.82 -2.47845 -3.91314 0
M  V30 2674 C 254.555 -3.16437 -4.78179 0
M  V30 2675 N 254.051 -3.94376 -5.69596 0
M  V30 2676 N 255.844 -3.05498 -4.71834 0
M  V30 2677 H 247.995 -1.85866 -1.02798 0
M  V30 2678 H 250.258 -0.797506 -0.512531 0
M  V30 2679 H 249.964 -2.59671 -2.372 0
M  V30 2680 H 249.838 -1.29551 -3.54255 0
M  V30 2681 H 252.225 -0.538745 -2.90141 0
M  V30 2682 H 252.306 -1.87305 -1.74214 0
M  V30 2683 H 251.95 -3.52688 -3.65477 0
M  V30 2684 H 251.88 -2.16453 -4.80058 0
M  V30 2685 H 254.371 -1.91234 -3.25941 0
M  V30 2686 H 254.684 -4.43721 -6.32718 0
M  V30 2687 H 253.029 -3.98481 -5.69419 0
M  V30 2688 H 256.22 -2.44108 -3.99411 0
M  V30 2689 H 256.393 -3.59225 -5.39316 0
M  V30 2690 N 249.799 1.42003 -0.683588 0
M  V30 2691 C 250.729 2.33487 -0.024866 0
M  V30 2692 C 251.71 1.51163 0.779975 0
M  V30 2693 O 252.895 1.79739 0.735362 0
M  V30 2694 C 250.025 3.3487 0.920836 0
M  V30 2695 C 248.979 4.27414 0.223958 0
M  V30 2696 C 248.305 5.19074 1.2832 0
M  V30 2697 C 249.605 5.14445 -0.90242 0
M  V30 2698 H 251.299 2.88819 -0.788921 0
M  V30 2699 H 248.845 1.38873 -0.38083 0
M  V30 2700 H 250.798 3.97787 1.39081 0
M  V30 2701 H 249.522 2.77861 1.71642 0
M  V30 2702 H 248.181 3.65904 -0.225864 0
M  V30 2703 H 247.829 4.58387 2.071 0
M  V30 2704 H 247.529 5.81822 0.821995 0
M  V30 2705 H 249.053 5.84867 1.75392 0
M  V30 2706 H 250.467 5.70998 -0.513272 0
M  V30 2707 H 248.864 5.86072 -1.28997 0
M  V30 2708 H 249.934 4.52322 -1.74737 0
M  V30 2709 N 251.277 0.427512 1.51691 0
M  V30 2710 C 252.505 -0.141191 2.06418 0
M  V30 2711 C 252.92 -1.37303 1.29589 0
M  V30 2712 O 252.277 -1.79059 0.352732 0
M  V30 2713 C 252.328 -0.473266 3.58389 0
M  V30 2714 O 252.049 0.709673 4.32314 0
M  V30 2715 C 253.55 -1.09371 4.29596 0
M  V30 2716 H 250.77 -0.0122747 0.670888 0
M  V30 2717 H 253.314 0.603764 1.95384 0
M  V30 2718 H 251.469 -1.16812 3.69369 0
M  V30 2719 H 251.883 0.42807 5.2275 0
M  V30 2720 H 253.357 -1.27613 5.37046 0
M  V30 2721 H 253.834 -2.072 3.87253 0
M  V30 2722 H 254.44 -0.43853 4.23033 0
M  V30 2723 N 252.755 -1.56801 0.158532 0
M  V30 2724 C 253.685 -2.20347 -0.772609 0
M  V30 2725 C 254.666 -1.15518 -1.24859 0
M  V30 2726 O 255.851 -1.43902 -1.30406 0
M  V30 2727 C 252.981 -2.83417 -2.00729 0
M  V30 2728 C 251.935 -3.94174 -1.66765 0
M  V30 2729 C 251.261 -4.44233 -2.97592 0
M  V30 2730 C 252.561 -5.14392 -0.905447 0
M  V30 2731 H 254.255 -2.98413 -0.242959 0
M  V30 2732 H 251.801 -1.43537 -0.115419 0
M  V30 2733 H 253.754 -3.26543 -2.6636 0
M  V30 2734 H 252.478 -2.02701 -2.56086 0
M  V30 2735 H 251.137 -3.51684 -1.03508 0
M  V30 2736 H 250.785 -3.60325 -3.50963 0
M  V30 2737 H 250.485 -5.18945 -2.75626 0
M  V30 2738 H 252.009 -4.90037 -3.64274 0
M  V30 2739 H 253.423 -5.5429 -1.46408 0
M  V30 2740 H 251.82 -5.9494 -0.7853 0
M  V30 2741 H 252.89 -4.84795 0.100668 0
M  V30 2742 N 254.233 0.115231 -1.57178 0
M  V30 2743 C 255.18 1.14115 -2.00615 0
M  V30 2744 C 256.15 1.40939 -0.878941 0
M  V30 2745 O 257.335 1.52741 -1.14345 0
M  V30 2746 C 254.475 2.46156 -2.4187 0
M  V30 2747 C 253.588 2.26236 -3.68024 0
M  V30 2748 C 252.723 3.51534 -3.98243 0
M  V30 2749 C 251.762 3.26787 -5.17568 0
M  V30 2750 N 250.899 4.44298 -5.43639 0
M  V30 2751 H 255.739 0.763743 -2.88047 0
M  V30 2752 H 253.276 0.365615 -1.42484 0
M  V30 2753 H 255.234 3.23189 -2.63827 0
M  V30 2754 H 253.864 2.81783 -1.57475 0
M  V30 2755 H 252.916 1.40102 -3.5366 0
M  V30 2756 H 254.228 2.03929 -4.55208 0
M  V30 2757 H 253.382 4.36984 -4.20868 0
M  V30 2758 H 252.121 3.76876 -3.09541 0
M  V30 2759 H 251.126 2.39729 -4.94783 0
M  V30 2760 H 252.351 3.02812 -6.0785 0
M  V30 2761 H 250.297 4.69754 -4.57895 0
M  V30 2762 H 250.214 4.25109 -6.25154 0
M  V30 2763 H 251.482 5.3087 -5.70786 0
M  V30 2764 N 255.711 1.52812 0.385517 0
M  V30 2765 C 256.661 1.74219 1.47078 0
M  V30 2766 C 257.645 0.59632 1.49442 0
M  V30 2767 O 258.837 0.85428 1.5502 0
M  V30 2768 C 255.966 1.9176 2.84751 0
M  V30 2769 C 255.052 3.12289 2.86943 0
M  V30 2770 N 255.443 4.34575 2.58802 0
M  V30 2771 C 253.741 3.12605 3.1811 0
M  V30 2772 C 254.442 5.162 2.68166 0
M  V30 2773 N 253.418 4.51964 3.02043 0
M  V30 2774 H 257.22 2.6639 1.24152 0
M  V30 2775 H 254.734 1.51166 0.593504 0
M  V30 2776 H 256.731 2.05218 3.62893 0
M  V30 2777 H 255.391 1.00805 3.08656 0
M  V30 2778 H 256.402 4.62649 2.32759 0
M  V30 2779 H 253.079 2.31472 3.47458 0
M  V30 2780 H 254.469 6.23689 2.49923 0
M  V30 2781 N 257.189 -0.644168 1.43834 0
M  V30 2782 C 258.466 -1.40188 1.36406 0
M  V30 2783 C 258.846 -2.11094 0.0163124 0
M  V30 2784 O 258.194 -2.05426 -1.00062 0
M  V30 2785 C 258.404 -2.3791 2.55343 0
M  V30 2786 C 259.752 -3.01637 2.98832 0
M  V30 2787 O 260.776 -2.48237 2.55455 0
M  V30 2788 O 259.635 -3.98477 3.74003 0
M  V30 2789 H 256.729 -0.626773 0.539523 0
M  V30 2790 H 259.275 -0.670317 1.559 0
M  V30 2791 H 258.047 -1.84525 3.4506 0
M  V30 2792 H 257.67 -3.18503 2.37995 0
M  V30 2793 O 258.706 -1.41006 -0.787381 0
M  V30 2794 H 259.397 -1.30255 -1.43364 0
M  V30 END ATOM
M  V30 BEGIN BOND
M  V30 END BOND
M  V30 END CTAB
M  END
$$$$
