drugbank_target|P02775 Platelet basic protein (DB03635; DB09130)
 OpenBabel12092119443D

  0  0  0     0  0            999 V3000
M  V30 BEGIN CTAB
M  V30 COUNTS 1999 2007 0 0 0
M  V30 BEGIN ATOM
M  V30 1 H -0.908 1.98254 -0.117106 0
M  V30 2 N 0 1.576 0 0
M  V30 3 C 0.933 2.03868 1.02534 0
M  V30 4 C 1.911 0.928543 1.3348 0
M  V30 5 O 3.095 1.19667 1.45644 0
M  V30 6 C 0.222 2.43627 2.35294 0
M  V30 7 C -0.732 3.65373 2.2001 0
M  V30 8 S 0.101 5.13292 1.52614 0
M  V30 9 C 1.257 5.56322 2.86805 0
M  V30 10 H 1.49 2.90518 0.631377 0
M  V30 11 H -0.977 1.52953 0.210867 0
M  V30 12 H 0.981 2.67203 3.11629 0
M  V30 13 H -0.358 1.57376 2.7183 0
M  V30 14 H -1.165 3.90944 3.18086 0
M  V30 15 H -1.563 3.418 1.51819 0
M  V30 16 H 0.729 5.58782 3.83104 0
M  V30 17 H 1.672 6.56266 2.65933 0
M  V30 18 H 2.08 4.83886 2.90714 0
M  V30 19 N 1.4781 -0.272755 1.55222 0
M  V30 20 C 2.7031 -1.02683 1.80197 0
M  V30 21 C 3.1281 -1.79142 0.573551 0
M  V30 22 O 2.4861 -1.74917 -0.476849 0
M  V30 23 C 2.5341 -1.9609 3.02624 0
M  V30 24 O 1.6381 -3.04863 2.77727 0
M  V30 25 H 0.9791 -0.293557 0.595584 0
M  V30 26 H 3.5091 -0.30159 2.02365 0
M  V30 27 H 3.5191 -2.38039 3.31363 0
M  V30 28 H 2.1941 -1.39851 3.91682 0
M  V30 29 H 0.7711 -2.67228 2.60084 0
M  V30 30 N 2.9562 -1.48159 -0.537278 0
M  V30 31 C 3.8862 -1.65029 -1.6519 0
M  V30 32 C 4.8672 -0.499281 -1.62607 0
M  V30 33 O 6.0522 -0.730972 -1.79918 0
M  V30 34 C 3.1822 -1.68303 -3.03795 0
M  V30 35 C 2.1362 -2.8283 -3.21234 0
M  V30 36 C 1.4622 -2.71189 -4.60826 0
M  V30 37 C 2.7622 -4.24211 -3.04701 0
M  V30 38 H 4.4562 -2.58341 -1.51328 0
M  V30 39 H 2.0022 -1.24325 -0.726585 0
M  V30 40 H 3.9552 -1.78693 -3.81637 0
M  V30 41 H 2.6792 -0.715635 -3.18663 0
M  V30 42 H 1.3382 -2.71983 -2.45807 0
M  V30 43 H 0.9862 -1.72435 -4.7252 0
M  V30 44 H 0.6862 -3.48035 -4.7344 0
M  V30 45 H 2.2102 -2.83537 -5.40777 0
M  V30 46 H 3.6242 -4.3593 -3.72341 0
M  V30 47 H 2.0212 -5.01998 -3.28813 0
M  V30 48 H 3.0912 -4.41184 -2.01209 0
M  V30 49 N 4.4343 0.785586 -1.36625 0
M  V30 50 C 5.8503 1.08419 -1.17122 0
M  V30 51 C 6.0503 2.015 0.00208491 0
M  V30 52 O 5.1063 2.43551 0.666278 0
M  V30 53 C 6.4193 1.69498 -2.48377 0
M  V30 54 C 7.9673 1.81821 -2.54775 0
M  V30 55 C 8.4423 2.46315 -3.86126 0
M  V30 56 N 9.9333 2.53779 -3.87492 0
M  V30 57 C 10.6683 3.045 -4.85868 0
M  V30 58 N 10.1643 3.55499 -5.94637 0
M  V30 59 N 11.9573 3.03247 -4.73284 0
M  V30 60 H 4.1083 0.167264 -2.1174 0
M  V30 61 H 6.3713 0.13682 -0.938075 0
M  V30 62 H 6.0773 1.08571 -3.34522 0
M  V30 63 H 5.9513 2.6896 -2.64462 0
M  V30 64 H 8.3383 2.41884 -1.69045 0
M  V30 65 H 8.4193 0.811532 -2.42586 0
M  V30 66 H 8.0633 1.86895 -4.72263 0
M  V30 67 H 7.9933 3.47561 -3.95612 0
M  V30 68 H 10.4843 2.17672 -3.08913 0
M  V30 69 H 10.7973 3.92562 -6.65669 0
M  V30 70 H 9.1423 3.5364 -5.98301 0
M  V30 71 H 12.3333 2.62696 -3.87438 0
M  V30 72 H 12.5063 3.42467 -5.50109 0
M  V30 73 N 5.9124 1.20967 1.01018 0
M  V30 74 C 6.8424 0.988272 2.11555 0
M  V30 75 C 7.8234 -0.0849778 1.69888 0
M  V30 76 O 9.0084 0.0738202 1.9406 0
M  V30 77 C 6.1384 0.546528 3.42973 0
M  V30 78 C 5.0924 1.56375 3.9841 0
M  V30 79 C 4.4184 0.97842 5.25672 0
M  V30 80 C 5.7184 2.94922 4.31066 0
M  V30 81 H 7.4124 1.91276 2.30334 0
M  V30 82 H 4.9584 0.921073 1.1069 0
M  V30 83 H 6.9114 0.378839 4.19694 0
M  V30 84 H 5.6354 -0.413598 3.23971 0
M  V30 85 H 4.2944 1.71891 3.23804 0
M  V30 86 H 3.9424 0.0101688 5.02999 0
M  V30 87 H 3.6424 1.65784 5.63728 0
M  V30 88 H 5.1664 0.821939 6.05043 0
M  V30 89 H 6.5804 2.8288 4.9865 0
M  V30 90 H 4.9774 3.5983 4.80253 0
M  V30 91 H 6.0474 3.4616 3.39561 0
M  V30 92 N 7.3905 -1.2043 1.01659 0
M  V30 93 C 8.6675 -1.8548 0.621004 0
M  V30 94 C 9.0475 -1.9091 -0.900919 0
M  V30 95 O 8.3955 -1.41694 -1.79263 0
M  V30 96 C 8.6055 -3.25119 1.2688 0
M  V30 97 C 9.9535 -4.01403 1.38423 0
M  V30 98 O 10.9775 -3.34473 1.22501 0
M  V30 99 O 9.8365 -5.21265 1.64151 0
M  V30 100 H 6.9305 -0.798761 0.214266 0
M  V30 101 H 9.4765 -1.28019 1.11396 0
M  V30 102 H 8.2485 -3.15932 2.30873 0
M  V30 103 H 7.8715 -3.90212 0.762917 0
M  V30 104 N 8.8686 -0.792821 -1.36206 0
M  V30 105 C 10.0966 -0.378825 -2.03402 0
M  V30 106 C 10.5116 1.00586 -1.59774 0
M  V30 107 O 9.8686 1.64574 -0.788764 0
M  V30 108 C 9.9196 -0.43683 -3.58851 0
M  V30 109 O 9.6406 -1.76691 -4.00889 0
M  V30 110 C 11.1416 -0.0138943 -4.43298 0
M  V30 111 H 8.3616 -0.155673 -0.652692 0
M  V30 112 H 10.9056 -1.07261 -1.74113 0
M  V30 113 H 9.0606 0.208575 -3.86838 0
M  V30 114 H 9.4746 -1.72011 -4.95492 0
M  V30 115 H 10.9486 -0.105615 -5.51899 0
M  V30 116 H 11.4256 1.03915 -4.2673 0
M  V30 117 H 12.0316 -0.63192 -4.20579 0
M  V30 118 N 10.3467 1.47872 -0.545128 0
M  V30 119 C 11.5747 2.06889 -0.021084 0
M  V30 120 C 11.9897 1.39955 1.2672 0
M  V30 121 O 11.3467 0.492036 1.75742 0
M  V30 122 C 11.3977 3.60996 0.190817 0
M  V30 123 O 11.1187 4.25419 -1.04644 0
M  V30 124 C 12.6197 4.36849 0.753521 0
M  V30 125 H 9.8397 0.669785 -0.0403635 0
M  V30 126 H 12.3837 1.90049 -0.755095 0
M  V30 127 H 10.5387 3.77391 0.87492 0
M  V30 128 H 10.9527 5.17785 -0.836611 0
M  V30 129 H 12.4267 5.45399 0.851139 0
M  V30 130 H 12.9037 4.02306 1.762 0
M  V30 131 H 13.5097 4.25169 0.105503 0
M  V30 132 N 11.8248 0.280983 1.55075 0
M  V30 133 C 13.2358 -0.215629 1.85451 0
M  V30 134 C 13.5868 -1.54991 1.203 0
M  V30 135 O 12.7118 -2.10699 0.493435 0
M  V30 136 C 13.3068 -0.398026 3.36454 0
M  V30 137 C 11.8658 -0.838866 3.66933 0
M  V30 138 C 11.0128 0.064458 2.77225 0
M  V30 139 H 13.9638 0.502601 1.50531 0
M  V30 140 H 13.9848 -1.23569 3.59876 0
M  V30 141 H 13.4968 0.573241 3.83843 0
M  V30 142 H 11.5978 -1.8214 3.25048 0
M  V30 143 H 11.7108 -0.672123 4.74362 0
M  V30 144 H 10.0748 -0.452863 2.50642 0
M  V30 145 H 10.8578 1.03172 3.2743 0
M  V30 146 N 13.3029 -1.57598 0.00835791 0
M  V30 147 C 14.5279 -1.95617 -0.689103 0
M  V30 148 C 14.9529 -0.883753 -1.66046 0
M  V30 149 O 14.3109 0.157352 -1.80616 0
M  V30 150 C 14.3589 -3.32736 -1.38994 0
M  V30 151 O 13.4629 -3.27631 -2.50463 0
M  V30 152 H 12.8039 -0.638379 -0.182668 0
M  V30 153 H 15.3339 -2.045 0.064036 0
M  V30 154 H 15.3439 -3.68494 -1.75147 0
M  V30 155 H 14.0189 -4.1034 -0.677778 0
M  V30 156 H 12.5959 -3.03561 -2.16576 0
M  V30 157 N 14.781 0.264519 -1.55364 0
M  V30 158 C 16.021 1.00254 -1.78125 0
M  V30 159 C 16.385 1.83187 -0.575017 0
M  V30 160 O 17.586 2.60029 -0.681042 0
M  V30 161 C 15.857 1.85478 -3.05504 0
M  V30 162 S 17.416 2.6543 -3.49417 0
M  V30 163 H 14.234 0.337522 -0.625779 0
M  V30 164 H 16.836 0.272111 -1.93597 0
M  V30 165 H 15.54 1.23491 -3.9138 0
M  V30 166 H 15.071 2.62827 -2.92721 0
M  V30 167 H 17.086 3.87958 -3.09359 0
M  V30 168 N 16.2591 1.48442 0.529413 0
M  V30 169 C 17.2071 1.63452 1.65487 0
M  V30 170 C 18.2011 0.500955 1.61823 0
M  V30 171 O 19.4071 0.679695 1.66674 0
M  V30 172 H 15.7821 0.514905 0.548066 0
M  V30 173 H 17.7531 2.57975 1.49971 0
M  V30 174 C 16.5021 1.69196 3.03756 0
M  V30 175 H 15.8251 2.55784 3.07269 0
M  V30 176 H 17.2651 1.83743 3.82119 0
M  V30 177 C 15.7241 0.430765 3.34135 0
M  V30 178 O 16.2541 -0.4561 3.99102 0
M  V30 179 N 14.4601 0.302293 2.89023 0
M  V30 180 H 14.0071 1.02496 2.36331 0
M  V30 181 H 13.9651 -0.540546 3.09718 0
M  V30 182 N 17.7372 -0.778329 1.37039 0
M  V30 183 C 18.9622 -1.57248 1.35233 0
M  V30 184 C 19.3872 -1.87999 -0.0615568 0
M  V30 185 O 18.7452 -1.48734 -1.03672 0
M  V30 186 C 18.7932 -2.86353 2.19167 0
M  V30 187 O 17.8972 -3.80442 1.59178 0
M  V30 188 H 17.2382 -0.476569 0.462362 0
M  V30 189 H 19.7682 -0.963853 1.80474 0
M  V30 190 H 19.7782 -3.35519 2.32145 0
M  V30 191 H 18.4532 -2.63299 3.21942 0
M  V30 192 H 17.0302 -3.39067 1.55203 0
M  V30 193 N 19.2153 -1.21501 -1.00376 0
M  V30 194 C 20.1783 -0.976927 -2.07337 0
M  V30 195 C 21.1783 0.0525322 -1.60714 0
M  V30 196 O 22.3683 -0.184869 -1.73216 0
M  V30 197 C 19.5003 -0.473423 -3.37597 0
M  V30 198 H 20.6933 -1.92587 -2.29892 0
M  V30 199 H 18.2463 -1.03217 -1.17371 0
M  V30 200 H 18.9813 0.480379 -3.20722 0
M  V30 201 H 18.7663 -1.216 -3.72768 0
M  V30 202 H 20.2563 -0.32675 -4.1632 0
M  V30 203 N 20.6934 1.19889 -1.02296 0
M  V30 204 C 22.1094 1.41462 -0.738954 0
M  V30 205 C 22.3094 1.89721 0.678846 0
M  V30 206 O 21.3654 2.07016 1.4457 0
M  V30 207 C 22.6784 2.43083 -1.77005 0
M  V30 208 C 24.2264 2.5684 -1.78892 0
M  V30 209 C 24.7014 3.61709 -2.80945 0
M  V30 210 N 26.1924 3.69199 -2.79725 0
M  V30 211 C 26.9274 4.50019 -3.55345 0
M  V30 212 N 26.4234 5.34592 -4.40662 0
M  V30 213 N 28.2164 4.44612 -3.43914 0
M  V30 214 H 20.3674 0.868827 -1.93817 0
M  V30 215 H 22.6304 0.44399 -0.837602 0
M  V30 216 H 22.3364 2.14636 -2.78612 0
M  V30 217 H 22.2104 3.4217 -1.58744 0
M  V30 218 H 24.5974 2.84614 -0.779674 0
M  V30 219 H 24.6784 1.57927 -2.01228 0
M  V30 220 H 24.3224 3.34678 -3.82038 0
M  V30 221 H 24.2524 4.60259 -2.5587 0
M  V30 222 H 26.7434 3.08794 -2.17842 0
M  V30 223 H 27.0564 5.93363 -4.95116 0
M  V30 224 H 25.4014 5.34073 -4.44737 0
M  V30 225 H 28.5924 3.7758 -2.76679 0
M  V30 226 H 28.7654 5.0736 -4.031 0
M  V30 227 N 22.1715 0.800033 1.35784 0
M  V30 228 C 23.5825 0.439142 1.81462 0
M  V30 229 C 23.9335 -1.03813 1.66485 0
M  V30 230 O 23.0585 -1.80626 1.19177 0
M  V30 231 C 23.6535 0.790314 3.29453 0
M  V30 232 C 22.2125 0.482111 3.733 0
M  V30 233 C 21.3595 1.01938 2.57883 0
M  V30 234 H 24.3105 0.992254 1.23855 0
M  V30 235 H 24.3315 0.0853677 3.80404 0
M  V30 236 H 23.8435 1.86554 3.40322 0
M  V30 237 H 21.9445 -0.584652 3.67984 0
M  V30 238 H 22.0575 1.01015 4.6833 0
M  V30 239 H 20.4215 0.442043 2.50835 0
M  V30 240 H 21.2045 2.10059 2.71533 0
M  V30 241 N 23.6496 -1.47581 0.552962 0
M  V30 242 C 24.5796 -2.32762 -0.185451 0
M  V30 243 C 25.5606 -1.43527 -0.912905 0
M  V30 244 O 26.7456 -1.72388 -0.894201 0
M  V30 245 C 23.8756 -3.25219 -1.21859 0
M  V30 246 C 22.8296 -4.23661 -0.607864 0
M  V30 247 C 22.1556 -5.05413 -1.74533 0
M  V30 248 C 23.4556 -5.20481 0.435582 0
M  V30 249 H 25.1496 -2.94749 0.525684 0
M  V30 250 H 22.6956 -1.41738 0.254251 0
M  V30 251 H 24.6486 -3.8365 -1.7433 0
M  V30 252 H 23.3726 -2.61279 -1.95961 0
M  V30 253 H 22.0316 -3.66451 -0.104489 0
M  V30 254 H 21.6796 -4.3788 -2.47529 0
M  V30 255 H 21.3796 -5.72059 -1.34249 0
M  V30 256 H 22.9036 -5.66701 -2.27338 0
M  V30 257 H 24.3176 -5.733 -0.00290157 0
M  V30 258 H 22.7146 -5.95305 0.757067 0
M  V30 259 H 23.7846 -4.66217 1.33303 0
M  V30 260 N 25.1277 -0.289203 -1.54924 0
M  V30 261 C 26.0777 0.606939 -2.19773 0
M  V30 262 C 27.0617 1.10783 -1.16687 0
M  V30 263 O 28.2537 1.05057 -1.4245 0
M  V30 264 C 25.3827 1.78398 -2.93307 0
M  V30 265 C 24.4687 1.29961 -4.03697 0
M  V30 266 N 24.8597 0.532377 -5.0299 0
M  V30 267 C 23.1577 1.58136 -4.17024 0
M  V30 268 C 23.8587 0.275912 -5.81045 0
M  V30 269 N 22.8347 0.852365 -5.36876 0
M  V30 270 H 26.6367 0.0130779 -2.93897 0
M  V30 271 H 24.1507 -0.09341 -1.62131 0
M  V30 272 H 26.1477 2.43741 -3.38225 0
M  V30 273 H 24.8077 2.38166 -2.20697 0
M  V30 274 H 25.8187 0.17838 -5.17593 0
M  V30 275 H 22.4957 2.18738 -3.55612 0
M  V30 276 H 23.8857 -0.339502 -6.71042 0
M  V30 277 N 26.6058 1.57591 -0.0167156 0
M  V30 278 C 27.5688 2.08393 0.954204 0
M  V30 279 C 28.5688 0.996531 1.26198 0
M  V30 280 O 29.7588 1.25858 1.20438 0
M  V30 281 C 26.8908 2.5394 2.27436 0
M  V30 282 H 28.0838 2.95455 0.514451 0
M  V30 283 H 25.6368 1.54582 0.231089 0
M  V30 284 H 26.3718 1.70171 2.76066 0
M  V30 285 H 26.1568 3.33371 2.06412 0
M  V30 286 H 27.6468 2.93512 2.97053 0
M  V30 287 N 28.0839 -0.256276 1.55502 0
M  V30 288 C 29.0139 -1.32102 1.92539 0
M  V30 289 C 29.9949 -1.50684 0.789194 0
M  V30 290 O 31.1799 -1.63449 1.04872 0
M  V30 291 C 28.3099 -2.67752 2.21192 0
M  V30 292 C 27.2639 -2.63878 3.36975 0
M  V30 293 C 26.5899 -4.03236 3.51147 0
M  V30 294 C 27.8899 -2.21682 4.72921 0
M  V30 295 H 29.5839 -1.01351 2.81724 0
M  V30 296 H 27.1299 -0.486105 1.35547 0
M  V30 297 H 29.0829 -3.42365 2.45691 0
M  V30 298 H 27.8069 -3.0012 1.28824 0
M  V30 299 H 26.4659 -1.91722 3.12471 0
M  V30 300 H 26.1139 -4.32854 2.56216 0
M  V30 301 H 25.8139 -4.01535 4.29003 0
M  V30 302 H 27.3379 -4.79563 3.77957 0
M  V30 303 H 28.7519 -2.86023 4.96854 0
M  V30 304 H 27.1489 -2.3111 5.53812 0
M  V30 305 H 28.2189 -1.16833 4.70615 0
M  V30 306 N 29.562 -1.4872 -0.521534 0
M  V30 307 C 30.494 -1.59968 -1.64143 0
M  V30 308 C 31.507 -0.483463 -1.55456 0
M  V30 309 O 32.696 -0.75467 -1.61762 0
M  V30 310 C 29.796 -1.52127 -3.02838 0
M  V30 311 C 28.969 -2.78932 -3.36921 0
M  V30 312 C 28.028 -2.64428 -4.54933 0
M  V30 313 O 27.054 -3.38331 -4.57735 0
M  V30 314 N 28.256 -1.74606 -5.53618 0
M  V30 315 H 31.021 -2.56548 -1.54929 0
M  V30 316 H 28.582 -1.45551 -0.708988 0
M  V30 317 H 30.574 -1.40106 -3.79674 0
M  V30 318 H 29.144 -0.634868 -3.06085 0
M  V30 319 H 28.364 -3.05455 -2.4918 0
M  V30 320 H 29.652 -3.63041 -3.56481 0
M  V30 321 H 29.05 -1.13782 -5.54139 0
M  V30 322 H 27.607 -1.6852 -6.29638 0
M  V30 323 N 31.0401 0.771051 -1.3745 0
M  V30 324 C 32.2861 1.5319 -1.32894 0
M  V30 325 C 32.6191 1.94008 0.0862511 0
M  V30 326 O 31.8941 1.64124 1.04373 0
M  V30 327 C 32.1771 2.79648 -2.26868 0
M  V30 328 C 32.0301 2.45079 -3.77169 0
M  V30 329 C 33.3491 3.81583 -2.19277 0
M  V30 330 H 30.4681 0.555744 -0.484064 0
M  V30 331 H 33.1101 0.884492 -1.68157 0
M  V30 332 H 31.2601 3.34891 -1.96926 0
M  V30 333 H 32.9321 1.95745 -4.1771 0
M  V30 334 H 31.1751 1.77767 -3.95704 0
M  V30 335 H 31.8461 3.35478 -4.38359 0
M  V30 336 H 34.3221 3.35835 -2.45671 0
M  V30 337 H 33.1981 4.67787 -2.87171 0
M  V30 338 H 33.4591 4.25897 -1.18592 0
M  V30 339 N 32.5182 1.22032 0.997298 0
M  V30 340 C 33.4482 1.01065 2.10495 0
M  V30 341 C 34.4292 -0.0669542 1.69968 0
M  V30 342 O 35.6142 0.0943987 1.9397 0
M  V30 343 C 32.7442 0.582874 3.42374 0
M  V30 344 C 31.6982 1.60592 3.96729 0
M  V30 345 C 31.0242 1.03412 5.24605 0
M  V30 346 C 32.3242 2.99478 4.27914 0
M  V30 347 H 34.0182 1.93708 2.28292 0
M  V30 348 H 31.5642 0.932761 1.09707 0
M  V30 349 H 33.5172 0.423332 4.19268 0
M  V30 350 H 32.2412 -0.379213 3.24391 0
M  V30 351 H 30.9002 1.75316 3.21963 0
M  V30 352 H 30.5482 0.063518 5.0296 0
M  V30 353 H 30.2482 1.71754 5.61938 0
M  V30 354 H 31.7722 0.886066 6.04137 0
M  V30 355 H 33.1862 2.88153 4.95622 0
M  V30 356 H 31.5832 3.64903 4.76409 0
M  V30 357 H 32.6532 3.49742 3.3587 0
M  V30 358 N 33.9963 -1.19345 1.0293 0
M  V30 359 C 34.9263 -2.2481 0.631105 0
M  V30 360 C 35.9073 -1.66245 -0.360104 0
M  V30 361 O 37.0923 -1.92677 -0.242726 0
M  V30 362 C 34.2223 -3.47295 -0.0184607 0
M  V30 363 C 33.1763 -4.18536 0.895073 0
M  V30 364 C 32.5023 -5.34586 0.110592 0
M  V30 365 C 33.8023 -4.73287 2.209 0
M  V30 366 H 35.4963 -2.58372 1.51275 0
M  V30 367 H 33.0423 -1.24194 0.728818 0
M  V30 368 H 34.9953 -4.20268 -0.308675 0
M  V30 369 H 33.7193 -3.12933 -0.934907 0
M  V30 370 H 32.3783 -3.47446 1.16949 0
M  V30 371 H 32.0263 -4.96469 -0.807902 0
M  V30 372 H 31.7263 -5.83183 0.719087 0
M  V30 373 H 33.2503 -6.10355 -0.172871 0
M  V30 374 H 34.6643 -5.38013 1.98028 0
M  V30 375 H 33.0613 -5.32373 2.76946 0
M  V30 376 H 34.1313 -3.91331 2.86336 0
M  V30 377 N 35.4744 -0.807222 -1.35358 0
M  V30 378 C 36.4044 -0.232509 -2.3234 0
M  V30 379 C 37.3854 0.642386 -1.57504 0
M  V30 380 O 38.5704 0.572526 -1.85569 0
M  V30 381 C 35.7004 0.619238 -3.41735 0
M  V30 382 C 34.6544 -0.157215 -4.27711 0
M  V30 383 C 33.9804 0.816273 -5.28433 0
M  V30 384 C 35.2804 -1.35656 -5.04376 0
M  V30 385 H 36.9744 -1.04276 -2.80654 0
M  V30 386 H 34.5204 -0.50288 -1.34934 0
M  V30 387 H 36.4734 1.03137 -4.08584 0
M  V30 388 H 35.1974 1.46239 -2.92031 0
M  V30 389 H 33.8564 -0.550525 -3.62443 0
M  V30 390 H 33.5044 1.65494 -4.74996 0
M  V30 391 H 33.2044 0.301067 -5.86828 0
M  V30 392 H 34.7284 1.22659 -5.98153 0
M  V30 393 H 36.1424 -1.01927 -5.64166 0
M  V30 394 H 34.5394 -1.8063 -5.7227 0
M  V30 395 H 35.6094 -2.14288 -4.34981 0
M  V30 396 N 36.9525 1.47285 -0.560781 0
M  V30 397 C 37.8825 2.32857 0.173105 0
M  V30 398 C 38.8635 1.44009 0.905281 0
M  V30 399 O 40.0485 1.7286 0.885046 0
M  V30 400 C 37.1785 3.25861 1.20133 0
M  V30 401 C 36.1325 4.23978 0.585388 0
M  V30 402 C 35.4585 5.06332 1.7185 0
M  V30 403 C 36.7585 5.20242 -0.463178 0
M  V30 404 H 38.4525 2.94466 -0.541307 0
M  V30 405 H 35.9985 1.41601 -0.261764 0
M  V30 406 H 37.9515 3.84569 1.72293 0
M  V30 407 H 36.6755 2.62315 1.94573 0
M  V30 408 H 35.3345 3.66501 0.085054 0
M  V30 409 H 34.9825 4.39186 2.45203 0
M  V30 410 H 34.6825 5.72762 1.31213 0
M  V30 411 H 36.2065 5.67899 2.24329 0
M  V30 412 H 37.6205 5.73293 -0.027502 0
M  V30 413 H 36.0175 5.94896 -0.788627 0
M  V30 414 H 37.0875 4.65504 -1.35773 0
M  V30 415 N 38.4306 0.297415 1.54768 0
M  V30 416 C 39.6556 -0.318435 2.04941 0
M  V30 417 C 40.0806 -1.4701 1.17345 0
M  V30 418 O 39.4386 -1.80436 0.176758 0
M  V30 419 C 39.4866 -0.755749 3.52592 0
M  V30 420 O 38.5906 -1.86088 3.68028 0
M  V30 421 H 37.9316 -0.062421 0.661059 0
M  V30 422 H 40.4616 0.438215 1.99852 0
M  V30 423 H 40.4716 -1.04552 3.94376 0
M  V30 424 H 39.1466 0.0867233 4.1581 0
M  V30 425 H 37.7236 -1.57193 3.38149 0
M  V30 426 N 39.9087 -1.5758 0.0250728 0
M  V30 427 C 40.8387 -2.13007 -0.956575 0
M  V30 428 C 41.8197 -1.0452 -1.342 0
M  V30 429 O 43.0047 -1.32332 -1.42133 0
M  V30 430 C 40.1347 -2.65386 -2.24026 0
M  V30 431 C 39.0887 -3.78623 -1.99571 0
M  V30 432 C 38.4147 -4.17414 -3.3417 0
M  V30 433 C 39.7147 -5.04867 -1.33814 0
M  V30 434 H 41.4087 -2.9528 -0.494991 0
M  V30 435 H 38.9547 -1.42042 -0.236651 0
M  V30 436 H 40.9077 -3.02794 -2.93076 0
M  V30 437 H 39.6317 -1.80268 -2.72343 0
M  V30 438 H 38.2907 -3.41646 -1.32941 0
M  V30 439 H 37.9387 -3.29284 -3.80238 0
M  V30 440 H 37.6387 -4.93719 -3.18615 0
M  V30 441 H 39.1627 -4.57402 -4.04495 0
M  V30 442 H 40.5767 -5.39888 -1.92857 0
M  V30 443 H 38.9737 -5.86144 -1.28669 0
M  V30 444 H 40.0437 -4.83904 -0.310561 0
M  V30 445 N 41.3868 0.248026 -1.55636 0
M  V30 446 C 42.3168 1.31079 -1.93237 0
M  V30 447 C 43.2978 1.50264 -0.797174 0
M  V30 448 O 44.4828 1.62891 -1.05737 0
M  V30 449 C 41.6128 2.66575 -2.22609 0
M  V30 450 C 40.5668 2.62087 -3.3837 0
M  V30 451 C 39.8928 4.01369 -3.53281 0
M  V30 452 C 41.1928 2.19171 -4.7409 0
M  V30 453 H 42.8868 0.998556 -2.82257 0
M  V30 454 H 40.4328 0.47891 -1.35803 0
M  V30 455 H 42.3858 3.41057 -2.47503 0
M  V30 456 H 41.1098 2.99432 -1.30414 0
M  V30 457 H 39.7688 1.90063 -3.13483 0
M  V30 458 H 39.4168 4.31489 -2.58508 0
M  V30 459 H 39.1168 3.99254 -4.31127 0
M  V30 460 H 40.6408 4.77552 -3.80495 0
M  V30 461 H 42.0548 2.83384 -4.98363 0
M  V30 462 H 40.4518 2.2817 -5.5503 0
M  V30 463 H 41.5218 1.14336 -4.71227 0
M  V30 464 N 42.8649 1.48995 0.513639 0
M  V30 465 C 43.7949 1.67636 1.62544 0
M  V30 466 C 44.7759 0.525087 1.61793 0
M  V30 467 O 45.9609 0.759502 1.78732 0
M  V30 468 C 43.0909 1.73114 3.01079 0
M  V30 469 C 42.0449 2.87905 3.16693 0
M  V30 470 C 41.3709 2.78486 4.56453 0
M  V30 471 C 42.6709 4.29005 2.97913 0
M  V30 472 H 44.3649 2.60716 1.47198 0
M  V30 473 H 41.9109 1.25465 0.706714 0
M  V30 474 H 43.8639 1.84742 3.78746 0
M  V30 475 H 42.5879 0.766241 3.17484 0
M  V30 476 H 41.2469 2.75859 2.41448 0
M  V30 477 H 40.8949 1.7993 4.69717 0
M  V30 478 H 40.5949 3.55523 4.67843 0
M  V30 479 H 42.1189 2.92104 5.36197 0
M  V30 480 H 43.5329 4.41798 3.65359 0
M  V30 481 H 41.9299 5.07166 3.20785 0
M  V30 482 H 42.9999 4.44329 1.94165 0
M  V30 483 N 44.343 -0.763751 1.37857 0
M  V30 484 C 45.571 -1.55293 1.36718 0
M  V30 485 C 45.986 -1.88745 -0.0455434 0
M  V30 486 O 45.343 -1.52039 -1.00947 0
M  V30 487 C 45.394 -2.85831 2.2132 0
M  V30 488 O 45.115 -2.5381 3.57089 0
M  V30 489 C 46.616 -3.80023 2.28249 0
M  V30 490 H 43.836 -0.480841 0.468009 0
M  V30 491 H 46.38 -0.946009 1.81303 0
M  V30 492 H 44.535 -3.42926 1.80223 0
M  V30 493 H 44.949 -3.37459 4.01524 0
M  V30 494 H 46.423 -4.68599 2.91752 0
M  V30 495 H 46.9 -4.1973 1.2932 0
M  V30 496 H 47.506 -3.28855 2.69693 0
M  V30 497 N 45.8211 -1.22559 -0.990812 0
M  V30 498 C 46.7841 -0.998863 -2.0629 0
M  V30 499 C 47.7841 0.0354834 -1.60761 0
M  V30 500 O 48.9741 -0.203231 -1.7301 0
M  V30 501 C 46.1061 -0.509203 -3.37076 0
M  V30 502 H 47.2991 -1.95014 -2.27837 0
M  V30 503 H 44.8521 -1.04456 -1.16269 0
M  V30 504 H 45.5871 0.446335 -3.21214 0
M  V30 505 H 45.3721 -1.25547 -3.71457 0
M  V30 506 H 46.8621 -0.370888 -4.1595 0
M  V30 507 N 47.2992 1.18797 -1.03562 0
M  V30 508 C 48.2292 2.24472 -0.643019 0
M  V30 509 C 49.2102 1.66433 0.351283 0
M  V30 510 O 50.3952 1.92803 0.232505 0
M  V30 511 C 47.5252 3.473 4.24935e-05 0
M  V30 512 C 46.4792 4.18055 -0.917257 0
M  V30 513 C 45.8052 5.34519 -0.138941 0
M  V30 514 C 47.1052 4.72109 -2.23407 0
M  V30 515 H 48.7992 2.57566 -1.52643 0
M  V30 516 H 46.3452 1.23806 -0.735394 0
M  V30 517 H 48.2982 4.20426 0.286383 0
M  V30 518 H 47.0222 3.13424 0.918299 0
M  V30 519 H 45.6812 3.46821 -1.1879 0
M  V30 520 H 45.3292 4.96891 0.781562 0
M  V30 521 H 45.0292 5.82794 -0.750005 0
M  V30 522 H 46.5532 6.10438 0.1405 0
M  V30 523 H 47.9672 5.36955 -2.00879 0
M  V30 524 H 46.3642 5.30897 -2.79765 0
M  V30 525 H 47.4342 3.89807 -2.88407 0
M  V30 526 N 48.7773 0.814389 1.34928 0
M  V30 527 C 49.7403 0.235759 2.27984 0
M  V30 528 C 50.7403 -0.581412 1.49921 0
M  V30 529 O 51.9303 -0.398758 1.69575 0
M  V30 530 C 49.0623 -0.670433 3.34242 0
M  V30 531 H 50.2553 1.05659 2.80671 0
M  V30 532 H 47.8083 0.585614 1.44915 0
M  V30 533 H 48.5433 -1.51466 2.86755 0
M  V30 534 H 48.3283 -0.0860822 3.92005 0
M  V30 535 H 49.8183 -1.06935 4.03676 0
M  V30 536 N 50.2554 -1.46986 0.568584 0
M  V30 537 C 51.4804 -2.07335 0.0520528 0
M  V30 538 C 51.9054 -1.41675 -1.23733 0
M  V30 539 O 51.2634 -0.495623 -1.74394 0
M  V30 540 C 51.3114 -3.60417 -0.11501 0
M  V30 541 O 50.4154 -3.95309 -1.17492 0
M  V30 542 H 49.7564 -0.661597 0.0564385 0
M  V30 543 H 52.2864 -1.88837 0.787507 0
M  V30 544 H 52.2964 -4.06698 -0.325644 0
M  V30 545 H 50.9714 -4.07601 0.826675 0
M  V30 546 H 49.5484 -3.60757 -0.943869 0
M  V30 547 N 51.7335 -0.305618 -1.54608 0
M  V30 548 C 52.9585 0.307562 -2.05107 0
M  V30 549 C 53.3835 1.46385 -1.18123 0
M  V30 550 O 52.7415 1.8034 -0.186324 0
M  V30 551 C 52.7895 0.73704 -3.52987 0
M  V30 552 O 51.8935 1.84134 -3.6901 0
M  V30 553 H 51.2345 0.0589143 -0.661381 0
M  V30 554 H 53.7645 -0.448807 -1.99617 0
M  V30 555 H 53.7745 1.02459 -3.94925 0
M  V30 556 H 52.4495 -0.108773 -4.15758 0
M  V30 557 H 51.0265 1.55398 -3.38978 0
M  V30 558 N 53.2116 1.57565 -0.0334293 0
M  V30 559 C 54.4396 1.9628 0.654347 0
M  V30 560 C 54.8546 0.910138 1.65414 0
M  V30 561 O 54.2116 -0.107595 1.82183 0
M  V30 562 C 54.2626 3.35067 1.35693 0
M  V30 563 O 53.9836 4.36296 0.397191 0
M  V30 564 C 55.4846 3.88439 2.13613 0
M  V30 565 H 52.7046 0.646369 0.180132 0
M  V30 566 H 55.2486 2.04282 -0.0944721 0
M  V30 567 H 53.4036 3.2827 2.05712 0
M  V30 568 H 53.8176 5.1678 0.896597 0
M  V30 569 H 55.2916 4.8788 2.58219 0
M  V30 570 H 55.7686 3.22914 2.97696 0
M  V30 571 H 56.3746 3.98516 1.48543 0
M  V30 572 N 54.6897 -0.239769 1.55765 0
M  V30 573 C 55.6367 -1.29696 1.90913 0
M  V30 574 C 56.6067 -1.47478 0.764164 0
M  V30 575 O 57.7917 -1.61345 1.01845 0
M  V30 576 C 54.9317 -2.64598 2.21544 0
M  V30 577 C 54.0447 -2.54765 3.48882 0
M  V30 578 C 53.1797 -3.82069 3.69049 0
M  V30 579 C 52.2187 -3.66883 4.89963 0
M  V30 580 N 51.3557 -4.86094 5.06614 0
M  V30 581 H 56.1957 -0.990224 2.81067 0
M  V30 582 H 53.7327 -0.477684 1.39128 0
M  V30 583 H 55.6907 -3.43132 2.3731 0
M  V30 584 H 54.3207 -2.93405 1.34585 0
M  V30 585 H 53.3727 -1.67763 3.41409 0
M  V30 586 H 54.6847 -2.39457 4.37563 0
M  V30 587 H 53.8387 -4.69046 3.84812 0
M  V30 588 H 52.5777 -4.00282 2.78614 0
M  V30 589 H 51.5827 -2.78289 4.74168 0
M  V30 590 H 52.8077 -3.50157 5.81865 0
M  V30 591 H 50.7537 -5.04655 4.19117 0
M  V30 592 H 50.6707 -4.73443 5.89396 0
M  V30 593 H 51.9387 -5.74549 5.26795 0
M  V30 594 N 56.1678 -1.49265 -0.50573 0
M  V30 595 C 57.4158 -1.582 -1.25766 0
M  V30 596 C 57.7368 -0.268482 -1.93143 0
M  V30 597 O 57.0068 0.711833 -1.8251 0
M  V30 598 H 55.5868 -0.582873 -0.467191 0
M  V30 599 H 58.2488 -1.85865 -0.586525 0
M  V30 600 H 57.3448 -2.37563 -2.02412 0
M  V30 601 N 57.6459 0.756429 -1.3826 0
M  V30 602 C 58.5779 1.87971 -1.31147 0
M  V30 603 C 59.5909 1.61248 -0.224239 0
M  V30 604 O 60.7799 1.71881 -0.481581 0
M  V30 605 C 57.8799 3.23545 -1.00857 0
M  V30 606 C 57.0529 3.77794 -2.20432 0
M  V30 607 C 56.1119 4.91877 -1.86931 0
M  V30 608 O 55.1379 5.06659 -2.59395 0
M  V30 609 N 56.3399 5.74643 -0.822568 0
M  V30 610 H 59.1049 1.94585 -2.2794 0
M  V30 611 H 56.6659 0.936234 -1.32084 0
M  V30 612 H 58.6579 3.97403 -0.765021 0
M  V30 613 H 57.2279 3.12335 -0.128687 0
M  V30 614 H 56.4479 2.95534 -2.6087 0
M  V30 615 H 57.7359 4.10771 -3.00241 0
M  V30 616 H 57.1339 5.65266 -0.221575 0
M  V30 617 H 55.6909 6.48661 -0.638899 0
M  V30 618 N 59.124 1.23083 0.984299 0
M  V30 619 C 60.352 1.08714 1.76037 0
M  V30 620 C 60.767 -0.361691 1.85303 0
M  V30 621 O 60.124 -1.25034 1.32939 0
M  V30 622 C 60.175 1.70206 3.18923 0
M  V30 623 O 59.896 3.09423 3.10144 0
M  V30 624 C 61.397 1.61227 4.12941 0
M  V30 625 H 58.617 0.380664 0.552572 0
M  V30 626 H 61.161 1.62853 1.23689 0
M  V30 627 H 59.316 1.20109 3.6831 0
M  V30 628 H 59.73 3.39188 4.00065 0
M  V30 629 H 61.204 2.08962 5.10919 0
M  V30 630 H 61.681 0.570375 4.35481 0
M  V30 631 H 62.287 2.10671 3.69456 0
M  V30 632 N 60.6021 -1.18246 1.0419 0
M  V30 633 C 61.5491 -2.2192 0.634037 0
M  V30 634 C 62.5191 -1.62179 -0.358765 0
M  V30 635 O 63.7041 -1.89122 -0.252466 0
M  V30 636 C 60.8441 -3.451 0.00445535 0
M  V30 637 C 59.9571 -4.19174 1.04487 0
M  V30 638 C 59.0921 -5.29813 0.383676 0
M  V30 639 C 58.1311 -5.9566 1.4091 0
M  V30 640 N 57.2681 -6.97834 0.772784 0
M  V30 641 H 62.1081 -2.56164 1.52263 0
M  V30 642 H 59.6451 -1.25843 0.761701 0
M  V30 643 H 61.6031 -4.15485 -0.377919 0
M  V30 644 H 60.2331 -3.11472 -0.847652 0
M  V30 645 H 59.2851 -3.47604 1.54518 0
M  V30 646 H 60.5971 -4.64267 1.82368 0
M  V30 647 H 59.7511 -6.06677 -0.0528366 0
M  V30 648 H 58.4901 -4.85825 -0.427208 0
M  V30 649 H 57.4951 -5.17535 1.85574 0
M  V30 650 H 58.7201 -6.4173 2.22171 0
M  V30 651 H 56.6661 -6.55998 -0.0177708 0
M  V30 652 H 56.5831 -7.41186 1.48928 0
M  V30 653 H 57.8511 -7.78665 0.36071 0
M  V30 654 N 62.0802 -0.821533 -1.34494 0
M  V30 655 C 63.4962 -0.507117 -1.51329 0
M  V30 656 C 63.6962 0.968964 -1.76673 0
M  V30 657 O 62.7522 1.75348 -1.81685 0
M  V30 658 C 64.0652 -1.36544 -2.67911 0
M  V30 659 C 65.6132 -1.36242 -2.81793 0
M  V30 660 C 66.0882 -2.2052 -4.01416 0
M  V30 661 N 67.5792 -2.18136 -4.08621 0
M  V30 662 C 68.3142 -2.80095 -5.00334 0
M  V30 663 N 67.8102 -3.51039 -5.9728 0
M  V30 664 N 69.6032 -2.69656 -4.93196 0
M  V30 665 H 61.7542 -1.77729 -1.16302 0
M  V30 666 H 64.0172 -0.757291 -0.570276 0
M  V30 667 H 63.7232 -2.41361 -2.55808 0
M  V30 668 H 63.5972 -1.02917 -3.62888 0
M  V30 669 H 65.9842 -0.322041 -2.93338 0
M  V30 670 H 66.0652 -1.73866 -1.87628 0
M  V30 671 H 65.7092 -3.24607 -3.90631 0
M  V30 672 H 65.6392 -1.80247 -4.94791 0
M  V30 673 H 68.1302 -1.6653 -3.39229 0
M  V30 674 H 68.4432 -3.95565 -6.63889 0
M  V30 675 H 66.7882 -3.55145 -5.97409 0
M  V30 676 H 69.9792 -2.13808 -4.16418 0
M  V30 677 H 70.1522 -3.1823 -5.64476 0
M  V30 678 N 63.5583 1.46682 -0.576371 0
M  V30 679 C 64.5063 2.31953 0.17335 0
M  V30 680 C 65.5003 1.44098 0.89062 0
M  V30 681 O 66.7063 1.60759 0.809728 0
M  V30 682 H 63.0813 0.748273 0.0747727 0
M  V30 683 H 65.0523 2.93007 -0.564738 0
M  V30 684 C 63.8013 3.27142 1.17786 0
M  V30 685 H 63.1243 3.94719 0.635361 0
M  V30 686 H 64.5643 3.896 1.67296 0
M  V30 687 C 63.0233 2.52036 2.23561 0
M  V30 688 O 63.5533 2.27877 3.3081 0
M  V30 689 N 61.7593 2.12709 1.97998 0
M  V30 690 H 61.3063 2.32557 1.10792 0
M  V30 691 H 61.2643 1.62776 2.68982 0
M  V30 692 N 65.0364 0.313813 1.54444 0
M  V30 693 C 65.9664 -0.549454 2.26943 0
M  V30 694 C 66.9474 -1.12741 1.27372 0
M  V30 695 O 68.1324 -1.15436 1.56167 0
M  V30 696 C 65.2624 -1.71523 3.01989 0
M  V30 697 C 64.2164 -1.26703 4.08816 0
M  V30 698 C 63.5424 -2.51898 4.71647 0
M  V30 699 C 64.8424 -0.388962 5.2085 0
M  V30 700 H 66.5364 0.0552661 2.99349 0
M  V30 701 H 64.0824 0.0280207 1.43973 0
M  V30 702 H 66.0354 -2.32535 3.51433 0
M  V30 703 H 64.7594 -2.34639 2.27183 0
M  V30 704 H 63.4184 -0.679896 3.6024 0
M  V30 705 H 63.0664 -3.13356 3.93468 0
M  V30 706 H 62.7664 -2.22605 5.43802 0
M  V30 707 H 64.2904 -3.1369 5.23861 0
M  V30 708 H 65.7044 -0.905107 5.6611 0
M  V30 709 H 64.1014 -0.18924 5.99802 0
M  V30 710 H 65.1714 0.582699 4.81386 0
M  V30 711 N 66.5145 -1.57545 0.0417849 0
M  V30 712 C 67.4775 -2.09885 -0.92093 0
M  V30 713 C 68.4775 -1.01648 -1.24596 0
M  V30 714 O 69.6675 -1.27759 -1.1842 0
M  V30 715 C 66.7995 -2.57527 -2.23367 0
M  V30 716 H 67.9925 -2.96236 -0.467382 0
M  V30 717 H 65.5455 -1.5493 -0.206467 0
M  V30 718 H 66.2805 -1.74542 -2.73323 0
M  V30 719 H 66.0655 -3.36613 -2.01083 0
M  V30 720 H 67.5555 -2.98201 -2.92346 0
M  V30 721 N 67.9926 0.231505 -1.5589 0
M  V30 722 C 68.9396 1.28682 -1.91598 0
M  V30 723 C 69.9096 1.47071 -0.771974 0
M  V30 724 O 71.0946 1.60802 -1.027 0
M  V30 725 C 68.2346 2.6342 -2.22944 0
M  V30 726 C 67.3476 2.52912 -3.50228 0
M  V30 727 C 66.4826 3.80106 -3.7107 0
M  V30 728 C 65.5216 3.64279 -4.91902 0
M  V30 729 N 64.6586 4.834 -5.09184 0
M  V30 730 H 69.4986 0.975305 -2.81588 0
M  V30 731 H 67.0356 0.470299 -1.39379 0
M  V30 732 H 68.9936 3.41869 -2.39126 0
M  V30 733 H 67.6236 2.92687 -1.36139 0
M  V30 734 H 66.6756 1.6595 -3.42294 0
M  V30 735 H 67.9876 2.37133 -4.38827 0
M  V30 736 H 67.1416 4.66999 -3.87295 0
M  V30 737 H 65.8806 3.98799 -2.80733 0
M  V30 738 H 64.8856 2.7577 -4.75637 0
M  V30 739 H 66.1106 3.47067 -5.83714 0
M  V30 740 H 64.0566 5.02425 -4.21788 0
M  V30 741 H 63.9736 4.70311 -5.91898 0
M  V30 742 H 65.2416 5.71747 -5.29835 0
M  V30 743 N 69.4707 1.49531 0.497807 0
M  V30 744 C 70.7187 1.58865 1.24926 0
M  V30 745 C 71.0397 0.278721 1.92998 0
M  V30 746 O 70.3097 -0.702144 1.82885 0
M  V30 747 H 68.8897 0.585343 0.464094 0
M  V30 748 H 71.5517 1.86174 0.57666 0
M  V30 749 H 70.6477 2.38633 2.01149 0
M  V30 750 N 70.9488 -0.749086 1.3866 0
M  V30 751 C 71.8958 -1.86291 1.36251 0
M  V30 752 C 72.8658 -1.64578 0.224347 0
M  V30 753 O 74.0508 -1.86181 0.417279 0
M  V30 754 C 71.1908 -3.23644 1.19786 0
M  V30 755 C 70.3038 -3.57158 2.43027 0
M  V30 756 C 69.4388 -4.83838 2.19258 0
M  V30 757 C 68.4778 -5.10152 3.38247 0
M  V30 758 N 67.6148 -6.28029 3.13884 0
M  V30 759 H 72.4548 -1.87685 2.3147 0
M  V30 760 H 69.9918 -0.917287 1.14997 0
M  V30 761 H 71.9498 -4.0291 1.08254 0
M  V30 762 H 70.5798 -3.21566 0.282031 0
M  V30 763 H 69.6318 -2.72701 2.65214 0
M  V30 764 H 70.9438 -3.7253 3.31697 0
M  V30 765 H 70.0978 -5.71057 2.04888 0
M  V30 766 H 68.8368 -4.70614 1.2796 0
M  V30 767 H 67.8418 -4.21401 3.53131 0
M  V30 768 H 69.0668 -5.25271 4.30427 0
M  V30 769 H 67.0128 -6.1612 2.25238 0
M  V30 770 H 66.9298 -6.43922 3.96106 0
M  V30 771 H 68.1978 -7.18124 3.03179 0
M  V30 772 N 72.4269 -1.23603 -0.977757 0
M  V30 773 C 73.3369 -1.03632 -2.1047 0
M  V30 774 C 74.3529 0.0199435 -1.73989 0
M  V30 775 O 75.5289 -0.176076 -2.00629 0
M  V30 776 C 72.5939 -0.63276 -3.40877 0
M  V30 777 C 71.6549 -1.76437 -3.91367 0
M  V30 778 C 70.8879 -1.37997 -5.15551 0
M  V30 779 O 71.1109 -0.265357 -5.69782 0
M  V30 780 O 70.0449 -2.20201 -5.60174 0
M  V30 781 H 73.8709 -1.98086 -2.30208 0
M  V30 782 H 71.4559 -1.02332 -1.08851 0
M  V30 783 H 73.3379 -0.418761 -4.19314 0
M  V30 784 H 72.0129 0.282754 -3.22463 0
M  V30 785 H 70.9199 -2.03304 -3.14036 0
M  V30 786 H 72.2529 -2.6583 -4.14241 0
M  V30 787 N 73.905 1.17692 -1.04816 0
M  V30 788 C 74.815 2.25229 -0.65643 0
M  V30 789 C 75.831 1.71018 0.320761 0
M  V30 790 O 77.007 2.00649 0.173805 0
M  V30 791 C 74.072 3.46684 -0.0332629 0
M  V30 792 C 73.133 4.15997 -1.06042 0
M  V30 793 C 72.366 5.31654 -0.466893 0
M  V30 794 O 72.589 5.65777 0.724758 0
M  V30 795 O 71.523 5.89831 -1.1993 0
M  V30 796 H 75.349 2.61016 -1.55255 0
M  V30 797 H 72.934 1.24919 -0.81949 0
M  V30 798 H 74.816 4.20234 0.313256 0
M  V30 799 H 73.491 3.12703 0.836566 0
M  V30 800 H 72.398 3.44482 -1.45886 0
M  V30 801 H 73.731 4.53996 -1.90127 0
M  V30 802 N 75.3831 0.828654 1.34056 0
M  V30 803 C 76.6081 0.431637 2.02859 0
M  V30 804 C 77.0331 -0.956339 1.61975 0
M  V30 805 O 76.3911 -1.62338 0.807228 0
M  V30 806 C 76.4391 0.548323 3.56407 0
M  V30 807 O 75.5431 -0.429556 4.10157 0
M  V30 808 H 74.8841 0.176886 0.640006 0
M  V30 809 H 77.4141 1.12066 1.71179 0
M  V30 810 H 77.4241 0.426196 4.05768 0
M  V30 811 H 76.0991 1.5606 3.8551 0
M  V30 812 H 74.6761 -0.265836 3.71951 0
M  V30 813 N 76.8612 -1.46375 0.584142 0
M  V30 814 C 77.7912 -2.33103 -0.136037 0
M  V30 815 C 78.7722 -1.45431 -0.882255 0
M  V30 816 O 79.9572 -1.74246 -0.857434 0
M  V30 817 C 77.0872 -3.27731 -1.14933 0
M  V30 818 C 76.0412 -4.24855 -0.517862 0
M  V30 819 C 75.3672 -5.09001 -1.63773 0
M  V30 820 C 76.6672 -5.19439 0.545886 0
M  V30 821 H 78.3612 -2.93568 0.588086 0
M  V30 822 H 75.9072 -1.41166 0.284259 0
M  V30 823 H 77.8602 -3.87261 -1.66153 0
M  V30 824 H 76.5842 -2.65377 -1.90375 0
M  V30 825 H 75.2432 -3.6659 -0.0267361 0
M  V30 826 H 74.8912 -4.43031 -2.38185 0
M  V30 827 H 74.5912 -5.74777 -1.22085 0
M  V30 828 H 76.1152 -5.71396 -2.15266 0
M  V30 829 H 77.5292 -5.73177 0.118704 0
M  V30 830 H 75.9262 -5.93566 0.88317 0
M  V30 831 H 76.9962 -4.63285 1.43162 0
M  V30 832 N 78.3393 -0.321999 -1.54275 0
M  V30 833 C 79.6163 0.335232 -1.92706 0
M  V30 834 C 79.9963 1.70006 -1.25145 0
M  V30 835 O 79.3443 2.25067 -0.394596 0
M  V30 836 C 79.5543 0.429008 -3.46353 0
M  V30 837 C 80.9023 0.690029 -4.18956 0
M  V30 838 O 81.9263 0.511992 -3.52501 0
M  V30 839 O 80.7853 1.03338 -5.36641 0
M  V30 840 H 77.8793 0.191143 -0.804608 0
M  V30 841 H 80.4253 -0.3716 -1.65581 0
M  V30 842 H 79.1973 -0.529611 -3.87699 0
M  V30 843 H 78.8203 1.18348 -3.79578 0
M  V30 844 N 79.8174 1.5752 -0.0501392 0
M  V30 845 C 81.0424 1.97376 0.636997 0
M  V30 846 C 81.4674 0.927466 1.63645 0
M  V30 847 O 80.8254 -0.10941 1.8097 0
M  V30 848 C 80.8734 3.36304 1.30123 0
M  V30 849 O 79.9774 3.34156 2.41689 0
M  V30 850 H 79.3184 0.642998 0.165679 0
M  V30 851 H 81.8484 2.04258 -0.118233 0
M  V30 852 H 81.8584 3.73008 1.65315 0
M  V30 853 H 80.5334 4.11993 0.568746 0
M  V30 854 H 79.1104 3.09196 2.08451 0
M  V30 855 N 81.2955 -0.223234 1.56011 0
M  V30 856 C 82.5725 -0.972108 1.69733 0
M  V30 857 C 82.9525 -2.02485 0.59691 0
M  V30 858 O 82.3005 -2.25037 -0.396324 0
M  V30 859 C 82.5105 -1.58407 3.10979 0
M  V30 860 C 83.8585 -2.07696 3.70334 0
M  V30 861 O 84.8825 -1.68304 3.1393 0
M  V30 862 O 83.7415 -2.80096 4.69264 0
M  V30 863 H 80.8355 -0.453993 0.691245 0
M  V30 864 H 83.3815 -0.215149 1.68331 0
M  V30 865 H 82.1535 -0.823831 3.82529 0
M  V30 866 H 81.7765 -2.40661 3.16493 0
M  V30 867 N 82.7736 -1.49793 -0.48987 0
M  V30 868 C 83.7036 -1.70201 -1.59856 0
M  V30 869 C 84.6846 -0.55076 -1.60937 0
M  V30 870 O 85.8696 -0.787841 -1.77501 0
M  V30 871 C 82.9996 -1.77882 -2.98287 0
M  V30 872 C 81.9536 -2.92907 -3.12073 0
M  V30 873 C 81.2796 -2.85712 -4.51965 0
M  V30 874 C 82.5796 -4.3369 -2.91051 0
M  V30 875 H 84.2736 -2.63025 -1.43032 0
M  V30 876 H 81.8196 -1.26574 -0.686664 0
M  V30 877 H 83.7726 -1.90744 -3.75759 0
M  V30 878 H 82.4966 -0.816653 -3.16225 0
M  V30 879 H 81.1556 -2.79665 -2.37029 0
M  V30 880 H 80.8036 -1.8738 -4.66795 0
M  V30 881 H 80.5036 -3.62921 -4.62128 0
M  V30 882 H 82.0276 -3.00598 -5.31482 0
M  V30 883 H 83.4416 -4.47555 -3.58284 0
M  V30 884 H 81.8386 -5.12205 -3.12675 0
M  V30 885 H 82.9086 -4.47362 -1.87071 0
M  V30 886 N 84.2517 0.741722 -1.39055 0
M  V30 887 C 85.4817 1.52876 -1.3897 0
M  V30 888 C 85.8897 1.8919 0.0193266 0
M  V30 889 O 85.2327 1.54138 0.999356 0
M  V30 890 C 85.2947 2.84929 -2.19216 0
M  V30 891 C 84.9587 2.71086 -3.67915 0
M  V30 892 C 85.9557 2.40084 -4.61146 0
M  V30 893 C 83.6407 2.88168 -4.11418 0
M  V30 894 C 85.6347 2.26335 -5.95862 0
M  V30 895 C 83.3217 2.74037 -5.46211 0
M  V30 896 C 84.3197 2.43166 -6.38247 0
M  V30 897 O 84.0077 2.29115 -7.70559 0
M  V30 898 H 83.7397 0.479252 -0.476753 0
M  V30 899 H 86.2937 0.924751 -1.83405 0
M  V30 900 H 84.5237 3.47564 -1.69518 0
M  V30 901 H 86.2127 3.46509 -2.11392 0
M  V30 902 H 86.9787 2.26545 -4.28838 0
M  V30 903 H 82.8577 3.11191 -3.40119 0
M  V30 904 H 86.4017 2.0216 -6.67665 0
M  V30 905 H 82.2987 2.87153 -5.78112 0
M  V30 906 H 83.0667 2.44237 -7.81211 0
M  V30 907 N 85.7298 1.2412 0.971189 0
M  V30 908 C 86.6928 1.03156 2.04674 0
M  V30 909 C 87.6928 -0.00990322 1.60797 0
M  V30 910 O 88.8828 0.230729 1.72665 0
M  V30 911 C 86.0148 0.562765 3.36223 0
M  V30 912 H 87.2078 1.98614 2.24705 0
M  V30 913 H 84.7608 1.06293 1.14593 0
M  V30 914 H 85.4958 -0.395176 3.21883 0
M  V30 915 H 85.2808 1.31441 3.69413 0
M  V30 916 H 86.7708 0.437015 4.15307 0
M  V30 917 N 87.2079 -1.17134 1.05439 0
M  V30 918 C 88.1179 -2.24878 0.668365 0
M  V30 919 C 89.1339 -1.71186 -0.311687 0
M  V30 920 O 90.3099 -2.00738 -0.163161 0
M  V30 921 C 87.3749 -3.46662 0.051648 0
M  V30 922 C 86.4359 -4.15429 1.08246 0
M  V30 923 C 85.6689 -5.31399 0.495082 0
M  V30 924 O 85.8919 -5.66153 -0.694743 0
M  V30 925 O 84.8259 -5.89187 1.23056 0
M  V30 926 H 88.6519 -2.60189 1.56637 0
M  V30 927 H 86.2369 -1.24482 0.826104 0
M  V30 928 H 88.1189 -4.20394 -0.290966 0
M  V30 929 H 86.7939 -3.13142 -0.819971 0
M  V30 930 H 85.7009 -3.43704 1.47711 0
M  V30 931 H 87.0339 -4.52982 1.92532 0
M  V30 932 N 88.686 -0.835752 -1.33615 0
M  V30 933 C 89.616 -0.281739 -2.31794 0
M  V30 934 C 90.597 0.608833 -1.58831 0
M  V30 935 O 91.782 0.533035 -1.86741 0
M  V30 936 C 88.912 0.546612 -3.42971 0
M  V30 937 C 87.866 -0.247904 -4.27281 0
M  V30 938 C 87.192 0.704001 -5.30045 0
M  V30 939 C 88.492 -1.46324 -5.01385 0
M  V30 940 H 90.186 -1.10206 -2.78379 0
M  V30 941 H 87.732 -0.531388 -1.33837 0
M  V30 942 H 89.685 0.944467 -4.1068 0
M  V30 943 H 88.409 1.40011 -2.95067 0
M  V30 944 H 87.068 -0.627281 -3.61194 0
M  V30 945 H 86.716 1.55381 -4.78399 0
M  V30 946 H 86.416 0.176524 -5.87335 0
M  V30 947 H 87.94 1.09944 -6.0062 0
M  V30 948 H 89.354 -1.13871 -5.61877 0
M  V30 949 H 87.751 -1.92728 -5.6831 0
M  V30 950 H 88.821 -2.23467 -4.30338 0
M  V30 951 N 90.1641 1.46063 -0.591896 0
M  V30 952 C 91.5801 1.57561 -0.254288 0
M  V30 953 C 91.7801 1.58565 1.24336 0
M  V30 954 O 90.8361 1.50753 2.02558 0
M  V30 955 C 92.1491 2.86549 -0.911611 0
M  V30 956 C 93.6971 3.00197 -0.886059 0
M  V30 957 C 94.1721 4.31933 -1.5231 0
M  V30 958 N 95.6631 4.38654 -1.48786 0
M  V30 959 C 96.3981 5.39222 -1.95006 0
M  V30 960 N 95.8941 6.46414 -2.49241 0
M  V30 961 N 97.6871 5.3048 -1.85868 0
M  V30 962 H 89.8381 1.43655 -1.56451 0
M  V30 963 H 92.1011 0.68583 -0.654478 0
M  V30 964 H 91.8071 2.91651 -1.96551 0
M  V30 965 H 91.6811 3.74794 -0.425368 0
M  V30 966 H 94.0681 2.9467 0.159246 0
M  V30 967 H 94.1491 2.13403 -1.41041 0
M  V30 968 H 93.7931 4.38217 -2.56765 0
M  V30 969 H 93.7231 5.17516 -0.973891 0
M  V30 970 H 96.2141 3.61793 -1.09151 0
M  V30 971 H 96.5271 7.19376 -2.82344 0
M  V30 972 H 94.8721 6.47208 -2.53272 0
M  V30 973 H 98.0631 4.45643 -1.43248 0
M  V30 974 H 98.2361 6.08711 -2.22204 0
M  V30 975 N 91.6422 0.330177 1.54103 0
M  V30 976 C 92.8822 -0.270916 2.02597 0
M  V30 977 C 93.2462 -1.48826 1.21304 0
M  V30 978 O 94.4472 -2.16266 1.59633 0
M  V30 979 C 92.7182 -0.590328 3.52491 0
M  V30 980 S 94.2772 -1.17014 4.2291 0
M  V30 981 H 91.0952 -0.0815379 0.706309 0
M  V30 982 H 93.6972 0.464835 1.89893 0
M  V30 983 H 92.4012 0.303691 4.09275 0
M  V30 984 H 91.9322 -1.3561 3.69288 0
M  V30 985 H 93.9472 -2.45662 4.3112 0
M  V30 986 N 93.1203 -1.57491 0.0584922 0
M  V30 987 C 94.0533 -2.07533 -0.948969 0
M  V30 988 C 95.0313 -0.977444 -1.29942 0
M  V30 989 O 96.2153 -1.2499 -1.41102 0
M  V30 990 C 93.3423 -2.52192 -2.2609 0
M  V30 991 C 92.3883 -3.73287 -2.06298 0
M  V30 992 S 93.2213 -5.18603 -1.33459 0
M  V30 993 C 94.3773 -5.66583 -2.65959 0
M  V30 994 H 94.6103 -2.92662 -0.523118 0
M  V30 995 H 92.1433 -1.53631 -0.153954 0
M  V30 996 H 94.1013 -2.78585 -3.01498 0
M  V30 997 H 92.7623 -1.67356 -2.65802 0
M  V30 998 H 91.9553 -4.0248 -3.03357 0
M  V30 999 H 91.5573 -3.47199 -1.39029 0
M  V30 1000 H 93.8493 -5.72616 -3.62101 0
M  V30 1001 H 94.7923 -6.65684 -2.41393 0
M  V30 1002 H 95.2003 -4.94342 -2.72554 0
M  V30 1003 N 94.5984 0.214957 -1.56127 0
M  V30 1004 C 95.8384 0.945364 -1.81224 0
M  V30 1005 C 96.2024 1.81265 -0.633005 0
M  V30 1006 O 97.4034 2.57731 -0.763423 0
M  V30 1007 C 95.6744 1.75665 -3.1125 0
M  V30 1008 S 97.2334 2.54179 -3.57685 0
M  V30 1009 H 94.0514 0.317443 -0.6362 0
M  V30 1010 H 96.6534 0.210381 -1.94365 0
M  V30 1011 H 95.3574 1.10977 -3.9511 0
M  V30 1012 H 94.8884 2.53381 -3.00934 0
M  V30 1013 H 96.9034 3.7792 -3.21545 0
M  V30 1014 N 96.0765 1.50051 0.48192 0
M  V30 1015 C 97.3255 1.59741 1.23149 0
M  V30 1016 C 97.6385 0.298163 1.93314 0
M  V30 1017 O 98.8445 0.273835 2.70116 0
M  V30 1018 C 97.3005 2.81926 2.23708 0
M  V30 1019 C 96.9085 4.18685 1.59396 0
M  V30 1020 C 98.6525 3.00956 2.99375 0
M  V30 1021 C 96.5595 5.3207 2.58178 0
M  V30 1022 H 95.4895 0.594838 0.46334 0
M  V30 1023 H 98.1405 1.76467 0.503169 0
M  V30 1024 H 96.5225 2.58736 2.99786 0
M  V30 1025 H 97.6965 4.52088 0.891811 0
M  V30 1026 H 96.0115 4.05171 0.960503 0
M  V30 1027 H 98.6085 3.82836 3.73283 0
M  V30 1028 H 98.9515 2.12258 3.58123 0
M  V30 1029 H 99.4845 3.24277 2.30411 0
M  V30 1030 H 96.2235 6.22888 2.04184 0
M  V30 1031 H 95.7435 5.03098 3.26577 0
M  V30 1032 H 97.4225 5.62196 3.20225 0
M  V30 1033 N 97.5546 -0.734337 1.39446 0
M  V30 1034 C 98.5016 -1.84835 1.38219 0
M  V30 1035 C 99.4716 -1.64331 0.24179 0
M  V30 1036 O 100.657 -1.85728 0.437002 0
M  V30 1037 C 97.7966 -3.22355 1.23212 0
M  V30 1038 C 96.9096 -3.5456 2.46801 0
M  V30 1039 C 96.0446 -4.81485 2.24377 0
M  V30 1040 C 95.0836 -5.06536 3.43639 0
M  V30 1041 N 94.2206 -6.24665 3.20528 0
M  V30 1042 H 99.0606 -1.85219 2.33448 0
M  V30 1043 H 96.5976 -0.905039 1.15963 0
M  V30 1044 H 98.5556 -4.0174 1.12522 0
M  V30 1045 H 97.1856 -3.21248 0.316121 0
M  V30 1046 H 96.2376 -2.69872 2.68092 0
M  V30 1047 H 97.5496 -3.6899 3.3563 0
M  V30 1048 H 96.7036 -5.68852 2.10933 0
M  V30 1049 H 95.4426 -4.6923 1.32944 0
M  V30 1050 H 94.4476 -4.17632 3.5758 0
M  V30 1051 H 95.6726 -5.20676 4.35974 0
M  V30 1052 H 93.6186 -6.13696 2.3176 0
M  V30 1053 H 93.5356 -6.39685 4.02913 0
M  V30 1054 H 94.8036 -7.14868 3.10779 0
M  V30 1055 N 99.0327 -1.24633 -0.964593 0
M  V30 1056 C 100.261 -1.11501 -1.74285 0
M  V30 1057 C 100.676 0.332165 -1.85855 0
M  V30 1058 O 100.033 1.22903 -1.34911 0
M  V30 1059 C 100.084 -1.75258 -3.16175 0
M  V30 1060 O 99.8047 -3.14318 -3.05182 0
M  V30 1061 C 101.306 -1.67776 -4.10324 0
M  V30 1062 H 98.5257 -0.389407 -0.546446 0
M  V30 1063 H 101.07 -1.64801 -1.21083 0
M  V30 1064 H 99.2247 -1.25954 -3.66353 0
M  V30 1065 H 99.6387 -3.4551 -3.94618 0
M  V30 1066 H 101.113 -2.17064 -5.0753 0
M  V30 1067 H 101.59 -0.639584 -4.34518 0
M  V30 1068 H 102.196 -2.16522 -3.66058 0
M  V30 1069 N 100.511 1.16574 -1.06058 0
M  V30 1070 C 101.739 1.90952 -0.796552 0
M  V30 1071 C 102.154 1.77302 0.648808 0
M  V30 1072 O 101.511 1.11605 1.44397 0
M  V30 1073 C 101.562 3.41736 -1.17894 0
M  V30 1074 O 101.283 3.54975 -2.56758 0
M  V30 1075 C 102.784 4.33169 -0.942308 0
M  V30 1076 H 100.004 0.605594 -0.288959 0
M  V30 1077 H 102.548 1.47777 -1.41358 0
M  V30 1078 H 100.703 3.82623 -0.606491 0
M  V30 1079 H 101.117 4.4846 -2.72 0
M  V30 1080 H 102.591 5.37439 -1.25952 0
M  V30 1081 H 103.068 4.3903 0.122078 0
M  V30 1082 H 103.674 3.98007 -1.49902 0
M  V30 1083 N 101.989 0.842826 1.3317 0
M  V30 1084 C 103.214 0.453129 2.02389 0
M  V30 1085 C 103.639 -0.939105 1.6298 0
M  V30 1086 O 102.997 -1.61472 0.8244 0
M  V30 1087 C 103.045 0.586094 3.55805 0
M  V30 1088 O 102.149 -0.386029 4.10589 0
M  V30 1089 H 101.49 0.183664 0.638094 0
M  V30 1090 H 104.02 1.13875 1.69981 0
M  V30 1091 H 104.03 0.469209 4.05293 0
M  V30 1092 H 102.705 1.6014 3.83833 0
M  V30 1093 H 101.282 -0.226371 3.72212 0
M  V30 1094 N 103.467 -1.45747 0.599634 0
M  V30 1095 C 104.715 -2.01893 0.0915472 0
M  V30 1096 C 105.036 -1.47155 -1.27946 0
M  V30 1097 O 104.306 -0.66273 -1.84349 0
M  V30 1098 H 102.886 -0.746363 0.0308524 0
M  V30 1099 H 105.548 -1.78645 0.779237 0
M  V30 1100 H 104.644 -3.1208 0.0353086 0
M  V30 1101 N 104.945 -0.338344 -1.53925 0
M  V30 1102 C 106.194 0.260732 -2.00008 0
M  V30 1103 C 106.507 1.52073 -1.23017 0
M  V30 1104 O 107.713 2.19672 -1.5955 0
M  V30 1105 C 106.169 0.51515 -3.56194 0
M  V30 1106 C 105.777 -0.728645 -4.42035 0
M  V30 1107 C 107.521 1.07337 -4.10706 0
M  V30 1108 C 105.428 -0.445315 -5.89721 0
M  V30 1109 H 104.358 0.101205 -0.747177 0
M  V30 1110 H 107.009 -0.452866 -1.77824 0
M  V30 1111 H 105.391 1.28932 -3.74423 0
M  V30 1112 H 106.565 -1.50352 -4.35581 0
M  V30 1113 H 104.88 -1.20813 -3.98489 0
M  V30 1114 H 107.477 1.30022 -5.18651 0
M  V30 1115 H 107.82 2.0273 -3.63602 0
M  V30 1116 H 108.353 0.360034 -3.96167 0
M  V30 1117 H 105.092 -1.36883 -6.41049 0
M  V30 1118 H 104.612 0.291569 -5.99091 0
M  V30 1119 H 106.291 -0.0606218 -6.46972 0
M  V30 1120 N 106.423 1.57458 -0.0668435 0
M  V30 1121 C 107.373 2.0896 0.912119 0
M  V30 1122 C 108.357 0.998186 1.26195 0
M  V30 1123 O 109.549 1.26133 1.24175 0
M  V30 1124 C 106.678 2.6508 2.18145 0
M  V30 1125 C 105.764 3.81218 1.85832 0
M  V30 1126 N 106.155 4.90378 1.23948 0
M  V30 1127 C 104.453 3.9042 2.15612 0
M  V30 1128 C 105.154 5.71279 1.09616 0
M  V30 1129 N 104.13 5.19389 1.60423 0
M  V30 1130 H 107.932 2.90749 0.42924 0
M  V30 1131 H 105.446 1.6182 0.137184 0
M  V30 1132 H 107.443 3.0029 2.89192 0
M  V30 1133 H 106.103 1.84736 2.67025 0
M  V30 1134 H 107.114 5.09847 0.909731 0
M  V30 1135 H 103.791 3.21043 2.66903 0
M  V30 1136 H 105.181 6.69085 0.614425 0
M  V30 1137 N 107.901 -0.206675 1.56239 0
M  V30 1138 C 109.312 -0.772383 1.69974 0
M  V30 1139 C 109.663 -1.84353 0.671436 0
M  V30 1140 O 108.788 -2.15695 -0.174491 0
M  V30 1141 C 109.383 -1.40779 3.08167 0
M  V30 1142 C 107.942 -1.92072 3.23706 0
M  V30 1143 C 107.089 -0.786347 2.65917 0
M  V30 1144 H 110.04 0.0182223 1.5869 0
M  V30 1145 H 110.061 -2.27696 3.04852 0
M  V30 1146 H 109.573 -0.627958 3.82986 0
M  V30 1147 H 107.674 -2.7281 2.53782 0
M  V30 1148 H 107.787 -2.09046 4.31087 0
M  V30 1149 H 106.151 -1.1976 2.24788 0
M  V30 1150 H 106.934 -0.0189416 3.43295 0
M  V30 1151 N 109.379 -1.50304 -0.473955 0
M  V30 1152 C 110.326 -1.68959 -1.57231 0
M  V30 1153 C 111.296 -0.530899 -1.57387 0
M  V30 1154 O 112.481 -0.761133 -1.74961 0
M  V30 1155 C 109.621 -1.7871 -2.95223 0
M  V30 1156 C 108.734 -3.06061 -3.04878 0
M  V30 1157 C 107.869 -3.06626 -4.33767 0
M  V30 1158 C 106.908 -4.28443 -4.37154 0
M  V30 1159 N 106.045 -4.26763 -5.5751 0
M  V30 1160 H 110.885 -2.6273 -1.40631 0
M  V30 1161 H 108.422 -1.30241 -0.683789 0
M  V30 1162 H 110.38 -1.82344 -3.75242 0
M  V30 1163 H 109.01 -0.883806 -3.10465 0
M  V30 1164 H 108.062 -3.11911 -2.17751 0
M  V30 1165 H 109.374 -3.96039 -3.0324 0
M  V30 1166 H 108.528 -3.08973 -5.22131 0
M  V30 1167 H 107.267 -2.14473 -4.3801 0
M  V30 1168 H 106.272 -4.2631 -3.47188 0
M  V30 1169 H 107.497 -5.2182 -4.34605 0
M  V30 1170 H 105.443 -3.37462 -5.62544 0
M  V30 1171 H 105.36 -5.10507 -5.57601 0
M  V30 1172 H 106.628 -4.33253 -6.48006 0
M  V30 1173 N 110.857 0.726932 -1.39834 0
M  V30 1174 C 111.805 1.86235 -1.39353 0
M  V30 1175 C 112.799 1.67144 -0.275555 0
M  V30 1176 O 114.005 1.74387 -0.44601 0
M  V30 1177 H 110.38 0.613174 -0.43534 0
M  V30 1178 H 112.351 1.83756 -2.35109 0
M  V30 1179 C 111.1 3.23995 -1.26185 0
M  V30 1180 H 110.423 3.39285 -2.11484 0
M  V30 1181 H 111.863 4.03609 -1.29907 0
M  V30 1182 C 110.322 3.36888 0.0290018 0
M  V30 1183 O 110.852 3.89152 0.99619 0
M  V30 1184 N 109.058 2.90446 0.0947437 0
M  V30 1185 H 108.605 2.48102 -0.693035 0
M  V30 1186 H 108.563 2.99451 0.957932 0
M  V30 1187 N 112.336 1.25143 0.95797 0
M  V30 1188 C 113.585 1.0909 1.69654 0
M  V30 1189 C 113.898 -0.368548 1.92097 0
M  V30 1190 O 115.104 -0.649455 2.63618 0
M  V30 1191 C 113.56 1.90395 3.05414 0
M  V30 1192 C 113.168 3.4081 2.90779 0
M  V30 1193 C 114.912 1.82901 3.83076 0
M  V30 1194 C 112.819 4.14423 4.21909 0
M  V30 1195 H 111.749 0.404625 0.636235 0
M  V30 1196 H 114.4 1.4931 1.06672 0
M  V30 1197 H 112.782 1.42996 3.69281 0
M  V30 1198 H 113.956 3.95859 2.35865 0
M  V30 1199 H 112.271 3.49361 2.26575 0
M  V30 1200 H 114.868 2.35196 4.80195 0
M  V30 1201 H 115.211 0.796224 4.08615 0
M  V30 1202 H 115.744 2.28033 3.25954 0
M  V30 1203 H 112.483 5.18102 4.01561 0
M  V30 1204 H 112.003 3.64159 4.76601 0
M  V30 1205 H 113.682 4.21956 4.90471 0
M  V30 1206 N 113.814 -1.1601 1.06675 0
M  V30 1207 C 114.746 -2.20115 0.638921 0
M  V30 1208 C 115.759 -1.59916 -0.305057 0
M  V30 1209 O 116.948 -1.78245 -0.0954446 0
M  V30 1210 C 114.048 -3.38798 -0.0830083 0
M  V30 1211 C 113.221 -4.2855 0.875426 0
M  V30 1212 C 112.28 -5.25849 0.192042 0
M  V30 1213 O 111.306 -5.63102 0.830921 0
M  V30 1214 N 112.508 -5.70648 -1.06493 0
M  V30 1215 H 115.273 -2.57439 1.53444 0
M  V30 1216 H 112.834 -1.31057 0.950557 0
M  V30 1217 H 114.826 -4.00936 -0.550685 0
M  V30 1218 H 113.396 -2.99947 -0.880386 0
M  V30 1219 H 112.616 -3.63617 1.52238 0
M  V30 1220 H 113.904 -4.85393 1.52548 0
M  V30 1221 H 113.302 -5.42482 -1.60405 0
M  V30 1222 H 111.859 -6.34859 -1.47641 0
M  V30 1223 N 115.292 -0.849877 -1.32721 0
M  V30 1224 C 116.517 -0.463856 -2.02146 0
M  V30 1225 C 116.942 0.930449 -1.63476 0
M  V30 1226 O 116.3 1.61033 -0.832952 0
M  V30 1227 C 116.348 -0.604955 -3.55489 0
M  V30 1228 O 115.452 0.36425 -4.10788 0
M  V30 1229 H 114.793 -0.187046 -0.637111 0
M  V30 1230 H 117.323 -1.14775 -1.69375 0
M  V30 1231 H 117.333 -0.490696 -4.05038 0
M  V30 1232 H 116.008 -1.62174 -3.82978 0
M  V30 1233 H 114.585 0.206628 -3.72327 0
M  V30 1234 N 116.77 1.45427 -0.607355 0
M  V30 1235 C 117.7 2.3329 0.0989352 0
M  V30 1236 C 118.681 1.46816 0.859007 0
M  V30 1237 O 119.866 1.75588 0.829604 0
M  V30 1238 C 116.996 3.29518 1.09705 0
M  V30 1239 C 115.95 4.25626 0.450206 0
M  V30 1240 C 115.276 5.11542 1.55655 0
M  V30 1241 C 116.576 5.18505 -0.628455 0
M  V30 1242 H 118.27 2.92595 -0.634716 0
M  V30 1243 H 115.816 1.40696 -0.306681 0
M  V30 1244 H 117.769 3.89855 1.59971 0
M  V30 1245 H 116.493 2.68372 1.86129 0
M  V30 1246 H 115.152 3.66586 -0.0315886 0
M  V30 1247 H 114.8 4.46765 2.31107 0
M  V30 1248 H 114.5 5.76647 1.12925 0
M  V30 1249 H 116.024 5.74748 2.06148 0
M  V30 1250 H 117.438 5.72916 -0.209877 0
M  V30 1251 H 115.835 5.92085 -0.977489 0
M  V30 1252 H 116.905 4.60948 -1.50514 0
M  V30 1253 N 118.248 0.346503 1.53744 0
M  V30 1254 C 119.158 -0.517293 2.28826 0
M  V30 1255 C 120.174 -1.10935 1.3405 0
M  V30 1256 O 121.35 -1.1244 1.6709 0
M  V30 1257 C 118.415 -1.65098 3.04866 0
M  V30 1258 C 117.476 -1.0884 4.15274 0
M  V30 1259 C 116.709 -2.16806 4.87679 0
M  V30 1260 O 116.932 -3.3758 4.59778 0
M  V30 1261 O 115.866 -1.80934 5.74061 0
M  V30 1262 H 119.692 0.0931396 3.03557 0
M  V30 1263 H 117.277 0.111458 1.48984 0
M  V30 1264 H 119.159 -2.31053 3.5241 0
M  V30 1265 H 117.834 -2.24717 2.32989 0
M  V30 1266 H 116.741 -0.3933 3.72027 0
M  V30 1267 H 118.074 -0.537036 4.89261 0
M  V30 1268 N 119.726 -1.57421 0.075193 0
M  V30 1269 C 120.972 -1.93905 -0.594025 0
M  V30 1270 C 121.305 -0.955701 -1.69056 0
M  V30 1271 O 120.58 0.0145373 -1.94495 0
M  V30 1272 C 120.863 -3.40638 -1.1678 0
M  V30 1273 C 120.716 -4.49733 -0.0776792 0
M  V30 1274 C 122.035 -3.88259 -2.07228 0
M  V30 1275 H 119.154 -0.705105 -0.214466 0
M  V30 1276 H 121.796 -1.8947 0.141854 0
M  V30 1277 H 119.946 -3.44549 -1.79494 0
M  V30 1278 H 121.618 -4.57942 0.555573 0
M  V30 1279 H 119.861 -4.29751 0.591286 0
M  V30 1280 H 120.532 -5.49549 -0.519603 0
M  V30 1281 H 123.008 -3.86376 -1.54445 0
M  V30 1282 H 121.884 -4.91533 -2.44308 0
M  V30 1283 H 122.145 -3.26396 -2.98191 0
M  V30 1284 N 121.204 0.198386 -1.56346 0
M  V30 1285 C 122.453 0.917451 -1.79627 0
M  V30 1286 C 122.766 1.8456 -0.64784 0
M  V30 1287 O 123.972 2.60504 -0.764859 0
M  V30 1288 C 122.428 1.68175 -3.18191 0
M  V30 1289 C 122.036 0.798589 -4.40825 0
M  V30 1290 C 123.78 2.39065 -3.50782 0
M  V30 1291 C 121.687 1.56157 -5.70411 0
M  V30 1292 H 120.617 0.346317 -0.669762 0
M  V30 1293 H 123.268 0.170801 -1.82703 0
M  V30 1294 H 121.65 2.47216 -3.09354 0
M  V30 1295 H 122.824 0.0470665 -4.60776 0
M  V30 1296 H 121.139 0.200686 -4.15916 0
M  V30 1297 H 123.736 2.96692 -4.44835 0
M  V30 1298 H 124.079 3.13091 -2.74371 0
M  V30 1299 H 124.612 1.66993 -3.61052 0
M  V30 1300 H 121.351 0.864142 -6.49779 0
M  V30 1301 H 120.871 2.2871 -5.54483 0
M  V30 1302 H 122.55 2.11622 -6.11412 0
M  V30 1303 N 122.682 1.50554 0.465978 0
M  V30 1304 C 123.93 1.61479 1.21528 0
M  V30 1305 C 124.251 0.319596 1.92363 0
M  V30 1306 O 123.521 -0.663194 1.84333 0
M  V30 1307 H 122.101 0.595055 0.451573 0
M  V30 1308 H 124.763 1.87355 0.53704 0
M  V30 1309 H 123.859 2.42846 1.96042 0
M  V30 1310 N 124.16 -0.719506 1.40217 0
M  V30 1311 C 125.107 -1.83359 1.40172 0
M  V30 1312 C 126.077 -1.64065 0.259206 0
M  V30 1313 O 127.262 -1.85254 0.456677 0
M  V30 1314 C 124.402 -3.2103 1.26624 0
M  V30 1315 C 123.515 -3.51923 2.50548 0
M  V30 1316 C 122.65 -4.79079 2.29471 0
M  V30 1317 C 121.689 -5.02863 3.48992 0
M  V30 1318 N 120.826 -6.2123 3.27135 0
M  V30 1319 H 125.666 -1.82733 2.35399 0
M  V30 1320 H 123.203 -0.892688 1.16917 0
M  V30 1321 H 125.161 -4.00524 1.16776 0
M  V30 1322 H 123.791 -3.20895 0.350176 0
M  V30 1323 H 122.843 -2.67014 2.70939 0
M  V30 1324 H 124.155 -3.6541 3.39525 0
M  V30 1325 H 123.309 -5.66582 2.16955 0
M  V30 1326 H 122.048 -4.67794 1.37913 0
M  V30 1327 H 121.053 -4.13816 3.6199 0
M  V30 1328 H 122.278 -5.16023 4.41472 0
M  V30 1329 H 120.224 -6.11204 2.38256 0
M  V30 1330 H 120.141 -6.35375 4.09675 0
M  V30 1331 H 121.409 -7.11532 3.18344 0
M  V30 1332 N 125.638 -1.25649 -0.95132 0
M  V30 1333 C 126.886 -1.10375 -1.69298 0
M  V30 1334 C 127.207 0.355339 -1.91735 0
M  V30 1335 O 126.477 1.25188 -1.50681 0
M  V30 1336 H 125.057 -0.405461 -0.627384 0
M  V30 1337 H 127.719 -1.57823 -1.14358 0
M  V30 1338 H 126.815 -1.61465 -2.67087 0
M  V30 1339 N 127.117 1.15442 -1.07289 0
M  V30 1340 C 128.345 1.90096 -0.81676 0
M  V30 1341 C 128.76 1.7798 0.629966 0
M  V30 1342 O 128.117 1.1313 1.43206 0
M  V30 1343 C 128.168 3.40466 -1.21512 0
M  V30 1344 O 127.889 3.52232 -2.60508 0
M  V30 1345 C 129.39 4.32145 -0.988198 0
M  V30 1346 H 126.61 0.602495 -0.295366 0
M  V30 1347 H 129.154 1.4627 -1.42918 0
M  V30 1348 H 127.309 3.81958 -0.647039 0
M  V30 1349 H 127.723 4.45549 -2.76742 0
M  V30 1350 H 129.197 5.36072 -1.31645 0
M  V30 1351 H 129.674 4.39135 0.0755063 0
M  V30 1352 H 130.28 3.96395 -1.54115 0
M  V30 1353 N 128.595 0.856903 1.32268 0
M  V30 1354 C 129.545 0.274899 2.26337 0
M  V30 1355 C 130.529 -0.580543 1.50062 0
M  V30 1356 O 131.721 -0.429559 1.71708 0
M  V30 1357 C 128.85 -0.533841 3.39124 0
M  V30 1358 C 127.936 0.334114 4.22782 0
M  V30 1359 N 128.327 1.42143 4.85416 0
M  V30 1360 C 126.625 0.124256 4.45827 0
M  V30 1361 C 127.326 1.95559 5.47843 0
M  V30 1362 N 126.302 1.25444 5.28928 0
M  V30 1363 H 130.104 1.10612 2.72291 0
M  V30 1364 H 127.618 0.703258 1.46383 0
M  V30 1365 H 129.615 -0.96722 4.05525 0
M  V30 1366 H 128.275 -1.36283 2.94715 0
M  V30 1367 H 129.286 1.80436 4.85451 0
M  V30 1368 H 125.963 -0.669837 4.12092 0
M  V30 1369 H 127.353 2.86714 6.07655 0
M  V30 1370 N 130.073 -1.45103 0.615059 0
M  V30 1371 C 131.313 -2.04069 0.116282 0
M  V30 1372 C 131.677 -1.4721 -1.2326 0
M  V30 1373 O 132.878 -1.97577 -1.82255 0
M  V30 1374 C 131.149 -3.57298 0.085482 0
M  V30 1375 S 132.708 -4.37394 -0.351015 0
M  V30 1376 H 129.526 -0.709006 0.0532183 0
M  V30 1377 H 132.128 -1.77709 0.81484 0
M  V30 1378 H 130.832 -3.9619 1.0706 0
M  V30 1379 H 130.363 -3.88244 -0.634835 0
M  V30 1380 H 132.378 -4.69734 -1.59889 0
M  V30 1381 N 131.551 -0.354651 -1.53558 0
M  V30 1382 C 132.499 0.512195 -2.26891 0
M  V30 1383 C 133.493 1.09263 -1.29452 0
M  V30 1384 O 134.699 1.03709 -1.47121 0
M  V30 1385 H 131.074 0.183878 -0.729173 0
M  V30 1386 H 133.045 -0.128202 -2.98124 0
M  V30 1387 C 131.794 1.64563 -3.06291 0
M  V30 1388 H 131.117 1.20829 -3.81104 0
M  V30 1389 H 132.557 2.22711 -3.60799 0
M  V30 1390 C 131.016 2.58158 -2.16462 0
M  V30 1391 O 131.546 3.60695 -1.76811 0
M  V30 1392 N 129.752 2.27096 -1.81317 0
M  V30 1393 H 129.299 1.43751 -2.1376 0
M  V30 1394 H 129.257 2.89975 -1.21498 0
M  V30 1395 N 133.029 1.57378 -0.0835403 0
M  V30 1396 C 133.961 2.10389 0.909338 0
M  V30 1397 C 134.974 1.03858 1.25369 0
M  V30 1398 O 136.163 1.31338 1.20882 0
M  V30 1399 C 133.263 2.55908 2.2218 0
M  V30 1400 C 132.436 3.86145 2.05453 0
M  V30 1401 C 131.495 4.17633 3.20108 0
M  V30 1402 O 130.521 4.87043 2.94581 0
M  V30 1403 N 131.723 3.72113 4.45547 0
M  V30 1404 H 134.488 2.962 0.456657 0
M  V30 1405 H 132.049 1.61579 0.101877 0
M  V30 1406 H 134.041 2.74027 2.97811 0
M  V30 1407 H 132.611 1.75171 2.58909 0
M  V30 1408 H 131.831 3.7729 1.1422 0
M  V30 1409 H 133.119 4.7137 1.91541 0
M  V30 1410 H 132.517 3.16062 4.69171 0
M  V30 1411 H 131.074 3.95409 5.18165 0
M  V30 1412 N 134.507 -0.190092 1.56449 0
M  V30 1413 C 135.753 -0.911052 1.81184 0
M  V30 1414 C 136.086 -1.82699 0.658396 0
M  V30 1415 O 135.361 -1.91491 -0.340775 0
M  V30 1416 C 135.644 -1.72297 3.16205 0
M  V30 1417 C 135.497 -0.831419 4.42049 0
M  V30 1418 C 136.816 -2.69454 3.47969 0
M  V30 1419 H 133.935 -0.32977 0.659106 0
M  V30 1420 H 136.577 -0.178169 1.89163 0
M  V30 1421 H 134.727 -2.34778 3.09534 0
M  V30 1422 H 136.399 -0.220929 4.60771 0
M  V30 1423 H 134.642 -0.138406 4.33579 0
M  V30 1424 H 135.313 -1.43461 5.33032 0
M  V30 1425 H 137.789 -2.17104 3.54972 0
M  V30 1426 H 136.665 -3.23342 4.43555 0
M  V30 1427 H 136.926 -3.48744 2.71717 0
M  V30 1428 N 135.985 -1.50799 -0.457987 0
M  V30 1429 C 136.895 -1.73426 -1.57989 0
M  V30 1430 C 137.911 -0.617745 -1.62665 0
M  V30 1431 O 139.087 -0.897614 -1.80291 0
M  V30 1432 C 136.152 -1.83557 -2.94122 0
M  V30 1433 C 135.213 -3.07345 -2.99729 0
M  V30 1434 C 134.446 -3.16983 -4.29368 0
M  V30 1435 O 134.669 -2.33077 -5.20607 0
M  V30 1436 O 133.603 -4.09812 -4.40837 0
M  V30 1437 H 137.429 -2.68555 -1.41817 0
M  V30 1438 H 135.014 -1.35052 -0.638859 0
M  V30 1439 H 136.896 -1.92326 -3.74952 0
M  V30 1440 H 135.571 -0.916137 -3.10465 0
M  V30 1441 H 134.478 -3.04068 -2.1793 0
M  V30 1442 H 135.811 -3.9891 -2.88326 0
M  V30 1443 N 137.463 0.71206 -1.40597 0
M  V30 1444 C 138.709 1.47416 -1.39271 0
M  V30 1445 C 139.042 1.942 0.00388791 0
M  V30 1446 O 138.317 1.68403 0.973179 0
M  V30 1447 C 138.6 2.69774 -2.38525 0
M  V30 1448 C 138.453 2.28861 -3.87224 0
M  V30 1449 C 139.772 3.71939 -2.35264 0
M  V30 1450 H 136.891 0.534713 -0.5072 0
M  V30 1451 H 139.533 0.812375 -1.71757 0
M  V30 1452 H 137.683 3.26238 -2.10953 0
M  V30 1453 H 139.355 1.77852 -4.25636 0
M  V30 1454 H 137.598 1.60824 -4.02887 0
M  V30 1455 H 138.269 3.16584 -4.52193 0
M  V30 1456 H 140.745 3.25113 -2.59694 0
M  V30 1457 H 139.621 4.55186 -3.06753 0
M  V30 1458 H 139.882 4.20484 -1.36549 0
M  V30 1459 N 138.941 1.26152 0.944643 0
M  V30 1460 C 140.19 1.10883 1.68487 0
M  V30 1461 C 140.503 -0.348153 1.92477 0
M  V30 1462 O 141.709 -0.621459 2.64292 0
M  V30 1463 C 140.165 1.93624 3.03377 0
M  V30 1464 C 139.773 3.43875 2.87148 0
M  V30 1465 C 141.517 1.86954 3.81115 0
M  V30 1466 C 139.424 4.18875 4.1749 0
M  V30 1467 H 138.354 0.41135 0.631907 0
M  V30 1468 H 141.005 1.50433 1.05082 0
M  V30 1469 H 139.387 1.46904 3.67743 0
M  V30 1470 H 140.561 3.98338 2.31653 0
M  V30 1471 H 138.876 3.51744 2.22856 0
M  V30 1472 H 141.473 2.40275 4.77673 0
M  V30 1473 H 141.816 0.839518 4.07747 0
M  V30 1474 H 142.349 2.31477 3.23517 0
M  V30 1475 H 139.088 5.22332 3.96043 0
M  V30 1476 H 138.608 3.69193 4.72712 0
M  V30 1477 H 140.287 4.27134 4.85968 0
M  V30 1478 N 140.419 -1.14872 1.07899 0
M  V30 1479 C 141.382 -2.17986 0.708161 0
M  V30 1480 C 142.382 -1.58775 -0.25442 0
M  V30 1481 O 143.572 -1.74166 -0.034645 0
M  V30 1482 C 140.704 -3.40871 0.0446929 0
M  V30 1483 H 141.897 -2.52306 1.62116 0
M  V30 1484 H 139.45 -1.2943 0.876218 0
M  V30 1485 H 140.185 -3.12124 -0.880281 0
M  V30 1486 H 139.97 -3.8511 0.737091 0
M  V30 1487 H 141.46 -4.17121 -0.19991 0
M  V30 1488 N 141.898 -0.863906 -1.31812 0
M  V30 1489 C 143.126 -0.486111 -2.01108 0
M  V30 1490 C 143.541 0.919755 -1.64882 0
M  V30 1491 O 142.898 1.60162 -0.874893 0
M  V30 1492 C 142.949 -0.626435 -3.56031 0
M  V30 1493 O 142.67 -1.97693 -3.90959 0
M  V30 1494 C 144.171 -0.248857 -4.42601 0
M  V30 1495 H 141.391 -0.190052 -0.643523 0
M  V30 1496 H 143.935 -1.1634 -1.68182 0
M  V30 1497 H 142.09 0.00322717 -3.874 0
M  V30 1498 H 142.504 -1.98034 -4.85678 0
M  V30 1499 H 143.978 -0.398016 -5.50563 0
M  V30 1500 H 144.455 0.811489 -4.31638 0
M  V30 1501 H 145.061 -0.853971 -4.16638 0
M  V30 1502 N 143.376 1.44774 -0.622745 0
M  V30 1503 C 144.306 2.33382 0.0741861 0
M  V30 1504 C 145.287 1.47719 0.843387 0
M  V30 1505 O 146.472 1.76458 0.810934 0
M  V30 1506 C 143.602 3.30663 1.06204 0
M  V30 1507 C 142.556 4.26079 0.405037 0
M  V30 1508 C 141.882 5.13165 1.5022 0
M  V30 1509 C 143.182 5.1781 -0.683414 0
M  V30 1510 H 144.876 2.91905 -0.665713 0
M  V30 1511 H 142.422 1.40363 -0.321587 0
M  V30 1512 H 144.375 3.9153 1.55827 0
M  V30 1513 H 143.099 2.70331 1.83272 0
M  V30 1514 H 141.758 3.66532 -0.0704683 0
M  V30 1515 H 141.406 4.49191 2.26355 0
M  V30 1516 H 141.106 5.77812 1.06803 0
M  V30 1517 H 142.63 5.76902 2.00041 0
M  V30 1518 H 144.044 5.72661 -0.270631 0
M  V30 1519 H 142.441 5.91015 -1.04023 0
M  V30 1520 H 143.511 4.59326 -1.55395 0
M  V30 1521 N 144.854 0.36279 1.53368 0
M  V30 1522 C 145.801 -0.485008 2.25646 0
M  V30 1523 C 146.771 -1.07982 1.2621 0
M  V30 1524 O 147.956 -1.11284 1.54986 0
M  V30 1525 C 145.096 -1.62023 3.04701 0
M  V30 1526 C 144.209 -1.05086 4.19024 0
M  V30 1527 C 143.344 -2.15496 4.85525 0
M  V30 1528 C 142.383 -1.5601 5.91884 0
M  V30 1529 N 141.52 -2.60241 6.52088 0
M  V30 1530 H 146.36 0.137864 2.97681 0
M  V30 1531 H 143.897 0.0798061 1.46883 0
M  V30 1532 H 145.855 -2.28887 3.48807 0
M  V30 1533 H 144.485 -2.2138 2.34927 0
M  V30 1534 H 143.537 -0.27259 3.79422 0
M  V30 1535 H 144.849 -0.575926 4.95464 0
M  V30 1536 H 144.003 -2.90186 5.32801 0
M  V30 1537 H 142.742 -2.66341 4.08551 0
M  V30 1538 H 141.747 -0.798338 5.43973 0
M  V30 1539 H 142.972 -1.05994 6.70777 0
M  V30 1540 H 140.918 -3.10304 5.77968 0
M  V30 1541 H 140.835 -2.17426 7.24059 0
M  V30 1542 H 142.103 -3.34641 7.04014 0
M  V30 1543 N 146.332 -1.57332 0.0918853 0
M  V30 1544 C 147.609 -1.85691 -0.614668 0
M  V30 1545 C 147.989 -0.988146 -1.86545 0
M  V30 1546 O 147.337 -0.0597055 -2.28422 0
M  V30 1547 C 147.547 -3.36294 -0.933126 0
M  V30 1548 C 148.895 -4.04275 -1.29796 0
M  V30 1549 O 149.919 -3.41157 -1.02424 0
M  V30 1550 O 148.778 -5.1564 -1.81047 0
M  V30 1551 H 145.872 -0.767802 -0.307261 0
M  V30 1552 H 148.418 -1.69244 0.12434 0
M  V30 1553 H 147.19 -3.91273 -0.0456404 0
M  V30 1554 H 146.813 -3.58076 -1.72822 0
M  V30 1555 N 147.81 0.181792 -1.56548 0
M  V30 1556 C 149.058 0.89832 -1.81038 0
M  V30 1557 C 149.379 1.83232 -0.667164 0
M  V30 1558 O 148.649 1.93372 0.313673 0
M  V30 1559 H 147.229 0.33471 -0.667816 0
M  V30 1560 H 149.891 0.184116 -1.94028 0
M  V30 1561 H 148.987 1.4815 -2.74696 0
M  V30 1562 N 149.288 1.51039 0.449983 0
M  V30 1563 C 150.704 1.38934 0.785462 0
M  V30 1564 C 150.904 0.461817 1.96136 0
M  V30 1565 O 149.96 -0.0877389 2.52348 0
M  V30 1566 C 151.273 2.80724 1.0777 0
M  V30 1567 C 152.821 2.89787 1.1829 0
M  V30 1568 C 153.296 4.32457 1.50815 0
M  V30 1569 N 154.787 4.35505 1.57764 0
M  V30 1570 C 155.522 5.42914 1.84477 0
M  V30 1571 N 155.018 6.60502 2.09068 0
M  V30 1572 N 156.811 5.3038 1.86155 0
M  V30 1573 H 148.962 2.09904 -0.324647 0
M  V30 1574 H 151.225 0.944378 -0.0827957 0
M  V30 1575 H 150.931 3.50531 0.286498 0
M  V30 1576 H 150.805 3.19273 2.00859 0
M  V30 1577 H 153.192 2.20186 1.96474 0
M  V30 1578 H 153.273 2.54752 0.231314 0
M  V30 1579 H 152.917 5.02603 0.731622 0
M  V30 1580 H 152.847 4.64995 2.47158 0
M  V30 1581 H 155.338 3.50724 1.40715 0
M  V30 1582 H 155.651 7.38158 2.28785 0
M  V30 1583 H 153.996 6.63639 2.06416 0
M  V30 1584 H 157.187 4.37505 1.66454 0
M  V30 1585 H 157.36 6.1417 2.06637 0
M  V30 1586 N 150.766 -0.704594 1.40972 0
M  V30 1587 C 151.713 -1.81862 1.42109 0
M  V30 1588 C 152.683 -1.63781 0.276593 0
M  V30 1589 O 153.868 -1.84759 0.4763 0
M  V30 1590 C 151.008 -3.19669 1.30022 0
M  V30 1591 C 150.121 -3.49246 2.54267 0
M  V30 1592 C 149.256 -4.76618 2.3454 0
M  V30 1593 C 148.295 -4.99133 3.54306 0
M  V30 1594 N 147.432 -6.17726 3.33706 0
M  V30 1595 H 152.272 -1.80226 2.37324 0
M  V30 1596 H 149.809 -0.880238 1.17857 0
M  V30 1597 H 151.767 -3.99263 1.21018 0
M  V30 1598 H 150.397 -3.20506 0.384192 0
M  V30 1599 H 149.449 -2.64125 2.73756 0
M  V30 1600 H 150.761 -3.61788 3.43381 0
M  V30 1601 H 149.915 -5.64249 2.22952 0
M  V30 1602 H 148.654 -4.66305 1.42867 0
M  V30 1603 H 147.659 -4.09953 3.66359 0
M  V30 1604 H 148.884 -5.11311 4.4692 0
M  V30 1605 H 146.83 -6.08642 2.44725 0
M  V30 1606 H 146.747 -6.30995 4.16391 0
M  V30 1607 H 148.015 -7.08115 3.25873 0
M  V30 1608 N 152.244 -1.26651 -0.937939 0
M  V30 1609 C 153.493 -1.11775 -1.67897 0
M  V30 1610 C 153.806 0.33794 -1.92659 0
M  V30 1611 O 155.012 0.607434 -2.64618 0
M  V30 1612 C 153.468 -1.9523 -3.02346 0
M  V30 1613 C 153.076 -3.45393 -2.8532 0
M  V30 1614 C 154.82 -1.88972 -3.80118 0
M  V30 1615 C 152.727 -4.21083 -4.15263 0
M  V30 1616 H 151.657 -0.414696 -0.629717 0
M  V30 1617 H 154.308 -1.50988 -1.04283 0
M  V30 1618 H 152.69 -1.48853 -3.66959 0
M  V30 1619 H 153.864 -3.99561 -2.29537 0
M  V30 1620 H 152.179 -3.52921 -2.20988 0
M  V30 1621 H 154.776 -2.42805 -4.76392 0
M  V30 1622 H 155.119 -0.86113 -4.07296 0
M  V30 1623 H 155.652 -2.33189 -3.22285 0
M  V30 1624 H 152.391 -5.24425 -3.93267 0
M  V30 1625 H 151.911 -3.71695 -4.70747 0
M  V30 1626 H 153.59 -4.29706 -4.83696 0
M  V30 1627 N 153.722 1.14298 -1.08507 0
M  V30 1628 C 154.962 1.87016 -0.824894 0
M  V30 1629 C 155.326 1.81099 0.637735 0
M  V30 1630 O 156.527 2.48963 1.01345 0
M  V30 1631 C 154.798 3.31584 -1.33368 0
M  V30 1632 S 156.357 4.21903 -1.20596 0
M  V30 1633 H 153.175 0.645259 -0.2986 0
M  V30 1634 H 155.777 1.37822 -1.38656 0
M  V30 1635 H 154.481 3.33439 -2.39262 0
M  V30 1636 H 154.012 3.85836 -0.767734 0
M  V30 1637 H 156.027 4.95971 -0.150891 0
M  V30 1638 N 155.201 0.870884 1.31352 0
M  V30 1639 C 156.131 0.343096 2.30966 0
M  V30 1640 C 157.112 -0.566507 1.60389 0
M  V30 1641 O 158.297 -0.483336 1.88089 0
M  V30 1642 C 155.427 -0.455487 3.443 0
M  V30 1643 C 154.381 0.361103 4.26474 0
M  V30 1644 C 153.707 -0.563221 5.31725 0
M  V30 1645 C 155.007 1.59566 4.97329 0
M  V30 1646 H 156.701 1.17548 2.75359 0
M  V30 1647 H 154.247 0.566686 1.32381 0
M  V30 1648 H 156.2 -0.83525 4.13039 0
M  V30 1649 H 154.924 -1.32139 2.98675 0
M  V30 1650 H 153.583 0.722825 3.59403 0
M  V30 1651 H 153.231 -1.42643 4.82351 0
M  V30 1652 H 152.931 -0.0207409 5.87596 0
M  V30 1653 H 154.455 -0.939808 6.03324 0
M  V30 1654 H 155.869 1.28728 5.58661 0
M  V30 1655 H 154.266 2.07728 5.63 0
M  V30 1656 H 155.336 2.34798 4.24262 0
M  V30 1657 N 156.679 -1.44442 0.630414 0
M  V30 1658 C 157.956 -1.9549 0.0655657 0
M  V30 1659 C 158.336 -1.5724 -1.40851 0
M  V30 1660 O 157.684 -0.846116 -2.12257 0
M  V30 1661 C 157.894 -3.47812 0.287691 0
M  V30 1662 C 159.242 -4.24216 0.180513 0
M  V30 1663 O 160.266 -3.55526 0.219019 0
M  V30 1664 O 159.125 -5.46434 0.0848493 0
M  V30 1665 H 156.219 -0.826688 -0.0227177 0
M  V30 1666 H 158.765 -1.54496 0.702068 0
M  V30 1667 H 157.537 -3.687 1.31056 0
M  V30 1668 H 157.16 -3.95751 -0.382984 0
M  V30 1669 N 158.157 -0.370918 -1.53173 0
M  V30 1670 C 159.568 0.107139 -1.86392 0
M  V30 1671 C 159.919 1.47714 -1.29132 0
M  V30 1672 O 159.044 2.07464 -0.615439 0
M  V30 1673 C 159.639 0.201187 -3.38202 0
M  V30 1674 C 158.198 0.623507 -3.712 0
M  V30 1675 C 157.345 -0.225978 -2.76378 0
M  V30 1676 H 160.296 -0.58951 -1.47345 0
M  V30 1677 H 160.317 1.02377 -3.66468 0
M  V30 1678 H 159.829 -0.796058 -3.79848 0
M  V30 1679 H 157.93 1.62879 -3.35114 0
M  V30 1680 H 158.043 0.394414 -4.77474 0
M  V30 1681 H 156.407 0.305962 -2.52856 0
M  V30 1682 H 157.19 -1.22086 -3.20858 0
M  V30 1683 N 159.635 1.57281 -0.100228 0
M  V30 1684 C 160.912 1.86014 0.604812 0
M  V30 1685 C 161.292 0.998025 1.86018 0
M  V30 1686 O 160.64 0.0718184 2.28387 0
M  V30 1687 C 160.85 3.36784 0.915278 0
M  V30 1688 C 162.198 4.04957 1.27651 0
M  V30 1689 O 163.222 3.41695 1.00613 0
M  V30 1690 O 162.081 5.16593 1.7831 0
M  V30 1691 H 159.175 0.76942 0.303185 0
M  V30 1692 H 161.721 1.69176 -0.133313 0
M  V30 1693 H 160.493 3.91292 0.0248896 0
M  V30 1694 H 160.116 3.58987 1.70921 0
M  V30 1695 N 161.113 -0.173488 1.56642 0
M  V30 1696 C 162.076 -1.19859 1.95362 0
M  V30 1697 C 163.076 -1.37296 0.83704 0
M  V30 1698 O 164.266 -1.34739 1.10413 0
M  V30 1699 C 161.398 -2.56405 2.24654 0
M  V30 1700 H 162.591 -0.867062 2.87092 0
M  V30 1701 H 160.144 -0.415853 1.50666 0
M  V30 1702 H 160.879 -2.94576 1.35631 0
M  V30 1703 H 160.664 -2.45115 3.06041 0
M  V30 1704 H 162.154 -3.30287 2.5554 0
M  V30 1705 N 162.591 -1.51276 -0.441967 0
M  V30 1706 C 164.002 -1.56244 -1.02199 0
M  V30 1707 C 164.353 -0.383149 -1.92422 0
M  V30 1708 O 163.478 0.500613 -2.1053 0
M  V30 1709 C 164.073 -2.83162 -1.86024 0
M  V30 1710 C 162.632 -2.90716 -2.39084 0
M  V30 1711 C 161.779 -2.50858 -1.18175 0
M  V30 1712 H 164.73 -1.5712 -0.223416 0
M  V30 1713 H 164.751 -2.66663 -2.71425 0
M  V30 1714 H 164.263 -3.68974 -1.20331 0
M  V30 1715 H 162.364 -2.09323 -3.08244 0
M  V30 1716 H 162.477 -3.94266 -2.72198 0
M  V30 1717 H 160.841 -2.03951 -1.52565 0
M  V30 1718 H 161.624 -3.3901 -0.541001 0
M  V30 1719 N 164.069 0.697108 -1.41344 0
M  V30 1720 C 165.485 1.00751 -1.2378 0
M  V30 1721 C 165.685 2.01105 -0.126066 0
M  V30 1722 O 164.741 2.47295 0.51004 0
M  V30 1723 C 166.054 1.53359 -2.58653 0
M  V30 1724 C 167.602 1.6525 -2.65822 0
M  V30 1725 C 168.077 2.2126 -4.01009 0
M  V30 1726 N 169.568 2.28622 -4.02847 0
M  V30 1727 C 170.303 2.72984 -5.04249 0
M  V30 1728 N 169.799 3.16962 -6.16041 0
M  V30 1729 N 171.592 2.72534 -4.91611 0
M  V30 1730 H 163.743 0.0322662 -2.12375 0
M  V30 1731 H 166.006 0.0768853 -0.944877 0
M  V30 1732 H 165.712 0.870773 -3.4075 0
M  V30 1733 H 165.586 2.51597 -2.81032 0
M  V30 1734 H 167.973 2.30644 -1.84086 0
M  V30 1735 H 168.054 0.655614 -2.47256 0
M  V30 1736 H 167.698 1.56482 -4.83193 0
M  V30 1737 H 167.628 3.21698 -4.16915 0
M  V30 1738 H 170.119 1.97585 -3.22131 0
M  V30 1739 H 170.432 3.49434 -6.89287 0
M  V30 1740 H 168.777 3.14875 -6.1958 0
M  V30 1741 H 171.968 2.37525 -4.0336 0
M  V30 1742 H 172.141 3.06789 -5.70775 0
M  V30 1743 N 165.547 1.27147 0.931209 0
M  V30 1744 C 166.796 1.12664 1.67302 0
M  V30 1745 C 167.109 -0.327718 1.92835 0
M  V30 1746 O 168.315 -0.593392 2.64936 0
M  V30 1747 C 166.771 1.9683 3.01307 0
M  V30 1748 C 166.379 3.46901 2.83485 0
M  V30 1749 C 168.123 1.90985 3.79111 0
M  V30 1750 C 166.03 4.23279 4.13024 0
M  V30 1751 H 164.96 0.41803 0.627509 0
M  V30 1752 H 167.611 1.51539 1.03481 0
M  V30 1753 H 165.993 1.50797 3.66164 0
M  V30 1754 H 167.167 4.00773 2.27415 0
M  V30 1755 H 165.482 3.54088 2.19113 0
M  V30 1756 H 168.079 2.45328 4.75098 0
M  V30 1757 H 168.422 0.882718 4.06834 0
M  V30 1758 H 168.955 2.34895 3.21044 0
M  V30 1759 H 165.694 5.26503 3.90481 0
M  V30 1760 H 165.214 3.74186 4.6877 0
M  V30 1761 H 166.893 4.32265 4.81411 0
M  V30 1762 N 167.025 -1.13721 1.09112 0
M  V30 1763 C 167.972 -2.19031 0.727591 0
M  V30 1764 C 168.942 -1.63555 -0.289656 0
M  V30 1765 O 170.127 -1.90023 -0.172026 0
M  V30 1766 C 167.267 -3.4477 0.15082 0
M  V30 1767 C 166.38 -4.14365 1.22172 0
M  V30 1768 C 165.515 -5.27709 0.608042 0
M  V30 1769 C 164.554 -5.89147 1.66047 0
M  V30 1770 N 163.691 -6.93929 1.06806 0
M  V30 1771 H 168.531 -2.49475 1.62991 0
M  V30 1772 H 166.068 -1.22499 0.81439 0
M  V30 1773 H 168.026 -4.16714 -0.201358 0
M  V30 1774 H 166.656 -3.14787 -0.714783 0
M  V30 1775 H 165.708 -3.40737 1.69122 0
M  V30 1776 H 167.02 -4.56114 2.01895 0
M  V30 1777 H 166.174 -6.06355 0.204523 0
M  V30 1778 H 164.913 -4.872 -0.220769 0
M  V30 1779 H 163.918 -5.09198 2.07357 0
M  V30 1780 H 165.143 -6.31729 2.49189 0
M  V30 1781 H 163.089 -6.55483 0.260476 0
M  V30 1782 H 163.006 -7.34202 1.8023 0
M  V30 1783 H 164.274 -7.76434 0.690644 0
M  V30 1784 N 168.503 -0.877838 -1.30888 0
M  V30 1785 C 169.45 -0.337538 -2.28318 0
M  V30 1786 C 170.42 0.568346 -1.56074 0
M  V30 1787 O 171.605 0.498298 -1.84178 0
M  V30 1788 C 168.745 0.448142 -3.42178 0
M  V30 1789 C 167.858 -0.48615 -4.29256 0
M  V30 1790 C 166.993 0.314427 -5.30269 0
M  V30 1791 C 166.032 -0.615791 -6.08995 0
M  V30 1792 N 165.169 0.14902 -7.01942 0
M  V30 1793 H 170.009 -1.17356 -2.73919 0
M  V30 1794 H 167.546 -0.590094 -1.34745 0
M  V30 1795 H 169.504 0.919517 -4.06941 0
M  V30 1796 H 168.134 1.24879 -2.97666 0
M  V30 1797 H 167.186 -1.076 -3.64865 0
M  V30 1798 H 168.498 -1.19909 -4.84173 0
M  V30 1799 H 167.652 0.847969 -6.00745 0
M  V30 1800 H 166.391 1.06062 -4.76027 0
M  V30 1801 H 165.396 -1.16102 -5.37401 0
M  V30 1802 H 166.621 -1.36097 -6.65323 0
M  V30 1803 H 164.567 0.877884 -6.50099 0
M  V30 1804 H 164.484 -0.504433 -7.54315 0
M  V30 1805 H 165.752 0.663537 -7.76671 0
M  V30 1806 N 169.982 1.44106 -0.638065 0
M  V30 1807 C 171.231 2.01194 -0.142744 0
M  V30 1808 C 171.544 1.50835 1.24532 0
M  V30 1809 O 172.75 2.00096 1.83504 0
M  V30 1810 C 171.206 3.59319 -0.20442 0
M  V30 1811 C 170.814 4.18674 -1.59423 0
M  V30 1812 C 172.558 4.23854 0.234079 0
M  V30 1813 C 170.465 5.69045 -1.61065 0
M  V30 1814 H 169.395 0.752367 -0.0495998 0
M  V30 1815 H 172.046 1.65246 -0.797881 0
M  V30 1816 H 170.428 3.92598 0.517946 0
M  V30 1817 H 171.602 3.96921 -2.34074 0
M  V30 1818 H 169.917 3.66453 -1.97741 0
M  V30 1819 H 172.514 5.34155 0.241443 0
M  V30 1820 H 172.857 3.96688 1.2627 0
M  V30 1821 H 173.39 3.95403 -0.436025 0
M  V30 1822 H 170.129 6.00956 -2.61787 0
M  V30 1823 H 169.649 5.929 -0.90718 0
M  V30 1824 H 171.328 6.32809 -1.34766 0
M  V30 1825 N 171.46 0.379036 1.52974 0
M  V30 1826 C 172.706 -0.206727 2.01744 0
M  V30 1827 C 173.039 -1.47314 1.26539 0
M  V30 1828 O 172.314 -1.91084 0.362903 0
M  V30 1829 C 172.597 -0.485066 3.56818 0
M  V30 1830 C 172.45 0.795919 4.42702 0
M  V30 1831 C 173.769 -1.28003 4.21074 0
M  V30 1832 H 170.888 -0.0736607 0.73331 0
M  V30 1833 H 173.53 0.506581 1.83122 0
M  V30 1834 H 171.68 -1.09272 3.72816 0
M  V30 1835 H 173.352 1.43307 4.38476 0
M  V30 1836 H 171.595 1.41344 4.10127 0
M  V30 1837 H 172.266 0.555947 5.49193 0
M  V30 1838 H 174.742 -0.765867 4.08991 0
M  V30 1839 H 173.618 -1.44352 5.29579 0
M  V30 1840 H 173.879 -2.29236 3.78026 0
M  V30 1841 N 172.938 -1.57226 0.108567 0
M  V30 1842 C 173.87 -2.11809 -0.875752 0
M  V30 1843 C 174.883 -1.05839 -1.23701 0
M  V30 1844 O 176.072 -1.33245 -1.18778 0
M  V30 1845 C 173.172 -2.59411 -2.18081 0
M  V30 1846 C 172.345 -3.89364 -1.99284 0
M  V30 1847 C 171.404 -4.22672 -3.13424 0
M  V30 1848 O 170.43 -4.91668 -2.86795 0
M  V30 1849 N 171.632 -3.79154 -4.3957 0
M  V30 1850 H 174.397 -2.9689 -0.409477 0
M  V30 1851 H 171.958 -1.61721 -0.076158 0
M  V30 1852 H 173.95 -2.7873 -2.93414 0
M  V30 1853 H 172.52 -1.79268 -2.5609 0
M  V30 1854 H 171.74 -3.79059 -1.08203 0
M  V30 1855 H 173.028 -4.74358 -1.84017 0
M  V30 1856 H 172.426 -3.23486 -4.64083 0
M  V30 1857 H 170.983 -4.03602 -5.11809 0
M  V30 1858 N 174.416 0.165178 -1.56732 0
M  V30 1859 C 175.363 1.2044 -1.96883 0
M  V30 1860 C 176.333 1.43664 -0.833657 0
M  V30 1861 O 177.518 1.56302 -1.09427 0
M  V30 1862 C 174.658 2.53727 -2.33916 0
M  V30 1863 C 173.771 2.3783 -3.6064 0
M  V30 1864 C 172.906 3.64026 -3.86857 0
M  V30 1865 C 171.945 3.43088 -5.06909 0
M  V30 1866 N 171.082 4.61369 -5.29229 0
M  V30 1867 H 175.922 0.854996 -2.85471 0
M  V30 1868 H 173.459 0.41076 -1.41249 0
M  V30 1869 H 175.417 3.31419 -2.53411 0
M  V30 1870 H 174.047 2.8665 -1.48431 0
M  V30 1871 H 173.099 1.51282 -3.49024 0
M  V30 1872 H 174.411 2.18308 -4.4849 0
M  V30 1873 H 173.565 4.50152 -4.06753 0
M  V30 1874 H 172.304 3.86533 -2.97394 0
M  V30 1875 H 171.309 2.55349 -4.86906 0
M  V30 1876 H 172.534 3.21997 -5.97909 0
M  V30 1877 H 170.48 4.84084 -4.42718 0
M  V30 1878 H 170.397 4.44783 -6.11313 0
M  V30 1879 H 171.665 5.48761 -5.53608 0
M  V30 1880 N 175.894 1.51508 0.433938 0
M  V30 1881 C 176.841 1.73068 1.52696 0
M  V30 1882 C 177.811 0.572441 1.55924 0
M  V30 1883 O 178.996 0.807253 1.72882 0
M  V30 1884 C 176.136 1.86474 2.90381 0
M  V30 1885 C 175.249 3.14037 2.96656 0
M  V30 1886 C 174.384 3.18019 4.25485 0
M  V30 1887 C 173.423 4.39882 4.2564 0
M  V30 1888 N 172.56 4.41394 5.45999 0
M  V30 1889 H 177.4 2.66366 1.33615 0
M  V30 1890 H 174.937 1.32008 0.649018 0
M  V30 1891 H 176.895 1.92229 3.70275 0
M  V30 1892 H 175.525 0.965809 3.08013 0
M  V30 1893 H 174.577 3.17575 2.09404 0
M  V30 1894 H 175.889 4.0394 2.92633 0
M  V30 1895 H 175.043 3.22708 5.13755 0
M  V30 1896 H 173.782 2.2601 4.3217 0
M  V30 1897 H 172.787 4.35366 3.35763 0
M  V30 1898 H 174.012 5.33159 4.20617 0
M  V30 1899 H 171.958 3.52258 5.53399 0
M  V30 1900 H 171.875 5.25111 5.4387 0
M  V30 1901 H 173.143 4.50281 6.36292 0
M  V30 1902 N 177.372 -0.689602 1.41712 0
M  V30 1903 C 178.302 -1.81577 1.46806 0
M  V30 1904 C 179.283 -1.66945 0.326105 0
M  V30 1905 O 180.468 -1.86588 0.538377 0
M  V30 1906 C 177.598 -3.19762 1.35535 0
M  V30 1907 C 176.552 -3.49107 2.47605 0
M  V30 1908 C 175.878 -4.86711 2.21397 0
M  V30 1909 C 177.178 -3.47483 3.89939 0
M  V30 1910 H 178.872 -1.7757 2.41058 0
M  V30 1911 H 176.418 -0.852887 1.16025 0
M  V30 1912 H 178.371 -3.98263 1.3771 0
M  V30 1913 H 177.095 -3.24409 0.377708 0
M  V30 1914 H 175.754 -2.72959 2.44722 0
M  V30 1915 H 175.402 -4.8799 1.21961 0
M  V30 1916 H 175.102 -5.0731 2.96497 0
M  V30 1917 H 176.626 -5.67515 2.25297 0
M  V30 1918 H 178.04 -4.1598 3.94505 0
M  V30 1919 H 176.437 -3.79615 4.64771 0
M  V30 1920 H 177.507 -2.46341 4.17665 0
M  V30 1921 N 178.85 -1.27639 -0.924453 0
M  V30 1922 C 179.813 -1.10681 -2.00705 0
M  V30 1923 C 180.813 -0.0497823 -1.60723 0
M  V30 1924 O 182.003 -0.294654 -1.7169 0
M  V30 1925 C 179.135 -0.687164 -3.33902 0
M  V30 1926 H 180.328 -2.06817 -2.17179 0
M  V30 1927 H 177.881 -1.10473 -1.10569 0
M  V30 1928 H 178.616 0.275439 -3.23128 0
M  V30 1929 H 178.401 -1.45061 -3.6428 0
M  V30 1930 H 179.891 -0.590853 -4.13399 0
M  V30 1931 N 180.328 1.1314 -1.09713 0
M  V30 1932 C 181.576 1.84119 -0.833338 0
M  V30 1933 C 181.897 1.84097 0.642904 0
M  V30 1934 O 181.167 1.29881 1.46655 0
M  V30 1935 H 179.747 0.681766 -0.305293 0
M  V30 1936 H 182.409 1.37038 -1.38588 0
M  V30 1937 H 181.505 2.88543 -1.18951 0
M  V30 1938 N 181.806 0.884767 1.30421 0
M  V30 1939 C 183.083 0.423185 1.90967 0
M  V30 1940 C 183.463 -1.09605 1.80416 0
M  V30 1941 O 182.811 -1.93126 1.22125 0
M  V30 1942 C 183.021 0.921056 3.36627 0
M  V30 1943 C 184.369 0.955903 4.137 0
M  V30 1944 O 185.393 0.867706 3.4547 0
M  V30 1945 O 184.252 1.08614 5.35598 0
M  V30 1946 H 181.346 0.129369 0.816819 0
M  V30 1947 H 183.892 0.973653 1.3899 0
M  V30 1948 H 182.664 1.96489 3.3839 0
M  V30 1949 H 182.287 0.349741 3.96059 0
M  V30 1950 N 183.284 -1.43765 0.645699 0
M  V30 1951 C 184.194 -2.34544 -0.0512957 0
M  V30 1952 C 185.21 -1.53455 -0.82022 0
M  V30 1953 O 186.386 -1.86133 -0.769176 0
M  V30 1954 C 183.451 -3.31636 -1.01087 0
M  V30 1955 C 182.512 -4.2863 -0.239712 0
M  V30 1956 C 181.745 -5.21084 -1.15358 0
M  V30 1957 O 181.968 -5.1779 -2.39269 0
M  V30 1958 O 180.902 -5.98593 -0.630038 0
M  V30 1959 H 184.728 -2.95624 0.695718 0
M  V30 1960 H 182.313 -1.43781 0.405882 0
M  V30 1961 H 184.195 -3.9136 -1.56254 0
M  V30 1962 H 182.87 -2.73069 -1.73824 0
M  V30 1963 H 181.777 -3.72408 0.355356 0
M  V30 1964 H 183.11 -4.90157 0.447936 0
M  V30 1965 N 184.763 -0.387143 -1.52771 0
M  V30 1966 C 185.988 0.198407 -2.06449 0
M  V30 1967 C 186.413 1.39918 -1.25716 0
M  V30 1968 O 185.771 1.79099 -0.281657 0
M  V30 1969 C 185.819 0.548893 -3.56398 0
M  V30 1970 O 184.923 1.64315 -3.78252 0
M  V30 1971 H 184.264 0.0237731 -0.663574 0
M  V30 1972 H 186.794 -0.553989 -1.96957 0
M  V30 1973 H 186.804 0.813812 -3.99801 0
M  V30 1974 H 185.479 -0.329005 -4.14597 0
M  V30 1975 H 184.056 1.37211 -3.46738 0
M  V30 1976 N 186.241 1.57166 -0.116904 0
M  V30 1977 C 187.204 2.14039 0.819742 0
M  V30 1978 C 188.204 1.07477 1.19605 0
M  V30 1979 O 189.394 1.33263 1.1219 0
M  V30 1980 C 186.526 2.67891 2.10826 0
M  V30 1981 H 187.719 2.98128 0.325511 0
M  V30 1982 H 185.272 1.55739 0.132312 0
M  V30 1983 H 186.007 1.87384 2.64685 0
M  V30 1984 H 185.792 3.45823 1.84793 0
M  V30 1985 H 187.282 3.11809 2.77785 0
M  V30 1986 N 187.719 -0.156864 1.56817 0
M  V30 1987 C 188.996 -0.899244 1.73704 0
M  V30 1988 C 189.376 -1.99771 0.682254 0
M  V30 1989 O 188.724 -2.26515 -0.300522 0
M  V30 1990 C 188.934 -1.45075 3.17418 0
M  V30 1991 C 190.282 -1.91802 3.7881 0
M  V30 1992 O 191.306 -1.54838 3.20786 0
M  V30 1993 O 190.165 -2.5994 4.80722 0
M  V30 1994 H 187.259 -0.424267 0.709878 0
M  V30 1995 H 189.805 -0.143561 1.69092 0
M  V30 1996 H 188.577 -0.660846 3.85679 0
M  V30 1997 H 188.2 -2.27021 3.26416 0
M  V30 1998 O 189.236 -1.58657 -0.301679 0
M  V30 1999 H 189.927 -1.6887 -0.948812 0
M  V30 END ATOM
M  V30 BEGIN BOND
M  V30 END BOND
M  V30 END CTAB
M  END
$$$$
