drugbank_target|P02708 Acetylcholine receptor subunit alpha (DB00555; DB08838)
 OpenBabel12092120573D

  0  0  0     0  0            999 V3000
M  V30 BEGIN CTAB
M  V30 COUNTS 7729 7832 0 0 0
M  V30 BEGIN ATOM
M  V30 1 H -0.908 1.98254 -0.117106 0
M  V30 2 N 0 1.576 0 0
M  V30 3 C 0.933 2.03868 1.02534 0
M  V30 4 C 1.911 0.928543 1.3348 0
M  V30 5 O 3.095 1.19667 1.45644 0
M  V30 6 C 0.222 2.43627 2.35294 0
M  V30 7 C -0.732 3.65373 2.2001 0
M  V30 8 S 0.101 5.13292 1.52614 0
M  V30 9 C 1.257 5.56322 2.86805 0
M  V30 10 H 1.49 2.90518 0.631377 0
M  V30 11 H -0.977 1.52953 0.210867 0
M  V30 12 H 0.981 2.67203 3.11629 0
M  V30 13 H -0.358 1.57376 2.7183 0
M  V30 14 H -1.165 3.90944 3.18086 0
M  V30 15 H -1.563 3.418 1.51819 0
M  V30 16 H 0.729 5.58782 3.83104 0
M  V30 17 H 1.672 6.56266 2.65933 0
M  V30 18 H 2.08 4.83886 2.90714 0
M  V30 19 N 1.4781 -0.272755 1.55222 0
M  V30 20 C 2.3881 -1.35918 1.91216 0
M  V30 21 C 3.4041 -1.54026 0.809436 0
M  V30 22 O 4.5801 -1.68148 1.10852 0
M  V30 23 C 1.6451 -2.69834 2.17693 0
M  V30 24 C 0.7061 -2.6047 3.41253 0
M  V30 25 C -0.0609 -3.88 3.66458 0
M  V30 26 O 0.1621 -4.88693 2.94169 0
M  V30 27 O -0.9039 -3.88189 4.59992 0
M  V30 28 H 2.9221 -1.0839 2.83699 0
M  V30 29 H 0.5071 -0.471301 1.41771 0
M  V30 30 H 2.3891 -3.49017 2.36147 0
M  V30 31 H 1.0641 -2.97148 1.28392 0
M  V30 32 H -0.0289 -1.79663 3.28134 0
M  V30 33 H 1.3041 -2.38106 4.30774 0
M  V30 34 N 2.9562 -1.48159 -0.537278 0
M  V30 35 C 4.3672 -1.49429 -1.11928 0
M  V30 36 C 4.7182 -0.26 -1.9447 0
M  V30 37 O 3.8432 0.633489 -2.0692 0
M  V30 38 C 4.4382 -2.70758 -2.03656 0
M  V30 39 C 2.9972 -2.74923 -2.57088 0
M  V30 40 C 2.1442 -2.42835 -1.3389 0
M  V30 41 H 5.0952 -1.55381 -0.322886 0
M  V30 42 H 5.1162 -2.48861 -2.87834 0
M  V30 43 H 4.6282 -3.60575 -1.43553 0
M  V30 44 H 2.7292 -1.89296 -3.20933 0
M  V30 45 H 2.8422 -3.76157 -2.9672 0
M  V30 46 H 1.2062 -1.93836 -1.65226 0
M  V30 47 H 1.9892 -3.34884 -0.755504 0
M  V30 48 N 4.4343 0.785586 -1.36625 0
M  V30 49 C 5.6803 1.5452 -1.32269 0
M  V30 50 C 6.0353 1.92159 0.0962266 0
M  V30 51 O 5.3283 1.60158 1.05167 0
M  V30 52 C 5.5223 2.83007 -2.1827 0
M  V30 53 C 5.3513 2.57925 -3.68382 0
M  V30 54 C 4.1213 2.52752 -4.37544 0
M  V30 55 C 6.3193 2.26861 -4.61561 0
M  V30 56 N 4.3013 2.19608 -5.73276 0
M  V30 57 C 5.6723 2.03738 -5.85569 0
M  V30 58 C 7.7273 2.129 -4.50087 0
M  V30 59 C 6.4303 1.68065 -6.9939 0
M  V30 60 C 8.4563 1.78626 -5.63779 0
M  V30 61 C 7.8183 1.56353 -6.86828 0
M  V30 62 H 3.9173 0.566301 -0.539283 0
M  V30 63 H 6.5013 0.917736 -1.71714 0
M  V30 64 H 4.6723 3.43614 -1.81063 0
M  V30 65 H 6.4043 3.48775 -2.05275 0
M  V30 66 H 3.1593 2.6813 -3.90389 0
M  V30 67 H 3.5833 2.05771 -6.44971 0
M  V30 68 H 8.2253 2.28808 -3.55537 0
M  V30 69 H 5.9433 1.50895 -7.93887 0
M  V30 70 H 9.5293 1.68502 -5.56865 0
M  V30 71 H 8.4093 1.30223 -7.73312 0
M  V30 72 N 5.9124 1.20967 1.01018 0
M  V30 73 C 7.3234 1.02319 1.56165 0
M  V30 74 C 7.6744 -0.418546 1.91684 0
M  V30 75 O 6.7994 -1.30096 1.72928 0
M  V30 76 C 7.3944 1.85109 2.8376 0
M  V30 77 C 5.9534 1.70809 3.35412 0
M  V30 78 C 5.1004 1.82643 2.08655 0
M  V30 79 H 8.0514 1.35065 0.833255 0
M  V30 80 H 8.0724 1.35827 3.55431 0
M  V30 81 H 7.5844 2.90035 2.57878 0
M  V30 82 H 5.6854 0.685464 3.66241 0
M  V30 83 H 5.7984 2.52467 4.07182 0
M  V30 84 H 4.1624 1.25896 2.21409 0
M  V30 85 H 4.9454 2.89066 1.85191 0
M  V30 86 N 7.3905 -1.2043 1.01659 0
M  V30 87 C 8.3205 -2.25466 0.607226 0
M  V30 88 C 9.3015 -1.65853 -0.377716 0
M  V30 89 O 10.4865 -1.92409 -0.263149 0
M  V30 90 C 7.6165 -3.47256 -0.0552949 0
M  V30 91 C 6.5705 -4.19462 0.850632 0
M  V30 92 C 5.8965 -5.34673 0.0538859 0
M  V30 93 C 7.1965 -4.75603 2.15868 0
M  V30 94 H 8.8905 -2.59962 1.48526 0
M  V30 95 H 6.4365 -1.2496 0.715605 0
M  V30 96 H 8.3895 -4.19917 -0.353233 0
M  V30 97 H 7.1135 -3.11924 -0.968045 0
M  V30 98 H 5.7725 -3.48667 1.13257 0
M  V30 99 H 5.4205 -4.95585 -0.860514 0
M  V30 100 H 5.1205 -5.83913 0.657192 0
M  V30 101 H 6.6445 -6.10138 -0.237598 0
M  V30 102 H 8.0585 -5.40083 1.92311 0
M  V30 103 H 6.4555 -5.3528 2.71284 0
M  V30 104 H 7.5255 -3.94346 2.82169 0
M  V30 105 N 8.8686 -0.792821 -1.36206 0
M  V30 106 C 9.7986 -0.207853 -2.32573 0
M  V30 107 C 10.7796 0.659055 -1.56813 0
M  V30 108 O 11.9646 0.592176 -1.84951 0
M  V30 109 C 9.0946 0.655449 -3.41059 0
M  V30 110 C 8.0486 -0.111842 -4.27854 0
M  V30 111 C 7.3746 0.872274 -5.27537 0
M  V30 112 C 8.6746 -1.30299 -5.05786 0
M  V30 113 H 10.3686 -1.01294 -2.81744 0
M  V30 114 H 7.9146 -0.48854 -1.3546 0
M  V30 115 H 9.8676 1.07464 -4.07467 0
M  V30 116 H 8.5916 1.49328 -2.90463 0
M  V30 117 H 7.2506 -0.512053 -3.63006 0
M  V30 118 H 6.8986 1.70523 -4.73214 0
M  V30 119 H 6.5986 0.363291 -5.86476 0
M  V30 120 H 8.1226 1.28996 -5.96818 0
M  V30 121 H 9.5366 -0.959379 -5.65216 0
M  V30 122 H 7.9336 -1.7455 -5.74154 0
M  V30 123 H 9.0036 -2.09663 -4.37229 0
M  V30 124 N 10.3467 1.47872 -0.545128 0
M  V30 125 C 11.2767 2.32661 0.197793 0
M  V30 126 C 12.2577 1.43041 0.920504 0
M  V30 127 O 13.4427 1.71912 0.90333 0
M  V30 128 C 10.5727 3.24569 1.23582 0
M  V30 129 C 9.5267 4.23333 0.630323 0
M  V30 130 C 8.8527 5.0448 1.77211 0
M  V30 131 C 10.1527 5.20704 -0.407974 0
M  V30 132 H 11.8467 2.95024 -0.510045 0
M  V30 133 H 9.3927 1.4187 -0.246731 0
M  V30 134 H 11.3457 3.8272 1.76362 0
M  V30 135 H 10.0697 2.60236 1.97344 0
M  V30 136 H 8.7287 3.6639 0.123922 0
M  V30 137 H 8.3767 4.36561 2.49847 0
M  V30 138 H 8.0767 5.71339 1.37281 0
M  V30 139 H 9.6007 5.65487 2.3034 0
M  V30 140 H 11.0147 5.7329 0.033305 0
M  V30 141 H 9.4117 5.95699 -0.725486 0
M  V30 142 H 10.4817 4.66917 -1.30828 0
M  V30 143 N 11.8248 0.280983 1.55075 0
M  V30 144 C 12.7548 -0.597469 2.25727 0
M  V30 145 C 13.7358 -1.15417 1.24952 0
M  V30 146 O 14.9208 -1.18722 1.53684 0
M  V30 147 C 12.0508 -1.7789 2.98283 0
M  V30 148 C 11.0048 -1.35347 4.06036 0
M  V30 149 C 10.3308 -2.61846 4.66198 0
M  V30 150 C 11.6308 -0.499354 5.19907 0
M  V30 151 H 13.3248 -0.00824265 2.99399 0
M  V30 152 H 10.8708 -0.0025244 1.44 0
M  V30 153 H 12.8238 -2.39937 3.46422 0
M  V30 154 H 11.5478 -2.39405 2.22155 0
M  V30 155 H 10.2068 -0.756156 3.58717 0
M  V30 156 H 9.8548 -3.21632 3.86732 0
M  V30 157 H 9.5548 -2.3409 5.38958 0
M  V30 158 H 11.0788 -3.24732 5.1709 0
M  V30 159 H 12.4928 -1.02498 5.64063 0
M  V30 160 H 10.8898 -0.316424 5.99265 0
M  V30 161 H 11.9598 0.480459 4.82514 0
M  V30 162 N 13.3029 -1.57598 0.00835791 0
M  V30 163 C 14.5499 -1.90928 -0.674732 0
M  V30 164 C 14.8779 -0.88277 -1.73313 0
M  V30 165 O 14.1329 0.111294 -1.95383 0
M  V30 166 C 14.4319 -3.3101 -1.34787 0
M  V30 167 C 14.0979 -4.48922 -0.421861 0
M  V30 168 C 12.7599 -4.8091 -0.166927 0
M  V30 169 C 15.1119 -5.20755 0.215211 0
M  V30 170 C 12.4399 -5.821 0.733232 0
M  V30 171 C 14.7919 -6.22905 1.1033 0
M  V30 172 C 13.4559 -6.53346 1.36733 0
M  V30 173 H 12.7259 -0.698656 -0.246902 0
M  V30 174 H 15.3729 -1.91387 0.0656779 0
M  V30 175 H 13.6779 -3.26714 -2.16253 0
M  V30 176 H 15.3749 -3.54061 -1.8826 0
M  V30 177 H 11.9649 -4.23934 -0.630729 0
M  V30 178 H 16.1489 -4.9629 0.0312829 0
M  V30 179 H 11.4049 -6.04042 0.945712 0
M  V30 180 H 15.5789 -6.77694 1.60325 0
M  V30 181 H 13.2059 -7.31573 2.06652 0
M  V30 182 N 14.781 0.264519 -1.55364 0
M  V30 183 C 16.006 1.01726 -1.80739 0
M  V30 184 C 16.431 1.78836 -0.583044 0
M  V30 185 O 15.789 1.75167 0.467566 0
M  V30 186 C 15.837 1.94482 -3.03659 0
M  V30 187 O 14.941 3.03386 -2.7934 0
M  V30 188 H 14.282 0.290395 -0.597132 0
M  V30 189 H 16.812 0.290854 -2.02522 0
M  V30 190 H 16.822 2.36278 -3.32621 0
M  V30 191 H 15.497 1.37772 -3.92418 0
M  V30 192 H 14.074 2.65844 -2.61498 0
M  V30 193 N 16.2591 1.48442 0.529413 0
M  V30 194 C 17.1891 1.65902 1.64313 0
M  V30 195 C 18.1701 0.507897 1.6234 0
M  V30 196 O 19.3551 0.740503 1.79528 0
M  V30 197 C 16.4851 1.69911 3.02898 0
M  V30 198 C 15.4391 2.8453 3.19729 0
M  V30 199 C 14.7651 2.73629 4.59381 0
M  V30 200 C 16.0651 4.25821 3.02447 0
M  V30 201 H 17.7591 2.5914 1.49955 0
M  V30 202 H 15.3051 1.24709 0.719982 0
M  V30 203 H 17.2581 1.80715 3.80684 0
M  V30 204 H 15.9821 0.732524 3.18279 0
M  V30 205 H 14.6411 2.73283 2.44361 0
M  V30 206 H 14.2891 1.74938 4.71599 0
M  V30 207 H 13.9891 3.50541 4.71588 0
M  V30 208 H 15.5131 2.86401 5.39265 0
M  V30 209 H 16.9271 4.37898 3.70024 0
M  V30 210 H 15.3241 5.03735 3.26146 0
M  V30 211 H 16.3941 4.42244 1.98867 0
M  V30 212 N 17.7372 -0.778329 1.37039 0
M  V30 213 C 18.9772 -1.54973 1.33276 0
M  V30 214 C 19.3412 -1.91816 -0.0839376 0
M  V30 215 O 20.5422 -2.6767 -0.246228 0
M  V30 216 C 18.8132 -2.78517 2.23971 0
M  V30 217 S 20.3722 -3.6865 2.37997 0
M  V30 218 H 17.1902 -0.530639 0.473226 0
M  V30 219 H 19.7922 -0.915806 1.72723 0
M  V30 220 H 18.4962 -2.4952 3.25835 0
M  V30 221 H 18.0272 -3.46875 1.85584 0
M  V30 222 H 20.0422 -4.70182 1.58567 0
M  V30 223 N 19.2153 -1.21501 -1.00376 0
M  V30 224 C 20.4403 -1.05977 -1.78279 0
M  V30 225 C 20.8653 0.385994 -1.84097 0
M  V30 226 O 20.2233 1.27849 -1.28547 0
M  V30 227 C 20.2713 -1.66302 -3.19963 0
M  V30 228 O 19.3753 -0.909333 -4.0225 0
M  V30 229 H 18.7163 -0.372906 -0.549397 0
M  V30 230 H 21.2463 -1.6107 -1.26165 0
M  V30 231 H 21.2563 -1.70574 -3.70632 0
M  V30 232 H 19.9313 -2.71515 -3.15043 0
M  V30 233 H 18.5083 -0.941795 -3.60811 0
M  V30 234 N 20.6934 1.19889 -1.02296 0
M  V30 235 C 21.6564 2.21116 -0.603351 0
M  V30 236 C 22.6564 1.5738 0.329884 0
M  V30 237 O 23.8464 1.73802 0.117702 0
M  V30 238 C 20.9784 3.40696 0.117992 0
M  V30 239 H 22.1714 2.59754 -1.49893 0
M  V30 240 H 19.7244 1.33463 -0.813468 0
M  V30 241 H 20.4594 3.07569 1.0282 0
M  V30 242 H 20.2444 3.88188 -0.552511 0
M  V30 243 H 21.7344 4.15692 0.398696 0
M  V30 244 N 22.1715 0.800033 1.35784 0
M  V30 245 C 23.4195 0.376597 1.9856 0
M  V30 246 C 23.7405 -1.05812 1.63795 0
M  V30 247 O 23.0105 -1.73103 0.917171 0
M  V30 248 H 21.5905 0.136261 0.734467 0
M  V30 249 H 24.2525 1.02442 1.65806 0
M  V30 250 H 23.3485 0.477002 3.08433 0
M  V30 251 N 23.6496 -1.47581 0.552962 0
M  V30 252 C 24.5796 -2.32762 -0.185451 0
M  V30 253 C 25.5606 -1.43527 -0.912905 0
M  V30 254 O 26.7456 -1.72388 -0.894201 0
M  V30 255 C 23.8756 -3.25219 -1.21859 0
M  V30 256 C 22.8296 -4.23661 -0.607864 0
M  V30 257 C 22.1556 -5.05413 -1.74533 0
M  V30 258 C 23.4556 -5.20481 0.435582 0
M  V30 259 H 25.1496 -2.94749 0.525684 0
M  V30 260 H 22.6956 -1.41738 0.254251 0
M  V30 261 H 24.6486 -3.8365 -1.7433 0
M  V30 262 H 23.3726 -2.61279 -1.95961 0
M  V30 263 H 22.0316 -3.66451 -0.104489 0
M  V30 264 H 21.6796 -4.3788 -2.47529 0
M  V30 265 H 21.3796 -5.72059 -1.34249 0
M  V30 266 H 22.9036 -5.66701 -2.27338 0
M  V30 267 H 24.3176 -5.733 -0.00290157 0
M  V30 268 H 22.7146 -5.95305 0.757067 0
M  V30 269 H 23.7846 -4.66217 1.33303 0
M  V30 270 N 25.1277 -0.289203 -1.54924 0
M  V30 271 C 26.3737 0.323998 -2.00195 0
M  V30 272 C 26.7067 1.54441 -1.17735 0
M  V30 273 O 25.9817 1.92875 -0.250878 0
M  V30 274 C 26.2647 0.692276 -3.53383 0
M  V30 275 C 26.1177 -0.536457 -4.46589 0
M  V30 276 C 27.4367 1.52335 -4.12895 0
M  V30 277 H 24.5557 0.116289 -0.727768 0
M  V30 278 H 27.1977 -0.398954 -1.85764 0
M  V30 279 H 25.3477 1.30822 -3.65811 0
M  V30 280 H 27.0197 -1.17499 -4.46085 0
M  V30 281 H 25.2627 -1.17192 -4.1767 0
M  V30 282 H 25.9337 -0.234806 -5.515 0
M  V30 283 H 28.4097 1.00302 -4.0383 0
M  V30 284 H 27.2857 1.74982 -5.20262 0
M  V30 285 H 27.5467 2.50886 -3.64018 0
M  V30 286 N 26.6058 1.57591 -0.0167156 0
M  V30 287 C 27.5358 2.12496 0.967858 0
M  V30 288 C 28.5168 1.03807 1.34752 0
M  V30 289 O 29.7018 1.31577 1.42833 0
M  V30 290 C 26.8318 2.64194 2.25431 0
M  V30 291 C 25.7858 3.77559 2.01576 0
M  V30 292 C 25.1118 4.15636 3.36379 0
M  V30 293 C 26.4118 5.04151 1.36489 0
M  V30 294 H 28.1058 2.95013 0.510643 0
M  V30 295 H 25.6518 1.41915 0.244181 0
M  V30 296 H 27.6048 3.01236 2.94678 0
M  V30 297 H 26.3288 1.78821 2.73296 0
M  V30 298 H 24.9878 3.40937 1.34751 0
M  V30 299 H 24.6358 3.27263 3.81979 0
M  V30 300 H 24.3358 4.92022 3.21229 0
M  V30 301 H 25.8598 4.5525 4.06915 0
M  V30 302 H 27.2738 5.38857 1.95718 0
M  V30 303 H 25.6708 5.85453 1.31776 0
M  V30 304 H 26.7408 4.83733 0.336219 0
M  V30 305 N 28.0839 -0.256276 1.55502 0
M  V30 306 C 29.3319 -0.983672 1.76545 0
M  V30 307 C 29.6529 -1.86206 0.578982 0
M  V30 308 O 28.9229 -1.91656 -0.405577 0
M  V30 309 H 27.5029 -0.366191 0.651086 0
M  V30 310 H 30.1649 -0.276479 1.92929 0
M  V30 311 H 29.2609 -1.61087 2.67315 0
M  V30 312 N 29.562 -1.4872 -0.521534 0
M  V30 313 C 30.787 -1.61101 -1.30618 0
M  V30 314 C 31.212 -0.274611 -1.86085 0
M  V30 315 O 30.57 0.754937 -1.64834 0
M  V30 316 C 30.618 -2.66709 -2.4269 0
M  V30 317 O 29.722 -2.24456 -3.45967 0
M  V30 318 H 29.063 -0.539921 -0.386499 0
M  V30 319 H 31.593 -1.94767 -0.626645 0
M  V30 320 H 31.603 -2.88245 -2.88754 0
M  V30 321 H 30.278 -3.63727 -2.01682 0
M  V30 322 H 28.855 -2.13168 -3.05964 0
M  V30 323 N 31.0401 0.771051 -1.3745 0
M  V30 324 C 31.9501 1.91538 -1.35464 0
M  V30 325 C 32.9661 1.72134 -0.254123 0
M  V30 326 O 34.1421 1.95358 -0.489626 0
M  V30 327 C 31.2071 3.26671 -1.16134 0
M  V30 328 C 30.2681 3.58723 -2.35831 0
M  V30 329 C 29.5011 4.87409 -2.17413 0
M  V30 330 O 29.7241 5.58506 -1.15876 0
M  V30 331 O 28.6581 5.18539 -3.05615 0
M  V30 332 H 32.4841 1.96165 -2.31847 0
M  V30 333 H 30.0691 0.9139 -1.18187 0
M  V30 334 H 31.9511 4.07499 -1.07345 0
M  V30 335 H 30.6261 3.22894 -0.228251 0
M  V30 336 H 29.5331 2.78127 -2.50192 0
M  V30 337 H 30.8661 3.67243 -3.27709 0
M  V30 338 N 32.5182 1.22032 0.997298 0
M  V30 339 C 33.4682 0.953838 2.07089 0
M  V30 340 C 34.4522 -0.0938669 1.60626 0
M  V30 341 O 35.6442 0.116078 1.76619 0
M  V30 342 C 32.7732 0.528726 3.39204 0
M  V30 343 C 31.8592 1.61092 3.92314 0
M  V30 344 N 32.2502 2.83768 4.18699 0
M  V30 345 C 30.5482 1.48158 4.20672 0
M  V30 346 C 31.2492 3.53715 4.61802 0
M  V30 347 N 30.2252 2.81174 4.65233 0
M  V30 348 H 34.0272 1.88577 2.25424 0
M  V30 349 H 31.5412 1.11719 1.17867 0
M  V30 350 H 33.5382 0.31915 4.15677 0
M  V30 351 H 32.1982 -0.39635 3.22272 0
M  V30 352 H 33.2092 3.20238 4.07023 0
M  V30 353 H 29.8862 0.622369 4.12835 0
M  V30 354 H 31.2762 4.58793 4.90875 0
M  V30 355 N 33.9963 -1.19345 1.0293 0
M  V30 356 C 34.9063 -2.26245 0.620515 0
M  V30 357 C 35.9223 -1.70486 -0.347928 0
M  V30 358 O 37.0983 -2.00347 -0.205704 0
M  V30 359 C 34.1633 -3.46693 -0.0218957 0
M  V30 360 C 33.2243 -4.17632 0.994102 0
M  V30 361 C 32.4573 -5.32329 0.382253 0
M  V30 362 O 32.6803 -5.64552 -0.814676 0
M  V30 363 O 31.6143 -5.91664 1.10531 0
M  V30 364 H 35.4403 -2.63453 1.51083 0
M  V30 365 H 33.0253 -1.26207 0.799513 0
M  V30 366 H 34.9073 -4.19683 -0.380072 0
M  V30 367 H 33.5823 -3.11333 -0.886209 0
M  V30 368 H 32.4893 -3.4676 1.40387 0
M  V30 369 H 33.8223 -4.56964 1.8288 0
M  V30 370 N 35.4744 -0.807222 -1.35358 0
M  V30 371 C 36.7024 -0.400377 -2.02989 0
M  V30 372 C 37.1174 0.988859 -1.60832 0
M  V30 373 O 36.4744 1.63729 -0.806175 0
M  V30 374 C 36.5254 -0.474867 -3.58368 0
M  V30 375 O 36.2464 -1.80933 -3.98992 0
M  V30 376 C 37.7474 -0.0609112 -4.43258 0
M  V30 377 H 34.9674 -0.162587 -0.651004 0
M  V30 378 H 37.5114 -1.09102 -1.72965 0
M  V30 379 H 35.6664 0.167534 -3.87038 0
M  V30 380 H 36.0804 -1.77256 -4.9364 0
M  V30 381 H 37.5544 -0.164145 -5.51756 0
M  V30 382 H 38.0314 0.993831 -4.27808 0
M  V30 383 H 38.6374 -0.676492 -4.19885 0
M  V30 384 N 36.9525 1.47285 -0.560781 0
M  V30 385 C 38.3685 1.58065 -0.22081 0
M  V30 386 C 38.5685 1.55892 1.27671 0
M  V30 387 O 37.6245 1.46422 2.0571 0
M  V30 388 C 38.9375 2.88418 -0.850625 0
M  V30 389 C 40.4855 3.02009 -0.822184 0
M  V30 390 C 40.9605 4.35066 -1.43113 0
M  V30 391 N 42.4515 4.41711 -1.39448 0
M  V30 392 C 43.1865 5.43237 -1.83525 0
M  V30 393 N 42.6825 6.51555 -2.35474 0
M  V30 394 N 44.4755 5.34304 -1.74574 0
M  V30 395 H 36.6265 1.46941 -1.53369 0
M  V30 396 H 38.8895 0.699558 -0.639783 0
M  V30 397 H 38.5955 2.95755 -1.9032 0
M  V30 398 H 38.4695 3.75612 -0.345773 0
M  V30 399 H 40.8565 2.94266 0.221714 0
M  V30 400 H 40.9375 2.16347 -1.36483 0
M  V30 401 H 40.5815 4.43565 -2.47412 0
M  V30 402 H 40.5115 5.19465 -0.863899 0
M  V30 403 H 43.0025 3.64027 -1.01452 0
M  V30 404 H 43.3155 7.25203 -2.67021 0
M  V30 405 H 41.6605 6.52435 -2.39487 0
M  V30 406 H 44.8515 4.48581 -1.33763 0
M  V30 407 H 45.0245 6.13288 -2.09242 0
M  V30 408 N 38.4306 0.297415 1.54768 0
M  V30 409 C 39.3606 -0.573494 2.26348 0
M  V30 410 C 40.3416 -1.14085 1.26169 0
M  V30 411 O 41.5266 -1.17086 1.54934 0
M  V30 412 C 38.6566 -1.74716 3.00153 0
M  V30 413 C 37.6106 -1.31032 4.07449 0
M  V30 414 C 36.9366 -2.56887 4.68949 0
M  V30 415 C 38.2366 -0.444183 5.20408 0
M  V30 416 H 39.9306 0.0235131 2.99391 0
M  V30 417 H 37.4766 0.0127488 1.43994 0
M  V30 418 H 39.4296 -2.3625 3.48947 0
M  V30 419 H 38.1536 -2.37035 2.24682 0
M  V30 420 H 36.8126 -0.718066 3.59499 0
M  V30 421 H 36.4606 -3.17512 3.90122 0
M  V30 422 H 36.1606 -2.2836 5.41411 0
M  V30 423 H 37.6846 -3.19229 5.20505 0
M  V30 424 H 39.0986 -0.9651 5.65118 0
M  V30 425 H 37.4956 -0.252846 5.99567 0
M  V30 426 H 38.5656 0.531609 4.81977 0
M  V30 427 N 39.9087 -1.5758 0.0250728 0
M  V30 428 C 41.1547 -1.91917 -0.655413 0
M  V30 429 C 41.4877 -0.901433 -1.72011 0
M  V30 430 O 40.7627 0.0764069 -1.9435 0
M  V30 431 C 41.0457 -3.36751 -1.27558 0
M  V30 432 C 40.8987 -4.49258 -0.220719 0
M  V30 433 C 42.2177 -3.81469 -2.19475 0
M  V30 434 H 39.3367 -0.697925 -0.23679 0
M  V30 435 H 41.9787 -1.89825 0.0815036 0
M  V30 436 H 40.1287 -3.38664 -1.90365 0
M  V30 437 H 41.8007 -4.59478 0.409601 0
M  V30 438 H 40.0437 -4.31415 0.454264 0
M  V30 439 H 40.7147 -5.47618 -0.694175 0
M  V30 440 H 43.1907 -3.81266 -1.66659 0
M  V30 441 H 42.0667 -4.83512 -2.59822 0
M  V30 442 H 42.3277 -3.16744 -3.08424 0
M  V30 443 N 41.3868 0.248026 -1.55636 0
M  V30 444 C 42.3498 1.29044 -1.89421 0
M  V30 445 C 43.3498 1.41134 -0.770581 0
M  V30 446 O 44.5398 1.39854 -1.03858 0
M  V30 447 C 41.6718 2.66831 -2.12165 0
M  V30 448 H 42.8648 1.00305 -2.82629 0
M  V30 449 H 40.4178 0.487265 -1.48511 0
M  V30 450 H 41.1528 3.00711 -1.21422 0
M  V30 451 H 40.9378 2.59438 -2.93997 0
M  V30 452 H 42.4278 3.42103 -2.3949 0
M  V30 453 N 42.8649 1.48995 0.513639 0
M  V30 454 C 43.8119 1.6473 1.61656 0
M  V30 455 C 44.7819 0.488984 1.58739 0
M  V30 456 O 45.9669 0.714478 1.76918 0
M  V30 457 C 43.1069 1.7082 2.99858 0
M  V30 458 C 42.2199 2.9787 3.12885 0
M  V30 459 C 41.3549 2.95017 4.41744 0
M  V30 460 C 40.3939 4.16702 4.48359 0
M  V30 461 N 39.5309 4.11832 5.68629 0
M  V30 462 H 44.3709 2.58909 1.47547 0
M  V30 463 H 41.9079 1.28382 0.71808 0
M  V30 464 H 43.8659 1.72331 3.79944 0
M  V30 465 H 42.4959 0.801181 3.12699 0
M  V30 466 H 41.5479 3.06029 2.25944 0
M  V30 467 H 42.8599 3.8786 3.13633 0
M  V30 468 H 42.0139 2.95021 5.30139 0
M  V30 469 H 40.7529 2.02784 4.43542 0
M  V30 470 H 39.7579 4.16955 3.58369 0
M  V30 471 H 40.9829 5.10113 4.48287 0
M  V30 472 H 38.9289 3.22428 5.71293 0
M  V30 473 H 38.8459 4.95543 5.7094 0
M  V30 474 H 40.1139 4.1592 6.59266 0
M  V30 475 N 44.343 -0.763751 1.37857 0
M  V30 476 C 45.273 -1.89103 1.36975 0
M  V30 477 C 46.254 -1.68439 0.237152 0
M  V30 478 O 47.439 -1.8918 0.438713 0
M  V30 479 C 44.569 -3.26496 1.18395 0
M  V30 480 C 43.523 -3.61741 2.28751 0
M  V30 481 C 42.849 -4.97762 1.95286 0
M  V30 482 C 44.149 -3.67665 3.70972 0
M  V30 483 H 45.843 -1.90099 2.31307 0
M  V30 484 H 43.389 -0.91319 1.11341 0
M  V30 485 H 45.342 -4.05003 1.16406 0
M  V30 486 H 44.066 -3.25955 0.205215 0
M  V30 487 H 42.725 -2.85547 2.29909 0
M  V30 488 H 42.373 -4.93769 0.959221 0
M  V30 489 H 42.073 -5.22313 2.69189 0
M  V30 490 H 43.597 -5.7866 1.94898 0
M  V30 491 H 45.011 -4.36307 3.719 0
M  V30 492 H 43.408 -4.03718 4.43995 0
M  V30 493 H 44.478 -2.68134 4.0402 0
M  V30 494 N 45.8211 -1.22559 -0.990812 0
M  V30 495 C 47.0681 -1.05141 -1.73065 0
M  V30 496 C 47.3961 0.413191 -1.9006 0
M  V30 497 O 46.6511 1.32257 -1.44245 0
M  V30 498 C 46.9501 -1.71011 -3.13831 0
M  V30 499 C 46.6161 -3.20911 -3.16745 0
M  V30 500 C 45.2781 -3.61812 -3.17247 0
M  V30 501 C 47.6301 -4.16846 -3.12872 0
M  V30 502 C 44.9581 -4.97127 -3.1158 0
M  V30 503 C 47.3101 -5.5214 -3.08746 0
M  V30 504 C 45.9741 -5.92419 -3.07565 0
M  V30 505 H 45.2441 -0.384738 -0.633291 0
M  V30 506 H 47.8911 -1.5235 -1.16025 0
M  V30 507 H 46.1961 -1.16133 -3.74193 0
M  V30 508 H 47.8931 -1.55023 -3.69823 0
M  V30 509 H 44.4831 -2.88344 -3.17105 0
M  V30 510 H 48.6671 -3.86263 -3.11632 0
M  V30 511 H 43.9231 -5.27562 -3.09012 0
M  V30 512 H 48.0971 -6.26201 -3.04705 0
M  V30 513 H 45.7241 -6.97236 -3.02929 0
M  V30 514 N 47.2992 1.18797 -1.03562 0
M  V30 515 C 48.2462 2.22253 -0.622259 0
M  V30 516 C 49.2162 1.61987 0.36736 0
M  V30 517 O 50.4012 1.88986 0.262492 0
M  V30 518 C 47.5412 3.45097 0.0138462 0
M  V30 519 C 46.6542 4.19722 -1.02263 0
M  V30 520 C 45.7892 5.30009 -0.355573 0
M  V30 521 C 44.8282 5.96399 -1.37749 0
M  V30 522 N 43.9652 6.98234 -0.735766 0
M  V30 523 H 48.8052 2.56968 -1.50903 0
M  V30 524 H 46.3422 1.26245 -0.755017 0
M  V30 525 H 48.3002 4.15279 0.399948 0
M  V30 526 H 46.9302 3.11018 0.864158 0
M  V30 527 H 45.9822 3.48418 -1.52673 0
M  V30 528 H 47.2942 4.65227 -1.79903 0
M  V30 529 H 46.4482 6.0664 0.0850095 0
M  V30 530 H 45.1872 4.85592 0.452967 0
M  V30 531 H 44.1922 5.18512 -1.82826 0
M  V30 532 H 45.4172 6.42899 -2.18764 0
M  V30 533 H 43.3632 6.55979 0.0525597 0
M  V30 534 H 43.2802 7.41965 -1.44995 0
M  V30 535 H 44.5482 7.78845 -0.31941 0
M  V30 536 N 48.7773 0.814389 1.34928 0
M  V30 537 C 50.0543 0.321363 1.92942 0
M  V30 538 C 50.4343 -1.19014 1.74353 0
M  V30 539 O 49.7823 -1.99328 1.11716 0
M  V30 540 C 49.9923 0.741323 3.41036 0
M  V30 541 C 51.3403 0.735266 4.18185 0
M  V30 542 O 52.3643 0.68336 3.49584 0
M  V30 543 O 51.2233 0.800703 5.40602 0
M  V30 544 H 48.3173 0.0858893 0.822528 0
M  V30 545 H 50.8633 0.898609 1.43955 0
M  V30 546 H 49.6353 1.78276 3.4833 0
M  V30 547 H 49.2583 0.139307 3.97356 0
M  V30 548 N 50.2554 -1.46986 0.568584 0
M  V30 549 C 51.4854 -2.0653 0.0539173 0
M  V30 550 C 51.8934 -1.42004 -1.25026 0
M  V30 551 O 51.2364 -0.514541 -1.76347 0
M  V30 552 C 51.2984 -3.58938 -0.200854 0
M  V30 553 C 50.9624 -4.45572 1.01559 0
M  V30 554 C 51.9594 -4.82986 1.92407 0
M  V30 555 C 49.6444 -4.8692 1.23346 0
M  V30 556 C 51.6384 -5.60559 3.03402 0
M  V30 557 C 49.3254 -5.64255 2.34649 0
M  V30 558 C 50.3234 -6.00986 3.24507 0
M  V30 559 O 50.0114 -6.76761 4.33878 0
M  V30 560 H 49.7434 -0.674292 0.0480234 0
M  V30 561 H 52.2974 -1.89812 0.784896 0
M  V30 562 H 50.5274 -3.73911 -0.986279 0
M  V30 563 H 52.2164 -4.0046 -0.662294 0
M  V30 564 H 52.9824 -4.51633 1.76785 0
M  V30 565 H 48.8614 -4.57789 0.543178 0
M  V30 566 H 52.4054 -5.89147 3.73565 0
M  V30 567 H 48.3024 -5.95021 2.5024 0
M  V30 568 H 49.0704 -6.95168 4.32068 0
M  V30 569 N 51.7335 -0.305618 -1.54608 0
M  V30 570 C 52.9585 0.307562 -2.05107 0
M  V30 571 C 53.3835 1.46385 -1.18123 0
M  V30 572 O 52.7415 1.8034 -0.186324 0
M  V30 573 C 52.7895 0.73704 -3.52987 0
M  V30 574 O 51.8935 1.84134 -3.6901 0
M  V30 575 H 51.2345 0.0589143 -0.661381 0
M  V30 576 H 53.7645 -0.448807 -1.99617 0
M  V30 577 H 53.7745 1.02459 -3.94925 0
M  V30 578 H 52.4495 -0.108773 -4.15758 0
M  V30 579 H 51.0265 1.55398 -3.38978 0
M  V30 580 N 53.2116 1.57565 -0.0334293 0
M  V30 581 C 54.4366 1.96689 0.657895 0
M  V30 582 C 54.8616 0.910057 1.64619 0
M  V30 583 O 54.2196 -0.128598 1.80843 0
M  V30 584 C 54.2676 3.34905 1.33683 0
M  V30 585 O 53.3716 3.31574 2.45219 0
M  V30 586 H 52.7126 0.641205 0.172489 0
M  V30 587 H 55.2426 2.04372 -0.0965621 0
M  V30 588 H 55.2526 3.71234 1.69262 0
M  V30 589 H 53.9276 4.11366 0.612411 0
M  V30 590 H 52.5046 3.06968 2.11719 0
M  V30 591 N 54.6897 -0.239769 1.55765 0
M  V30 592 C 55.9357 -0.968234 1.78194 0
M  V30 593 C 56.2687 -1.84701 0.599938 0
M  V30 594 O 55.5437 -1.9031 -0.401524 0
M  V30 595 C 55.8267 -1.8227 3.10564 0
M  V30 596 C 55.6797 -0.971633 4.3918 0
M  V30 597 C 56.9987 -2.80388 3.39221 0
M  V30 598 H 54.1177 -0.350572 0.648281 0
M  V30 599 H 56.7597 -0.238259 1.885 0
M  V30 600 H 54.9097 -2.44507 3.01908 0
M  V30 601 H 56.5817 -0.367408 4.59835 0
M  V30 602 H 54.8247 -0.276276 4.32919 0
M  V30 603 H 55.4957 -1.60346 5.28198 0
M  V30 604 H 57.9717 -2.28287 3.47885 0
M  V30 605 H 56.8477 -3.3729 4.33044 0
M  V30 606 H 57.1087 -3.57212 2.60484 0
M  V30 607 N 56.1678 -1.49265 -0.50573 0
M  V30 608 C 57.4138 -1.58748 -1.26202 0
M  V30 609 C 57.7468 -0.271227 -1.92297 0
M  V30 610 O 57.0218 0.724831 -1.80489 0
M  V30 611 C 57.3048 -2.74332 -2.33268 0
M  V30 612 C 57.1578 -4.15737 -1.71705 0
M  V30 613 C 58.4768 -2.85576 -3.34865 0
M  V30 614 H 55.5958 -0.577826 -0.457478 0
M  V30 615 H 58.2378 -1.81532 -0.560897 0
M  V30 616 H 56.3878 -2.55036 -2.93068 0
M  V30 617 H 58.0598 -4.46537 -1.15769 0
M  V30 618 H 56.3028 -4.21605 -1.02135 0
M  V30 619 H 56.9738 -4.92477 -2.49341 0
M  V30 620 H 59.4498 -3.03127 -2.8505 0
M  V30 621 H 58.3258 -3.68135 -4.07146 0
M  V30 622 H 58.5868 -1.94732 -3.96903 0
M  V30 623 N 57.6459 0.756429 -1.3826 0
M  V30 624 C 59.0619 1.0591 -1.19395 0
M  V30 625 C 59.2619 2.01459 -0.0406567 0
M  V30 626 O 58.3179 2.44909 0.614467 0
M  V30 627 C 59.6309 1.64191 -2.51916 0
M  V30 628 C 61.1789 1.76376 -2.58574 0
M  V30 629 C 61.6539 2.38069 -3.91264 0
M  V30 630 N 63.1449 2.45503 -3.92788 0
M  V30 631 C 63.8799 2.94126 -4.92217 0
M  V30 632 N 63.3759 3.42805 -6.02043 0
M  V30 633 N 65.1689 2.9314 -4.7961 0
M  V30 634 H 57.3199 0.122313 -2.12048 0
M  V30 635 H 59.5829 0.116892 -0.940766 0
M  V30 636 H 59.2889 1.01451 -3.3675 0
M  V30 637 H 59.1629 2.6329 -2.70108 0
M  V30 638 H 61.5499 2.38244 -1.74137 0
M  V30 639 H 61.6309 0.759894 -2.44252 0
M  V30 640 H 61.2749 1.76835 -4.76121 0
M  V30 641 H 61.2049 3.39091 -4.02895 0
M  V30 642 H 63.6959 2.1107 -3.13461 0
M  V30 643 H 64.0089 3.78354 -6.73846 0
M  V30 644 H 62.3539 3.4087 -6.05667 0
M  V30 645 H 65.5449 2.54419 -3.92923 0
M  V30 646 H 65.7179 3.30721 -5.5725 0
M  V30 647 N 59.124 1.23083 0.984299 0
M  V30 648 C 60.535 1.05609 1.5396 0
M  V30 649 C 60.886 -0.377793 1.92528 0
M  V30 650 O 60.011 -1.26398 1.75649 0
M  V30 651 C 60.606 1.91087 2.7977 0
M  V30 652 C 59.165 1.77885 3.31713 0
M  V30 653 C 58.312 1.87028 2.04733 0
M  V30 654 H 61.263 1.36802 0.804419 0
M  V30 655 H 61.284 1.43336 3.5247 0
M  V30 656 H 60.796 2.9544 2.51668 0
M  V30 657 H 58.897 0.762995 3.64704 0
M  V30 658 H 59.01 2.61047 4.01735 0
M  V30 659 H 57.374 1.30565 2.18689 0
M  V30 660 H 58.157 2.92929 1.79017 0
M  V30 661 N 60.6021 -1.18246 1.0419 0
M  V30 662 C 61.8481 -1.88536 0.747122 0
M  V30 663 C 62.1811 -1.80223 -0.723409 0
M  V30 664 O 61.4561 -1.20337 -1.52804 0
M  V30 665 C 61.7391 -3.38968 1.21544 0
M  V30 666 C 61.5921 -3.56084 2.74816 0
M  V30 667 C 62.9111 -4.32648 0.806482 0
M  V30 668 H 60.0301 -0.684619 0.272883 0
M  V30 669 H 62.6721 -1.39113 1.29413 0
M  V30 670 H 60.8221 -3.8119 0.750081 0
M  V30 671 H 62.4941 -3.22946 3.29399 0
M  V30 672 H 60.7371 -2.98699 3.14582 0
M  V30 673 H 61.4081 -4.61639 3.02644 0
M  V30 674 H 63.8841 -3.98211 1.20695 0
M  V30 675 H 62.7601 -5.36462 1.1619 0
M  V30 676 H 63.0211 -4.41146 -0.29029 0
M  V30 677 N 62.0802 -0.821533 -1.34494 0
M  V30 678 C 62.9902 -0.244355 -2.33324 0
M  V30 679 C 64.0062 0.620527 -1.62559 0
M  V30 680 O 65.1822 0.528754 -1.94335 0
M  V30 681 C 62.2472 0.585368 -3.41723 0
M  V30 682 C 61.3082 -0.301752 -4.28238 0
M  V30 683 C 60.5412 0.488466 -5.3146 0
M  V30 684 O 60.7642 1.72186 -5.4379 0
M  V30 685 O 59.6982 -0.12848 -6.01763 0
M  V30 686 H 63.5242 -1.06231 -2.84515 0
M  V30 687 H 61.1092 -0.583645 -1.37528 0
M  V30 688 H 62.9912 1.05747 -4.07916 0
M  V30 689 H 61.6662 1.38068 -2.92778 0
M  V30 690 H 60.5732 -0.821315 -3.64973 0
M  V30 691 H 61.9062 -1.06138 -4.8062 0
M  V30 692 N 63.5583 1.46682 -0.576371 0
M  V30 693 C 64.8353 1.95599 0.00703437 0
M  V30 694 C 65.2153 1.51904 1.46589 0
M  V30 695 O 64.5633 0.766755 2.15251 0
M  V30 696 C 64.7733 3.4864 -0.158404 0
M  V30 697 C 66.1213 4.24594 -0.0229439 0
M  V30 698 O 67.1453 3.56094 -0.0869173 0
M  V30 699 O 66.0043 5.46373 0.118015 0
M  V30 700 H 63.0983 0.825275 0.053384 0
M  V30 701 H 65.6443 1.56996 -0.644244 0
M  V30 702 H 64.4163 3.7331 -1.17282 0
M  V30 703 H 64.0393 3.94057 0.5296 0
M  V30 704 N 65.0364 0.313813 1.54444 0
M  V30 705 C 65.9864 -0.571898 2.20711 0
M  V30 706 C 66.9704 -1.08913 1.18435 0
M  V30 707 O 68.1624 -1.02777 1.44104 0
M  V30 708 C 65.2914 -1.7371 2.96108 0
M  V30 709 C 64.3774 -1.23522 4.05713 0
M  V30 710 N 64.7684 -0.452288 5.03774 0
M  V30 711 C 63.0664 -1.51482 4.19487 0
M  V30 712 C 63.7674 -0.183438 5.81411 0
M  V30 713 N 62.7434 -0.766845 5.38164 0
M  V30 714 H 66.5454 0.0336802 2.93881 0
M  V30 715 H 64.0594 0.119192 1.61962 0
M  V30 716 H 66.0564 -2.38329 3.4206 0
M  V30 717 H 64.7164 -2.34625 2.24458 0
M  V30 718 H 65.7274 -0.0960131 5.17811 0
M  V30 719 H 62.4044 -2.13053 3.59047 0
M  V30 720 H 63.7944 0.446216 6.70417 0
M  V30 721 N 66.5145 -1.57545 0.0417849 0
M  V30 722 C 67.9305 -1.56467 -0.314704 0
M  V30 723 C 68.1305 -1.04859 -1.72066 0
M  V30 724 O 67.1865 -0.700983 -2.42575 0
M  V30 725 C 68.4995 -3.00317 -0.15174 0
M  V30 726 C 70.0475 -3.12201 -0.223553 0
M  V30 727 C 70.5225 -4.57913 -0.0892295 0
M  V30 728 N 72.0135 -4.6297 -0.145808 0
M  V30 729 C 72.7485 -5.73362 -0.0658459 0
M  V30 730 N 72.2445 -6.92769 0.0659282 0
M  V30 731 N 74.0375 -5.6197 -0.12075 0
M  V30 732 H 66.1885 -1.89416 0.961014 0
M  V30 733 H 68.4515 -0.871862 0.372237 0
M  V30 734 H 68.1575 -3.42073 0.817254 0
M  V30 735 H 68.0315 -3.65892 -0.916692 0
M  V30 736 H 70.4185 -2.70349 -1.18301 0
M  V30 737 H 70.4995 -2.49323 0.571994 0
M  V30 738 H 70.1435 -5.00448 0.866867 0
M  V30 739 H 70.0735 -5.18786 -0.903802 0
M  V30 740 H 72.5645 -3.7709 -0.247286 0
M  V30 741 H 72.8775 -7.72707 0.119905 0
M  V30 742 H 71.2225 -6.94927 0.100885 0
M  V30 743 H 74.4135 -4.67572 -0.222187 0
M  V30 744 H 74.5865 -6.47977 -0.0549735 0
M  V30 745 N 67.9926 0.231505 -1.5589 0
M  V30 746 C 68.9246 1.31006 -1.8807 0
M  V30 747 C 69.9376 1.43539 -0.768145 0
M  V30 748 O 71.1266 1.44614 -1.04638 0
M  V30 749 C 68.2266 2.68688 -2.06543 0
M  V30 750 C 67.3996 2.78228 -3.37502 0
M  V30 751 C 66.4586 3.96857 -3.4553 0
M  V30 752 O 65.4846 3.85662 -4.18633 0
M  V30 753 N 66.6866 5.1072 -2.75944 0
M  V30 754 H 69.4516 1.03731 -2.81176 0
M  V30 755 H 67.0126 0.421573 -1.56315 0
M  V30 756 H 69.0046 3.46412 -2.09239 0
M  V30 757 H 67.5746 2.88605 -1.20109 0
M  V30 758 H 66.7946 1.87059 -3.46991 0
M  V30 759 H 68.0826 2.81564 -4.23791 0
M  V30 760 H 67.4806 5.2271 -2.16311 0
M  V30 761 H 66.0376 5.86523 -2.84314 0
M  V30 762 N 69.4707 1.49531 0.497807 0
M  V30 763 C 70.7167 1.59415 1.25358 0
M  V30 764 C 71.0497 0.281422 1.9215 0
M  V30 765 O 70.3247 -0.715249 1.80871 0
M  V30 766 C 70.6077 2.75566 2.3181 0
M  V30 767 C 70.4607 4.16642 1.69498 0
M  V30 768 C 71.7797 2.87347 3.33346 0
M  V30 769 H 68.8987 0.580244 0.454408 0
M  V30 770 H 71.5407 1.81827 0.551262 0
M  V30 771 H 69.6907 2.56587 2.91711 0
M  V30 772 H 71.3627 4.47145 1.13399 0
M  V30 773 H 69.6057 4.22141 0.998978 0
M  V30 774 H 70.2767 4.93792 2.46725 0
M  V30 775 H 72.7527 3.04634 2.83438 0
M  V30 776 H 71.6287 3.70289 4.05188 0
M  V30 777 H 71.8897 1.96834 3.95865 0
M  V30 778 N 70.9488 -0.749086 1.3866 0
M  V30 779 C 72.1948 -1.51056 1.35314 0
M  V30 780 C 72.5278 -1.94121 -0.0553751 0
M  V30 781 O 71.8028 -1.65763 -1.01749 0
M  V30 782 C 72.0858 -2.76003 2.31288 0
M  V30 783 C 71.9388 -2.39047 3.8102 0
M  V30 784 C 73.2578 -3.78046 2.2532 0
M  V30 785 H 70.3768 -0.547972 0.492844 0
M  V30 786 H 73.0188 -0.857628 1.69543 0
M  V30 787 H 71.1688 -3.31716 2.02229 0
M  V30 788 H 72.8408 -1.89074 4.20771 0
M  V30 789 H 71.0838 -1.71449 3.98482 0
M  V30 790 H 71.7548 -3.28462 4.4364 0
M  V30 791 H 74.2308 -3.31884 2.50983 0
M  V30 792 H 73.1068 -4.63159 2.94576 0
M  V30 793 H 73.3678 -4.23957 1.25352 0
M  V30 794 N 72.4269 -1.23603 -0.977757 0
M  V30 795 C 73.3369 -1.03632 -2.1047 0
M  V30 796 C 74.3529 0.0199435 -1.73989 0
M  V30 797 O 75.5289 -0.176076 -2.00629 0
M  V30 798 C 72.5939 -0.63276 -3.40877 0
M  V30 799 C 71.6549 -1.76437 -3.91367 0
M  V30 800 C 70.8879 -1.37997 -5.15551 0
M  V30 801 O 71.1109 -0.265357 -5.69782 0
M  V30 802 O 70.0449 -2.20201 -5.60174 0
M  V30 803 H 73.8709 -1.98086 -2.30208 0
M  V30 804 H 71.4559 -1.02332 -1.08851 0
M  V30 805 H 73.3379 -0.418761 -4.19314 0
M  V30 806 H 72.0129 0.282754 -3.22463 0
M  V30 807 H 70.9199 -2.03304 -3.14036 0
M  V30 808 H 72.2529 -2.6583 -4.14241 0
M  V30 809 N 73.905 1.17692 -1.04816 0
M  V30 810 C 75.151 1.88137 -0.75711 0
M  V30 811 C 75.484 1.80604 0.713841 0
M  V30 812 O 74.759 1.21146 1.52164 0
M  V30 813 C 75.042 3.38318 -1.2334 0
M  V30 814 C 74.895 3.54622 -2.76701 0
M  V30 815 C 76.214 4.32214 -0.829415 0
M  V30 816 H 73.333 0.683163 -0.27651 0
M  V30 817 H 75.975 1.38424 -1.30149 0
M  V30 818 H 74.125 3.80787 -0.770286 0
M  V30 819 H 75.797 3.21194 -3.31107 0
M  V30 820 H 74.04 2.97026 -3.16161 0
M  V30 821 H 74.711 4.60028 -3.05088 0
M  V30 822 H 77.187 3.97565 -1.22805 0
M  V30 823 H 76.063 5.35838 -1.19033 0
M  V30 824 H 76.324 4.41294 0.266891 0
M  V30 825 N 75.3831 0.828654 1.34056 0
M  V30 826 C 76.6111 0.43262 2.02326 0
M  V30 827 C 77.0261 -0.963147 1.62385 0
M  V30 828 O 76.3831 -1.62425 0.832121 0
M  V30 829 C 76.4341 0.53182 3.57567 0
M  V30 830 O 76.1551 1.87258 3.96063 0
M  V30 831 C 77.6561 0.131422 4.43105 0
M  V30 832 H 74.8761 0.172923 0.648335 0
M  V30 833 H 77.4201 1.1184 1.71208 0
M  V30 834 H 75.5751 -0.105938 3.87255 0
M  V30 835 H 75.9891 1.85087 4.90758 0
M  V30 836 H 77.4631 0.251904 5.51425 0
M  V30 837 H 77.9401 -0.925645 4.29335 0
M  V30 838 H 78.5461 0.743207 4.18756 0
M  V30 839 N 76.8612 -1.46375 0.584142 0
M  V30 840 C 78.1072 -2.02678 0.0703716 0
M  V30 841 C 78.4402 -1.4545 -1.28678 0
M  V30 842 O 77.7152 -0.62014 -1.84349 0
M  V30 843 C 77.9982 -3.60099 0.00614674 0
M  V30 844 C 77.8512 -4.27709 1.3923 0
M  V30 845 C 79.1702 -4.34598 -0.693742 0
M  V30 846 H 76.2892 -0.736504 0.027047 0
M  V30 847 H 78.9312 -1.74501 0.751615 0
M  V30 848 H 77.0812 -3.84236 -0.574009 0
M  V30 849 H 78.7532 -4.14832 2.01773 0
M  V30 850 H 76.9962 -3.87016 1.95962 0
M  V30 851 H 77.6672 -5.36478 1.29982 0
M  V30 852 H 80.1432 -4.15615 -0.200869 0
M  V30 853 H 79.0192 -5.44318 -0.707714 0
M  V30 854 H 79.2802 -4.05759 -1.75533 0
M  V30 855 N 78.3393 -0.321999 -1.54275 0
M  V30 856 C 79.5873 0.280489 -2.00144 0
M  V30 857 C 79.9083 1.52777 -1.21178 0
M  V30 858 O 79.1783 1.9338 -0.313187 0
M  V30 859 H 77.7583 0.106632 -0.73935 0
M  V30 860 H 80.4203 -0.438184 -1.8991 0
M  V30 861 H 79.5163 0.537972 -3.07428 0
M  V30 862 N 79.8174 1.5752 -0.0501392 0
M  V30 863 C 80.7474 2.14502 0.922566 0
M  V30 864 C 81.7284 1.06642 1.3252 0
M  V30 865 O 82.9134 1.34577 1.4001 0
M  V30 866 C 80.0434 2.68916 2.19776 0
M  V30 867 C 78.9974 3.8175 1.93523 0
M  V30 868 C 78.3234 4.22677 3.27487 0
M  V30 869 C 79.6234 5.06932 1.25765 0
M  V30 870 H 81.3174 2.9603 0.447952 0
M  V30 871 H 78.8634 1.42401 0.214024 0
M  V30 872 H 80.8164 3.07419 2.88222 0
M  V30 873 H 79.5404 1.84578 2.69441 0
M  V30 874 H 78.1994 3.43718 1.27489 0
M  V30 875 H 77.8474 3.35291 3.74952 0
M  V30 876 H 77.5474 4.98725 3.1072 0
M  V30 877 H 79.0714 4.63779 3.97166 0
M  V30 878 H 80.4854 5.42888 1.84244 0
M  V30 879 H 78.8824 5.88116 1.19328 0
M  V30 880 H 79.9524 4.84337 0.233536 0
M  V30 881 N 81.2955 -0.223234 1.56011 0
M  V30 882 C 82.2275 -1.30006 1.88762 0
M  V30 883 C 83.2405 -1.43129 0.775746 0
M  V30 884 O 84.4295 -1.44057 1.05403 0
M  V30 885 C 81.5295 -2.67589 2.07965 0
M  V30 886 C 80.7025 -2.76434 3.38973 0
M  V30 887 C 79.7615 -3.95019 3.47629 0
M  V30 888 O 78.7875 -3.83436 4.20672 0
M  V30 889 N 79.9895 -5.09249 2.78649 0
M  V30 890 H 82.7545 -1.02238 2.81722 0
M  V30 891 H 80.3155 -0.413278 1.56536 0
M  V30 892 H 82.3075 -3.45297 2.11073 0
M  V30 893 H 80.8775 -2.87964 1.21638 0
M  V30 894 H 80.0975 -1.85216 3.47978 0
M  V30 895 H 81.3855 -2.79313 4.25278 0
M  V30 896 H 80.7835 -5.21556 2.19081 0
M  V30 897 H 79.3405 -5.85007 2.8742 0
M  V30 898 N 82.7736 -1.49793 -0.48987 0
M  V30 899 C 83.7036 -1.70201 -1.59856 0
M  V30 900 C 84.6846 -0.55076 -1.60937 0
M  V30 901 O 85.8696 -0.787841 -1.77501 0
M  V30 902 C 82.9996 -1.77882 -2.98287 0
M  V30 903 C 81.9536 -2.92907 -3.12073 0
M  V30 904 C 81.2796 -2.85712 -4.51965 0
M  V30 905 C 82.5796 -4.3369 -2.91051 0
M  V30 906 H 84.2736 -2.63025 -1.43032 0
M  V30 907 H 81.8196 -1.26574 -0.686664 0
M  V30 908 H 83.7726 -1.90744 -3.75759 0
M  V30 909 H 82.4966 -0.816653 -3.16225 0
M  V30 910 H 81.1556 -2.79665 -2.37029 0
M  V30 911 H 80.8036 -1.8738 -4.66795 0
M  V30 912 H 80.5036 -3.62921 -4.62128 0
M  V30 913 H 82.0276 -3.00598 -5.31482 0
M  V30 914 H 83.4416 -4.47555 -3.58284 0
M  V30 915 H 81.8386 -5.12205 -3.12675 0
M  V30 916 H 82.9086 -4.47362 -1.87071 0
M  V30 917 N 84.2517 0.741722 -1.39055 0
M  V30 918 C 85.5007 1.49656 -1.35225 0
M  V30 919 C 85.8137 1.95533 0.0512708 0
M  V30 920 O 87.0197 2.7067 0.212138 0
M  V30 921 C 85.4757 2.70389 -2.37525 0
M  V30 922 C 85.0837 2.31489 -3.83558 0
M  V30 923 C 86.8277 3.48236 -2.42759 0
M  V30 924 C 84.7347 3.48903 -4.77515 0
M  V30 925 H 83.6647 0.56197 -0.502699 0
M  V30 926 H 86.3157 0.809727 -1.64668 0
M  V30 927 H 84.6977 3.41113 -2.01142 0
M  V30 928 H 85.8717 1.68354 -4.28945 0
M  V30 929 H 84.1867 1.66749 -3.81554 0
M  V30 930 H 86.7837 4.35558 -3.1015 0
M  V30 931 H 87.1267 3.90229 -1.45008 0
M  V30 932 H 87.6597 2.84535 -2.78002 0
M  V30 933 H 84.3987 3.11966 -5.76504 0
M  V30 934 H 83.9187 4.11041 -4.36813 0
M  V30 935 H 85.5977 4.15328 -4.96096 0
M  V30 936 N 85.7298 1.2412 0.971189 0
M  V30 937 C 86.6618 0.988349 2.06795 0
M  V30 938 C 87.6748 -0.0409541 1.62748 0
M  V30 939 O 88.8638 0.195673 1.77424 0
M  V30 940 C 85.9638 0.469023 3.35639 0
M  V30 941 C 85.1368 1.56065 4.08611 0
M  V30 942 C 84.1958 1.04458 5.15728 0
M  V30 943 O 83.2218 1.73553 5.42096 0
M  V30 944 N 84.4238 -0.122817 5.8037 0
M  V30 945 H 87.1888 1.93265 2.29061 0
M  V30 946 H 84.7498 1.15102 1.13856 0
M  V30 947 H 86.7418 0.108613 4.04554 0
M  V30 948 H 85.3118 -0.380919 3.1027 0
M  V30 949 H 84.5318 2.09341 3.34021 0
M  V30 950 H 85.8198 2.29449 4.54126 0
M  V30 951 H 85.2178 -0.700563 5.61345 0
M  V30 952 H 83.7748 -0.424404 6.50417 0
M  V30 953 N 87.2079 -1.17134 1.05439 0
M  V30 954 C 88.1379 -2.2342 0.678649 0
M  V30 955 C 89.1189 -1.66971 -0.32476 0
M  V30 956 O 90.3039 -1.93149 -0.201802 0
M  V30 957 C 87.4339 -3.47256 0.0552099 0
M  V30 958 C 86.3879 -4.16543 0.98365 0
M  V30 959 C 85.7139 -5.34231 0.223961 0
M  V30 960 C 87.0139 -4.68495 2.3089 0
M  V30 961 H 88.7079 -2.55105 1.56722 0
M  V30 962 H 86.2539 -1.2262 0.754998 0
M  V30 963 H 88.2069 -4.20828 -0.21946 0
M  V30 964 H 86.9309 -3.14846 -0.868319 0
M  V30 965 H 85.5899 -3.44887 1.24293 0
M  V30 966 H 85.2379 -4.98071 -0.702412 0
M  V30 967 H 84.9379 -5.81527 0.842627 0
M  V30 968 H 86.4619 -6.10585 -0.0433671 0
M  V30 969 H 87.8759 -5.33691 2.09396 0
M  V30 970 H 86.2729 -5.26379 2.88176 0
M  V30 971 H 87.3429 -3.85169 2.94572 0
M  V30 972 N 88.686 -0.835752 -1.33615 0
M  V30 973 C 89.935 -0.426289 -1.97144 0
M  V30 974 C 90.248 1.01912 -1.66953 0
M  V30 975 O 91.454 1.53311 -2.24072 0
M  V30 976 C 89.91 -0.711321 -3.52801 0
M  V30 977 C 89.518 -2.1712 -3.91871 0
M  V30 978 C 91.262 -0.368654 -4.22896 0
M  V30 979 C 89.169 -2.40044 -5.40493 0
M  V30 980 H 88.099 -0.15567 -0.737755 0
M  V30 981 H 90.75 -1.0239 -1.52278 0
M  V30 982 H 89.132 -0.0433766 -3.95976 0
M  V30 983 H 90.306 -2.87936 -3.59763 0
M  V30 984 H 88.621 -2.47654 -3.34749 0
M  V30 985 H 91.218 -0.517601 -5.32189 0
M  V30 986 H 91.561 0.688078 -4.10574 0
M  V30 987 H 92.094 -0.991702 -3.8524 0
M  V30 988 H 88.833 -3.44271 -5.57815 0
M  V30 989 H 88.353 -1.73785 -5.74072 0
M  V30 990 H 90.032 -2.23042 -6.0734 0
M  V30 991 N 90.1641 1.46063 -0.591896 0
M  V30 992 C 91.1121 2.32124 0.148739 0
M  V30 993 C 92.1061 1.45035 0.875286 0
M  V30 994 O 93.3121 1.61609 0.792632 0
M  V30 995 H 89.6871 0.749024 0.066832 0
M  V30 996 H 91.6581 2.92392 -0.595783 0
M  V30 997 C 90.4071 3.28373 1.1431 0
M  V30 998 H 89.7301 3.95371 0.59346 0
M  V30 999 H 91.1701 3.91352 1.63155 0
M  V30 1000 C 89.6291 2.54393 2.20875 0
M  V30 1001 O 90.1591 2.31373 3.28374 0
M  V30 1002 N 88.3651 2.14797 1.95731 0
M  V30 1003 H 87.9121 2.33719 1.08319 0
M  V30 1004 H 87.8701 1.65619 2.67241 0
M  V30 1005 N 91.6422 0.330177 1.54103 0
M  V30 1006 C 92.8882 -0.270806 2.00984 0
M  V30 1007 C 93.2212 -1.51265 1.21789 0
M  V30 1008 O 92.4962 -1.92142 0.301927 0
M  V30 1009 C 92.7792 -0.598339 3.55094 0
M  V30 1010 C 92.6322 0.654674 4.4501 0
M  V30 1011 C 93.9512 -1.41334 4.16789 0
M  V30 1012 H 91.0702 -0.0969531 0.730595 0
M  V30 1013 H 93.7122 0.448066 1.84641 0
M  V30 1014 H 91.8622 -1.21078 3.69151 0
M  V30 1015 H 93.5342 1.29285 4.42813 0
M  V30 1016 H 91.7772 1.28224 4.14416 0
M  V30 1017 H 92.4482 0.380944 5.50684 0
M  V30 1018 H 94.9242 -0.895597 4.06347 0
M  V30 1019 H 93.8002 -1.61127 5.24718 0
M  V30 1020 H 94.0612 -2.41146 3.70541 0
M  V30 1021 N 93.1203 -1.57491 0.0584922 0
M  V30 1022 C 94.3973 -1.84346 -0.653918 0
M  V30 1023 C 94.7773 -0.948355 -1.88599 0
M  V30 1024 O 94.1253 -0.0112403 -2.28497 0
M  V30 1025 C 94.3353 -3.34239 -1.00425 0
M  V30 1026 C 95.6833 -4.01431 -1.38342 0
M  V30 1027 O 96.7073 -3.38907 -1.09637 0
M  V30 1028 O 95.5663 -5.11683 -1.91943 0
M  V30 1029 H 92.6603 -0.761112 -0.323478 0
M  V30 1030 H 95.2063 -1.6947 0.0884125 0
M  V30 1031 H 93.9783 -3.91089 -0.128625 0
M  V30 1032 H 93.6013 -3.54329 -1.80378 0
M  V30 1033 N 94.5984 0.214957 -1.56127 0
M  V30 1034 C 95.5084 1.28727 -1.96129 0
M  V30 1035 C 96.5244 1.50916 -0.866044 0
M  V30 1036 O 97.7004 1.63918 -1.17016 0
M  V30 1037 C 94.7654 2.61569 -2.27558 0
M  V30 1038 C 93.8264 2.47625 -3.50685 0
M  V30 1039 C 93.0594 3.74132 -3.80606 0
M  V30 1040 O 93.2824 4.77438 -3.12104 0
M  V30 1041 O 92.2164 3.70849 -4.74083 0
M  V30 1042 H 96.0424 0.977855 -2.87527 0
M  V30 1043 H 93.6274 0.418358 -1.43423 0
M  V30 1044 H 95.5094 3.40012 -2.48938 0
M  V30 1045 H 94.1844 2.92178 -1.39332 0
M  V30 1046 H 93.0914 1.67361 -3.34576 0
M  V30 1047 H 94.4244 2.21954 -4.39315 0
M  V30 1048 N 96.0765 1.50051 0.48192 0
M  V30 1049 C 97.3225 1.60736 1.2366 0
M  V30 1050 C 97.6555 0.301786 1.91841 0
M  V30 1051 O 96.9305 -0.696025 1.8162 0
M  V30 1052 C 97.2135 2.78009 2.28874 0
M  V30 1053 C 97.0665 4.18416 1.65069 0
M  V30 1054 C 98.3855 2.90867 3.30279 0
M  V30 1055 H 95.5045 0.585031 0.448228 0
M  V30 1056 H 98.1465 1.82402 0.531946 0
M  V30 1057 H 96.2965 2.59667 2.88973 0
M  V30 1058 H 97.9685 4.48322 1.0865 0
M  V30 1059 H 96.2115 4.23177 0.954148 0
M  V30 1060 H 96.8825 4.96381 2.41474 0
M  V30 1061 H 99.3585 3.07623 2.80191 0
M  V30 1062 H 98.2345 3.74566 4.01238 0
M  V30 1063 H 98.4955 2.01021 3.93755 0
M  V30 1064 N 97.5546 -0.734337 1.39446 0
M  V30 1065 C 98.5026 -1.86971 1.38364 0
M  V30 1066 C 99.4966 -1.67288 0.266687 0
M  V30 1067 O 100.703 -1.74621 0.436755 0
M  V30 1068 H 97.0776 -0.615474 0.432082 0
M  V30 1069 H 99.0486 -1.85 2.34132 0
M  V30 1070 C 97.7976 -3.2466 1.24465 0
M  V30 1071 H 97.1206 -3.40402 2.09682 0
M  V30 1072 H 98.5606 -4.04292 1.27764 0
M  V30 1073 C 97.0196 -3.36867 -0.0468674 0
M  V30 1074 O 97.5496 -3.88618 -1.01681 0
M  V30 1075 N 95.7556 -2.90391 -0.110145 0
M  V30 1076 H 95.3026 -2.48466 0.679868 0
M  V30 1077 H 95.2606 -2.98939 -0.973799 0
M  V30 1078 N 99.0327 -1.24633 -0.964593 0
M  V30 1079 C 99.9647 -0.999302 -2.06268 0
M  V30 1080 C 100.978 0.0323226 -1.62768 0
M  V30 1081 O 102.167 -0.205079 -1.77318 0
M  V30 1082 C 99.2667 -0.486816 -3.35385 0
M  V30 1083 C 98.4397 -1.5823 -4.07777 0
M  V30 1084 C 97.4987 -1.07191 -5.15166 0
M  V30 1085 O 96.5247 -1.76426 -5.41168 0
M  V30 1086 N 97.7267 0.0920373 -5.80427 0
M  V30 1087 H 100.492 -1.94477 -2.28033 0
M  V30 1088 H 98.0527 -1.15704 -1.13244 0
M  V30 1089 H 100.045 -0.130066 -4.04491 0
M  V30 1090 H 98.6147 0.364459 -3.10468 0
M  V30 1091 H 97.8347 -2.11109 -3.32906 0
M  V30 1092 H 99.1227 -2.31854 -4.52903 0
M  V30 1093 H 98.5207 0.670784 -5.61709 0
M  V30 1094 H 97.0777 0.389905 -6.50633 0
M  V30 1095 N 100.511 1.16574 -1.06058 0
M  V30 1096 C 101.76 1.86385 -0.770944 0
M  V30 1097 C 102.073 1.82448 0.705129 0
M  V30 1098 O 103.279 2.47815 1.10905 0
M  V30 1099 C 101.735 3.34466 -1.32893 0
M  V30 1100 C 101.343 3.46883 -2.83507 0
M  V30 1101 C 103.087 4.09548 -1.11672 0
M  V30 1102 C 100.994 4.89036 -3.32562 0
M  V30 1103 H 99.9238 0.698181 -0.284709 0
M  V30 1104 H 102.575 1.31583 -1.27899 0
M  V30 1105 H 100.957 3.88859 -0.748662 0
M  V30 1106 H 102.131 3.02663 -3.47465 0
M  V30 1107 H 100.446 2.85232 -3.03368 0
M  V30 1108 H 103.043 5.14434 -1.45814 0
M  V30 1109 H 103.386 4.16264 -0.0549535 0
M  V30 1110 H 103.919 3.61387 -1.66265 0
M  V30 1111 H 100.658 4.87499 -4.38207 0
M  V30 1112 H 100.178 5.3389 -2.73351 0
M  V30 1113 H 101.857 5.57843 -3.2775 0
M  V30 1114 N 101.989 0.842826 1.3317 0
M  V30 1115 C 103.235 0.441099 1.97945 0
M  V30 1116 C 103.568 -0.998024 1.66593 0
M  V30 1117 O 102.843 -1.69839 0.947898 0
M  V30 1118 C 103.126 0.666841 3.53872 0
M  V30 1119 C 102.979 2.15352 3.94897 0
M  V30 1120 C 104.298 0.115544 4.39948 0
M  V30 1121 H 101.417 0.161739 0.719034 0
M  V30 1122 H 104.059 1.05907 1.57746 0
M  V30 1123 H 102.209 0.140828 3.88245 0
M  V30 1124 H 103.881 2.7447 3.70761 0
M  V30 1125 H 102.124 2.63653 3.44484 0
M  V30 1126 H 102.795 2.26221 5.03516 0
M  V30 1127 H 105.271 0.565213 4.12243 0
M  V30 1128 H 104.147 0.303152 5.48062 0
M  V30 1129 H 104.408 -0.980935 4.3108 0
M  V30 1130 N 103.467 -1.45747 0.599634 0
M  V30 1131 C 104.695 -2.06668 0.0978551 0
M  V30 1132 C 105.11 -1.44562 -1.21439 0
M  V30 1133 O 104.467 -0.556923 -1.73795 0
M  V30 1134 C 104.518 -3.61456 -0.0567044 0
M  V30 1135 O 104.239 -4.21242 1.20361 0
M  V30 1136 C 105.74 -4.39345 -0.590869 0
M  V30 1137 H 102.96 -0.667825 0.0651943 0
M  V30 1138 H 105.504 -1.87115 0.82511 0
M  V30 1139 H 103.659 -3.80378 -0.734251 0
M  V30 1140 H 104.073 -5.14323 1.02821 0
M  V30 1141 H 105.547 -5.48182 -0.648131 0
M  V30 1142 H 106.024 -4.08568 -1.61147 0
M  V30 1143 H 106.63 -4.25268 0.0523679 0
M  V30 1144 N 104.945 -0.338344 -1.53925 0
M  V30 1145 C 106.173 0.261298 -2.05243 0
M  V30 1146 C 106.588 1.44625 -1.21363 0
M  V30 1147 O 105.945 1.80811 -0.247736 0
M  V30 1148 C 105.996 0.681412 -3.5502 0
M  V30 1149 O 105.717 -0.456414 -4.35716 0
M  V30 1150 C 107.218 1.34232 -4.22489 0
M  V30 1151 H 104.438 0.0513685 -0.669031 0
M  V30 1152 H 106.982 -0.488822 -1.98572 0
M  V30 1153 H 105.137 1.38148 -3.61931 0
M  V30 1154 H 105.551 -0.122564 -5.24357 0
M  V30 1155 H 107.025 1.58708 -5.28693 0
M  V30 1156 H 107.502 2.29426 -3.74514 0
M  V30 1157 H 108.108 0.684424 -4.19757 0
M  V30 1158 N 106.423 1.57458 -0.0668435 0
M  V30 1159 C 107.371 2.13639 0.919851 0
M  V30 1160 C 108.365 1.07204 1.31163 0
M  V30 1161 O 109.571 1.25591 1.28945 0
M  V30 1162 H 105.946 0.683048 0.314562 0
M  V30 1163 H 107.917 2.95415 0.421047 0
M  V30 1164 C 106.666 2.70892 2.17975 0
M  V30 1165 H 105.989 3.5246 1.88711 0
M  V30 1166 H 107.429 3.13803 2.85138 0
M  V30 1167 C 105.888 1.65414 2.93496 0
M  V30 1168 O 106.418 1.07619 3.87015 0
M  V30 1169 N 104.624 1.36564 2.56512 0
M  V30 1170 H 104.171 1.83751 1.80536 0
M  V30 1171 H 104.129 0.66223 3.07347 0
M  V30 1172 N 107.901 -0.206675 1.56239 0
M  V30 1173 C 109.147 -0.930218 1.80208 0
M  V30 1174 C 109.48 -1.83387 0.638981 0
M  V30 1175 O 108.755 -1.91119 -0.361066 0
M  V30 1176 C 109.038 -1.75641 3.1436 0
M  V30 1177 C 108.891 -0.878257 4.41142 0
M  V30 1178 C 110.21 -2.73129 3.45092 0
M  V30 1179 H 107.329 -0.336742 0.655571 0
M  V30 1180 H 109.971 -0.198222 1.88963 0
M  V30 1181 H 108.121 -2.38048 3.07027 0
M  V30 1182 H 109.793 -0.269787 4.6051 0
M  V30 1183 H 108.036 -0.184385 4.33408 0
M  V30 1184 H 108.707 -1.49106 5.3148 0
M  V30 1185 H 111.183 -2.20856 3.52649 0
M  V30 1186 H 110.059 -3.28028 4.40101 0
M  V30 1187 H 110.32 -3.51606 2.68003 0
M  V30 1188 N 109.379 -1.50304 -0.473955 0
M  V30 1189 C 110.795 -1.37667 -0.807466 0
M  V30 1190 C 110.995 -0.430555 -1.96846 0
M  V30 1191 O 110.051 0.127874 -2.52176 0
M  V30 1192 C 111.364 -2.78974 -1.12223 0
M  V30 1193 C 112.912 -2.87868 -1.22885 0
M  V30 1194 C 113.387 -4.30003 -1.57676 0
M  V30 1195 N 114.878 -4.3294 -1.64673 0
M  V30 1196 C 115.613 -5.3991 -1.93091 0
M  V30 1197 N 115.109 -6.57092 -2.1955 0
M  V30 1198 N 116.902 -5.27351 -1.94569 0
M  V30 1199 H 109.053 -2.10394 0.291212 0
M  V30 1200 H 111.316 -0.945575 0.0677609 0
M  V30 1201 H 111.022 -3.50031 -0.342229 0
M  V30 1202 H 110.896 -3.16038 -2.05913 0
M  V30 1203 H 113.283 -2.17032 -1.99953 0
M  V30 1204 H 113.364 -2.54352 -0.271814 0
M  V30 1205 H 113.008 -5.01375 -0.81149 0
M  V30 1206 H 112.938 -4.61004 -2.54525 0
M  V30 1207 H 115.429 -3.48441 -1.46277 0
M  V30 1208 H 115.742 -7.34425 -2.405 0
M  V30 1209 H 114.087 -6.60272 -2.16948 0
M  V30 1210 H 117.278 -4.34801 -1.73394 0
M  V30 1211 H 117.451 -6.10805 -2.16381 0
M  V30 1212 N 110.857 0.726932 -1.39834 0
M  V30 1213 C 111.787 1.85405 -1.41941 0
M  V30 1214 C 112.768 1.67751 -0.281728 0
M  V30 1215 O 113.953 1.8795 -0.488717 0
M  V30 1216 C 111.083 3.23243 -1.2701 0
M  V30 1217 C 110.037 3.55549 -2.38262 0
M  V30 1218 C 109.363 4.9241 -2.08415 0
M  V30 1219 C 110.663 3.577 -3.80589 0
M  V30 1220 H 112.357 1.83899 -2.36266 0
M  V30 1221 H 109.903 0.883349 -1.13723 0
M  V30 1222 H 111.856 4.01775 -1.27103 0
M  V30 1223 H 110.58 3.25296 -0.291564 0
M  V30 1224 H 109.239 2.79351 -2.37399 0
M  V30 1225 H 108.887 4.91052 -1.0898 0
M  V30 1226 H 108.587 5.14992 -2.82943 0
M  V30 1227 H 110.111 5.73289 -2.10171 0
M  V30 1228 H 111.525 4.26293 -3.83337 0
M  V30 1229 H 109.922 3.91804 -4.54543 0
M  V30 1230 H 110.992 2.57328 -4.10987 0
M  V30 1231 N 112.336 1.25143 0.95797 0
M  V30 1232 C 113.283 1.05235 2.05412 0
M  V30 1233 C 114.253 -0.0374561 1.66058 0
M  V30 1234 O 115.438 0.119073 1.90428 0
M  V30 1235 C 112.578 0.673589 3.38462 0
M  V30 1236 C 111.691 1.8379 3.90954 0
M  V30 1237 C 110.826 1.40381 5.12315 0
M  V30 1238 C 109.865 2.53746 5.57027 0
M  V30 1239 N 109.002 2.11136 6.69601 0
M  V30 1240 H 113.842 1.99048 2.21774 0
M  V30 1241 H 111.379 0.991277 1.08683 0
M  V30 1242 H 113.337 0.434964 4.14926 0
M  V30 1243 H 111.967 -0.227554 3.21997 0
M  V30 1244 H 111.019 2.18992 3.11041 0
M  V30 1245 H 112.331 2.68937 4.20089 0
M  V30 1246 H 111.485 1.12464 5.96185 0
M  V30 1247 H 110.224 0.523015 4.84887 0
M  V30 1248 H 109.229 2.82412 4.71724 0
M  V30 1249 H 110.454 3.42398 5.86464 0
M  V30 1250 H 108.4 1.25468 6.4389 0
M  V30 1251 H 108.317 2.89832 6.98236 0
M  V30 1252 H 109.585 1.86385 7.56889 0
M  V30 1253 N 113.814 -1.1601 1.06675 0
M  V30 1254 C 114.746 -2.20115 0.638921 0
M  V30 1255 C 115.759 -1.59916 -0.305057 0
M  V30 1256 O 116.948 -1.78245 -0.0954446 0
M  V30 1257 C 114.048 -3.38798 -0.0830083 0
M  V30 1258 C 113.221 -4.2855 0.875426 0
M  V30 1259 C 112.28 -5.25849 0.192042 0
M  V30 1260 O 111.306 -5.63102 0.830921 0
M  V30 1261 N 112.508 -5.70648 -1.06493 0
M  V30 1262 H 115.273 -2.57439 1.53444 0
M  V30 1263 H 112.834 -1.31057 0.950557 0
M  V30 1264 H 114.826 -4.00936 -0.550685 0
M  V30 1265 H 113.396 -2.99947 -0.880386 0
M  V30 1266 H 112.616 -3.63617 1.52238 0
M  V30 1267 H 113.904 -4.85393 1.52548 0
M  V30 1268 H 113.302 -5.42482 -1.60405 0
M  V30 1269 H 111.859 -6.34859 -1.47641 0
M  V30 1270 N 115.292 -0.849877 -1.32721 0
M  V30 1271 C 116.54 -0.450032 -1.97026 0
M  V30 1272 C 116.861 0.996604 -1.67609 0
M  V30 1273 O 116.131 1.6958 -0.980786 0
M  V30 1274 H 114.711 -0.163426 -0.728904 0
M  V30 1275 H 117.373 -1.08526 -1.6189 0
M  V30 1276 H 116.469 -0.591146 -3.0645 0
M  V30 1277 N 116.77 1.45427 -0.607355 0
M  V30 1278 C 118.047 1.9557 -0.0344566 0
M  V30 1279 C 118.427 1.54979 1.43334 0
M  V30 1280 O 117.775 0.812241 2.13576 0
M  V30 1281 C 117.985 3.48226 -0.232321 0
M  V30 1282 C 119.333 4.2445 -0.113001 0
M  V30 1283 O 120.357 3.55829 -0.162431 0
M  V30 1284 O 119.216 5.465 0.00209442 0
M  V30 1285 H 116.31 0.826222 0.0358667 0
M  V30 1286 H 118.856 1.55594 -0.6774 0
M  V30 1287 H 117.628 3.70739 -1.25174 0
M  V30 1288 H 117.251 3.95092 0.445896 0
M  V30 1289 N 118.248 0.346503 1.53744 0
M  V30 1290 C 119.181 -0.552023 2.21423 0
M  V30 1291 C 120.159 -1.09798 1.19929 0
M  V30 1292 O 121.343 -1.1577 1.4876 0
M  V30 1293 C 118.47 -1.75972 2.89398 0
M  V30 1294 C 117.516 -1.34295 4.04805 0
M  V30 1295 S 118.349 -0.360263 5.34287 0
M  V30 1296 C 119.505 -1.57473 6.05767 0
M  V30 1297 H 119.738 0.0228119 2.97291 0
M  V30 1298 H 117.271 0.130579 1.53847 0
M  V30 1299 H 119.229 -2.45256 3.2918 0
M  V30 1300 H 117.89 -2.30578 2.1329 0
M  V30 1301 H 117.083 -2.24349 4.51313 0
M  V30 1302 H 116.685 -0.729555 3.66815 0
M  V30 1303 H 118.977 -2.50875 6.29339 0
M  V30 1304 H 119.92 -1.15138 6.98676 0
M  V30 1305 H 120.328 -1.77212 5.35963 0
M  V30 1306 N 119.726 -1.57421 0.075193 0
M  V30 1307 C 120.972 -1.93905 -0.594025 0
M  V30 1308 C 121.305 -0.955701 -1.69056 0
M  V30 1309 O 120.58 0.0145373 -1.94495 0
M  V30 1310 C 120.863 -3.40638 -1.1678 0
M  V30 1311 C 120.716 -4.49733 -0.0776792 0
M  V30 1312 C 122.035 -3.88259 -2.07228 0
M  V30 1313 H 119.154 -0.705105 -0.214466 0
M  V30 1314 H 121.796 -1.8947 0.141854 0
M  V30 1315 H 119.946 -3.44549 -1.79494 0
M  V30 1316 H 121.618 -4.57942 0.555573 0
M  V30 1317 H 119.861 -4.29751 0.591286 0
M  V30 1318 H 120.532 -5.49549 -0.519603 0
M  V30 1319 H 123.008 -3.86376 -1.54445 0
M  V30 1320 H 121.884 -4.91533 -2.44308 0
M  V30 1321 H 122.145 -3.26396 -2.98191 0
M  V30 1322 N 121.204 0.198386 -1.56346 0
M  V30 1323 C 122.481 0.944982 -1.71258 0
M  V30 1324 C 122.861 2.0151 -0.629048 0
M  V30 1325 O 122.209 2.25639 0.360473 0
M  V30 1326 C 122.419 1.5344 -3.1346 0
M  V30 1327 C 123.767 2.01778 -3.73591 0
M  V30 1328 O 124.791 1.63288 -3.16568 0
M  V30 1329 O 123.65 2.72594 -4.73661 0
M  V30 1330 H 120.744 0.442939 -0.69838 0
M  V30 1331 H 123.29 0.188342 -1.68652 0
M  V30 1332 H 122.062 0.762869 -3.83792 0
M  V30 1333 H 121.685 2.35596 -3.20282 0
M  V30 1334 N 122.682 1.50554 0.465978 0
M  V30 1335 C 123.612 1.72722 1.57128 0
M  V30 1336 C 124.593 0.576294 1.6004 0
M  V30 1337 O 125.778 0.81598 1.76225 0
M  V30 1338 C 122.908 1.82605 2.95419 0
M  V30 1339 C 121.862 2.97835 3.07373 0
M  V30 1340 C 121.188 2.92867 4.47363 0
M  V30 1341 C 122.488 4.38265 2.84114 0
M  V30 1342 H 124.182 2.65267 1.38829 0
M  V30 1343 H 121.728 1.2765 0.666441 0
M  V30 1344 H 123.681 1.96698 3.72677 0
M  V30 1345 H 122.405 0.866858 3.14886 0
M  V30 1346 H 121.064 2.83401 2.3255 0
M  V30 1347 H 120.712 1.94783 4.63755 0
M  V30 1348 H 120.412 3.70227 4.56296 0
M  V30 1349 H 121.936 3.09015 5.26633 0
M  V30 1350 H 123.35 4.53198 3.51118 0
M  V30 1351 H 121.747 5.17115 3.04487 0
M  V30 1352 H 122.817 4.50281 1.7993 0
M  V30 1353 N 124.16 -0.719506 1.40217 0
M  V30 1354 C 125.571 -1.29848 1.34151 0
M  V30 1355 C 125.922 -1.96196 0.0131349 0
M  V30 1356 O 125.047 -1.973 -0.88892 0
M  V30 1357 C 125.642 -2.36118 2.42968 0
M  V30 1358 C 124.201 -2.8965 2.40374 0
M  V30 1359 C 123.348 -1.63393 2.24049 0
M  V30 1360 H 126.299 -0.51591 1.5008 0
M  V30 1361 H 126.32 -3.16871 2.10649 0
M  V30 1362 H 125.832 -1.878 3.39636 0
M  V30 1363 H 123.933 -3.42208 1.47392 0
M  V30 1364 H 124.046 -3.4171 3.35814 0
M  V30 1365 H 122.41 -1.88312 1.71495 0
M  V30 1366 H 123.193 -1.17104 3.2271 0
M  V30 1367 N 125.638 -1.25649 -0.95132 0
M  V30 1368 C 127.054 -1.02542 -1.223 0
M  V30 1369 C 127.254 0.255715 -1.99871 0
M  V30 1370 O 126.31 0.967558 -2.33226 0
M  V30 1371 C 127.623 -2.25065 -1.99415 0
M  V30 1372 C 129.171 -2.29861 -2.12446 0
M  V30 1373 C 129.646 -3.52048 -2.92961 0
M  V30 1374 N 131.137 -3.52465 -3.00538 0
M  V30 1375 C 131.872 -4.43672 -3.63239 0
M  V30 1376 N 131.368 -5.45157 -4.27523 0
M  V30 1377 N 133.161 -4.31346 -3.60412 0
M  V30 1378 H 125.312 -2.07951 -0.432471 0
M  V30 1379 H 127.575 -0.91339 -0.253816 0
M  V30 1380 H 127.281 -3.18194 -1.49817 0
M  V30 1381 H 127.155 -2.28502 -3.00111 0
M  V30 1382 H 129.542 -1.37252 -2.61239 0
M  V30 1383 H 129.623 -2.3044 -1.11044 0
M  V30 1384 H 129.267 -4.44981 -2.44856 0
M  V30 1385 H 129.197 -3.48715 -3.94596 0
M  V30 1386 H 131.688 -2.79056 -2.54826 0
M  V30 1387 H 132.001 -6.10958 -4.73234 0
M  V30 1388 H 130.346 -5.49025 -4.26141 0
M  V30 1389 H 133.537 -3.51288 -3.09377 0
M  V30 1390 H 133.71 -5.02624 -4.0899 0
M  V30 1391 N 127.117 1.15442 -1.07289 0
M  V30 1392 C 128.528 1.67803 -0.818475 0
M  V30 1393 C 128.879 1.8489 0.656507 0
M  V30 1394 O 128.004 1.55176 1.50829 0
M  V30 1395 C 128.599 3.04805 -1.47917 0
M  V30 1396 C 127.158 3.54245 -1.27229 0
M  V30 1397 C 126.305 2.29986 -1.54925 0
M  V30 1398 H 129.256 0.996646 -1.23502 0
M  V30 1399 H 129.277 3.69702 -0.90005 0
M  V30 1400 H 128.789 2.92336 -2.55267 0
M  V30 1401 H 126.89 3.71956 -0.21899 0
M  V30 1402 H 127.003 4.35723 -1.99203 0
M  V30 1403 H 125.367 2.35496 -0.970242 0
M  V30 1404 H 126.15 2.20105 -2.63455 0
M  V30 1405 N 128.595 0.856903 1.32268 0
M  V30 1406 C 129.82 0.474569 2.01897 0
M  V30 1407 C 130.245 -0.921766 1.63967 0
M  V30 1408 O 129.603 -1.60589 0.84148 0
M  V30 1409 C 129.651 0.623799 3.55164 0
M  V30 1410 O 128.755 -0.342459 4.10976 0
M  V30 1411 H 128.096 0.190422 0.63611 0
M  V30 1412 H 130.626 1.15672 1.68764 0
M  V30 1413 H 130.636 0.512169 4.04773 0
M  V30 1414 H 129.311 1.64202 3.82113 0
M  V30 1415 H 127.888 -0.18688 3.72431 0
M  V30 1416 N 130.073 -1.45103 0.615059 0
M  V30 1417 C 131.313 -2.04069 0.116282 0
M  V30 1418 C 131.677 -1.4721 -1.2326 0
M  V30 1419 O 132.878 -1.97577 -1.82255 0
M  V30 1420 C 131.149 -3.57298 0.085482 0
M  V30 1421 S 132.708 -4.37394 -0.351015 0
M  V30 1422 H 129.526 -0.709006 0.0532183 0
M  V30 1423 H 132.128 -1.77709 0.81484 0
M  V30 1424 H 130.832 -3.9619 1.0706 0
M  V30 1425 H 130.363 -3.88244 -0.634835 0
M  V30 1426 H 132.378 -4.69734 -1.59889 0
M  V30 1427 N 131.551 -0.354651 -1.53558 0
M  V30 1428 C 132.797 0.238797 -2.01389 0
M  V30 1429 C 133.13 1.49309 -1.2418 0
M  V30 1430 O 132.405 1.91638 -0.332457 0
M  V30 1431 C 132.688 0.541771 -3.56001 0
M  V30 1432 C 132.541 -0.725388 -4.43912 0
M  V30 1433 C 133.86 1.34685 -4.18984 0
M  V30 1434 H 130.979 0.0853177 -0.732045 0
M  V30 1435 H 133.621 -0.477384 -1.83905 0
M  V30 1436 H 131.771 1.15189 -3.71031 0
M  V30 1437 H 133.443 -1.36313 -4.407 0
M  V30 1438 H 131.686 -1.34801 -4.12324 0
M  V30 1439 H 132.357 -0.468505 -5.50008 0
M  V30 1440 H 134.833 0.830837 -4.07721 0
M  V30 1441 H 133.709 1.52759 -5.27215 0
M  V30 1442 H 133.97 2.35221 -3.74331 0
M  V30 1443 N 133.029 1.57378 -0.0835403 0
M  V30 1444 C 134.257 1.98263 0.59157 0
M  V30 1445 C 134.672 0.962302 1.62435 0
M  V30 1446 O 134.029 -0.049581 1.82433 0
M  V30 1447 C 134.08 3.39214 1.24965 0
M  V30 1448 O 133.801 4.37339 0.258186 0
M  V30 1449 C 135.302 3.95038 2.01147 0
M  V30 1450 H 132.522 0.651773 0.159477 0
M  V30 1451 H 135.066 2.03878 -0.159415 0
M  V30 1452 H 133.221 3.34649 1.95164 0
M  V30 1453 H 133.635 5.19371 0.731734 0
M  V30 1454 H 135.109 4.95848 2.42567 0
M  V30 1455 H 135.586 3.32222 2.87272 0
M  V30 1456 H 136.192 4.0304 1.35789 0
M  V30 1457 N 134.507 -0.190092 1.56449 0
M  V30 1458 C 135.437 -1.23816 1.97969 0
M  V30 1459 C 136.418 -1.47201 0.852395 0
M  V30 1460 O 137.603 -1.58854 1.1171 0
M  V30 1461 C 134.733 -2.5813 2.3235 0
M  V30 1462 C 133.687 -2.49348 3.47864 0
M  V30 1463 C 133.013 -3.8798 3.67934 0
M  V30 1464 C 134.313 -2.01424 4.81898 0
M  V30 1465 H 136.007 -0.89311 2.85769 0
M  V30 1466 H 133.553 -0.428177 1.37487 0
M  V30 1467 H 135.506 -3.31637 2.59991 0
M  V30 1468 H 134.23 -2.94386 1.41438 0
M  V30 1469 H 132.889 -1.78297 3.20321 0
M  V30 1470 H 132.537 -4.21597 2.74344 0
M  V30 1471 H 132.237 -3.82978 4.45648 0
M  V30 1472 H 133.761 -4.63101 3.97957 0
M  V30 1473 H 135.175 -2.64693 5.08538 0
M  V30 1474 H 133.572 -2.07413 5.63116 0
M  V30 1475 H 134.642 -0.967677 4.75146 0
M  V30 1476 N 135.985 -1.50799 -0.457987 0
M  V30 1477 C 137.233 -1.62121 -1.2067 0
M  V30 1478 C 137.554 -0.329793 -1.92191 0
M  V30 1479 O 136.824 0.653409 -1.84682 0
M  V30 1480 H 135.404 -0.597441 -0.448411 0
M  V30 1481 H 138.066 -1.87637 -0.527096 0
M  V30 1482 H 137.162 -2.43882 -1.94751 0
M  V30 1483 N 137.463 0.71206 -1.40597 0
M  V30 1484 C 138.709 1.47416 -1.39271 0
M  V30 1485 C 139.042 1.942 0.00388791 0
M  V30 1486 O 138.317 1.68403 0.973179 0
M  V30 1487 C 138.6 2.69774 -2.38525 0
M  V30 1488 C 138.453 2.28861 -3.87224 0
M  V30 1489 C 139.772 3.71939 -2.35264 0
M  V30 1490 H 136.891 0.534713 -0.5072 0
M  V30 1491 H 139.533 0.812375 -1.71757 0
M  V30 1492 H 137.683 3.26238 -2.10953 0
M  V30 1493 H 139.355 1.77852 -4.25636 0
M  V30 1494 H 137.598 1.60824 -4.02887 0
M  V30 1495 H 138.269 3.16584 -4.52193 0
M  V30 1496 H 140.745 3.25113 -2.59694 0
M  V30 1497 H 139.621 4.55186 -3.06753 0
M  V30 1498 H 139.882 4.20484 -1.36549 0
M  V30 1499 N 138.941 1.26152 0.944643 0
M  V30 1500 C 140.352 1.10454 1.50522 0
M  V30 1501 C 140.703 -0.31635 1.93633 0
M  V30 1502 O 139.828 -1.20746 1.79581 0
M  V30 1503 C 140.423 1.99891 2.73549 0
M  V30 1504 C 138.982 1.88348 3.25886 0
M  V30 1505 C 138.129 1.93447 1.9868 0
M  V30 1506 H 141.08 1.39292 0.760489 0
M  V30 1507 H 141.101 1.54477 3.47732 0
M  V30 1508 H 140.613 3.03297 2.42141 0
M  V30 1509 H 138.714 0.878636 3.62092 0
M  V30 1510 H 138.827 2.73696 3.93227 0
M  V30 1511 H 137.191 1.37456 2.14425 0
M  V30 1512 H 137.974 2.98476 1.69607 0
M  V30 1513 N 140.419 -1.14872 1.07899 0
M  V30 1514 C 141.349 -2.2193 0.725887 0
M  V30 1515 C 142.33 -1.67622 -0.28927 0
M  V30 1516 O 143.515 -1.93533 -0.160787 0
M  V30 1517 C 140.645 -3.47061 0.128856 0
M  V30 1518 C 139.599 -4.14363 1.07178 0
M  V30 1519 C 138.925 -5.33636 0.337229 0
M  V30 1520 C 140.225 -4.63492 2.40775 0
M  V30 1521 H 141.919 -2.51724 1.62097 0
M  V30 1522 H 139.465 -1.20991 0.780838 0
M  V30 1523 H 141.418 -4.21199 -0.130147 0
M  V30 1524 H 140.142 -3.16617 -0.80134 0
M  V30 1525 H 138.801 -3.42173 1.3158 0
M  V30 1526 H 138.449 -4.99449 -0.596606 0
M  V30 1527 H 138.149 -5.79609 0.965788 0
M  V30 1528 H 139.673 -6.10539 0.0861567 0
M  V30 1529 H 141.087 -5.2913 2.20669 0
M  V30 1530 H 139.484 -5.20148 2.99276 0
M  V30 1531 H 140.554 -3.78834 3.02676 0
M  V30 1532 N 141.898 -0.863906 -1.31812 0
M  V30 1533 C 143.145 -0.471836 -1.96926 0
M  V30 1534 C 143.473 0.974578 -1.68322 0
M  V30 1535 O 142.728 1.7003 -0.968933 0
M  V30 1536 C 143.027 -0.668547 -3.51091 0
M  V30 1537 C 142.693 -2.08683 -3.99703 0
M  V30 1538 C 141.355 -2.47471 -4.12688 0
M  V30 1539 C 143.707 -3.01207 -4.25351 0
M  V30 1540 C 141.035 -3.78037 -4.4867 0
M  V30 1541 C 143.387 -4.31282 -4.62794 0
M  V30 1542 C 142.051 -4.69992 -4.73987 0
M  V30 1543 H 141.321 -0.172657 -0.720604 0
M  V30 1544 H 143.968 -1.09573 -1.57054 0
M  V30 1545 H 142.273 0.0385252 -3.91781 0
M  V30 1546 H 143.97 -0.345102 -3.99512 0
M  V30 1547 H 140.56 -1.77566 -3.90087 0
M  V30 1548 H 144.744 -2.72469 -4.14819 0
M  V30 1549 H 140 -4.078 -4.55532 0
M  V30 1550 H 144.174 -5.03031 -4.81594 0
M  V30 1551 H 141.801 -5.71207 -5.01624 0
M  V30 1552 N 143.376 1.44774 -0.622745 0
M  V30 1553 C 144.601 2.06999 -0.128968 0
M  V30 1554 C 145.026 1.4617 1.1839 0
M  V30 1555 O 144.384 0.560007 1.72434 0
M  V30 1556 C 144.432 3.60595 -0.0188351 0
M  V30 1557 O 143.536 3.99398 1.02739 0
M  V30 1558 H 142.877 0.659047 -0.0809544 0
M  V30 1559 H 145.407 1.85784 -0.85705 0
M  V30 1560 H 145.417 4.07627 0.174476 0
M  V30 1561 H 144.092 4.04252 -0.977384 0
M  V30 1562 H 142.669 3.64011 0.809326 0
M  V30 1563 N 144.854 0.36279 1.53368 0
M  V30 1564 C 145.804 -0.501391 2.22419 0
M  V30 1565 C 146.788 -1.0509 1.2184 0
M  V30 1566 O 147.98 -0.981404 1.47301 0
M  V30 1567 C 145.109 -1.64201 3.01484 0
M  V30 1568 C 144.195 -1.10552 4.09438 0
M  V30 1569 N 144.586 -0.291788 5.04958 0
M  V30 1570 C 142.884 -1.3806 4.24094 0
M  V30 1571 C 143.585 0.00162655 5.817 0
M  V30 1572 N 142.561 -0.595244 5.40331 0
M  V30 1573 H 146.363 0.127159 2.93625 0
M  V30 1574 H 143.877 0.170658 1.61501 0
M  V30 1575 H 145.874 -2.27326 3.49469 0
M  V30 1576 H 144.534 -2.27365 2.31809 0
M  V30 1577 H 145.545 0.0687731 5.17854 0
M  V30 1578 H 142.222 -2.01522 3.65644 0
M  V30 1579 H 143.612 0.659278 6.68658 0
M  V30 1580 N 146.332 -1.57332 0.0918853 0
M  V30 1581 C 147.262 -2.16872 -0.865371 0
M  V30 1582 C 148.243 -1.10118 -1.29646 0
M  V30 1583 O 149.428 -1.38242 -1.36392 0
M  V30 1584 C 146.558 -2.74649 -2.12569 0
M  V30 1585 C 145.512 -3.86747 -1.83333 0
M  V30 1586 C 144.838 -4.31212 -3.16166 0
M  V30 1587 C 146.138 -5.10089 -1.1228 0
M  V30 1588 H 147.832 -2.97114 -0.369307 0
M  V30 1589 H 145.378 -1.42918 -0.176194 0
M  V30 1590 H 147.331 -3.14952 -2.7997 0
M  V30 1591 H 146.055 -1.91657 -2.64452 0
M  V30 1592 H 144.714 -3.46978 -1.18331 0
M  V30 1593 H 144.362 -3.45115 -3.6593 0
M  V30 1594 H 144.062 -5.06788 -2.97388 0
M  V30 1595 H 145.586 -4.74146 -3.84731 0
M  V30 1596 H 147 -5.47582 -1.69785 0
M  V30 1597 H 145.397 -5.91073 -1.03693 0
M  V30 1598 H 146.467 -4.84786 -0.105041 0
M  V30 1599 N 147.81 0.181792 -1.56548 0
M  V30 1600 C 148.742 1.24956 -1.92142 0
M  V30 1601 C 149.755 1.41022 -0.813422 0
M  V30 1602 O 150.944 1.41212 -1.09186 0
M  V30 1603 C 148.044 2.61981 -2.14987 0
M  V30 1604 C 147.217 2.6735 -3.46183 0
M  V30 1605 C 146.276 3.85664 -3.5798 0
M  V30 1606 O 145.302 3.72148 -4.30691 0
M  V30 1607 N 146.504 5.01683 -2.92053 0
M  V30 1608 H 149.269 0.947329 -2.84334 0
M  V30 1609 H 146.83 0.371629 -1.57577 0
M  V30 1610 H 148.822 3.3958 -2.20154 0
M  V30 1611 H 147.392 2.84637 -1.2923 0
M  V30 1612 H 146.612 1.75925 -3.52766 0
M  V30 1613 H 147.9 2.67939 -4.32534 0
M  V30 1614 H 147.298 5.15564 -2.32832 0
M  V30 1615 H 145.855 5.77181 -3.0283 0
M  V30 1616 N 149.288 1.51039 0.449983 0
M  V30 1617 C 150.236 1.71995 1.5659 0
M  V30 1618 C 151.23 0.586029 1.5894 0
M  V30 1619 O 152.436 0.76709 1.62837 0
M  V30 1620 H 148.811 0.543233 0.520001 0
M  V30 1621 H 150.782 2.65562 1.36085 0
M  V30 1622 C 149.531 1.8506 2.9436 0
M  V30 1623 H 148.854 2.71712 2.93279 0
M  V30 1624 H 150.294 2.0374 3.71842 0
M  V30 1625 C 148.753 0.607277 3.31382 0
M  V30 1626 O 149.283 -0.243903 4.00959 0
M  V30 1627 N 147.489 0.455073 2.87015 0
M  V30 1628 H 147.036 1.14879 2.30566 0
M  V30 1629 H 146.994 -0.375611 3.12148 0
M  V30 1630 N 150.766 -0.704594 1.40972 0
M  V30 1631 C 151.676 -1.84856 1.44448 0
M  V30 1632 C 152.692 -1.70726 0.335961 0
M  V30 1633 O 153.868 -1.92799 0.582276 0
M  V30 1634 C 150.933 -3.20758 1.31587 0
M  V30 1635 C 149.994 -3.47063 2.52677 0
M  V30 1636 C 149.227 -4.76481 2.4042 0
M  V30 1637 O 149.45 -5.52341 1.42391 0
M  V30 1638 O 148.384 -5.03367 3.30007 0
M  V30 1639 H 152.21 -1.8488 2.40942 0
M  V30 1640 H 149.795 -0.85647 1.22413 0
M  V30 1641 H 151.677 -4.01913 1.26665 0
M  V30 1642 H 150.352 -3.21438 0.382049 0
M  V30 1643 H 149.259 -2.65873 2.63177 0
M  V30 1644 H 150.592 -3.5119 3.44858 0
M  V30 1645 N 152.244 -1.26651 -0.937939 0
M  V30 1646 C 153.176 -1.04283 -2.04102 0
M  V30 1647 C 154.189 -0.00221014 -1.628 0
M  V30 1648 O 155.378 -0.242645 -1.76843 0
M  V30 1649 C 152.478 -0.557846 -3.34277 0
M  V30 1650 C 151.651 -1.66843 -4.04329 0
M  V30 1651 C 150.71 -1.18095 -5.12777 0
M  V30 1652 O 149.736 -1.87865 -5.37304 0
M  V30 1653 N 150.938 -0.0311006 -5.80492 0
M  V30 1654 H 153.703 -1.9927 -2.23856 0
M  V30 1655 H 151.264 -1.1808 -1.10764 0
M  V30 1656 H 153.256 -0.215836 -4.04124 0
M  V30 1657 H 151.826 0.298523 -3.11171 0
M  V30 1658 H 151.046 -2.18123 -3.28353 0
M  V30 1659 H 152.334 -2.41408 -4.47883 0
M  V30 1660 H 151.732 0.551486 -5.63005 0
M  V30 1661 H 150.289 0.251809 -6.51313 0
M  V30 1662 N 153.722 1.14298 -1.08507 0
M  V30 1663 C 154.968 1.85854 -0.826438 0
M  V30 1664 C 155.323 1.81413 0.640878 0
M  V30 1665 O 154.616 1.23463 1.46518 0
M  V30 1666 C 154.81 3.33547 -1.28379 0
M  V30 1667 C 154.639 3.52369 -2.79403 0
M  V30 1668 C 153.409 3.67159 -3.47164 0
M  V30 1669 C 155.607 3.49203 -3.77573 0
M  V30 1670 N 153.589 3.74149 -4.86709 0
M  V30 1671 C 154.96 3.6245 -5.03021 0
M  V30 1672 C 157.015 3.32547 -3.70563 0
M  V30 1673 C 155.718 3.60761 -6.2229 0
M  V30 1674 C 157.744 3.32162 -4.89308 0
M  V30 1675 C 157.106 3.45949 -6.13595 0
M  V30 1676 H 153.205 0.696705 -0.355143 0
M  V30 1677 H 155.789 1.36981 -1.38362 0
M  V30 1678 H 153.96 3.81008 -0.754166 0
M  V30 1679 H 155.692 3.92867 -0.971469 0
M  V30 1680 H 152.447 3.68433 -2.9758 0
M  V30 1681 H 152.871 3.81359 -5.5937 0
M  V30 1682 H 157.513 3.20797 -2.75407 0
M  V30 1683 H 155.231 3.71286 -7.17755 0
M  V30 1684 H 158.817 3.20485 -4.85573 0
M  V30 1685 H 157.697 3.456 -7.03939 0
M  V30 1686 N 155.201 0.870884 1.31352 0
M  V30 1687 C 156.447 0.482987 1.96965 0
M  V30 1688 C 156.78 -0.962462 1.68672 0
M  V30 1689 O 156.055 -1.6779 0.98371 0
M  V30 1690 C 156.338 0.741752 3.52378 0
M  V30 1691 C 156.191 2.2368 3.9024 0
M  V30 1692 C 157.51 0.208838 4.39604 0
M  V30 1693 H 154.629 0.176955 0.715441 0
M  V30 1694 H 157.271 1.09229 1.55464 0
M  V30 1695 H 155.421 0.223149 3.87859 0
M  V30 1696 H 157.093 2.82273 3.64856 0
M  V30 1697 H 155.336 2.70901 3.38814 0
M  V30 1698 H 156.007 2.3685 4.98604 0
M  V30 1699 H 158.483 0.652529 4.10952 0
M  V30 1700 H 157.359 0.419336 5.47296 0
M  V30 1701 H 157.62 -0.889275 4.33064 0
M  V30 1702 N 156.679 -1.44442 0.630414 0
M  V30 1703 C 157.956 -1.9549 0.0655657 0
M  V30 1704 C 158.336 -1.5724 -1.40851 0
M  V30 1705 O 157.684 -0.846116 -2.12257 0
M  V30 1706 C 157.894 -3.47812 0.287691 0
M  V30 1707 C 159.242 -4.24216 0.180513 0
M  V30 1708 O 160.266 -3.55526 0.219019 0
M  V30 1709 O 159.125 -5.46434 0.0848493 0
M  V30 1710 H 156.219 -0.826688 -0.0227177 0
M  V30 1711 H 158.765 -1.54496 0.702068 0
M  V30 1712 H 157.537 -3.687 1.31056 0
M  V30 1713 H 157.16 -3.95751 -0.382984 0
M  V30 1714 N 158.157 -0.370918 -1.53173 0
M  V30 1715 C 159.387 0.217389 -2.05453 0
M  V30 1716 C 159.795 1.42568 -1.24382 0
M  V30 1717 O 159.138 1.81571 -0.278839 0
M  V30 1718 C 159.2 0.669827 -3.53205 0
M  V30 1719 C 158.864 -0.4225 -4.55043 0
M  V30 1720 C 159.861 -1.27407 -5.04047 0
M  V30 1721 C 157.546 -0.58427 -4.9889 0
M  V30 1722 C 159.54 -2.27271 -5.95505 0
M  V30 1723 C 157.227 -1.58627 -5.90153 0
M  V30 1724 C 158.225 -2.42892 -6.38351 0
M  V30 1725 O 157.913 -3.41382 -7.27814 0
M  V30 1726 H 157.645 0.0408171 -0.674767 0
M  V30 1727 H 160.199 -0.5292 -1.98466 0
M  V30 1728 H 158.429 1.4681 -3.57748 0
M  V30 1729 H 160.118 1.18173 -3.88317 0
M  V30 1730 H 160.884 -1.16031 -4.70916 0
M  V30 1731 H 156.763 0.061851 -4.60959 0
M  V30 1732 H 160.307 -2.93079 -6.33049 0
M  V30 1733 H 156.204 -1.70048 -6.22699 0
M  V30 1734 H 156.972 -3.37173 -7.45826 0
M  V30 1735 N 159.635 1.57281 -0.100228 0
M  V30 1736 C 160.583 2.15542 0.874328 0
M  V30 1737 C 161.577 1.09962 1.28859 0
M  V30 1738 O 162.783 1.28298 1.26252 0
M  V30 1739 H 159.158 0.689567 0.300003 0
M  V30 1740 H 161.129 2.96241 0.35829 0
M  V30 1741 C 159.878 2.75454 2.1218 0
M  V30 1742 H 159.201 3.56384 1.81193 0
M  V30 1743 H 160.641 3.19781 2.78417 0
M  V30 1744 C 159.1 1.71602 2.89921 0
M  V30 1745 O 159.63 1.15804 3.84646 0
M  V30 1746 N 157.836 1.41975 2.53558 0
M  V30 1747 H 157.383 1.87539 1.76598 0
M  V30 1748 H 157.341 0.727274 3.05873 0
M  V30 1749 N 161.113 -0.173488 1.56642 0
M  V30 1750 C 162.043 -1.2171 1.99271 0
M  V30 1751 C 163.024 -1.46289 0.867959 0
M  V30 1752 O 164.209 -1.5766 1.13388 0
M  V30 1753 C 161.339 -2.55651 2.35074 0
M  V30 1754 C 160.293 -2.45645 3.50489 0
M  V30 1755 C 159.619 -3.84056 3.72028 0
M  V30 1756 C 160.919 -1.96302 4.84007 0
M  V30 1757 H 162.613 -0.86275 2.867 0
M  V30 1758 H 160.159 -0.413571 1.37933 0
M  V30 1759 H 162.112 -3.2886 2.63494 0
M  V30 1760 H 160.836 -2.92869 1.44552 0
M  V30 1761 H 159.495 -1.7489 3.22194 0
M  V30 1762 H 159.143 -4.18664 2.788 0
M  V30 1763 H 158.843 -3.7823 4.49684 0
M  V30 1764 H 160.367 -4.58854 4.02846 0
M  V30 1765 H 161.781 -2.59284 5.11317 0
M  V30 1766 H 160.178 -2.01429 5.65284 0
M  V30 1767 H 161.248 -0.917226 4.76146 0
M  V30 1768 N 162.591 -1.51276 -0.441967 0
M  V30 1769 C 163.538 -1.72256 -1.53612 0
M  V30 1770 C 164.508 -0.564164 -1.56225 0
M  V30 1771 O 165.693 -0.798074 -1.73307 0
M  V30 1772 C 162.833 -1.84932 -2.91366 0
M  V30 1773 C 161.946 -3.12459 -2.98317 0
M  V30 1774 C 161.081 -3.15758 -4.27166 0
M  V30 1775 C 160.12 -4.37619 -4.27967 0
M  V30 1776 N 159.257 -4.38493 -5.48333 0
M  V30 1777 H 164.097 -2.65654 -1.35026 0
M  V30 1778 H 161.634 -1.31662 -0.656009 0
M  V30 1779 H 163.592 -1.90263 -3.7129 0
M  V30 1780 H 162.222 -0.949461 -3.08521 0
M  V30 1781 H 161.274 -3.1646 -2.11086 0
M  V30 1782 H 162.586 -4.02382 -2.94771 0
M  V30 1783 H 161.74 -3.19979 -5.15459 0
M  V30 1784 H 160.479 -2.23715 -4.33362 0
M  V30 1785 H 159.484 -4.33579 -3.38067 0
M  V30 1786 H 160.709 -5.30921 -4.23438 0
M  V30 1787 H 158.655 -3.49318 -5.55259 0
M  V30 1788 H 158.572 -5.22219 -5.46647 0
M  V30 1789 H 159.84 -4.469 -6.38671 0
M  V30 1790 N 164.069 0.697108 -1.41344 0
M  V30 1791 C 165.315 1.45796 -1.41828 0
M  V30 1792 C 165.67 1.92382 -0.0261743 0
M  V30 1793 O 164.963 1.66522 0.947688 0
M  V30 1794 C 165.157 2.68553 -2.35826 0
M  V30 1795 C 164.986 2.33975 -3.84039 0
M  V30 1796 C 163.756 2.24414 -4.52732 0
M  V30 1797 C 165.954 1.97048 -4.75054 0
M  V30 1798 N 163.936 1.82705 -5.86082 0
M  V30 1799 C 165.307 1.66086 -5.9734 0
M  V30 1800 C 167.362 1.83845 -4.62715 0
M  V30 1801 C 166.065 1.23246 -7.08663 0
M  V30 1802 C 168.091 1.4241 -5.73998 0
M  V30 1803 C 167.453 1.12357 -6.95381 0
M  V30 1804 H 163.552 0.530859 -0.574206 0
M  V30 1805 H 166.136 0.806674 -1.77203 0
M  V30 1806 H 164.307 3.31404 -2.02549 0
M  V30 1807 H 166.039 3.35015 -2.2704 0
M  V30 1808 H 162.794 2.4276 -4.0665 0
M  V30 1809 H 163.218 1.64337 -6.56751 0
M  V30 1810 H 167.86 2.05734 -3.69369 0
M  V30 1811 H 165.578 1.00102 -8.01876 0
M  V30 1812 H 169.164 1.32746 -5.66454 0
M  V30 1813 H 168.044 0.807795 -7.80028 0
M  V30 1814 N 165.547 1.27147 0.931209 0
M  V30 1815 C 166.495 1.09398 2.05268 0
M  V30 1816 C 167.489 0.0180591 1.6939 0
M  V30 1817 O 168.695 0.17551 1.79142 0
M  V30 1818 H 165.07 0.336986 0.672268 0
M  V30 1819 H 167.041 2.04416 2.17386 0
M  V30 1820 C 165.79 0.75424 3.39421 0
M  V30 1821 H 165.113 1.57404 3.67511 0
M  V30 1822 H 166.553 0.669903 4.18674 0
M  V30 1823 C 165.012 -0.541197 3.32525 0
M  V30 1824 O 165.542 -1.57664 3.69466 0
M  V30 1825 N 163.748 -0.535517 2.85623 0
M  V30 1826 H 163.295 0.307511 2.55758 0
M  V30 1827 H 163.253 -1.40236 2.81392 0
M  V30 1828 N 167.025 -1.13721 1.09112 0
M  V30 1829 C 168.436 -1.6648 0.845068 0
M  V30 1830 C 168.787 -1.85911 -0.62701 0
M  V30 1831 O 167.912 -1.57556 -1.48341 0
M  V30 1832 C 168.507 -3.02413 1.52748 0
M  V30 1833 C 167.066 -3.52176 1.32849 0
M  V30 1834 C 166.213 -2.27492 1.58564 0
M  V30 1835 H 169.164 -0.976872 1.25072 0
M  V30 1836 H 169.185 -3.68223 0.958752 0
M  V30 1837 H 168.697 -2.88238 2.59885 0
M  V30 1838 H 166.798 -3.7156 0.278137 0
M  V30 1839 H 166.911 -4.32499 2.0611 0
M  V30 1840 H 165.275 -2.33923 1.00758 0
M  V30 1841 H 166.058 -2.15886 2.66924 0
M  V30 1842 N 168.503 -0.877838 -1.30888 0
M  V30 1843 C 169.78 -0.413052 -1.91189 0
M  V30 1844 C 170.16 1.1056 -1.79832 0
M  V30 1845 O 169.508 1.93771 -1.21099 0
M  V30 1846 C 169.718 -0.903191 -3.3711 0
M  V30 1847 C 171.066 -0.93395 -4.14201 0
M  V30 1848 O 172.09 -0.849373 -3.45925 0
M  V30 1849 O 170.949 -1.05772 -5.36167 0
M  V30 1850 H 168.043 -0.125035 -0.817493 0
M  V30 1851 H 170.589 -0.966269 -1.39504 0
M  V30 1852 H 169.361 -1.94692 -3.39427 0
M  V30 1853 H 168.984 -0.328732 -3.96239 0
M  V30 1854 N 169.982 1.44106 -0.638065 0
M  V30 1855 C 171.259 1.95453 -0.0759321 0
M  V30 1856 C 171.639 1.57984 1.40015 0
M  V30 1857 O 170.987 0.857361 2.11806 0
M  V30 1858 C 171.197 3.47655 -0.306132 0
M  V30 1859 C 172.545 4.24114 -0.203008 0
M  V30 1860 O 173.569 3.55405 -0.237871 0
M  V30 1861 O 172.428 5.46381 -0.113827 0
M  V30 1862 H 169.522 0.826797 0.0183332 0
M  V30 1863 H 172.068 1.54122 -0.710251 0
M  V30 1864 H 170.84 3.68 -1.3301 0
M  V30 1865 H 170.463 3.95949 0.361991 0
M  V30 1866 N 171.46 0.379036 1.52974 0
M  V30 1867 C 172.69 -0.20649 2.05566 0
M  V30 1868 C 173.098 -1.41906 1.25137 0
M  V30 1869 O 172.441 -1.81421 0.288464 0
M  V30 1870 C 172.503 -0.651086 3.53555 0
M  V30 1871 C 172.167 0.446626 4.54812 0
M  V30 1872 C 173.164 1.30079 5.03364 0
M  V30 1873 C 170.849 0.610719 4.98573 0
M  V30 1874 C 172.843 2.30426 5.94292 0
M  V30 1875 C 170.53 1.61754 5.89304 0
M  V30 1876 C 171.528 2.46274 6.37054 0
M  V30 1877 O 171.216 3.45237 7.25994 0
M  V30 1878 H 170.948 -0.0372381 0.674974 0
M  V30 1879 H 173.502 0.539718 1.98182 0
M  V30 1880 H 171.732 -1.44911 3.58522 0
M  V30 1881 H 173.421 -1.16112 3.88938 0
M  V30 1882 H 174.187 1.18527 4.70294 0
M  V30 1883 H 170.066 -0.0374044 4.60985 0
M  V30 1884 H 173.61 2.96432 6.31485 0
M  V30 1885 H 169.507 1.73348 6.21788 0
M  V30 1886 H 170.275 3.41124 7.44027 0
M  V30 1887 N 172.938 -1.57226 0.108567 0
M  V30 1888 C 174.186 -1.94448 -0.550853 0
M  V30 1889 C 174.507 -0.992074 -1.67878 0
M  V30 1890 O 173.777 -0.0465 -1.95845 0
M  V30 1891 H 172.357 -0.717897 -0.206479 0
M  V30 1892 H 175.019 -1.94112 0.175062 0
M  V30 1893 H 174.115 -2.97218 -0.952259 0
M  V30 1894 N 174.416 0.165178 -1.56732 0
M  V30 1895 C 175.664 0.879068 -1.8198 0
M  V30 1896 C 175.985 1.82514 -0.686561 0
M  V30 1897 O 175.255 1.93694 0.293146 0
M  V30 1898 H 173.835 0.327608 -0.671329 0
M  V30 1899 H 176.497 0.163526 -1.94213 0
M  V30 1900 H 175.593 1.45228 -2.76252 0
M  V30 1901 N 175.894 1.51508 0.433938 0
M  V30 1902 C 177.14 1.64588 1.18484 0
M  V30 1903 C 177.473 0.362666 1.90784 0
M  V30 1904 O 176.748 -0.637892 1.83742 0
M  V30 1905 C 177.031 2.85149 2.19913 0
M  V30 1906 C 176.884 4.23456 1.51674 0
M  V30 1907 C 178.203 3.01227 3.20858 0
M  V30 1908 H 175.322 0.598994 0.429389 0
M  V30 1909 H 177.964 1.84002 0.473647 0
M  V30 1910 H 176.114 2.68729 2.80566 0
M  V30 1911 H 177.786 4.51552 0.943322 0
M  V30 1912 H 176.029 4.25998 0.819035 0
M  V30 1913 H 176.7 5.03812 2.2556 0
M  V30 1914 H 179.176 3.16382 2.70263 0
M  V30 1915 H 178.052 3.87141 3.89118 0
M  V30 1916 H 178.313 2.13447 3.8716 0
M  V30 1917 N 177.372 -0.689602 1.41712 0
M  V30 1918 C 178.319 -1.80345 1.44029 0
M  V30 1919 C 179.289 -1.63478 0.293948 0
M  V30 1920 O 180.474 -1.84244 0.495869 0
M  V30 1921 C 177.614 -3.18272 1.33405 0
M  V30 1922 C 176.727 -3.46529 2.57956 0
M  V30 1923 C 175.862 -4.74103 2.39582 0
M  V30 1924 C 174.901 -4.95347 3.5958 0
M  V30 1925 N 174.038 -6.14151 3.40239 0
M  V30 1926 H 178.878 -1.77698 2.39222 0
M  V30 1927 H 176.415 -0.867688 1.18784 0
M  V30 1928 H 178.373 -3.97956 1.25246 0
M  V30 1929 H 177.003 -3.2008 0.418164 0
M  V30 1930 H 176.055 -2.61207 2.76542 0
M  V30 1931 H 177.367 -3.58126 3.47199 0
M  V30 1932 H 176.521 -5.61853 2.28924 0
M  V30 1933 H 175.26 -4.64763 1.47805 0
M  V30 1934 H 174.265 -4.06044 3.70686 0
M  V30 1935 H 175.49 -5.06542 4.52318 0
M  V30 1936 H 173.436 -6.06013 2.51167 0
M  V30 1937 H 173.353 -6.26543 4.23061 0
M  V30 1938 H 174.621 -7.04619 3.33365 0
M  V30 1939 N 178.85 -1.27639 -0.924453 0
M  V30 1940 C 179.797 -1.10644 -2.0255 0
M  V30 1941 C 180.767 -0.00658438 -1.66099 0
M  V30 1942 O 181.952 -0.16952 -1.90045 0
M  V30 1943 C 179.092 -0.76309 -3.36557 0
M  V30 1944 C 178.205 -1.94091 -3.85944 0
M  V30 1945 C 177.34 -1.53914 -5.08413 0
M  V30 1946 C 176.379 -2.68425 -5.50104 0
M  V30 1947 N 175.516 -2.28815 -6.63768 0
M  V30 1948 H 180.356 -2.04858 -2.16419 0
M  V30 1949 H 177.893 -1.01974 -1.06017 0
M  V30 1950 H 179.851 -0.544822 -4.13627 0
M  V30 1951 H 178.481 0.142102 -3.22487 0
M  V30 1952 H 177.533 -2.27162 -3.05125 0
M  V30 1953 H 178.845 -2.7998 -4.12811 0
M  V30 1954 H 177.999 -1.28231 -5.92994 0
M  V30 1955 H 176.738 -0.651391 -4.8333 0
M  V30 1956 H 175.743 -2.94819 -4.64071 0
M  V30 1957 H 176.968 -3.57826 -5.7718 0
M  V30 1958 H 174.914 -1.42495 -6.40337 0
M  V30 1959 H 174.831 -3.08242 -6.90306 0
M  V30 1960 H 176.099 -2.06387 -7.51681 0
M  V30 1961 N 180.328 1.1314 -1.09713 0
M  V30 1962 C 181.577 1.83838 -0.829851 0
M  V30 1963 C 181.89 1.84599 0.646728 0
M  V30 1964 O 183.096 2.51218 1.02965 0
M  V30 1965 C 181.552 3.30069 -1.43466 0
M  V30 1966 C 181.16 3.37688 -2.94399 0
M  V30 1967 C 182.904 4.05788 -1.24645 0
M  V30 1968 C 180.811 4.78209 -3.47952 0
M  V30 1969 H 179.741 0.68877 -0.306777 0
M  V30 1970 H 182.392 1.27448 -1.3202 0
M  V30 1971 H 180.774 3.8628 -0.871996 0
M  V30 1972 H 181.948 2.91456 -3.56918 0
M  V30 1973 H 180.263 2.75436 -3.12289 0
M  V30 1974 H 182.86 5.09535 -1.62107 0
M  V30 1975 H 183.203 4.15878 -0.187357 0
M  V30 1976 H 183.736 3.55915 -1.77678 0
M  V30 1977 H 180.475 4.73311 -4.53495 0
M  V30 1978 H 179.995 5.24924 -2.90198 0
M  V30 1979 H 181.674 5.47133 -3.45332 0
M  V30 1980 N 181.806 0.884767 1.30421 0
M  V30 1981 C 182.756 0.322846 2.25703 0
M  V30 1982 C 183.74 -0.548582 1.51259 0
M  V30 1983 O 184.932 -0.39304 1.72581 0
M  V30 1984 C 182.061 -0.461787 3.4018 0
M  V30 1985 C 181.147 0.423717 4.21978 0
M  V30 1986 N 181.538 1.52408 4.82292 0
M  V30 1987 C 179.836 0.218795 4.45463 0
M  V30 1988 C 180.537 2.07136 5.43571 0
M  V30 1989 N 179.513 1.36635 5.26148 0
M  V30 1990 H 183.315 1.16363 2.69883 0
M  V30 1991 H 180.829 0.73415 1.44859 0
M  V30 1992 H 182.826 -0.880985 4.07485 0
M  V30 1993 H 181.486 -1.30001 2.9754 0
M  V30 1994 H 182.497 1.90693 4.81515 0
M  V30 1995 H 179.174 -0.582275 4.1342 0
M  V30 1996 H 180.564 2.99538 6.01437 0
M  V30 1997 N 183.284 -1.43765 0.645699 0
M  V30 1998 C 184.533 -2.01116 0.153412 0
M  V30 1999 C 184.846 -1.51493 -1.23731 0
M  V30 2000 O 186.052 -2.01067 -1.8244 0
M  V30 2001 C 184.508 -3.59206 0.223473 0
M  V30 2002 C 184.116 -4.17823 1.61642 0
M  V30 2003 C 185.86 -4.23972 -0.211597 0
M  V30 2004 C 183.767 -5.68183 1.64081 0
M  V30 2005 H 182.697 -0.752093 0.0535891 0
M  V30 2006 H 185.348 -1.6482 0.806633 0
M  V30 2007 H 183.73 -3.92867 -0.497118 0
M  V30 2008 H 184.904 -3.95674 2.36176 0
M  V30 2009 H 183.219 -3.65399 1.99681 0
M  V30 2010 H 185.816 -5.34275 -0.213112 0
M  V30 2011 H 186.159 -3.97352 -1.24165 0
M  V30 2012 H 186.692 -3.95166 0.456988 0
M  V30 2013 H 183.431 -5.99559 2.64971 0
M  V30 2014 H 182.951 -5.9241 0.938611 0
M  V30 2015 H 184.63 -6.32085 1.3812 0
M  V30 2016 N 184.763 -0.387143 -1.52771 0
M  V30 2017 C 186.174 0.0873634 -1.86495 0
M  V30 2018 C 186.525 1.46336 -1.30691 0
M  V30 2019 O 185.65 2.068 -0.637409 0
M  V30 2020 C 186.245 0.165305 -3.38396 0
M  V30 2021 C 184.804 0.584101 -3.7184 0
M  V30 2022 C 183.951 -0.255279 -2.76122 0
M  V30 2023 H 186.902 -0.605104 -1.46711 0
M  V30 2024 H 186.923 0.984848 -3.67534 0
M  V30 2025 H 186.435 -0.836301 -3.78982 0
M  V30 2026 H 184.536 1.59315 -3.36823 0
M  V30 2027 H 184.649 0.343749 -4.77865 0
M  V30 2028 H 183.013 0.279126 -2.53166 0
M  V30 2029 H 183.796 -1.25482 -3.19545 0
M  V30 2030 N 186.241 1.57166 -0.116904 0
M  V30 2031 C 187.466 1.999 0.55271 0
M  V30 2032 C 187.891 0.996039 1.59564 0
M  V30 2033 O 187.249 -0.032556 1.81271 0
M  V30 2034 C 187.297 3.4152 1.15742 0
M  V30 2035 O 186.401 3.44106 2.27299 0
M  V30 2036 H 185.742 0.649447 0.138258 0
M  V30 2037 H 188.272 2.03573 -0.204759 0
M  V30 2038 H 188.282 3.79684 1.49346 0
M  V30 2039 H 186.957 4.14034 0.393493 0
M  V30 2040 H 185.534 3.17759 1.9515 0
M  V30 2041 N 187.719 -0.156864 1.56817 0
M  V30 2042 C 188.629 -1.2136 2.00771 0
M  V30 2043 C 189.645 -1.47598 0.921459 0
M  V30 2044 O 190.821 -1.59462 1.2302 0
M  V30 2045 C 187.886 -2.52943 2.37109 0
M  V30 2046 C 186.947 -2.34439 3.59634 0
M  V30 2047 C 186.18 -3.59748 3.94229 0
M  V30 2048 O 186.403 -4.65526 3.29609 0
M  V30 2049 O 185.337 -3.52998 4.8752 0
M  V30 2050 H 189.163 -0.870468 2.90958 0
M  V30 2051 H 186.748 -0.36484 1.44877 0
M  V30 2052 H 188.63 -3.30538 2.61386 0
M  V30 2053 H 187.305 -2.86806 1.5008 0
M  V30 2054 H 186.212 -1.54828 3.40557 0
M  V30 2055 H 187.545 -2.05496 4.4725 0
M  V30 2056 N 189.197 -1.51736 -0.425897 0
M  V30 2057 C 190.144 -1.73875 -1.51776 0
M  V30 2058 C 191.114 -0.580702 -1.55618 0
M  V30 2059 O 192.299 -0.81641 -1.72451 0
M  V30 2060 C 189.439 -1.88012 -2.89388 0
M  V30 2061 C 188.552 -3.15606 -2.94986 0
M  V30 2062 C 187.687 -3.20271 -4.23793 0
M  V30 2063 C 186.726 -4.42134 -4.23302 0
M  V30 2064 N 185.863 -4.44284 -5.43651 0
M  V30 2065 H 190.703 -2.67071 -1.32201 0
M  V30 2066 H 188.24 -1.32351 -0.642008 0
M  V30 2067 H 190.198 -1.9419 -3.69251 0
M  V30 2068 H 188.828 -0.98213 -3.07496 0
M  V30 2069 H 187.88 -3.18681 -2.07717 0
M  V30 2070 H 189.192 -4.05486 -2.90486 0
M  V30 2071 H 188.346 -3.25428 -5.12036 0
M  V30 2072 H 187.085 -2.28299 -4.30965 0
M  V30 2073 H 186.09 -4.3714 -3.3345 0
M  V30 2074 H 187.315 -5.35382 -4.17783 0
M  V30 2075 H 185.261 -3.55188 -5.51523 0
M  V30 2076 H 185.178 -5.27988 -5.41078 0
M  V30 2077 H 186.446 -4.53649 -6.33895 0
M  V30 2078 N 190.675 0.682077 -1.42076 0
M  V30 2079 C 191.924 1.43786 -1.41451 0
M  V30 2080 C 192.237 1.95574 -0.0317074 0
M  V30 2081 O 193.443 2.71326 0.0971462 0
M  V30 2082 C 191.899 2.60071 -2.48779 0
M  V30 2083 C 191.507 2.15013 -3.93031 0
M  V30 2084 C 193.251 3.37626 -2.57311 0
M  V30 2085 C 191.158 3.28336 -4.91883 0
M  V30 2086 H 190.088 0.540143 -0.526082 0
M  V30 2087 H 192.739 0.739157 -1.67955 0
M  V30 2088 H 191.121 3.32275 -2.15429 0
M  V30 2089 H 192.295 1.5001 -4.35699 0
M  V30 2090 H 190.61 1.50416 -3.88284 0
M  V30 2091 H 193.207 4.22012 -3.28345 0
M  V30 2092 H 193.55 3.83727 -1.61429 0
M  V30 2093 H 194.083 2.72488 -2.89819 0
M  V30 2094 H 190.822 2.87234 -5.89217 0
M  V30 2095 H 190.342 3.92145 -4.53853 0
M  V30 2096 H 192.021 3.93913 -5.13265 0
M  V30 2097 N 192.153 1.28127 0.917671 0
M  V30 2098 C 193.399 1.16232 1.66918 0
M  V30 2099 C 193.754 -0.28701 1.90247 0
M  V30 2100 O 193.047 -1.20586 1.48895 0
M  V30 2101 C 193.241 1.89018 3.03327 0
M  V30 2102 C 193.07 3.4088 2.9331 0
M  V30 2103 C 191.84 4.10214 2.95047 0
M  V30 2104 C 194.038 4.36689 2.71675 0
M  V30 2105 N 192.02 5.48571 2.75577 0
M  V30 2106 C 193.391 5.62382 2.6101 0
M  V30 2107 C 195.446 4.26661 2.56641 0
M  V30 2108 C 194.149 6.79189 2.36843 0
M  V30 2109 C 196.175 5.432 2.33853 0
M  V30 2110 C 195.537 6.67855 2.23939 0
M  V30 2111 H 191.636 0.48024 0.617166 0
M  V30 2112 H 194.22 1.61727 1.08409 0
M  V30 2113 H 192.391 1.45963 3.59929 0
M  V30 2114 H 194.123 1.69541 3.67475 0
M  V30 2115 H 190.878 3.61762 3.05655 0
M  V30 2116 H 191.302 6.21287 2.68945 0
M  V30 2117 H 195.944 3.30998 2.63059 0
M  V30 2118 H 193.662 7.74926 2.29164 0
M  V30 2119 H 197.248 5.37328 2.23091 0
M  V30 2120 H 196.128 7.56511 2.06546 0
M  V30 2121 N 193.631 -1.12557 1.10312 0
M  V30 2122 C 195.047 -1.36036 0.834649 0
M  V30 2123 C 195.247 -1.93946 -0.546539 0
M  V30 2124 O 194.303 -2.16484 -1.29966 0
M  V30 2125 C 195.616 -2.30312 1.9333 0
M  V30 2126 C 197.164 -2.43906 1.9616 0
M  V30 2127 C 197.639 -3.41496 3.05195 0
M  V30 2128 N 199.13 -3.49053 3.04494 0
M  V30 2129 C 199.865 -4.24471 3.85502 0
M  V30 2130 N 199.361 -5.02966 4.76442 0
M  V30 2131 N 201.154 -4.19864 3.73725 0
M  V30 2132 H 193.305 -0.733246 1.99342 0
M  V30 2133 H 195.568 -0.385234 0.866198 0
M  V30 2134 H 195.274 -1.94933 2.92735 0
M  V30 2135 H 195.148 -3.30421 1.81939 0
M  V30 2136 H 197.535 -2.78567 0.973886 0
M  V30 2137 H 197.616 -1.4369 2.11629 0
M  V30 2138 H 197.26 -3.07565 4.04186 0
M  V30 2139 H 197.19 -4.41539 2.86968 0
M  V30 2140 H 199.681 -2.93053 2.38596 0
M  V30 2141 H 199.994 -5.57846 5.34815 0
M  V30 2142 H 198.339 -5.02167 4.80472 0
M  V30 2143 H 201.53 -3.57623 3.02032 0
M  V30 2144 H 201.703 -4.78386 4.37093 0
M  V30 2145 N 195.109 -0.891671 -1.2995 0
M  V30 2146 C 196.52 -0.563104 -1.78006 0
M  V30 2147 C 196.871 0.920978 -1.73241 0
M  V30 2148 O 195.996 1.71987 -1.31337 0
M  V30 2149 C 196.591 -1.01539 -3.23226 0
M  V30 2150 C 195.15 -0.738124 -3.69092 0
M  V30 2151 C 194.297 -1.19461 -2.50249 0
M  V30 2152 H 197.248 -1.07522 -1.16725 0
M  V30 2153 H 197.269 -0.347217 -3.78912 0
M  V30 2154 H 196.781 -2.09555 -3.26662 0
M  V30 2155 H 194.882 0.329766 -3.71138 0
M  V30 2156 H 194.995 -1.33037 -4.60259 0
M  V30 2157 H 193.359 -0.613787 -2.47194 0
M  V30 2158 H 194.142 -2.28265 -2.56417 0
M  V30 2159 N 196.587 1.43421 -0.653314 0
M  V30 2160 C 197.864 1.95361 -0.0966581 0
M  V30 2161 C 198.244 1.59461 1.38331 0
M  V30 2162 O 197.592 0.879777 2.10884 0
M  V30 2163 C 197.802 3.47311 -0.342988 0
M  V30 2164 C 199.15 4.23875 -0.24798 0
M  V30 2165 O 200.174 3.55133 -0.275553 0
M  V30 2166 O 199.033 5.4623 -0.171771 0
M  V30 2167 H 196.127 0.826945 0.00956291 0
M  V30 2168 H 198.673 1.5336 -0.726558 0
M  V30 2169 H 197.445 3.66569 -1.36906 0
M  V30 2170 H 197.068 3.9631 0.319975 0
M  V30 2171 N 198.065 0.39524 1.52563 0
M  V30 2172 C 198.995 -0.428384 2.29537 0
M  V30 2173 C 199.976 -1.05831 1.33169 0
M  V30 2174 O 201.161 -1.06995 1.62067 0
M  V30 2175 C 198.291 -1.55274 3.10656 0
M  V30 2176 C 197.245 -1.04855 4.14957 0
M  V30 2177 C 196.571 -2.26543 4.84337 0
M  V30 2178 C 197.871 -0.112324 5.22179 0
M  V30 2179 H 199.565 0.213867 2.98635 0
M  V30 2180 H 197.111 0.104298 1.43622 0
M  V30 2181 H 199.064 -2.1358 3.63265 0
M  V30 2182 H 197.788 -2.22266 2.39302 0
M  V30 2183 H 196.447 -0.487985 3.63338 0
M  V30 2184 H 196.095 -2.92059 4.09525 0
M  V30 2185 H 195.795 -1.93466 5.54837 0
M  V30 2186 H 197.319 -2.85481 5.39753 0
M  V30 2187 H 198.733 -0.603752 5.70112 0
M  V30 2188 H 197.13 0.128968 5.99961 0
M  V30 2189 H 198.2 0.837052 4.77621 0
M  V30 2190 N 199.544 -1.57102 0.125237 0
M  V30 2191 C 200.79 -1.95697 -0.532035 0
M  V30 2192 C 201.123 -1.009 -1.6593 0
M  V30 2193 O 200.398 -0.047347 -1.94442 0
M  V30 2194 C 200.681 -3.44181 -1.05884 0
M  V30 2195 C 200.534 -4.49752 0.0654392 0
M  V30 2196 C 201.853 -3.94655 -1.9477 0
M  V30 2197 H 198.972 -0.711571 -0.191925 0
M  V30 2198 H 201.614 -1.88923 0.20206 0
M  V30 2199 H 199.764 -3.50085 -1.68442 0
M  V30 2200 H 201.436 -4.55943 0.700982 0
M  V30 2201 H 199.679 -4.27653 0.727709 0
M  V30 2202 H 200.35 -5.50924 -0.344505 0
M  V30 2203 H 202.826 -3.91094 -1.42074 0
M  V30 2204 H 201.702 -4.99057 -2.28546 0
M  V30 2205 H 201.963 -3.35718 -2.87656 0
M  V30 2206 N 201.022 0.148545 -1.56898 0
M  V30 2207 C 201.952 1.18524 -2.01182 0
M  V30 2208 C 202.933 1.4489 -0.891123 0
M  V30 2209 O 204.118 1.55836 -1.15882 0
M  V30 2210 C 201.248 2.51879 -2.39112 0
M  V30 2211 C 200.202 2.40038 -3.54353 0
M  V30 2212 C 199.528 3.78089 -3.78091 0
M  V30 2213 C 200.828 1.88577 -4.87069 0
M  V30 2214 H 202.522 0.817029 -2.88036 0
M  V30 2215 H 200.068 0.391575 -1.38574 0
M  V30 2216 H 202.021 3.24627 -2.68692 0
M  V30 2217 H 200.745 2.90532 -1.49193 0
M  V30 2218 H 199.404 1.69742 -3.24936 0
M  V30 2219 H 199.052 4.14175 -2.85426 0
M  V30 2220 H 198.752 3.71028 -4.55645 0
M  V30 2221 H 200.276 4.52387 -4.10095 0
M  V30 2222 H 201.69 2.51117 -5.15377 0
M  V30 2223 H 200.087 1.9241 -5.68417 0
M  V30 2224 H 201.157 0.84136 -4.77545 0
M  V30 2225 N 202.5 1.5196 0.417844 0
M  V30 2226 C 203.73 1.69181 1.18581 0
M  V30 2227 C 204.138 0.397104 1.84986 0
M  V30 2228 O 203.481 -0.636011 1.72339 0
M  V30 2229 C 203.543 2.76497 2.29759 0
M  V30 2230 C 203.207 4.18514 1.83563 0
M  V30 2231 C 204.204 5.02648 1.32821 0
M  V30 2232 C 201.889 4.64708 1.90661 0
M  V30 2233 C 203.883 6.31044 0.897894 0
M  V30 2234 C 201.57 5.93096 1.47241 0
M  V30 2235 C 202.568 6.76093 0.968891 0
M  V30 2236 O 202.256 8.02078 0.540924 0
M  V30 2237 H 201.988 0.570457 0.362705 0
M  V30 2238 H 204.542 1.99249 0.498885 0
M  V30 2239 H 202.772 2.41786 3.01789 0
M  V30 2240 H 204.461 2.82403 2.91553 0
M  V30 2241 H 205.227 4.68154 1.26716 0
M  V30 2242 H 201.106 4.00216 2.28797 0
M  V30 2243 H 204.65 6.95776 0.504192 0
M  V30 2244 H 200.547 6.271 1.53022 0
M  V30 2245 H 201.315 8.15794 0.66502 0
M  V30 2246 N 203.978 -0.674533 1.42435 0
M  V30 2247 C 204.926 -1.80934 1.46169 0
M  V30 2248 C 205.92 -1.66006 0.3374 0
M  V30 2249 O 207.126 -1.72611 0.510425 0
M  V30 2250 H 203.501 -0.596594 0.457798 0
M  V30 2251 H 205.472 -1.74903 2.41767 0
M  V30 2252 C 204.221 -3.19088 1.38123 0
M  V30 2253 H 203.544 -3.31203 2.23931 0
M  V30 2254 H 204.984 -3.9851 1.44797 0
M  V30 2255 C 203.443 -3.36763 0.0960517 0
M  V30 2256 O 203.973 -3.92581 -0.851073 0
M  V30 2257 N 202.179 -2.90597 0.0131186 0
M  V30 2258 H 201.726 -2.45359 0.784639 0
M  V30 2259 H 201.684 -3.028 -0.846133 0
M  V30 2260 N 205.456 -1.28612 -0.910864 0
M  V30 2261 C 206.404 -1.1265 -2.03501 0
M  V30 2262 C 207.398 -0.0450054 -1.6934 0
M  V30 2263 O 208.604 -0.203988 -1.7884 0
M  V30 2264 H 204.979 -0.347639 -0.666822 0
M  V30 2265 H 206.95 -2.07849 -2.14106 0
M  V30 2266 C 205.699 -0.808143 -3.38178 0
M  V30 2267 H 205.022 -1.63231 -3.6496 0
M  V30 2268 H 206.462 -0.736426 -4.17556 0
M  V30 2269 C 204.921 0.488226 -3.33344 0
M  V30 2270 O 205.451 1.51766 -3.71927 0
M  V30 2271 N 203.657 0.490009 -2.86439 0
M  V30 2272 H 203.204 -0.348161 -2.55236 0
M  V30 2273 H 203.162 1.35741 -2.83587 0
M  V30 2274 N 206.934 1.1197 -1.10907 0
M  V30 2275 C 207.897 2.16031 -0.765707 0
M  V30 2276 C 208.897 1.59393 0.212235 0
M  V30 2277 O 210.087 1.74196 -0.0115441 0
M  V30 2278 C 207.219 3.40632 -0.135053 0
M  V30 2279 H 208.412 2.47919 -1.68748 0
M  V30 2280 H 205.965 1.27061 -0.910226 0
M  V30 2281 H 206.7 3.14348 0.797218 0
M  V30 2282 H 206.485 3.8302 -0.838937 0
M  V30 2283 H 207.975 4.17505 0.0892469 0
M  V30 2284 N 208.412 0.89855 1.29475 0
M  V30 2285 C 209.689 0.443416 1.90508 0
M  V30 2286 C 210.069 -1.07685 1.81569 0
M  V30 2287 O 209.417 -1.9182 1.24166 0
M  V30 2288 C 209.627 0.956708 3.35631 0
M  V30 2289 C 210.975 0.999728 4.12663 0
M  V30 2290 O 211.999 0.904299 3.4453 0
M  V30 2291 O 210.858 1.14289 5.34416 0
M  V30 2292 H 207.952 0.138025 0.815401 0
M  V30 2293 H 210.498 0.98834 1.37949 0
M  V30 2294 H 209.27 2.00067 3.36287 0
M  V30 2295 H 208.893 0.391728 3.95666 0
M  V30 2296 N 209.89 -1.43072 0.660911 0
M  V30 2297 C 211.138 -2.01323 0.177094 0
M  V30 2298 C 211.459 -1.5245 -1.2159 0
M  V30 2299 O 210.729 -0.740322 -1.81373 0
M  V30 2300 H 209.309 -0.744382 0.0624804 0
M  V30 2301 H 211.971 -1.75179 0.854305 0
M  V30 2302 H 211.067 -3.11649 0.167641 0
M  V30 2303 N 211.368 -0.403325 -1.52352 0
M  V30 2304 C 212.645 0.232611 -1.94212 0
M  V30 2305 C 213.025 1.63133 -1.33981 0
M  V30 2306 O 212.373 2.22659 -0.513344 0
M  V30 2307 C 212.583 0.244811 -3.4814 0
M  V30 2308 C 213.931 0.46698 -4.22024 0
M  V30 2309 O 214.955 0.324419 -3.5472 0
M  V30 2310 O 213.814 0.74747 -5.41364 0
M  V30 2311 H 210.908 0.148223 -0.813609 0
M  V30 2312 H 213.454 -0.458848 -1.63379 0
M  V30 2313 H 212.226 -0.734378 -3.84347 0
M  V30 2314 H 211.849 0.980611 -3.85318 0
M  V30 2315 N 212.846 1.57033 -0.133567 0
M  V30 2316 C 214.093 1.95686 0.520877 0
M  V30 2317 C 214.421 1.0177 1.6575 0
M  V30 2318 O 213.676 0.0443195 1.9565 0
M  V30 2319 C 213.975 3.40674 1.08057 0
M  V30 2320 C 213.641 4.50855 0.0637899 0
M  V30 2321 C 212.303 4.80716 -0.215757 0
M  V30 2322 C 214.655 5.17398 -0.62835 0
M  V30 2323 C 211.983 5.74433 -1.19348 0
M  V30 2324 C 214.335 6.12167 -1.5948 0
M  V30 2325 C 212.999 6.40414 -1.88218 0
M  V30 2326 H 212.269 0.716067 0.190602 0
M  V30 2327 H 214.916 1.9026 -0.217556 0
M  V30 2328 H 213.221 3.42865 1.89606 0
M  V30 2329 H 214.918 3.67902 1.59529 0
M  V30 2330 H 211.508 4.27605 0.291855 0
M  V30 2331 H 215.692 4.94472 -0.425562 0
M  V30 2332 H 210.948 5.94616 -1.42272 0
M  V30 2333 H 215.122 6.6281 -2.13671 0
M  V30 2334 H 212.749 7.12838 -2.64133 0
M  V30 2335 N 214.325 -0.140222 1.56975 0
M  V30 2336 C 215.288 -1.15689 1.97861 0
M  V30 2337 C 216.288 -1.3549 0.865974 0
M  V30 2338 O 217.478 -1.32367 1.13246 0
M  V30 2339 C 214.61 -2.51582 2.30042 0
M  V30 2340 H 215.803 -0.805971 2.88867 0
M  V30 2341 H 213.356 -0.383801 1.51515 0
M  V30 2342 H 214.091 -2.91632 1.41849 0
M  V30 2343 H 213.876 -2.38569 3.11171 0
M  V30 2344 H 215.366 -3.24792 2.62488 0
M  V30 2345 N 215.803 -1.52179 -0.40978 0
M  V30 2346 C 217.052 -1.65434 -1.15388 0
M  V30 2347 C 217.365 -0.390056 -1.91671 0
M  V30 2348 O 218.571 -0.402399 -2.68501 0
M  V30 2349 C 217.027 -2.92279 -2.10003 0
M  V30 2350 C 216.635 -4.25813 -1.39239 0
M  V30 2351 C 218.379 -3.14897 -2.84675 0
M  V30 2352 C 216.286 -5.43782 -2.32498 0
M  V30 2353 H 215.216 -0.616267 -0.434432 0
M  V30 2354 H 217.867 -1.78666 -0.418401 0
M  V30 2355 H 216.249 -2.72744 -2.871 0
M  V30 2356 H 217.423 -4.55828 -0.675099 0
M  V30 2357 H 215.738 -4.09292 -0.766097 0
M  V30 2358 H 218.335 -4.0021 -3.54593 0
M  V30 2359 H 218.678 -2.29103 -3.47588 0
M  V30 2360 H 219.211 -3.34901 -2.14677 0
M  V30 2361 H 215.95 -6.3192 -1.74233 0
M  V30 2362 H 215.47 -5.18106 -3.02201 0
M  V30 2363 H 217.149 -5.76834 -2.93038 0
M  V30 2364 N 217.281 0.66697 -1.42791 0
M  V30 2365 C 218.527 1.4291 -1.43891 0
M  V30 2366 C 218.86 1.94114 -0.0578972 0
M  V30 2367 O 218.135 1.71414 0.91911 0
M  V30 2368 C 218.418 2.62049 -2.46987 0
M  V30 2369 C 218.271 2.16426 -3.94309 0
M  V30 2370 C 219.59 3.64266 -2.46978 0
M  V30 2371 H 216.709 0.518306 -0.523954 0
M  V30 2372 H 219.351 0.757321 -1.74255 0
M  V30 2373 H 217.501 3.19361 -2.21225 0
M  V30 2374 H 219.173 1.64221 -4.31079 0
M  V30 2375 H 217.416 1.47925 -4.078 0
M  V30 2376 H 218.087 3.02038 -4.62036 0
M  V30 2377 H 220.563 3.16686 -2.69906 0
M  V30 2378 H 219.439 4.45196 -3.21079 0
M  V30 2379 H 219.7 4.15927 -1.49857 0
M  V30 2380 N 218.759 1.29093 0.90403 0
M  V30 2381 C 219.706 1.13853 2.00764 0
M  V30 2382 C 220.676 0.0330084 1.66067 0
M  V30 2383 O 221.861 0.199733 1.89752 0
M  V30 2384 C 219.001 0.816537 3.35301 0
M  V30 2385 C 218.114 2.00206 3.82807 0
M  V30 2386 C 217.249 1.61983 5.059 0
M  V30 2387 C 216.288 2.77143 5.45764 0
M  V30 2388 N 215.425 2.39346 6.60044 0
M  V30 2389 H 220.265 2.08276 2.13132 0
M  V30 2390 H 217.802 1.03648 1.04381 0
M  V30 2391 H 219.76 0.610557 4.12708 0
M  V30 2392 H 218.39 -0.090779 3.22672 0
M  V30 2393 H 217.442 2.31988 3.01473 0
M  V30 2394 H 218.754 2.86512 4.08304 0
M  V30 2395 H 217.908 1.37649 5.90879 0
M  V30 2396 H 216.647 0.728202 4.82233 0
M  V30 2397 H 215.652 3.02165 4.59322 0
M  V30 2398 H 216.877 3.66964 5.71414 0
M  V30 2399 H 214.823 1.52665 6.37989 0
M  V30 2400 H 214.74 3.19185 6.85315 0
M  V30 2401 H 216.008 2.1832 7.48303 0
M  V30 2402 N 220.237 -1.11381 1.11499 0
M  V30 2403 C 221.484 -1.83132 0.864231 0
M  V30 2404 C 221.812 -1.84683 -0.610114 0
M  V30 2405 O 221.067 -1.29589 -1.46646 0
M  V30 2406 C 221.366 -3.30026 1.37177 0
M  V30 2407 C 221.032 -3.48634 2.85946 0
M  V30 2408 C 219.694 -3.53421 3.26569 0
M  V30 2409 C 222.046 -3.54837 3.81759 0
M  V30 2410 C 219.374 -3.61967 4.61733 0
M  V30 2411 C 221.726 -3.64915 5.1674 0
M  V30 2412 C 220.39 -3.67962 5.5692 0
M  V30 2413 H 219.66 -0.670127 0.316245 0
M  V30 2414 H 222.307 -1.31354 1.3935 0
M  V30 2415 H 220.612 -3.84304 0.762753 0
M  V30 2416 H 222.309 -3.84034 1.15408 0
M  V30 2417 H 218.899 -3.45579 2.53521 0
M  V30 2418 H 223.083 -3.50399 3.51474 0
M  V30 2419 H 218.339 -3.62603 4.92269 0
M  V30 2420 H 222.513 -3.68658 5.90816 0
M  V30 2421 H 220.14 -3.74336 6.61647 0
M  V30 2422 N 221.715 -0.905404 -1.28997 0
M  V30 2423 C 222.943 -0.549846 -1.9946 0
M  V30 2424 C 223.358 0.866834 -1.67724 0
M  V30 2425 O 222.715 1.57298 -0.925404 0
M  V30 2426 C 222.766 -0.739387 -3.53858 0
M  V30 2427 O 222.487 -2.10031 -3.84472 0
M  V30 2428 C 223.988 -0.389541 -4.41585 0
M  V30 2429 H 221.208 -0.210429 -0.637151 0
M  V30 2430 H 223.752 -1.21632 -1.64396 0
M  V30 2431 H 221.907 -0.120023 -3.87214 0
M  V30 2432 H 222.321 -2.13385 -4.79132 0
M  V30 2433 H 223.795 -0.572972 -5.49018 0
M  V30 2434 H 224.272 0.673756 -4.34001 0
M  V30 2435 H 224.878 -0.986089 -4.1371 0
M  V30 2436 N 223.193 1.4272 -0.668489 0
M  V30 2437 C 224.14 2.30796 0.0137489 0
M  V30 2438 C 225.11 1.4561 0.799177 0
M  V30 2439 O 226.295 1.74453 0.772702 0
M  V30 2440 C 223.435 3.31377 0.963507 0
M  V30 2441 C 222.548 4.31655 0.172569 0
M  V30 2442 C 221.683 5.19312 1.1175 0
M  V30 2443 C 220.722 6.11274 0.317886 0
M  V30 2444 N 219.859 6.91504 1.2152 0
M  V30 2445 H 224.699 2.88585 -0.743161 0
M  V30 2446 H 222.236 1.42154 -0.378226 0
M  V30 2447 H 224.194 3.88214 1.52792 0
M  V30 2448 H 222.824 2.75202 1.68712 0
M  V30 2449 H 221.876 3.76988 -0.508374 0
M  V30 2450 H 223.188 4.96779 -0.448527 0
M  V30 2451 H 222.342 5.80851 1.75206 0
M  V30 2452 H 221.081 4.5435 1.77249 0
M  V30 2453 H 220.086 5.48809 -0.329918 0
M  V30 2454 H 221.311 6.78283 -0.332917 0
M  V30 2455 H 219.257 6.29176 1.85671 0
M  V30 2456 H 219.174 7.53209 0.649036 0
M  V30 2457 H 220.442 7.57535 1.83742 0
M  V30 2458 N 224.671 0.411399 1.52136 0
M  V30 2459 C 225.917 -0.163888 2.02137 0
M  V30 2460 C 226.25 -1.44597 1.29636 0
M  V30 2461 O 225.525 -1.90272 0.403353 0
M  V30 2462 C 225.808 -0.40927 3.57767 0
M  V30 2463 C 225.661 0.889643 4.40914 0
M  V30 2464 C 226.98 -1.19042 4.23694 0
M  V30 2465 H 224.099 -0.0580896 0.734707 0
M  V30 2466 H 226.741 0.54531 1.82007 0
M  V30 2467 H 224.891 -1.0134 3.7505 0
M  V30 2468 H 226.563 1.52575 4.35337 0
M  V30 2469 H 224.806 1.50011 4.07037 0
M  V30 2470 H 225.477 0.672314 5.4789 0
M  V30 2471 H 227.953 -0.678942 4.10524 0
M  V30 2472 H 226.829 -1.33086 5.32522 0
M  V30 2473 H 227.09 -2.21166 3.82803 0
M  V30 2474 N 226.149 -1.5696 0.141893 0
M  V30 2475 C 227.079 -2.19516 -0.795936 0
M  V30 2476 C 228.06 -1.14187 -1.26077 0
M  V30 2477 O 229.245 -1.42511 -1.31925 0
M  V30 2478 C 226.375 -2.81272 -2.03723 0
M  V30 2479 C 225.329 -3.92384 -1.70936 0
M  V30 2480 C 224.655 -4.41052 -3.02287 0
M  V30 2481 C 225.955 -5.13403 -0.959954 0
M  V30 2482 H 227.649 -2.98138 -0.274596 0
M  V30 2483 H 225.195 -1.43406 -0.130636 0
M  V30 2484 H 227.148 -3.237 -2.69808 0
M  V30 2485 H 225.872 -1.99973 -2.58221 0
M  V30 2486 H 224.531 -3.50566 -1.07232 0
M  V30 2487 H 224.179 -3.56582 -3.54765 0
M  V30 2488 H 223.879 -5.15993 -2.81114 0
M  V30 2489 H 225.403 -4.86146 -3.69451 0
M  V30 2490 H 226.817 -5.52706 -1.52279 0
M  V30 2491 H 225.214 -5.94073 -0.848357 0
M  V30 2492 H 226.284 -4.84875 0.0492434 0
M  V30 2493 N 227.627 0.131896 -1.57047 0
M  V30 2494 C 228.557 1.16384 -2.02428 0
M  V30 2495 C 229.538 1.43936 -0.90644 0
M  V30 2496 O 230.723 1.54599 -1.17528 0
M  V30 2497 C 227.853 2.49328 -2.4177 0
M  V30 2498 C 226.807 2.36266 -3.56879 0
M  V30 2499 C 226.133 3.74057 -3.8208 0
M  V30 2500 C 227.433 1.834 -4.89042 0
M  V30 2501 H 229.127 0.786433 -2.88887 0
M  V30 2502 H 226.673 0.376855 -1.38981 0
M  V30 2503 H 228.626 3.21759 -2.7212 0
M  V30 2504 H 227.35 2.88934 -1.52266 0
M  V30 2505 H 226.009 1.66286 -3.26718 0
M  V30 2506 H 225.657 4.11125 -2.89803 0
M  V30 2507 H 225.357 3.66174 -4.59554 0
M  V30 2508 H 226.881 4.48012 -4.1487 0
M  V30 2509 H 228.295 2.45636 -5.18011 0
M  V30 2510 H 226.692 1.8637 -5.70426 0
M  V30 2511 H 227.762 0.790662 -4.7841 0
M  V30 2512 N 229.106 1.52395 0.401703 0
M  V30 2513 C 230.038 1.72505 1.50912 0
M  V30 2514 C 231.051 0.605468 1.51122 0
M  V30 2515 O 232.24 0.880828 1.55254 0
M  V30 2516 C 229.34 1.75711 2.89791 0
M  V30 2517 C 228.513 3.04824 3.1369 0
M  V30 2518 C 227.572 2.99743 4.32482 0
M  V30 2519 O 226.598 3.73635 4.29402 0
M  V30 2520 N 227.8 2.18047 5.37992 0
M  V30 2521 H 230.565 2.68049 1.34052 0
M  V30 2522 H 228.126 1.50724 0.591084 0
M  V30 2523 H 230.118 1.69834 3.6734 0
M  V30 2524 H 228.688 0.876092 3.00072 0
M  V30 2525 H 227.908 3.2429 2.24119 0
M  V30 2526 H 229.196 3.90221 3.26504 0
M  V30 2527 H 228.594 1.57456 5.43345 0
M  V30 2528 H 227.151 2.18021 6.14256 0
M  V30 2529 N 230.584 -0.659388 1.43143 0
M  V30 2530 C 231.814 -1.44513 1.47646 0
M  V30 2531 C 232.222 -1.88981 0.0910095 0
M  V30 2532 O 231.565 -1.59702 -0.907789 0
M  V30 2533 C 231.627 -2.71663 2.35456 0
M  V30 2534 C 231.291 -2.49175 3.83094 0
M  V30 2535 C 232.288 -2.1279 4.74359 0
M  V30 2536 C 229.973 -2.63691 4.27519 0
M  V30 2537 C 231.967 -1.9121 6.08044 0
M  V30 2538 C 229.654 -2.41726 5.61259 0
M  V30 2539 C 230.652 -2.0554 6.51339 0
M  V30 2540 O 230.34 -1.838 7.82606 0
M  V30 2541 H 230.072 -0.45064 0.503884 0
M  V30 2542 H 232.626 -0.816248 1.88485 0
M  V30 2543 H 230.856 -3.37089 1.89493 0
M  V30 2544 H 232.545 -3.33595 2.31235 0
M  V30 2545 H 233.311 -2.01157 4.41317 0
M  V30 2546 H 229.19 -2.90832 3.57684 0
M  V30 2547 H 232.734 -1.62889 6.78316 0
M  V30 2548 H 228.631 -2.52959 5.9387 0
M  V30 2549 H 229.399 -1.98275 7.94122 0
M  V30 2550 N 232.062 -1.29571 -0.897171 0
M  V30 2551 C 233.29 -1.20583 -1.68129 0
M  V30 2552 C 233.705 0.233181 -1.87354 0
M  V30 2553 O 233.062 1.15579 -1.41236 0
M  V30 2554 C 233.113 -1.91772 -3.06441 0
M  V30 2555 O 232.834 -3.30053 -2.88091 0
M  V30 2556 C 234.335 -1.89291 -4.00854 0
M  V30 2557 H 231.555 -0.417826 -0.525036 0
M  V30 2558 H 234.099 -1.70987 -1.12177 0
M  V30 2559 H 232.254 -1.45196 -3.59161 0
M  V30 2560 H 232.668 -3.65942 -3.75748 0
M  V30 2561 H 234.142 -2.43662 -4.95311 0
M  V30 2562 H 234.619 -0.869014 -4.30517 0
M  V30 2563 H 235.225 -2.35622 -3.54066 0
M  V30 2564 N 233.54 1.10788 -1.12088 0
M  V30 2565 C 234.788 1.8231 -0.872205 0
M  V30 2566 C 235.109 1.85419 0.603709 0
M  V30 2567 O 234.379 1.32963 1.43867 0
M  V30 2568 H 232.959 0.675137 -0.319686 0
M  V30 2569 H 235.621 1.34068 -1.41463 0
M  V30 2570 H 234.717 2.85955 -1.25045 0
M  V30 2571 N 235.018 0.912232 1.28515 0
M  V30 2572 C 235.968 0.370649 2.24967 0
M  V30 2573 C 236.952 -0.516375 1.52389 0
M  V30 2574 O 238.144 -0.356345 1.73376 0
M  V30 2575 C 235.273 -0.389526 3.41083 0
M  V30 2576 C 234.359 0.51313 4.20984 0
M  V30 2577 N 234.75 1.62604 4.78951 0
M  V30 2578 C 233.048 0.313235 4.44899 0
M  V30 2579 C 233.749 2.18619 5.39055 0
M  V30 2580 N 232.725 1.47765 5.23132 0
M  V30 2581 H 236.527 1.22061 2.67354 0
M  V30 2582 H 234.041 0.764712 1.43269 0
M  V30 2583 H 236.038 -0.794353 4.09262 0
M  V30 2584 H 234.698 -1.2366 3.0023 0
M  V30 2585 H 235.709 2.00864 4.77362 0
M  V30 2586 H 232.386 -0.494452 4.14562 0
M  V30 2587 H 233.776 3.12228 5.94948 0
M  V30 2588 N 236.496 -1.42363 0.676048 0
M  V30 2589 C 237.745 -2.00745 0.196037 0
M  V30 2590 C 238.058 -1.54083 -1.20489 0
M  V30 2591 O 239.264 -2.04891 -1.78134 0
M  V30 2592 C 237.72 -3.58651 0.299616 0
M  V30 2593 C 237.328 -4.143 1.70468 0
M  V30 2594 C 239.072 -4.24326 -0.121619 0
M  V30 2595 C 236.979 -5.64574 1.76096 0
M  V30 2596 H 235.909 -0.750787 0.0695301 0
M  V30 2597 H 238.56 -1.63072 0.841412 0
M  V30 2598 H 236.942 -3.93833 -0.413673 0
M  V30 2599 H 238.116 -3.90575 2.44515 0
M  V30 2600 H 236.431 -3.61081 2.07387 0
M  V30 2601 H 239.028 -5.34607 -0.0997362 0
M  V30 2602 H 239.371 -3.99897 -1.15708 0
M  V30 2603 H 239.904 -3.94108 0.540706 0
M  V30 2604 H 236.643 -5.93804 2.77628 0
M  V30 2605 H 236.163 -5.90286 1.06406 0
M  V30 2606 H 237.842 -6.29013 1.51496 0
M  V30 2607 N 237.974 -0.419461 -1.51915 0
M  V30 2608 C 239.202 0.152136 -2.0634 0
M  V30 2609 C 239.617 1.37988 -1.28859 0
M  V30 2610 O 238.974 1.79243 -0.343232 0
M  V30 2611 C 239.025 0.492266 -3.58133 0
M  V30 2612 O 238.746 -0.686736 -4.32684 0
M  V30 2613 C 240.247 1.11648 -4.2901 0
M  V30 2614 H 237.467 0.0158325 -0.670813 0
M  V30 2615 H 240.011 -0.593394 -1.95702 0
M  V30 2616 H 238.166 1.18769 -3.68745 0
M  V30 2617 H 238.58 -0.400341 -5.2297 0
M  V30 2618 H 240.054 1.3046 -5.36362 0
M  V30 2619 H 240.531 2.09251 -3.86148 0
M  V30 2620 H 241.137 0.460958 -4.22795 0
M  V30 2621 N 239.452 1.56882 -0.150215 0
M  V30 2622 C 240.698 1.97299 0.494427 0
M  V30 2623 C 241.053 1.0338 1.62266 0
M  V30 2624 O 240.346 0.0694497 1.91474 0
M  V30 2625 C 240.54 3.41801 1.04437 0
M  V30 2626 C 240.369 4.49691 -0.0290451 0
M  V30 2627 C 239.139 5.03095 -0.47156 0
M  V30 2628 C 241.337 5.07693 -0.821703 0
M  V30 2629 N 239.319 5.94593 -1.52749 0
M  V30 2630 C 240.69 5.95431 -1.72805 0
M  V30 2631 C 242.745 4.90256 -0.869134 0
M  V30 2632 C 241.448 6.67599 -2.67777 0
M  V30 2633 C 243.474 5.63127 -1.8067 0
M  V30 2634 C 242.836 6.50576 -2.70057 0
M  V30 2635 H 238.935 0.76755 0.149639 0
M  V30 2636 H 241.519 1.93145 -0.24556 0
M  V30 2637 H 239.69 3.46541 1.75396 0
M  V30 2638 H 241.422 3.69272 1.6559 0
M  V30 2639 H 238.177 4.73543 -0.0732101 0
M  V30 2640 H 238.601 6.45047 -2.05531 0
M  V30 2641 H 243.243 4.22363 -0.192134 0
M  V30 2642 H 240.961 7.34717 -3.36476 0
M  V30 2643 H 244.547 5.51629 -1.84924 0
M  V30 2644 H 243.427 7.05974 -3.41424 0
M  V30 2645 N 240.93 -0.123565 1.57115 0
M  V30 2646 C 242.158 -0.846461 1.88793 0
M  V30 2647 C 242.573 -1.73652 0.740976 0
M  V30 2648 O 241.93 -1.80207 -0.288393 0
M  V30 2649 C 241.981 -1.6837 3.19897 0
M  V30 2650 O 241.702 -0.829477 4.30176 0
M  V30 2651 C 243.203 -2.51214 3.65248 0
M  V30 2652 H 240.423 -0.243573 0.625231 0
M  V30 2653 H 242.967 -0.109324 2.04208 0
M  V30 2654 H 241.122 -2.37364 3.06165 0
M  V30 2655 H 241.536 -1.40651 5.0529 0
M  V30 2656 H 243.01 -3.05497 4.59756 0
M  V30 2657 H 243.487 -3.28359 2.9168 0
M  V30 2658 H 244.093 -1.8747 3.81752 0
M  V30 2659 N 242.408 -1.52605 -0.393616 0
M  V30 2660 C 243.819 -1.59417 -0.971761 0
M  V30 2661 C 244.17 -0.444173 -1.91106 0
M  V30 2662 O 243.295 0.433382 -2.12016 0
M  V30 2663 C 243.89 -2.88936 -1.76921 0
M  V30 2664 C 242.449 -2.98175 -2.29714 0
M  V30 2665 C 241.596 -2.54491 -1.10135 0
M  V30 2666 H 244.547 -1.57751 -0.173317 0
M  V30 2667 H 244.568 -2.75163 -2.62804 0
M  V30 2668 H 244.08 -3.72616 -1.08532 0
M  V30 2669 H 242.181 -2.19024 -3.01429 0
M  V30 2670 H 242.294 -4.02726 -2.59517 0
M  V30 2671 H 240.658 -2.08702 -1.45999 0
M  V30 2672 H 241.441 -3.4056 -0.432874 0
M  V30 2673 N 243.887 0.651787 -1.4349 0
M  V30 2674 C 245.298 1.233 -1.40193 0
M  V30 2675 C 245.649 1.9591 -0.106727 0
M  V30 2676 O 244.774 2.01316 0.793773 0
M  V30 2677 C 245.369 2.24257 -2.53957 0
M  V30 2678 C 243.928 2.77852 -2.5392 0
M  V30 2679 C 243.075 1.52517 -2.3159 0
M  V30 2680 H 246.026 0.443717 -1.52371 0
M  V30 2681 H 246.047 3.0646 -2.25528 0
M  V30 2682 H 245.559 1.71382 -3.4821 0
M  V30 2683 H 243.66 3.34786 -1.63551 0
M  V30 2684 H 243.773 3.25299 -3.51735 0
M  V30 2685 H 242.137 1.79915 -1.80285 0
M  V30 2686 H 242.92 1.01574 -3.27929 0
M  V30 2687 N 245.365 1.30045 0.890287 0
M  V30 2688 C 246.328 1.15963 1.977 0
M  V30 2689 C 247.328 0.0923777 1.60534 0
M  V30 2690 O 248.518 0.340071 1.70848 0
M  V30 2691 C 245.65 0.775451 3.31963 0
M  V30 2692 H 246.843 2.12502 2.11619 0
M  V30 2693 H 244.396 1.13366 1.07601 0
M  V30 2694 H 245.131 -0.189671 3.23745 0
M  V30 2695 H 244.916 1.54668 3.60306 0
M  V30 2696 H 246.406 0.700251 4.11687 0
M  V30 2697 N 246.843 -1.10192 1.12674 0
M  V30 2698 C 248.092 -1.81573 0.8783 0
M  V30 2699 C 248.405 -1.86249 -0.597557 0
M  V30 2700 O 249.611 -2.5386 -0.962681 0
M  V30 2701 C 248.067 -3.26149 1.52167 0
M  V30 2702 C 247.675 -3.29763 3.03249 0
M  V30 2703 C 249.419 -4.0234 1.3536 0
M  V30 2704 C 247.326 -4.68815 3.60508 0
M  V30 2705 H 246.256 -0.680394 0.324931 0
M  V30 2706 H 248.907 -1.23902 1.35353 0
M  V30 2707 H 247.289 -3.83832 0.974104 0
M  V30 2708 H 248.463 -2.8189 3.6452 0
M  V30 2709 H 246.778 -2.67059 3.19481 0
M  V30 2710 H 249.375 -5.05058 1.75559 0
M  V30 2711 H 249.718 -4.15235 0.297554 0
M  V30 2712 H 250.251 -3.51079 1.87052 0
M  V30 2713 H 246.99 -4.61121 4.65884 0
M  V30 2714 H 246.51 -5.17045 3.04014 0
M  V30 2715 H 248.189 -5.37785 3.59717 0
M  V30 2716 N 248.321 -0.919034 -1.28029 0
M  V30 2717 C 249.568 -0.554934 -1.94748 0
M  V30 2718 C 249.896 0.90231 -1.72304 0
M  V30 2719 O 249.151 1.65767 -1.04018 0
M  V30 2720 C 249.45 -0.816855 -3.4794 0
M  V30 2721 C 249.116 -2.25448 -3.90492 0
M  V30 2722 C 247.778 -2.64752 -4.01821 0
M  V30 2723 C 250.13 -3.18977 -4.12193 0
M  V30 2724 C 247.458 -3.96727 -4.32232 0
M  V30 2725 C 249.81 -4.50523 -4.44086 0
M  V30 2726 C 248.474 -4.89673 -4.53626 0
M  V30 2727 H 247.744 -0.203065 -0.712633 0
M  V30 2728 H 250.391 -1.16136 -1.52265 0
M  V30 2729 H 248.696 -0.127677 -3.91592 0
M  V30 2730 H 250.393 -0.514238 -3.97689 0
M  V30 2731 H 246.983 -1.93952 -3.82205 0
M  V30 2732 H 251.167 -2.89817 -4.02889 0
M  V30 2733 H 246.423 -4.26754 -4.37825 0
M  V30 2734 H 250.597 -5.23005 -4.59825 0
M  V30 2735 H 248.224 -5.91969 -4.76946 0
M  V30 2736 N 249.799 1.42003 -0.683588 0
M  V30 2737 C 250.746 2.30798 -0.0107309 0
M  V30 2738 C 251.716 1.4645 0.783688 0
M  V30 2739 O 252.901 1.75263 0.754156 0
M  V30 2740 C 250.041 3.3238 0.928306 0
M  V30 2741 C 249.154 4.31814 0.126776 0
M  V30 2742 C 248.289 5.20468 1.06236 0
M  V30 2743 C 247.328 6.11577 0.253035 0
M  V30 2744 N 246.465 6.92754 1.14179 0
M  V30 2745 H 251.305 2.8778 -0.773727 0
M  V30 2746 H 248.842 1.41745 -0.393283 0
M  V30 2747 H 250.8 3.89813 1.48666 0
M  V30 2748 H 249.43 2.76976 1.65783 0
M  V30 2749 H 248.482 3.76427 -0.54833 0
M  V30 2750 H 249.794 4.96276 -0.501192 0
M  V30 2751 H 248.948 5.82677 1.69035 0
M  V30 2752 H 247.687 4.56204 1.7242 0
M  V30 2753 H 246.692 5.48428 -0.388108 0
M  V30 2754 H 247.917 6.77892 -0.404839 0
M  V30 2755 H 245.863 6.3111 1.78987 0
M  V30 2756 H 245.78 7.53855 0.569111 0
M  V30 2757 H 247.048 7.59441 1.75697 0
M  V30 2758 N 251.277 0.427512 1.51691 0
M  V30 2759 C 252.502 -0.143601 2.06902 0
M  V30 2760 C 252.927 -1.36536 1.29382 0
M  V30 2761 O 252.285 -1.78289 0.329043 0
M  V30 2762 C 252.333 -0.454207 3.57728 0
M  V30 2763 O 251.437 -1.54228 3.82475 0
M  V30 2764 H 250.778 -0.00617128 0.663971 0
M  V30 2765 H 253.308 0.606014 1.95419 0
M  V30 2766 H 253.318 -0.707525 4.01818 0
M  V30 2767 H 251.993 0.438812 4.13579 0
M  V30 2768 H 250.57 -1.2797 3.50254 0
M  V30 2769 N 252.755 -1.56801 0.158532 0
M  V30 2770 C 253.985 -2.00568 -0.495583 0
M  V30 2771 C 254.393 -1.03774 -1.58201 0
M  V30 2772 O 253.736 -0.0285797 -1.83678 0
M  V30 2773 C 253.798 -3.40768 -1.14532 0
M  V30 2774 C 253.462 -4.56553 -0.202101 0
M  V30 2775 C 254.459 -5.16714 0.574675 0
M  V30 2776 C 252.144 -5.02197 -0.101648 0
M  V30 2777 C 254.138 -6.20939 1.43924 0
M  V30 2778 C 251.825 -6.06274 0.766508 0
M  V30 2779 C 252.823 -6.65515 1.53555 0
M  V30 2780 O 252.511 -7.67575 2.38922 0
M  V30 2781 H 252.243 -0.662893 -0.13247 0
M  V30 2782 H 254.797 -2.03829 0.253559 0
M  V30 2783 H 253.027 -3.34381 -1.94233 0
M  V30 2784 H 254.716 -3.6857 -1.70033 0
M  V30 2785 H 255.482 -4.82341 0.507167 0
M  V30 2786 H 251.361 -4.55807 -0.689994 0
M  V30 2787 H 254.905 -6.67107 2.03996 0
M  V30 2788 H 250.802 -6.40073 0.835266 0
M  V30 2789 H 251.57 -7.84844 2.32296 0
M  V30 2790 N 254.233 0.115231 -1.57178 0
M  V30 2791 C 255.473 0.828199 -1.8687 0
M  V30 2792 C 255.837 1.76873 -0.747002 0
M  V30 2793 O 257.038 2.52354 -0.925785 0
M  V30 2794 C 255.309 1.55515 -3.21792 0
M  V30 2795 S 256.868 2.30917 -3.73125 0
M  V30 2796 H 253.686 0.27634 -0.655101 0
M  V30 2797 H 256.288 0.0863469 -1.95309 0
M  V30 2798 H 254.992 0.856248 -4.01368 0
M  V30 2799 H 254.523 2.3373 -3.16439 0
M  V30 2800 H 256.538 3.56705 -3.44929 0
M  V30 2801 N 255.711 1.52812 0.385517 0
M  V30 2802 C 256.621 1.80766 1.49535 0
M  V30 2803 C 257.637 0.694651 1.59532 0
M  V30 2804 O 258.813 0.982611 1.75803 0
M  V30 2805 C 255.878 1.97381 2.85029 0
M  V30 2806 C 254.939 3.21295 2.84724 0
M  V30 2807 C 254.172 3.37108 4.13756 0
M  V30 2808 O 254.395 2.5765 5.08893 0
M  V30 2809 O 253.329 4.30378 4.20783 0
M  V30 2810 H 257.155 2.75015 1.28842 0
M  V30 2811 H 254.74 1.37946 0.573697 0
M  V30 2812 H 256.622 2.09996 3.65349 0
M  V30 2813 H 255.297 1.06322 3.05741 0
M  V30 2814 H 254.204 3.1412 2.03174 0
M  V30 2815 H 255.537 4.12212 2.68965 0
M  V30 2816 N 257.189 -0.644168 1.43834 0
M  V30 2817 C 258.438 -1.39985 1.45214 0
M  V30 2818 C 258.751 -1.95421 0.0835494 0
M  V30 2819 O 259.957 -2.71488 -0.0251748 0
M  V30 2820 C 258.413 -2.53384 2.55587 0
M  V30 2821 C 258.021 -2.04517 3.98594 0
M  V30 2822 C 259.765 -3.30685 2.66172 0
M  V30 2823 C 257.672 -3.1518 5.00416 0
M  V30 2824 H 256.602 -0.526005 0.540218 0
M  V30 2825 H 259.253 -0.694367 1.69855 0
M  V30 2826 H 257.635 -3.26446 2.24163 0
M  V30 2827 H 258.809 -1.38405 4.39523 0
M  V30 2828 H 257.124 -1.40068 3.92135 0
M  V30 2829 H 259.721 -4.13158 3.39418 0
M  V30 2830 H 260.064 -3.79312 1.71546 0
M  V30 2831 H 260.597 -2.64708 2.96942 0
M  V30 2832 H 257.336 -2.71511 5.96625 0
M  V30 2833 H 256.856 -3.79974 4.64091 0
M  V30 2834 H 258.535 -3.80166 5.23529 0
M  V30 2835 N 258.668 -1.30515 -0.883378 0
M  V30 2836 C 259.917 -1.18795 -1.63005 0
M  V30 2837 C 260.23 0.255923 -1.93919 0
M  V30 2838 O 261.436 0.494654 -2.66956 0
M  V30 2839 C 259.892 -2.07878 -2.93794 0
M  V30 2840 C 259.5 -3.57184 -2.70414 0
M  V30 2841 C 261.244 -2.04924 -3.71761 0
M  V30 2842 C 259.151 -4.38317 -3.97029 0
M  V30 2843 H 258.081 -0.441031 -0.611562 0
M  V30 2844 H 260.732 -1.55275 -0.977854 0
M  V30 2845 H 259.114 -1.64283 -3.60315 0
M  V30 2846 H 260.288 -4.08937 -2.12384 0
M  V30 2847 H 258.603 -3.61976 -2.0582 0
M  V30 2848 H 261.2 -2.62792 -4.65665 0
M  V30 2849 H 261.543 -1.0331 -4.03277 0
M  V30 2850 H 262.076 -2.46649 -3.12104 0
M  V30 2851 H 258.815 -5.40632 -3.70671 0
M  V30 2852 H 258.335 -3.91326 -4.54559 0
M  V30 2853 H 260.014 -4.49834 -4.65036 0
M  V30 2854 N 260.146 1.09593 -1.13257 0
M  V30 2855 C 261.392 1.82003 -0.89458 0
M  V30 2856 C 261.725 1.85402 0.577906 0
M  V30 2857 O 261 1.32099 1.42759 0
M  V30 2858 C 261.283 3.28237 -1.48096 0
M  V30 2859 C 261.136 3.3312 -3.02244 0
M  V30 2860 C 262.455 4.24871 -1.14774 0
M  V30 2861 H 259.574 0.66077 -0.326424 0
M  V30 2862 H 262.216 1.28389 -1.40058 0
M  V30 2863 H 260.366 3.74024 -1.05062 0
M  V30 2864 H 262.038 2.95748 -3.54021 0
M  V30 2865 H 260.281 2.72756 -3.37323 0
M  V30 2866 H 260.952 4.3613 -3.38371 0
M  V30 2867 H 263.428 3.87361 -1.51957 0
M  V30 2868 H 262.304 5.25532 -1.58452 0
M  V30 2869 H 262.565 4.42058 -0.0611849 0
M  V30 2870 N 261.624 0.925811 1.2754 0
M  V30 2871 C 262.852 0.581509 1.9856 0
M  V30 2872 C 263.267 -0.840041 1.69082 0
M  V30 2873 O 262.624 -1.55805 0.950312 0
M  V30 2874 C 262.675 0.795589 3.52637 0
M  V30 2875 O 262.396 2.16121 3.81082 0
M  V30 2876 C 263.897 0.459744 4.4091 0
M  V30 2877 H 261.117 0.220538 0.633722 0
M  V30 2878 H 263.661 1.24232 1.6244 0
M  V30 2879 H 261.816 0.18161 3.86974 0
M  V30 2880 H 262.23 2.2098 4.75676 0
M  V30 2881 H 263.704 0.660244 5.48037 0
M  V30 2882 H 264.181 -0.604625 4.35018 0
M  V30 2883 H 264.787 1.05178 4.12089 0
M  V30 2884 N 263.102 -1.41638 0.69111 0
M  V30 2885 C 264.052 -2.28 -0.000107832 0
M  V30 2886 C 265.036 -1.41964 -0.757304 0
M  V30 2887 O 266.228 -1.65274 -0.633532 0
M  V30 2888 C 263.357 -3.30209 -0.938983 0
M  V30 2889 C 262.443 -4.23725 -0.17827 0
M  V30 2890 N 262.834 -4.99017 0.825563 0
M  V30 2891 C 261.132 -4.44071 -0.414392 0
M  V30 2892 C 261.833 -5.67431 1.28052 0
M  V30 2893 N 260.809 -5.40197 0.607304 0
M  V30 2894 H 264.611 -2.83644 0.769617 0
M  V30 2895 H 262.125 -1.53797 0.521562 0
M  V30 2896 H 264.122 -3.90898 -1.44929 0
M  V30 2897 H 262.782 -2.76126 -1.70836 0
M  V30 2898 H 263.793 -5.03671 1.20566 0
M  V30 2899 H 260.47 -4.01004 -1.162 0
M  V30 2900 H 261.86 -6.37801 2.11327 0
M  V30 2901 N 264.58 -0.43555 -1.51462 0
M  V30 2902 C 265.827 0.131514 -2.02072 0
M  V30 2903 C 266.155 1.42868 -1.31981 0
M  V30 2904 O 265.41 1.91076 -0.422883 0
M  V30 2905 C 265.709 0.39942 -3.55161 0
M  V30 2906 C 265.375 -0.81172 -4.43533 0
M  V30 2907 C 264.037 -1.14387 -4.67407 0
M  V30 2908 C 266.389 -1.61976 -4.95392 0
M  V30 2909 C 263.717 -2.28477 -5.40384 0
M  V30 2910 C 266.069 -2.75164 -5.6962 0
M  V30 2911 C 264.733 -3.08835 -5.91758 0
M  V30 2912 H 264.003 0.0481244 -0.739436 0
M  V30 2913 H 266.65 -0.58238 -1.8243 0
M  V30 2914 H 264.955 1.19519 -3.73125 0
M  V30 2915 H 266.652 0.85157 -3.91854 0
M  V30 2916 H 263.242 -0.542898 -4.25148 0
M  V30 2917 H 267.426 -1.37637 -4.76833 0
M  V30 2918 H 262.682 -2.5488 -5.55739 0
M  V30 2919 H 266.856 -3.38147 -6.08793 0
M  V30 2920 H 264.483 -3.97353 -6.48086 0
M  V30 2921 N 266.058 1.56714 -0.166846 0
M  V30 2922 C 267.469 1.83378 0.350646 0
M  V30 2923 C 267.82 1.08646 1.63372 0
M  V30 2924 O 266.945 0.338058 2.13743 0
M  V30 2925 C 267.54 3.32643 0.642963 0
M  V30 2926 C 266.099 3.59818 1.10491 0
M  V30 2927 C 265.246 2.76954 0.138411 0
M  V30 2928 H 268.197 1.53803 -0.391193 0
M  V30 2929 H 268.218 3.49878 1.49551 0
M  V30 2930 H 267.73 3.87007 -0.291055 0
M  V30 2931 H 265.831 3.1086 2.05418 0
M  V30 2932 H 265.944 4.68178 1.01716 0
M  V30 2933 H 264.308 2.4666 0.634911 0
M  V30 2934 H 265.091 3.34097 -0.789549 0
M  V30 2935 N 267.536 -0.106894 1.57237 0
M  V30 2936 C 268.783 -0.812526 1.85484 0
M  V30 2937 C 269.111 -1.79304 0.753687 0
M  V30 2938 O 268.366 -1.94047 -0.253853 0
M  V30 2939 C 268.665 -1.58628 3.20268 0
M  V30 2940 C 268.331 -0.748967 4.44636 0
M  V30 2941 C 266.993 -0.518104 4.78403 0
M  V30 2942 C 269.345 -0.166122 5.20935 0
M  V30 2943 C 266.673 0.305659 5.85903 0
M  V30 2944 C 269.025 0.644899 6.29304 0
M  V30 2945 C 267.689 0.885965 6.61594 0
M  V30 2946 H 266.959 -0.297324 0.678734 0
M  V30 2947 H 269.606 -0.0744332 1.91355 0
M  V30 2948 H 267.911 -2.39562 3.10028 0
M  V30 2949 H 269.608 -2.13643 3.39349 0
M  V30 2950 H 266.198 -0.939006 4.18187 0
M  V30 2951 H 270.382 -0.33167 4.95191 0
M  V30 2952 H 265.638 0.501528 6.0934 0
M  V30 2953 H 269.812 1.10345 6.87602 0
M  V30 2954 H 267.439 1.52609 7.44725 0
M  V30 2955 N 269.014 -1.53014 -0.377408 0
M  V30 2956 C 270.291 -1.59215 -1.13622 0
M  V30 2957 C 270.671 -0.392407 -2.07421 0
M  V30 2958 O 270.019 0.618342 -2.19975 0
M  V30 2959 C 270.229 -2.93669 -1.88573 0
M  V30 2960 C 271.577 -3.47822 -2.43526 0
M  V30 2961 O 272.601 -2.9562 -1.98715 0
M  V30 2962 O 271.46 -4.39055 -3.25412 0
M  V30 2963 H 268.554 -0.642625 -0.52054 0
M  V30 2964 H 271.1 -1.65353 -0.381625 0
M  V30 2965 H 269.872 -3.7243 -1.20048 0
M  V30 2966 H 269.495 -2.90968 -2.70968 0
M  V30 2967 N 270.492 0.636531 -1.44174 0
M  V30 2968 C 271.402 1.77754 -1.53103 0
M  V30 2969 C 272.418 1.68928 -0.417034 0
M  V30 2970 O 273.594 1.89801 -0.6736 0
M  V30 2971 C 270.659 3.14115 -1.46741 0
M  V30 2972 C 269.72 3.34612 -2.68948 0
M  V30 2973 C 268.953 4.64467 -2.6288 0
M  V30 2974 O 269.176 5.44919 -1.68581 0
M  V30 2975 O 268.11 4.87049 -3.53648 0
M  V30 2976 H 271.936 1.73174 -2.49489 0
M  V30 2977 H 269.521 0.79709 -1.2636 0
M  V30 2978 H 271.403 3.95412 -1.45696 0
M  V30 2979 H 270.078 3.19249 -0.534975 0
M  V30 2980 H 268.985 2.53014 -2.75562 0
M  V30 2981 H 270.318 3.34336 -3.61221 0
M  V30 2982 N 271.97 1.30982 0.876444 0
M  V30 2983 C 272.902 1.13902 1.98894 0
M  V30 2984 C 273.915 0.0798815 1.62604 0
M  V30 2985 O 275.104 0.326743 1.75484 0
M  V30 2986 C 272.204 0.716699 3.31235 0
M  V30 2987 C 271.377 1.85945 3.95908 0
M  V30 2988 C 270.436 1.42426 5.06558 0
M  V30 2989 O 269.462 2.13287 5.27729 0
M  V30 2990 N 270.664 0.308025 5.79682 0
M  V30 2991 H 273.429 2.09724 2.14094 0
M  V30 2992 H 270.99 1.2323 1.05004 0
M  V30 2993 H 272.982 0.408403 4.02634 0
M  V30 2994 H 271.552 -0.149719 3.12241 0
M  V30 2995 H 270.772 2.33541 3.17573 0
M  V30 2996 H 272.06 2.62503 4.35855 0
M  V30 2997 H 271.458 -0.282241 5.64995 0
M  V30 2998 H 270.015 0.0592282 6.51773 0
M  V30 2999 N 273.449 -1.08991 1.13837 0
M  V30 3000 C 274.397 -2.17841 0.815347 0
M  V30 3001 C 275.391 -1.68164 -0.204233 0
M  V30 3002 O 276.597 -1.79897 -0.0609304 0
M  V30 3003 H 272.972 -0.710654 0.245915 0
M  V30 3004 H 274.943 -2.42315 1.74143 0
M  V30 3005 C 273.692 -3.46381 0.302614 0
M  V30 3006 H 273.015 -3.84979 1.0785 0
M  V30 3007 H 274.455 -4.23844 0.115074 0
M  V30 3008 C 272.914 -3.22556 -0.972591 0
M  V30 3009 O 273.444 -3.45599 -2.04754 0
M  V30 3010 N 271.65 -2.76134 -0.905455 0
M  V30 3011 H 271.197 -2.57582 -0.0305421 0
M  V30 3012 H 271.155 -2.60571 -1.75926 0
M  V30 3013 N 274.927 -0.932562 -1.27047 0
M  V30 3014 C 276.167 -0.582919 -1.95912 0
M  V30 3015 C 276.531 0.860629 -1.71631 0
M  V30 3016 O 277.732 1.31878 -2.34225 0
M  V30 3017 C 276.003 -0.905673 -3.45734 0
M  V30 3018 S 277.562 -0.665277 -4.33727 0
M  V30 3019 H 274.38 -0.215 -0.677714 0
M  V30 3020 H 276.982 -1.20204 -1.54179 0
M  V30 3021 H 275.686 -1.95386 -3.60905 0
M  V30 3022 H 275.217 -0.275939 -3.92431 0
M  V30 3023 H 277.232 0.474635 -4.93925 0
M  V30 3024 N 276.405 1.4127 -0.698611 0
M  V30 3025 C 277.63 2.06024 -0.238512 0
M  V30 3026 C 278.055 1.5224 1.10475 0
M  V30 3027 O 277.413 0.650623 1.69223 0
M  V30 3028 C 277.461 3.59988 -0.209952 0
M  V30 3029 O 276.565 4.04282 0.814235 0
M  V30 3030 H 275.906 0.653829 -0.115775 0
M  V30 3031 H 278.436 1.8098 -0.954326 0
M  V30 3032 H 278.446 4.07979 -0.0418436 0
M  V30 3033 H 277.121 3.98503 -1.1903 0
M  V30 3034 H 275.698 3.6779 0.615234 0
M  V30 3035 N 277.883 0.443576 1.51229 0
M  V30 3036 C 278.816 -0.410089 2.24485 0
M  V30 3037 C 279.794 -1.01949 1.26669 0
M  V30 3038 O 280.978 -1.06075 1.55821 0
M  V30 3039 C 278.105 -1.57211 3.00004 0
M  V30 3040 C 277.151 -1.08279 4.12526 0
M  V30 3041 S 277.984 -0.0197476 5.35496 0
M  V30 3042 C 279.14 -1.18629 6.14555 0
M  V30 3043 H 279.373 0.211832 2.96544 0
M  V30 3044 H 276.906 0.228156 1.52705 0
M  V30 3045 H 278.864 -2.23825 3.44111 0
M  V30 3046 H 277.525 -2.16547 2.27522 0
M  V30 3047 H 276.718 -1.95193 4.64667 0
M  V30 3048 H 276.32 -0.494797 3.70713 0
M  V30 3049 H 278.612 -2.10344 6.4402 0
M  V30 3050 H 279.555 -0.70472 7.04584 0
M  V30 3051 H 279.963 -1.42768 5.46148 0
M  V30 3052 N 279.361 -1.56624 0.175154 0
M  V30 3053 C 280.308 -2.18149 -0.753634 0
M  V30 3054 C 281.278 -1.12265 -1.22417 0
M  V30 3055 O 282.463 -1.40432 -1.29165 0
M  V30 3056 C 279.603 -2.82933 -1.97592 0
M  V30 3057 C 278.716 -4.03289 -1.5486 0
M  V30 3058 C 277.851 -4.55988 -2.72485 0
M  V30 3059 C 276.89 -5.68746 -2.26262 0
M  V30 3060 N 276.027 -6.15938 -3.36994 0
M  V30 3061 H 280.867 -2.9717 -0.222195 0
M  V30 3062 H 278.404 -1.46774 -0.0979422 0
M  V30 3063 H 280.362 -3.18653 -2.69288 0
M  V30 3064 H 278.992 -2.06509 -2.481 0
M  V30 3065 H 278.044 -3.73364 -0.728246 0
M  V30 3066 H 279.356 -4.849 -1.16933 0
M  V30 3067 H 278.51 -4.9391 -3.52332 0
M  V30 3068 H 277.249 -3.73443 -3.13674 0
M  V30 3069 H 276.254 -5.30372 -1.44863 0
M  V30 3070 H 277.479 -6.53095 -1.86127 0
M  V30 3071 H 275.425 -5.36321 -3.77751 0
M  V30 3072 H 275.342 -6.92548 -3.03172 0
M  V30 3073 H 276.61 -6.58511 -4.17114 0
M  V30 3074 N 280.839 0.0985539 -1.57292 0
M  V30 3075 C 281.769 1.12064 -2.04851 0
M  V30 3076 C 282.75 1.41981 -0.936767 0
M  V30 3077 O 283.935 1.52071 -1.20781 0
M  V30 3078 C 281.065 2.44144 -2.47004 0
M  V30 3079 C 280.019 2.28643 -3.6181 0
M  V30 3080 C 279.345 3.65869 -3.89929 0
M  V30 3081 C 280.645 1.72986 -4.92822 0
M  V30 3082 H 282.339 0.724979 -2.9049 0
M  V30 3083 H 279.885 0.34729 -1.39749 0
M  V30 3084 H 281.838 3.15914 -2.78884 0
M  V30 3085 H 280.562 2.85639 -1.5836 0
M  V30 3086 H 279.221 1.59318 -3.30172 0
M  V30 3087 H 278.869 4.04885 -2.98458 0
M  V30 3088 H 278.569 3.56344 -4.67218 0
M  V30 3089 H 280.093 4.39112 -4.2428 0
M  V30 3090 H 281.507 2.34593 -5.23105 0
M  V30 3091 H 279.904 1.74229 -5.74251 0
M  V30 3092 H 280.974 0.689007 -4.7998 0
M  V30 3093 N 282.317 1.53212 0.369288 0
M  V30 3094 C 283.565 1.68881 1.11012 0
M  V30 3095 C 283.886 0.441285 1.89941 0
M  V30 3096 O 283.156 -0.544623 1.88177 0
M  V30 3097 H 281.736 0.622569 0.412816 0
M  V30 3098 H 284.398 1.90391 0.416802 0
M  V30 3099 H 283.494 2.54822 1.80201 0
M  V30 3100 N 283.795 -0.628877 1.44509 0
M  V30 3101 C 285.023 -1.41554 1.50897 0
M  V30 3102 C 285.438 -1.8832 0.134564 0
M  V30 3103 O 284.795 -1.60969 -0.859965 0
M  V30 3104 C 284.846 -2.63435 2.47556 0
M  V30 3105 O 284.567 -2.18619 3.79654 0
M  V30 3106 C 286.068 -3.56537 2.63431 0
M  V30 3107 H 283.288 -0.434044 0.511709 0
M  V30 3108 H 285.832 -0.768895 1.89495 0
M  V30 3109 H 283.987 -3.24187 2.12089 0
M  V30 3110 H 284.401 -2.97652 4.31861 0
M  V30 3111 H 285.875 -4.38657 3.35088 0
M  V30 3112 H 286.352 -4.05493 1.68738 0
M  V30 3113 H 286.958 -3.01653 2.9981 0
M  V30 3114 N 285.273 -1.31445 -0.869486 0
M  V30 3115 C 286.519 -1.22347 -1.62489 0
M  V30 3116 C 286.874 0.216204 -1.91181 0
M  V30 3117 O 286.167 1.14977 -1.53268 0
M  V30 3118 C 286.361 -2.00145 -2.96102 0
M  V30 3119 C 286.19 -3.51531 -2.80456 0
M  V30 3120 C 284.96 -4.20882 -2.79618 0
M  V30 3121 C 287.158 -4.46471 -2.5528 0
M  V30 3122 N 285.14 -5.58421 -2.55027 0
M  V30 3123 C 286.511 -5.71682 -2.39957 0
M  V30 3124 C 288.566 -4.35892 -2.40629 0
M  V30 3125 C 287.269 -6.87511 -2.11472 0
M  V30 3126 C 289.295 -5.51505 -2.13532 0
M  V30 3127 C 288.657 -6.75707 -1.98998 0
M  V30 3128 H 284.756 -0.502815 -0.598917 0
M  V30 3129 H 287.34 -1.65639 -1.02332 0
M  V30 3130 H 285.511 -1.59221 -3.54264 0
M  V30 3131 H 287.243 -1.83063 -3.60929 0
M  V30 3132 H 283.998 -3.72857 -2.92018 0
M  V30 3133 H 284.422 -6.30841 -2.45701 0
M  V30 3134 H 289.064 -3.40533 -2.50593 0
M  V30 3135 H 286.782 -7.82897 -2.00245 0
M  V30 3136 H 290.368 -5.45238 -2.02995 0
M  V30 3137 H 289.248 -7.63655 -1.78326 0
M  V30 3138 N 286.751 1.08385 -1.14413 0
M  V30 3139 C 287.979 1.84517 -0.936001 0
M  V30 3140 C 288.394 1.81626 0.515503 0
M  V30 3141 O 287.751 1.22008 1.35721 0
M  V30 3142 C 287.802 3.32049 -1.42918 0
M  V30 3143 O 287.523 3.34951 -2.82381 0
M  V30 3144 C 289.024 4.24986 -1.26103 0
M  V30 3145 H 286.244 0.582491 -0.333084 0
M  V30 3146 H 288.788 1.36885 -1.5193 0
M  V30 3147 H 286.943 3.7707 -0.888641 0
M  V30 3148 H 287.357 4.27048 -3.04517 0
M  V30 3149 H 288.831 5.26615 -1.6547 0
M  V30 3150 H 289.308 4.38726 -0.20392 0
M  V30 3151 H 289.914 3.85791 -1.79012 0
M  V30 3152 N 288.23 0.939286 1.26551 0
M  V30 3153 C 289.46 0.601663 1.97645 0
M  V30 3154 C 289.868 -0.827206 1.70159 0
M  V30 3155 O 289.211 -1.56291 0.965338 0
M  V30 3156 C 289.273 0.761725 3.51337 0
M  V30 3157 C 288.937 2.16487 4.0247 0
M  V30 3158 C 289.934 3.14016 4.14355 0
M  V30 3159 C 287.619 2.48494 4.36527 0
M  V30 3160 C 289.613 4.41654 4.59587 0
M  V30 3161 C 287.3 3.76364 4.81449 0
M  V30 3162 C 288.298 4.72758 4.92939 0
M  V30 3163 O 287.986 5.98352 5.36871 0
M  V30 3164 H 287.718 0.225758 0.637189 0
M  V30 3165 H 290.272 1.26178 1.62075 0
M  V30 3166 H 288.502 0.0444808 3.86674 0
M  V30 3167 H 290.191 0.427442 4.03643 0
M  V30 3168 H 290.957 2.90613 3.8829 0
M  V30 3169 H 286.836 1.74202 4.26819 0
M  V30 3170 H 290.38 5.16896 4.68471 0
M  V30 3171 H 286.277 3.99582 5.06956 0
M  V30 3172 H 287.045 6.01507 5.55096 0
M  V30 3173 N 289.708 -1.40897 0.706093 0
M  V30 3174 C 290.985 -1.94868 0.169099 0
M  V30 3175 C 291.365 -1.64485 -1.32318 0
M  V30 3176 O 290.713 -0.95744 -2.07474 0
M  V30 3177 C 290.923 -3.45798 0.471654 0
M  V30 3178 C 292.271 -4.22663 0.405127 0
M  V30 3179 O 293.295 -3.53865 0.407168 0
M  V30 3180 O 292.154 -5.45216 0.374383 0
M  V30 3181 H 289.248 -0.82673 0.0211352 0
M  V30 3182 H 291.794 -1.50558 0.782976 0
M  V30 3183 H 290.566 -3.61235 1.50416 0
M  V30 3184 H 290.189 -3.97225 -0.172666 0
M  V30 3185 N 291.186 -0.45159 -1.50991 0
M  V30 3186 C 292.434 0.109857 -2.01801 0
M  V30 3187 C 292.755 1.41958 -1.3369 0
M  V30 3188 O 292.025 1.9003 -0.475951 0
M  V30 3189 H 290.605 0.0435884 -0.745727 0
M  V30 3190 H 293.267 -0.597557 -1.85514 0
M  V30 3191 H 292.363 0.275489 -3.10882 0
M  V30 3192 N 292.664 1.56529 -0.183458 0
M  V30 3193 C 293.889 2.02064 0.467428 0
M  V30 3194 C 294.314 1.06282 1.55196 0
M  V30 3195 O 293.672 0.0443565 1.81246 0
M  V30 3196 C 293.72 3.46122 1.01153 0
M  V30 3197 O 292.824 3.53437 2.12499 0
M  V30 3198 H 292.165 0.654726 0.110588 0
M  V30 3199 H 294.695 2.02521 -0.290917 0
M  V30 3200 H 294.705 3.85676 1.33108 0
M  V30 3201 H 293.38 4.15331 0.217533 0
M  V30 3202 H 291.957 3.2575 1.81497 0
M  V30 3203 N 294.142 -0.090211 1.57342 0
M  V30 3204 C 295.388 -0.793982 1.86611 0
M  V30 3205 C 295.721 -1.78142 0.773252 0
M  V30 3206 O 294.996 -1.93271 -0.218304 0
M  V30 3207 C 295.279 -1.51839 3.26523 0
M  V30 3208 C 295.132 -0.548609 4.46442 0
M  V30 3209 C 296.451 -2.46779 3.64401 0
M  V30 3210 H 293.57 -0.287186 0.678744 0
M  V30 3211 H 296.212 -0.0575076 1.89913 0
M  V30 3212 H 294.362 -2.14617 3.23839 0
M  V30 3213 H 296.034 0.0725513 4.61243 0
M  V30 3214 H 294.277 0.137614 4.33582 0
M  V30 3215 H 294.948 -1.09271 5.41076 0
M  V30 3216 H 297.424 -1.94089 3.68061 0
M  V30 3217 H 296.3 -2.94479 4.63221 0
M  V30 3218 H 296.561 -3.30758 2.93346 0
M  V30 3219 N 295.62 -1.53406 -0.361157 0
M  V30 3220 C 296.866 -1.70054 -1.10496 0
M  V30 3221 C 297.199 -0.453278 -1.88836 0
M  V30 3222 O 296.474 0.5495 -1.86576 0
M  V30 3223 C 296.757 -2.95317 -2.06058 0
M  V30 3224 C 296.61 -4.3021 -1.31298 0
M  V30 3225 C 297.929 -3.16193 -3.06121 0
M  V30 3226 H 295.048 -0.618799 -0.400321 0
M  V30 3227 H 297.69 -1.86052 -0.385318 0
M  V30 3228 H 295.84 -2.81809 -2.67425 0
M  V30 3229 H 297.512 -4.55538 -0.726807 0
M  V30 3230 H 295.755 -4.29421 -0.614853 0
M  V30 3231 H 296.426 -5.14 -2.01265 0
M  V30 3232 H 298.902 -3.28916 -2.5486 0
M  V30 3233 H 297.778 -4.05266 -3.70204 0
M  V30 3234 H 298.039 -2.31676 -3.76535 0
M  V30 3235 N 297.098 0.621204 -1.44841 0
M  V30 3236 C 298.061 1.71459 -1.521 0
M  V30 3237 C 299.061 1.55696 -0.401933 0
M  V30 3238 O 300.251 1.61011 -0.664925 0
M  V30 3239 C 297.383 3.10624 -1.40447 0
M  V30 3240 H 298.576 1.66394 -2.49506 0
M  V30 3241 H 296.129 0.835745 -1.3208 0
M  V30 3242 H 296.864 3.21277 -0.441737 0
M  V30 3243 H 296.649 3.23473 -2.21602 0
M  V30 3244 H 298.139 3.90293 -1.4853 0
M  V30 3245 N 298.576 1.31904 0.862503 0
M  V30 3246 C 299.825 1.21373 1.61094 0
M  V30 3247 C 300.138 -0.22504 1.94301 0
M  V30 3248 O 301.344 -0.452121 2.67709 0
M  V30 3249 C 299.8 2.12525 2.9045 0
M  V30 3250 C 299.408 3.61441 2.64697 0
M  V30 3251 C 301.152 2.10813 3.68454 0
M  V30 3252 C 299.059 4.44578 3.90006 0
M  V30 3253 H 297.989 0.450705 0.604468 0
M  V30 3254 H 300.64 1.56811 0.953027 0
M  V30 3255 H 299.022 1.69994 3.57656 0
M  V30 3256 H 300.196 4.12264 2.05851 0
M  V30 3257 H 298.511 3.65205 2.00036 0
M  V30 3258 H 301.108 2.70167 4.61426 0
M  V30 3259 H 301.451 1.09713 4.01583 0
M  V30 3260 H 301.984 2.51583 3.08141 0
M  V30 3261 H 298.723 5.46461 3.62023 0
M  V30 3262 H 298.243 3.98508 4.48276 0
M  V30 3263 H 299.922 4.57176 4.5782 0
M  V30 3264 N 300.054 -1.07777 1.14986 0
M  V30 3265 C 301.002 -2.16964 0.838406 0
M  V30 3266 C 301.996 -1.68372 -0.186386 0
M  V30 3267 O 303.202 -1.79951 -0.0418465 0
M  V30 3268 H 299.577 -0.708006 0.253439 0
M  V30 3269 H 301.548 -2.40454 1.76704 0
M  V30 3270 C 300.297 -3.4604 0.339335 0
M  V30 3271 H 299.62 -3.83813 1.11927 0
M  V30 3272 H 301.06 -4.23698 0.160021 0
M  V30 3273 C 299.519 -3.23569 -0.938325 0
M  V30 3274 O 300.049 -3.47752 -2.01077 0
M  V30 3275 N 298.255 -2.77079 -0.876117 0
M  V30 3276 H 297.802 -2.576 -0.00322037 0
M  V30 3277 H 297.76 -2.62422 -1.73153 0
M  V30 3278 N 301.532 -0.945985 -1.26051 0
M  V30 3279 C 302.943 -0.638096 -1.75457 0
M  V30 3280 C 303.294 0.846672 -1.76991 0
M  V30 3281 O 302.419 1.66262 -1.38513 0
M  V30 3282 C 303.014 -1.15157 -3.18629 0
M  V30 3283 C 301.573 -0.894004 -3.65629 0
M  V30 3284 C 300.72 -1.29967 -2.44957 0
M  V30 3285 H 303.671 -1.12376 -1.1206 0
M  V30 3286 H 303.692 -0.507615 -3.77099 0
M  V30 3287 H 303.204 -2.23222 -3.1748 0
M  V30 3288 H 301.305 0.172057 -3.72203 0
M  V30 3289 H 301.418 -1.52439 -4.54202 0
M  V30 3290 H 299.782 -0.718078 -2.44368 0
M  V30 3291 H 300.565 -2.38935 -2.46505 0
M  V30 3292 N 303.011 1.40521 -0.713556 0
M  V30 3293 C 303.921 2.34522 -0.0606667 0
M  V30 3294 C 304.937 1.57193 0.74607 0
M  V30 3295 O 306.113 1.89591 0.679493 0
M  V30 3296 C 303.178 3.36081 0.851491 0
M  V30 3297 C 302.239 4.29286 0.0349339 0
M  V30 3298 C 301.472 5.25994 0.903649 0
M  V30 3299 O 301.695 5.28616 2.14292 0
M  V30 3300 O 300.629 6.00918 0.343723 0
M  V30 3301 H 304.455 2.91968 -0.835972 0
M  V30 3302 H 302.04 1.41681 -0.47402 0
M  V30 3303 H 303.922 3.98369 1.37404 0
M  V30 3304 H 302.597 2.81052 1.60598 0
M  V30 3305 H 301.504 3.70289 -0.532633 0
M  V30 3306 H 302.837 4.87462 -0.681287 0
M  V30 3307 N 304.489 0.459591 1.5075 0
M  V30 3308 C 305.714 -0.0996819 2.0716 0
M  V30 3309 C 306.139 -1.33761 1.32249 0
M  V30 3310 O 305.497 -1.77551 0.366786 0
M  V30 3311 C 305.545 -0.378226 3.58611 0
M  V30 3312 O 304.649 -1.46081 3.85661 0
M  V30 3313 H 303.99 0.00791392 0.663953 0
M  V30 3314 H 306.52 0.647329 1.9409 0
M  V30 3315 H 306.53 -0.622135 4.03229 0
M  V30 3316 H 305.205 0.526439 4.12555 0
M  V30 3317 H 303.782 -1.20511 3.5289 0
M  V30 3318 N 305.967 -1.56429 0.191757 0
M  V30 3319 C 307.244 -1.89224 -0.495332 0
M  V30 3320 C 307.624 -1.10478 -1.79883 0
M  V30 3321 O 306.972 -0.204852 -2.2758 0
M  V30 3322 C 307.182 -3.41548 -0.717367 0
M  V30 3323 C 308.53 -4.11711 -1.03823 0
M  V30 3324 O 309.554 -3.4698 -0.805204 0
M  V30 3325 O 308.413 -5.2611 -1.47887 0
M  V30 3326 H 305.507 -0.785788 -0.25781 0
M  V30 3327 H 308.053 -1.68111 0.231721 0
M  V30 3328 H 306.825 -3.90772 0.203287 0
M  V30 3329 H 306.448 -3.68342 -1.497 0
M  V30 3330 N 307.445 0.0818655 -1.57387 0
M  V30 3331 C 308.377 1.12484 -1.997 0
M  V30 3332 C 309.39 1.35564 -0.90146 0
M  V30 3333 O 310.579 1.33982 -1.17945 0
M  V30 3334 C 307.679 2.47778 -2.31213 0
M  V30 3335 C 306.852 2.44793 -3.62485 0
M  V30 3336 C 305.911 3.62117 -3.81782 0
M  V30 3337 O 304.937 3.44005 -4.53486 0
M  V30 3338 N 306.139 4.82094 -3.23367 0
M  V30 3339 H 308.904 0.764585 -2.89783 0
M  V30 3340 H 306.465 0.270664 -1.59621 0
M  V30 3341 H 308.457 3.24891 -2.41304 0
M  V30 3342 H 307.027 2.75843 -1.4707 0
M  V30 3343 H 306.247 1.53134 -3.6324 0
M  V30 3344 H 307.535 2.39889 -4.48699 0
M  V30 3345 H 306.933 4.99713 -2.65148 0
M  V30 3346 H 305.49 5.56753 -3.38923 0
M  V30 3347 N 308.923 1.53595 0.353017 0
M  V30 3348 C 310.334 1.61937 0.929153 0
M  V30 3349 C 310.685 0.494686 1.89861 0
M  V30 3350 O 309.81 -0.377017 2.1309 0
M  V30 3351 C 310.405 2.93526 1.69199 0
M  V30 3352 C 308.964 3.04161 2.21727 0
M  V30 3353 C 308.111 2.57322 1.03348 0
M  V30 3354 H 311.062 1.58155 0.131431 0
M  V30 3355 H 311.083 2.82034 2.55416 0
M  V30 3356 H 310.595 3.75362 0.986144 0
M  V30 3357 H 308.696 2.26938 2.95516 0
M  V30 3358 H 308.809 4.09465 2.48748 0
M  V30 3359 H 307.173 2.12499 1.40414 0
M  V30 3360 H 307.956 3.41588 0.342428 0
M  V30 3361 N 310.401 -0.613514 1.45168 0
M  V30 3362 C 311.678 -1.37263 1.39349 0
M  V30 3363 C 312.058 -2.11012 0.0610848 0
M  V30 3364 O 311.406 -2.07502 -0.956825 0
M  V30 3365 C 311.616 -2.3244 2.60332 0
M  V30 3366 C 312.964 -2.9523 3.05163 0
M  V30 3367 O 313.988 -2.42762 2.60663 0
M  V30 3368 O 312.847 -3.90454 3.82372 0
M  V30 3369 H 309.941 -0.615188 0.552696 0
M  V30 3370 H 312.487 -0.637097 1.57287 0
M  V30 3371 H 311.259 -1.77164 3.48896 0
M  V30 3372 H 310.882 -3.13383 2.44698 0
M  V30 3373 N 311.879 -1.3236 -0.855495 0
M  V30 3374 C 312.809 -1.23833 -1.97958 0
M  V30 3375 C 313.79 -0.122361 -1.69659 0
M  V30 3376 O 314.975 -0.30939 -1.9172 0
M  V30 3377 C 312.105 -0.959772 -3.33775 0
M  V30 3378 C 311.059 -2.03689 -3.76424 0
M  V30 3379 C 310.385 -1.61075 -5.09862 0
M  V30 3380 C 311.685 -3.4518 -3.9198 0
M  V30 3381 H 313.379 -2.1788 -2.0535 0
M  V30 3382 H 310.925 -1.04891 -0.986605 0
M  V30 3383 H 312.878 -0.886678 -4.11966 0
M  V30 3384 H 311.602 0.0163404 -3.26596 0
M  V30 3385 H 310.261 -2.10012 -3.00484 0
M  V30 3386 H 309.909 -0.622107 -4.99138 0
M  V30 3387 H 309.609 -2.33143 -5.39368 0
M  V30 3388 H 311.133 -1.55201 -5.90546 0
M  V30 3389 H 312.547 -3.4145 -4.60526 0
M  V30 3390 H 310.944 -4.1559 -4.32903 0
M  V30 3391 H 312.014 -3.84903 -2.94919 0
M  V30 3392 N 313.357 1.07166 -1.15556 0
M  V30 3393 C 314.582 1.84053 -0.955988 0
M  V30 3394 C 315.007 1.81586 0.490739 0
M  V30 3395 O 314.365 1.21018 1.34997 0
M  V30 3396 C 314.413 3.28957 -1.47714 0
M  V30 3397 O 313.517 4.06795 -0.677593 0
M  V30 3398 H 312.858 0.569842 -0.340847 0
M  V30 3399 H 315.388 1.35178 -1.53584 0
M  V30 3400 H 315.398 3.79788 -1.4908 0
M  V30 3401 H 314.073 3.30068 -2.53037 0
M  V30 3402 H 312.65 3.6561 -0.733721 0
M  V30 3403 N 314.835 0.952656 1.25548 0
M  V30 3404 C 315.783 0.462354 2.27958 0
M  V30 3405 C 316.777 -0.46634 1.62855 0
M  V30 3406 O 317.983 -0.343287 1.76696 0
M  V30 3407 H 314.358 0.13101 0.7405 0
M  V30 3408 H 316.329 1.33839 2.66702 0
M  V30 3409 C 315.078 -0.24628 3.46827 0
M  V30 3410 H 314.401 0.459192 3.97154 0
M  V30 3411 H 315.841 -0.553393 4.20373 0
M  V30 3412 C 314.3 -1.4681 3.0323 0
M  V30 3413 O 314.83 -2.56591 3.09069 0
M  V30 3414 N 313.036 -1.32874 2.58443 0
M  V30 3415 H 312.583 -0.435536 2.53891 0
M  V30 3416 H 312.541 -2.14742 2.29637 0
M  V30 3417 N 316.313 -1.40141 0.720998 0
M  V30 3418 C 317.56 -2.00787 0.262842 0
M  V30 3419 C 317.888 -1.5718 -1.14563 0
M  V30 3420 O 317.143 -0.785391 -1.79249 0
M  V30 3421 C 317.442 -3.56165 0.296892 0
M  V30 3422 C 317.108 -4.19373 1.65641 0
M  V30 3423 C 315.77 -4.36352 2.02855 0
M  V30 3424 C 318.122 -4.54578 2.54968 0
M  V30 3425 C 315.45 -4.8582 3.28931 0
M  V30 3426 C 317.802 -5.05447 3.80402 0
M  V30 3427 C 316.466 -5.20635 4.17726 0
M  V30 3428 H 315.736 -0.734731 0.0961807 0
M  V30 3429 H 318.383 -1.67673 0.925093 0
M  V30 3430 H 316.688 -3.8922 -0.448932 0
M  V30 3431 H 318.385 -4.00929 -0.0755208 0
M  V30 3432 H 314.975 -4.06549 1.35704 0
M  V30 3433 H 319.159 -4.41091 2.27491 0
M  V30 3434 H 314.415 -4.95764 3.57811 0
M  V30 3435 H 318.589 -5.31663 4.49786 0
M  V30 3436 H 316.216 -5.58728 5.15487 0
M  V30 3437 N 317.792 -0.46758 -1.50504 0
M  V30 3438 C 318.725 0.374324 -2.25109 0
M  V30 3439 C 319.703 0.99921 -1.28275 0
M  V30 3440 O 320.887 1.03583 -1.57489 0
M  V30 3441 C 318.014 1.52419 -3.02467 0
M  V30 3442 C 317.06 1.01702 -4.14197 0
M  V30 3443 S 317.893 -0.0654477 -5.3546 0
M  V30 3444 C 319.049 1.08837 -6.16365 0
M  V30 3445 H 319.282 -0.258983 -2.9617 0
M  V30 3446 H 316.815 -0.252421 -1.52323 0
M  V30 3447 H 318.773 2.18322 -3.47628 0
M  V30 3448 H 317.434 2.129 -2.30938 0
M  V30 3449 H 316.627 1.87776 -4.67714 0
M  V30 3450 H 316.229 0.435757 -3.71453 0
M  V30 3451 H 318.521 2.00071 -6.47285 0
M  V30 3452 H 319.464 0.592538 -7.05616 0
M  V30 3453 H 319.872 1.34061 -5.4835 0
M  V30 3454 N 319.27 1.56325 -0.20005 0
M  V30 3455 C 320.18 2.22931 0.730668 0
M  V30 3456 C 321.196 1.22997 1.23076 0
M  V30 3457 O 322.372 1.55748 1.27689 0
M  V30 3458 C 319.437 2.87948 1.93098 0
M  V30 3459 C 318.498 4.03166 1.47497 0
M  V30 3460 C 317.731 4.65073 2.61807 0
M  V30 3461 O 317.954 4.25913 3.79413 0
M  V30 3462 O 316.888 5.54452 2.34237 0
M  V30 3463 H 320.714 3.03084 0.193391 0
M  V30 3464 H 318.299 1.49371 0.0294621 0
M  V30 3465 H 320.181 3.29063 2.6324 0
M  V30 3466 H 318.856 2.10771 2.45677 0
M  V30 3467 H 317.763 3.66664 0.742201 0
M  V30 3468 H 319.096 4.82022 0.995796 0
M  V30 3469 N 320.748 -0.0735177 1.57428 0
M  V30 3470 C 321.973 -0.789787 1.91774 0
M  V30 3471 C 322.398 -1.70413 0.796306 0
M  V30 3472 O 321.756 -1.79555 -0.250961 0
M  V30 3473 C 321.804 -1.5609 3.25067 0
M  V30 3474 O 320.908 -2.67144 3.14178 0
M  V30 3475 H 320.249 -0.215582 0.628029 0
M  V30 3476 H 322.779 -0.0422781 2.04556 0
M  V30 3477 H 322.789 -1.94052 3.58898 0
M  V30 3478 H 321.464 -0.890015 4.06265 0
M  V30 3479 H 320.041 -2.32052 2.91901 0
M  V30 3480 N 322.226 -1.5378 -0.344866 0
M  V30 3481 C 323.474 -1.70625 -1.08311 0
M  V30 3482 C 323.795 -0.471447 -1.89215 0
M  V30 3483 O 323.065 0.514616 -1.8902 0
M  V30 3484 H 321.645 -0.629058 -0.402859 0
M  V30 3485 H 324.307 -1.9103 -0.386459 0
M  V30 3486 H 323.403 -2.57656 -1.76124 0
M  V30 3487 N 323.704 0.605807 -1.45491 0
M  V30 3488 C 324.614 1.74466 -1.56839 0
M  V30 3489 C 325.63 1.68006 -0.452772 0
M  V30 3490 O 326.806 1.8833 -0.713708 0
M  V30 3491 C 323.871 3.10931 -1.53371 0
M  V30 3492 C 322.932 3.28832 -2.75986 0
M  V30 3493 C 322.165 4.58787 -2.72673 0
M  V30 3494 O 322.388 5.4122 -1.80102 0
M  V30 3495 O 321.322 4.79438 -3.63899 0
M  V30 3496 H 325.148 1.67843 -2.53106 0
M  V30 3497 H 322.733 0.770108 -1.28022 0
M  V30 3498 H 324.615 3.92233 -1.54051 0
M  V30 3499 H 323.29 3.18042 -0.602572 0
M  V30 3500 H 322.197 2.47112 -2.80867 0
M  V30 3501 H 323.53 3.26599 -3.68231 0
M  V30 3502 N 325.182 1.32811 0.848464 0
M  V30 3503 C 326.428 1.24917 1.60522 0
M  V30 3504 C 326.783 -0.185761 1.91501 0
M  V30 3505 O 326.076 -1.12524 1.55077 0
M  V30 3506 C 326.27 2.04831 2.92881 0
M  V30 3507 C 326.099 3.55949 2.74828 0
M  V30 3508 C 324.869 4.25277 2.72887 0
M  V30 3509 C 327.067 4.50476 2.48145 0
M  V30 3510 N 325.049 5.62408 2.46111 0
M  V30 3511 C 326.42 5.75427 2.30832 0
M  V30 3512 C 328.475 4.39665 2.33664 0
M  V30 3513 C 327.178 6.90789 2.00508 0
M  V30 3514 C 329.204 5.54833 2.04731 0
M  V30 3515 C 328.566 6.78787 1.88223 0
M  V30 3516 H 324.665 0.512279 0.590842 0
M  V30 3517 H 327.249 1.67246 0.996839 0
M  V30 3518 H 325.42 1.64837 3.51686 0
M  V30 3519 H 327.152 1.88782 3.57971 0
M  V30 3520 H 323.907 3.77456 2.86049 0
M  V30 3521 H 324.331 6.3467 2.35634 0
M  V30 3522 H 328.973 3.44477 2.45144 0
M  V30 3523 H 326.691 7.85984 1.87765 0
M  V30 3524 H 330.277 5.48398 1.94295 0
M  V30 3525 H 329.157 7.66396 1.66155 0
M  V30 3526 N 326.66 -1.06551 1.16123 0
M  V30 3527 C 327.906 -1.79567 0.94252 0
M  V30 3528 C 328.239 -1.86869 -0.528547 0
M  V30 3529 O 327.514 -1.35838 -1.39206 0
M  V30 3530 C 327.797 -3.24195 1.56747 0
M  V30 3531 C 327.65 -3.24989 3.10969 0
M  V30 3532 C 328.969 -4.21678 1.25998 0
M  V30 3533 H 326.088 -0.651883 0.343828 0
M  V30 3534 H 328.73 -1.2463 1.43413 0
M  V30 3535 H 326.88 -3.71107 1.14942 0
M  V30 3536 H 328.552 -2.86258 3.61737 0
M  V30 3537 H 326.795 -2.63716 3.44436 0
M  V30 3538 H 327.466 -4.27005 3.49815 0
M  V30 3539 H 329.942 -3.83196 1.62174 0
M  V30 3540 H 328.818 -5.21146 1.7233 0
M  V30 3541 H 329.079 -4.4174 0.178367 0
M  V30 3542 N 328.138 -0.959301 -1.25041 0
M  V30 3543 C 329.387 -0.612254 -1.92183 0
M  V30 3544 C 329.7 0.855347 -1.75907 0
M  V30 3545 O 330.906 1.31256 -2.37664 0
M  V30 3546 C 329.362 -1.04435 -3.44414 0
M  V30 3547 C 328.97 -2.53482 -3.69393 0
M  V30 3548 C 330.714 -0.770055 -4.17457 0
M  V30 3549 C 328.621 -2.90468 -5.15153 0
M  V30 3550 H 327.551 -0.225279 -0.719559 0
M  V30 3551 H 330.202 -1.16438 -1.41825 0
M  V30 3552 H 328.584 -0.4206 -3.9376 0
M  V30 3553 H 329.758 -3.20916 -3.30681 0
M  V30 3554 H 328.073 -2.78432 -3.0962 0
M  V30 3555 H 330.67 -1.02249 -5.24832 0
M  V30 3556 H 331.013 0.293611 -4.15263 0
M  V30 3557 H 331.546 -1.35437 -3.74034 0
M  V30 3558 H 328.285 -3.95871 -5.22462 0
M  V30 3559 H 327.805 -2.27711 -5.54894 0
M  V30 3560 H 329.484 -2.79914 -5.83315 0
M  V30 3561 N 329.616 1.39756 -0.72842 0
M  V30 3562 C 330.563 2.30647 -0.0841519 0
M  V30 3563 C 331.533 1.48869 0.7367 0
M  V30 3564 O 332.718 1.77574 0.698015 0
M  V30 3565 C 329.858 3.35165 0.822091 0
M  V30 3566 C 328.971 4.31999 -0.0106663 0
M  V30 3567 C 328.106 5.23585 0.896241 0
M  V30 3568 C 327.145 6.12072 0.0583381 0
M  V30 3569 N 326.282 6.96035 0.920818 0
M  V30 3570 H 331.122 2.85173 -0.864891 0
M  V30 3571 H 328.659 1.40422 -0.438179 0
M  V30 3572 H 330.617 3.94345 1.36189 0
M  V30 3573 H 329.247 2.8211 1.56888 0
M  V30 3574 H 328.299 3.74492 -0.66781 0
M  V30 3575 H 329.611 4.9443 -0.658825 0
M  V30 3576 H 328.765 5.87759 1.50412 0
M  V30 3577 H 327.504 4.61459 1.57819 0
M  V30 3578 H 326.509 5.46916 -0.562389 0
M  V30 3579 H 327.734 6.76261 -0.6203 0
M  V30 3580 H 325.68 6.36485 1.58818 0
M  V30 3581 H 325.597 7.55284 0.32899 0
M  V30 3582 H 326.865 7.64646 1.51447 0
M  V30 3583 N 331.094 0.475555 1.50254 0
M  V30 3584 C 332.004 -0.321501 2.32387 0
M  V30 3585 C 333.02 -0.991755 1.42969 0
M  V30 3586 O 334.196 -0.978747 1.76018 0
M  V30 3587 C 331.261 -1.38667 3.17762 0
M  V30 3588 C 330.322 -0.732538 4.23004 0
M  V30 3589 C 329.555 -1.74695 5.04299 0
M  V30 3590 O 329.778 -2.97399 4.86734 0
M  V30 3591 O 328.712 -1.31631 5.8733 0
M  V30 3592 H 332.538 0.350071 3.01676 0
M  V30 3593 H 330.123 0.237321 1.47503 0
M  V30 3594 H 332.005 -2.00354 3.70724 0
M  V30 3595 H 330.68 -2.04163 2.51196 0
M  V30 3596 H 329.587 -0.0765902 3.74022 0
M  V30 3597 H 330.92 -0.120452 4.92053 0
M  V30 3598 N 332.573 -1.56217 0.208337 0
M  V30 3599 C 333.798 -2.02782 -0.435222 0
M  V30 3600 C 334.223 -1.08738 -1.53485 0
M  V30 3601 O 333.581 -0.0731855 -1.81152 0
M  V30 3602 C 333.629 -3.47687 -0.956335 0
M  V30 3603 O 332.733 -3.56773 -2.06849 0
M  V30 3604 H 332.074 -0.656403 -0.100158 0
M  V30 3605 H 334.604 -2.02033 0.3231 0
M  V30 3606 H 334.614 -3.87745 -1.26955 0
M  V30 3607 H 333.289 -4.15624 -0.15143 0
M  V30 3608 H 331.866 -3.28597 -1.76292 0
M  V30 3609 N 334.051 0.0651679 -1.57465 0
M  V30 3610 C 335.467 0.420105 -1.53972 0
M  V30 3611 C 335.667 1.78782 -0.929474 0
M  V30 3612 O 334.723 2.46771 -0.534839 0
M  V30 3613 C 336.036 0.355084 -2.98596 0
M  V30 3614 C 337.584 0.434792 -3.09965 0
M  V30 3615 C 338.059 0.399609 -4.56253 0
M  V30 3616 N 339.55 0.459488 -4.60915 0
M  V30 3617 C 340.285 0.454584 -5.71595 0
M  V30 3618 N 339.781 0.404102 -6.9162 0
M  V30 3619 N 341.574 0.501635 -5.59857 0
M  V30 3620 H 333.725 -0.830328 -1.95498 0
M  V30 3621 H 335.988 -0.312244 -0.895102 0
M  V30 3622 H 335.694 -0.583357 -3.46828 0
M  V30 3623 H 335.568 1.16275 -3.58831 0
M  V30 3624 H 337.955 1.36366 -2.61703 0
M  V30 3625 H 338.036 -0.40157 -2.52628 0
M  V30 3626 H 337.68 -0.525436 -5.05175 0
M  V30 3627 H 337.61 1.25359 -5.11461 0
M  V30 3628 H 340.101 0.502482 -3.74544 0
M  V30 3629 H 340.414 0.404468 -7.71741 0
M  V30 3630 H 338.759 0.37069 -6.94011 0
M  V30 3631 H 341.95 0.538812 -4.64989 0
M  V30 3632 H 342.123 0.494345 -6.46112 0
M  V30 3633 N 335.529 1.53961 0.336706 0
M  V30 3634 C 336.777 1.71197 1.07405 0
M  V30 3635 C 337.098 0.481475 1.88962 0
M  V30 3636 O 336.368 -0.504585 1.8929 0
M  V30 3637 H 334.948 0.631185 0.399517 0
M  V30 3638 H 337.61 1.91232 0.376323 0
M  V30 3639 H 336.706 2.58587 1.74755 0
M  V30 3640 N 337.007 -0.598083 1.45811 0
M  V30 3641 C 338.253 -1.35679 1.51535 0
M  V30 3642 C 338.608 -1.91745 0.15864 0
M  V30 3643 O 337.901 -1.72654 -0.830724 0
M  V30 3644 C 338.095 -2.51669 2.53766 0
M  V30 3645 C 337.924 -2.06963 3.99245 0
M  V30 3646 C 336.694 -1.92693 4.67116 0
M  V30 3647 C 338.892 -1.63855 4.875 0
M  V30 3648 N 336.874 -1.41897 5.97276 0
M  V30 3649 C 338.245 -1.24541 6.07363 0
M  V30 3650 C 340.3 -1.51533 4.74281 0
M  V30 3651 C 339.003 -0.741354 7.15469 0
M  V30 3652 C 341.029 -1.0253 5.82444 0
M  V30 3653 C 340.391 -0.641869 7.01469 0
M  V30 3654 H 336.49 -0.490042 0.609412 0
M  V30 3655 H 339.074 -0.682687 1.82339 0
M  V30 3656 H 337.245 -3.16663 2.24898 0
M  V30 3657 H 338.977 -3.18578 2.4958 0
M  V30 3658 H 335.732 -2.1417 4.22408 0
M  V30 3659 H 336.156 -1.18704 6.66512 0
M  V30 3660 H 340.798 -1.798 3.82664 0
M  V30 3661 H 338.516 -0.446243 8.06867 0
M  V30 3662 H 342.102 -0.934088 5.74253 0
M  V30 3663 H 340.982 -0.268531 7.8374 0
M  V30 3664 N 338.485 -1.33259 -0.841409 0
M  V30 3665 C 339.432 -1.23302 -1.95103 0
M  V30 3666 C 340.402 -0.112204 -1.65721 0
M  V30 3667 O 341.587 -0.290038 -1.88583 0
M  V30 3668 C 338.727 -0.975583 -3.31023 0
M  V30 3669 C 337.84 -2.18243 -3.72819 0
M  V30 3670 C 336.975 -1.85936 -4.97595 0
M  V30 3671 C 336.014 -3.02866 -5.3192 0
M  V30 3672 N 335.151 -2.70565 -6.47873 0
M  V30 3673 H 339.991 -2.18207 -2.02952 0
M  V30 3674 H 337.528 -1.0851 -0.993173 0
M  V30 3675 H 339.486 -0.80677 -4.09325 0
M  V30 3676 H 338.116 -0.0632755 -3.22738 0
M  V30 3677 H 337.168 -2.46107 -2.90061 0
M  V30 3678 H 338.48 -3.05666 -3.94169 0
M  V30 3679 H 337.634 -1.65684 -5.83638 0
M  V30 3680 H 336.373 -0.957452 -4.78209 0
M  V30 3681 H 335.378 -3.23736 -4.44382 0
M  V30 3682 H 336.603 -3.93809 -5.53255 0
M  V30 3683 H 334.549 -1.8293 -6.29978 0
M  V30 3684 H 334.466 -3.51519 -6.69306 0
M  V30 3685 H 335.734 -2.53774 -7.37034 0
M  V30 3686 N 339.963 1.05934 -1.16686 0
M  V30 3687 C 340.913 2.11764 -0.844978 0
M  V30 3688 C 341.897 1.59922 0.177178 0
M  V30 3689 O 343.089 1.76983 -0.0241768 0
M  V30 3690 C 340.218 3.41493 -0.351812 0
M  V30 3691 C 339.304 4.00152 -1.40496 0
M  V30 3692 N 339.695 4.32874 -2.61636 0
M  V30 3693 C 337.993 4.278 -1.26106 0
M  V30 3694 C 338.694 4.79552 -3.29249 0
M  V30 3695 N 337.67 4.79211 -2.56628 0
M  V30 3696 H 341.472 2.34916 -1.76612 0
M  V30 3697 H 338.986 1.23511 -1.05446 0
M  V30 3698 H 340.983 4.16773 -0.102796 0
M  V30 3699 H 339.643 3.19778 0.56322 0
M  V30 3700 H 340.654 4.23109 -2.98663 0
M  V30 3701 H 337.331 4.15511 -0.407081 0
M  V30 3702 H 338.721 5.14045 -4.32675 0
M  V30 3703 N 341.441 0.965919 1.2453 0
M  V30 3704 C 342.666 0.643971 1.97149 0
M  V30 3705 C 343.091 -0.779487 1.71189 0
M  V30 3706 O 342.449 -1.5288 0.974553 0
M  V30 3707 C 342.497 0.922557 3.48599 0
M  V30 3708 O 341.601 0.00707672 4.12399 0
M  V30 3709 H 340.942 0.243647 0.617683 0
M  V30 3710 H 343.472 1.29558 1.58353 0
M  V30 3711 H 343.482 0.853373 3.98976 0
M  V30 3712 H 342.157 1.95996 3.66822 0
M  V30 3713 H 340.734 0.12943 3.72675 0
M  V30 3714 N 342.919 -1.39368 0.735821 0
M  V30 3715 C 344.165 -2.00794 0.284544 0
M  V30 3716 C 344.498 -1.58255 -1.12557 0
M  V30 3717 O 343.773 -0.811819 -1.76748 0
M  V30 3718 C 344.056 -3.58011 0.387337 0
M  V30 3719 C 343.909 -4.10566 1.83728 0
M  V30 3720 C 345.228 -4.395 -0.22975 0
M  V30 3721 H 342.347 -0.729501 0.104866 0
M  V30 3722 H 344.989 -1.65564 0.93213 0
M  V30 3723 H 343.139 -3.88154 -0.164006 0
M  V30 3724 H 344.811 -3.91139 2.44556 0
M  V30 3725 H 343.054 -3.64095 2.35833 0
M  V30 3726 H 343.725 -5.19702 1.86047 0
M  V30 3727 H 346.201 -4.15406 0.240257 0
M  V30 3728 H 345.077 -5.48752 -0.127485 0
M  V30 3729 H 345.338 -4.22062 -1.3159 0
M  V30 3730 N 344.397 -0.483516 -1.5 0
M  V30 3731 C 345.625 0.0644831 -2.06799 0
M  V30 3732 C 346.04 1.32399 -1.34596 0
M  V30 3733 O 345.397 1.77626 -0.418946 0
M  V30 3734 C 345.448 0.339927 -3.59898 0
M  V30 3735 O 345.169 -0.869635 -4.29382 0
M  V30 3736 C 346.67 0.933515 -4.33359 0
M  V30 3737 H 343.89 -0.0126333 -0.670881 0
M  V30 3738 H 346.434 -0.675864 -1.93009 0
M  V30 3739 H 344.589 1.03022 -3.7345 0
M  V30 3740 H 345.003 -0.62179 -5.20801 0
M  V30 3741 H 346.477 1.07593 -5.41413 0
M  V30 3742 H 346.954 1.92685 -3.94676 0
M  V30 3743 H 347.56 0.281221 -4.24369 0
M  V30 3744 N 345.875 1.56104 -0.216619 0
M  V30 3745 C 347.105 2.02269 0.420802 0
M  V30 3746 C 347.513 1.09575 1.5424 0
M  V30 3747 O 346.856 0.0967308 1.83445 0
M  V30 3748 C 346.918 3.44784 1.01806 0
M  V30 3749 C 346.582 4.56988 0.0325154 0
M  V30 3750 C 347.579 5.14225 -0.766055 0
M  V30 3751 C 345.264 5.02228 -0.0848092 0
M  V30 3752 C 347.258 6.15169 -1.6687 0
M  V30 3753 C 344.945 6.03011 -0.990994 0
M  V30 3754 C 345.943 6.59357 -1.78149 0
M  V30 3755 O 345.631 7.58179 -2.67245 0
M  V30 3756 H 345.363 0.667353 0.107776 0
M  V30 3757 H 347.917 2.02747 -0.329034 0
M  V30 3758 H 346.147 3.41359 1.81689 0
M  V30 3759 H 347.836 3.74626 1.56237 0
M  V30 3760 H 348.602 4.80126 -0.685836 0
M  V30 3761 H 344.481 4.58054 0.520349 0
M  V30 3762 H 348.025 6.59076 -2.28615 0
M  V30 3763 H 343.922 6.36532 -1.07225 0
M  V30 3764 H 344.69 7.75682 -2.61265 0
M  V30 3765 N 347.353 -0.0568162 1.57498 0
M  V30 3766 C 348.578 -0.769402 1.92601 0
M  V30 3767 C 349.003 -1.69559 0.814336 0
M  V30 3768 O 348.361 -1.79811 -0.231903 0
M  V30 3769 C 348.409 -1.52634 3.26704 0
M  V30 3770 O 347.513 -2.63797 3.16994 0
M  V30 3771 H 346.854 -0.208909 0.63028 0
M  V30 3772 H 349.384 -0.0205798 2.0459 0
M  V30 3773 H 349.394 -1.90234 3.60936 0
M  V30 3774 H 348.069 -0.846875 4.07186 0
M  V30 3775 H 346.646 -2.28943 2.94346 0
M  V30 3776 N 348.832 -1.54138 -0.328536 0
M  V30 3777 C 350.072 -1.73827 -1.07534 0
M  V30 3778 C 350.436 -0.498777 -1.85408 0
M  V30 3779 O 351.637 -0.572937 -2.62623 0
M  V30 3780 C 349.908 -2.97573 -1.97952 0
M  V30 3781 S 351.467 -3.38143 -2.79652 0
M  V30 3782 H 348.285 -0.611287 -0.36311 0
M  V30 3783 H 350.887 -1.92306 -0.351931 0
M  V30 3784 H 349.591 -3.85939 -1.39569 0
M  V30 3785 H 349.122 -2.81603 -2.74706 0
M  V30 3786 H 351.137 -2.93052 -4.00418 0
M  V30 3787 N 350.31 0.590341 -1.46126 0
M  V30 3788 C 351.55 1.35995 -1.52593 0
M  V30 3789 C 351.914 1.91243 -0.170368 0
M  V30 3790 O 353.115 2.68576 -0.109775 0
M  V30 3791 C 351.386 2.46465 -2.58823 0
M  V30 3792 S 352.945 3.33953 -2.84641 0
M  V30 3793 H 349.763 0.463425 -0.53922 0
M  V30 3794 H 352.365 0.67944 -1.83314 0
M  V30 3795 H 351.069 2.04256 -3.5596 0
M  V30 3796 H 350.6 3.19297 -2.2981 0
M  V30 3797 H 352.615 4.45094 -2.19331 0
M  V30 3798 N 351.788 1.33704 0.83433 0
M  V30 3799 C 353.199 1.22813 1.4062 0
M  V30 3800 C 353.55 -0.151107 1.95617 0
M  V30 3801 O 352.675 -1.05092 1.89168 0
M  V30 3802 C 353.27 2.22355 2.55624 0
M  V30 3803 C 351.829 2.1529 3.08751 0
M  V30 3804 C 350.976 2.09589 1.8157 0
M  V30 3805 H 353.927 1.45236 0.639702 0
M  V30 3806 H 353.948 1.83391 3.33389 0
M  V30 3807 H 353.46 3.22728 2.15566 0
M  V30 3808 H 351.561 1.18235 3.53343 0
M  V30 3809 H 351.674 3.06038 3.68616 0
M  V30 3810 H 350.038 1.55134 2.02004 0
M  V30 3811 H 350.821 3.11777 1.43701 0
M  V30 3812 N 353.266 -1.05314 1.17247 0
M  V30 3813 C 354.543 -1.75184 0.87005 0
M  V30 3814 C 354.923 -2.01481 -0.629965 0
M  V30 3815 O 354.271 -1.64988 -1.58086 0
M  V30 3816 C 354.481 -3.04594 1.70363 0
M  V30 3817 C 355.829 -3.78567 1.92281 0
M  V30 3818 O 356.853 -3.14461 1.67311 0
M  V30 3819 O 355.712 -4.93755 2.3424 0
M  V30 3820 H 352.806 -0.761729 0.322021 0
M  V30 3821 H 355.352 -1.11493 1.27935 0
M  V30 3822 H 354.124 -2.81201 2.72106 0
M  V30 3823 H 353.747 -3.76022 1.29202 0
M  V30 3824 N 354.744 -0.972509 -1.24016 0
M  V30 3825 C 355.972 -0.654803 -1.96265 0
M  V30 3826 C 356.387 0.776708 -1.72083 0
M  V30 3827 O 355.744 1.52171 -1.00748 0
M  V30 3828 C 355.795 -0.92592 -3.49441 0
M  V30 3829 O 355.516 -2.30116 -3.72798 0
M  V30 3830 C 357.017 -0.623068 -4.38899 0
M  V30 3831 H 354.237 -0.243907 -0.6251 0
M  V30 3832 H 356.781 -1.30175 -1.57717 0
M  V30 3833 H 354.936 -0.325108 -3.86033 0
M  V30 3834 H 355.35 -2.38483 -4.67147 0
M  V30 3835 H 356.824 -0.863189 -5.45209 0
M  V30 3836 H 357.301 0.442754 -4.36963 0
M  V30 3837 H 357.907 -1.204 -4.07902 0
M  V30 3838 N 356.222 1.38976 -0.743202 0
M  V30 3839 C 357.633 1.83123 -0.363732 0
M  V30 3840 C 357.984 1.6205 1.10609 0
M  V30 3841 O 357.109 1.11606 1.854 0
M  V30 3842 C 357.704 3.32439 -0.653408 0
M  V30 3843 C 356.263 3.74974 -0.327338 0
M  V30 3844 C 355.41 2.61878 -0.911875 0
M  V30 3845 H 358.361 1.27852 -0.940191 0
M  V30 3846 H 358.382 3.80432 0.0720031 0
M  V30 3847 H 357.894 3.47745 -1.72323 0
M  V30 3848 H 355.995 3.65252 0.736314 0
M  V30 3849 H 356.108 4.72106 -0.815631 0
M  V30 3850 H 354.472 2.52448 -0.337944 0
M  V30 3851 H 355.255 2.79987 -1.98651 0
M  V30 3852 N 357.7 0.491464 1.49741 0
M  V30 3853 C 358.93 -0.0534375 2.06531 0
M  V30 3854 C 359.338 -1.32233 1.35318 0
M  V30 3855 O 358.681 -1.78781 0.422243 0
M  V30 3856 C 358.743 -0.387034 3.57411 0
M  V30 3857 C 358.407 0.782764 4.50246 0
M  V30 3858 C 359.404 1.67059 4.92329 0
M  V30 3859 C 357.089 0.978866 4.9267 0
M  V30 3860 C 359.083 2.73874 5.75562 0
M  V30 3861 C 356.77 2.05022 5.75682 0
M  V30 3862 C 357.768 2.92851 6.17031 0
M  V30 3863 O 357.456 3.98138 6.98385 0
M  V30 3864 H 357.188 0.0129324 0.675876 0
M  V30 3865 H 359.742 0.685238 1.93633 0
M  V30 3866 H 357.972 -1.17918 3.68283 0
M  V30 3867 H 359.661 -0.869419 3.96479 0
M  V30 3868 H 360.427 1.53086 4.60206 0
M  V30 3869 H 356.306 0.304646 4.59992 0
M  V30 3870 H 359.85 3.42458 6.07757 0
M  V30 3871 H 355.747 2.18993 6.07217 0
M  V30 3872 H 356.515 3.95374 7.16674 0
M  V30 3873 N 359.178 -1.55987 0.224894 0
M  V30 3874 C 360.108 -2.23426 -0.678457 0
M  V30 3875 C 361.089 -1.20709 -1.19847 0
M  V30 3876 O 362.274 -1.49304 -1.24186 0
M  V30 3877 C 359.404 -2.91676 -1.88527 0
M  V30 3878 C 358.358 -4.00893 -1.49896 0
M  V30 3879 C 357.684 -4.56455 -2.78483 0
M  V30 3880 C 358.984 -5.17769 -0.686461 0
M  V30 3881 H 360.678 -2.99175 -0.116173 0
M  V30 3882 H 358.224 -1.43897 -0.054436 0
M  V30 3883 H 360.177 -3.37547 -2.5227 0
M  V30 3884 H 358.901 -2.1338 -2.47258 0
M  V30 3885 H 357.56 -3.55758 -0.884985 0
M  V30 3886 H 357.208 -3.74886 -3.35365 0
M  V30 3887 H 356.908 -5.30169 -2.53368 0
M  V30 3888 H 358.432 -5.05047 -3.43162 0
M  V30 3889 H 359.846 -5.60001 -1.22767 0
M  V30 3890 H 358.243 -5.97735 -0.532259 0
M  V30 3891 H 359.313 -4.83932 0.306196 0
M  V30 3892 N 360.656 0.0484629 -1.57525 0
M  V30 3893 C 361.933 0.777447 -1.79486 0
M  V30 3894 C 362.313 1.94597 -0.818251 0
M  V30 3895 O 361.661 2.28047 0.143767 0
M  V30 3896 C 361.871 1.22864 -3.26658 0
M  V30 3897 C 363.219 1.65251 -3.91123 0
M  V30 3898 O 364.243 1.32372 -3.3069 0
M  V30 3899 O 363.102 2.26207 -4.97486 0
M  V30 3900 H 360.196 0.374357 -0.737419 0
M  V30 3901 H 362.742 0.0267359 -1.69679 0
M  V30 3902 H 361.514 0.393589 -3.89316 0
M  V30 3903 H 361.137 2.03996 -3.41279 0
M  V30 3904 N 362.134 1.5431 0.320358 0
M  V30 3905 C 363.383 1.7188 1.05546 0
M  V30 3906 C 363.696 0.501143 1.89071 0
M  V30 3907 O 364.902 0.558258 2.65699 0
M  V30 3908 C 363.358 3.04025 1.92605 0
M  V30 3909 C 362.966 4.33207 1.14176 0
M  V30 3910 C 364.71 3.30959 2.65832 0
M  V30 3911 C 362.617 5.56412 2.00399 0
M  V30 3912 H 361.547 0.640547 0.397763 0
M  V30 3913 H 364.198 1.80802 0.313522 0
M  V30 3914 H 362.58 2.89019 2.7071 0
M  V30 3915 H 363.754 4.58989 0.40819 0
M  V30 3916 H 362.069 4.13062 0.526165 0
M  V30 3917 H 364.666 4.20203 3.30656 0
M  V30 3918 H 365.009 2.48979 3.33639 0
M  V30 3919 H 365.542 3.46847 1.94787 0
M  V30 3920 H 362.281 6.41004 1.37094 0
M  V30 3921 H 361.801 5.34844 2.7148 0
M  V30 3922 H 363.48 5.92938 2.58908 0
M  V30 3923 N 363.613 -0.582584 1.46437 0
M  V30 3924 C 364.841 -1.36682 1.55324 0
M  V30 3925 C 365.256 -1.87796 0.194409 0
M  V30 3926 O 364.613 -1.63623 -0.808318 0
M  V30 3927 C 364.664 -2.55426 2.55812 0
M  V30 3928 O 364.385 -2.0643 3.86417 0
M  V30 3929 C 365.886 -3.47976 2.74641 0
M  V30 3930 H 363.106 -0.417545 0.525259 0
M  V30 3931 H 365.65 -0.708219 1.91845 0
M  V30 3932 H 363.805 -3.17275 2.22295 0
M  V30 3933 H 364.219 -2.83762 4.41111 0
M  V30 3934 H 365.693 -4.27775 3.48874 0
M  V30 3935 H 366.17 -3.99919 1.81553 0
M  V30 3936 H 366.776 -2.91962 3.09255 0
M  V30 3937 N 365.091 -1.34144 -0.827227 0
M  V30 3938 C 366.321 -1.29138 -1.61267 0
M  V30 3939 C 366.729 0.137597 -1.88699 0
M  V30 3940 O 366.072 1.09379 -1.47587 0
M  V30 3941 C 366.134 -2.0097 -2.9808 0
M  V30 3942 C 365.798 -3.50242 -2.93563 0
M  V30 3943 C 366.795 -4.4523 -2.68452 0
M  V30 3944 C 364.48 -3.92592 -3.13331 0
M  V30 3945 C 366.474 -5.80542 -2.63154 0
M  V30 3946 C 364.161 -5.28005 -3.07658 0
M  V30 3947 C 365.159 -6.21792 -2.82602 0
M  V30 3948 O 364.847 -7.54723 -2.76853 0
M  V30 3949 H 364.579 -0.445851 -0.508127 0
M  V30 3950 H 367.133 -1.77263 -1.03763 0
M  V30 3951 H 365.363 -1.47451 -3.57484 0
M  V30 3952 H 367.052 -1.89309 -3.5905 0
M  V30 3953 H 367.818 -4.13832 -2.52919 0
M  V30 3954 H 363.697 -3.19994 -3.31851 0
M  V30 3955 H 367.241 -6.53717 -2.43516 0
M  V30 3956 H 363.138 -5.59023 -3.22743 0
M  V30 3957 H 363.906 -7.64409 -2.92611 0
M  V30 3958 N 366.569 1.04691 -1.17803 0
M  V30 3959 C 367.519 2.10856 -0.867391 0
M  V30 3960 C 368.503 1.601 0.160206 0
M  V30 3961 O 369.695 1.76948 -0.042947 0
M  V30 3962 C 366.824 3.411 -0.388012 0
M  V30 3963 C 365.91 3.9864 -1.44732 0
M  V30 3964 N 366.301 4.30075 -2.66212 0
M  V30 3965 C 364.599 4.26439 -1.30637 0
M  V30 3966 C 365.3 4.76033 -3.34317 0
M  V30 3967 N 364.276 4.76462 -2.61696 0
M  V30 3968 H 368.078 2.33029 -1.79094 0
M  V30 3969 H 365.592 1.22386 -1.0675 0
M  V30 3970 H 367.589 4.16641 -0.146994 0
M  V30 3971 H 366.249 3.20357 0.529271 0
M  V30 3972 H 367.26 4.19917 -3.03134 0
M  V30 3973 H 363.937 4.15056 -0.451129 0
M  V30 3974 H 365.327 5.09427 -4.38103 0
M  V30 3975 N 368.047 0.979072 1.23499 0
M  V30 3976 C 369.294 0.647219 1.91878 0
M  V30 3977 C 369.622 -0.819074 1.76413 0
M  V30 3978 O 368.877 -1.60616 1.11808 0
M  V30 3979 C 369.176 0.981932 3.43646 0
M  V30 3980 C 368.842 2.43822 3.79291 0
M  V30 3981 C 367.504 2.83622 3.88731 0
M  V30 3982 C 369.856 3.3828 3.96505 0
M  V30 3983 C 367.184 4.16897 4.12812 0
M  V30 3984 C 369.536 4.71197 4.22085 0
M  V30 3985 C 368.2 5.10758 4.29747 0
M  V30 3986 H 367.47 0.236834 0.702133 0
M  V30 3987 H 370.117 1.23268 1.46551 0
M  V30 3988 H 368.422 0.314365 3.90537 0
M  V30 3989 H 370.119 0.703395 3.94783 0
M  V30 3990 H 366.709 2.11966 3.72516 0
M  V30 3991 H 370.893 3.0871 3.88603 0
M  V30 3992 H 366.149 4.47157 4.16966 0
M  V30 3993 H 370.323 5.44348 4.34348 0
M  V30 3994 H 367.95 6.1405 4.48159 0
M  V30 3995 N 369.525 -1.3858 0.750561 0
M  V30 3996 C 370.771 -2.00481 0.305825 0
M  V30 3997 C 371.104 -1.5944 -1.10872 0
M  V30 3998 O 370.379 -0.83052 -1.75877 0
M  V30 3999 C 370.662 -3.5758 0.425287 0
M  V30 4000 C 370.515 -4.08594 1.88072 0
M  V30 4001 C 371.834 -4.39719 -0.183122 0
M  V30 4002 H 368.953 -0.728348 0.112598 0
M  V30 4003 H 371.595 -1.64566 0.949638 0
M  V30 4004 H 369.745 -3.88306 -0.122828 0
M  V30 4005 H 371.417 -3.88523 2.48691 0
M  V30 4006 H 369.66 -3.61574 2.39681 0
M  V30 4007 H 370.331 -5.177 1.91548 0
M  V30 4008 H 372.807 -4.15128 0.284303 0
M  V30 4009 H 371.683 -5.48856 -0.0692757 0
M  V30 4010 H 371.944 -4.23434 -1.27106 0
M  V30 4011 N 371.003 -0.499398 -1.49478 0
M  V30 4012 C 371.936 0.326491 -2.25852 0
M  V30 4013 C 372.914 0.971776 -1.30366 0
M  V30 4014 O 374.098 1.00219 -1.59651 0
M  V30 4015 C 371.225 1.45969 -3.05632 0
M  V30 4016 C 370.271 0.928938 -4.16261 0
M  V30 4017 S 371.104 -0.179012 -5.35201 0
M  V30 4018 C 372.26 0.957389 -6.18534 0
M  V30 4019 H 372.493 -0.321746 -2.95554 0
M  V30 4020 H 370.026 -0.284674 -1.51753 0
M  V30 4021 H 371.984 2.109 -3.52181 0
M  V30 4022 H 370.645 2.07953 -2.35402 0
M  V30 4023 H 369.838 1.77813 -4.71592 0
M  V30 4024 H 369.44 0.356869 -3.72293 0
M  V30 4025 H 371.732 1.86296 -6.51383 0
M  V30 4026 H 372.675 0.442733 -7.06715 0
M  V30 4027 H 373.083 1.224 -5.5107 0
M  V30 4028 N 372.481 1.55866 -0.233164 0
M  V30 4029 C 373.413 2.18099 0.704668 0
M  V30 4030 C 374.426 1.15334 1.14899 0
M  V30 4031 O 375.615 1.42262 1.07814 0
M  V30 4032 C 372.715 2.7592 1.96777 0
M  V30 4033 C 371.888 4.03969 1.67713 0
M  V30 4034 C 370.947 4.46242 2.78845 0
M  V30 4035 O 369.973 5.12903 2.46818 0
M  V30 4036 N 371.175 4.12886 4.08051 0
M  V30 4037 H 373.94 2.99205 0.172258 0
M  V30 4038 H 371.501 1.61815 -0.0525945 0
M  V30 4039 H 373.493 3.01165 2.70337 0
M  V30 4040 H 372.063 1.99051 2.41034 0
M  V30 4041 H 371.283 3.86459 0.777391 0
M  V30 4042 H 372.571 4.8748 1.4574 0
M  V30 4043 H 371.969 3.59342 4.3691 0
M  V30 4044 H 370.526 4.42997 4.78118 0
M  V30 4045 N 373.959 -0.0401083 1.57549 0
M  V30 4046 C 375.375 -0.395556 1.54621 0
M  V30 4047 C 375.575 -1.77281 0.957799 0
M  V30 4048 O 374.631 -2.45888 0.574031 0
M  V30 4049 C 375.944 -0.307535 2.99123 0
M  V30 4050 C 377.492 -0.385425 3.10618 0
M  V30 4051 C 377.967 -0.326973 4.56831 0
M  V30 4052 N 379.458 -0.386102 4.61588 0
M  V30 4053 C 380.193 -0.363591 5.72246 0
M  V30 4054 N 379.689 -0.29402 6.92176 0
M  V30 4055 N 381.482 -0.412503 5.60584 0
M  V30 4056 H 373.633 0.861325 1.94152 0
M  V30 4057 H 375.896 0.326445 0.890021 0
M  V30 4058 H 375.602 0.638461 3.45856 0
M  V30 4059 H 375.476 -1.10552 3.60636 0
M  V30 4060 H 377.863 -1.32185 2.63839 0
M  V30 4061 H 377.944 0.44171 2.51957 0
M  V30 4062 H 377.588 0.605738 5.04275 0
M  V30 4063 H 377.518 -1.17207 5.13391 0
M  V30 4064 H 380.009 -0.442832 3.75296 0
M  V30 4065 H 380.322 -0.28164 7.72287 0
M  V30 4066 H 378.667 -0.260232 6.94513 0
M  V30 4067 H 381.858 -0.464769 4.65787 0
M  V30 4068 H 382.031 -0.391492 6.46816 0
M  V30 4069 N 375.437 -1.54477 -0.31217 0
M  V30 4070 C 376.367 -1.87652 -1.38957 0
M  V30 4071 C 377.348 -0.734358 -1.53431 0
M  V30 4072 O 378.533 -0.98911 -1.67123 0
M  V30 4073 C 375.663 -2.11396 -2.75552 0
M  V30 4074 C 374.617 -3.27243 -2.75855 0
M  V30 4075 C 373.943 -3.36382 -4.15633 0
M  V30 4076 C 375.243 -4.64622 -2.38587 0
M  V30 4077 H 376.937 -2.77887 -1.11442 0
M  V30 4078 H 374.483 -1.33707 -0.534655 0
M  V30 4079 H 376.436 -2.33189 -3.51 0
M  V30 4080 H 375.16 -1.17921 -3.04569 0
M  V30 4081 H 373.819 -3.05356 -2.02863 0
M  V30 4082 H 373.467 -2.40445 -4.41809 0
M  V30 4083 H 373.167 -4.14249 -4.1674 0
M  V30 4084 H 374.691 -3.60422 -4.92877 0
M  V30 4085 H 376.105 -4.86219 -3.03749 0
M  V30 4086 H 374.502 -5.45121 -2.50925 0
M  V30 4087 H 375.572 -4.66097 -1.33723 0
M  V30 4088 N 376.915 0.57481 -1.46744 0
M  V30 4089 C 378.326 1.15695 -1.46532 0
M  V30 4090 C 378.677 1.95068 -0.210425 0
M  V30 4091 O 377.802 2.05241 0.685944 0
M  V30 4092 C 378.397 2.1048 -2.65487 0
M  V30 4093 C 376.956 2.64002 -2.68291 0
M  V30 4094 C 376.103 1.40026 -2.39349 0
M  V30 4095 H 379.054 0.362325 -1.54509 0
M  V30 4096 H 379.075 2.94074 -2.41455 0
M  V30 4097 H 378.587 1.52683 -3.56805 0
M  V30 4098 H 376.688 3.25646 -1.81067 0
M  V30 4099 H 376.801 3.06197 -3.68483 0
M  V30 4100 H 375.165 1.70106 -1.89568 0
M  V30 4101 H 375.948 0.840485 -3.32852 0
M  V30 4102 N 378.394 1.34581 0.820102 0
M  V30 4103 C 379.324 1.29038 1.94606 0
M  V30 4104 C 380.305 0.1673 1.69275 0
M  V30 4105 O 381.49 0.360112 1.90832 0
M  V30 4106 C 378.62 1.04793 3.31113 0
M  V30 4107 C 377.574 2.13597 3.70891 0
M  V30 4108 C 376.9 1.74537 5.05412 0
M  V30 4109 C 378.2 3.55451 3.8269 0
M  V30 4110 H 379.894 2.23248 1.99501 0
M  V30 4111 H 377.44 1.0747 0.958449 0
M  V30 4112 H 379.393 0.995592 4.0947 0
M  V30 4113 H 378.117 0.0702565 3.26524 0
M  V30 4114 H 376.776 2.17905 2.9481 0
M  V30 4115 H 376.424 0.754226 4.97313 0
M  V30 4116 H 376.124 2.47361 5.32997 0
M  V30 4117 H 377.648 1.70803 5.86224 0
M  V30 4118 H 379.062 3.5354 4.51312 0
M  V30 4119 H 377.459 4.26922 4.21732 0
M  V30 4120 H 378.529 3.92587 2.84611 0
M  V30 4121 N 379.872 -1.04064 1.18357 0
M  V30 4122 C 381.102 -1.80654 1.00238 0
M  V30 4123 C 381.51 -1.83713 -0.452362 0
M  V30 4124 O 380.853 -1.27135 -1.32599 0
M  V30 4125 C 380.915 -3.27582 1.48088 0
M  V30 4126 C 380.579 -3.48184 2.96002 0
M  V30 4127 C 381.576 -3.39372 3.93856 0
M  V30 4128 C 379.261 -3.7478 3.34433 0
M  V30 4129 C 381.255 -3.5686 5.28138 0
M  V30 4130 C 378.942 -3.91915 4.68877 0
M  V30 4131 C 379.94 -3.82956 5.65539 0
M  V30 4132 O 379.628 -3.996 6.97549 0
M  V30 4133 H 379.36 -0.575751 0.354241 0
M  V30 4134 H 381.914 -1.32044 1.57333 0
M  V30 4135 H 380.144 -3.77161 0.853588 0
M  V30 4136 H 381.833 -3.8573 1.2636 0
M  V30 4137 H 382.599 -3.18789 3.65511 0
M  V30 4138 H 378.478 -3.80852 2.59756 0
M  V30 4139 H 382.022 -3.49783 6.03571 0
M  V30 4140 H 377.919 -4.11992 4.96923 0
M  V30 4141 H 378.687 -4.1676 7.04452 0
M  V30 4142 N 381.35 -0.985608 -1.22978 0
M  V30 4143 C 382.597 -0.657386 -1.91532 0
M  V30 4144 C 382.925 0.809707 -1.76845 0
M  V30 4145 O 382.18 1.60021 -1.12658 0
M  V30 4146 C 382.479 -1.00014 -3.43121 0
M  V30 4147 C 382.145 -2.4583 -3.77993 0
M  V30 4148 C 380.807 -2.85679 -3.87222 0
M  V30 4149 C 383.159 -3.40378 -3.94705 0
M  V30 4150 C 380.487 -4.19081 -4.10595 0
M  V30 4151 C 382.839 -4.73429 -4.1958 0
M  V30 4152 C 381.503 -5.1303 -4.27032 0
M  V30 4153 H 380.773 -0.240555 -0.700867 0
M  V30 4154 H 383.42 -1.24044 -1.45895 0
M  V30 4155 H 381.725 -0.335072 -3.90365 0
M  V30 4156 H 383.422 -0.724322 -3.94404 0
M  V30 4157 H 380.012 -2.13939 -3.71387 0
M  V30 4158 H 384.196 -3.10766 -3.8696 0
M  V30 4159 H 379.452 -4.49362 -4.14589 0
M  V30 4160 H 383.626 -5.46644 -4.31455 0
M  V30 4161 H 381.253 -6.16418 -4.44896 0
M  V30 4162 N 382.828 1.3818 -0.7579 0
M  V30 4163 C 384.077 1.99261 -0.312744 0
M  V30 4164 C 384.39 1.60846 1.11301 0
M  V30 4165 O 385.596 2.14929 1.65885 0
M  V30 4166 C 384.052 3.56294 -0.50821 0
M  V30 4167 C 383.66 4.03657 -1.94333 0
M  V30 4168 C 385.404 4.24313 -0.125982 0
M  V30 4169 C 383.311 5.53347 -2.08712 0
M  V30 4170 H 382.241 0.745456 -0.113185 0
M  V30 4171 H 384.892 1.57889 -0.935056 0
M  V30 4172 H 383.274 3.95575 0.183353 0
M  V30 4173 H 384.448 3.75655 -2.66871 0
M  V30 4174 H 382.763 3.48376 -2.28086 0
M  V30 4175 H 385.36 5.34279 -0.212125 0
M  V30 4176 H 385.703 4.05962 0.921964 0
M  V30 4177 H 386.236 3.90285 -0.769563 0
M  V30 4178 H 382.975 5.76607 -3.11777 0
M  V30 4179 H 382.495 5.83078 -1.4064 0
M  V30 4180 H 384.174 6.19111 -1.87912 0
M  V30 4181 N 384.306 0.507319 1.49211 0
M  V30 4182 C 385.552 -0.0350047 2.0277 0
M  V30 4183 C 385.885 -1.3606 1.38569 0
M  V30 4184 O 385.16 -1.87321 0.523542 0
M  V30 4185 C 385.443 -0.180916 3.59645 0
M  V30 4186 C 385.296 1.16825 4.34364 0
M  V30 4187 C 386.615 -0.918558 4.30407 0
M  V30 4188 H 383.734 -0.0112473 0.736914 0
M  V30 4189 H 386.376 0.659956 1.7817 0
M  V30 4190 H 384.526 -0.772826 3.80736 0
M  V30 4191 H 386.198 1.79952 4.24753 0
M  V30 4192 H 384.441 1.75594 3.96673 0
M  V30 4193 H 385.112 1.01939 5.42506 0
M  V30 4194 H 387.588 -0.41649 4.1401 0
M  V30 4195 H 386.464 -0.989505 5.39907 0
M  V30 4196 H 386.725 -1.96373 3.96093 0
M  V30 4197 N 385.784 -1.5574 0.241426 0
M  V30 4198 C 386.732 -2.22538 -0.676718 0
M  V30 4199 C 387.726 -1.21117 -1.18436 0
M  V30 4200 O 388.932 -1.39144 -1.14188 0
M  V30 4201 H 385.307 -0.713776 -0.236701 0
M  V30 4202 H 387.278 -2.98264 -0.0901187 0
M  V30 4203 C 386.027 -2.93439 -1.86518 0
M  V30 4204 H 385.35 -3.7125 -1.4837 0
M  V30 4205 H 386.79 -3.43549 -2.48495 0
M  V30 4206 C 385.249 -1.97008 -2.73294 0
M  V30 4207 O 385.779 -1.49965 -3.72657 0
M  V30 4208 N 383.985 -1.64227 -2.39745 0
M  V30 4209 H 383.532 -2.02677 -1.58996 0
M  V30 4210 H 383.49 -0.999708 -2.98083 0
M  V30 4211 N 387.262 0.0317525 -1.57568 0
M  V30 4212 C 388.508 0.724175 -1.8943 0
M  V30 4213 C 388.841 1.75149 -0.838836 0
M  V30 4214 O 388.116 1.93948 0.146422 0
M  V30 4215 C 388.399 1.39615 -3.31933 0
M  V30 4216 C 388.252 0.382537 -4.4817 0
M  V30 4217 C 389.571 2.33084 -3.73309 0
M  V30 4218 H 386.69 0.261797 -0.688935 0
M  V30 4219 H 389.332 -0.013017 -1.89996 0
M  V30 4220 H 387.482 2.02451 -3.31581 0
M  V30 4221 H 389.154 -0.243689 -4.60656 0
M  V30 4222 H 387.397 -0.29844 -4.32772 0
M  V30 4223 H 388.068 0.891145 -5.44759 0
M  V30 4224 H 390.544 1.80295 -3.7501 0
M  V30 4225 H 389.42 2.77084 -4.73831 0
M  V30 4226 H 389.681 3.19643 -3.05419 0
M  V30 4227 N 388.74 1.54641 0.303973 0
M  V30 4228 C 389.989 1.7299 1.03717 0
M  V30 4229 C 390.302 0.521168 1.88529 0
M  V30 4230 O 391.508 0.586408 2.65092 0
M  V30 4231 C 389.964 3.06051 1.89369 0
M  V30 4232 C 389.572 4.34393 1.09574 0
M  V30 4233 C 391.316 3.3376 2.62306 0
M  V30 4234 C 389.223 5.58506 1.94486 0
M  V30 4235 H 388.153 0.64473 0.390947 0
M  V30 4236 H 390.804 1.81124 0.294328 0
M  V30 4237 H 389.186 2.91874 2.67629 0
M  V30 4238 H 390.36 4.59396 0.359485 0
M  V30 4239 H 388.675 4.13597 0.482324 0
M  V30 4240 H 391.272 4.23687 3.26181 0
M  V30 4241 H 391.615 2.52503 3.3098 0
M  V30 4242 H 392.148 3.48894 1.91097 0
M  V30 4243 H 388.887 6.42422 1.30287 0
M  V30 4244 H 388.407 5.37694 2.65792 0
M  V30 4245 H 390.086 5.95651 2.52605 0
M  V30 4246 N 390.218 -0.567019 1.47046 0
M  V30 4247 C 391.467 -1.32091 1.5243 0
M  V30 4248 C 391.78 -1.94704 0.187021 0
M  V30 4249 O 392.986 -2.7124 0.118771 0
M  V30 4250 C 391.442 -2.39479 2.68659 0
M  V30 4251 C 391.05 -1.831 4.08874 0
M  V30 4252 C 392.794 -3.16111 2.83327 0
M  V30 4253 C 390.701 -2.8821 5.16419 0
M  V30 4254 H 389.631 -0.496629 0.56734 0
M  V30 4255 H 392.282 -0.603354 1.73297 0
M  V30 4256 H 390.664 -3.14105 2.41152 0
M  V30 4257 H 391.838 -1.14913 4.46242 0
M  V30 4258 H 390.153 -1.19085 3.99008 0
M  V30 4259 H 392.75 -3.94585 3.60842 0
M  V30 4260 H 393.093 -3.69686 1.91411 0
M  V30 4261 H 393.626 -2.48595 3.10556 0
M  V30 4262 H 390.365 -2.39504 6.10179 0
M  V30 4263 H 389.885 -3.54839 4.8358 0
M  V30 4264 H 391.564 -3.51881 5.42945 0
M  V30 4265 N 391.696 -1.35014 -0.812953 0
M  V30 4266 C 393.107 -1.25035 -1.38648 0
M  V30 4267 C 393.458 0.119967 -1.95833 0
M  V30 4268 O 392.583 1.02069 -1.90816 0
M  V30 4269 C 393.178 -2.26394 -2.52054 0
M  V30 4270 C 391.737 -2.20175 -3.05287 0
M  V30 4271 C 390.884 -2.12451 -1.78213 0
M  V30 4272 H 393.835 -1.46235 -0.616516 0
M  V30 4273 H 393.856 -1.88672 -3.30429 0
M  V30 4274 H 393.368 -3.26116 -2.10404 0
M  V30 4275 H 391.469 -1.23841 -3.51417 0
M  V30 4276 H 391.582 -3.11863 -3.63701 0
M  V30 4277 H 389.946 -1.58328 -1.9951 0
M  V30 4278 H 390.729 -3.14024 -1.38723 0
M  V30 4279 N 393.175 1.03435 -1.18907 0
M  V30 4280 C 394.415 1.78302 -0.999391 0
M  V30 4281 C 394.779 1.86353 0.462219 0
M  V30 4282 O 395.98 2.57489 0.771543 0
M  V30 4283 C 394.251 3.17362 -1.64365 0
M  V30 4284 S 395.81 4.08488 -1.6026 0
M  V30 4285 H 392.628 0.613861 -0.358742 0
M  V30 4286 H 395.23 1.23979 -1.51161 0
M  V30 4287 H 393.934 3.09116 -2.69955 0
M  V30 4288 H 393.465 3.76762 -1.13199 0
M  V30 4289 H 395.48 4.92274 -0.622932 0
M  V30 4290 N 394.653 0.992116 1.22453 0
M  V30 4291 C 395.583 0.561677 2.26644 0
M  V30 4292 C 396.564 -0.411055 1.65059 0
M  V30 4293 O 397.749 -0.301861 1.9184 0
M  V30 4294 C 394.879 -0.125247 3.47074 0
M  V30 4295 C 393.833 0.765948 4.21091 0
M  V30 4296 C 393.159 -0.0538484 5.34673 0
M  V30 4297 C 394.459 2.06242 4.79856 0
M  V30 4298 H 396.153 1.43259 2.62902 0
M  V30 4299 H 393.699 0.690283 1.26377 0
M  V30 4300 H 395.652 -0.437764 4.1912 0
M  V30 4301 H 394.376 -1.03069 3.0991 0
M  V30 4302 H 393.035 1.0621 3.50878 0
M  V30 4303 H 392.683 -0.960188 4.9375 0
M  V30 4304 H 392.383 0.539415 5.85119 0
M  V30 4305 H 393.907 -0.360477 6.09535 0
M  V30 4306 H 395.321 1.8139 5.43848 0
M  V30 4307 H 393.718 2.60444 5.40638 0
M  V30 4308 H 394.788 2.74167 3.99951 0
M  V30 4309 N 396.131 -1.37776 0.765217 0
M  V30 4310 C 397.061 -2.32945 0.160953 0
M  V30 4311 C 398.042 -1.55454 -0.690516 0
M  V30 4312 O 399.227 -1.83721 -0.629318 0
M  V30 4313 C 396.357 -3.39669 -0.724031 0
M  V30 4314 C 395.311 -4.27992 0.0256173 0
M  V30 4315 C 394.637 -5.25673 -0.978383 0
M  V30 4316 C 395.937 -5.08309 1.20082 0
M  V30 4317 H 397.631 -2.83728 0.955969 0
M  V30 4318 H 395.177 -1.36416 0.461149 0
M  V30 4319 H 397.13 -4.05219 -1.15652 0
M  V30 4320 H 395.854 -2.87396 -1.5515 0
M  V30 4321 H 394.513 -3.63964 0.438812 0
M  V30 4322 H 394.161 -4.69682 -1.80022 0
M  V30 4323 H 393.861 -5.85625 -0.481378 0
M  V30 4324 H 395.385 -5.94098 -1.40995 0
M  V30 4325 H 396.799 -5.67034 0.845307 0
M  V30 4326 H 395.196 -5.77554 1.62947 0
M  V30 4327 H 396.266 -4.41365 2.00811 0
M  V30 4328 N 397.609 -0.515225 -1.4894 0
M  V30 4329 C 398.856 0.024215 -2.02486 0
M  V30 4330 C 399.184 1.35671 -1.39368 0
M  V30 4331 O 398.439 1.88566 -0.523574 0
M  V30 4332 C 398.738 0.210595 -3.56779 0
M  V30 4333 C 398.404 -1.04569 -4.38607 0
M  V30 4334 C 397.066 -1.39002 -4.60686 0
M  V30 4335 C 399.418 -1.88008 -4.86109 0
M  V30 4336 C 396.746 -2.568 -5.27514 0
M  V30 4337 C 399.098 -3.04972 -5.54234 0
M  V30 4338 C 397.762 -3.39768 -5.74555 0
M  V30 4339 H 397.032 0.00886088 -0.740947 0
M  V30 4340 H 399.679 -0.678263 -1.79086 0
M  V30 4341 H 397.984 0.99572 -3.78936 0
M  V30 4342 H 399.681 0.642659 -3.95817 0
M  V30 4343 H 396.271 -0.767497 -4.21672 0
M  V30 4344 H 400.455 -1.62719 -4.68867 0
M  V30 4345 H 395.711 -2.8398 -5.41447 0
M  V30 4346 H 399.885 -3.69943 -5.90013 0
M  V30 4347 H 397.512 -4.31148 -6.26112 0
M  V30 4348 N 399.087 1.5561 -0.249682 0
M  V30 4349 C 400.312 2.03865 0.381305 0
M  V30 4350 C 400.737 1.12769 1.50548 0
M  V30 4351 O 400.095 0.121189 1.80895 0
M  V30 4352 C 400.143 3.50101 0.863816 0
M  V30 4353 O 399.247 3.62132 1.97318 0
M  V30 4354 H 398.588 0.658827 0.0827194 0
M  V30 4355 H 401.118 2.01105 -0.376552 0
M  V30 4356 H 401.128 3.90975 1.1663 0
M  V30 4357 H 399.803 4.1588 0.0411816 0
M  V30 4358 H 398.38 3.33155 1.67517 0
M  V30 4359 N 400.565 -0.0233959 1.57583 0
M  V30 4360 C 401.812 -0.713063 1.8953 0
M  V30 4361 C 402.14 -1.75056 0.847673 0
M  V30 4362 O 401.395 -1.95119 -0.150636 0
M  V30 4363 C 401.694 -1.41428 3.28227 0
M  V30 4364 C 401.36 -0.512222 4.47981 0
M  V30 4365 C 400.022 -0.263785 4.80476 0
M  V30 4366 C 402.374 0.110248 5.21083 0
M  V30 4367 C 399.702 0.615804 5.83459 0
M  V30 4368 C 402.054 0.977573 6.25001 0
M  V30 4369 C 400.718 1.23542 6.55968 0
M  V30 4370 H 399.988 -0.260928 0.69354 0
M  V30 4371 H 402.635 0.0271047 1.91481 0
M  V30 4372 H 400.94 -2.22791 3.22291 0
M  V30 4373 H 402.637 -1.95355 3.50196 0
M  V30 4374 H 399.227 -0.716013 4.22577 0
M  V30 4375 H 403.411 -0.0687137 4.96252 0
M  V30 4376 H 398.667 0.82382 6.05824 0
M  V30 4377 H 402.841 1.46638 6.80786 0
M  V30 4378 H 400.468 1.91871 7.35588 0
M  V30 4379 N 402.043 -1.548 -0.295768 0
M  V30 4380 C 402.973 -1.89115 -1.36959 0
M  V30 4381 C 403.954 -0.75059 -1.52644 0
M  V30 4382 O 405.139 -1.00678 -1.66065 0
M  V30 4383 C 402.269 -2.14307 -2.73295 0
M  V30 4384 C 401.223 -3.30151 -2.72368 0
M  V30 4385 C 400.549 -3.40772 -4.12042 0
M  V30 4386 C 401.849 -4.67126 -2.33646 0
M  V30 4387 H 403.543 -2.79053 -1.08488 0
M  V30 4388 H 401.089 -1.34266 -0.520443 0
M  V30 4389 H 403.042 -2.36898 -3.48507 0
M  V30 4390 H 401.766 -1.21145 -3.03301 0
M  V30 4391 H 400.425 -3.0749 -1.99613 0
M  V30 4392 H 400.073 -2.45117 -4.39234 0
M  V30 4393 H 399.773 -4.18645 -4.12322 0
M  V30 4394 H 401.297 -3.6563 -4.89027 0
M  V30 4395 H 402.711 -4.89414 -2.98575 0
M  V30 4396 H 401.108 -5.47751 -2.45129 0
M  V30 4397 H 402.178 -4.67489 -1.28772 0
M  V30 4398 N 403.521 0.559213 -1.47345 0
M  V30 4399 C 404.749 1.34194 -1.57479 0
M  V30 4400 C 405.164 1.87463 -0.224261 0
M  V30 4401 O 404.521 1.64888 0.782185 0
M  V30 4402 C 404.572 2.51324 -2.59843 0
M  V30 4403 O 404.293 2.00256 -3.89653 0
M  V30 4404 C 405.794 3.43563 -2.80142 0
M  V30 4405 H 403.014 0.409136 -0.531835 0
M  V30 4406 H 405.558 0.677609 -1.92947 0
M  V30 4407 H 403.713 3.13699 -2.27314 0
M  V30 4408 H 404.127 2.76708 -4.4557 0
M  V30 4409 H 405.601 4.2217 -3.55635 0
M  V30 4410 H 406.078 3.9698 -1.87892 0
M  V30 4411 H 406.684 2.87005 -3.1386 0
M  V30 4412 N 404.999 1.35443 0.805782 0
M  V30 4413 C 406.247 1.28507 1.55982 0
M  V30 4414 C 406.568 -0.140046 1.94496 0
M  V30 4415 O 405.838 -1.07666 1.63661 0
M  V30 4416 H 404.418 0.472676 0.578434 0
M  V30 4417 H 407.08 1.69555 0.961098 0
M  V30 4418 H 406.176 1.90148 2.47488 0
M  V30 4419 N 406.477 -1.02803 1.19454 0
M  V30 4420 C 407.407 -2.12999 0.956758 0
M  V30 4421 C 408.388 -1.69743 -0.110188 0
M  V30 4422 O 409.573 -1.94148 0.0450038 0
M  V30 4423 C 406.703 -3.43746 0.495553 0
M  V30 4424 C 405.657 -4.00688 1.50443 0
M  V30 4425 C 404.983 -5.27067 0.900275 0
M  V30 4426 C 406.283 -4.35397 2.8849 0
M  V30 4427 H 407.977 -2.33148 1.87836 0
M  V30 4428 H 405.523 -1.12045 0.904539 0
M  V30 4429 H 407.476 -4.2021 0.316493 0
M  V30 4430 H 406.2 -3.23321 -0.461646 0
M  V30 4431 H 404.859 -3.2632 1.67065 0
M  V30 4432 H 404.507 -5.02959 -0.064503 0
M  V30 4433 H 404.207 -5.66127 1.57397 0
M  V30 4434 H 405.731 -6.06196 0.73203 0
M  V30 4435 H 407.145 -5.02795 2.75446 0
M  V30 4436 H 405.542 -4.85541 3.52661 0
M  V30 4437 H 406.612 -3.44662 3.41081 0
M  V30 4438 N 407.956 -0.998596 -1.21925 0
M  V30 4439 C 409.202 -0.678667 -1.91107 0
M  V30 4440 C 409.535 0.78791 -1.77498 0
M  V30 4441 O 408.81 1.57043 -1.1475 0
M  V30 4442 C 409.093 -1.09245 -3.43129 0
M  V30 4443 C 408.946 -2.61801 -3.6576 0
M  V30 4444 C 410.265 -0.649984 -4.35274 0
M  V30 4445 H 407.384 -0.248025 -0.694012 0
M  V30 4446 H 410.026 -1.24314 -1.43688 0
M  V30 4447 H 408.176 -0.612171 -3.83647 0
M  V30 4448 H 409.848 -3.17543 -3.34611 0
M  V30 4449 H 408.091 -3.03609 -3.09845 0
M  V30 4450 H 408.762 -2.85804 -4.7225 0
M  V30 4451 H 411.238 -1.0626 -4.02303 0
M  V30 4452 H 410.114 -0.967743 -5.40302 0
M  V30 4453 H 410.375 0.449139 -4.39813 0
M  V30 4454 N 409.434 1.37368 -0.772513 0
M  V30 4455 C 410.681 1.99673 -0.337182 0
M  V30 4456 C 411.009 1.61324 1.0865 0
M  V30 4457 O 410.264 0.851377 1.7621 0
M  V30 4458 C 410.563 3.54817 -0.428876 0
M  V30 4459 C 410.229 4.12936 -1.81092 0
M  V30 4460 C 408.891 4.28523 -2.1891 0
M  V30 4461 C 411.243 4.44801 -2.71664 0
M  V30 4462 C 408.571 4.73277 -3.46735 0
M  V30 4463 C 410.923 4.90981 -3.98899 0
M  V30 4464 C 409.587 5.04773 -4.36761 0
M  V30 4465 H 408.857 0.730656 -0.123384 0
M  V30 4466 H 411.504 1.64124 -0.986686 0
M  V30 4467 H 409.809 3.90618 0.304167 0
M  V30 4468 H 411.506 4.00933 -0.0733334 0
M  V30 4469 H 408.096 4.01233 -1.50699 0
M  V30 4470 H 412.28 4.32344 -2.43706 0
M  V30 4471 H 407.536 4.82142 -3.75964 0
M  V30 4472 H 411.71 5.14603 -4.69208 0
M  V30 4473 H 409.337 5.39211 -5.35868 0
M  V30 4474 N 410.912 0.523116 1.48665 0
M  V30 4475 C 412.142 -0.00961724 2.06598 0
M  V30 4476 C 412.55 -1.29333 1.38093 0
M  V30 4477 O 411.893 -1.77846 0.46007 0
M  V30 4478 C 411.955 -0.311135 3.58151 0
M  V30 4479 C 411.619 0.878092 4.48485 0
M  V30 4480 C 412.616 1.77464 4.88674 0
M  V30 4481 C 410.301 1.08315 4.90483 0
M  V30 4482 C 412.295 2.86021 5.69623 0
M  V30 4483 C 409.982 2.17187 5.71203 0
M  V30 4484 C 410.98 3.05873 6.10681 0
M  V30 4485 O 410.668 4.12862 6.89783 0
M  V30 4486 H 410.4 0.0272658 0.67545 0
M  V30 4487 H 412.954 0.726156 1.92136 0
M  V30 4488 H 411.184 -1.10079 3.70701 0
M  V30 4489 H 412.873 -0.785125 3.98234 0
M  V30 4490 H 413.639 1.62813 4.56855 0
M  V30 4491 H 409.518 0.402149 4.59243 0
M  V30 4492 H 413.062 3.55272 6.00356 0
M  V30 4493 H 408.959 2.31824 6.02435 0
M  V30 4494 H 409.727 4.10487 7.08126 0
M  V30 4495 N 412.39 -1.55475 0.257931 0
M  V30 4496 C 413.32 -2.24815 -0.630912 0
M  V30 4497 C 414.301 -1.23224 -1.17259 0
M  V30 4498 O 415.486 -1.51904 -1.20991 0
M  V30 4499 C 412.616 -2.95609 -1.82298 0
M  V30 4500 C 411.57 -4.03982 -1.41359 0
M  V30 4501 C 410.896 -4.6226 -2.68738 0
M  V30 4502 C 412.196 -5.19109 -0.57648 0
M  V30 4503 H 413.89 -2.99354 -0.0526878 0
M  V30 4504 H 411.436 -1.4398 -0.023901 0
M  V30 4505 H 413.389 -3.42822 -2.45054 0
M  V30 4506 H 412.113 -2.18577 -2.42676 0
M  V30 4507 H 410.772 -3.57555 -0.809324 0
M  V30 4508 H 410.42 -3.81915 -3.27338 0
M  V30 4509 H 410.12 -5.35424 -2.42065 0
M  V30 4510 H 411.644 -5.12212 -3.32372 0
M  V30 4511 H 413.058 -5.62479 -1.10861 0
M  V30 4512 H 411.455 -5.98729 -0.405351 0
M  V30 4513 H 412.525 -4.83174 0.408776 0
M  V30 4514 N 413.868 0.0150385 -1.57593 0
M  V30 4515 C 415.279 0.559832 -1.78109 0
M  V30 4516 C 415.63 1.74814 -0.890756 0
M  V30 4517 O 414.755 2.16216 -0.0892482 0
M  V30 4518 C 415.35 1.02238 -3.23006 0
M  V30 4519 C 413.909 1.51258 -3.44671 0
M  V30 4520 C 413.056 0.456955 -2.73509 0
M  V30 4521 H 416.007 -0.211169 -1.57289 0
M  V30 4522 H 416.028 1.88912 -3.30292 0
M  V30 4523 H 415.54 0.157302 -3.87781 0
M  V30 4524 H 413.641 2.39905 -2.8509 0
M  V30 4525 H 413.754 1.55042 -4.5332 0
M  V30 4526 H 412.118 0.915196 -2.37689 0
M  V30 4527 H 412.901 -0.398896 -3.40975 0
M  V30 4528 N 415.346 1.54954 0.287554 0
M  V30 4529 C 416.574 1.78881 1.03967 0
M  V30 4530 C 416.989 0.554894 1.80462 0
M  V30 4531 O 416.346 -0.475676 1.76192 0
M  V30 4532 C 416.397 3.00488 2.0097 0
M  V30 4533 O 416.118 4.19113 1.27577 0
M  V30 4534 C 417.619 3.36907 2.88112 0
M  V30 4535 H 414.839 0.596259 0.307761 0
M  V30 4536 H 417.383 2.01937 0.322749 0
M  V30 4537 H 415.538 2.79601 2.68145 0
M  V30 4538 H 415.952 4.87765 1.92835 0
M  V30 4539 H 417.426 4.25205 3.52001 0
M  V30 4540 H 417.903 2.55659 3.57121 0
M  V30 4541 H 418.509 3.60001 2.26449 0
M  V30 4542 N 416.824 -0.551391 1.4764 0
M  V30 4543 C 418.101 -1.31229 1.45046 0
M  V30 4544 C 418.481 -2.10563 0.150527 0
M  V30 4545 O 417.829 -2.11374 -0.867956 0
M  V30 4546 C 418.039 -2.21189 2.69956 0
M  V30 4547 C 419.387 -2.82021 3.1741 0
M  V30 4548 O 420.411 -2.31488 2.70724 0
M  V30 4549 O 419.27 -3.73885 3.98588 0
M  V30 4550 H 416.364 -0.591193 0.578291 0
M  V30 4551 H 418.91 -0.569813 1.59847 0
M  V30 4552 H 417.682 -1.62207 3.56096 0
M  V30 4553 H 417.305 -3.02722 2.57769 0
M  V30 4554 N 418.302 -1.35869 -0.798587 0
M  V30 4555 C 419.527 -1.32883 -1.59238 0
M  V30 4556 C 419.952 0.0894587 -1.87887 0
M  V30 4557 O 419.31 1.05869 -1.47178 0
M  V30 4558 C 419.358 -2.14892 -2.89575 0
M  V30 4559 O 418.462 -1.53512 -3.82763 0
M  V30 4560 H 417.803 -0.455236 -0.48338 0
M  V30 4561 H 420.333 -1.79024 -0.990539 0
M  V30 4562 H 420.343 -2.27139 -3.38928 0
M  V30 4563 H 419.018 -3.17998 -2.68049 0
M  V30 4564 H 417.595 -1.50153 -3.41334 0
M  V30 4565 N 419.78 1.02168 -1.19998 0
M  V30 4566 C 421.028 1.75338 -1.00504 0
M  V30 4567 C 421.349 1.89387 0.464506 0
M  V30 4568 O 420.619 1.43268 1.33608 0
M  V30 4569 H 419.199 0.649564 -0.368885 0
M  V30 4570 H 421.861 1.23205 -1.51018 0
M  V30 4571 H 420.957 2.75892 -1.45912 0
M  V30 4572 N 421.258 1.00505 1.21394 0
M  V30 4573 C 422.168 0.574806 2.27449 0
M  V30 4574 C 423.184 -0.382206 1.6975 0
M  V30 4575 O 424.36 -0.246027 1.99892 0
M  V30 4576 C 421.425 -0.0917414 3.46579 0
M  V30 4577 C 420.486 0.909758 4.1955 0
M  V30 4578 C 419.719 0.274924 5.32991 0
M  V30 4579 O 419.942 -0.928254 5.62796 0
M  V30 4580 O 418.876 0.985877 5.93771 0
M  V30 4581 H 422.702 1.45744 2.66444 0
M  V30 4582 H 420.287 0.773923 1.27792 0
M  V30 4583 H 422.169 -0.464551 4.18832 0
M  V30 4584 H 420.844 -0.948755 3.09484 0
M  V30 4585 H 419.751 1.33372 3.49518 0
M  V30 4586 H 421.084 1.73636 4.60555 0
M  V30 4587 N 422.737 -1.36956 0.779787 0
M  V30 4588 C 423.684 -2.30175 0.169697 0
M  V30 4589 C 424.654 -1.51501 -0.68094 0
M  V30 4590 O 425.839 -1.80042 -0.631629 0
M  V30 4591 C 422.979 -3.37985 -0.697131 0
M  V30 4592 C 422.092 -4.31661 0.170992 0
M  V30 4593 C 421.227 -5.2655 -0.701298 0
M  V30 4594 C 420.266 -6.11867 0.168869 0
M  V30 4595 N 419.403 -6.98973 -0.661855 0
M  V30 4596 H 424.243 -2.81767 0.970135 0
M  V30 4597 H 421.78 -1.38699 0.489994 0
M  V30 4598 H 423.738 -3.99128 -1.2146 0
M  V30 4599 H 422.368 -2.87739 -1.46309 0
M  V30 4600 H 421.42 -3.71756 0.80634 0
M  V30 4601 H 422.732 -4.91644 0.841875 0
M  V30 4602 H 421.886 -5.92937 -1.28494 0
M  V30 4603 H 420.625 -4.66998 -1.40584 0
M  V30 4604 H 419.63 -5.44452 0.764986 0
M  V30 4605 H 420.855 -6.73493 0.870863 0
M  V30 4606 H 418.801 -6.41941 -1.35086 0
M  V30 4607 H 418.718 -7.55984 -0.0484447 0
M  V30 4608 H 419.986 -7.6974 -1.22963 0
M  V30 4609 N 424.215 -0.530993 -1.48385 0
M  V30 4610 C 425.148 0.278511 -2.26494 0
M  V30 4611 C 426.126 0.943905 -1.32398 0
M  V30 4612 O 427.31 0.968098 -1.61741 0
M  V30 4613 C 424.437 1.39453 -3.08659 0
M  V30 4614 C 423.483 0.840434 -4.18137 0
M  V30 4615 S 424.316 -0.292496 -5.34701 0
M  V30 4616 C 425.472 0.825973 -6.20426 0
M  V30 4617 H 425.705 -0.384365 -2.94805 0
M  V30 4618 H 423.238 -0.316799 -1.51115 0
M  V30 4619 H 425.196 2.03382 -3.56575 0
M  V30 4620 H 423.857 2.02913 -2.3976 0
M  V30 4621 H 423.05 1.67769 -4.75257 0
M  V30 4622 H 422.652 0.277819 -3.72967 0
M  V30 4623 H 424.944 1.72438 -6.55188 0
M  V30 4624 H 425.887 0.292728 -7.07495 0
M  V30 4625 H 426.295 1.10683 -5.53543 0
M  V30 4626 N 425.693 1.55336 -0.266172 0
M  V30 4627 C 426.921 2.03801 0.356756 0
M  V30 4628 C 427.336 1.14485 1.50129 0
M  V30 4629 O 426.693 0.163121 1.8177 0
M  V30 4630 C 426.744 3.51455 0.846281 0
M  V30 4631 O 426.465 4.37371 -0.252663 0
M  V30 4632 C 427.966 4.15767 1.53794 0
M  V30 4633 H 425.186 0.665906 0.0825218 0
M  V30 4634 H 427.73 2.00636 -0.39566 0
M  V30 4635 H 425.885 3.55092 1.54881 0
M  V30 4636 H 426.299 5.24358 0.122173 0
M  V30 4637 H 427.773 5.20714 1.83198 0
M  V30 4638 H 428.25 3.63404 2.46646 0
M  V30 4639 H 428.856 4.16107 0.879488 0
M  V30 4640 N 427.171 -0.0066808 1.57599 0
M  V30 4641 C 428.101 -0.999296 2.11036 0
M  V30 4642 C 429.082 -1.36278 1.01795 0
M  V30 4643 O 430.267 -1.4477 1.29442 0
M  V30 4644 C 427.397 -2.29328 2.60818 0
M  V30 4645 C 426.351 -2.07159 3.74525 0
M  V30 4646 C 425.677 -3.42512 4.10596 0
M  V30 4647 C 426.977 -1.43959 5.02069 0
M  V30 4648 H 428.671 -0.554382 2.94223 0
M  V30 4649 H 426.217 -0.265221 1.41536 0
M  V30 4650 H 428.17 -2.99117 2.96828 0
M  V30 4651 H 426.894 -2.7592 1.74745 0
M  V30 4652 H 425.553 -1.39797 3.38899 0
M  V30 4653 H 425.201 -3.86795 3.21556 0
M  V30 4654 H 424.901 -3.28498 4.87199 0
M  V30 4655 H 426.425 -4.13628 4.4916 0
M  V30 4656 H 427.839 -2.03696 5.35893 0
M  V30 4657 H 426.236 -1.40452 5.83432 0
M  V30 4658 H 427.306 -0.407992 4.83181 0
M  V30 4659 N 428.649 -1.55105 -0.279332 0
M  V30 4660 C 429.874 -1.7976 -1.03446 0
M  V30 4661 C 430.299 -0.565952 -1.79384 0
M  V30 4662 O 429.657 0.484259 -1.74713 0
M  V30 4663 C 429.705 -3.0179 -1.97371 0
M  V30 4664 O 428.809 -2.76432 -3.06038 0
M  V30 4665 H 428.15 -0.594334 -0.29608 0
M  V30 4666 H 430.68 -2.02235 -0.310165 0
M  V30 4667 H 430.69 -3.30351 -2.39441 0
M  V30 4668 H 429.365 -3.91085 -1.4151 0
M  V30 4669 H 427.942 -2.58949 -2.68328 0
M  V30 4670 N 430.127 0.543554 -1.4793 0
M  V30 4671 C 431.376 1.29649 -1.54512 0
M  V30 4672 C 431.689 1.94382 -0.217973 0
M  V30 4673 O 432.895 2.71017 -0.161908 0
M  V30 4674 C 431.351 2.35175 -2.72435 0
M  V30 4675 C 430.959 1.76572 -4.11736 0
M  V30 4676 C 432.703 3.11564 -2.8832 0
M  V30 4677 C 430.61 2.79958 -5.20939 0
M  V30 4678 H 429.54 0.487541 -0.57517 0
M  V30 4679 H 432.191 0.575708 -1.74235 0
M  V30 4680 H 430.573 3.10229 -2.46118 0
M  V30 4681 H 431.747 1.07799 -4.48013 0
M  V30 4682 H 430.062 1.12722 -4.00852 0
M  V30 4683 H 432.659 3.88794 -3.67074 0
M  V30 4684 H 433.002 3.66594 -1.97268 0
M  V30 4685 H 433.535 2.43623 -3.14472 0
M  V30 4686 H 430.274 2.29766 -6.13912 0
M  V30 4687 H 429.794 3.47101 -4.89164 0
M  V30 4688 H 431.473 3.43198 -5.48474 0
M  V30 4689 N 431.605 1.3629 0.791371 0
M  V30 4690 C 432.83 1.33726 1.58531 0
M  V30 4691 C 433.255 -0.0794933 1.87932 0
M  V30 4692 O 432.613 -1.05087 1.47738 0
M  V30 4693 C 432.661 2.16425 2.88431 0
M  V30 4694 O 431.765 1.5554 3.81944 0
M  V30 4695 H 431.106 0.457793 0.480959 0
M  V30 4696 H 433.636 1.79547 0.981031 0
M  V30 4697 H 433.646 2.28933 3.37718 0
M  V30 4698 H 432.321 3.19415 2.66359 0
M  V30 4699 H 430.898 1.51961 3.40532 0
M  V30 4700 N 433.083 -1.0153 1.20538 0
M  V30 4701 C 434.329 -1.75408 1.01783 0
M  V30 4702 C 434.662 -1.88943 -0.448814 0
M  V30 4703 O 433.937 -1.4162 -1.33319 0
M  V30 4704 C 434.22 -3.17255 1.70356 0
M  V30 4705 C 434.073 -3.11508 3.24473 0
M  V30 4706 C 435.392 -4.15955 1.43769 0
M  V30 4707 H 432.511 -0.636713 0.371167 0
M  V30 4708 H 435.153 -1.18436 1.4857 0
M  V30 4709 H 433.303 -3.65898 1.30578 0
M  V30 4710 H 434.975 -2.70658 3.73553 0
M  V30 4711 H 433.218 -2.4887 3.55311 0
M  V30 4712 H 433.889 -4.11784 3.67611 0
M  V30 4713 H 436.365 -3.75973 1.7828 0
M  V30 4714 H 435.241 -5.13368 1.94279 0
M  V30 4715 H 435.502 -4.40586 0.365564 0
M  V30 4716 N 434.561 -1.01147 -1.20859 0
M  V30 4717 C 435.491 -0.597663 -2.25722 0
M  V30 4718 C 436.472 0.384744 -1.65692 0
M  V30 4719 O 437.657 0.271303 -1.92296 0
M  V30 4720 C 434.787 0.0700149 -3.47229 0
M  V30 4721 C 433.741 -0.832843 -4.19819 0
M  V30 4722 C 433.067 -0.0312202 -5.34691 0
M  V30 4723 C 434.367 -2.1385 -4.76514 0
M  V30 4724 H 436.061 -1.47423 -2.60589 0
M  V30 4725 H 433.607 -0.710301 -1.25263 0
M  V30 4726 H 435.56 0.37103 -4.19763 0
M  V30 4727 H 434.284 0.981259 -3.11511 0
M  V30 4728 H 432.943 -1.11778 -3.49144 0
M  V30 4729 H 432.591 0.881515 -4.95215 0
M  V30 4730 H 432.291 -0.632434 -5.84187 0
M  V30 4731 H 433.815 0.26346 -6.10031 0
M  V30 4732 H 435.229 -1.9002 -5.40893 0
M  V30 4733 H 433.626 -2.69012 -5.36426 0
M  V30 4734 H 434.696 -2.80495 -3.95538 0
M  V30 4735 N 436.039 1.36541 -0.78704 0
M  V30 4736 C 436.969 2.32659 -0.197992 0
M  V30 4737 C 437.95 1.56533 0.665697 0
M  V30 4738 O 439.135 1.84698 0.60001 0
M  V30 4739 C 436.265 3.40778 0.669901 0
M  V30 4740 C 435.219 4.27897 -0.0937039 0
M  V30 4741 C 434.545 5.27163 0.894629 0
M  V30 4742 C 435.845 5.06334 -1.28154 0
M  V30 4743 H 437.539 2.82171 -1.00099 0
M  V30 4744 H 435.085 1.35665 -0.482793 0
M  V30 4745 H 437.038 4.07008 1.09191 0
M  V30 4746 H 435.762 2.89827 1.50558 0
M  V30 4747 H 434.421 3.6322 -0.49666 0
M  V30 4748 H 434.069 4.72486 1.72527 0
M  V30 4749 H 433.769 5.86317 0.388149 0
M  V30 4750 H 435.293 5.96266 1.31525 0
M  V30 4751 H 436.707 5.65617 -0.93541 0
M  V30 4752 H 435.104 5.74888 -1.72115 0
M  V30 4753 H 436.174 4.38114 -2.07807 0
M  V30 4754 N 437.518 0.538854 1.48102 0
M  V30 4755 C 438.743 0.0102694 2.07397 0
M  V30 4756 C 439.168 -1.26562 1.39153 0
M  V30 4757 O 438.526 -1.75357 0.460387 0
M  V30 4758 C 438.574 -0.187602 3.60112 0
M  V30 4759 O 437.678 -1.25432 3.92862 0
M  V30 4760 H 437.019 0.0430975 0.6626 0
M  V30 4761 H 439.549 0.749301 1.90385 0
M  V30 4762 H 439.559 -0.407517 4.0596 0
M  V30 4763 H 438.234 0.744386 4.09184 0
M  V30 4764 H 436.811 -1.01636 3.58782 0
M  V30 4765 N 438.996 -1.55193 0.274407 0
M  V30 4766 C 439.926 -2.25471 -0.607032 0
M  V30 4767 C 440.907 -1.24461 -1.15946 0
M  V30 4768 O 442.092 -1.53179 -1.19373 0
M  V30 4769 C 439.222 -2.97526 -1.79153 0
M  V30 4770 C 438.176 -4.05459 -1.37067 0
M  V30 4771 C 437.502 -4.65084 -2.6382 0
M  V30 4772 C 438.802 -5.19691 -0.521389 0
M  V30 4773 H 440.496 -2.99393 -0.0209343 0
M  V30 4774 H 438.042 -1.43997 -0.00862866 0
M  V30 4775 H 439.995 -3.45402 -2.41404 0
M  V30 4776 H 438.719 -2.21138 -2.40344 0
M  V30 4777 H 437.378 -3.58393 -0.771355 0
M  V30 4778 H 437.026 -3.85365 -3.23268 0
M  V30 4779 H 436.726 -5.37961 -2.36372 0
M  V30 4780 H 438.25 -5.15708 -3.26921 0
M  V30 4781 H 439.664 -5.63623 -1.04889 0
M  V30 4782 H 438.061 -5.99126 -0.341825 0
M  V30 4783 H 439.131 -4.82713 0.46 0
M  V30 4784 N 440.474 -0.00167713 -1.576 0
M  V30 4785 C 441.702 0.693759 -1.94922 0
M  V30 4786 C 442.117 1.67215 -0.876626 0
M  V30 4787 O 441.474 1.81929 0.144279 0
M  V30 4788 C 441.525 1.42416 -3.32265 0
M  V30 4789 O 441.246 0.485014 -4.35407 0
M  V30 4790 C 442.747 2.21395 -3.84056 0
M  V30 4791 H 439.967 0.193118 -0.642609 0
M  V30 4792 H 442.511 -0.0532952 -2.04431 0
M  V30 4793 H 440.666 2.12284 -3.24059 0
M  V30 4794 H 441.08 1.00053 -5.14868 0
M  V30 4795 H 442.554 2.67996 -4.82578 0
M  V30 4796 H 443.031 3.04142 -3.16851 0
M  V30 4797 H 443.637 1.56542 -3.95443 0
M  V30 4798 N 441.952 1.55251 0.271103 0
M  V30 4799 C 443.198 1.76207 1.00394 0
M  V30 4800 C 443.531 0.562604 1.85872 0
M  V30 4801 O 442.806 -0.439785 1.89463 0
M  V30 4802 C 443.089 3.06828 1.8849 0
M  V30 4803 C 442.942 4.37134 1.05992 0
M  V30 4804 C 444.261 3.33503 2.87165 0
M  V30 4805 H 441.38 0.641086 0.363562 0
M  V30 4806 H 444.022 1.87982 0.276189 0
M  V30 4807 H 442.172 2.96921 2.5054 0
M  V30 4808 H 443.844 4.59001 0.459978 0
M  V30 4809 H 442.087 4.32275 0.363443 0
M  V30 4810 H 442.758 5.2486 1.70955 0
M  V30 4811 H 445.234 3.43215 2.3525 0
M  V30 4812 H 444.11 4.2616 3.45946 0
M  V30 4813 H 444.371 2.53235 3.62387 0
M  V30 4814 N 443.43 -0.535701 1.48216 0
M  V30 4815 C 444.677 -1.29183 1.55942 0
M  V30 4816 C 445.005 -1.93125 0.230857 0
M  V30 4817 O 444.26 -1.79556 -0.778331 0
M  V30 4818 C 444.559 -2.4068 2.64212 0
M  V30 4819 C 444.225 -1.94428 4.06827 0
M  V30 4820 C 442.887 -1.81532 4.45645 0
M  V30 4821 C 445.239 -1.59405 4.96225 0
M  V30 4822 C 442.567 -1.31939 5.71672 0
M  V30 4823 C 444.919 -1.11276 6.22736 0
M  V30 4824 C 443.583 -0.969924 6.60416 0
M  V30 4825 H 442.853 -0.472715 0.570632 0
M  V30 4826 H 445.5 -0.598437 1.81909 0
M  V30 4827 H 443.805 -3.15666 2.32083 0
M  V30 4828 H 445.502 -2.98822 2.67407 0
M  V30 4829 H 442.092 -2.05415 3.76168 0
M  V30 4830 H 446.276 -1.68231 4.66917 0
M  V30 4831 H 441.532 -1.19562 5.99596 0
M  V30 4832 H 445.706 -0.832453 6.91407 0
M  V30 4833 H 443.333 -0.583436 7.57958 0
M  V30 4834 N 444.908 -1.36708 -0.784132 0
M  V30 4835 C 445.838 -1.34153 -1.91116 0
M  V30 4836 C 446.819 -0.212121 -1.68772 0
M  V30 4837 O 448.004 -0.410581 -1.8981 0
M  V30 4838 C 445.134 -1.13535 -3.28218 0
M  V30 4839 C 444.088 -2.23356 -3.65097 0
M  V30 4840 C 443.414 -1.87875 -5.00607 0
M  V30 4841 C 444.714 -3.65473 -3.73131 0
M  V30 4842 H 446.408 -2.28459 -1.93512 0
M  V30 4843 H 443.954 -1.09973 -0.929618 0
M  V30 4844 H 445.907 -1.10381 -4.06687 0
M  V30 4845 H 444.631 -0.156804 -3.26223 0
M  V30 4846 H 443.29 -2.25645 -2.88929 0
M  V30 4847 H 442.938 -0.885814 -4.95139 0
M  V30 4848 H 442.638 -2.61406 -5.26252 0
M  V30 4849 H 444.162 -1.86286 -5.81489 0
M  V30 4850 H 445.576 -3.65382 -4.41779 0
M  V30 4851 H 443.973 -4.37953 -4.10265 0
M  V30 4852 H 445.043 -3.99995 -2.74102 0
M  V30 4853 N 446.386 1.0089 -1.21074 0
M  V30 4854 C 447.316 2.1145 -0.990523 0
M  V30 4855 C 448.297 1.69897 0.0831699 0
M  V30 4856 O 449.482 1.94052 -0.0758853 0
M  V30 4857 C 446.612 3.42914 -0.550177 0
M  V30 4858 C 445.566 3.98244 -1.56799 0
M  V30 4859 C 444.892 5.25568 -0.984013 0
M  V30 4860 C 446.192 4.30752 -2.95381 0
M  V30 4861 H 447.886 2.3013 -1.91521 0
M  V30 4862 H 445.432 1.10592 -0.92225 0
M  V30 4863 H 447.385 4.19653 -0.383305 0
M  V30 4864 H 446.109 3.24014 0.41015 0
M  V30 4865 H 444.768 3.23621 -1.72236 0
M  V30 4866 H 444.416 5.02998 -0.0155216 0
M  V30 4867 H 444.116 5.63551 -1.66384 0
M  V30 4868 H 445.64 6.04955 -0.828378 0
M  V30 4869 H 447.054 4.98349 -2.8341 0
M  V30 4870 H 445.451 4.79869 -3.60341 0
M  V30 4871 H 446.521 3.39192 -3.46521 0
M  V30 4872 N 447.864 1.01787 1.20321 0
M  V30 4873 C 449.11 0.708985 1.90003 0
M  V30 4874 C 449.443 -0.759572 1.78729 0
M  V30 4875 O 448.718 -1.55198 1.17234 0
M  V30 4876 C 449.001 1.1469 3.41348 0
M  V30 4877 C 448.854 2.67586 3.61549 0
M  V30 4878 C 450.173 0.71915 4.34185 0
M  V30 4879 H 447.292 0.259034 0.689978 0
M  V30 4880 H 449.934 1.26584 1.41692 0
M  V30 4881 H 448.084 0.673128 3.82624 0
M  V30 4882 H 449.756 3.22826 3.29517 0
M  V30 4883 H 447.999 3.085 3.04976 0
M  V30 4884 H 448.67 2.93281 4.67643 0
M  V30 4885 H 451.146 1.12647 4.00562 0
M  V30 4886 H 450.022 1.05358 5.38694 0
M  V30 4887 H 450.283 -0.379111 4.40472 0
M  V30 4888 N 449.342 -1.36122 0.79427 0
M  V30 4889 C 450.591 -1.98361 0.365464 0
M  V30 4890 C 450.904 -1.6374 -1.06997 0
M  V30 4891 O 452.11 -2.19251 -1.60129 0
M  V30 4892 C 450.566 -3.54821 0.602496 0
M  V30 4893 C 450.174 -3.98362 2.04967 0
M  V30 4894 C 451.918 -4.2383 0.238437 0
M  V30 4895 C 449.825 -5.47619 2.2331 0
M  V30 4896 H 448.755 -0.742193 0.13291 0
M  V30 4897 H 451.406 -1.55354 0.976589 0
M  V30 4898 H 449.788 -3.95922 -0.078409 0
M  V30 4899 H 450.962 -3.68447 2.76737 0
M  V30 4900 H 449.277 -3.42206 2.37243 0
M  V30 4901 H 451.874 -5.33529 0.353705 0
M  V30 4902 H 452.217 -4.08264 -0.814006 0
M  V30 4903 H 452.75 -3.88108 0.872769 0
M  V30 4904 H 449.489 -5.68138 3.26955 0
M  V30 4905 H 449.009 -5.79145 1.5605 0
M  V30 4906 H 450.688 -6.13911 2.0426 0
M  V30 4907 N 450.82 -0.546701 -1.47814 0
M  V30 4908 C 452.066 -0.0187684 -2.02791 0
M  V30 4909 C 452.399 1.32338 -1.42128 0
M  V30 4910 O 451.674 1.85867 -0.573023 0
M  V30 4911 C 451.957 0.0854985 -3.59998 0
M  V30 4912 C 451.81 -1.283 -4.31114 0
M  V30 4913 C 453.129 0.80412 -4.32691 0
M  V30 4914 H 450.248 -0.0082946 -0.736953 0
M  V30 4915 H 452.89 -0.706962 -1.76358 0
M  V30 4916 H 451.04 0.671609 -3.82651 0
M  V30 4917 H 452.712 -1.91151 -4.19832 0
M  V30 4918 H 450.955 -1.86049 -3.91878 0
M  V30 4919 H 451.626 -1.16287 -5.39612 0
M  V30 4920 H 454.102 0.306576 -4.14969 0
M  V30 4921 H 452.978 0.846011 -5.42341 0
M  V30 4922 H 453.239 1.85802 -4.01161 0
M  V30 4923 N 452.299 1.55045 -0.282633 0
M  V30 4924 C 453.209 2.26491 0.61147 0
M  V30 4925 C 454.225 1.29348 1.16384 0
M  V30 4926 O 455.401 1.62298 1.19253 0
M  V30 4927 C 452.466 2.97779 1.77563 0
M  V30 4928 C 451.527 4.10418 1.25919 0
M  V30 4929 C 450.76 4.78297 2.36786 0
M  V30 4930 O 450.983 4.45426 3.56303 0
M  V30 4931 O 449.917 5.66089 2.04517 0
M  V30 4932 H 453.743 3.03683 0.0324615 0
M  V30 4933 H 451.328 1.49317 -0.0497576 0
M  V30 4934 H 453.21 3.42554 2.45427 0
M  V30 4935 H 451.885 2.23498 2.34159 0
M  V30 4936 H 450.792 3.70082 0.546797 0
M  V30 4937 H 452.125 4.86622 0.738887 0
M  V30 4938 N 453.777 0.010035 1.57597 0
M  V30 4939 C 454.707 -0.976857 2.12084 0
M  V30 4940 C 455.688 -1.35191 1.03235 0
M  V30 4941 O 456.873 -1.43389 1.3097 0
M  V30 4942 C 454.003 -2.26548 2.63236 0
M  V30 4943 C 452.957 -2.03175 3.76701 0
M  V30 4944 C 452.283 -3.38138 4.14206 0
M  V30 4945 C 453.583 -1.38625 5.03568 0
M  V30 4946 H 455.277 -0.523145 2.94794 0
M  V30 4947 H 452.823 -0.250195 1.4181 0
M  V30 4948 H 454.776 -2.95952 2.99984 0
M  V30 4949 H 453.5 -2.74051 1.77661 0
M  V30 4950 H 452.159 -1.36195 3.40362 0
M  V30 4951 H 451.807 -3.83363 3.25641 0
M  V30 4952 H 451.507 -3.23312 4.90656 0
M  V30 4953 H 453.031 -4.08841 4.53521 0
M  V30 4954 H 454.445 -1.98 5.38023 0
M  V30 4955 H 452.842 -1.34256 5.84889 0
M  V30 4956 H 453.912 -0.356722 4.83586 0
M  V30 4957 N 455.255 -1.55392 -0.262866 0
M  V30 4958 C 456.504 -1.75679 -0.990943 0
M  V30 4959 C 456.817 -0.57097 -1.87081 0
M  V30 4960 O 458.023 -0.656486 -2.63444 0
M  V30 4961 C 456.479 -3.10964 -1.81188 0
M  V30 4962 C 456.087 -4.37146 -0.980188 0
M  V30 4963 C 457.831 -3.40597 -2.53365 0
M  V30 4964 C 455.738 -5.63466 -1.7961 0
M  V30 4965 H 454.668 -0.654868 -0.373716 0
M  V30 4966 H 457.319 -1.81841 -0.246203 0
M  V30 4967 H 455.701 -2.98867 -2.59797 0
M  V30 4968 H 456.875 -4.60187 -0.237558 0
M  V30 4969 H 455.19 -4.14731 -0.372497 0
M  V30 4970 H 457.787 -4.32186 -3.14833 0
M  V30 4971 H 458.13 -2.6119 -3.24169 0
M  V30 4972 H 458.663 -3.53838 -1.81779 0
M  V30 4973 H 455.402 -6.4565 -1.13209 0
M  V30 4974 H 454.922 -5.44552 -2.51443 0
M  V30 4975 H 456.601 -6.02139 -2.36723 0
M  V30 4976 N 456.733 0.527833 -1.48498 0
M  V30 4977 C 458.144 1.10975 -1.50138 0
M  V30 4978 C 458.495 1.943 -0.272378 0
M  V30 4979 O 457.62 2.07319 0.620301 0
M  V30 4980 C 458.215 2.01927 -2.72049 0
M  V30 4981 C 456.774 2.55332 -2.76554 0
M  V30 4982 C 455.921 1.32341 -2.43683 0
M  V30 4983 H 458.872 0.312986 -1.55583 0
M  V30 4984 H 458.893 2.86244 -2.50689 0
M  V30 4985 H 458.405 1.41254 -3.61481 0
M  V30 4986 H 456.506 3.19721 -1.91336 0
M  V30 4987 H 456.619 2.94319 -3.78038 0
M  V30 4988 H 454.983 1.63989 -1.94884 0
M  V30 4989 H 455.766 0.734165 -3.35358 0
M  V30 4990 N 458.211 1.37122 0.776871 0
M  V30 4991 C 459.436 1.354 1.57104 0
M  V30 4992 C 459.861 -0.0595562 1.88006 0
M  V30 4993 O 459.219 -1.03514 1.48844 0
M  V30 4994 C 459.267 2.19472 2.8612 0
M  V30 4995 O 458.371 1.59582 3.80273 0
M  V30 4996 H 457.712 0.462869 0.476076 0
M  V30 4997 H 460.242 1.80577 0.961932 0
M  V30 4998 H 460.252 2.32502 3.35271 0
M  V30 4999 H 458.927 3.22222 2.62956 0
M  V30 5000 H 457.504 1.55564 3.38902 0
M  V30 5001 N 459.689 -1.00246 1.21608 0
M  V30 5002 C 460.917 -1.77631 1.06089 0
M  V30 5003 C 461.332 -1.84746 -0.38916 0
M  V30 5004 O 460.689 -1.31068 -1.26994 0
M  V30 5005 C 460.74 -3.21415 1.65453 0
M  V30 5006 O 460.461 -3.14703 3.04785 0
M  V30 5007 C 461.962 -4.15289 1.55079 0
M  V30 5008 H 459.182 -0.558162 0.37242 0
M  V30 5009 H 461.726 -1.26093 1.60999 0
M  V30 5010 H 459.881 -3.70053 1.14629 0
M  V30 5011 H 460.295 -4.05056 3.33212 0
M  V30 5012 H 461.769 -5.13965 2.01355 0
M  V30 5013 H 462.246 -4.36279 0.505665 0
M  V30 5014 H 462.852 -3.72543 2.05163 0
M  V30 5015 N 461.167 -1.02423 -1.1978 0
M  V30 5016 C 462.392 -0.7373 -1.93852 0
M  V30 5017 C 462.817 0.696923 -1.74713 0
M  V30 5018 O 462.175 1.48056 -1.04638 0
M  V30 5019 C 462.223 -1.08783 -3.438 0
M  V30 5020 O 461.327 -0.20383 -4.11896 0
M  V30 5021 H 460.668 -0.27284 -0.605355 0
M  V30 5022 H 463.198 -1.36966 -1.51992 0
M  V30 5023 H 463.208 -1.04276 -3.9445 0
M  V30 5024 H 461.883 -2.13274 -3.57053 0
M  V30 5025 H 460.46 -0.307091 -3.71633 0
M  V30 5026 N 462.645 1.35699 -0.801477 0
M  V30 5027 C 463.87 2.03687 -0.390678 0
M  V30 5028 C 464.295 1.60015 0.988778 0
M  V30 5029 O 463.653 0.774357 1.63931 0
M  V30 5030 C 463.701 3.57439 -0.476404 0
M  V30 5031 O 462.805 4.09208 0.512106 0
M  V30 5032 H 462.146 0.64344 -0.163956 0
M  V30 5033 H 464.676 1.73403 -1.08594 0
M  V30 5034 H 464.686 4.06544 -0.344357 0
M  V30 5035 H 463.361 3.88576 -1.48262 0
M  V30 5036 H 461.938 3.7134 0.340721 0
M  V30 5037 N 464.123 0.554532 1.47522 0
M  V30 5038 C 465.086 -0.184174 2.28459 0
M  V30 5039 C 466.086 -0.845195 1.36796 0
M  V30 5040 O 467.276 -0.701467 1.59452 0
M  V30 5041 C 464.408 -1.26903 3.16399 0
M  V30 5042 H 465.601 0.526751 2.95238 0
M  V30 5043 H 463.154 0.311375 1.53167 0
M  V30 5044 H 463.889 -2.01244 2.54306 0
M  V30 5045 H 463.674 -0.799883 3.83854 0
M  V30 5046 H 465.164 -1.78794 3.77389 0
M  V30 5047 N 465.601 -1.54893 0.290851 0
M  V30 5048 C 466.847 -2.0023 -0.321867 0
M  V30 5049 C 467.18 -1.179 -1.54316 0
M  V30 5050 O 466.455 -0.25293 -1.92848 0
M  V30 5051 C 466.738 -3.53456 -0.688515 0
M  V30 5052 C 466.591 -4.46532 0.541209 0
M  V30 5053 C 467.91 -4.13057 -1.51895 0
M  V30 5054 H 465.029 -0.727891 -0.115515 0
M  V30 5055 H 467.671 -1.85722 0.400931 0
M  V30 5056 H 465.821 -3.6595 -1.30433 0
M  V30 5057 H 467.493 -4.4596 1.17973 0
M  V30 5058 H 465.736 -4.17545 1.17636 0
M  V30 5059 H 466.407 -5.51475 0.240675 0
M  V30 5060 H 468.883 -4.03937 -0.99872 0
M  V30 5061 H 467.759 -5.20448 -1.74429 0
M  V30 5062 H 468.02 -3.64284 -2.50498 0
M  V30 5063 N 467.08 -0.0183926 -1.57589 0
M  V30 5064 C 468.491 0.521927 -1.79256 0
M  V30 5065 C 468.842 1.72885 -0.927636 0
M  V30 5066 O 467.967 2.15978 -0.135091 0
M  V30 5067 C 468.562 0.953632 -3.25102 0
M  V30 5068 C 467.121 1.43913 -3.47801 0
M  V30 5069 C 466.268 0.398837 -2.74417 0
M  V30 5070 H 469.219 -0.244485 -1.56805 0
M  V30 5071 H 469.24 1.81863 -3.34224 0
M  V30 5072 H 468.752 0.0750123 -3.88028 0
M  V30 5073 H 466.853 2.33804 -2.90115 0
M  V30 5074 H 466.966 1.45391 -4.56507 0
M  V30 5075 H 465.33 0.864572 -2.39577 0
M  V30 5076 H 466.113 -0.471132 -3.40052 0
M  V30 5077 N 468.558 1.5553 0.254621 0
M  V30 5078 C 469.488 1.9268 1.31897 0
M  V30 5079 C 470.469 0.790797 1.506 0
M  V30 5080 O 471.654 1.05045 1.63337 0
M  V30 5081 C 468.784 2.21477 2.67517 0
M  V30 5082 C 467.738 3.37256 2.63519 0
M  V30 5083 C 467.064 3.51576 4.02862 0
M  V30 5084 C 468.364 4.73157 2.21179 0
M  V30 5085 H 470.058 2.81832 1.01051 0
M  V30 5086 H 467.604 1.35599 0.484662 0
M  V30 5087 H 469.557 2.46055 3.42104 0
M  V30 5088 H 468.281 1.29144 2.99982 0
M  V30 5089 H 466.94 3.12675 1.9139 0
M  V30 5090 H 466.588 2.56676 4.32581 0
M  V30 5091 H 466.288 4.2943 4.01078 0
M  V30 5092 H 467.812 3.78467 4.79161 0
M  V30 5093 H 469.226 4.97158 2.85494 0
M  V30 5094 H 467.623 5.54058 2.30521 0
M  V30 5095 H 468.693 4.70739 1.16332 0
M  V30 5096 N 470.036 -0.519951 1.48776 0
M  V30 5097 C 471.285 -1.27175 1.56555 0
M  V30 5098 C 471.598 -1.9401 0.248869 0
M  V30 5099 O 472.804 -2.70725 0.205004 0
M  V30 5100 C 471.26 -2.30811 2.76142 0
M  V30 5101 C 470.868 -1.7 4.14493 0
M  V30 5102 C 472.612 -3.06937 2.9324 0
M  V30 5103 C 470.519 -2.71635 5.25327 0
M  V30 5104 H 469.449 -0.478329 0.582853 0
M  V30 5105 H 472.1 -0.547916 1.75129 0
M  V30 5106 H 470.482 -3.06274 2.51023 0
M  V30 5107 H 471.656 -1.00658 4.49672 0
M  V30 5108 H 469.971 -1.06331 4.02595 0
M  V30 5109 H 472.568 -3.82905 3.73213 0
M  V30 5110 H 472.911 -3.63409 2.03075 0
M  V30 5111 H 473.444 -2.38589 3.18308 0
M  V30 5112 H 470.183 -2.1997 6.1749 0
M  V30 5113 H 469.703 -3.39275 4.94624 0
M  V30 5114 H 471.382 -3.34429 5.53865 0
M  V30 5115 N 471.514 -1.37532 -0.769588 0
M  V30 5116 C 472.762 -1.32597 -1.5252 0
M  V30 5117 C 473.083 0.0884294 -1.94799 0
M  V30 5118 O 472.353 1.03289 -1.66458 0
M  V30 5119 H 470.933 -0.487846 -0.565699 0
M  V30 5120 H 473.595 -1.72044 -0.915806 0
M  V30 5121 H 472.691 -1.96643 -2.42359 0
M  V30 5122 N 472.992 0.995999 -1.22138 0
M  V30 5123 C 473.939 2.08551 -0.988687 0
M  V30 5124 C 474.909 1.65864 0.0885021 0
M  V30 5125 O 476.094 1.90704 -0.0604589 0
M  V30 5126 C 473.234 3.40374 -0.569191 0
M  V30 5127 C 472.347 3.96421 -1.71681 0
M  V30 5128 C 471.482 5.1639 -1.2456 0
M  V30 5129 C 470.521 5.64567 -2.36497 0
M  V30 5130 N 469.658 6.75777 -1.90445 0
M  V30 5131 H 474.498 2.2779 -1.92135 0
M  V30 5132 H 472.035 1.1168 -0.957388 0
M  V30 5133 H 473.993 4.16068 -0.307166 0
M  V30 5134 H 472.623 3.21145 0.326462 0
M  V30 5135 H 471.675 3.17628 -2.09324 0
M  V30 5136 H 472.987 4.2816 -2.55891 0
M  V30 5137 H 472.141 5.99362 -0.940774 0
M  V30 5138 H 470.88 4.86266 -0.373662 0
M  V30 5139 H 469.885 4.80185 -2.67772 0
M  V30 5140 H 471.11 5.96716 -3.24202 0
M  V30 5141 H 469.056 6.47443 -1.05609 0
M  V30 5142 H 468.973 7.06818 -2.68223 0
M  V30 5143 H 470.241 7.62262 -1.63022 0
M  V30 5144 N 474.47 1.03057 1.19235 0
M  V30 5145 C 475.7 0.746613 1.92638 0
M  V30 5146 C 476.108 -0.698708 1.75826 0
M  V30 5147 O 475.451 -1.487 1.07861 0
M  V30 5148 C 475.513 1.02024 3.44719 0
M  V30 5149 C 475.177 2.45745 3.85303 0
M  V30 5150 C 476.174 3.43887 3.8992 0
M  V30 5151 C 473.859 2.8019 4.16892 0
M  V30 5152 C 475.853 4.74529 4.2556 0
M  V30 5153 C 473.54 4.1104 4.52205 0
M  V30 5154 C 474.538 5.0802 4.56513 0
M  V30 5155 O 474.226 6.36527 4.91008 0
M  V30 5156 H 473.958 0.272401 0.618687 0
M  V30 5157 H 476.512 1.37853 1.52269 0
M  V30 5158 H 474.742 0.331184 3.85279 0
M  V30 5159 H 476.431 0.725677 3.9936 0
M  V30 5160 H 477.197 3.18614 3.65664 0
M  V30 5161 H 473.076 2.05382 4.12722 0
M  V30 5162 H 476.62 5.50222 4.28838 0
M  V30 5163 H 472.517 4.36086 4.7592 0
M  V30 5164 H 473.285 6.41025 5.08949 0
M  V30 5165 N 475.948 -1.35272 0.808662 0
M  V30 5166 C 476.881 -2.27595 0.165994 0
M  V30 5167 C 477.859 -1.48189 -0.669241 0
M  V30 5168 O 479.043 -1.77444 -0.636073 0
M  V30 5169 C 476.17 -3.29843 -0.769505 0
M  V30 5170 C 475.216 -4.26498 -0.0136267 0
M  V30 5171 S 476.049 -5.18878 1.32384 0
M  V30 5172 C 477.205 -6.24666 0.392838 0
M  V30 5173 H 477.438 -2.81755 0.948756 0
M  V30 5174 H 474.971 -1.42103 0.603828 0
M  V30 5175 H 476.929 -3.89247 -1.30374 0
M  V30 5176 H 475.59 -2.74558 -1.52567 0
M  V30 5177 H 474.783 -4.98769 -0.724227 0
M  V30 5178 H 474.385 -3.71274 0.450713 0
M  V30 5179 H 476.677 -6.7619 -0.4211 0
M  V30 5180 H 477.62 -6.99741 1.0848 0
M  V30 5181 H 478.028 -5.64499 -0.0123908 0
M  V30 5182 N 477.426 -0.562348 -1.47226 0
M  V30 5183 C 478.356 0.170627 -2.32876 0
M  V30 5184 C 479.337 0.903748 -1.44106 0
M  V30 5185 O 480.522 0.883206 -1.72954 0
M  V30 5186 C 477.652 1.19786 -3.25989 0
M  V30 5187 C 476.606 0.580875 -4.2404 0
M  V30 5188 C 475.932 1.71311 -5.06514 0
M  V30 5189 C 477.232 -0.468714 -5.20193 0
M  V30 5190 H 478.926 -0.544441 -2.94408 0
M  V30 5191 H 476.472 -0.263271 -1.41573 0
M  V30 5192 H 478.425 1.71884 -3.84752 0
M  V30 5193 H 477.149 1.94294 -2.62521 0
M  V30 5194 H 475.808 0.0811538 -3.6651 0
M  V30 5195 H 475.456 2.44736 -4.39447 0
M  V30 5196 H 475.156 1.30604 -5.72902 0
M  V30 5197 H 476.68 2.23725 -5.68137 0
M  V30 5198 H 478.094 -0.0336028 -5.7329 0
M  V30 5199 H 476.491 -0.794957 -5.94811 0
M  V30 5200 H 477.561 -1.36269 -4.65359 0
M  V30 5201 N 478.904 1.54736 -0.299062 0
M  V30 5202 C 480.151 2.00101 0.310784 0
M  V30 5203 C 480.479 1.18746 1.54045 0
M  V30 5204 O 479.734 0.251198 1.94081 0
M  V30 5205 C 480.033 3.50199 0.713835 0
M  V30 5206 C 479.699 4.48997 -0.413873 0
M  V30 5207 C 478.361 4.7573 -0.723462 0
M  V30 5208 C 480.713 5.07839 -1.17257 0
M  V30 5209 C 478.041 5.5857 -1.79491 0
M  V30 5210 C 480.393 5.91844 -2.23392 0
M  V30 5211 C 479.057 6.16889 -2.54959 0
M  V30 5212 H 478.327 0.732221 0.113724 0
M  V30 5213 H 480.974 1.86888 -0.417756 0
M  V30 5214 H 479.279 3.61012 1.52243 0
M  V30 5215 H 480.976 3.82723 1.19684 0
M  V30 5216 H 477.566 4.28292 -0.162476 0
M  V30 5217 H 481.75 4.87188 -0.946651 0
M  V30 5218 H 477.006 5.76213 -2.04423 0
M  V30 5219 H 481.18 6.36465 -2.8264 0
M  V30 5220 H 478.807 6.80869 -3.38114 0
M  V30 5221 N 480.382 0.0267497 1.57577 0
M  V30 5222 C 481.61 -0.662661 1.96001 0
M  V30 5223 C 482.025 -1.65799 0.903117 0
M  V30 5224 O 481.382 -1.82135 -0.115317 0
M  V30 5225 C 481.433 -1.37112 3.34488 0
M  V30 5226 O 481.154 -0.415683 4.36123 0
M  V30 5227 C 482.655 -2.15257 3.8753 0
M  V30 5228 H 479.875 -0.18287 0.6456 0
M  V30 5229 H 482.419 0.0858116 2.0432 0
M  V30 5230 H 480.574 -2.07101 3.27395 0
M  V30 5231 H 480.988 -0.918496 5.16395 0
M  V30 5232 H 482.462 -2.60285 4.86781 0
M  V30 5233 H 482.939 -2.99063 3.21649 0
M  V30 5234 H 483.545 -1.50231 3.97883 0
M  V30 5235 N 481.861 -1.55662 -0.24637 0
M  V30 5236 C 482.794 -1.85332 -1.33143 0
M  V30 5237 C 483.772 -0.708464 -1.46354 0
M  V30 5238 O 484.956 -0.954274 -1.6256 0
M  V30 5239 C 482.083 -2.0385 -2.70487 0
M  V30 5240 C 481.129 -3.26488 -2.74423 0
M  V30 5241 S 481.962 -4.83124 -2.30979 0
M  V30 5242 C 483.118 -5.04647 -3.70246 0
M  V30 5243 H 483.351 -2.77077 -1.07777 0
M  V30 5244 H 480.884 -1.47776 -0.44738 0
M  V30 5245 H 482.842 -2.15202 -3.49569 0
M  V30 5246 H 481.503 -1.12947 -2.9309 0
M  V30 5247 H 480.696 -3.36413 -3.7529 0
M  V30 5248 H 480.298 -3.13864 -2.03385 0
M  V30 5249 H 482.59 -4.92023 -4.65746 0
M  V30 5250 H 483.533 -6.06625 -3.65255 0
M  V30 5251 H 483.941 -4.32491 -3.62784 0
M  V30 5252 N 483.339 0.512053 -1.4905 0
M  V30 5253 C 484.585 1.26874 -1.58212 0
M  V30 5254 C 484.918 1.9241 -0.263073 0
M  V30 5255 O 484.193 1.80181 0.732476 0
M  V30 5256 C 484.476 2.34428 -2.73341 0
M  V30 5257 C 484.329 1.73466 -4.15006 0
M  V30 5258 C 485.648 3.36073 -2.84154 0
M  V30 5259 H 482.767 0.459924 -0.575881 0
M  V30 5260 H 485.409 0.568587 -1.81293 0
M  V30 5261 H 483.559 2.94146 -2.53792 0
M  V30 5262 H 485.231 1.17661 -4.46042 0
M  V30 5263 H 483.474 1.03921 -4.21168 0
M  V30 5264 H 484.145 2.51426 -4.91415 0
M  V30 5265 H 486.621 2.86332 -3.01916 0
M  V30 5266 H 485.497 4.08703 -3.66406 0
M  V30 5267 H 485.758 3.97725 -1.93048 0
M  V30 5268 N 484.817 1.37938 0.762283 0
M  V30 5269 C 486.064 1.33668 1.52115 0
M  V30 5270 C 486.392 -0.0759538 1.94352 0
M  V30 5271 O 485.647 -1.05121 1.6507 0
M  V30 5272 C 485.946 2.23042 2.79261 0
M  V30 5273 C 485.612 3.71159 2.56031 0
M  V30 5274 C 484.274 4.11523 2.49404 0
M  V30 5275 C 486.626 4.64955 2.35513 0
M  V30 5276 C 483.954 5.43784 2.20263 0
M  V30 5277 C 486.306 5.97464 2.07894 0
M  V30 5278 C 484.97 6.36922 1.99718 0
M  V30 5279 H 484.24 0.489127 0.556629 0
M  V30 5280 H 486.887 1.70224 0.877262 0
M  V30 5281 H 485.192 1.79512 3.48256 0
M  V30 5282 H 486.889 2.17047 3.37182 0
M  V30 5283 H 483.479 3.39153 2.62056 0
M  V30 5284 H 487.663 4.34623 2.39617 0
M  V30 5285 H 482.919 5.73307 2.12435 0
M  V30 5286 H 487.093 6.6969 1.91019 0
M  V30 5287 H 484.72 7.39331 1.76902 0
M  V30 5288 N 486.295 -0.989507 1.22664 0
M  V30 5289 C 487.541 -1.7321 1.05481 0
M  V30 5290 C 487.874 -1.89852 -0.408635 0
M  V30 5291 O 487.149 -1.44416 -1.30285 0
M  V30 5292 C 487.432 -3.1357 1.77047 0
M  V30 5293 C 487.285 -3.04555 3.31008 0
M  V30 5294 C 488.604 -4.12812 1.5256 0
M  V30 5295 H 485.723 -0.628697 0.384589 0
M  V30 5296 H 488.365 -1.15258 1.51049 0
M  V30 5297 H 486.515 -3.63046 1.3831 0
M  V30 5298 H 488.187 -2.62674 3.7921 0
M  V30 5299 H 486.43 -2.41278 3.6051 0
M  V30 5300 H 487.101 -4.03894 3.76263 0
M  V30 5301 H 489.577 -3.72106 1.86215 0
M  V30 5302 H 488.453 -5.09132 2.05124 0
M  V30 5303 H 488.714 -4.39711 0.458936 0
M  V30 5304 N 487.773 -1.03688 -1.18687 0
M  V30 5305 C 489.022 -0.733235 -1.879 0
M  V30 5306 C 489.335 0.741745 -1.8099 0
M  V30 5307 O 490.541 1.15875 -2.4553 0
M  V30 5308 C 488.997 -1.26127 -3.37076 0
M  V30 5309 C 488.605 -2.76461 -3.52524 0
M  V30 5310 C 490.349 -1.03398 -4.11715 0
M  V30 5311 C 488.256 -3.22642 -4.95637 0
M  V30 5312 H 487.186 -0.270584 -0.703776 0
M  V30 5313 H 489.837 -1.25222 -1.34133 0
M  V30 5314 H 488.219 -0.670165 -3.90288 0
M  V30 5315 H 489.393 -3.41296 -3.09602 0
M  V30 5316 H 487.708 -2.97559 -2.91286 0
M  V30 5317 H 490.305 -1.3542 -5.17267 0
M  V30 5318 H 490.648 0.0289246 -4.1629 0
M  V30 5319 H 491.181 -1.5895 -3.64664 0
M  V30 5320 H 487.92 -4.28296 -4.96228 0
M  V30 5321 H 487.44 -2.62539 -5.39289 0
M  V30 5322 H 489.119 -3.16444 -5.64333 0
M  V30 5323 N 489.251 1.34841 -0.815825 0
M  V30 5324 C 490.214 2.27959 -0.238185 0
M  V30 5325 C 491.214 1.49983 0.579816 0
M  V30 5326 O 492.404 1.69617 0.396953 0
M  V30 5327 C 489.536 3.34314 0.666876 0
M  V30 5328 H 490.729 2.80558 -1.05958 0
M  V30 5329 H 488.282 1.44852 -0.587156 0
M  V30 5330 H 489.017 2.86916 1.5116 0
M  V30 5331 H 488.802 3.92014 0.0819106 0
M  V30 5332 H 490.292 4.0379 1.06506 0
M  V30 5333 N 490.729 0.570148 1.46925 0
M  V30 5334 C 491.954 0.0542592 2.07329 0
M  V30 5335 C 492.379 -1.23582 1.41806 0
M  V30 5336 O 491.737 -1.74341 0.497479 0
M  V30 5337 C 491.785 -0.111175 3.60429 0
M  V30 5338 O 490.889 -1.17071 3.95434 0
M  V30 5339 H 490.23 0.0571425 0.661537 0
M  V30 5340 H 492.76 0.789516 1.88753 0
M  V30 5341 H 492.77 -0.321315 4.06733 0
M  V30 5342 H 491.445 0.831012 4.07513 0
M  V30 5343 H 490.022 -0.940029 3.60857 0
M  V30 5344 N 492.207 -1.54576 0.307264 0
M  V30 5345 C 493.456 -1.99442 -0.300976 0
M  V30 5346 C 493.769 -1.19928 -1.5452 0
M  V30 5347 O 494.975 -1.55092 -2.22842 0
M  V30 5348 C 493.431 -3.55084 -0.586809 0
M  V30 5349 C 493.039 -4.43413 0.639438 0
M  V30 5350 C 494.783 -4.0846 -1.1559 0
M  V30 5351 C 492.69 -5.90499 0.326411 0
M  V30 5352 H 491.62 -0.744986 -0.116238 0
M  V30 5353 H 494.271 -1.787 0.416947 0
M  V30 5354 H 492.653 -3.71749 -1.36449 0
M  V30 5355 H 493.827 -4.38522 1.41545 0
M  V30 5356 H 492.142 -4.00842 1.1276 0
M  V30 5357 H 494.739 -5.15926 -1.40445 0
M  V30 5358 H 495.082 -3.59443 -2.10015 0
M  V30 5359 H 495.615 -3.95362 -0.439778 0
M  V30 5360 H 492.354 -6.43676 1.23939 0
M  V30 5361 H 491.874 -5.98382 -0.412212 0
M  V30 5362 H 493.553 -6.46962 -0.0697393 0
M  V30 5363 N 493.685 -0.035106 -1.57561 0
M  V30 5364 C 494.934 0.641604 -1.91223 0
M  V30 5365 C 495.247 1.72944 -0.913761 0
M  V30 5366 O 496.453 2.46321 -1.14185 0
M  V30 5367 C 494.909 1.19249 -3.3957 0
M  V30 5368 C 494.517 0.137616 -4.47789 0
M  V30 5369 C 496.261 1.84537 -3.82291 0
M  V30 5370 C 494.168 0.700478 -5.87237 0
M  V30 5371 H 493.098 0.243417 -0.713627 0
M  V30 5372 H 495.749 -0.101382 -1.8322 0
M  V30 5373 H 494.131 1.98728 -3.42525 0
M  V30 5374 H 495.305 -0.635153 -4.56402 0
M  V30 5375 H 493.62 -0.416855 -4.14308 0
M  V30 5376 H 496.217 2.27616 -4.83834 0
M  V30 5377 H 496.56 2.69054 -3.17672 0
M  V30 5378 H 497.093 1.11739 -3.81784 0
M  V30 5379 H 493.832 -0.106693 -6.55413 0
M  V30 5380 H 493.352 1.4416 -5.82218 0
M  V30 5381 H 495.031 1.18837 -6.35993 0
M  V30 5382 N 495.163 1.55791 0.238111 0
M  V30 5383 C 496.412 1.77234 0.962868 0
M  V30 5384 C 496.725 0.600661 1.86149 0
M  V30 5385 O 497.931 0.698315 2.62366 0
M  V30 5386 C 496.387 3.13808 1.76218 0
M  V30 5387 C 495.995 4.3865 0.910518 0
M  V30 5388 C 497.739 3.44585 2.47914 0
M  V30 5389 C 495.646 5.66252 1.70623 0
M  V30 5390 H 494.576 0.660731 0.36325 0
M  V30 5391 H 497.227 1.8221 0.217242 0
M  V30 5392 H 495.609 3.02963 2.55009 0
M  V30 5393 H 496.783 4.60507 0.164316 0
M  V30 5394 H 495.098 4.15271 0.30647 0
M  V30 5395 H 497.695 4.3714 3.07917 0
M  V30 5396 H 498.038 2.66314 3.19973 0
M  V30 5397 H 498.571 3.56685 1.76127 0
M  V30 5398 H 495.31 6.47369 1.02923 0
M  V30 5399 H 494.83 5.48483 2.42748 0
M  V30 5400 H 496.509 6.05829 2.27114 0
M  V30 5401 N 496.642 -0.504142 1.49319 0
M  V30 5402 C 497.87 -1.28256 1.62351 0
M  V30 5403 C 498.285 -1.86502 0.293682 0
M  V30 5404 O 497.642 -1.67678 -0.720449 0
M  V30 5405 C 497.693 -2.41507 2.68992 0
M  V30 5406 O 497.414 -1.85656 3.96817 0
M  V30 5407 C 498.915 -3.32929 2.927 0
M  V30 5408 H 496.135 -0.389115 0.546654 0
M  V30 5409 H 498.679 -0.605531 1.95329 0
M  V30 5410 H 496.834 -3.05046 2.38801 0
M  V30 5411 H 497.248 -2.59981 4.55533 0
M  V30 5412 H 498.722 -4.0868 3.71058 0
M  V30 5413 H 499.199 -3.89733 2.02496 0
M  V30 5414 H 499.805 -2.75158 3.24296 0
M  V30 5415 N 498.12 -1.38341 -0.754957 0
M  V30 5416 C 499.366 -1.34672 -1.51628 0
M  V30 5417 C 499.699 0.0636036 -1.94096 0
M  V30 5418 O 498.974 1.0245 -1.6533 0
M  V30 5419 C 499.257 -2.30116 -2.76981 0
M  V30 5420 C 499.11 -3.80003 -2.4066 0
M  V30 5421 C 500.429 -2.23715 -3.78998 0
M  V30 5422 H 497.548 -0.490517 -0.550056 0
M  V30 5423 H 500.19 -1.69178 -0.864807 0
M  V30 5424 H 498.34 -2.00821 -3.3257 0
M  V30 5425 H 500.012 -4.19966 -1.90856 0
M  V30 5426 H 498.255 -3.97751 -1.73137 0
M  V30 5427 H 498.926 -4.42244 -3.30339 0
M  V30 5428 H 501.402 -2.49574 -3.32945 0
M  V30 5429 H 500.278 -2.9261 -4.64403 0
M  V30 5430 H 500.539 -1.23554 -4.24484 0
M  V30 5431 N 499.598 0.982988 -1.23187 0
M  V30 5432 C 500.847 1.71817 -1.05649 0
M  V30 5433 C 501.16 1.91315 0.407176 0
M  V30 5434 O 502.366 2.62256 0.702436 0
M  V30 5435 C 500.822 3.09188 -1.84203 0
M  V30 5436 C 500.43 2.97586 -3.34882 0
M  V30 5437 C 502.174 3.86684 -1.75146 0
M  V30 5438 C 500.081 4.30173 -4.05839 0
M  V30 5439 H 499.011 0.644258 -0.391724 0
M  V30 5440 H 501.662 1.09659 -1.4713 0
M  V30 5441 H 500.044 3.72087 -1.35527 0
M  V30 5442 H 501.218 2.43793 -3.91026 0
M  V30 5443 H 499.533 2.33567 -3.44725 0
M  V30 5444 H 502.13 4.84836 -2.25473 0
M  V30 5445 H 502.473 4.10136 -0.713737 0
M  V30 5446 H 503.006 3.30482 -2.21419 0
M  V30 5447 H 499.745 4.11918 -5.09906 0
M  V30 5448 H 499.265 4.83841 -3.54482 0
M  V30 5449 H 500.944 4.98873 -4.11989 0
M  V30 5450 N 501.076 1.04316 1.18135 0
M  V30 5451 C 502.322 0.749128 1.88457 0
M  V30 5452 C 502.655 -0.72149 1.803 0
M  V30 5453 O 501.93 -1.52676 1.205 0
M  V30 5454 C 502.213 1.21905 3.38838 0
M  V30 5455 C 502.066 2.75195 3.55792 0
M  V30 5456 C 503.385 0.811085 4.32561 0
M  V30 5457 H 500.504 0.273611 0.684329 0
M  V30 5458 H 503.146 1.29561 1.38975 0
M  V30 5459 H 501.296 0.754137 3.8111 0
M  V30 5460 H 502.968 3.29743 3.22595 0
M  V30 5461 H 501.211 3.14899 2.98364 0
M  V30 5462 H 501.882 3.03135 4.61317 0
M  V30 5463 H 504.358 1.21118 3.98082 0
M  V30 5464 H 503.234 1.16761 5.36338 0
M  V30 5465 H 503.495 -0.285596 4.41177 0
M  V30 5466 N 502.554 -1.34406 0.822964 0
M  V30 5467 C 503.803 -1.97542 0.407458 0
M  V30 5468 C 504.116 -1.65973 -1.035 0
M  V30 5469 O 505.322 -2.22598 -1.55442 0
M  V30 5470 C 503.778 -3.53463 0.677623 0
M  V30 5471 C 503.386 -3.93925 2.1337 0
M  V30 5472 C 505.13 -4.23229 0.328284 0
M  V30 5473 C 503.037 -5.42759 2.34876 0
M  V30 5474 H 501.967 -0.739207 0.148623 0
M  V30 5475 H 504.618 -1.53248 1.00932 0
M  V30 5476 H 503 -3.96 0.00558965 0
M  V30 5477 H 504.174 -3.62494 2.8449 0
M  V30 5478 H 502.489 -3.37097 2.44448 0
M  V30 5479 H 505.086 -5.32659 0.466794 0
M  V30 5480 H 505.429 -4.09899 -0.727224 0
M  V30 5481 H 505.962 -3.86169 0.954896 0
M  V30 5482 H 502.701 -5.61075 3.38932 0
M  V30 5483 H 502.221 -5.75704 1.68299 0
M  V30 5484 H 503.9 -6.0944 2.17236 0
M  V30 5485 N 504.032 -0.577932 -1.46621 0
M  V30 5486 C 504.98 0.170882 -2.31971 0
M  V30 5487 C 505.974 0.889086 -1.44193 0
M  V30 5488 O 507.18 0.808017 -1.60845 0
M  V30 5489 H 503.555 0.0739763 -0.748353 0
M  V30 5490 H 505.526 -0.567856 -2.92947 0
M  V30 5491 C 504.275 1.17438 -3.27267 0
M  V30 5492 H 503.598 0.63116 -3.94787 0
M  V30 5493 H 505.038 1.66882 -3.89778 0
M  V30 5494 C 503.497 2.23292 -2.52274 0
M  V30 5495 O 504.027 3.30567 -2.28229 0
M  V30 5496 N 502.233 1.97772 -2.12919 0
M  V30 5497 H 501.78 1.10545 -2.32675 0
M  V30 5498 H 501.738 2.68809 -1.63062 0
M  V30 5499 N 505.51 1.54411 -0.315457 0
M  V30 5500 C 506.738 2.04833 0.291738 0
M  V30 5501 C 507.153 1.19203 1.46411 0
M  V30 5502 O 506.51 0.220867 1.81159 0
M  V30 5503 C 506.561 3.53969 0.73404 0
M  V30 5504 O 506.282 4.36346 -0.391682 0
M  V30 5505 C 507.783 4.2045 1.40489 0
M  V30 5506 H 505.003 0.668195 0.0612947 0
M  V30 5507 H 507.547 1.99276 -0.45929 0
M  V30 5508 H 505.702 3.5984 1.43506 0
M  V30 5509 H 506.116 5.24481 -0.0447088 0
M  V30 5510 H 507.59 5.26278 1.66539 0
M  V30 5511 H 508.067 3.71067 2.3496 0
M  V30 5512 H 508.673 4.18694 0.746662 0
M  V30 5513 N 506.988 0.0434614 1.5754 0
M  V30 5514 C 507.938 -0.943039 2.07583 0
M  V30 5515 C 508.922 -1.27662 0.979342 0
M  V30 5516 O 510.114 -1.26034 1.24276 0
M  V30 5517 C 507.243 -2.22056 2.61813 0
M  V30 5518 C 506.329 -1.91471 3.78417 0
M  V30 5519 N 506.72 -1.31214 4.88484 0
M  V30 5520 C 505.018 -2.21384 3.87176 0
M  V30 5521 C 505.719 -1.18084 5.69588 0
M  V30 5522 N 504.695 -1.68116 5.16951 0
M  V30 5523 H 508.497 -0.472354 2.90079 0
M  V30 5524 H 506.011 -0.161191 1.61598 0
M  V30 5525 H 508.008 -2.93618 2.95963 0
M  V30 5526 H 506.668 -2.69738 1.80752 0
M  V30 5527 H 507.679 -0.985318 5.08441 0
M  V30 5528 H 504.356 -2.7164 3.17046 0
M  V30 5529 H 505.746 -0.713684 6.68099 0
M  V30 5530 N 508.466 -1.55915 -0.229846 0
M  V30 5531 C 509.416 -1.8813 -1.28807 0
M  V30 5532 C 510.4 -0.743621 -1.42685 0
M  V30 5533 O 511.592 -1.00588 -1.4564 0
M  V30 5534 C 508.721 -2.19431 -2.64017 0
M  V30 5535 C 507.807 -3.39569 -2.54074 0
M  V30 5536 N 508.198 -4.58404 -2.13774 0
M  V30 5537 C 506.496 -3.43019 -2.85051 0
M  V30 5538 C 507.197 -5.40557 -2.1488 0
M  V30 5539 N 506.173 -4.80054 -2.55047 0
M  V30 5540 H 509.975 -2.77527 -0.967261 0
M  V30 5541 H 507.489 -1.5637 -0.438433 0
M  V30 5542 H 509.486 -2.40681 -3.40409 0
M  V30 5543 H 508.146 -1.31341 -2.9695 0
M  V30 5544 H 509.157 -4.83716 -1.8504 0
M  V30 5545 H 505.834 -2.65249 -3.22411 0
M  V30 5546 H 507.224 -6.45666 -1.85918 0
M  V30 5547 N 509.944 0.496216 -1.49584 0
M  V30 5548 C 511.36 0.827814 -1.36453 0
M  V30 5549 C 511.56 1.97464 -0.401285 0
M  V30 5550 O 510.616 2.51958 0.165296 0
M  V30 5551 C 511.929 1.16352 -2.77277 0
M  V30 5552 C 513.477 1.27145 -2.86013 0
M  V30 5553 C 513.952 1.64042 -4.27615 0
M  V30 5554 N 515.443 1.71082 -4.30448 0
M  V30 5555 C 516.178 2.01085 -5.36984 0
M  V30 5556 N 515.674 2.2928 -6.5376 0
M  V30 5557 N 517.467 2.02376 -5.24405 0
M  V30 5558 H 509.618 -0.259947 -2.10803 0
M  V30 5559 H 511.881 -0.0537163 -0.946477 0
M  V30 5560 H 511.587 0.394153 -3.49484 0
M  V30 5561 H 511.461 2.10582 -3.12946 0
M  V30 5562 H 513.848 2.03152 -2.1404 0
M  V30 5563 H 513.929 0.309542 -2.5392 0
M  V30 5564 H 513.573 0.88583 -5.00115 0
M  V30 5565 H 513.503 2.6134 -4.57175 0
M  V30 5566 H 515.994 1.51434 -3.46232 0
M  V30 5567 H 516.307 2.51376 -7.30774 0
M  V30 5568 H 514.652 2.26726 -6.56978 0
M  V30 5569 H 517.843 1.79829 -4.32179 0
M  V30 5570 H 518.016 2.25425 -6.07526 0
M  V30 5571 N 511.423 1.38739 0.74761 0
M  V30 5572 C 512.648 1.38702 1.54197 0
M  V30 5573 C 513.073 -0.019664 1.8809 0
M  V30 5574 O 512.431 -1.00333 1.51006 0
M  V30 5575 C 512.479 2.25492 2.814 0
M  V30 5576 O 511.583 1.67613 3.76802 0
M  V30 5577 H 510.924 0.472863 0.466151 0
M  V30 5578 H 513.454 1.82577 0.923413 0
M  V30 5579 H 513.464 2.39561 3.30264 0
M  V30 5580 H 512.139 3.27727 2.56062 0
M  V30 5581 H 510.716 1.62718 3.35526 0
M  V30 5582 N 512.901 -0.976442 1.23707 0
M  V30 5583 C 514.312 -1.53284 1.06587 0
M  V30 5584 C 514.663 -1.92765 -0.365526 0
M  V30 5585 O 513.788 -1.7645 -1.25277 0
M  V30 5586 C 514.383 -2.78548 1.92864 0
M  V30 5587 C 512.942 -3.30574 1.79994 0
M  V30 5588 C 512.089 -2.03538 1.88328 0
M  V30 5589 H 515.04 -0.795692 1.37311 0
M  V30 5590 H 515.061 -3.5155 1.45577 0
M  V30 5591 H 514.573 -2.49782 2.97037 0
M  V30 5592 H 512.674 -3.64211 0.786202 0
M  V30 5593 H 512.787 -4.00065 2.636 0
M  V30 5594 H 511.151 -2.17853 1.31954 0
M  V30 5595 H 511.934 -1.77149 2.94063 0
M  V30 5596 N 514.379 -1.04941 -1.1758 0
M  V30 5597 C 515.604 -0.778253 -1.92245 0
M  V30 5598 C 516.029 0.659707 -1.76152 0
M  V30 5599 O 515.387 1.45803 -1.07755 0
M  V30 5600 C 515.435 -1.16051 -3.41416 0
M  V30 5601 O 514.539 -0.291153 -4.11371 0
M  V30 5602 H 513.88 -0.285619 -0.599431 0
M  V30 5603 H 516.41 -1.40159 -1.49052 0
M  V30 5604 H 516.42 -1.12619 -3.92149 0
M  V30 5605 H 515.095 -2.208 -3.52449 0
M  V30 5606 H 513.672 -0.385851 -3.70898 0
M  V30 5607 N 515.857 1.33968 -0.830081 0
M  V30 5608 C 517.085 2.0228 -0.434773 0
M  V30 5609 C 517.5 1.62487 0.961419 0
M  V30 5610 O 516.857 0.833849 1.62337 0
M  V30 5611 C 516.908 3.5751 -0.535625 0
M  V30 5612 O 516.629 3.95864 -1.87679 0
M  V30 5613 C 518.13 4.43091 -0.136137 0
M  V30 5614 H 515.35 0.648151 -0.173613 0
M  V30 5615 H 517.894 1.71089 -1.12022 0
M  V30 5616 H 516.049 3.87266 0.101817 0
M  V30 5617 H 516.463 4.9056 -1.85609 0
M  V30 5618 H 517.937 5.51398 -0.257772 0
M  V30 5619 H 518.414 4.29433 0.921076 0
M  V30 5620 H 519.02 4.18677 -0.747662 0
M  V30 5621 N 517.335 0.585699 1.46312 0
M  V30 5622 C 518.285 -0.166813 2.27389 0
M  V30 5623 C 519.269 -0.859076 1.36047 0
M  V30 5624 O 520.461 -0.752678 1.60199 0
M  V30 5625 C 517.59 -1.17791 3.2246 0
M  V30 5626 C 516.676 -0.487605 4.21288 0
M  V30 5627 N 517.067 0.45849 5.03718 0
M  V30 5628 C 515.365 -0.737971 4.39852 0
M  V30 5629 C 516.066 0.862213 5.75275 0
M  V30 5630 N 515.042 0.210707 5.43191 0
M  V30 5631 H 518.844 0.560167 2.88512 0
M  V30 5632 H 516.358 0.407715 1.57199 0
M  V30 5633 H 518.355 -1.73122 3.79255 0
M  V30 5634 H 517.015 -1.90568 2.62896 0
M  V30 5635 H 518.026 0.834163 5.11138 0
M  V30 5636 H 514.703 -1.45209 3.91434 0
M  V30 5637 H 516.093 1.64128 6.51546 0
M  V30 5638 N 518.813 -1.54241 0.323641 0
M  V30 5639 C 520.059 -2.00867 -0.279323 0
M  V30 5640 C 520.392 -1.21146 -1.5178 0
M  V30 5641 O 519.667 -0.29378 -1.92269 0
M  V30 5642 C 519.95 -3.54837 -0.613387 0
M  V30 5643 C 519.803 -4.45284 0.635803 0
M  V30 5644 C 521.122 -4.16186 -1.43099 0
M  V30 5645 H 518.241 -0.730177 -0.100049 0
M  V30 5646 H 520.883 -1.84829 0.440235 0
M  V30 5647 H 519.033 -3.68634 -1.22641 0
M  V30 5648 H 520.705 -4.43357 1.27406 0
M  V30 5649 H 518.948 -4.14956 1.26466 0
M  V30 5650 H 519.619 -5.5084 0.357597 0
M  V30 5651 H 522.095 -4.05964 -0.912814 0
M  V30 5652 H 520.971 -5.24031 -1.6335 0
M  V30 5653 H 521.232 -3.69516 -2.42715 0
M  V30 5654 N 520.291 -0.0518155 -1.57515 0
M  V30 5655 C 521.224 0.957758 -2.07129 0
M  V30 5656 C 522.202 1.30355 -0.971927 0
M  V30 5657 O 523.386 1.41631 -1.2439 0
M  V30 5658 C 520.513 2.27157 -2.51232 0
M  V30 5659 C 519.559 2.07879 -3.72409 0
M  V30 5660 S 520.392 1.35656 -5.18033 0
M  V30 5661 C 521.548 2.68359 -5.65451 0
M  V30 5662 H 521.781 0.53552 -2.92437 0
M  V30 5663 H 519.314 0.160465 -1.53564 0
M  V30 5664 H 521.272 3.02676 -2.77304 0
M  V30 5665 H 519.933 2.66509 -1.66228 0
M  V30 5666 H 519.126 3.05061 -4.01191 0
M  V30 5667 H 518.728 1.40499 -3.46606 0
M  V30 5668 H 521.02 3.64526 -5.71076 0
M  V30 5669 H 521.963 2.44213 -6.64654 0
M  V30 5670 H 522.371 2.74647 -4.93183 0
M  V30 5671 N 521.769 1.56035 0.221574 0
M  V30 5672 C 523.18 1.69229 0.788567 0
M  V30 5673 C 523.531 0.653814 1.84986 0
M  V30 5674 O 522.656 -0.195065 2.15519 0
M  V30 5675 C 523.251 3.06809 1.43713 0
M  V30 5676 C 521.81 3.21858 1.95152 0
M  V30 5677 C 520.957 2.65155 0.811685 0
M  V30 5678 H 523.908 1.587 -0.00307894 0
M  V30 5679 H 523.929 3.02666 2.30594 0
M  V30 5680 H 523.441 3.82369 0.664475 0
M  V30 5681 H 521.542 2.51167 2.7522 0
M  V30 5682 H 521.655 4.29073 2.1315 0
M  V30 5683 H 520.019 2.23635 1.21899 0
M  V30 5684 H 520.802 3.43261 0.0516987 0
M  V30 5685 N 523.247 -0.488276 1.49845 0
M  V30 5686 C 524.195 -1.60917 1.67954 0
M  V30 5687 C 525.189 -1.6038 0.54539 0
M  V30 5688 O 526.395 -1.64736 0.7254 0
M  V30 5689 H 522.77 -0.533658 0.529824 0
M  V30 5690 H 524.741 -1.428 2.62013 0
M  V30 5691 C 523.49 -2.98975 1.77509 0
M  V30 5692 H 522.813 -3.00099 2.6416 0
M  V30 5693 H 524.253 -3.76906 1.9421 0
M  V30 5694 C 522.712 -3.3282 0.522745 0
M  V30 5695 O 523.242 -4.00208 -0.345866 0
M  V30 5696 N 521.448 -2.8808 0.381882 0
M  V30 5697 H 520.995 -2.33415 1.08974 0
M  V30 5698 H 520.953 -3.11091 -0.454929 0
M  V30 5699 N 524.725 -1.39134 -0.740242 0
M  V30 5700 C 525.971 -1.37278 -1.50088 0
M  V30 5701 C 526.326 0.0329967 -1.92372 0
M  V30 5702 O 525.619 0.998447 -1.63529 0
M  V30 5703 C 525.813 -2.27457 -2.75678 0
M  V30 5704 C 525.642 -3.76662 -2.45674 0
M  V30 5705 C 524.412 -4.45617 -2.38229 0
M  V30 5706 C 526.61 -4.6877 -2.11563 0
M  V30 5707 N 524.592 -5.80187 -2.00641 0
M  V30 5708 C 525.963 -5.91951 -1.84376 0
M  V30 5709 C 528.018 -4.56843 -1.97987 0
M  V30 5710 C 526.721 -7.04538 -1.4498 0
M  V30 5711 C 528.747 -5.69347 -1.59994 0
M  V30 5712 C 528.109 -6.91597 -1.33687 0
M  V30 5713 H 524.208 -0.557611 -0.548265 0
M  V30 5714 H 526.792 -1.74638 -0.860784 0
M  V30 5715 H 524.963 -1.92263 -3.37475 0
M  V30 5716 H 526.695 -2.16631 -3.41838 0
M  V30 5717 H 523.45 -3.98993 -2.5515 0
M  V30 5718 H 523.874 -6.51387 -1.84454 0
M  V30 5719 H 528.516 -3.62868 -2.16995 0
M  V30 5720 H 526.234 -7.98419 -1.24712 0
M  V30 5721 H 529.82 -5.62104 -1.50102 0
M  V30 5722 H 528.7 -7.77176 -1.04728 0
M  V30 5723 N 526.204 0.969867 -1.24223 0
M  V30 5724 C 527.45 1.7151 -1.08223 0
M  V30 5725 C 527.783 1.90478 0.37838 0
M  V30 5726 O 527.058 1.4647 1.27971 0
M  V30 5727 C 527.341 3.10714 -1.82013 0
M  V30 5728 C 527.194 2.9925 -3.35811 0
M  V30 5729 C 528.513 4.10332 -1.59108 0
M  V30 5730 H 525.632 0.622499 -0.394543 0
M  V30 5731 H 528.274 1.1284 -1.52863 0
M  V30 5732 H 526.424 3.608 -1.44068 0
M  V30 5733 H 528.096 2.56608 -3.83341 0
M  V30 5734 H 526.339 2.35512 -3.64303 0
M  V30 5735 H 527.01 3.97857 -3.82641 0
M  V30 5736 H 529.486 3.69097 -1.92111 0
M  V30 5737 H 528.362 5.05804 -2.13198 0
M  V30 5738 H 528.623 4.38926 -0.528832 0
M  V30 5739 N 527.682 1.05563 1.17022 0
M  V30 5740 C 529.098 0.777684 1.39371 0
M  V30 5741 C 529.298 -0.626269 1.91521 0
M  V30 5742 O 528.354 -1.38806 2.10924 0
M  V30 5743 C 529.667 1.83642 2.3811 0
M  V30 5744 C 531.215 1.85907 2.51809 0
M  V30 5745 C 531.69 2.90813 3.53824 0
M  V30 5746 N 533.181 2.898 3.61345 0
M  V30 5747 C 533.916 3.6762 4.40049 0
M  V30 5748 N 533.412 4.55237 5.22237 0
M  V30 5749 N 535.205 3.56044 4.34959 0
M  V30 5750 H 527.356 1.9614 0.815047 0
M  V30 5751 H 529.619 0.849527 0.420722 0
M  V30 5752 H 529.325 2.84425 2.06871 0
M  V30 5753 H 529.199 1.6812 3.37662 0
M  V30 5754 H 531.586 0.857865 2.82356 0
M  V30 5755 H 531.667 2.05506 1.52318 0
M  V30 5756 H 531.311 3.91122 3.24015 0
M  V30 5757 H 531.241 2.68465 4.53028 0
M  V30 5758 H 533.732 2.26274 3.02669 0
M  V30 5759 H 534.045 5.11291 5.79484 0
M  V30 5760 H 532.39 4.59296 5.21605 0
M  V30 5761 H 535.581 2.86986 3.69806 0
M  V30 5762 H 535.754 4.16938 4.96051 0
M  V30 5763 N 529.16 -1.33526 0.837174 0
M  V30 5764 C 530.107 -2.29248 0.267169 0
M  V30 5765 C 531.077 -1.54252 -0.616071 0
M  V30 5766 O 532.262 -1.82559 -0.554699 0
M  V30 5767 C 529.402 -3.40638 -0.553152 0
M  V30 5768 C 528.515 -4.30548 0.353921 0
M  V30 5769 C 527.65 -5.29051 -0.477339 0
M  V30 5770 C 526.689 -6.106 0.42823 0
M  V30 5771 N 525.826 -7.01152 -0.364801 0
M  V30 5772 H 530.666 -2.77398 1.08877 0
M  V30 5773 H 528.203 -1.36496 0.54838 0
M  V30 5774 H 530.161 -4.03921 -1.04422 0
M  V30 5775 H 528.791 -2.93685 -1.33973 0
M  V30 5776 H 527.843 -3.68001 0.963289 0
M  V30 5777 H 529.155 -4.87631 1.04964 0
M  V30 5778 H 528.309 -5.97853 -1.0323 0
M  V30 5779 H 527.048 -4.72541 -1.2065 0
M  V30 5780 H 526.053 -5.40718 0.995219 0
M  V30 5781 H 527.278 -6.69193 1.15573 0
M  V30 5782 H 525.224 -6.47092 -1.07738 0
M  V30 5783 H 525.141 -7.5551 0.272238 0
M  V30 5784 H 526.409 -7.74263 -0.902054 0
M  V30 5785 N 530.638 -0.59345 -1.46 0
M  V30 5786 C 531.884 -0.0832754 -2.02629 0
M  V30 5787 C 532.217 1.27749 -1.46266 0
M  V30 5788 O 531.492 1.8395 -0.631866 0
M  V30 5789 C 531.775 -0.0290756 -3.60088 0
M  V30 5790 C 531.628 -1.41951 -4.26814 0
M  V30 5791 C 532.947 0.666055 -4.35031 0
M  V30 5792 H 530.066 -0.031736 -0.736316 0
M  V30 5793 H 532.708 -0.762711 -1.74019 0
M  V30 5794 H 530.858 0.549532 -3.84594 0
M  V30 5795 H 532.53 -2.04411 -4.13538 0
M  V30 5796 H 530.773 -1.98422 -3.8576 0
M  V30 5797 H 531.444 -1.33395 -5.3564 0
M  V30 5798 H 533.92 0.174401 -4.15734 0
M  V30 5799 H 532.796 0.673041 -5.44758 0
M  V30 5800 H 533.057 1.72946 -4.06869 0
M  V30 5801 N 532.116 1.54067 -0.331816 0
M  V30 5802 C 533.363 2.00715 0.268269 0
M  V30 5803 C 533.691 1.21986 1.51491 0
M  V30 5804 O 532.946 0.292309 1.93505 0
M  V30 5805 C 533.245 3.51634 0.639392 0
M  V30 5806 C 532.911 4.48018 -0.509019 0
M  V30 5807 C 531.573 4.74089 -0.824209 0
M  V30 5808 C 533.925 5.05237 -1.28003 0
M  V30 5809 C 531.253 5.54637 -1.91298 0
M  V30 5810 C 533.605 5.86972 -2.35895 0
M  V30 5811 C 532.269 6.11342 -2.67987 0
M  V30 5812 H 531.539 0.734469 0.0981667 0
M  V30 5813 H 534.186 1.8596 -0.457304 0
M  V30 5814 H 532.491 3.6416 1.44551 0
M  V30 5815 H 534.188 3.85175 1.11539 0
M  V30 5816 H 530.778 4.27851 -0.253287 0
M  V30 5817 H 534.962 4.8507 -1.04978 0
M  V30 5818 H 530.218 5.71747 -2.16599 0
M  V30 5819 H 534.392 6.30327 -2.96076 0
M  V30 5820 H 532.019 6.73544 -3.5248 0
M  V30 5821 N 533.594 0.0601682 1.57485 0
M  V30 5822 C 534.843 -0.611101 1.9222 0
M  V30 5823 C 535.156 -1.71469 0.941159 0
M  V30 5824 O 536.362 -2.44473 1.18089 0
M  V30 5825 C 534.818 -1.13832 3.41424 0
M  V30 5826 C 534.426 -0.0663596 4.47951 0
M  V30 5827 C 536.17 -1.78432 3.85178 0
M  V30 5828 C 534.077 -0.606965 5.88277 0
M  V30 5829 H 533.007 -0.232033 0.71741 0
M  V30 5830 H 535.658 0.130518 1.83035 0
M  V30 5831 H 534.04 -1.93254 3.45643 0
M  V30 5832 H 535.214 0.707682 4.55333 0
M  V30 5833 H 533.529 0.482715 4.13593 0
M  V30 5834 H 536.126 -2.1989 4.87394 0
M  V30 5835 H 536.469 -2.63966 3.21913 0
M  V30 5836 H 537.002 -1.05651 3.83514 0
M  V30 5837 H 533.741 0.21095 6.5516 0
M  V30 5838 H 533.261 -1.34879 5.84438 0
M  V30 5839 H 534.94 -1.08704 6.37803 0
M  V30 5840 N 535.072 -1.5615 -0.213296 0
M  V30 5841 C 536.349 -1.70349 -0.961281 0
M  V30 5842 C 536.729 -0.609791 -2.02101 0
M  V30 5843 O 536.077 0.381987 -2.25285 0
M  V30 5844 C 536.287 -3.11982 -1.56424 0
M  V30 5845 C 537.635 -3.71649 -2.05334 0
M  V30 5846 O 538.659 -3.14995 -1.66302 0
M  V30 5847 O 537.518 -4.71038 -2.77102 0
M  V30 5848 H 534.612 -0.694121 -0.449582 0
M  V30 5849 H 537.158 -1.68464 -0.204426 0
M  V30 5850 H 535.93 -3.83046 -0.799457 0
M  V30 5851 H 535.553 -3.18019 -2.38641 0
M  V30 5852 N 536.55 0.480323 -1.50102 0
M  V30 5853 C 537.778 1.25657 -1.64371 0
M  V30 5854 C 538.193 1.86011 -0.323316 0
M  V30 5855 O 537.55 1.68803 0.693682 0
M  V30 5856 C 537.601 2.37197 -2.728 0
M  V30 5857 O 537.322 1.7932 -3.9972 0
M  V30 5858 C 538.823 3.2823 -2.9796 0
M  V30 5859 H 536.043 0.380369 -0.552775 0
M  V30 5860 H 538.587 0.574379 -1.96268 0
M  V30 5861 H 536.742 3.01208 -2.43623 0
M  V30 5862 H 537.156 2.52701 -4.59611 0
M  V30 5863 H 538.63 4.02725 -3.77513 0
M  V30 5864 H 539.107 3.86462 -2.08671 0
M  V30 5865 H 539.713 2.69964 -3.28633 0
M  V30 5866 N 538.028 1.39524 0.732853 0
M  V30 5867 C 539.277 1.36175 1.48792 0
M  V30 5868 C 539.59 -0.0388195 1.95561 0
M  V30 5869 O 540.796 -0.194899 2.708 0
M  V30 5870 C 539.252 2.39242 2.68871 0
M  V30 5871 C 538.86 3.85024 2.29042 0
M  V30 5872 C 540.604 2.44972 3.46683 0
M  V30 5873 C 538.511 4.79727 3.45856 0
M  V30 5874 H 537.441 0.506267 0.558757 0
M  V30 5875 H 540.092 1.65181 0.799226 0
M  V30 5876 H 538.474 2.0331 3.39825 0
M  V30 5877 H 539.648 4.30008 1.6562 0
M  V30 5878 H 537.963 3.82609 1.64316 0
M  V30 5879 H 540.56 3.12918 4.33574 0
M  V30 5880 H 540.903 1.4749 3.89297 0
M  V30 5881 H 541.436 2.79808 2.82759 0
M  V30 5882 H 538.175 5.78479 3.08289 0
M  V30 5883 H 537.695 4.39421 4.08251 0
M  V30 5884 H 539.374 4.98731 4.12161 0
M  V30 5885 N 539.506 -0.963266 1.24736 0
M  V30 5886 C 540.917 -1.52145 1.08207 0
M  V30 5887 C 541.268 -1.93142 -0.345061 0
M  V30 5888 O 540.393 -1.77769 -1.23399 0
M  V30 5889 C 540.988 -2.76486 1.95808 0
M  V30 5890 C 539.547 -3.28646 1.8349 0
M  V30 5891 C 538.694 -2.01529 1.90476 0
M  V30 5892 H 541.645 -0.781083 1.38148 0
M  V30 5893 H 541.666 -3.49986 1.49297 0
M  V30 5894 H 541.178 -2.46617 2.99669 0
M  V30 5895 H 539.279 -3.63357 0.824787 0
M  V30 5896 H 539.392 -3.97246 2.67829 0
M  V30 5897 H 537.756 -2.16442 1.34258 0
M  V30 5898 H 538.539 -1.7402 2.95926 0
M  V30 5899 N 540.985 -1.06182 -1.16461 0
M  V30 5900 C 541.933 -0.665716 -2.2287 0
M  V30 5901 C 542.927 0.317822 -1.66392 0
M  V30 5902 O 544.133 0.182807 -1.79069 0
M  V30 5903 H 540.508 -0.197148 -0.725697 0
M  V30 5904 H 542.479 -1.57307 -2.53569 0
M  V30 5905 C 541.228 -0.0669803 -3.47635 0
M  V30 5906 H 540.551 -0.814899 -3.91407 0
M  V30 5907 H 541.991 0.172669 -4.23648 0
M  V30 5908 C 540.45 1.18913 -3.15216 0
M  V30 5909 O 540.98 2.27723 -3.30916 0
M  V30 5910 N 539.186 1.09066 -2.69357 0
M  V30 5911 H 538.733 0.20518 -2.56782 0
M  V30 5912 H 538.691 1.93195 -2.48039 0
M  V30 5913 N 542.463 1.3308 -0.844243 0
M  V30 5914 C 543.712 1.96868 -0.438833 0
M  V30 5915 C 544.025 1.67599 1.00846 0
M  V30 5916 O 545.231 2.25043 1.51881 0
M  V30 5917 C 543.687 3.5234 -0.73377 0
M  V30 5918 C 543.295 3.90481 -2.1961 0
M  V30 5919 C 545.039 4.22653 -0.395574 0
M  V30 5920 C 542.946 5.38954 -2.43481 0
M  V30 5921 H 541.876 0.736749 -0.160364 0
M  V30 5922 H 544.527 1.51623 -1.03358 0
M  V30 5923 H 542.909 3.95941 -0.068589 0
M  V30 5924 H 544.083 3.57922 -2.90221 0
M  V30 5925 H 542.398 3.33165 -2.4978 0
M  V30 5926 H 544.995 5.31848 -0.551477 0
M  V30 5927 H 545.338 4.11004 0.661921 0
M  V30 5928 H 545.871 3.84601 -1.01621 0
M  V30 5929 H 542.61 5.55612 -3.47816 0
M  V30 5930 H 542.13 5.72954 -1.77437 0
M  V30 5931 H 543.809 6.05907 -2.26905 0
M  V30 5932 N 543.941 0.601185 1.45683 0
M  V30 5933 C 544.874 -0.17013 2.27565 0
M  V30 5934 C 545.852 -0.879661 1.36751 0
M  V30 5935 O 547.036 -0.889827 1.66176 0
M  V30 5936 C 544.163 -1.24568 3.14961 0
M  V30 5937 C 543.209 -0.639978 4.21671 0
M  V30 5938 S 544.042 0.547275 5.32696 0
M  V30 5939 C 545.198 -0.529019 6.2366 0
M  V30 5940 H 545.431 0.524583 2.92635 0
M  V30 5941 H 542.964 0.388537 1.49431 0
M  V30 5942 H 544.922 -1.86138 3.65873 0
M  V30 5943 H 543.583 -1.91243 2.49169 0
M  V30 5944 H 542.776 -1.44903 4.8272 0
M  V30 5945 H 542.378 -0.0995558 3.73867 0
M  V30 5946 H 544.67 -1.40981 6.62669 0
M  V30 5947 H 545.613 0.0451599 7.08086 0
M  V30 5948 H 546.021 -0.84147 5.58193 0
M  V30 5949 N 545.419 -1.53889 0.339982 0
M  V30 5950 C 546.666 -2.00855 -0.257621 0
M  V30 5951 C 546.994 -1.22788 -1.50842 0
M  V30 5952 O 546.249 -0.302567 -1.93347 0
M  V30 5953 C 546.548 -3.51968 -0.620735 0
M  V30 5954 C 546.214 -4.47741 0.532771 0
M  V30 5955 C 544.876 -4.73645 0.849339 0
M  V30 5956 C 547.228 -5.04551 1.3068 0
M  V30 5957 C 544.556 -5.53614 1.94237 0
M  V30 5958 C 546.908 -5.85713 2.39005 0
M  V30 5959 C 545.572 -6.09912 2.71225 0
M  V30 5960 H 544.842 -0.734979 -0.0942703 0
M  V30 5961 H 547.489 -1.85714 0.467159 0
M  V30 5962 H 545.794 -3.64921 -1.42618 0
M  V30 5963 H 547.491 -3.85762 -1.09495 0
M  V30 5964 H 544.081 -4.27711 0.275973 0
M  V30 5965 H 548.265 -4.84507 1.07549 0
M  V30 5966 H 543.521 -5.7059 2.19628 0
M  V30 5967 H 547.695 -6.28748 2.99415 0
M  V30 5968 H 545.322 -6.71665 3.56047 0
M  V30 5969 N 546.897 -0.0685191 -1.57451 0
M  V30 5970 C 548.144 0.601348 -1.93365 0
M  V30 5971 C 548.472 1.69816 -0.948294 0
M  V30 5972 O 547.727 1.95666 0.0366199 0
M  V30 5973 C 548.026 1.22051 -3.35914 0
M  V30 5974 C 547.692 0.250165 -4.50205 0
M  V30 5975 C 546.354 -0.0167954 -4.81197 0
M  V30 5976 C 548.706 -0.413867 -5.19554 0
M  V30 5977 C 546.034 -0.95493 -5.78876 0
M  V30 5978 C 548.386 -1.3403 -6.18238 0
M  V30 5979 C 547.05 -1.61576 -6.47649 0
M  V30 5980 H 546.32 0.220049 -0.707573 0
M  V30 5981 H 548.967 -0.138697 -1.90997 0
M  V30 5982 H 547.272 2.03622 -3.34732 0
M  V30 5983 H 548.969 1.74605 -3.6099 0
M  V30 5984 H 545.559 0.468421 -4.26033 0
M  V30 5985 H 549.743 -0.220733 -4.95809 0
M  V30 5986 H 544.999 -1.17563 -5.99991 0
M  V30 5987 H 549.173 -1.86081 -6.71079 0
M  V30 5988 H 546.8 -2.34431 -7.2315 0
M  V30 5989 N 548.375 1.56261 0.205012 0
M  V30 5990 C 549.6 1.84491 0.947512 0
M  V30 5991 C 550.025 0.650894 1.76479 0
M  V30 5992 O 549.383 -0.40035 1.76824 0
M  V30 5993 C 549.431 3.10863 1.82747 0
M  V30 5994 O 548.535 2.90719 2.925 0
M  V30 5995 H 547.876 0.607783 0.267386 0
M  V30 5996 H 550.406 2.03485 0.213323 0
M  V30 5997 H 550.416 3.41399 2.23407 0
M  V30 5998 H 549.091 3.97392 1.2269 0
M  V30 5999 H 547.668 2.71457 2.55667 0
M  V30 6000 N 549.853 -0.472356 1.50355 0
M  V30 6001 C 551.081 -1.24784 1.65035 0
M  V30 6002 C 551.496 -1.85837 0.333176 0
M  V30 6003 O 550.853 -1.69168 -0.68472 0
M  V30 6004 C 550.904 -2.35747 2.74054 0
M  V30 6005 O 550.625 -1.77197 4.00665 0
M  V30 6006 C 552.126 -3.26645 2.99696 0
M  V30 6007 H 549.346 -0.377432 0.554785 0
M  V30 6008 H 551.89 -0.563962 1.9657 0
M  V30 6009 H 550.045 -2.99912 2.45217 0
M  V30 6010 H 550.459 -2.5026 4.60945 0
M  V30 6011 H 551.933 -4.00718 3.79644 0
M  V30 6012 H 552.41 -3.8535 2.10718 0
M  V30 6013 H 553.016 -2.68218 3.3006 0
M  V30 6014 N 551.331 -1.39911 -0.725443 0
M  V30 6015 C 552.264 -1.33788 -1.84867 0
M  V30 6016 C 553.242 -0.209907 -1.61239 0
M  V30 6017 O 554.426 -0.391943 -1.8438 0
M  V30 6018 C 551.553 -1.07975 -3.21028 0
M  V30 6019 C 550.599 -2.23092 -3.635 0
M  V30 6020 S 551.432 -3.85431 -3.71757 0
M  V30 6021 C 552.588 -3.61862 -5.10692 0
M  V30 6022 H 552.821 -2.28848 -1.89779 0
M  V30 6023 H 550.354 -1.26079 -0.891254 0
M  V30 6024 H 552.312 -0.937669 -3.99647 0
M  V30 6025 H 550.973 -0.145865 -3.13761 0
M  V30 6026 H 550.166 -2.00647 -4.62338 0
M  V30 6027 H 549.768 -2.33553 -2.92112 0
M  V30 6028 H 552.06 -3.19719 -5.97316 0
M  V30 6029 H 553.003 -4.60196 -5.38169 0
M  V30 6030 H 553.411 -2.95757 -4.8082 0
M  V30 6031 N 552.809 0.956637 -1.25245 0
M  V30 6032 C 553.756 2.053 -1.05454 0
M  V30 6033 C 554.726 1.66062 0.0356889 0
M  V30 6034 O 555.911 1.90415 -0.121099 0
M  V30 6035 C 553.051 3.38391 -0.677191 0
M  V30 6036 C 552.164 3.90758 -1.84206 0
M  V30 6037 C 551.299 5.12165 -1.40926 0
M  V30 6038 C 550.338 5.56757 -2.54338 0
M  V30 6039 N 549.475 6.69376 -2.11848 0
M  V30 6040 H 554.315 2.21562 -1.99284 0
M  V30 6041 H 551.852 1.08578 -0.992434 0
M  V30 6042 H 553.81 4.1488 -0.43938 0
M  V30 6043 H 552.44 3.22021 0.224127 0
M  V30 6044 H 551.492 3.10808 -2.19323 0
M  V30 6045 H 552.804 4.19802 -2.69383 0
M  V30 6046 H 551.958 5.96065 -1.13098 0
M  V30 6047 H 550.697 4.84832 -0.528175 0
M  V30 6048 H 549.702 4.71423 -2.82913 0
M  V30 6049 H 550.927 5.861 -3.43022 0
M  V30 6050 H 548.873 6.43756 -1.26153 0
M  V30 6051 H 548.79 6.97927 -2.90574 0
M  V30 6052 H 550.058 7.5669 -1.87191 0
M  V30 6053 N 554.287 1.06798 1.15896 0
M  V30 6054 C 555.703 0.792423 1.38538 0
M  V30 6055 C 555.903 -0.60592 1.92174 0
M  V30 6056 O 554.959 -1.36561 2.12385 0
M  V30 6057 C 556.272 1.86157 2.36149 0
M  V30 6058 C 557.82 1.88567 2.49823 0
M  V30 6059 C 558.295 2.9455 3.5072 0
M  V30 6060 N 559.786 2.93616 3.58251 0
M  V30 6061 C 560.521 3.72267 4.36125 0
M  V30 6062 N 560.017 4.60751 5.17379 0
M  V30 6063 N 561.81 3.60637 4.31158 0
M  V30 6064 H 553.961 1.96993 0.794198 0
M  V30 6065 H 556.224 0.853942 0.411688 0
M  V30 6066 H 555.93 2.86603 2.03843 0
M  V30 6067 H 555.804 1.71692 3.3586 0
M  V30 6068 H 558.191 0.887765 2.8143 0
M  V30 6069 H 558.272 2.0711 1.5013 0
M  V30 6070 H 557.916 3.94537 3.19849 0
M  V30 6071 H 557.846 2.73255 4.50155 0
M  V30 6072 H 560.337 2.29472 3.00252 0
M  V30 6073 H 560.65 5.17408 5.74028 0
M  V30 6074 H 558.995 4.64803 5.16704 0
M  V30 6075 H 562.186 2.90892 3.66742 0
M  V30 6076 H 562.359 4.22176 4.91601 0
M  V30 6077 N 555.766 -1.3263 0.851289 0
M  V30 6078 C 557.177 -1.79653 0.5081 0
M  V30 6079 C 557.528 -1.70327 -0.973815 0
M  V30 6080 O 556.653 -1.25986 -1.75944 0
M  V30 6081 C 557.248 -3.26196 0.915515 0
M  V30 6082 C 555.807 -3.71187 0.624277 0
M  V30 6083 C 554.954 -2.53804 1.11709 0
M  V30 6084 H 557.905 -1.19976 1.03882 0
M  V30 6085 H 557.926 -3.79801 0.230535 0
M  V30 6086 H 557.438 -3.32952 1.99411 0
M  V30 6087 H 555.539 -3.69948 -0.443737 0
M  V30 6088 H 555.652 -4.64132 1.18821 0
M  V30 6089 H 554.016 -2.48964 0.537484 0
M  V30 6090 H 554.799 -2.63315 2.20272 0
M  V30 6091 N 557.244 -0.608902 -1.45362 0
M  V30 6092 C 558.469 -0.10921 -2.07112 0
M  V30 6093 C 558.894 1.19779 -1.45033 0
M  V30 6094 O 558.252 1.72961 -0.543527 0
M  V30 6095 C 558.3 0.0155745 -3.60597 0
M  V30 6096 O 557.404 1.06546 -3.98399 0
M  V30 6097 H 556.745 -0.0746619 -0.659789 0
M  V30 6098 H 559.275 -0.839283 -1.86594 0
M  V30 6099 H 559.285 0.213364 -4.07442 0
M  V30 6100 H 557.96 -0.938765 -4.05167 0
M  V30 6101 H 556.537 0.844024 -3.63223 0
M  V30 6102 N 558.722 1.53707 -0.348139 0
M  V30 6103 C 560.138 1.596 0.00361134 0
M  V30 6104 C 560.338 1.36394 1.4832 0
M  V30 6105 O 559.394 1.16046 2.24253 0
M  V30 6106 C 560.707 2.97512 -0.436682 0
M  V30 6107 C 562.255 3.10568 -0.389416 0
M  V30 6108 C 562.73 4.50866 -0.805249 0
M  V30 6109 N 564.221 4.56929 -0.759616 0
M  V30 6110 C 564.956 5.63643 -1.05327 0
M  V30 6111 N 564.452 6.78189 -1.41531 0
M  V30 6112 N 566.245 5.5354 -0.977207 0
M  V30 6113 H 558.396 1.67044 -1.31187 0
M  V30 6114 H 560.659 0.782559 -0.535075 0
M  V30 6115 H 560.365 3.19575 -1.46849 0
M  V30 6116 H 560.239 3.76742 0.185744 0
M  V30 6117 H 562.626 2.88226 0.633228 0
M  V30 6118 H 562.707 2.33387 -1.04711 0
M  V30 6119 H 562.351 4.73943 -1.82593 0
M  V30 6120 H 562.281 5.26452 -0.124989 0
M  V30 6121 H 564.772 3.74675 -0.49265 0
M  V30 6122 H 565.085 7.55541 -1.62411 0
M  V30 6123 H 563.43 6.79624 -1.45381 0
M  V30 6124 H 566.621 4.62932 -0.693675 0
M  V30 6125 H 566.794 6.36614 -1.2094 0
M  V30 6126 N 560.2 0.0768682 1.57412 0
M  V30 6127 C 561.11 -0.903207 2.16516 0
M  V30 6128 C 562.126 -1.32341 1.12968 0
M  V30 6129 O 563.302 -1.39507 1.45258 0
M  V30 6130 C 560.367 -2.1508 2.71922 0
M  V30 6131 C 559.428 -1.78653 3.90361 0
M  V30 6132 C 558.661 -2.97465 4.43114 0
M  V30 6133 O 558.884 -4.11638 3.94854 0
M  V30 6134 O 557.818 -2.76987 5.3438 0
M  V30 6135 H 561.644 -0.430427 3.00634 0
M  V30 6136 H 559.229 -0.146485 1.4868 0
M  V30 6137 H 561.111 -2.8823 3.07411 0
M  V30 6138 H 559.786 -2.61446 1.9086 0
M  V30 6139 H 558.693 -1.0274 3.59716 0
M  V30 6140 H 560.026 -1.37066 4.7273 0
M  V30 6141 N 561.678 -1.56367 -0.196722 0
M  V30 6142 C 562.625 -1.94417 -1.24382 0
M  V30 6143 C 563.595 -0.804543 -1.45315 0
M  V30 6144 O 564.78 -1.06256 -1.58475 0
M  V30 6145 C 561.92 -2.28757 -2.58388 0
M  V30 6146 C 561.033 -3.55775 -2.45047 0
M  V30 6147 C 560.168 -3.79445 -3.71746 0
M  V30 6148 C 559.207 -4.99894 -3.53231 0
M  V30 6149 N 558.344 -5.19826 -4.71938 0
M  V30 6150 H 563.184 -2.83691 -0.912338 0
M  V30 6151 H 560.721 -1.40392 -0.439135 0
M  V30 6152 H 562.679 -2.46682 -3.36457 0
M  V30 6153 H 561.309 -1.42625 -2.89582 0
M  V30 6154 H 560.361 -3.45905 -1.58284 0
M  V30 6155 H 561.673 -4.44 -2.27299 0
M  V30 6156 H 560.827 -3.97601 -4.58256 0
M  V30 6157 H 559.566 -2.89546 -3.92446 0
M  V30 6158 H 558.571 -4.81662 -2.65107 0
M  V30 6159 H 559.796 -5.913 -3.33978 0
M  V30 6160 H 557.742 -4.32875 -4.92905 0
M  V30 6161 H 557.659 -6.02228 -4.57009 0
M  V30 6162 H 558.927 -5.42439 -5.59803 0
M  V30 6163 N 563.156 0.464375 -1.50603 0
M  V30 6164 C 564.088 1.57916 -1.66118 0
M  V30 6165 C 565.101 1.53497 -0.54246 0
M  V30 6166 O 566.29 1.58763 -0.815877 0
M  V30 6167 C 563.39 2.96809 -1.63577 0
M  V30 6168 C 562.563 3.26026 -2.91592 0
M  V30 6169 C 561.622 4.44506 -2.81604 0
M  V30 6170 O 560.648 4.44484 -3.55559 0
M  V30 6171 N 561.85 5.46549 -1.95614 0
M  V30 6172 H 564.615 1.45022 -2.62276 0
M  V30 6173 H 562.176 0.652903 -1.48151 0
M  V30 6174 H 564.168 3.74048 -1.54499 0
M  V30 6175 H 562.738 3.03438 -0.751262 0
M  V30 6176 H 561.958 2.37337 -3.14746 0
M  V30 6177 H 563.246 3.42361 -3.76386 0
M  V30 6178 H 562.644 5.49391 -1.34854 0
M  V30 6179 H 561.201 6.22746 -1.92435 0
M  V30 6180 N 564.634 1.40294 0.718013 0
M  V30 6181 C 565.911 1.2894 1.47084 0
M  V30 6182 C 566.291 -0.0933625 2.10893 0
M  V30 6183 O 565.639 -1.10598 1.99951 0
M  V30 6184 C 565.849 2.4264 2.50852 0
M  V30 6185 C 567.197 2.8276 3.16752 0
M  V30 6186 O 568.221 2.42215 2.61171 0
M  V30 6187 O 567.08 3.528 4.17366 0
M  V30 6188 H 564.174 0.506236 0.653952 0
M  V30 6189 H 566.72 1.52208 0.750394 0
M  V30 6190 H 565.492 3.35009 2.022 0
M  V30 6191 H 565.115 2.21129 3.30435 0
M  V30 6192 N 566.112 -0.949982 1.2575 0
M  V30 6193 C 567.059 -2.04738 1.06541 0
M  V30 6194 C 568.029 -1.66078 -0.0268818 0
M  V30 6195 O 569.214 -1.90348 0.131196 0
M  V30 6196 C 566.354 -3.38027 0.695127 0
M  V30 6197 C 565.467 -3.89776 1.86276 0
M  V30 6198 C 564.602 -5.11411 1.4364 0
M  V30 6199 C 563.641 -5.554 2.57287 0
M  V30 6200 N 562.778 -6.68244 2.15395 0
M  V30 6201 H 567.618 -2.20502 2.00457 0
M  V30 6202 H 565.155 -1.0805 0.998178 0
M  V30 6203 H 567.113 -4.14641 0.461375 0
M  V30 6204 H 565.743 -3.22135 -0.207046 0
M  V30 6205 H 564.795 -3.0964 2.20969 0
M  V30 6206 H 566.107 -4.18368 2.71606 0
M  V30 6207 H 565.261 -5.95457 1.16257 0
M  V30 6208 H 564 -4.84545 0.553879 0
M  V30 6209 H 563.005 -4.69916 2.85409 0
M  V30 6210 H 564.23 -5.84272 3.46125 0
M  V30 6211 H 562.176 -6.43078 1.29565 0
M  V30 6212 H 562.093 -6.96377 2.94272 0
M  V30 6213 H 563.361 -7.55687 1.91201 0
M  V30 6214 N 567.59 -1.07411 -1.15328 0
M  V30 6215 C 568.537 -0.694995 -2.20087 0
M  V30 6216 C 569.507 0.313904 -1.63107 0
M  V30 6217 O 570.692 0.200216 -1.89747 0
M  V30 6218 C 567.832 -0.0996218 -3.44956 0
M  V30 6219 C 566.945 -1.16007 -4.16133 0
M  V30 6220 C 566.08 -0.529636 -5.28553 0
M  V30 6221 C 565.119 -1.57283 -5.91548 0
M  V30 6222 N 564.256 -0.964932 -6.95438 0
M  V30 6223 H 569.096 -1.5927 -2.51867 0
M  V30 6224 H 566.633 -0.796115 -1.23695 0
M  V30 6225 H 568.591 0.263197 -4.16369 0
M  V30 6226 H 567.221 0.761435 -3.13691 0
M  V30 6227 H 566.273 -1.64045 -3.4321 0
M  V30 6228 H 567.585 -1.95101 -4.59061 0
M  V30 6229 H 566.739 -0.114487 -6.06592 0
M  V30 6230 H 565.478 0.29307 -4.86819 0
M  V30 6231 H 564.483 -1.99775 -5.12221 0
M  V30 6232 H 565.708 -2.39783 -6.35359 0
M  V30 6233 H 563.654 -0.16314 -6.55797 0
M  V30 6234 H 563.571 -1.69311 -7.36797 0
M  V30 6235 H 564.839 -0.575305 -7.77374 0
M  V30 6236 N 569.068 1.32177 -0.85831 0
M  V30 6237 C 570.317 1.96392 -0.459689 0
M  V30 6238 C 570.63 1.68659 0.990632 0
M  V30 6239 O 571.836 2.26641 1.49485 0
M  V30 6240 C 570.292 3.51542 -0.7711 0
M  V30 6241 C 569.9 3.8813 -2.2374 0
M  V30 6242 C 571.644 4.2221 -0.44038 0
M  V30 6243 C 569.551 5.36341 -2.49183 0
M  V30 6244 H 568.481 0.735007 -0.168169 0
M  V30 6245 H 571.132 1.50518 -1.0496 0
M  V30 6246 H 569.514 3.95846 -0.11058 0
M  V30 6247 H 570.688 3.54824 -2.94001 0
M  V30 6248 H 569.003 3.30497 -2.533 0
M  V30 6249 H 571.6 5.31234 -0.607855 0
M  V30 6250 H 571.943 4.11683 0.618291 0
M  V30 6251 H 572.476 3.83502 -1.05695 0
M  V30 6252 H 569.215 5.51892 -3.53689 0
M  V30 6253 H 568.735 5.7104 -1.83504 0
M  V30 6254 H 570.414 6.03466 -2.33318 0
M  V30 6255 N 570.547 0.616602 1.45037 0
M  V30 6256 C 571.794 0.115331 2.02171 0
M  V30 6257 C 572.122 -1.25748 1.48383 0
M  V30 6258 O 571.377 -1.84511 0.652229 0
M  V30 6259 C 571.676 0.0356829 3.57382 0
M  V30 6260 C 571.342 1.34535 4.30362 0
M  V30 6261 C 570.004 1.70408 4.50016 0
M  V30 6262 C 572.356 2.21049 4.72003 0
M  V30 6263 C 569.684 2.92529 5.0857 0
M  V30 6264 C 572.036 3.42427 5.31908 0
M  V30 6265 C 570.7 3.78541 5.49784 0
M  V30 6266 H 569.97 0.0422024 0.739797 0
M  V30 6267 H 572.617 0.80002 1.73988 0
M  V30 6268 H 570.922 -0.732314 3.84895 0
M  V30 6269 H 572.619 -0.368463 3.99304 0
M  V30 6270 H 569.209 1.05615 4.15383 0
M  V30 6271 H 573.393 1.94632 4.56544 0
M  V30 6272 H 568.649 3.20605 5.20598 0
M  V30 6273 H 572.823 4.09709 5.63127 0
M  V30 6274 H 570.45 4.73255 5.94923 0
M  V30 6275 N 572.025 -1.5352 0.356285 0
M  V30 6276 C 573.253 -2.05534 -0.237328 0
M  V30 6277 C 573.668 -1.23043 -1.43199 0
M  V30 6278 O 573.025 -0.268821 -1.80509 0
M  V30 6279 C 573.076 -3.55791 -0.639933 0
M  V30 6280 O 572.797 -4.35154 0.507233 0
M  V30 6281 C 574.298 -4.24027 -1.29292 0
M  V30 6282 H 571.518 -0.669585 -0.0435572 0
M  V30 6283 H 574.062 -1.97988 0.511963 0
M  V30 6284 H 572.217 -3.63518 -1.33915 0
M  V30 6285 H 572.631 -5.24178 0.18375 0
M  V30 6286 H 574.105 -5.30509 -1.52527 0
M  V30 6287 H 574.582 -3.77166 -2.25039 0
M  V30 6288 H 575.188 -4.20527 -0.63539 0
M  V30 6289 N 573.503 -0.0852151 -1.57369 0
M  V30 6290 C 574.413 0.891712 -2.16992 0
M  V30 6291 C 575.429 1.3174 -1.13669 0
M  V30 6292 O 576.605 1.38735 -1.45995 0
M  V30 6293 C 573.67 2.13635 -2.73059 0
M  V30 6294 C 572.731 1.7658 -3.91303 0
M  V30 6295 C 571.964 2.95111 -4.44686 0
M  V30 6296 O 572.187 4.09539 -3.97032 0
M  V30 6297 O 571.121 2.74149 -5.35841 0
M  V30 6298 H 574.947 0.414477 -3.00858 0
M  V30 6299 H 572.532 0.138598 -1.48756 0
M  V30 6300 H 574.414 2.86595 -3.08935 0
M  V30 6301 H 573.089 2.6043 -1.92244 0
M  V30 6302 H 571.996 1.00831 -3.60255 0
M  V30 6303 H 573.329 1.34557 -4.7345 0
M  V30 6304 N 574.981 1.5647 0.188427 0
M  V30 6305 C 576.258 1.71857 0.934058 0
M  V30 6306 C 576.638 0.641867 2.01105 0
M  V30 6307 O 575.986 -0.346098 2.25864 0
M  V30 6308 C 576.196 3.14431 1.5144 0
M  V30 6309 C 577.544 3.74869 1.99396 0
M  V30 6310 O 578.568 3.17601 1.61269 0
M  V30 6311 O 577.427 4.75387 2.69573 0
M  V30 6312 H 574.521 0.701186 0.438483 0
M  V30 6313 H 577.067 1.68768 0.177599 0
M  V30 6314 H 575.839 3.8427 0.738416 0
M  V30 6315 H 575.462 3.21775 2.33552 0
M  V30 6316 N 576.459 -0.456382 1.50847 0
M  V30 6317 C 577.708 -1.2042 1.61808 0
M  V30 6318 C 578.021 -1.9278 0.330932 0
M  V30 6319 O 579.227 -2.69612 0.319643 0
M  V30 6320 C 577.683 -2.18891 2.85683 0
M  V30 6321 C 577.291 -1.52267 4.2133 0
M  V30 6322 C 579.035 -2.94224 3.05994 0
M  V30 6323 C 576.942 -2.4911 5.36375 0
M  V30 6324 H 575.872 -0.453177 0.602616 0
M  V30 6325 H 578.523 -0.473144 1.77295 0
M  V30 6326 H 576.905 -2.95351 2.63787 0
M  V30 6327 H 578.079 -0.814949 4.53536 0
M  V30 6328 H 576.394 -0.891594 4.06743 0
M  V30 6329 H 578.991 -3.66732 3.89117 0
M  V30 6330 H 579.334 -3.54469 2.18306 0
M  V30 6331 H 579.867 -2.24874 3.28141 0
M  V30 6332 H 576.606 -1.93582 6.26264 0
M  V30 6333 H 576.126 -3.17991 5.08569 0
M  V30 6334 H 577.805 -3.10637 5.67551 0
M  V30 6335 N 577.937 -1.40673 -0.710563 0
M  V30 6336 C 579.214 -1.29718 -1.46398 0
M  V30 6337 C 579.594 0.082177 -2.1094 0
M  V30 6338 O 578.942 1.09536 -2.00534 0
M  V30 6339 C 579.152 -2.43967 -2.49562 0
M  V30 6340 C 580.5 -2.84436 -3.15248 0
M  V30 6341 O 581.524 -2.43597 -2.59883 0
M  V30 6342 O 580.383 -3.55008 -4.1549 0
M  V30 6343 H 577.477 -0.509697 -0.651258 0
M  V30 6344 H 580.023 -1.52603 -0.742312 0
M  V30 6345 H 578.795 -3.36076 -2.0042 0
M  V30 6346 H 578.418 -2.22879 -3.29258 0
M  V30 6347 N 579.415 0.9433 -1.26252 0
M  V30 6348 C 580.664 1.68369 -1.11062 0
M  V30 6349 C 580.977 1.92514 0.346104 0
M  V30 6350 O 582.183 2.64358 0.618646 0
M  V30 6351 C 580.639 3.03171 -1.93946 0
M  V30 6352 C 580.247 2.86782 -3.4418 0
M  V30 6353 C 581.991 3.80916 -1.87359 0
M  V30 6354 C 579.898 4.17044 -4.19319 0
M  V30 6355 H 578.828 0.631469 -0.412023 0
M  V30 6356 H 581.479 1.04922 -1.50544 0
M  V30 6357 H 579.861 3.67587 -1.47296 0
M  V30 6358 H 581.035 2.31229 -3.98585 0
M  V30 6359 H 579.35 2.22482 -3.51981 0
M  V30 6360 H 581.947 4.77417 -2.40784 0
M  V30 6361 H 582.29 4.07658 -0.843857 0
M  V30 6362 H 582.823 3.2327 -2.31821 0
M  V30 6363 H 579.562 3.95487 -5.22753 0
M  V30 6364 H 579.082 4.72319 -3.69696 0
M  V30 6365 H 580.761 4.85513 -4.27651 0
M  V30 6366 N 580.893 1.08022 1.14757 0
M  V30 6367 C 582.118 0.82895 1.90114 0
M  V30 6368 C 582.543 -0.612772 1.77839 0
M  V30 6369 O 581.901 -1.42895 1.11583 0
M  V30 6370 C 581.949 1.25062 3.38219 0
M  V30 6371 O 581.053 0.400119 4.10454 0
M  V30 6372 H 580.394 0.301412 0.591648 0
M  V30 6373 H 582.924 1.44062 1.45284 0
M  V30 6374 H 582.934 1.22977 3.89025 0
M  V30 6375 H 581.609 2.30067 3.46471 0
M  V30 6376 H 580.186 0.484052 3.69745 0
M  V30 6377 N 582.371 -1.3172 0.865308 0
M  V30 6378 C 583.648 -1.91574 0.394789 0
M  V30 6379 C 584.028 -1.78769 -1.12271 0
M  V30 6380 O 583.376 -1.19245 -1.94918 0
M  V30 6381 C 583.586 -3.37957 0.870982 0
M  V30 6382 C 584.934 -4.15073 0.894384 0
M  V30 6383 O 585.958 -3.4672 0.816325 0
M  V30 6384 O 584.817 -5.37151 1.00651 0
M  V30 6385 H 581.911 -0.818649 0.117229 0
M  V30 6386 H 584.457 -1.4042 0.952913 0
M  V30 6387 H 583.229 -3.41269 1.91444 0
M  V30 6388 H 582.852 -3.96534 0.290907 0
M  V30 6389 N 583.85 -0.624285 -1.44708 0
M  V30 6390 C 585.099 -0.123539 -2.01321 0
M  V30 6391 C 585.412 1.25966 -1.49639 0
M  V30 6392 O 586.618 1.85405 -1.98336 0
M  V30 6393 C 585.074 -0.170124 -3.59498 0
M  V30 6394 C 584.682 -1.55421 -4.20176 0
M  V30 6395 C 586.426 0.274513 -4.23611 0
M  V30 6396 C 584.332 -1.55628 -5.70556 0
M  V30 6397 H 583.263 -0.0424183 -0.752806 0
M  V30 6398 H 585.913 -0.782076 -1.65999 0
M  V30 6399 H 584.296 0.555385 -3.92086 0
M  V30 6400 H 585.47 -2.30276 -3.99136 0
M  V30 6401 H 583.784 -1.94235 -3.68323 0
M  V30 6402 H 586.382 0.292402 -5.339 0
M  V30 6403 H 586.725 1.3005 -3.95465 0
M  V30 6404 H 587.258 -0.398275 -3.95801 0
M  V30 6405 H 583.997 -2.56041 -6.03426 0
M  V30 6406 H 583.517 -0.850563 -5.93739 0
M  V30 6407 H 585.196 -1.28721 -6.34066 0
M  V30 6408 N 585.328 1.53329 -0.364422 0
M  V30 6409 C 586.553 2.06132 0.229033 0
M  V30 6410 C 586.978 1.23625 1.41769 0
M  V30 6411 O 586.336 0.255038 1.79497 0
M  V30 6412 C 586.384 3.55544 0.60174 0
M  V30 6413 O 585.488 3.75771 1.69912 0
M  V30 6414 H 584.829 0.663148 0.0336213 0
M  V30 6415 H 587.359 1.97758 -0.524689 0
M  V30 6416 H 587.369 3.98549 0.873073 0
M  V30 6417 H 586.044 4.15039 -0.267421 0
M  V30 6418 H 584.621 3.44663 1.42343 0
M  V30 6419 N 586.806 0.0935595 1.57322 0
M  V30 6420 C 588.054 -0.569383 1.93913 0
M  V30 6421 C 588.375 -1.68817 0.976009 0
M  V30 6422 O 587.645 -1.9588 0.0278099 0
M  V30 6423 H 586.225 -0.21332 0.715894 0
M  V30 6424 H 588.887 0.156531 1.9427 0
M  V30 6425 H 587.983 -0.980577 2.96296 0
M  V30 6426 N 588.284 -1.56567 -0.180126 0
M  V30 6427 C 589.231 -1.95725 -1.22313 0
M  V30 6428 C 590.201 -0.819911 -1.44453 0
M  V30 6429 O 591.386 -1.07931 -1.57339 0
M  V30 6430 C 588.526 -2.31484 -2.55947 0
M  V30 6431 C 587.639 -3.58354 -2.4126 0
M  V30 6432 C 586.774 -3.83366 -3.67701 0
M  V30 6433 C 585.813 -5.03612 -3.47909 0
M  V30 6434 N 584.95 -5.24802 -4.66398 0
M  V30 6435 H 589.79 -2.84642 -0.882198 0
M  V30 6436 H 587.327 -1.4085 -0.42422 0
M  V30 6437 H 589.285 -2.50237 -3.33822 0
M  V30 6438 H 587.915 -1.45689 -2.88053 0
M  V30 6439 H 586.967 -3.47565 -1.54606 0
M  V30 6440 H 588.279 -4.46386 -2.22577 0
M  V30 6441 H 587.433 -4.02439 -4.54013 0
M  V30 6442 H 586.172 -2.93692 -3.89353 0
M  V30 6443 H 585.177 -4.84447 -2.59983 0
M  V30 6444 H 586.402 -5.94809 -3.27688 0
M  V30 6445 H 584.348 -4.38079 -4.88286 0
M  V30 6446 H 584.265 -6.07041 -4.50596 0
M  V30 6447 H 585.533 -5.48346 -5.54019 0
M  V30 6448 N 589.762 0.448376 -1.51087 0
M  V30 6449 C 591.173 1.0286 -1.5581 0
M  V30 6450 C 591.524 1.92583 -0.374989 0
M  V30 6451 O 590.649 2.10316 0.509533 0
M  V30 6452 C 591.244 1.87223 -2.8237 0
M  V30 6453 C 589.803 2.40314 -2.897 0
M  V30 6454 C 588.95 1.19238 -2.50355 0
M  V30 6455 H 591.901 0.230075 -1.57023 0
M  V30 6456 H 591.922 2.72553 -2.6551 0
M  V30 6457 H 591.434 1.21894 -3.68461 0
M  V30 6458 H 589.535 3.09129 -2.08014 0
M  V30 6459 H 589.648 2.73866 -3.93108 0
M  V30 6460 H 588.012 1.53428 -2.03303 0
M  V30 6461 H 588.795 0.555367 -3.38778 0
M  V30 6462 N 591.24 1.41047 0.703093 0
M  V30 6463 C 592.488 1.39723 1.4602 0
M  V30 6464 C 592.809 0.00461257 1.94999 0
M  V30 6465 O 592.079 -0.952292 1.71196 0
M  V30 6466 H 590.659 0.514281 0.541779 0
M  V30 6467 H 593.321 1.76217 0.832678 0
M  V30 6468 H 592.417 2.07982 2.32701 0
M  V30 6469 N 592.718 -0.936591 1.26751 0
M  V30 6470 C 594.129 -1.49816 1.1141 0
M  V30 6471 C 594.48 -1.9383 -0.304015 0
M  V30 6472 O 593.605 -1.80346 -1.196 0
M  V30 6473 C 594.2 -2.72271 2.01629 0
M  V30 6474 C 592.759 -3.2468 1.9042 0
M  V30 6475 C 591.906 -1.97444 1.94708 0
M  V30 6476 H 594.857 -0.751604 1.39773 0
M  V30 6477 H 594.878 -3.46741 1.56688 0
M  V30 6478 H 594.39 -2.40205 3.04833 0
M  V30 6479 H 592.491 -3.61525 0.901674 0
M  V30 6480 H 592.604 -3.91476 2.76195 0
M  V30 6481 H 590.968 -2.13545 1.38818 0
M  V30 6482 H 591.751 -1.67703 2.9955 0
M  V30 6483 N 594.196 -1.08629 -1.14182 0
M  V30 6484 C 595.607 -0.838003 -1.66836 0
M  V30 6485 C 595.958 0.634885 -1.85644 0
M  V30 6486 O 595.083 1.49008 -1.56926 0
M  V30 6487 C 595.678 -1.51465 -3.03058 0
M  V30 6488 C 594.237 -1.31355 -3.52736 0
M  V30 6489 C 593.384 -1.57599 -2.28162 0
M  V30 6490 H 596.335 -1.24656 -0.982165 0
M  V30 6491 H 596.356 -0.943134 -3.68626 0
M  V30 6492 H 595.868 -2.58661 -2.89337 0
M  V30 6493 H 593.969 -0.262384 -3.71675 0
M  V30 6494 H 594.082 -2.04275 -4.33369 0
M  V30 6495 H 592.446 -0.997659 -2.34348 0
M  V30 6496 H 593.229 -2.66006 -2.17015 0
M  V30 6497 N 595.674 1.31259 -0.872281 0
M  V30 6498 C 597.085 1.78822 -0.536617 0
M  V30 6499 C 597.436 1.71855 0.946594 0
M  V30 6500 O 596.561 1.28769 1.73918 0
M  V30 6501 C 597.156 3.24698 -0.967294 0
M  V30 6502 C 595.715 3.70147 -0.683251 0
M  V30 6503 C 594.862 2.51994 -1.15733 0
M  V30 6504 H 597.813 1.18308 -1.05777 0
M  V30 6505 H 597.834 3.79386 -0.290929 0
M  V30 6506 H 597.346 3.29737 -2.04683 0
M  V30 6507 H 595.447 3.70607 0.384825 0
M  V30 6508 H 595.56 4.62183 -1.2619 0
M  V30 6509 H 593.924 2.48078 -0.577024 0
M  V30 6510 H 594.707 2.59778 -2.24434 0
M  V30 6511 N 597.152 0.631951 1.44375 0
M  V30 6512 C 598.085 -0.121822 2.27875 0
M  V30 6513 C 599.063 -0.850457 1.38586 0
M  V30 6514 O 600.247 -0.854378 1.68026 0
M  V30 6515 C 597.374 -1.17859 3.17533 0
M  V30 6516 C 596.42 -0.550391 4.22934 0
M  V30 6517 S 597.253 0.660145 5.31415 0
M  V30 6518 C 598.409 -0.396613 6.24642 0
M  V30 6519 H 598.642 0.586537 2.91457 0
M  V30 6520 H 596.175 0.420146 1.48574 0
M  V30 6521 H 598.133 -1.78335 3.69739 0
M  V30 6522 H 596.794 -1.85915 2.53169 0
M  V30 6523 H 595.987 -1.34631 4.85685 0
M  V30 6524 H 595.589 -0.0202306 3.73995 0
M  V30 6525 H 597.881 -1.26893 6.65511 0
M  V30 6526 H 598.824 0.195345 7.0783 0
M  V30 6527 H 599.232 -0.72288 5.59852 0
M  V30 6528 N 598.631 -1.53133 0.372548 0
M  V30 6529 C 599.879 -2.00958 -0.214534 0
M  V30 6530 C 600.2 -1.26135 -1.48711 0
M  V30 6531 O 599.47 -0.376597 -1.92246 0
M  V30 6532 H 598.05 -0.742456 -0.0822664 0
M  V30 6533 H 600.712 -1.88367 0.500385 0
M  V30 6534 H 599.808 -3.09031 -0.436605 0
M  V30 6535 N 600.109 -0.101901 -1.5727 0
M  V30 6536 C 601.356 0.560197 -1.94597 0
M  V30 6537 C 601.684 1.67767 -0.984101 0
M  V30 6538 O 600.939 1.95699 -0.00489193 0
M  V30 6539 C 601.238 1.14898 -3.38427 0
M  V30 6540 C 600.904 0.154613 -4.50635 0
M  V30 6541 C 599.566 -0.118861 -4.81053 0
M  V30 6542 C 601.918 -0.523979 -5.18559 0
M  V30 6543 C 599.246 -1.0775 -5.76721 0
M  V30 6544 C 601.598 -1.47114 -6.15256 0
M  V30 6545 C 600.262 -1.75278 -6.44076 0
M  V30 6546 H 599.532 0.204991 -0.712081 0
M  V30 6547 H 602.179 -0.17918 -1.9066 0
M  V30 6548 H 600.484 1.96476 -3.38976 0
M  V30 6549 H 602.181 1.66909 -3.64613 0
M  V30 6550 H 598.771 0.377948 -4.2693 0
M  V30 6551 H 602.955 -0.325851 -4.95229 0
M  V30 6552 H 598.211 -1.30263 -5.97362 0
M  V30 6553 H 602.385 -2.00274 -6.66981 0
M  V30 6554 H 600.012 -2.49717 -7.18015 0
M  V30 6555 N 601.587 1.56661 0.17182 0
M  V30 6556 C 602.537 1.92781 1.21736 0
M  V30 6557 C 603.521 0.796065 1.39827 0
M  V30 6558 O 604.713 1.05924 1.41806 0
M  V30 6559 C 601.842 2.29079 2.55691 0
M  V30 6560 C 600.928 3.48765 2.41296 0
M  V30 6561 N 601.319 4.66022 1.96614 0
M  V30 6562 C 599.617 3.53362 2.72124 0
M  V30 6563 C 600.318 5.48159 1.94669 0
M  V30 6564 N 599.294 4.89189 2.37054 0
M  V30 6565 H 603.096 2.80926 0.863592 0
M  V30 6566 H 600.61 1.57889 0.380096 0
M  V30 6567 H 602.607 2.5315 3.31241 0
M  V30 6568 H 601.267 1.42272 2.91871 0
M  V30 6569 H 602.278 4.9025 1.66959 0
M  V30 6570 H 598.955 2.77033 3.12345 0
M  V30 6571 H 600.345 6.52121 1.61826 0
M  V30 6572 N 603.065 -0.440357 1.51323 0
M  V30 6573 C 604.29 -1.21716 1.67928 0
M  V30 6574 C 604.715 -1.84328 0.374826 0
M  V30 6575 O 604.073 -1.68675 -0.664706 0
M  V30 6576 C 604.121 -2.27914 2.79442 0
M  V30 6577 O 603.225 -3.33325 2.42834 0
M  V30 6578 H 602.566 -0.35674 0.560029 0
M  V30 6579 H 605.096 -0.520417 1.97871 0
M  V30 6580 H 605.106 -2.72746 3.03436 0
M  V30 6581 H 603.781 -1.8172 3.741 0
M  V30 6582 H 602.358 -2.9399 2.294 0
M  V30 6583 N 604.543 -1.41418 -0.695603 0
M  V30 6584 C 605.954 -1.36335 -1.27552 0
M  V30 6585 C 606.305 -0.0464336 -1.96145 0
M  V30 6586 O 605.43 0.855304 -1.9878 0
M  V30 6587 C 606.025 -2.46941 -2.3196 0
M  V30 6588 C 604.584 -2.45256 -2.85529 0
M  V30 6589 C 603.731 -2.2679 -1.59566 0
M  V30 6590 H 606.682 -1.50934 -0.490362 0
M  V30 6591 H 606.703 -2.15997 -3.1325 0
M  V30 6592 H 606.215 -3.42775 -1.82008 0
M  V30 6593 H 604.316 -1.53179 -3.39657 0
M  V30 6594 H 604.429 -3.41565 -3.35961 0
M  V30 6595 H 602.793 -1.74667 -1.85374 0
M  V30 6596 H 603.576 -3.24651 -1.1161 0
M  V30 6597 N 606.021 0.929856 -1.27246 0
M  V30 6598 C 606.951 2.04722 -1.12299 0
M  V30 6599 C 607.932 1.70082 -0.0250464 0
M  V30 6600 O 609.117 1.93176 -0.199141 0
M  V30 6601 C 606.247 3.38721 -0.767145 0
M  V30 6602 C 605.201 3.87466 -1.81808 0
M  V30 6603 C 604.527 5.18246 -1.31626 0
M  V30 6604 C 605.827 4.11095 -3.22177 0
M  V30 6605 H 607.521 2.17485 -2.05769 0
M  V30 6606 H 605.067 1.04503 -0.990715 0
M  V30 6607 H 607.02 4.16366 -0.649413 0
M  V30 6608 H 605.744 3.25967 0.203259 0
M  V30 6609 H 604.403 3.12012 -1.92468 0
M  V30 6610 H 604.051 5.01881 -0.335378 0
M  V30 6611 H 603.751 5.51829 -2.01887 0
M  V30 6612 H 605.275 5.98462 -1.21143 0
M  V30 6613 H 606.689 4.79316 -3.1453 0
M  V30 6614 H 605.086 4.55982 -3.90129 0
M  V30 6615 H 606.156 3.16468 -3.67391 0
M  V30 6616 N 607.499 1.09233 1.13605 0
M  V30 6617 C 608.748 0.82205 1.84188 0
M  V30 6618 C 609.061 -0.654548 1.84323 0
M  V30 6619 O 610.267 -1.04029 2.50779 0
M  V30 6620 C 608.723 1.42066 3.30674 0
M  V30 6621 C 608.331 2.92965 3.38933 0
M  V30 6622 C 610.075 1.22924 4.06313 0
M  V30 6623 C 607.982 3.45922 4.79679 0
M  V30 6624 H 606.912 0.303854 0.690064 0
M  V30 6625 H 609.563 1.31479 1.28006 0
M  V30 6626 H 607.945 0.855613 3.86646 0
M  V30 6627 H 609.119 3.55679 2.92966 0
M  V30 6628 H 607.434 3.11118 2.76757 0
M  V30 6629 H 610.031 1.59945 5.10217 0
M  V30 6630 H 610.374 0.169726 4.15954 0
M  V30 6631 H 610.907 1.76168 3.56665 0
M  V30 6632 H 607.646 4.51484 4.75229 0
M  V30 6633 H 607.166 2.87971 5.26149 0
M  V30 6634 H 608.845 3.43009 5.48592 0
M  V30 6635 N 608.977 -1.30795 0.87923 0
M  V30 6636 C 609.924 -2.28282 0.339968 0
M  V30 6637 C 610.894 -1.56134 -0.566685 0
M  V30 6638 O 612.079 -1.84231 -0.496338 0
M  V30 6639 C 609.219 -3.42225 -0.444501 0
M  V30 6640 C 608.332 -4.29204 0.490717 0
M  V30 6641 C 607.467 -5.30302 -0.308784 0
M  V30 6642 C 606.506 -6.08929 0.622272 0
M  V30 6643 N 605.643 -7.01957 -0.14155 0
M  V30 6644 H 610.483 -2.73794 1.17647 0
M  V30 6645 H 608.02 -1.34682 0.591527 0
M  V30 6646 H 609.978 -4.07038 -0.915186 0
M  V30 6647 H 608.608 -2.97799 -1.24562 0
M  V30 6648 H 607.66 -3.6475 1.07988 0
M  V30 6649 H 608.972 -4.84045 1.20425 0
M  V30 6650 H 608.126 -6.00835 -0.841575 0
M  V30 6651 H 606.865 -4.7614 -1.05556 0
M  V30 6652 H 605.87 -5.37278 1.16674 0
M  V30 6653 H 607.095 -6.65178 1.36804 0
M  V30 6654 H 605.041 -6.50192 -0.870966 0
M  V30 6655 H 604.958 -7.54261 0.51246 0
M  V30 6656 H 606.226 -7.76741 -0.655271 0
M  V30 6657 N 610.455 -0.639598 -1.44038 0
M  V30 6658 C 611.405 0.0823038 -2.27851 0
M  V30 6659 C 612.389 0.807991 -1.39141 0
M  V30 6660 O 613.581 0.692702 -1.62882 0
M  V30 6661 C 610.71 1.05742 -3.26609 0
M  V30 6662 C 609.796 0.330911 -4.22807 0
M  V30 6663 N 610.187 -0.645126 -5.01669 0
M  V30 6664 C 608.485 0.574214 -4.42288 0
M  V30 6665 C 609.186 -1.07513 -5.71678 0
M  V30 6666 N 608.162 -0.412164 -5.42035 0
M  V30 6667 H 611.964 -0.666861 -2.86234 0
M  V30 6668 H 609.478 -0.465777 -1.55577 0
M  V30 6669 H 611.475 1.58927 -3.85419 0
M  V30 6670 H 610.135 1.80679 -2.69787 0
M  V30 6671 H 611.146 -1.02329 -5.0769 0
M  V30 6672 H 607.823 1.30581 -3.96554 0
M  V30 6673 H 609.213 -1.88196 -6.45005 0
M  V30 6674 N 611.933 1.52934 -0.380664 0
M  V30 6675 C 613.344 1.86457 0.0952684 0
M  V30 6676 C 613.695 1.3007 1.46889 0
M  V30 6677 O 612.82 0.628636 2.07068 0
M  V30 6678 C 613.415 3.38323 0.179648 0
M  V30 6679 C 611.974 3.71589 0.599858 0
M  V30 6680 C 611.121 2.76228 -0.243572 0
M  V30 6681 H 614.072 1.46966 -0.59888 0
M  V30 6682 H 614.093 3.67113 1.00042 0
M  V30 6683 H 613.605 3.79333 -0.820228 0
M  V30 6684 H 611.706 3.36144 1.60742 0
M  V30 6685 H 611.819 4.77715 0.364003 0
M  V30 6686 H 610.183 2.53045 0.289855 0
M  V30 6687 H 610.966 3.20074 -1.24127 0
M  V30 6688 N 613.412 0.11024 1.57214 0
M  V30 6689 C 614.322 -0.857077 2.18383 0
M  V30 6690 C 615.338 -1.29915 1.1575 0
M  V30 6691 O 616.514 -1.36394 1.48184 0
M  V30 6692 C 613.579 -2.09264 2.76423 0
M  V30 6693 C 612.64 -1.70333 3.94063 0
M  V30 6694 C 611.873 -2.87999 4.49324 0
M  V30 6695 O 612.096 -4.0317 4.03497 0
M  V30 6696 O 611.03 -2.6559 5.40135 0
M  V30 6697 H 614.856 -0.366561 3.0148 0
M  V30 6698 H 612.441 -0.114914 1.48957 0
M  V30 6699 H 614.323 -2.81644 3.13456 0
M  V30 6700 H 612.998 -2.57339 1.96363 0
M  V30 6701 H 611.905 -0.950864 3.61814 0
M  V30 6702 H 613.238 -1.27007 4.75531 0
M  V30 6703 N 614.89 -1.56749 -0.16351 0
M  V30 6704 C 616.136 -1.82704 -0.880168 0
M  V30 6705 C 616.469 -0.689311 -1.81555 0
M  V30 6706 O 615.744 0.308224 -1.92042 0
M  V30 6707 C 616.027 -3.19084 -1.66905 0
M  V30 6708 C 615.88 -4.43397 -0.756269 0
M  V30 6709 C 617.199 -3.52493 -2.63509 0
M  V30 6710 H 614.318 -0.664608 -0.318535 0
M  V30 6711 H 616.96 -1.89438 -0.146036 0
M  V30 6712 H 615.11 -3.13475 -2.2949 0
M  V30 6713 H 616.782 -4.61079 -0.14269 0
M  V30 6714 H 615.025 -4.33752 -0.0647944 0
M  V30 6715 H 615.696 -5.3539 -1.34393 0
M  V30 6716 H 618.172 -3.58606 -2.11047 0
M  V30 6717 H 617.048 -4.48979 -3.15767 0
M  V30 6718 H 617.309 -2.77597 -3.44082 0
M  V30 6719 N 616.368 0.432326 -1.51554 0
M  V30 6720 C 617.315 1.52512 -1.7323 0
M  V30 6721 C 618.285 1.55863 -0.5741 0
M  V30 6722 O 619.47 1.72796 -0.809093 0
M  V30 6723 C 616.61 2.90183 -1.86783 0
M  V30 6724 C 615.723 2.96322 -3.14352 0
M  V30 6725 C 614.858 4.25147 -3.18471 0
M  V30 6726 C 613.897 4.25172 -4.40335 0
M  V30 6727 N 613.034 5.45529 -4.41975 0
M  V30 6728 H 617.874 1.33332 -2.66508 0
M  V30 6729 H 615.411 0.647613 -1.32077 0
M  V30 6730 H 617.369 3.70071 -1.92623 0
M  V30 6731 H 615.999 3.0791 -0.969087 0
M  V30 6732 H 615.051 2.09066 -3.17798 0
M  V30 6733 H 616.363 2.92203 -4.04251 0
M  V30 6734 H 615.517 5.13411 -3.23255 0
M  V30 6735 H 614.256 4.31929 -2.2647 0
M  V30 6736 H 613.261 3.353 -4.35723 0
M  V30 6737 H 614.486 4.20049 -5.33606 0
M  V30 6738 H 612.432 5.53024 -3.52847 0
M  V30 6739 H 612.349 5.43311 -5.25689 0
M  V30 6740 H 613.617 6.35812 -4.50958 0
M  V30 6741 N 617.846 1.41785 0.688094 0
M  V30 6742 C 619.071 1.45117 1.48175 0
M  V30 6743 C 619.496 0.060129 1.88004 0
M  V30 6744 O 618.854 -0.938385 1.55126 0
M  V30 6745 C 618.902 2.37224 2.71583 0
M  V30 6746 O 618.006 1.83443 3.69354 0
M  V30 6747 H 617.347 0.492208 0.445676 0
M  V30 6748 H 619.877 1.86329 0.845145 0
M  V30 6749 H 619.887 2.53353 3.19806 0
M  V30 6750 H 618.562 3.38293 2.41931 0
M  V30 6751 H 617.139 1.76802 3.28322 0
M  V30 6752 N 619.324 -0.923095 1.27737 0
M  V30 6753 C 620.287 -2.00587 1.10894 0
M  V30 6754 C 621.287 -1.60718 0.0514927 0
M  V30 6755 O 622.477 -1.71658 0.296481 0
M  V30 6756 C 619.609 -3.33829 0.690717 0
M  V30 6757 H 620.802 -2.16959 2.07048 0
M  V30 6758 H 618.355 -1.10451 1.1059 0
M  V30 6759 H 619.09 -3.23157 -0.272 0
M  V30 6760 H 618.875 -3.64125 1.45448 0
M  V30 6761 H 620.365 -4.13336 0.595252 0
M  V30 6762 N 620.802 -1.09834 -1.13024 0
M  V30 6763 C 622.051 -0.831806 -1.83749 0
M  V30 6764 C 622.364 0.644763 -1.84668 0
M  V30 6765 O 623.57 1.02697 -2.51327 0
M  V30 6766 C 622.026 -1.43817 -3.29916 0
M  V30 6767 C 621.634 -2.94759 -3.37374 0
M  V30 6768 C 623.378 -1.25077 -4.05655 0
M  V30 6769 C 621.285 -3.48461 -4.77838 0
M  V30 6770 H 620.215 -0.30751 -0.688443 0
M  V30 6771 H 622.866 -1.32156 -1.27307 0
M  V30 6772 H 621.248 -0.876106 -3.86187 0
M  V30 6773 H 622.422 -3.57228 -2.91076 0
M  V30 6774 H 620.737 -3.12581 -2.75103 0
M  V30 6775 H 623.334 -1.62649 -5.09362 0
M  V30 6776 H 623.677 -0.191782 -4.15858 0
M  V30 6777 H 624.21 -1.78057 -3.55725 0
M  V30 6778 H 620.949 -4.53998 -4.72828 0
M  V30 6779 H 620.469 -2.90757 -5.24615 0
M  V30 6780 H 622.148 -3.45914 -5.46766 0
M  V30 6781 N 622.28 1.30327 -0.886154 0
M  V30 6782 C 623.19 2.31854 -0.357866 0
M  V30 6783 C 624.206 1.65392 0.540502 0
M  V30 6784 O 625.382 1.96683 0.433339 0
M  V30 6785 C 622.447 3.44171 0.417999 0
M  V30 6786 C 621.508 4.26257 -0.510263 0
M  V30 6787 C 620.741 5.3321 0.228669 0
M  V30 6788 O 620.964 5.51542 1.45458 0
M  V30 6789 O 619.898 6.0042 -0.421832 0
M  V30 6790 H 623.724 2.78995 -1.19982 0
M  V30 6791 H 621.309 1.34518 -0.650028 0
M  V30 6792 H 623.191 4.12588 0.857251 0
M  V30 6793 H 621.866 2.99164 1.23623 0
M  V30 6794 H 620.773 3.60533 -0.99835 0
M  V30 6795 H 622.106 4.74871 -1.29454 0
M  V30 6796 N 623.758 0.647228 1.43697 0
M  V30 6797 C 625.006 0.157876 2.01482 0
M  V30 6798 C 625.327 -1.23039 1.51282 0
M  V30 6799 O 624.597 -1.82071 0.722982 0
M  V30 6800 H 623.177 0.0553745 0.744945 0
M  V30 6801 H 625.839 0.83755 1.75986 0
M  V30 6802 H 624.935 0.137895 3.11795 0
M  V30 6803 N 625.236 -1.5273 0.388769 0
M  V30 6804 C 626.485 -2.00757 -0.194833 0
M  V30 6805 C 626.798 -1.27951 -1.47946 0
M  V30 6806 O 628.004 -1.66686 -2.14308 0
M  V30 6807 C 626.46 -3.57695 -0.397762 0
M  V30 6808 C 626.068 -4.394 0.873583 0
M  V30 6809 C 627.812 -4.14012 -0.937759 0
M  V30 6810 C 625.719 -5.87938 0.638962 0
M  V30 6811 H 624.649 -0.750101 -0.0765845 0
M  V30 6812 H 627.3 -1.76239 0.511086 0
M  V30 6813 H 625.682 -3.7846 -1.16552 0
M  V30 6814 H 626.856 -4.30403 1.64591 0
M  V30 6815 H 625.171 -3.94301 1.33849 0
M  V30 6816 H 627.768 -5.22645 -1.12899 0
M  V30 6817 H 628.111 -3.7007 -1.90666 0
M  V30 6818 H 628.644 -3.97137 -0.229588 0
M  V30 6819 H 625.383 -6.36202 1.57885 0
M  V30 6820 H 624.903 -5.99726 -0.094443 0
M  V30 6821 H 626.582 -6.46423 0.273299 0
M  V30 6822 N 626.714 -0.118576 -1.57153 0
M  V30 6823 C 627.661 0.831789 -2.1529 0
M  V30 6824 C 628.631 1.26385 -1.07778 0
M  V30 6825 O 629.816 1.34144 -1.35684 0
M  V30 6826 C 626.956 2.07664 -2.75626 0
M  V30 6827 C 626.069 1.69298 -3.97444 0
M  V30 6828 C 625.204 2.88747 -4.45868 0
M  V30 6829 C 624.243 2.46619 -5.60219 0
M  V30 6830 N 623.38 3.5898 -6.03389 0
M  V30 6831 H 628.22 0.329183 -2.96176 0
M  V30 6832 H 625.757 0.150792 -1.46325 0
M  V30 6833 H 627.715 2.80601 -3.08738 0
M  V30 6834 H 626.345 2.55384 -1.97431 0
M  V30 6835 H 625.397 0.862374 -3.70496 0
M  V30 6836 H 626.709 1.34338 -4.80369 0
M  V30 6837 H 625.863 3.69909 -4.80887 0
M  V30 6838 H 624.602 3.26933 -3.61892 0
M  V30 6839 H 623.607 1.63889 -5.24805 0
M  V30 6840 H 624.832 2.0955 -6.45961 0
M  V30 6841 H 622.778 3.9684 -5.22354 0
M  V30 6842 H 622.695 3.27942 -6.81168 0
M  V30 6843 H 623.963 4.40583 -6.43045 0
M  V30 6844 N 628.193 1.56834 0.155195 0
M  V30 6845 C 629.423 1.86778 0.883044 0
M  V30 6846 C 629.831 0.703824 1.75622 0
M  V30 6847 O 629.174 -0.33581 1.80605 0
M  V30 6848 C 629.236 3.1133 1.79761 0
M  V30 6849 C 628.9 4.43504 1.10242 0
M  V30 6850 C 629.897 5.17859 0.460204 0
M  V30 6851 C 627.582 4.90233 1.09437 0
M  V30 6852 C 629.576 6.37144 -0.180782 0
M  V30 6853 C 627.263 6.09444 0.449569 0
M  V30 6854 C 628.261 6.82744 -0.186888 0
M  V30 6855 O 627.949 7.99692 -0.821486 0
M  V30 6856 H 627.681 0.62352 0.261149 0
M  V30 6857 H 630.235 2.04813 0.155204 0
M  V30 6858 H 628.465 2.89282 2.56618 0
M  V30 6859 H 630.154 3.27587 2.39669 0
M  V30 6860 H 630.92 4.8283 0.458289 0
M  V30 6861 H 626.799 4.33109 1.57917 0
M  V30 6862 H 630.343 6.94296 -0.678154 0
M  V30 6863 H 626.24 6.43936 0.449123 0
M  V30 6864 H 627.008 8.15306 -0.722337 0
M  V30 6865 N 629.671 -0.424282 1.51781 0
M  V30 6866 C 630.92 -1.16961 1.64326 0
M  V30 6867 C 631.233 -1.92035 0.371749 0
M  V30 6868 O 632.439 -2.68873 0.37676 0
M  V30 6869 C 630.895 -2.12782 2.90262 0
M  V30 6870 C 630.503 -1.43295 4.24465 0
M  V30 6871 C 632.247 -2.87667 3.12166 0
M  V30 6872 C 630.154 -2.37676 5.41538 0
M  V30 6873 H 629.084 -0.440293 0.612093 0
M  V30 6874 H 631.735 -0.435431 1.78259 0
M  V30 6875 H 630.117 -2.8969 2.69992 0
M  V30 6876 H 631.291 -0.718564 4.55163 0
M  V30 6877 H 629.606 -0.805118 4.08542 0
M  V30 6878 H 632.203 -3.58395 3.96808 0
M  V30 6879 H 632.546 -3.49758 2.25776 0
M  V30 6880 H 633.079 -2.17863 3.32837 0
M  V30 6881 H 629.818 -1.80255 6.30229 0
M  V30 6882 H 629.338 -3.07132 5.15199 0
M  V30 6883 H 631.017 -2.98529 5.74012 0
M  V30 6884 N 631.149 -1.42148 -0.680565 0
M  V30 6885 C 632.112 -1.4488 -1.77602 0
M  V30 6886 C 633.112 -0.337209 -1.57224 0
M  V30 6887 O 634.302 -0.597778 -1.63622 0
M  V30 6888 C 631.434 -1.27483 -3.16166 0
M  V30 6889 H 632.627 -2.42412 -1.76568 0
M  V30 6890 H 630.18 -1.28511 -0.889645 0
M  V30 6891 H 630.915 -0.30851 -3.22829 0
M  V30 6892 H 630.7 -2.08037 -3.3236 0
M  V30 6893 H 632.19 -1.32265 -3.96101 0
M  V30 6894 N 632.627 0.916307 -1.28225 0
M  V30 6895 C 633.537 2.05165 -1.13775 0
M  V30 6896 C 634.553 1.73879 -0.0649418 0
M  V30 6897 O 635.729 1.99531 -0.273722 0
M  V30 6898 C 632.794 3.37385 -0.798267 0
M  V30 6899 C 631.855 3.82296 -1.95316 0
M  V30 6900 C 631.088 5.08206 -1.62978 0
M  V30 6901 O 631.311 5.6781 -0.542948 0
M  V30 6902 O 630.245 5.48768 -2.47261 0
M  V30 6903 H 634.071 2.20273 -2.09078 0
M  V30 6904 H 631.656 1.0373 -1.07519 0
M  V30 6905 H 633.538 4.16773 -0.62278 0
M  V30 6906 H 632.213 3.23458 0.125139 0
M  V30 6907 H 631.12 3.03746 -2.18378 0
M  V30 6908 H 632.453 4.00782 -2.85718 0
M  V30 6909 N 634.105 1.10431 1.1244 0
M  V30 6910 C 635.333 0.868872 1.87772 0
M  V30 6911 C 635.748 -0.580645 1.7965 0
M  V30 6912 O 635.105 -1.40031 1.17036 0
M  V30 6913 C 635.156 1.30855 3.36986 0
M  V30 6914 O 634.877 2.70123 3.44914 0
M  V30 6915 C 636.378 1.107 4.29256 0
M  V30 6916 H 633.598 0.311868 0.59412 0
M  V30 6917 H 636.142 1.46897 1.42273 0
M  V30 6918 H 634.297 0.752126 3.80029 0
M  V30 6919 H 634.711 2.88923 4.37748 0
M  V30 6920 H 636.185 1.46378 5.32238 0
M  V30 6921 H 636.662 0.0456228 4.39176 0
M  V30 6922 H 637.268 1.64988 3.91994 0
M  V30 6923 N 635.583 -1.29855 0.893053 0
M  V30 6924 C 636.516 -2.26079 0.3104 0
M  V30 6925 C 637.494 -1.52145 -0.573644 0
M  V30 6926 O 638.678 -1.8113 -0.521937 0
M  V30 6927 C 635.805 -3.34069 -0.558179 0
M  V30 6928 C 634.851 -4.25721 0.257638 0
M  V30 6929 S 635.684 -5.09409 1.65114 0
M  V30 6930 C 636.84 -6.20903 0.789307 0
M  V30 6931 H 637.073 -2.75151 1.12602 0
M  V30 6932 H 634.606 -1.37975 0.692978 0
M  V30 6933 H 636.564 -3.9675 -1.05355 0
M  V30 6934 H 635.225 -2.83705 -1.34797 0
M  V30 6935 H 634.418 -5.02366 -0.405562 0
M  V30 6936 H 634.02 -3.67656 0.685917 0
M  V30 6937 H 636.312 -6.77499 0.00978451 0
M  V30 6938 H 637.255 -6.91426 1.52762 0
M  V30 6939 H 637.663 -5.63435 0.346634 0
M  V30 6940 N 637.061 -0.65484 -1.43351 0
M  V30 6941 C 638.008 0.0357713 -2.30772 0
M  V30 6942 C 638.978 0.813035 -1.44841 0
M  V30 6943 O 640.163 0.789314 -1.73708 0
M  V30 6944 C 637.303 0.995084 -3.30442 0
M  V30 6945 C 636.416 0.21375 -4.31471 0
M  V30 6946 C 635.551 1.16701 -5.18222 0
M  V30 6947 C 634.59 0.376201 -6.10943 0
M  V30 6948 N 633.727 1.28113 -6.90313 0
M  V30 6949 H 638.567 -0.71559 -2.89281 0
M  V30 6950 H 636.104 -0.364645 -1.42509 0
M  V30 6951 H 638.062 1.5649 -3.86739 0
M  V30 6952 H 636.692 1.7133 -2.7358 0
M  V30 6953 H 635.744 -0.472377 -3.77456 0
M  V30 6954 H 637.056 -0.401103 -4.97185 0
M  V30 6955 H 636.21 1.8074 -5.79153 0
M  V30 6956 H 634.949 1.81577 -4.52638 0
M  V30 6957 H 633.954 -0.277534 -5.49099 0
M  V30 6958 H 635.179 -0.268178 -6.7857 0
M  V30 6959 H 633.125 1.91666 -6.27376 0
M  V30 6960 H 633.042 0.720879 -7.52555 0
M  V30 6961 H 634.31 1.90962 -7.55747 0
M  V30 6962 N 638.539 1.52521 -0.396863 0
M  V30 6963 C 639.764 2.06571 0.185258 0
M  V30 6964 C 640.189 1.26605 1.39115 0
M  V30 6965 O 639.547 0.293055 1.78916 0
M  V30 6966 C 639.595 3.5674 0.526189 0
M  V30 6967 O 638.699 3.7929 1.61903 0
M  V30 6968 H 638.04 0.663712 0.0195474 0
M  V30 6969 H 640.57 1.966 -0.566519 0
M  V30 6970 H 640.58 4.00311 0.788338 0
M  V30 6971 H 639.255 4.14379 -0.355397 0
M  V30 6972 H 637.832 3.47605 1.35 0
M  V30 6973 N 640.017 0.126909 1.57088 0
M  V30 6974 C 641.294 -0.573152 1.87014 0
M  V30 6975 C 641.674 -1.84297 1.02945 0
M  V30 6976 O 641.022 -2.28232 0.110573 0
M  V30 6977 C 641.232 -0.857984 3.38289 0
M  V30 6978 C 642.58 -1.20759 4.07066 0
M  V30 6979 O 643.604 -0.947992 3.43353 0
M  V30 6980 O 642.463 -1.69516 5.19545 0
M  V30 6981 H 639.557 -0.290082 0.774456 0
M  V30 6982 H 642.103 0.162008 1.68925 0
M  V30 6983 H 640.875 0.0415286 3.91278 0
M  V30 6984 H 640.498 -1.64803 3.61837 0
M  V30 6985 N 641.495 -1.56914 -0.146875 0
M  V30 6986 C 642.427 -1.94878 -1.20645 0
M  V30 6987 C 643.44 -0.844633 -1.39175 0
M  V30 6988 O 644.629 -1.12304 -1.38744 0
M  V30 6989 C 641.729 -2.20769 -2.57127 0
M  V30 6990 C 640.902 -3.52053 -2.59572 0
M  V30 6991 C 639.961 -3.66482 -3.77594 0
M  V30 6992 O 638.987 -4.38873 -3.62462 0
M  V30 6993 N 640.189 -3.03156 -4.95052 0
M  V30 6994 H 642.954 -2.86374 -0.883757 0
M  V30 6995 H 640.515 -1.58366 -0.336436 0
M  V30 6996 H 642.507 -2.27664 -3.34591 0
M  V30 6997 H 641.077 -1.35538 -2.81688 0
M  V30 6998 H 640.297 -3.56598 -1.68023 0
M  V30 6999 H 641.585 -4.38396 -2.58238 0
M  V30 7000 H 640.983 -2.44258 -5.10249 0
M  V30 7001 H 639.54 -3.15611 -5.70292 0
M  V30 7002 N 642.974 0.416227 -1.52004 0
M  V30 7003 C 643.884 1.53147 -1.77717 0
M  V30 7004 C 644.9 1.609 -0.662368 0
M  V30 7005 O 646.076 1.77747 -0.946991 0
M  V30 7006 C 643.141 2.88948 -1.91598 0
M  V30 7007 C 642.202 2.9114 -3.15493 0
M  V30 7008 C 641.435 4.20464 -3.28703 0
M  V30 7009 O 641.658 5.13981 -2.47345 0
M  V30 7010 O 640.592 4.29368 -4.21813 0
M  V30 7011 H 644.418 1.34357 -2.72363 0
M  V30 7012 H 642.003 0.601373 -1.36762 0
M  V30 7013 H 643.885 3.69505 -2.02593 0
M  V30 7014 H 642.56 3.07821 -1.00141 0
M  V30 7015 H 641.467 2.09461 -3.09962 0
M  V30 7016 H 642.8 2.77216 -4.06709 0
M  V30 7017 N 644.452 1.42507 0.673017 0
M  V30 7018 C 645.677 1.4668 1.46627 0
M  V30 7019 C 646.102 0.080066 1.8793 0
M  V30 7020 O 645.46 -0.921879 1.56112 0
M  V30 7021 C 645.508 2.40091 2.69051 0
M  V30 7022 O 644.612 1.8735 3.67387 0
M  V30 7023 H 643.953 0.496908 0.44043 0
M  V30 7024 H 646.483 1.87215 0.825334 0
M  V30 7025 H 646.493 2.56731 3.17101 0
M  V30 7026 H 645.168 3.4084 2.3833 0
M  V30 7027 H 643.745 1.80274 3.26429 0
M  V30 7028 N 645.93 -0.909495 1.28709 0
M  V30 7029 C 646.878 -2.03381 1.12866 0
M  V30 7030 C 647.872 -1.69335 0.0468074 0
M  V30 7031 O 649.078 -1.78819 0.205891 0
M  V30 7032 H 645.453 -0.666452 0.348348 0
M  V30 7033 H 647.424 -2.13885 2.08077 0
M  V30 7034 C 646.173 -3.38092 0.811742 0
M  V30 7035 H 645.496 -3.64786 1.63619 0
M  V30 7036 H 646.936 -4.17477 0.740869 0
M  V30 7037 C 645.395 -3.33395 -0.484679 0
M  V30 7038 O 645.925 -3.72089 -1.5137 0
M  V30 7039 N 644.131 -2.86491 -0.486961 0
M  V30 7040 H 643.678 -2.55199 0.350877 0
M  V30 7041 H 643.636 -2.83731 -1.3544 0
M  V30 7042 N 647.408 -1.11026 -1.11852 0
M  V30 7043 C 648.356 -0.759643 -2.19846 0
M  V30 7044 C 649.35 0.246964 -1.6759 0
M  V30 7045 O 650.556 0.106693 -1.79684 0
M  V30 7046 H 646.931 -0.22775 -0.716683 0
M  V30 7047 H 648.902 -1.6792 -2.46669 0
M  V30 7048 C 647.651 -0.214364 -3.47039 0
M  V30 7049 H 646.974 -0.980175 -3.87599 0
M  V30 7050 H 648.414 -0.00717047 -4.23999 0
M  V30 7051 C 646.873 1.05436 -3.19976 0
M  V30 7052 O 647.403 2.13483 -3.40276 0
M  V30 7053 N 645.609 0.975436 -2.7374 0
M  V30 7054 H 645.156 0.0960853 -2.57421 0
M  V30 7055 H 645.114 1.82501 -2.5601 0
M  V30 7056 N 648.886 1.2938 -0.899927 0
M  V30 7057 C 649.849 2.25983 -0.382677 0
M  V30 7058 C 650.849 1.53366 0.483259 0
M  V30 7059 O 652.039 1.71798 0.28828 0
M  V30 7060 C 649.171 3.37878 0.452915 0
M  V30 7061 H 650.364 2.73252 -1.23586 0
M  V30 7062 H 647.917 1.40825 -0.678088 0
M  V30 7063 H 648.652 2.95949 1.32608 0
M  V30 7064 H 648.437 3.91742 -0.167562 0
M  V30 7065 H 649.927 4.09746 0.806107 0
M  V30 7066 N 650.364 0.662433 1.43002 0
M  V30 7067 C 651.327 -0.0142016 2.29196 0
M  V30 7068 C 652.327 -0.741394 1.42688 0
M  V30 7069 O 653.517 -0.581257 1.64216 0
M  V30 7070 C 650.649 -1.03084 3.24941 0
M  V30 7071 H 651.842 0.7443 2.90517 0
M  V30 7072 H 649.395 0.424133 1.50435 0
M  V30 7073 H 650.13 -1.81826 2.68533 0
M  V30 7074 H 649.915 -0.512946 3.8873 0
M  V30 7075 H 651.405 -1.50308 3.89612 0
M  V30 7076 N 651.842 -1.52309 0.404946 0
M  V30 7077 C 652.805 -2.25491 -0.410651 0
M  V30 7078 C 653.805 -1.27704 -0.977154 0
M  V30 7079 O 654.995 -1.51679 -0.856691 0
M  V30 7080 C 652.127 -3.02197 -1.57765 0
M  V30 7081 H 653.32 -2.99015 0.230277 0
M  V30 7082 H 650.873 -1.55506 0.157377 0
M  V30 7083 H 651.608 -2.33013 -2.25556 0
M  V30 7084 H 651.393 -3.73987 -1.17797 0
M  V30 7085 H 652.883 -3.57719 -2.15469 0
M  V30 7086 N 653.32 -0.135238 -1.57019 0
M  V30 7087 C 654.23 0.822226 -2.19719 0
M  V30 7088 C 655.246 1.28057 -1.17802 0
M  V30 7089 O 656.422 1.3402 -1.50335 0
M  V30 7090 C 653.487 2.0484 -2.79717 0
M  V30 7091 C 652.548 1.64042 -3.96723 0
M  V30 7092 C 651.781 2.80814 -4.53849 0
M  V30 7093 O 652.004 3.967 -4.0986 0
M  V30 7094 O 650.938 2.56963 -5.44292 0
M  V30 7095 H 654.764 0.318552 -3.02025 0
M  V30 7096 H 652.349 0.0912021 -1.49121 0
M  V30 7097 H 654.231 2.76622 -3.17897 0
M  V30 7098 H 652.906 2.54182 -2.00432 0
M  V30 7099 H 651.813 0.893182 -3.63281 0
M  V30 7100 H 653.146 1.19426 -4.77492 0
M  V30 7101 N 654.798 1.5699 0.138552 0
M  V30 7102 C 656.044 1.84966 0.846116 0
M  V30 7103 C 656.399 0.72038 1.78405 0
M  V30 7104 O 655.692 -0.281076 1.89527 0
M  V30 7105 C 655.886 3.17007 1.65049 0
M  V30 7106 C 655.715 4.42672 0.79194 0
M  V30 7107 C 654.485 5.03254 0.454293 0
M  V30 7108 C 656.683 5.14164 0.118419 0
M  V30 7109 N 654.665 6.12482 -0.416964 0
M  V30 7110 C 656.036 6.16966 -0.61263 0
M  V30 7111 C 658.091 4.97884 0.0399671 0
M  V30 7112 C 656.794 7.0525 -1.41473 0
M  V30 7113 C 658.82 5.86639 -0.748901 0
M  V30 7114 C 658.182 6.88929 -1.4682 0
M  V30 7115 H 654.281 0.727362 0.287172 0
M  V30 7116 H 656.865 1.94383 0.110972 0
M  V30 7117 H 655.036 3.08722 2.35681 0
M  V30 7118 H 656.768 3.3286 2.30187 0
M  V30 7119 H 653.523 4.6693 0.792038 0
M  V30 7120 H 653.947 6.7172 -0.843865 0
M  V30 7121 H 658.589 4.18779 0.581728 0
M  V30 7122 H 656.307 7.83777 -1.96772 0
M  V30 7123 H 659.893 5.7611 -0.811705 0
M  V30 7124 H 658.773 7.56419 -2.06882 0
M  V30 7125 N 656.276 -0.40816 1.52223 0
M  V30 7126 C 657.223 -1.49737 1.75635 0
M  V30 7127 C 658.193 -1.5493 0.598824 0
M  V30 7128 O 659.378 -1.71487 0.83648 0
M  V30 7129 C 656.518 -2.87174 1.91376 0
M  V30 7130 C 655.631 -2.91283 3.19027 0
M  V30 7131 C 654.766 -4.20026 3.25195 0
M  V30 7132 C 653.805 -4.18113 4.47044 0
M  V30 7133 N 652.942 -5.38429 4.50598 0
M  V30 7134 H 657.782 -1.29075 2.68596 0
M  V30 7135 H 655.319 -0.626518 1.33091 0
M  V30 7136 H 657.277 -3.66959 1.98486 0
M  V30 7137 H 655.907 -3.06329 1.01795 0
M  V30 7138 H 654.959 -2.03984 3.21084 0
M  V30 7139 H 656.271 -2.85734 4.08849 0
M  V30 7140 H 655.425 -5.08204 3.31382 0
M  V30 7141 H 654.164 -4.28271 2.33313 0
M  V30 7142 H 653.169 -3.28325 4.41002 0
M  V30 7143 H 654.394 -4.11507 5.40221 0
M  V30 7144 H 652.34 -5.4734 3.616 0
M  V30 7145 H 652.257 -5.34879 5.34266 0
M  V30 7146 H 653.525 -6.28557 4.61016 0
M  V30 7147 N 657.755 -1.42862 -0.66545 0
M  V30 7148 C 658.985 -1.47032 -1.45138 0
M  V30 7149 C 659.393 -0.0829977 -1.89018 0
M  V30 7150 O 658.736 0.914551 -1.59316 0
M  V30 7151 C 658.798 -2.34302 -2.72659 0
M  V30 7152 C 658.462 -3.82034 -2.50796 0
M  V30 7153 C 659.459 -4.73453 -2.14799 0
M  V30 7154 C 657.144 -4.26397 -2.655 0
M  V30 7155 C 659.138 -6.07228 -1.93785 0
M  V30 7156 C 656.825 -5.6023 -2.44103 0
M  V30 7157 C 657.823 -6.50462 -2.08299 0
M  V30 7158 O 657.511 -7.8182 -1.87116 0
M  V30 7159 H 657.243 -0.501969 -0.452772 0
M  V30 7160 H 659.797 -1.88137 -0.82423 0
M  V30 7161 H 658.027 -1.88063 -3.37889 0
M  V30 7162 H 659.716 -2.29818 -3.34572 0
M  V30 7163 H 660.482 -4.4046 -2.03026 0
M  V30 7164 H 656.361 -3.56448 -2.92345 0
M  V30 7165 H 659.905 -6.7762 -1.65763 0
M  V30 7166 H 655.802 -5.92793 -2.55475 0
M  V30 7167 H 656.57 -7.93274 -2.01639 0
M  V30 7168 N 659.233 0.902656 -1.29189 0
M  V30 7169 C 660.479 1.65532 -1.17163 0
M  V30 7170 C 660.812 1.92216 0.276879 0
M  V30 7171 O 660.087 1.53048 1.20027 0
M  V30 7172 C 660.37 3.00629 -1.98228 0
M  V30 7173 C 660.223 2.81029 -3.51202 0
M  V30 7174 C 661.542 4.01321 -1.80635 0
M  V30 7175 H 658.661 0.60071 -0.426985 0
M  V30 7176 H 661.303 1.04578 -1.5863 0
M  V30 7177 H 659.453 3.52656 -1.62991 0
M  V30 7178 H 661.125 2.35927 -3.96404 0
M  V30 7179 H 659.368 2.1587 -3.76275 0
M  V30 7180 H 660.039 3.77014 -4.03192 0
M  V30 7181 H 662.515 3.58394 -2.11406 0
M  V30 7182 H 661.391 4.93792 -2.3971 0
M  V30 7183 H 661.652 4.35505 -0.760754 0
M  V30 7184 N 660.711 1.11618 1.11262 0
M  V30 7185 C 661.674 0.779447 2.15539 0
M  V30 7186 C 662.674 -0.202081 1.59525 0
M  V30 7187 O 663.864 0.0226356 1.74185 0
M  V30 7188 C 660.996 0.15674 3.40539 0
M  V30 7189 H 662.189 1.70324 2.4684 0
M  V30 7190 H 659.742 0.918298 1.26479 0
M  V30 7191 H 660.477 -0.777186 3.1485 0
M  V30 7192 H 660.262 0.863308 3.82478 0
M  V30 7193 H 661.752 -0.062661 4.17553 0
M  V30 7194 N 662.189 -1.289 0.906776 0
M  V30 7195 C 663.122 -2.25737 0.334362 0
M  V30 7196 C 664.1 -1.52745 -0.557474 0
M  V30 7197 O 665.284 -1.81673 -0.502697 0
M  V30 7198 C 662.411 -3.34642 -0.522716 0
M  V30 7199 C 661.457 -4.25424 0.302777 0
M  V30 7200 S 662.29 -5.07629 1.70508 0
M  V30 7201 C 663.446 -6.20031 0.855118 0
M  V30 7202 H 663.679 -2.73941 1.15514 0
M  V30 7203 H 661.212 -1.37233 0.707573 0
M  V30 7204 H 663.17 -3.97845 -1.01141 0
M  V30 7205 H 661.831 -2.85119 -1.31781 0
M  V30 7206 H 661.024 -5.02767 -0.352257 0
M  V30 7207 H 660.626 -3.66908 0.724873 0
M  V30 7208 H 662.918 -6.77451 0.0816418 0
M  V30 7209 H 663.861 -6.89767 1.60087 0
M  V30 7210 H 664.269 -5.63035 0.406375 0
M  V30 7211 N 663.667 -0.670007 -1.42649 0
M  V30 7212 C 664.913 -0.190568 -2.01903 0
M  V30 7213 C 665.246 1.19817 -1.52832 0
M  V30 7214 O 664.521 1.80342 -0.728485 0
M  V30 7215 C 664.804 -0.21991 -3.59428 0
M  V30 7216 C 664.657 -1.64376 -4.18689 0
M  V30 7217 C 665.976 0.434519 -4.3795 0
M  V30 7218 H 663.095 -0.0707219 -0.733599 0
M  V30 7219 H 665.737 -0.853883 -1.69732 0
M  V30 7220 H 663.887 0.344894 -3.86966 0
M  V30 7221 H 665.559 -2.26044 -4.02122 0
M  V30 7222 H 663.802 -2.18591 -3.747 0
M  V30 7223 H 664.473 -1.61601 -5.27815 0
M  V30 7224 H 666.949 -0.0462156 -4.16074 0
M  V30 7225 H 665.825 0.38333 -5.4756 0
M  V30 7226 H 666.086 1.51135 -4.15464 0
M  V30 7227 N 665.145 1.52092 -0.413018 0
M  V30 7228 C 666.078 2.23613 0.455234 0
M  V30 7229 C 667.056 1.2459 1.04481 0
M  V30 7230 O 668.24 1.53653 1.09193 0
M  V30 7231 C 665.367 2.96775 1.63224 0
M  V30 7232 C 664.413 4.10261 1.16568 0
M  V30 7233 S 665.246 5.35348 0.127633 0
M  V30 7234 C 666.402 6.1204 1.30987 0
M  V30 7235 H 666.635 2.96911 -0.152042 0
M  V30 7236 H 664.168 1.53134 -0.197343 0
M  V30 7237 H 666.126 3.39532 2.30713 0
M  V30 7238 H 664.787 2.23113 2.21087 0
M  V30 7239 H 663.98 4.6064 2.04515 0
M  V30 7240 H 663.582 3.6964 0.569386 0
M  V30 7241 H 665.874 6.39651 2.23276 0
M  V30 7242 H 666.817 7.03022 0.846533 0
M  V30 7243 H 667.225 5.43161 1.53743 0
M  V30 7244 N 666.623 0.143563 1.56945 0
M  V30 7245 C 667.9 -0.553285 1.87612 0
M  V30 7246 C 668.28 -1.83195 1.04894 0
M  V30 7247 O 667.628 -2.28102 0.134773 0
M  V30 7248 C 667.838 -0.822055 3.3918 0
M  V30 7249 C 669.186 -1.16435 4.08324 0
M  V30 7250 O 670.21 -0.911522 3.4434 0
M  V30 7251 O 669.069 -1.63996 5.21313 0
M  V30 7252 H 666.163 -0.281851 0.777489 0
M  V30 7253 H 668.709 0.179916 1.68744 0
M  V30 7254 H 667.481 0.0830265 3.91212 0
M  V30 7255 H 667.104 -1.60956 3.63564 0
M  V30 7256 N 668.101 -1.57061 -0.130224 0
M  V30 7257 C 669.051 -1.95941 -1.16582 0
M  V30 7258 C 670.035 -0.832858 -1.37667 0
M  V30 7259 O 671.227 -1.09647 -1.38948 0
M  V30 7260 C 668.356 -2.35777 -2.49528 0
M  V30 7261 C 667.442 -3.5504 -2.31964 0
M  V30 7262 N 667.833 -4.71071 -1.84189 0
M  V30 7263 C 666.131 -3.60453 -2.62659 0
M  V30 7264 C 666.832 -5.53128 -1.80068 0
M  V30 7265 N 665.808 -4.95303 -2.24001 0
M  V30 7266 H 669.61 -2.83117 -0.788806 0
M  V30 7267 H 667.124 -1.58842 -0.3381 0
M  V30 7268 H 669.121 -2.61843 -3.24413 0
M  V30 7269 H 667.781 -1.49961 -2.87996 0
M  V30 7270 H 668.792 -4.94504 -1.53903 0
M  V30 7271 H 665.469 -2.85217 -3.0489 0
M  V30 7272 H 666.859 -6.56182 -1.4448 0
M  V30 7273 N 669.579 0.400081 -1.52437 0
M  V30 7274 C 670.828 1.14332 -1.66166 0
M  V30 7275 C 671.141 1.91419 -0.402253 0
M  V30 7276 O 672.347 2.6824 -0.419487 0
M  V30 7277 C 670.803 2.08137 -2.9361 0
M  V30 7278 C 670.411 1.36524 -4.26691 0
M  V30 7279 C 672.155 2.82664 -3.16703 0
M  V30 7280 C 670.062 2.29031 -5.45251 0
M  V30 7281 H 668.992 0.430499 -0.61902 0
M  V30 7282 H 671.643 0.407017 -1.78929 0
M  V30 7283 H 670.025 2.85358 -2.74567 0
M  V30 7284 H 671.199 0.646061 -4.56249 0
M  V30 7285 H 669.514 0.74002 -4.09771 0
M  V30 7286 H 672.111 3.52037 -4.0246 0
M  V30 7287 H 672.454 3.46122 -2.31312 0
M  V30 7288 H 672.987 2.12541 -3.36261 0
M  V30 7289 H 669.726 1.70206 -6.33017 0
M  V30 7290 H 669.246 2.98896 -5.2002 0
M  V30 7291 H 670.925 2.89359 -5.78689 0
M  V30 7292 N 671.057 1.43213 0.657864 0
M  V30 7293 C 671.987 1.50815 1.78262 0
M  V30 7294 C 672.968 0.363211 1.66177 0
M  V30 7295 O 674.153 0.579806 1.85343 0
M  V30 7296 C 671.283 1.42625 3.16663 0
M  V30 7297 C 670.237 2.5532 3.43505 0
M  V30 7298 C 669.563 2.32184 4.81658 0
M  V30 7299 C 670.863 3.97583 3.38711 0
M  V30 7300 H 672.557 2.44954 1.72157 0
M  V30 7301 H 670.103 1.17896 0.82683 0
M  V30 7302 H 672.056 1.46548 3.95097 0
M  V30 7303 H 670.78 0.449877 3.23487 0
M  V30 7304 H 669.439 2.50742 2.6744 0
M  V30 7305 H 669.087 1.32801 4.85153 0
M  V30 7306 H 668.787 3.07724 5.00579 0
M  V30 7307 H 670.311 2.37883 5.62356 0
M  V30 7308 H 671.725 4.03673 4.07089 0
M  V30 7309 H 670.122 4.73112 3.69168 0
M  V30 7310 H 671.192 4.23049 2.36976 0
M  V30 7311 N 672.536 -0.895792 1.29666 0
M  V30 7312 C 673.466 -2.01673 1.17688 0
M  V30 7313 C 674.447 -1.69955 0.0701317 0
M  V30 7314 O 675.632 -1.9258 0.250289 0
M  V30 7315 C 672.762 -3.36568 0.856681 0
M  V30 7316 C 671.716 -3.82509 1.92017 0
M  V30 7317 C 671.042 -5.14574 1.4532 0
M  V30 7318 C 672.342 -4.02409 3.32963 0
M  V30 7319 H 674.036 -2.11953 2.11463 0
M  V30 7320 H 671.582 -1.01839 1.01807 0
M  V30 7321 H 673.535 -4.14498 0.759577 0
M  V30 7322 H 672.259 -3.26391 -0.116763 0
M  V30 7323 H 670.918 -3.068 2.00673 0
M  V30 7324 H 670.566 -5.00815 0.468325 0
M  V30 7325 H 670.266 -5.46283 2.16447 0
M  V30 7326 H 671.79 -5.9504 1.36968 0
M  V30 7327 H 673.204 -4.70808 3.27127 0
M  V30 7328 H 671.601 -4.45478 4.02082 0
M  V30 7329 H 672.671 -3.06616 3.75652 0
M  V30 7330 N 674.014 -1.12206 -1.10668 0
M  V30 7331 C 675.262 -0.874144 -1.82217 0
M  V30 7332 C 675.583 0.601736 -1.85484 0
M  V30 7333 O 674.853 1.43725 -1.33116 0
M  V30 7334 H 673.433 -0.320404 -0.674797 0
M  V30 7335 H 676.095 -1.41606 -1.33917 0
M  V30 7336 H 675.191 -1.25349 -2.85822 0
M  V30 7337 N 675.492 1.28418 -0.913599 0
M  V30 7338 C 676.738 1.9527 -0.547484 0
M  V30 7339 C 677.071 1.71745 0.906486 0
M  V30 7340 O 676.346 1.03834 1.64465 0
M  V30 7341 C 676.629 3.49748 -0.857205 0
M  V30 7342 C 676.482 3.82675 -2.3639 0
M  V30 7343 C 677.801 4.3868 -0.353258 0
M  V30 7344 H 674.92 0.709236 -0.200381 0
M  V30 7345 H 677.562 1.51789 -1.14281 0
M  V30 7346 H 675.712 3.86915 -0.350548 0
M  V30 7347 H 677.384 3.55378 -2.94116 0
M  V30 7348 H 675.627 3.29724 -2.81894 0
M  V30 7349 H 676.298 4.90547 -2.53115 0
M  V30 7350 H 678.774 4.08584 -0.787288 0
M  V30 7351 H 677.65 5.45621 -0.599049 0
M  V30 7352 H 677.911 4.35753 0.746413 0
M  V30 7353 N 676.97 0.677563 1.42291 0
M  V30 7354 C 678.217 0.200975 2.015 0
M  V30 7355 C 678.545 -1.19342 1.53583 0
M  V30 7356 O 677.8 -1.81579 0.7299 0
M  V30 7357 C 678.099 0.187229 3.56909 0
M  V30 7358 C 677.765 1.52667 4.24268 0
M  V30 7359 C 676.427 1.89341 4.42384 0
M  V30 7360 C 678.779 2.40869 4.62203 0
M  V30 7361 C 676.107 3.13836 4.95705 0
M  V30 7362 C 678.459 3.64679 5.16906 0
M  V30 7363 C 677.123 4.01519 5.33234 0
M  V30 7364 H 676.393 0.0735418 0.737342 0
M  V30 7365 H 679.04 0.873095 1.70439 0
M  V30 7366 H 677.345 -0.568407 3.87655 0
M  V30 7367 H 679.042 -0.198773 4.00507 0
M  V30 7368 H 675.632 1.23138 4.1053 0
M  V30 7369 H 679.816 2.1382 4.47878 0
M  V30 7370 H 675.072 3.42396 5.06532 0
M  V30 7371 H 679.246 4.33224 5.45243 0
M  V30 7372 H 676.873 4.98062 5.74316 0
M  V30 7373 N 678.448 -1.51871 0.421078 0
M  V30 7374 C 679.381 -2.23851 -0.443369 0
M  V30 7375 C 680.359 -1.25142 -1.03818 0
M  V30 7376 O 681.543 -1.5423 -1.08377 0
M  V30 7377 C 678.67 -2.97637 -1.61648 0
M  V30 7378 C 677.716 -4.10873 -1.14391 0
M  V30 7379 S 678.549 -5.35408 -0.0992403 0
M  V30 7380 C 679.705 -6.12726 -1.27739 0
M  V30 7381 H 679.938 -2.96826 0.167786 0
M  V30 7382 H 677.471 -1.53027 0.205461 0
M  V30 7383 H 679.429 -3.40751 -2.28909 0
M  V30 7384 H 678.09 -2.24282 -2.199 0
M  V30 7385 H 677.283 -4.61718 -2.02069 0
M  V30 7386 H 676.885 -3.69937 -0.549775 0
M  V30 7387 H 679.177 -6.40827 -2.19881 0
M  V30 7388 H 680.12 -7.03461 -0.809239 0
M  V30 7389 H 680.528 -5.43968 -1.5086 0
M  V30 7390 N 679.926 -0.151884 -1.56866 0
M  V30 7391 C 680.856 0.781943 -2.20018 0
M  V30 7392 C 681.837 1.25347 -1.14987 0
M  V30 7393 O 683.022 1.31015 -1.43348 0
M  V30 7394 C 680.152 2.01928 -2.82564 0
M  V30 7395 C 679.106 1.68434 -3.93464 0
M  V30 7396 C 678.432 2.99472 -4.42968 0
M  V30 7397 C 679.732 0.927244 -5.14003 0
M  V30 7398 H 681.426 0.255607 -2.98307 0
M  V30 7399 H 678.972 0.121502 -1.43486 0
M  V30 7400 H 680.925 2.67741 -3.25411 0
M  V30 7401 H 679.649 2.56943 -2.01614 0
M  V30 7402 H 678.308 1.04998 -3.51242 0
M  V30 7403 H 677.956 3.52488 -3.58834 0
M  V30 7404 H 677.656 2.77823 -5.17772 0
M  V30 7405 H 679.18 3.66348 -4.88489 0
M  V30 7406 H 680.594 1.48756 -5.53665 0
M  V30 7407 H 678.991 0.810513 -5.94601 0
M  V30 7408 H 680.061 -0.0801163 -4.84834 0
M  V30 7409 N 681.404 1.57128 0.121893 0
M  V30 7410 C 682.65 1.84974 0.831418 0
M  V30 7411 C 682.983 0.737204 1.79663 0
M  V30 7412 O 682.258 -0.257199 1.92792 0
M  V30 7413 C 682.541 3.23397 1.58386 0
M  V30 7414 C 682.394 4.45246 0.638445 0
M  V30 7415 C 683.713 3.59355 2.54071 0
M  V30 7416 H 680.832 0.67282 0.300803 0
M  V30 7417 H 683.474 1.89759 0.0957587 0
M  V30 7418 H 681.624 3.19449 2.21098 0
M  V30 7419 H 683.296 4.61295 0.0203925 0
M  V30 7420 H 681.539 4.33771 -0.05023 0
M  V30 7421 H 682.21 5.38765 1.20151 0
M  V30 7422 H 684.686 3.64075 2.01465 0
M  V30 7423 H 683.562 4.57193 3.03752 0
M  V30 7424 H 683.823 2.86622 3.36601 0
M  V30 7425 N 682.882 -0.391992 1.52647 0
M  V30 7426 C 684.122 -1.1463 1.69232 0
M  V30 7427 C 684.486 -1.87312 0.421684 0
M  V30 7428 O 685.687 -2.64768 0.463852 0
M  V30 7429 C 683.958 -2.10088 2.89133 0
M  V30 7430 S 685.517 -2.93395 3.2629 0
M  V30 7431 H 682.335 -0.388076 0.59575 0
M  V30 7432 H 684.937 -0.431149 1.90687 0
M  V30 7433 H 683.641 -1.55408 3.79837 0
M  V30 7434 H 683.172 -2.86116 2.70003 0
M  V30 7435 H 685.187 -4.12193 2.76244 0
M  V30 7436 N 684.36 -1.4356 -0.65026 0
M  V30 7437 C 685.609 -1.44619 -1.406 0
M  V30 7438 C 685.922 -0.0752645 -1.95455 0
M  V30 7439 O 687.128 0.0366832 -2.71475 0
M  V30 7440 C 685.584 -2.54511 -2.54465 0
M  V30 7441 C 685.192 -3.97723 -2.06204 0
M  V30 7442 C 686.936 -2.64768 -3.31811 0
M  V30 7443 C 684.843 -4.99075 -3.17298 0
M  V30 7444 H 683.773 -0.537983 -0.52829 0
M  V30 7445 H 686.424 -1.69559 -0.701561 0
M  V30 7446 H 684.806 -2.22777 -3.27393 0
M  V30 7447 H 685.98 -4.38932 -1.40267 0
M  V30 7448 H 684.295 -3.91538 -1.41729 0
M  V30 7449 H 686.892 -3.37664 -4.14593 0
M  V30 7450 H 687.235 -1.69936 -3.80036 0
M  V30 7451 H 687.768 -2.95817 -2.65964 0
M  V30 7452 H 684.507 -5.95469 -2.74038 0
M  V30 7453 H 684.027 -4.62476 -3.81937 0
M  V30 7454 H 685.706 -5.21913 -3.82382 0
M  V30 7455 N 685.838 0.888903 -1.30139 0
M  V30 7456 C 687.087 1.63507 -1.18103 0
M  V30 7457 C 687.4 1.93808 0.264141 0
M  V30 7458 O 688.606 2.66744 0.505966 0
M  V30 7459 C 687.062 2.94673 -2.0663 0
M  V30 7460 C 686.67 2.71926 -3.56034 0
M  V30 7461 C 688.414 3.72626 -2.03346 0
M  V30 7462 C 686.321 3.98884 -4.3663 0
M  V30 7463 H 685.251 0.613426 -0.438435 0
M  V30 7464 H 687.902 0.984427 -1.54859 0
M  V30 7465 H 686.284 3.61009 -1.62754 0
M  V30 7466 H 687.458 2.14116 -4.08033 0
M  V30 7467 H 685.773 2.07353 -3.61101 0
M  V30 7468 H 688.37 4.66775 -2.60816 0
M  V30 7469 H 688.713 4.03712 -1.016 0
M  V30 7470 H 689.246 3.13147 -2.45324 0
M  V30 7471 H 685.985 3.72959 -5.39056 0
M  V30 7472 H 685.505 4.56214 -3.89396 0
M  V30 7473 H 687.184 4.66938 -4.47859 0
M  V30 7474 N 687.317 1.12792 1.10072 0
M  V30 7475 C 688.565 0.883796 1.81751 0
M  V30 7476 C 688.886 -0.591891 1.858 0
M  V30 7477 O 688.156 -1.43017 1.33876 0
M  V30 7478 H 686.736 0.323978 0.673088 0
M  V30 7479 H 689.398 1.42314 1.33164 0
M  V30 7480 H 688.494 1.26863 2.85153 0
M  V30 7481 N 688.795 -1.27931 0.920396 0
M  V30 7482 C 690.023 -1.98805 0.573087 0
M  V30 7483 C 690.438 -1.68724 -0.847201 0
M  V30 7484 O 689.795 -0.943699 -1.56207 0
M  V30 7485 C 689.846 -3.52971 0.780633 0
M  V30 7486 O 689.567 -3.81994 2.14504 0
M  V30 7487 C 691.068 -4.411 0.44105 0
M  V30 7488 H 688.288 -0.634651 0.21785 0
M  V30 7489 H 690.832 -1.62965 1.23542 0
M  V30 7490 H 688.987 -3.87048 0.165204 0
M  V30 7491 H 689.401 -4.76609 2.18962 0
M  V30 7492 H 690.875 -5.48312 0.637006 0
M  V30 7493 H 691.352 -4.34758 -0.62306 0
M  V30 7494 H 691.958 -4.12532 1.0343 0
M  V30 7495 N 690.273 -0.685099 -1.4193 0
M  V30 7496 C 691.203 -0.0273506 -2.33484 0
M  V30 7497 C 692.184 0.778366 -1.51246 0
M  V30 7498 O 693.369 0.733449 -1.79817 0
M  V30 7499 C 690.499 0.917272 -3.34968 0
M  V30 7500 C 689.453 0.21941 -4.27437 0
M  V30 7501 C 688.779 1.27768 -5.1921 0
M  V30 7502 C 690.079 -0.907894 -5.14349 0
M  V30 7503 H 691.773 -0.791994 -2.88735 0
M  V30 7504 H 689.319 -0.382308 -1.38832 0
M  V30 7505 H 691.272 1.38657 -3.97935 0
M  V30 7506 H 689.996 1.71346 -2.78043 0
M  V30 7507 H 688.655 -0.229757 -3.65879 0
M  V30 7508 H 688.303 2.06612 -4.58607 0
M  V30 7509 H 688.003 0.815803 -5.81909 0
M  V30 7510 H 689.527 1.7477 -5.85054 0
M  V30 7511 H 690.941 -0.519348 -5.70943 0
M  V30 7512 H 689.338 -1.2962 -5.85934 0
M  V30 7513 H 690.408 -1.75218 -4.52136 0
M  V30 7514 N 691.751 1.51645 -0.429126 0
M  V30 7515 C 692.714 2.26116 0.374726 0
M  V30 7516 C 693.714 1.29242 0.956714 0
M  V30 7517 O 694.904 1.53022 0.832452 0
M  V30 7518 C 692.036 3.04669 1.52937 0
M  V30 7519 H 693.229 2.9861 -0.277818 0
M  V30 7520 H 690.782 1.55236 -0.182097 0
M  V30 7521 H 691.517 2.36571 2.21821 0
M  V30 7522 H 691.302 3.75814 1.11833 0
M  V30 7523 H 692.792 3.61102 2.09751 0
M  V30 7524 N 693.229 0.160201 1.56784 0
M  V30 7525 C 694.475 -0.48831 1.96833 0
M  V30 7526 C 694.808 -1.63641 1.04571 0
M  V30 7527 O 694.083 -1.94289 0.0906481 0
M  V30 7528 C 694.366 -0.981908 3.46454 0
M  V30 7529 C 694.219 0.165607 4.49495 0
M  V30 7530 C 695.538 -1.85931 3.98896 0
M  V30 7531 H 692.657 -0.176027 0.71567 0
M  V30 7532 H 695.299 0.244093 1.88426 0
M  V30 7533 H 693.449 -1.60602 3.5375 0
M  V30 7534 H 695.121 0.802372 4.54268 0
M  V30 7535 H 693.364 0.822789 4.25926 0
M  V30 7536 H 694.035 -0.221699 5.51555 0
M  V30 7537 H 696.511 -1.33327 3.94161 0
M  V30 7538 H 695.387 -2.17373 5.04024 0
M  V30 7539 H 695.648 -2.80106 3.42042 0
M  V30 7540 N 694.707 -1.5719 -0.113559 0
M  V30 7541 C 695.954 -1.85138 -0.820382 0
M  V30 7542 C 696.282 -0.74608 -1.79622 0
M  V30 7543 O 695.537 0.262077 -1.93937 0
M  V30 7544 C 695.836 -3.19593 -1.59984 0
M  V30 7545 C 695.502 -4.44315 -0.767809 0
M  V30 7546 C 694.164 -4.78179 -0.538379 0
M  V30 7547 C 696.516 -5.2086 -0.188203 0
M  V30 7548 C 693.844 -5.86028 0.28082 0
M  V30 7549 C 696.196 -6.29572 0.618217 0
M  V30 7550 C 694.86 -6.61964 0.857912 0
M  V30 7551 H 694.13 -0.677467 -0.300199 0
M  V30 7552 H 696.777 -1.91322 -0.0825443 0
M  V30 7553 H 695.082 -3.0901 -2.40874 0
M  V30 7554 H 696.779 -3.3844 -2.1508 0
M  V30 7555 H 693.369 -4.17786 -0.956724 0
M  V30 7556 H 697.553 -4.95045 -0.352658 0
M  V30 7557 H 692.809 -6.09547 0.475693 0
M  V30 7558 H 696.983 -6.88064 1.0743 0
M  V30 7559 H 694.61 -7.45365 1.49451 0
M  V30 7560 N 696.185 0.383891 -1.52853 0
M  V30 7561 C 697.148 1.45197 -1.77343 0
M  V30 7562 C 698.148 1.47362 -0.643522 0
M  V30 7563 O 699.338 1.48443 -0.911613 0
M  V30 7564 C 696.47 2.8445 -1.87885 0
M  V30 7565 H 697.663 1.24764 -2.72716 0
M  V30 7566 H 695.216 0.615939 -1.43652 0
M  V30 7567 H 695.951 3.10222 -0.94515 0
M  V30 7568 H 695.736 2.8428 -2.70051 0
M  V30 7569 H 697.226 3.61832 -2.08488 0
M  V30 7570 N 697.663 1.43903 0.642637 0
M  V30 7571 C 698.911 1.45791 1.39962 0
M  V30 7572 C 699.232 0.0873144 1.94804 0
M  V30 7573 O 698.502 -0.878825 1.75081 0
M  V30 7574 H 697.082 0.536797 0.519479 0
M  V30 7575 H 699.744 1.7959 0.757189 0
M  V30 7576 H 698.84 2.17665 2.2367 0
M  V30 7577 N 699.141 -0.881989 1.30609 0
M  V30 7578 C 700.557 -1.16576 1.09005 0
M  V30 7579 C 700.757 -2.00961 -0.14727 0
M  V30 7580 O 699.813 -2.38117 -0.840036 0
M  V30 7581 C 701.126 -1.86954 2.35518 0
M  V30 7582 C 702.674 -1.99706 2.41011 0
M  V30 7583 C 703.149 -2.73497 3.67374 0
M  V30 7584 N 704.64 -2.8104 3.68199 0
M  V30 7585 C 705.375 -3.38718 4.62664 0
M  V30 7586 N 704.871 -3.97421 5.67475 0
M  V30 7587 N 706.664 -3.36561 4.50203 0
M  V30 7588 H 698.815 -0.319398 2.09985 0
M  V30 7589 H 701.078 -0.204058 0.925778 0
M  V30 7590 H 700.784 -1.32393 3.2583 0
M  V30 7591 H 700.658 -2.87317 2.44395 0
M  V30 7592 H 703.045 -2.53436 1.51176 0
M  V30 7593 H 703.126 -0.984218 2.36108 0
M  V30 7594 H 702.77 -2.20438 4.57569 0
M  V30 7595 H 702.7 -3.75163 3.6954 0
M  V30 7596 H 705.191 -2.39365 2.92426 0
M  V30 7597 H 705.504 -4.39507 6.35652 0
M  V30 7598 H 703.849 -3.95832 5.71264 0
M  V30 7599 H 707.04 -2.8993 3.67503 0
M  V30 7600 H 707.213 -3.81215 5.24003 0
M  V30 7601 N 700.619 -1.13374 -1.09472 0
M  V30 7602 C 701.549 -0.833268 -2.18126 0
M  V30 7603 C 702.53 0.207169 -1.68834 0
M  V30 7604 O 703.715 0.0662012 -1.94087 0
M  V30 7605 C 700.845 -0.297979 -3.46019 0
M  V30 7606 C 699.799 -1.27261 -4.08642 0
M  V30 7607 C 699.125 -0.597104 -5.31356 0
M  V30 7608 C 700.425 -2.63095 -4.51197 0
M  V30 7609 H 702.119 -1.74182 -2.43518 0
M  V30 7610 H 699.665 -0.838921 -1.17039 0
M  V30 7611 H 701.618 -0.0754444 -4.21332 0
M  V30 7612 H 700.342 0.645959 -3.20148 0
M  V30 7613 H 699.001 -1.48113 -3.35348 0
M  V30 7614 H 698.649 0.352293 -5.01765 0
M  V30 7615 H 698.349 -1.24734 -5.74208 0
M  V30 7616 H 699.873 -0.38384 -6.09392 0
M  V30 7617 H 701.287 -2.46214 -5.17737 0
M  V30 7618 H 699.684 -3.2429 -5.04932 0
M  V30 7619 H 700.754 -3.20793 -3.6362 0
M  V30 7620 N 702.098 1.27442 -0.927168 0
M  V30 7621 C 703.347 1.93679 -0.563146 0
M  V30 7622 C 703.66 1.73673 0.899837 0
M  V30 7623 O 704.866 2.34247 1.37262 0
M  V30 7624 C 703.322 3.46961 -0.95636 0
M  V30 7625 C 702.93 3.75724 -2.43999 0
M  V30 7626 C 704.674 4.19282 -0.663565 0
M  V30 7627 C 702.581 5.22378 -2.77263 0
M  V30 7628 H 701.511 0.725059 -0.206894 0
M  V30 7629 H 704.162 1.44743 -1.12791 0
M  V30 7630 H 702.544 3.94703 -0.320254 0
M  V30 7631 H 703.718 3.38741 -3.12396 0
M  V30 7632 H 702.033 3.16605 -2.70463 0
M  V30 7633 H 704.63 5.27265 -0.888596 0
M  V30 7634 H 704.973 4.14382 0.399198 0
M  V30 7635 H 705.506 3.7736 -1.25875 0
M  V30 7636 H 702.245 5.32367 -3.82446 0
M  V30 7637 H 701.765 5.6051 -2.13516 0
M  V30 7638 H 703.444 5.9025 -2.64979 0
M  V30 7639 N 703.576 0.692616 1.41565 0
M  V30 7640 C 704.486 0.0258451 2.34586 0
M  V30 7641 C 705.502 -0.769324 1.56069 0
M  V30 7642 O 706.678 -0.707563 1.88562 0
M  V30 7643 C 703.743 -0.901289 3.3478 0
M  V30 7644 C 702.804 -0.0986579 4.29187 0
M  V30 7645 C 702.037 -0.981634 5.24595 0
M  V30 7646 O 702.26 -2.22115 5.25377 0
M  V30 7647 O 701.194 -0.432892 6.00341 0
M  V30 7648 H 705.02 0.792537 2.93177 0
M  V30 7649 H 702.605 0.452935 1.42369 0
M  V30 7650 H 704.487 -1.43302 3.96286 0
M  V30 7651 H 703.162 -1.64752 2.78637 0
M  V30 7652 H 702.069 0.477604 3.71039 0
M  V30 7653 H 703.402 0.608848 4.8842 0
M  V30 7654 N 705.054 -1.51416 0.437162 0
M  V30 7655 C 705.984 -2.30631 -0.364922 0
M  V30 7656 C 706.965 -1.36037 -1.02118 0
M  V30 7657 O 708.15 -1.64956 -1.02485 0
M  V30 7658 C 705.28 -3.1482 -1.46648 0
M  V30 7659 C 704.234 -4.17691 -0.933717 0
M  V30 7660 C 703.56 -4.904 -2.13101 0
M  V30 7661 C 704.86 -5.2229 0.0317201 0
M  V30 7662 H 706.554 -2.97932 0.29614 0
M  V30 7663 H 704.1 -1.4328 0.143865 0
M  V30 7664 H 706.053 -3.69017 -2.03481 0
M  V30 7665 H 704.777 -2.4534 -2.15583 0
M  V30 7666 H 703.436 -3.64545 -0.387602 0
M  V30 7667 H 703.084 -4.17423 -2.80654 0
M  V30 7668 H 702.784 -5.59962 -1.78092 0
M  V30 7669 H 704.308 -5.4742 -2.70487 0
M  V30 7670 H 705.722 -5.7156 -0.446302 0
M  V30 7671 H 704.119 -5.99378 0.29437 0
M  V30 7672 H 705.189 -4.75131 0.968447 0
M  V30 7673 N 706.532 -0.168513 -1.56696 0
M  V30 7674 C 707.48 0.779791 -2.19139 0
M  V30 7675 C 708.474 1.23957 -1.1546 0
M  V30 7676 O 709.68 1.20555 -1.33666 0
M  V30 7677 H 706.055 0.269739 -0.701958 0
M  V30 7678 H 708.026 0.229156 -2.97519 0
M  V30 7679 C 706.775 2.00003 -2.84419 0
M  V30 7680 H 706.098 1.65527 -3.63924 0
M  V30 7681 H 707.538 2.64251 -3.31583 0
M  V30 7682 C 705.997 2.82187 -1.84044 0
M  V30 7683 O 706.527 3.79247 -1.32418 0
M  V30 7684 N 704.733 2.47145 -1.52864 0
M  V30 7685 H 704.28 1.68277 -1.9504 0
M  V30 7686 H 704.238 3.02422 -0.859569 0
M  V30 7687 N 708.01 1.57248 0.105221 0
M  V30 7688 C 708.942 1.98008 1.15436 0
M  V30 7689 C 709.955 0.881236 1.36887 0
M  V30 7690 O 711.144 1.15943 1.35718 0
M  V30 7691 C 708.244 2.27509 2.51183 0
M  V30 7692 C 707.417 3.58811 2.50147 0
M  V30 7693 C 706.476 3.76365 3.67745 0
M  V30 7694 O 705.502 4.48329 3.50699 0
M  V30 7695 N 706.704 3.16174 4.86841 0
M  V30 7696 H 709.469 2.88616 0.807519 0
M  V30 7697 H 707.03 1.59202 0.29433 0
M  V30 7698 H 709.022 2.36455 3.28438 0
M  V30 7699 H 707.592 1.42959 2.77995 0
M  V30 7700 H 706.812 3.60927 1.5851 0
M  V30 7701 H 708.1 4.45088 2.46524 0
M  V30 7702 H 707.498 2.57701 5.03594 0
M  V30 7703 H 706.055 3.30621 5.61723 0
M  V30 7704 N 709.488 -0.375779 1.53054 0
M  V30 7705 C 710.42 -1.47963 1.75042 0
M  V30 7706 C 711.433 -1.50073 0.631031 0
M  V30 7707 O 712.622 -1.53736 0.907052 0
M  V30 7708 C 709.722 -2.86767 1.80604 0
M  V30 7709 C 708.895 -3.08471 3.10104 0
M  V30 7710 C 707.954 -4.27332 3.07041 0
M  V30 7711 O 706.98 -4.22998 3.80869 0
M  V30 7712 N 708.182 -5.34214 2.27147 0
M  V30 7713 H 710.947 -1.29484 2.70285 0
M  V30 7714 H 708.508 -0.565416 1.51706 0
M  V30 7715 H 710.5 -3.64404 1.76045 0
M  V30 7716 H 709.07 -2.98542 0.926897 0
M  V30 7717 H 708.29 -2.18583 3.28048 0
M  V30 7718 H 709.578 -3.19834 3.95706 0
M  V30 7719 H 708.976 -5.40594 1.66656 0
M  V30 7720 H 707.533 -6.10467 2.28415 0
M  V30 7721 N 710.966 -1.44241 -0.634997 0
M  V30 7722 C 712.214 -1.46531 -1.39187 0
M  V30 7723 C 712.535 -0.0976441 -1.94755 0
M  V30 7724 O 711.805 0.869528 -1.75545 0
M  V30 7725 H 710.385 -0.539544 -0.516625 0
M  V30 7726 H 713.047 -1.79989 -0.747655 0
M  V30 7727 H 712.143 -2.18848 -2.22513 0
M  V30 7728 O 712.483 0.778386 -1.41504 0
M  V30 7729 H 713.174 1.42532 -1.31165 0
M  V30 END ATOM
M  V30 BEGIN BOND
M  V30 END BOND
M  V30 END CTAB
M  END
$$$$
