drugbank_target|P02743 Serum amyloid P-component (DB01593; DB01651; DB07579; DB07580; DB09130; DB14487)
 OpenBabel12092119503D

  0  0  0     0  0            999 V3000
M  V30 BEGIN CTAB
M  V30 COUNTS 3587 3638 0 0 0
M  V30 BEGIN ATOM
M  V30 1 H -0.908 1.98254 -0.117106 0
M  V30 2 N 0 1.576 0 0
M  V30 3 C 0.933 2.03868 1.02534 0
M  V30 4 C 1.911 0.928543 1.3348 0
M  V30 5 O 3.095 1.19667 1.45644 0
M  V30 6 C 0.222 2.43627 2.35294 0
M  V30 7 C -0.732 3.65373 2.2001 0
M  V30 8 S 0.101 5.13292 1.52614 0
M  V30 9 C 1.257 5.56322 2.86805 0
M  V30 10 H 1.49 2.90518 0.631377 0
M  V30 11 H -0.977 1.52953 0.210867 0
M  V30 12 H 0.981 2.67203 3.11629 0
M  V30 13 H -0.358 1.57376 2.7183 0
M  V30 14 H -1.165 3.90944 3.18086 0
M  V30 15 H -1.563 3.418 1.51819 0
M  V30 16 H 0.729 5.58782 3.83104 0
M  V30 17 H 1.672 6.56266 2.65933 0
M  V30 18 H 2.08 4.83886 2.90714 0
M  V30 19 N 1.4781 -0.272755 1.55222 0
M  V30 20 C 2.4261 -1.35705 1.88909 0
M  V30 21 C 3.4201 -1.5112 0.765456 0
M  V30 22 O 4.6261 -1.52901 0.949802 0
M  V30 23 H 1.0011 -0.453868 0.59959 0
M  V30 24 H 2.9721 -1.04544 2.79487 0
M  V30 25 C 1.7211 -2.71049 2.17779 0
M  V30 26 H 1.0441 -2.59979 3.03728 0
M  V30 27 H 2.4841 -3.45858 2.45272 0
M  V30 28 C 0.9431 -3.22165 0.985473 0
M  V30 29 O 1.4731 -4.01096 0.220233 0
M  V30 30 N -0.3209 -2.7985 0.783108 0
M  V30 31 H -0.7739 -2.15775 1.40708 0
M  V30 32 H -0.8159 -3.14397 -0.0130392 0
M  V30 33 N 2.9562 -1.48159 -0.537278 0
M  V30 34 C 3.9032 -1.62138 -1.64256 0
M  V30 35 C 4.8732 -0.463668 -1.59497 0
M  V30 36 O 6.0582 -0.686241 -1.78032 0
M  V30 37 C 3.1982 -1.66028 -3.02537 0
M  V30 38 C 2.3112 -2.92855 -3.17585 0
M  V30 39 C 1.4462 -2.87952 -4.46382 0
M  V30 40 C 0.4852 -4.09516 -4.54932 0
M  V30 41 N -0.3778 -4.02733 -5.75109 0
M  V30 42 H 4.4622 -2.56529 -1.51647 0
M  V30 43 H 1.9992 -1.27224 -0.738414 0
M  V30 44 H 3.9572 -1.66265 -3.82638 0
M  V30 45 H 2.5872 -0.751331 -3.13934 0
M  V30 46 H 1.6392 -3.02395 -2.30784 0
M  V30 47 H 2.9512 -3.82822 -3.19764 0
M  V30 48 H 2.1052 -2.8655 -5.34765 0
M  V30 49 H 0.8442 -1.95702 -4.46712 0
M  V30 50 H -0.1508 -4.11201 -3.64957 0
M  V30 51 H 1.0742 -5.02917 -4.56346 0
M  V30 52 H -0.9798 -3.13299 -5.76351 0
M  V30 53 H -1.0628 -4.86397 -5.78752 0
M  V30 54 H 0.2052 -4.05379 -6.65799 0
M  V30 55 N 4.4343 0.785586 -1.36625 0
M  V30 56 C 5.8453 1.36101 -1.27803 0
M  V30 57 C 6.1963 1.96035 0.0804875 0
M  V30 58 O 5.3213 1.92834 0.982042 0
M  V30 59 C 5.9163 2.47442 -2.31426 0
M  V30 60 C 4.4753 3.00789 -2.26281 0
M  V30 61 C 3.6223 1.73896 -2.15999 0
M  V30 62 H 6.5733 0.586928 -1.47448 0
M  V30 63 H 6.5943 3.2656 -1.95291 0
M  V30 64 H 6.1063 2.03791 -3.30289 0
M  V30 65 H 4.2073 3.48851 -1.30896 0
M  V30 66 H 4.3203 3.57343 -3.19128 0
M  V30 67 H 2.6843 1.9628 -1.62316 0
M  V30 68 H 3.4673 1.32368 -3.16755 0
M  V30 69 N 5.9124 1.20967 1.01018 0
M  V30 70 C 6.8424 0.988272 2.11555 0
M  V30 71 C 7.8234 -0.0849778 1.69888 0
M  V30 72 O 9.0084 0.0738202 1.9406 0
M  V30 73 C 6.1384 0.546528 3.42973 0
M  V30 74 C 5.0924 1.56375 3.9841 0
M  V30 75 C 4.4184 0.97842 5.25672 0
M  V30 76 C 5.7184 2.94922 4.31066 0
M  V30 77 H 7.4124 1.91276 2.30334 0
M  V30 78 H 4.9584 0.921073 1.1069 0
M  V30 79 H 6.9114 0.378839 4.19694 0
M  V30 80 H 5.6354 -0.413598 3.23971 0
M  V30 81 H 4.2944 1.71891 3.23804 0
M  V30 82 H 3.9424 0.0101688 5.02999 0
M  V30 83 H 3.6424 1.65784 5.63728 0
M  V30 84 H 5.1664 0.821939 6.05043 0
M  V30 85 H 6.5804 2.8288 4.9865 0
M  V30 86 H 4.9774 3.5983 4.80253 0
M  V30 87 H 6.0474 3.4616 3.39561 0
M  V30 88 N 7.3905 -1.2043 1.01659 0
M  V30 89 C 8.3205 -2.25466 0.607226 0
M  V30 90 C 9.3015 -1.65853 -0.377716 0
M  V30 91 O 10.4865 -1.92409 -0.263149 0
M  V30 92 C 7.6165 -3.47256 -0.0552949 0
M  V30 93 C 6.5705 -4.19462 0.850632 0
M  V30 94 C 5.8965 -5.34673 0.0538859 0
M  V30 95 C 7.1965 -4.75603 2.15868 0
M  V30 96 H 8.8905 -2.59962 1.48526 0
M  V30 97 H 6.4365 -1.2496 0.715605 0
M  V30 98 H 8.3895 -4.19917 -0.353233 0
M  V30 99 H 7.1135 -3.11924 -0.968045 0
M  V30 100 H 5.7725 -3.48667 1.13257 0
M  V30 101 H 5.4205 -4.95585 -0.860514 0
M  V30 102 H 5.1205 -5.83913 0.657192 0
M  V30 103 H 6.6445 -6.10138 -0.237598 0
M  V30 104 H 8.0585 -5.40083 1.92311 0
M  V30 105 H 6.4555 -5.3528 2.71284 0
M  V30 106 H 7.5255 -3.94346 2.82169 0
M  V30 107 N 8.8686 -0.792821 -1.36206 0
M  V30 108 C 10.1146 -0.376415 -1.99887 0
M  V30 109 C 10.4696 1.04127 -1.61788 0
M  V30 110 O 9.7626 1.71004 -0.864193 0
M  V30 111 C 9.9566 -0.481501 -3.54142 0
M  V30 112 C 9.7856 -1.90786 -4.07223 0
M  V30 113 C 8.5556 -2.53322 -4.37214 0
M  V30 114 C 10.7536 -2.87048 -4.26741 0
M  V30 115 N 8.7356 -3.8751 -4.7614 0
M  V30 116 C 10.1066 -4.06077 -4.6851 0
M  V30 117 C 12.1616 -2.8406 -4.08918 0
M  V30 118 C 10.8646 -5.22532 -4.94321 0
M  V30 119 C 12.8906 -3.99705 -4.35878 0
M  V30 120 C 12.2526 -5.1748 -4.77906 0
M  V30 121 H 8.3516 -0.185226 -0.759747 0
M  V30 122 H 10.9356 -1.03114 -1.65153 0
M  V30 123 H 9.1066 0.143154 -3.88136 0
M  V30 124 H 10.8386 -0.0410128 -4.04679 0
M  V30 125 H 7.5936 -2.04777 -4.2704 0
M  V30 126 H 8.0176 -4.5656 -4.99882 0
M  V30 127 H 12.6596 -1.94165 -3.75579 0
M  V30 128 H 10.3776 -6.1301 -5.2654 0
M  V30 129 H 13.9636 -3.98758 -4.23655 0
M  V30 130 H 12.8436 -6.05478 -4.98363 0
M  V30 131 N 10.3467 1.47872 -0.545128 0
M  V30 132 C 11.5957 2.01695 -0.0145033 0
M  V30 133 C 11.9087 1.42609 1.33873 0
M  V30 134 O 13.1147 1.88021 1.95858 0
M  V30 135 C 11.5707 3.59892 0.0245068 0
M  V30 136 C 11.1787 4.27966 -1.32475 0
M  V30 137 C 12.9227 4.21507 0.50316 0
M  V30 138 C 10.8297 5.78136 -1.2455 0
M  V30 139 H 9.7597 0.753998 -0.00165172 0
M  V30 140 H 12.4107 1.69985 -0.691175 0
M  V30 141 H 10.7927 3.88509 0.766575 0
M  V30 142 H 11.9667 4.11003 -2.08357 0
M  V30 143 H 10.2817 3.78286 -1.74036 0
M  V30 144 H 12.8787 5.31538 0.580656 0
M  V30 145 H 13.2217 3.87855 1.51243 0
M  V30 146 H 13.7547 3.97376 -0.183681 0
M  V30 147 H 10.4937 6.16388 -2.23039 0
M  V30 148 H 10.0137 5.97469 -0.528282 0
M  V30 149 H 11.6927 6.40099 -0.942488 0
M  V30 150 N 11.8248 0.280983 1.55075 0
M  V30 151 C 13.0498 -0.340154 2.04592 0
M  V30 152 C 13.4748 -1.48246 1.15779 0
M  V30 153 O 12.8328 -1.80614 0.15761 0
M  V30 154 C 12.8808 -0.793104 3.5177 0
M  V30 155 O 11.9848 -1.89981 3.66034 0
M  V30 156 H 11.3258 -0.0694289 0.66036 0
M  V30 157 H 13.8558 0.416993 2.00306 0
M  V30 158 H 13.8658 -1.08729 3.93245 0
M  V30 159 H 12.5408 0.0426163 4.15878 0
M  V30 160 H 11.1178 -1.60771 3.36463 0
M  V30 161 N 13.3029 -1.57598 0.00835791 0
M  V30 162 C 14.5489 -1.91211 -0.675732 0
M  V30 163 C 14.8819 -0.883139 -1.72958 0
M  V30 164 O 14.1569 0.097016 -1.94258 0
M  V30 165 C 14.4399 -3.35379 -1.31123 0
M  V30 166 C 14.2929 -4.48999 -0.268356 0
M  V30 167 C 15.6119 -3.7912 -2.23508 0
M  V30 168 H 12.7309 -0.695374 -0.244179 0
M  V30 169 H 15.3729 -1.89901 0.0613655 0
M  V30 170 H 13.5229 -3.36626 -1.93946 0
M  V30 171 H 15.1949 -4.59887 0.360844 0
M  V30 172 H 13.4379 -4.31873 0.408482 0
M  V30 173 H 14.1089 -5.46851 -0.752218 0
M  V30 174 H 16.5849 -3.79477 -1.70693 0
M  V30 175 H 15.4609 -4.80729 -2.64936 0
M  V30 176 H 15.7219 -3.13455 -3.11766 0
M  V30 177 N 14.781 0.264519 -1.55364 0
M  V30 178 C 15.711 1.33121 -1.91836 0
M  V30 179 C 16.692 1.51101 -0.781192 0
M  V30 180 O 17.877 1.64003 -1.04003 0
M  V30 181 C 15.007 2.68921 -2.19769 0
M  V30 182 C 13.961 2.65661 -3.35571 0
M  V30 183 C 13.287 4.05093 -3.49004 0
M  V30 184 C 14.587 2.24187 -4.71739 0
M  V30 185 H 16.281 1.02844 -2.81182 0
M  V30 186 H 13.827 0.493286 -1.35287 0
M  V30 187 H 15.78 3.43663 -2.43872 0
M  V30 188 H 14.504 3.00799 -1.27231 0
M  V30 189 H 13.163 1.93377 -3.1145 0
M  V30 190 H 12.811 4.34206 -2.53917 0
M  V30 191 H 12.511 4.03804 -4.26868 0
M  V30 192 H 14.035 4.81561 -3.75408 0
M  V30 193 H 15.449 2.88654 -4.9533 0
M  V30 194 H 13.846 2.34044 -5.52579 0
M  V30 195 H 14.916 1.19327 -4.69988 0
M  V30 196 N 16.2591 1.48442 0.529413 0
M  V30 197 C 17.4871 1.60151 1.30994 0
M  V30 198 C 17.9021 0.261985 1.86973 0
M  V30 199 O 17.2591 -0.748805 1.66431 0
M  V30 200 C 17.3101 2.64854 2.46038 0
M  V30 201 O 17.0311 3.93608 1.92365 0
M  V30 202 C 18.5321 2.87007 3.37849 0
M  V30 203 H 15.7521 0.539971 0.398338 0
M  V30 204 H 18.2961 1.94273 0.638597 0
M  V30 205 H 16.4511 2.33589 3.09055 0
M  V30 206 H 16.8651 4.51055 2.67675 0
M  V30 207 H 18.3391 3.64068 4.14919 0
M  V30 208 H 18.8161 1.95852 3.93114 0
M  V30 209 H 19.4221 3.19579 2.80623 0
M  V30 210 N 17.7372 -0.778329 1.37039 0
M  V30 211 C 18.9622 -1.57248 1.35233 0
M  V30 212 C 19.3872 -1.87999 -0.0615568 0
M  V30 213 O 18.7452 -1.48734 -1.03672 0
M  V30 214 C 18.7932 -2.86353 2.19167 0
M  V30 215 O 17.8972 -3.80442 1.59178 0
M  V30 216 H 17.2382 -0.476569 0.462362 0
M  V30 217 H 19.7682 -0.963853 1.80474 0
M  V30 218 H 19.7782 -3.35519 2.32145 0
M  V30 219 H 18.4532 -2.63299 3.21942 0
M  V30 220 H 17.0302 -3.39067 1.55203 0
M  V30 221 N 19.2153 -1.21501 -1.00376 0
M  V30 222 C 20.1453 -0.999478 -2.11028 0
M  V30 223 C 21.1263 0.0759671 -1.6993 0
M  V30 224 O 22.3113 -0.0841106 -1.94018 0
M  V30 225 C 19.4413 -0.564709 -3.42678 0
M  V30 226 C 18.3953 -1.58486 -3.97576 0
M  V30 227 C 17.7213 -1.00628 -5.25146 0
M  V30 228 C 19.0213 -2.97204 -4.29496 0
M  V30 229 H 20.7153 -1.92495 -2.29317 0
M  V30 230 H 18.2613 -0.92693 -1.102 0
M  V30 231 H 20.2143 -0.401091 -4.19487 0
M  V30 232 H 18.9383 0.396411 -3.24185 0
M  V30 233 H 17.5973 -1.73606 -3.22888 0
M  V30 234 H 17.2453 -0.0368439 -5.02987 0
M  V30 235 H 16.9453 -1.68771 -5.62841 0
M  V30 236 H 18.4693 -0.854015 -6.04598 0
M  V30 237 H 19.8833 -2.8552 -4.97143 0
M  V30 238 H 18.2803 -3.62372 -4.78338 0
M  V30 239 H 19.3503 -3.47956 -3.3772 0
M  V30 240 N 20.6934 1.19889 -1.02296 0
M  V30 241 C 21.6234 2.25141 -0.619174 0
M  V30 242 C 22.6044 1.66051 0.368915 0
M  V30 243 O 23.7894 1.92546 0.252941 0
M  V30 244 C 20.9194 3.4728 0.0368783 0
M  V30 245 C 19.8734 4.19005 -0.872865 0
M  V30 246 C 19.1994 5.34637 -0.0822402 0
M  V30 247 C 20.4994 4.74452 -2.18387 0
M  V30 248 H 22.1934 2.59171 -1.49903 0
M  V30 249 H 19.7394 1.24579 -0.722222 0
M  V30 250 H 21.6924 4.20098 0.330958 0
M  V30 251 H 20.4164 3.12433 0.95149 0
M  V30 252 H 19.0754 3.48061 -1.15105 0
M  V30 253 H 18.7234 4.96034 0.83422 0
M  V30 254 H 18.4234 5.83557 -0.688149 0
M  V30 255 H 19.9474 6.10255 0.205238 0
M  V30 256 H 21.3614 5.39055 -1.95172 0
M  V30 257 H 19.7584 5.33834 -2.74119 0
M  V30 258 H 20.8284 3.92844 -2.84257 0
M  V30 259 N 22.1715 0.800033 1.35784 0
M  V30 260 C 23.0815 0.207204 2.33683 0
M  V30 261 C 24.0975 -0.64631 1.61551 0
M  V30 262 O 25.2735 -0.559604 1.93469 0
M  V30 263 C 22.3385 -0.639659 3.40748 0
M  V30 264 C 21.3995 0.233585 4.28664 0
M  V30 265 C 20.6325 -0.572954 5.30616 0
M  V30 266 O 20.8555 -1.80816 5.40982 0
M  V30 267 O 19.7895 0.0327285 6.01891 0
M  V30 268 H 23.6155 1.01692 2.86169 0
M  V30 269 H 21.2005 0.561691 1.38439 0
M  V30 270 H 23.0825 -1.12223 4.06182 0
M  V30 271 H 21.7575 -1.42708 2.90544 0
M  V30 272 H 20.6645 0.763147 3.66233 0
M  V30 273 H 21.9975 0.984784 4.82248 0
M  V30 274 N 23.6496 -1.47581 0.552962 0
M  V30 275 C 24.6126 -2.28439 -0.186605 0
M  V30 276 C 25.6126 -1.36706 -0.84665 0
M  V30 277 O 26.8026 -1.59378 -0.703164 0
M  V30 278 C 23.9346 -3.16264 -1.2724 0
M  V30 279 H 25.1276 -2.95294 0.523609 0
M  V30 280 H 22.6806 -1.532 0.309745 0
M  V30 281 H 23.4156 -2.54091 -2.01514 0
M  V30 282 H 23.2006 -3.83769 -0.803968 0
M  V30 283 H 24.6906 -3.77198 -1.79196 0
M  V30 284 N 25.1277 -0.289203 -1.54924 0
M  V30 285 C 26.3747 0.323519 -1.99899 0
M  V30 286 C 26.7027 1.54797 -1.17762 0
M  V30 287 O 25.9577 1.94237 -0.238835 0
M  V30 288 C 26.2567 0.736119 -3.49737 0
M  V30 289 C 25.9227 -0.385276 -4.49251 0
M  V30 290 C 24.5847 -0.693156 -4.76181 0
M  V30 291 C 26.9367 -1.14021 -5.08575 0
M  V30 292 C 24.2647 -1.7593 -5.59701 0
M  V30 293 C 26.6167 -2.19619 -5.93254 0
M  V30 294 C 25.2807 -2.51026 -6.185 0
M  V30 295 H 24.5507 0.118384 -0.731482 0
M  V30 296 H 27.1977 -0.405847 -1.8715 0
M  V30 297 H 25.5027 1.54539 -3.60035 0
M  V30 298 H 27.1997 1.22118 -3.81953 0
M  V30 299 H 23.7897 -0.135202 -4.28387 0
M  V30 300 H 27.9737 -0.915611 -4.87781 0
M  V30 301 H 23.2297 -2.0075 -5.77503 0
M  V30 302 H 27.4037 -2.78581 -6.38252 0
M  V30 303 H 25.0307 -3.33772 -6.83008 0
M  V30 304 N 26.6058 1.57591 -0.0167156 0
M  V30 305 C 27.5688 2.08393 0.954204 0
M  V30 306 C 28.5688 0.996531 1.26198 0
M  V30 307 O 29.7588 1.25858 1.20438 0
M  V30 308 C 26.8908 2.5394 2.27436 0
M  V30 309 H 28.0838 2.95455 0.514451 0
M  V30 310 H 25.6368 1.54582 0.231089 0
M  V30 311 H 26.3718 1.70171 2.76066 0
M  V30 312 H 26.1568 3.33371 2.06412 0
M  V30 313 H 27.6468 2.93512 2.97053 0
M  V30 314 N 28.0839 -0.256276 1.55502 0
M  V30 315 C 29.0339 -1.31981 1.85916 0
M  V30 316 C 30.0179 -1.43927 0.719296 0
M  V30 317 O 31.2099 -1.47326 0.981019 0
M  V30 318 C 28.3389 -2.67703 2.14918 0
M  V30 319 C 27.4249 -2.59801 3.35208 0
M  V30 320 N 27.8159 -2.21524 4.54709 0
M  V30 321 C 26.1139 -2.90832 3.38131 0
M  V30 322 C 26.8149 -2.24024 5.36832 0
M  V30 323 N 25.7909 -2.63158 4.75656 0
M  V30 324 H 29.5929 -1.01423 2.75845 0
M  V30 325 H 27.1069 -0.464911 1.55603 0
M  V30 326 H 29.1039 -3.44445 2.34869 0
M  V30 327 H 27.7639 -2.99137 1.26282 0
M  V30 328 H 28.7749 -1.93223 4.80505 0
M  V30 329 H 25.4519 -3.26867 2.59739 0
M  V30 330 H 26.8419 -1.9685 6.42417 0
M  V30 331 N 29.562 -1.4872 -0.521534 0
M  V30 332 C 30.79 -1.60843 -1.30142 0
M  V30 333 C 31.205 -0.271897 -1.86832 0
M  V30 334 O 30.562 0.739969 -1.66825 0
M  V30 335 C 30.613 -2.66155 -2.4463 0
M  V30 336 O 30.334 -3.94623 -1.90275 0
M  V30 337 C 31.835 -2.88795 -3.36322 0
M  V30 338 H 29.055 -0.542075 -0.395468 0
M  V30 339 H 31.599 -1.94609 -0.628285 0
M  V30 340 H 29.754 -2.35224 -3.07812 0
M  V30 341 H 30.168 -4.52468 -2.65279 0
M  V30 342 H 31.642 -3.66264 -4.12983 0
M  V30 343 H 32.119 -1.97934 -3.9207 0
M  V30 344 H 32.725 -3.21063 -2.78924 0
M  V30 345 N 31.0401 0.771051 -1.3745 0
M  V30 346 C 32.3171 1.519 -1.23231 0
M  V30 347 C 32.6971 2.10383 0.173809 0
M  V30 348 O 32.0451 1.95583 1.18151 0
M  V30 349 C 32.2551 2.59933 -2.32886 0
M  V30 350 C 33.6031 3.27316 -2.70461 0
M  V30 351 O 34.6271 2.70228 -2.32068 0
M  V30 352 O 33.4861 4.30531 -3.36608 0
M  V30 353 H 30.5801 0.672803 -0.480901 0
M  V30 354 H 33.1261 0.807957 -1.49232 0
M  V30 355 H 31.8981 2.14842 -3.27045 0
M  V30 356 H 31.5211 3.38637 -2.08353 0
M  V30 357 N 32.5182 1.22032 0.997298 0
M  V30 358 C 33.4482 1.01065 2.10495 0
M  V30 359 C 34.4292 -0.0669542 1.69968 0
M  V30 360 O 35.6142 0.0943987 1.9397 0
M  V30 361 C 32.7442 0.582874 3.42374 0
M  V30 362 C 31.6982 1.60592 3.96729 0
M  V30 363 C 31.0242 1.03412 5.24605 0
M  V30 364 C 32.3242 2.99478 4.27914 0
M  V30 365 H 34.0182 1.93708 2.28292 0
M  V30 366 H 31.5642 0.932761 1.09707 0
M  V30 367 H 33.5172 0.423332 4.19268 0
M  V30 368 H 32.2412 -0.379213 3.24391 0
M  V30 369 H 30.9002 1.75316 3.21963 0
M  V30 370 H 30.5482 0.063518 5.0296 0
M  V30 371 H 30.2482 1.71754 5.61938 0
M  V30 372 H 31.7722 0.886066 6.04137 0
M  V30 373 H 33.1862 2.88153 4.95622 0
M  V30 374 H 31.5832 3.64903 4.76409 0
M  V30 375 H 32.6532 3.49742 3.3587 0
M  V30 376 N 33.9963 -1.19345 1.0293 0
M  V30 377 C 35.2213 -1.93538 0.745511 0
M  V30 378 C 35.6463 -1.75007 -0.689511 0
M  V30 379 O 35.0043 -1.05265 -1.47611 0
M  V30 380 C 35.0523 -3.43336 1.10239 0
M  V30 381 O 34.1563 -4.11806 0.221289 0
M  V30 382 H 33.4973 -0.604193 0.275404 0
M  V30 383 H 36.0273 -1.5141 1.37609 0
M  V30 384 H 36.0373 -3.94004 1.05947 0
M  V30 385 H 34.7123 -3.56146 2.14786 0
M  V30 386 H 33.2893 -3.715 0.322842 0
M  V30 387 N 35.4744 -0.807222 -1.35358 0
M  V30 388 C 36.7224 -0.387122 -1.98358 0
M  V30 389 C 37.0434 1.04942 -1.64354 0
M  V30 390 O 36.3134 1.72615 -0.926339 0
M  V30 391 H 34.8934 -0.140154 -0.733734 0
M  V30 392 H 37.5554 -1.0332 -1.6526 0
M  V30 393 H 36.6514 -0.493352 -3.08176 0
M  V30 394 N 36.9525 1.47285 -0.560781 0
M  V30 395 C 37.8995 2.30058 0.18491 0
M  V30 396 C 38.8695 1.39281 0.904986 0
M  V30 397 O 40.0545 1.68241 0.899979 0
M  V30 398 C 37.1945 3.23317 1.20666 0
M  V30 399 C 36.3075 4.29186 0.492285 0
M  V30 400 C 35.4425 5.09592 1.49964 0
M  V30 401 C 34.4815 6.07232 0.770439 0
M  V30 402 N 33.6185 6.80584 1.72479 0
M  V30 403 H 38.4585 2.93302 -0.527048 0
M  V30 404 H 35.9955 1.44568 -0.271738 0
M  V30 405 H 37.9535 3.75811 1.81168 0
M  V30 406 H 36.5835 2.61929 1.88661 0
M  V30 407 H 35.6355 3.7972 -0.227333 0
M  V30 408 H 36.9475 4.98738 -0.0787929 0
M  V30 409 H 36.1015 5.66254 2.17809 0
M  V30 410 H 34.8405 4.3995 2.10464 0
M  V30 411 H 33.8455 5.49745 0.0780846 0
M  V30 412 H 35.0705 6.78884 0.171134 0
M  V30 413 H 33.0165 6.1367 2.3183 0
M  V30 414 H 32.9335 7.46319 1.20596 0
M  V30 415 H 34.2015 7.41818 2.39428 0
M  V30 416 N 38.4306 0.297415 1.54768 0
M  V30 417 C 39.6766 -0.313376 2.00364 0
M  V30 418 C 40.0096 -1.53815 1.18553 0
M  V30 419 O 39.2846 -1.92739 0.261103 0
M  V30 420 C 39.5676 -0.673525 3.53745 0
M  V30 421 C 39.4206 0.560133 4.46299 0
M  V30 422 C 40.7396 -1.50143 4.13697 0
M  V30 423 H 37.8586 -0.112428 0.728374 0
M  V30 424 H 40.5006 0.4088 1.8555 0
M  V30 425 H 38.6506 -1.28881 3.665 0
M  V30 426 H 40.3226 1.19863 4.45455 0
M  V30 427 H 38.5656 1.19405 4.17043 0
M  V30 428 H 39.2366 0.26405 5.51368 0
M  V30 429 H 41.7126 -0.981588 4.04356 0
M  V30 430 H 40.5886 -1.72221 5.21182 0
M  V30 431 H 40.8496 -2.48952 3.65343 0
M  V30 432 N 39.9087 -1.5758 0.0250728 0
M  V30 433 C 41.1557 -1.91633 -0.654444 0
M  V30 434 C 41.4837 -0.901103 -1.72367 0
M  V30 435 O 40.7387 0.0905647 -1.9549 0
M  V30 436 C 41.0377 -3.32421 -1.31268 0
M  V30 437 C 40.7037 -4.49344 -0.374223 0
M  V30 438 C 39.3657 -4.8106 -0.115911 0
M  V30 439 C 41.7177 -5.20498 0.270432 0
M  V30 440 C 39.0457 -5.8129 0.79493 0
M  V30 441 C 41.3977 -6.21699 1.1693 0
M  V30 442 C 40.0617 -6.51859 1.43655 0
M  V30 443 H 39.3317 -0.701236 -0.239478 0
M  V30 444 H 41.9787 -1.91307 0.0859734 0
M  V30 445 H 40.2837 -3.28989 -2.12775 0
M  V30 446 H 41.9807 -3.56038 -1.84494 0
M  V30 447 H 38.5707 -4.24579 -0.58573 0
M  V30 448 H 42.7547 -4.96229 0.0839194 0
M  V30 449 H 38.0107 -6.03005 1.00973 0
M  V30 450 H 42.1847 -6.75955 1.67504 0
M  V30 451 H 39.8117 -7.2934 2.144 0
M  V30 452 N 41.3868 0.248026 -1.55636 0
M  V30 453 C 42.6328 0.97767 -1.77678 0
M  V30 454 C 42.9658 1.85016 -0.590135 0
M  V30 455 O 42.2408 1.90095 0.411611 0
M  V30 456 C 42.5238 1.83914 -3.09593 0
M  V30 457 C 42.3768 0.99491 -4.38659 0
M  V30 458 C 43.6958 2.82183 -3.37729 0
M  V30 459 H 40.8148 0.354005 -0.646413 0
M  V30 460 H 43.4568 0.248253 -1.88371 0
M  V30 461 H 41.6068 2.46104 -3.00608 0
M  V30 462 H 43.2788 0.391789 -4.59633 0
M  V30 463 H 41.5218 0.299231 -4.32767 0
M  V30 464 H 42.1928 1.63145 -5.2734 0
M  V30 465 H 44.6688 2.30129 -3.4667 0
M  V30 466 H 43.5448 3.39582 -4.31249 0
M  V30 467 H 43.8058 3.58588 -2.58586 0
M  V30 468 N 42.8649 1.48995 0.513639 0
M  V30 469 C 44.1119 1.57843 1.26854 0
M  V30 470 C 44.4399 0.259501 1.92761 0
M  V30 471 O 43.6949 -0.75159 1.80692 0
M  V30 472 C 43.9939 2.67756 2.36731 0
M  V30 473 C 43.6599 4.09669 1.88368 0
M  V30 474 C 42.3219 4.48291 1.74896 0
M  V30 475 C 44.6739 4.98537 1.52021 0
M  V30 476 C 42.0019 5.73568 1.23438 0
M  V30 477 C 44.3539 6.24319 1.0202 0
M  V30 478 C 43.0179 6.61783 0.871778 0
M  V30 479 H 42.2879 0.577587 0.464192 0
M  V30 480 H 44.9349 1.82778 0.571366 0
M  V30 481 H 43.2399 2.36743 3.12185 0
M  V30 482 H 44.9369 2.71813 2.9482 0
M  V30 483 H 41.5269 3.79176 1.99808 0
M  V30 484 H 45.7109 4.69363 1.61281 0
M  V30 485 H 40.9669 6.01304 1.10648 0
M  V30 486 H 45.1409 6.92566 0.729722 0
M  V30 487 H 42.7679 7.5874 0.470852 0
M  V30 488 N 44.343 -0.763751 1.37857 0
M  V30 489 C 45.754 -1.3405 1.29952 0
M  V30 490 C 46.105 -1.96138 -0.0492898 0
M  V30 491 O 45.23 -1.94372 -0.951239 0
M  V30 492 C 45.825 -2.43729 2.35333 0
M  V30 493 C 44.384 -2.97151 2.31037 0
M  V30 494 C 43.531 -1.70438 2.18738 0
M  V30 495 H 46.482 -0.563396 1.48363 0
M  V30 496 H 46.503 -3.23412 2.00462 0
M  V30 497 H 46.015 -1.9851 3.33489 0
M  V30 498 H 44.116 -3.46724 1.3643 0
M  V30 499 H 44.229 -3.52221 3.24772 0
M  V30 500 H 42.593 -1.93673 1.65418 0
M  V30 501 H 43.376 -1.27312 3.18821 0
M  V30 502 N 45.8211 -1.22559 -0.990812 0
M  V30 503 C 47.2371 -0.985996 -1.255 0
M  V30 504 C 47.4371 0.319173 -1.98956 0
M  V30 505 O 46.4931 1.04127 -2.3003 0
M  V30 506 C 47.8061 -2.18607 -2.06474 0
M  V30 507 C 49.3541 -2.22985 -2.19651 0
M  V30 508 C 49.8291 -3.4255 -3.04012 0
M  V30 509 N 51.3201 -3.42725 -3.11599 0
M  V30 510 C 52.0551 -4.31892 -3.7717 0
M  V30 511 N 51.5511 -5.31279 -4.44651 0
M  V30 512 N 53.3441 -4.19662 -3.73952 0
M  V30 513 H 45.4951 -2.06469 -0.49841 0
M  V30 514 H 47.7581 -0.904853 -0.282747 0
M  V30 515 H 47.4641 -3.13267 -1.59865 0
M  V30 516 H 47.3381 -2.18838 -3.07229 0
M  V30 517 H 49.7251 -1.28871 -2.65474 0
M  V30 518 H 49.8061 -2.26791 -1.18319 0
M  V30 519 H 49.4501 -4.36965 -2.58889 0
M  V30 520 H 49.3801 -3.35984 -4.0549 0
M  V30 521 H 51.8711 -2.70807 -2.63575 0
M  V30 522 H 52.1841 -5.95593 -4.92431 0
M  V30 523 H 50.5291 -5.3519 -4.43392 0
M  V30 524 H 53.7201 -3.41268 -3.20396 0
M  V30 525 H 53.8931 -4.89358 -4.24774 0
M  V30 526 N 47.2992 1.18797 -1.03562 0
M  V30 527 C 48.2092 2.25913 -0.632505 0
M  V30 528 C 49.2252 1.70668 0.338882 0
M  V30 529 O 50.4012 2.00453 0.195076 0
M  V30 530 C 47.4662 3.467 0.00350942 0
M  V30 531 C 46.5272 4.17098 -1.01624 0
M  V30 532 C 45.7602 5.32119 -0.410478 0
M  V30 533 O 45.9832 5.64976 0.784725 0
M  V30 534 O 44.9172 5.9107 -1.13667 0
M  V30 535 H 48.7432 2.62648 -1.52478 0
M  V30 536 H 46.3282 1.25781 -0.806195 0
M  V30 537 H 48.2102 4.19878 0.35781 0
M  V30 538 H 46.8852 3.11798 0.869686 0
M  V30 539 H 45.7922 3.4601 -1.42224 0
M  V30 540 H 47.1252 4.55987 -1.85301 0
M  V30 541 N 48.7773 0.814389 1.34928 0
M  V30 542 C 50.0023 0.410097 2.03305 0
M  V30 543 C 50.4273 -0.973464 1.60951 0
M  V30 544 O 49.7853 -1.63185 0.789964 0
M  V30 545 C 49.8333 0.51049 3.56968 0
M  V30 546 O 48.9373 -0.473035 4.09678 0
M  V30 547 H 48.2783 0.170088 0.641846 0
M  V30 548 H 50.8083 1.10244 1.72358 0
M  V30 549 H 50.8183 0.383135 4.06197 0
M  V30 550 H 49.4933 1.51963 3.87144 0
M  V30 551 H 48.0703 -0.305272 3.71648 0
M  V30 552 N 50.2554 -1.46986 0.568584 0
M  V30 553 C 51.5014 -2.02741 0.0488709 0
M  V30 554 C 51.8344 -1.44077 -1.30214 0
M  V30 555 O 51.1094 -0.600552 -1.84996 0
M  V30 556 C 51.3924 -3.60086 -0.032047 0
M  V30 557 C 51.2454 -4.29162 1.34686 0
M  V30 558 C 52.5644 -4.33838 -0.739798 0
M  V30 559 H 49.6834 -0.736749 0.0192338 0
M  V30 560 H 52.3254 -1.75289 0.733065 0
M  V30 561 H 50.4754 -3.83606 -0.61473 0
M  V30 562 H 52.1474 -4.16948 1.97362 0
M  V30 563 H 50.3904 -3.89073 1.91846 0
M  V30 564 H 51.0614 -5.37826 1.24285 0
M  V30 565 H 53.5374 -4.15378 -0.244939 0
M  V30 566 H 52.4134 -5.43537 -0.765406 0
M  V30 567 H 52.6744 -4.03875 -1.79827 0
M  V30 568 N 51.7335 -0.305618 -1.54608 0
M  V30 569 C 52.9615 0.304775 -2.04643 0
M  V30 570 C 53.3765 1.47167 -1.18268 0
M  V30 571 O 52.7335 1.81296 -0.209328 0
M  V30 572 C 52.7845 0.756564 -3.53495 0
M  V30 573 O 52.5055 -0.36389 -4.36586 0
M  V30 574 C 54.0065 1.43163 -4.19546 0
M  V30 575 H 51.2265 0.0655481 -0.667791 0
M  V30 576 H 53.7705 -0.446592 -1.99564 0
M  V30 577 H 51.9255 1.45794 -3.58919 0
M  V30 578 H 52.3395 -0.0113121 -5.24499 0
M  V30 579 H 53.8135 1.69886 -5.25207 0
M  V30 580 H 54.2905 2.37318 -3.69563 0
M  V30 581 H 54.8965 0.773307 -4.18211 0
M  V30 582 N 53.2116 1.57565 -0.0334293 0
M  V30 583 C 54.4886 1.83282 0.683163 0
M  V30 584 C 54.8686 0.91823 1.90084 0
M  V30 585 O 54.2166 -0.025113 2.28486 0
M  V30 586 C 54.4266 3.32599 1.0573 0
M  V30 587 C 55.7746 3.99179 1.44711 0
M  V30 588 O 56.7986 3.3712 1.15015 0
M  V30 589 O 55.6576 5.08565 2.0006 0
M  V30 590 H 52.7516 0.755869 0.335546 0
M  V30 591 H 55.2976 1.69589 -0.0614402 0
M  V30 592 H 54.0696 3.90834 0.190828 0
M  V30 593 H 53.6926 3.51415 1.85993 0
M  V30 594 N 54.6897 -0.239769 1.55765 0
M  V30 595 C 55.6397 -1.30002 1.87306 0
M  V30 596 C 56.6237 -1.43156 0.73452 0
M  V30 597 O 57.8157 -1.46277 0.99659 0
M  V30 598 C 54.9447 -2.65409 2.17745 0
M  V30 599 C 54.0307 -2.56231 3.37945 0
M  V30 600 N 54.4217 -2.16689 4.57033 0
M  V30 601 C 52.7197 -2.87229 3.41197 0
M  V30 602 C 53.4207 -2.18318 5.39177 0
M  V30 603 N 52.3967 -2.58098 4.78421 0
M  V30 604 H 56.1987 -0.984912 2.76906 0
M  V30 605 H 53.7127 -0.448381 1.56087 0
M  V30 606 H 55.7097 -3.41934 2.38509 0
M  V30 607 H 54.3697 -2.97781 1.29448 0
M  V30 608 H 55.3807 -1.88116 4.82528 0
M  V30 609 H 52.0577 -3.24094 2.63191 0
M  V30 610 H 53.4477 -1.90025 6.44469 0
M  V30 611 N 56.1678 -1.49265 -0.50573 0
M  V30 612 C 57.4138 -1.58748 -1.26202 0
M  V30 613 C 57.7468 -0.271227 -1.92297 0
M  V30 614 O 57.0218 0.724831 -1.80489 0
M  V30 615 C 57.3048 -2.74332 -2.33268 0
M  V30 616 C 57.1578 -4.15737 -1.71705 0
M  V30 617 C 58.4768 -2.85576 -3.34865 0
M  V30 618 H 55.5958 -0.577826 -0.457478 0
M  V30 619 H 58.2378 -1.81532 -0.560897 0
M  V30 620 H 56.3878 -2.55036 -2.93068 0
M  V30 621 H 58.0598 -4.46537 -1.15769 0
M  V30 622 H 56.3028 -4.21605 -1.02135 0
M  V30 623 H 56.9738 -4.92477 -2.49341 0
M  V30 624 H 59.4498 -3.03127 -2.8505 0
M  V30 625 H 58.3258 -3.68135 -4.07146 0
M  V30 626 H 58.5868 -1.94732 -3.96903 0
M  V30 627 N 57.6459 0.756429 -1.3826 0
M  V30 628 C 58.5939 1.89149 -1.35372 0
M  V30 629 C 59.5879 1.67691 -0.24004 0
M  V30 630 O 60.7939 1.75294 -0.408919 0
M  V30 631 H 57.1689 0.622271 -0.422236 0
M  V30 632 H 59.1399 1.88701 -2.31159 0
M  V30 633 C 57.8889 3.26599 -1.19284 0
M  V30 634 H 57.2119 3.43695 -2.0424 0
M  V30 635 H 58.6519 4.06274 -1.21316 0
M  V30 636 C 57.1109 3.3675 0.100454 0
M  V30 637 O 57.6409 3.86951 1.07851 0
M  V30 638 N 55.8469 2.90179 0.15633 0
M  V30 639 H 55.3939 2.49517 -0.640253 0
M  V30 640 H 55.3519 2.97352 1.02123 0
M  V30 641 N 59.124 1.23083 0.984299 0
M  V30 642 C 60.054 1.03292 2.09411 0
M  V30 643 C 61.035 -0.048923 1.7003 0
M  V30 644 O 62.22 0.114967 1.93859 0
M  V30 645 C 59.35 0.619155 3.41736 0
M  V30 646 C 58.304 1.64791 3.95004 0
M  V30 647 C 57.63 1.0897 5.23478 0
M  V30 648 C 58.93 3.03999 4.24714 0
M  V30 649 H 60.624 1.96119 2.26225 0
M  V30 650 H 58.17 0.944344 1.08711 0
M  V30 651 H 60.123 0.467777 4.18796 0
M  V30 652 H 58.847 -0.344786 3.24775 0
M  V30 653 H 57.506 1.78721 3.20085 0
M  V30 654 H 57.154 0.11686 5.02864 0
M  V30 655 H 56.854 1.77704 5.60085 0
M  V30 656 H 58.378 0.950093 6.03163 0
M  V30 657 H 59.792 2.93393 4.92538 0
M  V30 658 H 58.189 3.69936 4.72512 0
M  V30 659 H 59.259 3.53285 3.32142 0
M  V30 660 N 60.6021 -1.18246 1.0419 0
M  V30 661 C 61.8511 -1.87588 0.741194 0
M  V30 662 C 62.1641 -1.81303 -0.734066 0
M  V30 663 O 63.3701 -2.46019 -1.14834 0
M  V30 664 C 61.8261 -3.36538 1.27555 0
M  V30 665 C 61.4341 -3.51349 2.77953 0
M  V30 666 C 63.1781 -4.11273 1.05143 0
M  V30 667 C 61.0851 -4.94265 3.2474 0
M  V30 668 H 60.0151 -0.702622 0.273565 0
M  V30 669 H 62.6661 -1.33601 1.25789 0
M  V30 670 H 61.0481 -3.9 0.686703 0
M  V30 671 H 62.2221 -3.08153 3.42605 0
M  V30 672 H 60.5371 -2.90022 2.98791 0
M  V30 673 H 63.1341 -5.16689 1.37611 0
M  V30 674 H 63.4771 -4.16298 -0.0112774 0
M  V30 675 H 64.0101 -3.63987 1.60495 0
M  V30 676 H 60.7491 -4.94408 4.30396 0
M  V30 677 H 60.2691 -5.38172 2.64823 0
M  V30 678 H 61.9481 -5.62987 3.18834 0
M  V30 679 N 62.0802 -0.821533 -1.34494 0
M  V30 680 C 63.3082 -0.421884 -2.02553 0
M  V30 681 C 63.7232 0.971745 -1.61872 0
M  V30 682 O 63.0802 1.62864 -0.823496 0
M  V30 683 C 63.1312 -0.51285 -3.57844 0
M  V30 684 O 62.8522 -1.85155 -3.97051 0
M  V30 685 C 64.3532 -0.107921 -4.43169 0
M  V30 686 H 61.5732 -0.169482 -0.649243 0
M  V30 687 H 64.1172 -1.1093 -1.71798 0
M  V30 688 H 62.2722 0.126474 -3.87193 0
M  V30 689 H 62.6862 -1.82482 -4.91732 0
M  V30 690 H 64.1602 -0.222657 -5.51551 0
M  V30 691 H 64.6372 0.948401 -4.28838 0
M  V30 692 H 65.2432 -0.720989 -4.19144 0
M  V30 693 N 63.5583 1.46682 -0.576371 0
M  V30 694 C 64.9693 1.86112 -0.148091 0
M  V30 695 C 65.3203 1.48073 1.2872 0
M  V30 696 O 64.4453 0.892656 1.97131 0
M  V30 697 C 65.0403 3.37786 -0.261982 0
M  V30 698 C 63.5993 3.76235 0.111384 0
M  V30 699 C 62.7463 2.70713 -0.60083 0
M  V30 700 H 65.6973 1.37927 -0.78497 0
M  V30 701 H 65.7183 3.77007 0.514364 0
M  V30 702 H 65.2303 3.6544 -1.30671 0
M  V30 703 H 63.3313 3.54198 1.15649 0
M  V30 704 H 63.4443 4.78391 -0.26052 0
M  V30 705 H 61.8083 2.54666 -0.0417783 0
M  V30 706 H 62.5913 3.01208 -1.64708 0
M  V30 707 N 65.0364 0.313813 1.54444 0
M  V30 708 C 65.9664 -0.549454 2.26943 0
M  V30 709 C 66.9474 -1.12741 1.27372 0
M  V30 710 O 68.1324 -1.15436 1.56167 0
M  V30 711 C 65.2624 -1.71523 3.01989 0
M  V30 712 C 64.2164 -1.26703 4.08816 0
M  V30 713 C 63.5424 -2.51898 4.71647 0
M  V30 714 C 64.8424 -0.388962 5.2085 0
M  V30 715 H 66.5364 0.0552661 2.99349 0
M  V30 716 H 64.0824 0.0280207 1.43973 0
M  V30 717 H 66.0354 -2.32535 3.51433 0
M  V30 718 H 64.7594 -2.34639 2.27183 0
M  V30 719 H 63.4184 -0.679896 3.6024 0
M  V30 720 H 63.0664 -3.13356 3.93468 0
M  V30 721 H 62.7664 -2.22605 5.43802 0
M  V30 722 H 64.2904 -3.1369 5.23861 0
M  V30 723 H 65.7044 -0.905107 5.6611 0
M  V30 724 H 64.1014 -0.18924 5.99802 0
M  V30 725 H 65.1714 0.582699 4.81386 0
M  V30 726 N 66.5145 -1.57545 0.0417849 0
M  V30 727 C 67.4245 -2.14451 -0.951213 0
M  V30 728 C 68.4405 -1.09992 -1.34825 0
M  V30 729 O 69.6165 -1.42114 -1.42708 0
M  V30 730 C 66.6815 -2.67063 -2.21084 0
M  V30 731 C 65.7425 -3.86284 -1.87304 0
M  V30 732 C 64.9755 -4.36378 -3.07261 0
M  V30 733 O 65.1985 -3.85587 -4.20332 0
M  V30 734 O 64.1325 -5.28077 -2.88822 0
M  V30 735 H 67.9585 -2.99601 -0.497287 0
M  V30 736 H 65.5435 -1.48317 -0.179567 0
M  V30 737 H 67.4255 -3.00914 -2.95006 0
M  V30 738 H 66.1005 -1.84989 -2.65633 0
M  V30 739 H 65.0075 -3.57338 -1.10727 0
M  V30 740 H 66.3405 -4.6956 -1.47562 0
M  V30 741 N 67.9926 0.231505 -1.5589 0
M  V30 742 C 68.9396 1.28682 -1.91598 0
M  V30 743 C 69.9096 1.47071 -0.771974 0
M  V30 744 O 71.0946 1.60802 -1.027 0
M  V30 745 C 68.2346 2.6342 -2.22944 0
M  V30 746 C 67.3476 2.52912 -3.50228 0
M  V30 747 C 66.4826 3.80106 -3.7107 0
M  V30 748 C 65.5216 3.64279 -4.91902 0
M  V30 749 N 64.6586 4.834 -5.09184 0
M  V30 750 H 69.4986 0.975305 -2.81588 0
M  V30 751 H 67.0356 0.470299 -1.39379 0
M  V30 752 H 68.9936 3.41869 -2.39126 0
M  V30 753 H 67.6236 2.92687 -1.36139 0
M  V30 754 H 66.6756 1.6595 -3.42294 0
M  V30 755 H 67.9876 2.37133 -4.38827 0
M  V30 756 H 67.1416 4.66999 -3.87295 0
M  V30 757 H 65.8806 3.98799 -2.80733 0
M  V30 758 H 64.8856 2.7577 -4.75637 0
M  V30 759 H 66.1106 3.47067 -5.83714 0
M  V30 760 H 64.0566 5.02425 -4.21788 0
M  V30 761 H 63.9736 4.70311 -5.91898 0
M  V30 762 H 65.2416 5.71747 -5.29835 0
M  V30 763 N 69.4707 1.49531 0.497807 0
M  V30 764 C 70.8817 1.52344 1.07927 0
M  V30 765 C 71.2327 0.311469 1.93712 0
M  V30 766 O 70.3577 -0.578405 2.08527 0
M  V30 767 C 70.9527 2.76062 1.96405 0
M  V30 768 C 69.5117 2.81643 2.49709 0
M  V30 769 C 68.6587 2.46299 1.27404 0
M  V30 770 H 71.6097 1.56182 0.281576 0
M  V30 771 H 71.6307 2.56405 2.81135 0
M  V30 772 H 71.1427 3.64254 1.33943 0
M  V30 773 H 69.2437 1.97739 3.15801 0
M  V30 774 H 69.3567 3.83891 2.86643 0
M  V30 775 H 67.7207 1.98148 1.60029 0
M  V30 776 H 68.5037 3.36769 0.66645 0
M  V30 777 N 70.9488 -0.749086 1.3866 0
M  V30 778 C 71.8788 -1.8764 1.38973 0
M  V30 779 C 72.8598 -1.68178 0.255004 0
M  V30 780 O 74.0448 -1.88704 0.458754 0
M  V30 781 C 71.1748 -3.25222 1.21851 0
M  V30 782 C 70.1288 -3.59295 2.32575 0
M  V30 783 C 69.4548 -4.95663 2.00555 0
M  V30 784 C 70.7548 -3.63709 3.7485 0
M  V30 785 H 72.4488 -1.87635 2.3331 0
M  V30 786 H 69.9948 -0.901329 1.12303 0
M  V30 787 H 71.9478 -4.03746 1.20695 0
M  V30 788 H 70.6718 -3.25719 0.239775 0
M  V30 789 H 69.3308 -2.83093 2.32925 0
M  V30 790 H 68.9788 -4.92724 1.01154 0
M  V30 791 H 68.6788 -5.19429 2.74714 0
M  V30 792 H 70.2028 -5.7656 2.01024 0
M  V30 793 H 71.6168 -4.32338 3.76506 0
M  V30 794 H 70.0138 -3.98986 4.48252 0
M  V30 795 H 71.0838 -2.63834 4.06841 0
M  V30 796 N 72.4269 -1.23603 -0.977757 0
M  V30 797 C 73.3589 -0.977369 -2.07317 0
M  V30 798 C 74.3719 0.0495845 -1.62724 0
M  V30 799 O 75.5609 -0.186261 -1.77526 0
M  V30 800 C 72.6609 -0.451216 -3.35883 0
M  V30 801 C 71.8339 -1.53896 -4.09432 0
M  V30 802 C 70.8929 -1.01721 -5.16274 0
M  V30 803 O 69.9189 -1.70676 -5.43009 0
M  V30 804 N 71.1209 0.153594 -5.80297 0
M  V30 805 H 73.8859 -1.92047 -2.30082 0
M  V30 806 H 71.4469 -1.14497 -1.14465 0
M  V30 807 H 73.4389 -0.0871574 -4.04606 0
M  V30 808 H 72.0089 0.397368 -3.10064 0
M  V30 809 H 71.2289 -2.07566 -3.35127 0
M  V30 810 H 72.5169 -2.27037 -4.55337 0
M  V30 811 H 71.9149 0.730323 -5.60966 0
M  V30 812 H 70.4719 0.458892 -6.50183 0
M  V30 813 N 73.905 1.17692 -1.04816 0
M  V30 814 C 74.853 2.23632 -0.63966 0
M  V30 815 C 75.847 1.6601 0.337219 0
M  V30 816 O 77.053 1.78844 0.203693 0
M  V30 817 H 73.428 0.727949 -0.188665 0
M  V30 818 H 75.399 2.55387 -1.54337 0
M  V30 819 C 74.148 3.4769 -0.0264051 0
M  V30 820 H 73.471 3.92331 -0.769164 0
M  V30 821 H 74.911 4.23418 0.222098 0
M  V30 822 C 73.37 3.13807 1.22584 0
M  V30 823 O 73.9 3.28236 2.31569 0
M  V30 824 N 72.106 2.68065 1.12202 0
M  V30 825 H 71.653 2.56525 0.235133 0
M  V30 826 H 71.611 2.45767 1.96076 0
M  V30 827 N 75.3831 0.828654 1.34056 0
M  V30 828 C 76.6301 0.419458 1.98108 0
M  V30 829 C 76.9581 -1.01886 1.65679 0
M  V30 830 O 76.2131 -1.72539 0.923512 0
M  V30 831 C 76.5121 0.575226 3.52741 0
M  V30 832 C 76.1781 1.98012 4.05095 0
M  V30 833 C 74.8401 2.36442 4.19104 0
M  V30 834 C 77.1921 2.89824 4.33188 0
M  V30 835 C 74.5201 3.66009 4.58535 0
M  V30 836 C 76.8721 4.1886 4.74066 0
M  V30 837 C 75.5361 4.5726 4.86281 0
M  V30 838 H 74.8061 0.153491 0.724929 0
M  V30 839 H 77.4531 1.05371 1.59904 0
M  V30 840 H 75.7581 -0.142385 3.91541 0
M  V30 841 H 77.4551 0.239057 4.00287 0
M  V30 842 H 74.0451 1.67162 3.94658 0
M  V30 843 H 78.2291 2.61375 4.21897 0
M  V30 844 H 73.4851 3.95579 4.66184 0
M  V30 845 H 77.6591 4.90086 4.94761 0
M  V30 846 H 75.2861 5.57707 5.16592 0
M  V30 847 N 76.8612 -1.46375 0.584142 0
M  V30 848 C 78.0892 -2.06761 0.0759296 0
M  V30 849 C 78.5042 -1.43266 -1.22965 0
M  V30 850 O 77.8612 -0.538458 -1.74376 0
M  V30 851 C 77.9122 -3.61375 -0.0950384 0
M  V30 852 O 77.6332 -4.22495 1.15887 0
M  V30 853 C 79.1342 -4.38693 -0.637434 0
M  V30 854 H 76.3542 -0.668479 0.0581075 0
M  V30 855 H 78.8982 -1.8798 0.805218 0
M  V30 856 H 77.0532 -3.79578 -0.774554 0
M  V30 857 H 77.4672 -5.15385 0.973598 0
M  V30 858 H 78.9412 -5.47464 -0.706237 0
M  V30 859 H 79.4182 -4.06836 -1.65472 0
M  V30 860 H 80.0242 -4.25299 0.00725967 0
M  V30 861 N 78.3393 -0.321999 -1.54275 0
M  V30 862 C 79.2693 0.537411 -2.27231 0
M  V30 863 C 80.2503 1.12064 -1.27968 0
M  V30 864 O 81.4353 1.14606 -1.56777 0
M  V30 865 C 78.5653 1.69919 -3.02894 0
M  V30 866 C 77.5193 1.24534 -4.09482 0
M  V30 867 C 76.8453 2.49394 -4.72977 0
M  V30 868 C 78.1453 0.361335 -5.21049 0
M  V30 869 H 79.8393 -0.0711406 -2.99315 0
M  V30 870 H 77.3853 -0.0356555 -1.43956 0
M  V30 871 H 79.3383 2.30668 -3.52662 0
M  V30 872 H 78.0623 2.33431 -2.28424 0
M  V30 873 H 76.7213 0.660782 -3.60596 0
M  V30 874 H 76.3693 3.11265 -3.95124 0
M  V30 875 H 76.0693 2.19718 -5.44975 0
M  V30 876 H 77.5933 3.10908 -5.25517 0
M  V30 877 H 79.0073 0.875072 -5.66582 0
M  V30 878 H 77.4043 0.157428 -5.99893 0
M  V30 879 H 78.4743 -0.60822 -4.8107 0
M  V30 880 N 79.8174 1.5752 -0.0501392 0
M  V30 881 C 81.0574 1.94521 0.627783 0
M  V30 882 C 81.4214 0.928265 1.68069 0
M  V30 883 O 82.6224 1.18517 2.41261 0
M  V30 884 C 80.8934 3.36319 1.20932 0
M  V30 885 S 82.4524 3.95272 1.90539 0
M  V30 886 H 79.2704 0.680456 0.206158 0
M  V30 887 H 81.8724 1.95139 -0.118829 0
M  V30 888 H 80.5764 4.08132 0.430865 0
M  V30 889 H 80.1074 3.39193 1.99277 0
M  V30 890 H 82.1224 3.80415 3.18589 0
M  V30 891 N 81.2955 -0.223234 1.56011 0
M  V30 892 C 82.5425 -0.947875 1.78946 0
M  V30 893 C 82.8705 -1.844 0.618608 0
M  V30 894 O 82.1255 -1.91629 -0.397093 0
M  V30 895 C 82.4245 -1.81948 3.0762 0
M  V30 896 C 82.0905 -1.07672 4.37856 0
M  V30 897 C 80.7525 -0.871544 4.73242 0
M  V30 898 C 83.1045 -0.552081 5.18268 0
M  V30 899 C 80.4325 -0.129791 5.86556 0
M  V30 900 C 82.7845 0.17632 6.32354 0
M  V30 901 C 81.4485 0.39277 6.66343 0
M  V30 902 H 80.7185 -0.346852 0.654809 0
M  V30 903 H 83.3655 -0.216171 1.90276 0
M  V30 904 H 81.6705 -2.61899 2.91404 0
M  V30 905 H 83.3675 -2.38227 3.22566 0
M  V30 906 H 79.9575 -1.24662 4.1007 0
M  V30 907 H 84.1415 -0.698076 4.91366 0
M  V30 908 H 79.3975 0.048153 6.11381 0
M  V30 909 H 83.5715 0.590367 6.93893 0
M  V30 910 H 81.1985 0.969466 7.53993 0
M  V30 911 N 82.7736 -1.49793 -0.48987 0
M  V30 912 C 84.1896 -1.36803 -0.822022 0
M  V30 913 C 84.3896 -0.409652 -1.97292 0
M  V30 914 O 83.4456 0.154614 -2.52026 0
M  V30 915 C 84.7586 -2.77768 -1.15175 0
M  V30 916 C 86.3066 -2.86549 -1.25931 0
M  V30 917 C 86.7816 -4.28306 -1.62228 0
M  V30 918 N 88.2726 -4.31169 -1.69256 0
M  V30 919 C 89.0076 -5.37832 -1.98807 0
M  V30 920 N 88.5036 -6.54726 -2.26507 0
M  V30 921 N 90.2966 -5.25258 -2.00152 0
M  V30 922 H 82.4476 -2.10691 0.268881 0
M  V30 923 H 84.7106 -0.946241 0.057728 0
M  V30 924 H 84.4166 -3.49648 -0.379335 0
M  V30 925 H 84.2906 -3.13836 -2.09253 0
M  V30 926 H 86.6776 -2.14899 -2.02243 0
M  V30 927 H 86.7586 -2.54049 -0.298776 0
M  V30 928 H 86.4026 -5.00486 -0.864622 0
M  V30 929 H 86.3326 -4.58279 -2.594 0
M  V30 930 H 88.8236 -3.4687 -1.49965 0
M  V30 931 H 89.1366 -7.31833 -2.48276 0
M  V30 932 H 87.4816 -6.57933 -2.23939 0
M  V30 933 H 90.6726 -4.32938 -1.77996 0
M  V30 934 H 90.8456 -6.08476 -2.22848 0
M  V30 935 N 84.2517 0.741722 -1.39055 0
M  V30 936 C 85.2147 1.83733 -1.37021 0
M  V30 937 C 86.2147 1.58542 -0.268534 0
M  V30 938 O 87.4047 1.66067 -0.526076 0
M  V30 939 C 84.5367 3.2141 -1.13617 0
M  V30 940 H 85.7297 1.86941 -2.34506 0
M  V30 941 H 83.2827 0.944676 -1.24521 0
M  V30 942 H 84.0177 3.23865 -0.167863 0
M  V30 943 H 83.8027 3.4109 -1.93391 0
M  V30 944 H 85.2927 4.01477 -1.14918 0
M  V30 945 N 85.7298 1.2412 0.971189 0
M  V30 946 C 86.9598 1.10415 1.7462 0
M  V30 947 C 87.3678 -0.346462 1.86001 0
M  V30 948 O 86.7108 -1.25104 1.34517 0
M  V30 949 C 86.7728 1.66596 3.18568 0
M  V30 950 C 86.4368 3.15446 3.3067 0
M  V30 951 C 87.4338 4.12636 3.16271 0
M  V30 952 C 85.1188 3.55337 3.55022 0
M  V30 953 C 87.1128 5.47699 3.26044 0
M  V30 954 C 84.7998 4.90542 3.64434 0
M  V30 955 C 85.7978 5.86532 3.49956 0
M  V30 956 O 85.4858 7.19279 3.59017 0
M  V30 957 H 85.2178 0.386616 0.55453 0
M  V30 958 H 87.7718 1.64633 1.22821 0
M  V30 959 H 86.0018 1.06808 3.71657 0
M  V30 960 H 87.6908 1.48232 3.77865 0
M  V30 961 H 88.4568 3.8316 2.97344 0
M  V30 962 H 84.3358 2.8113 3.65359 0
M  V30 963 H 87.8798 6.22603 3.14661 0
M  V30 964 H 83.7768 5.19691 3.82873 0
M  V30 965 H 84.5448 7.27153 3.75754 0
M  V30 966 N 87.2079 -1.17134 1.05439 0
M  V30 967 C 88.4329 -1.91913 0.786396 0
M  V30 968 C 88.8579 -1.7643 -0.652234 0
M  V30 969 O 88.2159 -1.08372 -1.45345 0
M  V30 970 C 88.2639 -3.40921 1.17497 0
M  V30 971 O 87.3679 -4.11244 0.308589 0
M  V30 972 H 86.7089 -0.598215 0.288158 0
M  V30 973 H 89.2389 -1.48457 1.4079 0
M  V30 974 H 89.2489 -3.91668 1.14281 0
M  V30 975 H 87.9239 -3.5151 2.22292 0
M  V30 976 H 86.5009 -3.70731 0.40157 0
M  V30 977 N 88.686 -0.835752 -1.33615 0
M  V30 978 C 89.963 -0.352017 -1.92406 0
M  V30 979 C 90.343 1.16225 -1.76224 0
M  V30 980 O 89.691 1.97526 -1.14873 0
M  V30 981 C 89.901 -0.795485 -3.39813 0
M  V30 982 C 91.249 -0.801703 -4.16963 0
M  V30 983 O 92.273 -0.738889 -3.48452 0
M  V30 984 O 91.132 -0.886607 -5.3926 0
M  V30 985 H 88.226 -0.0989641 -0.821057 0
M  V30 986 H 90.772 -0.921397 -1.42507 0
M  V30 987 H 89.544 -1.83795 -3.45449 0
M  V30 988 H 89.167 -0.202505 -3.97084 0
M  V30 989 N 90.1641 1.46063 -0.591896 0
M  V30 990 C 91.0941 2.33172 0.123673 0
M  V30 991 C 92.0751 1.45897 0.87453 0
M  V30 992 O 93.2601 1.74698 0.848181 0
M  V30 993 C 90.3901 3.28336 1.13194 0
M  V30 994 C 89.3441 4.25124 0.495324 0
M  V30 995 C 88.6701 5.09863 1.61071 0
M  V30 996 C 89.9701 5.19143 -0.573425 0
M  V30 997 H 91.6641 2.93252 -0.603646 0
M  V30 998 H 89.2101 1.41014 -0.291741 0
M  V30 999 H 91.1631 3.88137 1.64097 0
M  V30 1000 H 89.8871 2.66383 1.88965 0
M  V30 1001 H 88.5461 3.66599 0.00729452 0
M  V30 1002 H 88.1941 4.44288 2.35832 0
M  V30 1003 H 87.8941 5.75417 1.19035 0
M  V30 1004 H 89.4181 5.72529 2.12233 0
M  V30 1005 H 90.8321 5.73106 -0.1491 0
M  V30 1006 H 89.2291 5.93089 -0.914636 0
M  V30 1007 H 90.2991 4.62519 -1.45617 0
M  V30 1008 N 91.6422 0.330177 1.54103 0
M  V30 1009 C 92.8672 -0.274893 2.0557 0
M  V30 1010 C 93.2922 -1.44487 1.20437 0
M  V30 1011 O 92.6502 -1.80021 0.214991 0
M  V30 1012 C 92.6982 -0.68079 3.54115 0
M  V30 1013 O 91.8022 -1.7824 3.71893 0
M  V30 1014 H 91.1432 -0.0483849 0.662235 0
M  V30 1015 H 93.6732 0.480508 1.98878 0
M  V30 1016 H 93.6832 -0.961635 3.96505 0
M  V30 1017 H 92.3582 0.174903 4.15532 0
M  V30 1018 H 90.9352 -1.49985 3.41407 0
M  V30 1019 N 93.1203 -1.57491 0.0584922 0
M  V30 1020 C 94.5363 -1.56792 -0.298091 0
M  V30 1021 C 94.7363 -1.06679 -1.70944 0
M  V30 1022 O 93.7923 -0.726672 -2.41818 0
M  V30 1023 C 95.1053 -3.00461 -0.119879 0
M  V30 1024 C 96.6533 -3.1242 -0.190428 0
M  V30 1025 C 97.1283 -4.57982 -0.0406567 0
M  V30 1026 N 98.6193 -4.63099 -0.0966958 0
M  V30 1027 C 99.3543 -5.734 -0.00502943 0
M  V30 1028 N 98.8503 -6.9266 0.139402 0
M  V30 1029 N 100.643 -5.62067 -0.0611391 0
M  V30 1030 H 92.7943 -1.88386 0.98105 0
M  V30 1031 H 95.0573 -0.867865 0.381463 0
M  V30 1032 H 94.7633 -3.41187 0.85349 0
M  V30 1033 H 94.6373 -3.66843 -0.877833 0
M  V30 1034 H 97.0243 -2.71589 -1.15427 0
M  V30 1035 H 97.1053 -2.48702 0.598405 0
M  V30 1036 H 96.7493 -4.995 0.919897 0
M  V30 1037 H 96.6793 -5.19715 -0.848727 0
M  V30 1038 H 99.1703 -3.77331 -0.207277 0
M  V30 1039 H 99.4833 -7.72536 0.201855 0
M  V30 1040 H 97.8283 -6.94781 0.174586 0
M  V30 1041 H 101.019 -4.67782 -0.172583 0
M  V30 1042 H 101.192 -6.47999 0.0137562 0
M  V30 1043 N 94.5984 0.214957 -1.56127 0
M  V30 1044 C 95.5614 1.24997 -1.92116 0
M  V30 1045 C 96.5614 1.39467 -0.800344 0
M  V30 1046 O 97.7514 1.37619 -1.06802 0
M  V30 1047 C 94.8834 2.62271 -2.17777 0
M  V30 1048 H 96.0764 0.942875 -2.84693 0
M  V30 1049 H 93.6294 0.455654 -1.49511 0
M  V30 1050 H 94.3644 2.98068 -1.27773 0
M  V30 1051 H 94.1494 2.53143 -2.99434 0
M  V30 1052 H 95.6394 3.36946 -2.46693 0
M  V30 1053 N 96.0765 1.50051 0.48192 0
M  V30 1054 C 97.3065 1.63999 1.2565 0
M  V30 1055 C 97.7145 0.318288 1.86504 0
M  V30 1056 O 97.0575 -0.708534 1.69486 0
M  V30 1057 C 97.1195 2.66504 2.4128 0
M  V30 1058 C 96.7835 4.10352 2.01148 0
M  V30 1059 C 97.7805 4.96562 1.54021 0
M  V30 1060 C 95.4655 4.56203 2.10199 0
M  V30 1061 C 97.4595 6.26668 1.16473 0
M  V30 1062 C 95.1465 5.86318 1.72264 0
M  V30 1063 C 96.1445 6.71375 1.25477 0
M  V30 1064 O 95.8325 7.99062 0.880626 0
M  V30 1065 H 95.5645 0.55456 0.386574 0
M  V30 1066 H 98.1185 1.96954 0.582944 0
M  V30 1067 H 96.3485 2.28769 3.11772 0
M  V30 1068 H 98.0375 2.69783 3.03268 0
M  V30 1069 H 98.8035 4.62358 1.46458 0
M  V30 1070 H 94.6825 3.90152 2.45566 0
M  V30 1071 H 98.2265 6.93011 0.798841 0
M  V30 1072 H 94.1235 6.20046 1.79482 0
M  V30 1073 H 94.8915 8.12239 1.01043 0
M  V30 1074 N 97.5546 -0.734337 1.39446 0
M  V30 1075 C 98.7796 -1.52866 1.40167 0
M  V30 1076 C 99.2046 -1.881 -0.00171513 0
M  V30 1077 O 98.5626 -1.51957 -0.988879 0
M  V30 1078 C 98.6106 -2.79235 2.28167 0
M  V30 1079 O 97.7146 -3.75185 1.71201 0
M  V30 1080 H 97.0556 -0.461618 0.477289 0
M  V30 1081 H 99.5856 -0.905949 1.8345 0
M  V30 1082 H 99.5956 -3.27963 2.42702 0
M  V30 1083 H 98.2706 -2.52923 3.30156 0
M  V30 1084 H 96.8476 -3.33958 1.65912 0
M  V30 1085 N 99.0327 -1.24633 -0.964593 0
M  V30 1086 C 99.9627 -1.06611 -2.07741 0
M  V30 1087 C 100.944 0.0218666 -1.70086 0
M  V30 1088 O 102.129 -0.145793 -1.93652 0
M  V30 1089 C 99.2587 -0.673444 -3.40708 0
M  V30 1090 C 98.2127 -1.71054 -3.92332 0
M  V30 1091 C 97.5387 -1.17285 -5.21678 0
M  V30 1092 C 98.8387 -3.10718 -4.19824 0
M  V30 1093 H 100.533 -1.99693 -2.23076 0
M  V30 1094 H 98.0787 -0.96152 -1.07195 0
M  V30 1095 H 100.032 -0.534345 -4.17998 0
M  V30 1096 H 98.7557 0.293073 -3.25282 0
M  V30 1097 H 97.4147 -1.83791 -3.17201 0
M  V30 1098 H 97.0627 -0.196847 -5.02615 0
M  V30 1099 H 96.7627 -1.86592 -5.57187 0
M  V30 1100 H 98.2867 -1.04593 -6.01575 0
M  V30 1101 H 99.7007 -3.01192 -4.87808 0
M  V30 1102 H 98.0977 -3.77406 -4.66567 0
M  V30 1103 H 99.1677 -3.58524 -3.26479 0
M  V30 1104 N 100.511 1.16574 -1.06058 0
M  V30 1105 C 101.758 1.87047 -0.775873 0
M  V30 1106 C 102.086 1.81562 0.697534 0
M  V30 1107 O 101.341 1.22445 1.52662 0
M  V30 1108 C 101.64 3.36195 -1.21275 0
M  V30 1109 C 101.306 3.6188 -2.68986 0
M  V30 1110 C 99.9678 3.68599 -3.09335 0
M  V30 1111 C 102.32 3.72648 -3.64394 0
M  V30 1112 C 99.6478 3.83584 -4.43937 0
M  V30 1113 C 102 3.89154 -4.98741 0
M  V30 1114 C 100.664 3.94114 -5.3873 0
M  V30 1115 H 99.9338 0.684452 -0.283912 0
M  V30 1116 H 102.581 1.37853 -1.32925 0
M  V30 1117 H 100.886 3.87505 -0.578528 0
M  V30 1118 H 102.583 3.89103 -0.969542 0
M  V30 1119 H 99.1728 3.57281 -2.36744 0
M  V30 1120 H 103.357 3.66769 -3.34356 0
M  V30 1121 H 98.6128 3.85677 -4.74409 0
M  V30 1122 H 102.787 3.96427 -5.72554 0
M  V30 1123 H 100.414 4.05478 -6.43033 0
M  V30 1124 N 101.989 0.842826 1.3317 0
M  V30 1125 C 103.214 0.453129 2.02389 0
M  V30 1126 C 103.639 -0.939105 1.6298 0
M  V30 1127 O 102.997 -1.61472 0.8244 0
M  V30 1128 C 103.045 0.586094 3.55805 0
M  V30 1129 O 102.149 -0.386029 4.10589 0
M  V30 1130 H 101.49 0.183664 0.638094 0
M  V30 1131 H 104.02 1.13875 1.69981 0
M  V30 1132 H 104.03 0.469209 4.05293 0
M  V30 1133 H 102.705 1.6014 3.83833 0
M  V30 1134 H 101.282 -0.226371 3.72212 0
M  V30 1135 N 103.467 -1.45747 0.599634 0
M  V30 1136 C 104.697 -2.06369 0.0977132 0
M  V30 1137 C 105.105 -1.44624 -1.21985 0
M  V30 1138 O 104.448 -0.551831 -1.75216 0
M  V30 1139 C 104.51 -3.59284 -0.124673 0
M  V30 1140 C 104.174 -4.43318 1.10987 0
M  V30 1141 C 105.171 -4.78796 2.02609 0
M  V30 1142 C 102.856 -4.84194 1.33647 0
M  V30 1143 C 104.85 -5.53997 3.15224 0
M  V30 1144 C 102.537 -5.5915 2.46565 0
M  V30 1145 C 103.535 -5.93968 3.37182 0
M  V30 1146 O 103.223 -6.67405 4.48136 0
M  V30 1147 H 102.955 -0.673122 0.0623153 0
M  V30 1148 H 105.509 -1.88104 0.824981 0
M  V30 1149 H 103.739 -3.75919 -0.906745 0
M  V30 1150 H 105.428 -4.01775 -0.577201 0
M  V30 1151 H 106.194 -4.47781 1.86325 0
M  V30 1152 H 102.073 -4.56534 0.64016 0
M  V30 1153 H 105.617 -5.81091 3.85978 0
M  V30 1154 H 101.514 -5.89579 2.62805 0
M  V30 1155 H 102.282 -6.85847 4.46717 0
M  V30 1156 N 104.945 -0.338344 -1.53925 0
M  V30 1157 C 105.893 0.536231 -2.26335 0
M  V30 1158 C 106.887 1.1063 -1.28286 0
M  V30 1159 O 108.093 1.05264 -1.46012 0
M  V30 1160 H 104.468 0.191602 -0.727181 0
M  V30 1161 H 106.439 -0.0965747 -2.98244 0
M  V30 1162 C 105.188 1.67803 -3.04528 0
M  V30 1163 H 104.511 1.24864 -3.79801 0
M  V30 1164 H 105.951 2.26526 -3.58416 0
M  V30 1165 C 104.41 2.60439 -2.13712 0
M  V30 1166 O 104.94 3.6255 -1.72975 0
M  V30 1167 N 103.146 2.29006 -1.78898 0
M  V30 1168 H 102.693 1.46011 -2.12223 0
M  V30 1169 H 102.651 2.91248 -1.18416 0
M  V30 1170 N 106.423 1.57458 -0.0668435 0
M  V30 1171 C 107.651 1.97624 0.612565 0
M  V30 1172 C 108.066 0.94502 1.63447 0
M  V30 1173 O 107.423 -0.0689276 1.8237 0
M  V30 1174 C 107.474 3.37869 1.28555 0
M  V30 1175 O 107.195 4.3704 0.304557 0
M  V30 1176 C 108.696 3.92882 2.05325 0
M  V30 1177 H 105.916 0.650045 0.166381 0
M  V30 1178 H 108.46 2.04035 -0.137782 0
M  V30 1179 H 106.615 3.3256 1.98702 0
M  V30 1180 H 107.029 5.18565 0.786779 0
M  V30 1181 H 108.503 4.93247 2.47812 0
M  V30 1182 H 108.98 3.29156 2.9078 0
M  V30 1183 H 109.586 4.01577 1.40056 0
M  V30 1184 N 107.901 -0.206675 1.56239 0
M  V30 1185 C 108.833 -1.27997 1.9013 0
M  V30 1186 C 109.846 -1.42299 0.790883 0
M  V30 1187 O 111.035 -1.42931 1.06925 0
M  V30 1188 C 108.135 -2.65368 2.10792 0
M  V30 1189 C 107.308 -2.72824 3.41886 0
M  V30 1190 C 106.367 -3.9131 3.51799 0
M  V30 1191 O 105.393 -3.78953 4.24716 0
M  V30 1192 N 106.595 -5.06265 2.84035 0
M  V30 1193 H 109.36 -0.992444 2.82791 0
M  V30 1194 H 106.921 -0.396652 1.56966 0
M  V30 1195 H 108.913 -3.43039 2.14724 0
M  V30 1196 H 107.483 -2.86657 1.24685 0
M  V30 1197 H 106.703 -1.81515 3.49923 0
M  V30 1198 H 107.991 -2.74786 4.28217 0
M  V30 1199 H 107.389 -5.19203 2.246 0
M  V30 1200 H 105.946 -5.81925 2.93609 0
M  V30 1201 N 109.379 -1.50304 -0.473955 0
M  V30 1202 C 110.627 -1.60832 -1.22382 0
M  V30 1203 C 110.948 -0.30939 -1.9253 0
M  V30 1204 O 110.218 0.67296 -1.83978 0
M  V30 1205 H 108.798 -0.592652 -0.454723 0
M  V30 1206 H 111.46 -1.87068 -0.546968 0
M  V30 1207 H 110.556 -2.41803 -1.97327 0
M  V30 1208 N 110.857 0.726932 -1.39834 0
M  V30 1209 C 112.273 1.03354 -1.21615 0
M  V30 1210 C 112.473 2.01327 -0.08338 0
M  V30 1211 O 111.529 2.46158 0.56238 0
M  V30 1212 C 112.842 1.58811 -2.55342 0
M  V30 1213 C 114.39 1.70851 -2.62257 0
M  V30 1214 C 114.865 2.29716 -3.96225 0
M  V30 1215 N 116.356 2.37116 -3.97907 0
M  V30 1216 C 117.091 2.83619 -4.98345 0
M  V30 1217 N 116.587 3.29958 -6.09179 0
M  V30 1218 N 118.38 2.82901 -4.8572 0
M  V30 1219 H 110.531 0.0773069 -2.12259 0
M  V30 1220 H 112.794 0.0969102 -0.943034 0
M  V30 1221 H 112.5 0.942855 -3.38826 0
M  V30 1222 H 112.374 2.57502 -2.75632 0
M  V30 1223 H 114.761 2.34497 -1.79152 0
M  V30 1224 H 114.842 0.707913 -2.45809 0
M  V30 1225 H 114.486 1.66696 -4.79765 0
M  V30 1226 H 114.416 3.30469 -4.09997 0
M  V30 1227 H 116.907 2.04374 -3.17868 0
M  V30 1228 H 117.22 3.63976 -6.8172 0
M  V30 1229 H 115.565 3.27946 -6.12761 0
M  V30 1230 H 118.756 2.46027 -3.98231 0
M  V30 1231 H 118.929 3.18827 -5.6414 0
M  V30 1232 N 112.336 1.25143 0.95797 0
M  V30 1233 C 113.613 1.00472 1.67823 0
M  V30 1234 C 113.993 -0.470056 2.058 0
M  V30 1235 O 113.341 -1.44663 1.76875 0
M  V30 1236 C 113.551 1.9372 2.90299 0
M  V30 1237 C 114.899 2.21371 3.62326 0
M  V30 1238 O 115.923 1.91451 3.00375 0
M  V30 1239 O 114.782 2.72231 4.7387 0
M  V30 1240 H 111.876 0.380752 0.734137 0
M  V30 1241 H 114.422 1.36283 1.01119 0
M  V30 1242 H 113.194 2.93316 2.59001 0
M  V30 1243 H 112.817 1.58286 3.64735 0
M  V30 1244 N 113.814 -1.1601 1.06675 0
M  V30 1245 C 114.762 -2.22586 0.675157 0
M  V30 1246 C 115.756 -1.66525 -0.310766 0
M  V30 1247 O 116.962 -1.79145 -0.175215 0
M  V30 1248 H 113.337 -0.724855 0.200223 0
M  V30 1249 H 115.308 -2.52899 1.58381 0
M  V30 1250 C 114.057 -3.47604 0.0817162 0
M  V30 1251 H 113.38 -3.91058 0.831484 0
M  V30 1252 H 114.82 -4.23718 -0.154708 0
M  V30 1253 C 113.279 -3.15718 -1.17576 0
M  V30 1254 O 113.809 -3.31878 -2.26318 0
M  V30 1255 N 112.015 -2.69816 -1.07923 0
M  V30 1256 H 111.562 -2.56866 -0.194293 0
M  V30 1257 H 111.52 -2.48855 -1.92141 0
M  V30 1258 N 115.292 -0.849877 -1.32721 0
M  V30 1259 C 116.202 -0.293791 -2.32753 0
M  V30 1260 C 117.218 0.585906 -1.63839 0
M  V30 1261 O 118.394 0.487413 -1.95413 0
M  V30 1262 C 115.459 0.512752 -3.42887 0
M  V30 1263 C 114.52 -0.39252 -4.27502 0
M  V30 1264 C 113.753 0.375625 -5.32377 0
M  V30 1265 O 113.976 1.60613 -5.4732 0
M  V30 1266 O 112.91 -0.256094 -6.01355 0
M  V30 1267 H 116.736 -1.12242 -2.82197 0
M  V30 1268 H 114.321 -0.612685 -1.36259 0
M  V30 1269 H 116.203 0.970704 -4.10067 0
M  V30 1270 H 114.878 1.31826 -2.95641 0
M  V30 1271 H 113.785 -0.898547 -3.63149 0
M  V30 1272 H 115.118 -1.16309 -4.7826 0
M  V30 1273 N 116.77 1.45427 -0.607355 0
M  V30 1274 C 117.7 2.3329 0.0989352 0
M  V30 1275 C 118.681 1.46816 0.859007 0
M  V30 1276 O 119.866 1.75588 0.829604 0
M  V30 1277 C 116.996 3.29518 1.09705 0
M  V30 1278 C 115.95 4.25626 0.450206 0
M  V30 1279 C 115.276 5.11542 1.55655 0
M  V30 1280 C 116.576 5.18505 -0.628455 0
M  V30 1281 H 118.27 2.92595 -0.634716 0
M  V30 1282 H 115.816 1.40696 -0.306681 0
M  V30 1283 H 117.769 3.89855 1.59971 0
M  V30 1284 H 116.493 2.68372 1.86129 0
M  V30 1285 H 115.152 3.66586 -0.0315886 0
M  V30 1286 H 114.8 4.46765 2.31107 0
M  V30 1287 H 114.5 5.76647 1.12925 0
M  V30 1288 H 116.024 5.74748 2.06148 0
M  V30 1289 H 117.438 5.72916 -0.209877 0
M  V30 1290 H 115.835 5.92085 -0.977489 0
M  V30 1291 H 116.905 4.60948 -1.50514 0
M  V30 1292 N 118.248 0.346503 1.53744 0
M  V30 1293 C 119.178 -0.501193 2.28058 0
M  V30 1294 C 120.159 -1.10014 1.29734 0
M  V30 1295 O 121.344 -1.12097 1.58581 0
M  V30 1296 C 118.474 -1.65078 3.05559 0
M  V30 1297 C 117.428 -1.18003 4.11411 0
M  V30 1298 C 116.754 -2.41837 4.76884 0
M  V30 1299 C 118.054 -0.278394 5.21558 0
M  V30 1300 H 119.748 0.11875 2.99164 0
M  V30 1301 H 117.294 0.0585531 1.43881 0
M  V30 1302 H 119.247 -2.25028 3.56287 0
M  V30 1303 H 117.971 -2.29767 2.32109 0
M  V30 1304 H 116.63 -0.603331 3.61601 0
M  V30 1305 H 116.278 -3.0494 4.00026 0
M  V30 1306 H 115.978 -2.1102 5.48402 0
M  V30 1307 H 117.502 -3.02508 5.30397 0
M  V30 1308 H 118.916 -0.784823 5.67903 0
M  V30 1309 H 117.313 -0.0619707 6.00068 0
M  V30 1310 H 118.383 0.684677 4.80042 0
M  V30 1311 N 119.726 -1.57421 0.075193 0
M  V30 1312 C 120.972 -1.93905 -0.594025 0
M  V30 1313 C 121.305 -0.955701 -1.69056 0
M  V30 1314 O 120.58 0.0145373 -1.94495 0
M  V30 1315 C 120.863 -3.40638 -1.1678 0
M  V30 1316 C 120.716 -4.49733 -0.0776792 0
M  V30 1317 C 122.035 -3.88259 -2.07228 0
M  V30 1318 H 119.154 -0.705105 -0.214466 0
M  V30 1319 H 121.796 -1.8947 0.141854 0
M  V30 1320 H 119.946 -3.44549 -1.79494 0
M  V30 1321 H 121.618 -4.57942 0.555573 0
M  V30 1322 H 119.861 -4.29751 0.591286 0
M  V30 1323 H 120.532 -5.49549 -0.519603 0
M  V30 1324 H 123.008 -3.86376 -1.54445 0
M  V30 1325 H 121.884 -4.91533 -2.44308 0
M  V30 1326 H 122.145 -3.26396 -2.98191 0
M  V30 1327 N 121.204 0.198386 -1.56346 0
M  V30 1328 C 122.434 0.934215 -1.84271 0
M  V30 1329 C 122.842 1.77496 -0.655125 0
M  V30 1330 O 122.185 1.7961 0.385488 0
M  V30 1331 C 122.247 1.88278 -3.06254 0
M  V30 1332 C 121.911 1.22431 -4.40295 0
M  V30 1333 C 122.908 0.602839 -5.16393 0
M  V30 1334 C 120.593 1.22915 -4.87029 0
M  V30 1335 C 122.587 -0.0050083 -6.374 0
M  V30 1336 C 120.274 0.617465 -6.07973 0
M  V30 1337 C 121.272 0.00146341 -6.83 0
M  V30 1338 O 120.96 -0.600642 -8.01653 0
M  V30 1339 H 120.692 0.278245 -0.616081 0
M  V30 1340 H 123.246 0.211626 -2.04307 0
M  V30 1341 H 121.476 2.64498 -2.82095 0
M  V30 1342 H 123.165 2.48612 -3.20853 0
M  V30 1343 H 123.931 0.591265 -4.81382 0
M  V30 1344 H 119.81 1.69801 -4.28589 0
M  V30 1345 H 123.354 -0.48643 -6.95902 0
M  V30 1346 H 119.251 0.62653 -6.42452 0
M  V30 1347 H 120.019 -0.497225 -8.16988 0
M  V30 1348 N 122.682 1.50554 0.465978 0
M  V30 1349 C 123.629 1.6979 1.56333 0
M  V30 1350 C 124.599 0.539239 1.57103 0
M  V30 1351 O 125.784 0.770401 1.74555 0
M  V30 1352 C 122.924 1.80273 2.94271 0
M  V30 1353 C 122.037 3.07674 3.0325 0
M  V30 1354 C 121.172 3.08922 4.32135 0
M  V30 1355 C 120.211 4.30755 4.34875 0
M  V30 1356 N 119.348 4.29714 5.55239 0
M  V30 1357 H 124.188 2.63472 1.39235 0
M  V30 1358 H 121.725 1.30602 0.676873 0
M  V30 1359 H 123.683 1.84332 3.74269 0
M  V30 1360 H 122.313 0.900258 3.09992 0
M  V30 1361 H 121.365 3.13062 2.16094 0
M  V30 1362 H 122.677 3.97642 3.01135 0
M  V30 1363 H 121.831 3.11738 5.20485 0
M  V30 1364 H 120.57 2.16792 4.36866 0
M  V30 1365 H 119.575 4.28146 3.44922 0
M  V30 1366 H 120.8 5.24117 4.31831 0
M  V30 1367 H 118.746 3.4044 5.60746 0
M  V30 1368 H 118.663 5.13456 5.54886 0
M  V30 1369 H 119.931 4.36683 6.457 0
M  V30 1370 N 124.16 -0.719506 1.40217 0
M  V30 1371 C 125.07 -1.86378 1.42479 0
M  V30 1372 C 126.086 -1.71073 0.317834 0
M  V30 1373 O 127.262 -1.93406 0.561794 0
M  V30 1374 C 124.327 -3.22136 1.28178 0
M  V30 1375 C 123.388 -3.49723 2.48982 0
M  V30 1376 C 122.621 -4.79004 2.35353 0
M  V30 1377 O 122.844 -5.53821 1.36524 0
M  V30 1378 O 121.778 -5.06839 3.2465 0
M  V30 1379 H 125.604 -1.87425 2.38968 0
M  V30 1380 H 123.189 -0.869405 1.21498 0
M  V30 1381 H 125.071 -4.03234 1.22395 0
M  V30 1382 H 123.746 -3.21825 0.347934 0
M  V30 1383 H 122.653 -2.6865 2.60342 0
M  V30 1384 H 123.986 -3.54828 3.41113 0
M  V30 1385 N 125.638 -1.25649 -0.95132 0
M  V30 1386 C 127.054 -1.02542 -1.223 0
M  V30 1387 C 127.254 0.255715 -1.99871 0
M  V30 1388 O 126.31 0.967558 -2.33226 0
M  V30 1389 C 127.623 -2.25065 -1.99415 0
M  V30 1390 C 129.171 -2.29861 -2.12446 0
M  V30 1391 C 129.646 -3.52048 -2.92961 0
M  V30 1392 N 131.137 -3.52465 -3.00538 0
M  V30 1393 C 131.872 -4.43672 -3.63239 0
M  V30 1394 N 131.368 -5.45157 -4.27523 0
M  V30 1395 N 133.161 -4.31346 -3.60412 0
M  V30 1396 H 125.312 -2.07951 -0.432471 0
M  V30 1397 H 127.575 -0.91339 -0.253816 0
M  V30 1398 H 127.281 -3.18194 -1.49817 0
M  V30 1399 H 127.155 -2.28502 -3.00111 0
M  V30 1400 H 129.542 -1.37252 -2.61239 0
M  V30 1401 H 129.623 -2.3044 -1.11044 0
M  V30 1402 H 129.267 -4.44981 -2.44856 0
M  V30 1403 H 129.197 -3.48715 -3.94596 0
M  V30 1404 H 131.688 -2.79056 -2.54826 0
M  V30 1405 H 132.001 -6.10958 -4.73234 0
M  V30 1406 H 130.346 -5.49025 -4.26141 0
M  V30 1407 H 133.537 -3.51288 -3.09377 0
M  V30 1408 H 133.71 -5.02624 -4.0899 0
M  V30 1409 N 127.117 1.15442 -1.07289 0
M  V30 1410 C 128.363 1.86489 -0.796846 0
M  V30 1411 C 128.696 1.82078 0.675371 0
M  V30 1412 O 127.971 1.24346 1.4956 0
M  V30 1413 C 128.254 3.35626 -1.30489 0
M  V30 1414 C 128.107 3.48673 -2.84161 0
M  V30 1415 C 129.426 4.30357 -0.920907 0
M  V30 1416 H 126.545 0.677144 -0.290939 0
M  V30 1417 H 129.187 1.35633 -1.33056 0
M  V30 1418 H 127.337 3.79068 -0.850883 0
M  V30 1419 H 129.009 3.14099 -3.37846 0
M  V30 1420 H 127.252 2.90253 -3.22391 0
M  V30 1421 H 127.923 4.53453 -3.14777 0
M  V30 1422 H 130.399 3.94871 -1.3121 0
M  V30 1423 H 129.275 5.33193 -1.30372 0
M  V30 1424 H 129.536 4.4176 0.173226 0
M  V30 1425 N 128.595 0.856903 1.32268 0
M  V30 1426 C 129.843 0.460474 1.96784 0
M  V30 1427 C 130.164 -0.987701 1.68135 0
M  V30 1428 O 129.434 -1.69058 0.989765 0
M  V30 1429 H 128.014 0.167289 0.728027 0
M  V30 1430 H 130.676 1.09383 1.61312 0
M  V30 1431 H 129.772 0.60739 3.06133 0
M  V30 1432 N 130.073 -1.45103 0.615059 0
M  V30 1433 C 130.983 -2.34382 -0.101034 0
M  V30 1434 C 131.999 -1.51681 -0.852585 0
M  V30 1435 O 133.175 -1.8446 -0.808484 0
M  V30 1436 C 130.24 -3.29417 -1.08099 0
M  V30 1437 C 129.301 -4.28025 -0.330577 0
M  V30 1438 C 128.534 -5.1852 -1.26385 0
M  V30 1439 O 128.757 -5.12598 -2.50198 0
M  V30 1440 O 127.691 -5.97122 -0.756866 0
M  V30 1441 H 131.517 -2.97033 0.632855 0
M  V30 1442 H 129.102 -1.4461 0.375293 0
M  V30 1443 H 130.984 -3.87958 -1.6452 0
M  V30 1444 H 129.659 -2.69321 -1.79577 0
M  V30 1445 H 128.566 -3.73078 0.276283 0
M  V30 1446 H 129.899 -4.90997 0.343866 0
M  V30 1447 N 131.551 -0.354651 -1.53558 0
M  V30 1448 C 132.781 0.239167 -2.05211 0
M  V30 1449 C 133.189 1.43879 -1.22863 0
M  V30 1450 O 132.532 1.81857 -0.259565 0
M  V30 1451 C 132.594 0.707251 -3.52474 0
M  V30 1452 C 132.258 -0.374212 -4.55465 0
M  V30 1453 C 133.255 -1.22054 -5.0537 0
M  V30 1454 C 130.94 -0.531323 -4.99482 0
M  V30 1455 C 132.934 -2.20942 -5.97882 0
M  V30 1456 C 130.621 -1.52358 -5.91802 0
M  V30 1457 C 131.619 -2.36108 -6.40892 0
M  V30 1458 O 131.307 -3.33643 -7.31394 0
M  V30 1459 H 131.039 0.0479716 -0.674296 0
M  V30 1460 H 133.593 -0.508121 -1.99016 0
M  V30 1461 H 131.823 1.50596 -3.56171 0
M  V30 1462 H 133.512 1.22285 -3.87042 0
M  V30 1463 H 134.278 -1.1103 -4.7212 0
M  V30 1464 H 130.157 0.110738 -4.60867 0
M  V30 1465 H 133.701 -2.86348 -6.36121 0
M  V30 1466 H 129.598 -1.63434 -6.24467 0
M  V30 1467 H 130.366 -3.29244 -7.4936 0
M  V30 1468 N 133.029 1.57378 -0.0835403 0
M  V30 1469 C 134.254 1.98682 0.594987 0
M  V30 1470 C 134.679 0.961969 1.61641 0
M  V30 1471 O 134.037 -0.0709989 1.81161 0
M  V30 1472 C 134.085 3.38988 1.2296 0
M  V30 1473 O 133.189 3.39208 2.34546 0
M  V30 1474 H 132.53 0.646368 0.152002 0
M  V30 1475 H 135.06 2.03961 -0.161533 0
M  V30 1476 H 135.07 3.76431 1.57366 0
M  V30 1477 H 133.745 4.13107 0.481228 0
M  V30 1478 H 132.322 3.13548 2.01846 0
M  V30 1479 N 134.507 -0.190092 1.56449 0
M  V30 1480 C 135.437 -1.23816 1.97969 0
M  V30 1481 C 136.418 -1.47201 0.852395 0
M  V30 1482 O 137.603 -1.58854 1.1171 0
M  V30 1483 C 134.733 -2.5813 2.3235 0
M  V30 1484 C 133.687 -2.49348 3.47864 0
M  V30 1485 C 133.013 -3.8798 3.67934 0
M  V30 1486 C 134.313 -2.01424 4.81898 0
M  V30 1487 H 136.007 -0.89311 2.85769 0
M  V30 1488 H 133.553 -0.428177 1.37487 0
M  V30 1489 H 135.506 -3.31637 2.59991 0
M  V30 1490 H 134.23 -2.94386 1.41438 0
M  V30 1491 H 132.889 -1.78297 3.20321 0
M  V30 1492 H 132.537 -4.21597 2.74344 0
M  V30 1493 H 132.237 -3.82978 4.45648 0
M  V30 1494 H 133.761 -4.63101 3.97957 0
M  V30 1495 H 135.175 -2.64693 5.08538 0
M  V30 1496 H 133.572 -2.07413 5.63116 0
M  V30 1497 H 134.642 -0.967677 4.75146 0
M  V30 1498 N 135.985 -1.50799 -0.457987 0
M  V30 1499 C 137.215 -1.65977 -1.23025 0
M  V30 1500 C 137.623 -0.347918 -1.85974 0
M  V30 1501 O 136.966 0.68148 -1.70592 0
M  V30 1502 C 137.028 -2.70309 -2.3701 0
M  V30 1503 C 136.692 -4.135 -1.94594 0
M  V30 1504 C 137.689 -4.98949 -1.46101 0
M  V30 1505 C 135.374 -4.5949 -2.02915 0
M  V30 1506 C 137.368 -6.28442 -1.06489 0
M  V30 1507 C 135.055 -5.88984 -1.62914 0
M  V30 1508 C 136.053 -6.73286 -1.1478 0
M  V30 1509 O 135.741 -8.00362 -0.75339 0
M  V30 1510 H 135.473 -0.56064 -0.377702 0
M  V30 1511 H 138.027 -1.97857 -0.551537 0
M  V30 1512 H 136.257 -2.337 -3.08093 0
M  V30 1513 H 137.946 -2.74574 -2.98938 0
M  V30 1514 H 138.712 -4.6463 -1.39084 0
M  V30 1515 H 134.591 -3.94009 -2.39328 0
M  V30 1516 H 138.135 -6.94194 -0.688488 0
M  V30 1517 H 134.032 -6.22822 -1.69595 0
M  V30 1518 H 134.8 -8.13744 -0.88108 0
M  V30 1519 N 137.463 0.71206 -1.40597 0
M  V30 1520 C 138.712 1.46754 -1.38369 0
M  V30 1521 C 139.025 1.95598 0.0097839 0
M  V30 1522 O 140.231 2.71059 0.154677 0
M  V30 1523 C 138.687 2.65289 -2.43207 0
M  V30 1524 C 138.295 2.23301 -3.88382 0
M  V30 1525 C 140.039 3.43008 -2.50091 0
M  V30 1526 C 137.946 3.38696 -4.84808 0
M  V30 1527 H 136.876 0.55118 -0.514506 0
M  V30 1528 H 139.527 0.774616 -1.66349 0
M  V30 1529 H 137.909 3.36769 -2.08332 0
M  V30 1530 H 139.083 1.59218 -4.32419 0
M  V30 1531 H 137.398 1.58618 -3.85006 0
M  V30 1532 H 139.995 4.28881 -3.1932 0
M  V30 1533 H 140.338 3.87065 -1.53253 0
M  V30 1534 H 140.871 2.78574 -2.83974 0
M  V30 1535 H 137.61 2.99668 -5.82992 0
M  V30 1536 H 137.13 4.01683 -4.45433 0
M  V30 1537 H 138.809 4.04712 -5.04794 0
M  V30 1538 N 138.941 1.26152 0.944643 0
M  V30 1539 C 140.189 1.11271 1.6871 0
M  V30 1540 C 140.51 -0.345166 1.91921 0
M  V30 1541 O 139.78 -1.24387 1.51343 0
M  V30 1542 H 138.36 0.408783 0.625224 0
M  V30 1543 H 141.022 1.58427 1.1352 0
M  V30 1544 H 140.118 1.62879 2.66227 0
M  V30 1545 N 140.419 -1.14872 1.07899 0
M  V30 1546 C 141.835 -1.37776 0.805606 0
M  V30 1547 C 142.035 -1.92743 -0.587555 0
M  V30 1548 O 141.091 -2.13678 -1.34528 0
M  V30 1549 C 142.404 -2.34361 1.88402 0
M  V30 1550 C 143.952 -2.48012 1.90942 0
M  V30 1551 C 144.427 -3.47893 2.97883 0
M  V30 1552 N 145.918 -3.55433 2.97021 0
M  V30 1553 C 146.653 -4.32553 3.76412 0
M  V30 1554 N 146.149 -5.12959 4.65666 0
M  V30 1555 N 147.942 -4.27697 3.64735 0
M  V30 1556 H 140.093 -0.775365 1.97742 0
M  V30 1557 H 142.356 -0.403521 0.857831 0
M  V30 1558 H 142.062 -2.01098 2.88535 0
M  V30 1559 H 141.936 -3.34206 1.74889 0
M  V30 1560 H 144.323 -2.8057 0.914579 0
M  V30 1561 H 144.404 -1.48147 2.08534 0
M  V30 1562 H 144.048 -3.16069 3.97571 0
M  V30 1563 H 143.978 -4.47527 2.77538 0
M  V30 1564 H 146.469 -2.98048 2.32326 0
M  V30 1565 H 146.782 -5.69065 5.22862 0
M  V30 1566 H 145.127 -5.12245 4.69712 0
M  V30 1567 H 148.318 -3.63949 2.94378 0
M  V30 1568 H 148.491 -4.8755 4.26848 0
M  V30 1569 N 141.898 -0.863906 -1.31812 0
M  V30 1570 C 142.848 -0.286898 -2.26188 0
M  V30 1571 C 143.832 0.572577 -1.50367 0
M  V30 1572 O 145.024 0.420447 -1.71934 0
M  V30 1573 C 142.153 0.515849 -3.39402 0
M  V30 1574 C 141.239 -0.356531 -4.22599 0
M  V30 1575 N 141.63 -1.44716 -4.84656 0
M  V30 1576 C 139.928 -0.147898 -4.45755 0
M  V30 1577 C 140.629 -1.98462 -5.46798 0
M  V30 1578 N 139.605 -1.28247 -5.28255 0
M  V30 1579 H 143.407 -1.12055 -2.717 0
M  V30 1580 H 140.921 -0.711012 -1.46008 0
M  V30 1581 H 142.918 0.945701 -4.06032 0
M  V30 1582 H 141.578 1.34718 -2.95434 0
M  V30 1583 H 142.589 -1.83008 -4.84488 0
M  V30 1584 H 139.266 0.647973 -4.12441 0
M  V30 1585 H 140.656 -2.89932 -6.06126 0
M  V30 1586 N 143.376 1.44774 -0.622745 0
M  V30 1587 C 144.323 2.30635 0.0871679 0
M  V30 1588 C 145.293 1.42994 0.845097 0
M  V30 1589 O 146.478 1.71907 0.827812 0
M  V30 1590 C 143.618 3.28144 1.06844 0
M  V30 1591 C 142.731 4.30888 0.309809 0
M  V30 1592 C 141.866 5.15494 1.28215 0
M  V30 1593 C 140.905 6.09953 0.512198 0
M  V30 1594 N 140.042 6.87287 1.43458 0
M  V30 1595 H 144.882 2.90803 -0.650974 0
M  V30 1596 H 142.419 1.43286 -0.33281 0
M  V30 1597 H 144.377 3.83157 1.65066 0
M  V30 1598 H 143.007 2.69695 1.77382 0
M  V30 1599 H 142.059 3.78414 -0.388181 0
M  V30 1600 H 143.371 4.97955 -0.290254 0
M  V30 1601 H 142.525 5.74983 1.93596 0
M  V30 1602 H 141.264 4.48481 1.91614 0
M  V30 1603 H 140.269 5.49581 -0.155151 0
M  V30 1604 H 141.494 6.78999 -0.116958 0
M  V30 1605 H 139.44 6.2295 2.05594 0
M  V30 1606 H 139.357 7.50763 0.888335 0
M  V30 1607 H 140.625 7.51306 2.07749 0
M  V30 1608 N 144.854 0.36279 1.53368 0
M  V30 1609 C 146.1 -0.228113 2.01513 0
M  V30 1610 C 146.433 -1.48648 1.2497 0
M  V30 1611 O 145.708 -1.91459 0.342616 0
M  V30 1612 C 145.991 -0.522884 3.56284 0
M  V30 1613 C 145.844 0.74892 4.43521 0
M  V30 1614 C 147.163 -1.32461 4.19693 0
M  V30 1615 H 144.282 -0.0814343 0.732487 0
M  V30 1616 H 146.924 0.48713 1.83649 0
M  V30 1617 H 145.074 -1.1322 3.71636 0
M  V30 1618 H 146.746 1.38648 4.39971 0
M  V30 1619 H 144.989 1.36986 4.11603 0
M  V30 1620 H 145.66 0.497667 5.49752 0
M  V30 1621 H 148.136 -0.809203 4.08156 0
M  V30 1622 H 147.012 -1.49961 5.28018 0
M  V30 1623 H 147.273 -2.33232 3.75573 0
M  V30 1624 N 146.332 -1.57332 0.0918853 0
M  V30 1625 C 147.56 -1.98574 -0.581048 0
M  V30 1626 C 147.975 -0.970903 -1.61923 0
M  V30 1627 O 147.332 0.0399054 -1.82456 0
M  V30 1628 C 147.383 -3.39872 -1.23164 0
M  V30 1629 O 147.104 -4.37469 -0.234989 0
M  V30 1630 C 148.605 -3.96099 -1.99049 0
M  V30 1631 H 145.825 -0.65261 -0.156018 0
M  V30 1632 H 148.369 -2.0379 0.170225 0
M  V30 1633 H 146.524 -3.35679 -1.93386 0
M  V30 1634 H 146.938 -5.19751 -0.70418 0
M  V30 1635 H 148.412 -4.97127 -2.39934 0
M  V30 1636 H 148.889 -3.3374 -2.85507 0
M  V30 1637 H 149.495 -4.03755 -1.3365 0
M  V30 1638 N 147.81 0.181792 -1.56548 0
M  V30 1639 C 149.035 0.920019 -1.85877 0
M  V30 1640 C 149.46 1.75494 -0.677021 0
M  V30 1641 O 148.818 1.77399 0.374056 0
M  V30 1642 C 148.866 1.78112 -3.13542 0
M  V30 1643 O 147.97 2.88152 -2.95029 0
M  V30 1644 H 147.311 0.258334 -0.611686 0
M  V30 1645 H 149.841 0.183092 -2.03779 0
M  V30 1646 H 149.851 2.18314 -3.44678 0
M  V30 1647 H 148.526 1.16777 -3.99169 0
M  V30 1648 H 147.103 2.51609 -2.75222 0
M  V30 1649 N 149.288 1.51039 0.449983 0
M  V30 1650 C 150.235 1.71439 1.54523 0
M  V30 1651 C 151.205 0.555871 1.56522 0
M  V30 1652 O 152.39 0.788871 1.73728 0
M  V30 1653 C 149.53 1.83384 2.92343 0
M  V30 1654 C 148.643 3.10873 2.9997 0
M  V30 1655 C 147.778 3.13488 4.28834 0
M  V30 1656 C 146.817 4.35343 4.30282 0
M  V30 1657 N 145.954 4.35579 5.5065 0
M  V30 1658 H 150.794 2.64934 1.36433 0
M  V30 1659 H 148.331 1.31312 0.662982 0
M  V30 1660 H 150.289 1.88291 3.72293 0
M  V30 1661 H 148.919 0.933086 3.0902 0
M  V30 1662 H 147.971 3.15336 2.12761 0
M  V30 1663 H 149.283 4.00814 2.96901 0
M  V30 1664 H 148.437 3.17241 5.17149 0
M  V30 1665 H 147.176 2.21414 4.34543 0
M  V30 1666 H 146.181 4.3178 3.40362 0
M  V30 1667 H 147.406 5.28668 4.26248 0
M  V30 1668 H 145.352 3.46369 5.57104 0
M  V30 1669 H 145.269 5.19313 5.49409 0
M  V30 1670 H 146.537 4.43507 6.41032 0
M  V30 1671 N 150.766 -0.704594 1.40972 0
M  V30 1672 C 152.012 -1.46675 1.40051 0
M  V30 1673 C 152.345 -1.94199 0.00641102 0
M  V30 1674 O 151.62 -1.68916 -0.964235 0
M  V30 1675 C 151.903 -2.68505 2.39952 0
M  V30 1676 C 151.756 -2.26805 3.88432 0
M  V30 1677 C 153.075 -3.70686 2.37233 0
M  V30 1678 H 150.194 -0.532015 0.510028 0
M  V30 1679 H 152.836 -0.803255 1.72185 0
M  V30 1680 H 150.986 -3.25114 2.1268 0
M  V30 1681 H 152.658 -1.75592 4.26574 0
M  V30 1682 H 150.901 -1.58685 4.03734 0
M  V30 1683 H 151.572 -3.14181 4.53866 0
M  V30 1684 H 154.048 -3.23731 2.61415 0
M  V30 1685 H 152.924 -4.53553 3.09162 0
M  V30 1686 H 153.185 -4.19754 1.38777 0
M  V30 1687 N 152.244 -1.26651 -0.937939 0
M  V30 1688 C 153.493 -1.11775 -1.67897 0
M  V30 1689 C 153.806 0.33794 -1.92659 0
M  V30 1690 O 155.012 0.607434 -2.64618 0
M  V30 1691 C 153.468 -1.9523 -3.02346 0
M  V30 1692 C 153.076 -3.45393 -2.8532 0
M  V30 1693 C 154.82 -1.88972 -3.80118 0
M  V30 1694 C 152.727 -4.21083 -4.15263 0
M  V30 1695 H 151.657 -0.414696 -0.629717 0
M  V30 1696 H 154.308 -1.50988 -1.04283 0
M  V30 1697 H 152.69 -1.48853 -3.66959 0
M  V30 1698 H 153.864 -3.99561 -2.29537 0
M  V30 1699 H 152.179 -3.52921 -2.20988 0
M  V30 1700 H 154.776 -2.42805 -4.76392 0
M  V30 1701 H 155.119 -0.86113 -4.07296 0
M  V30 1702 H 155.652 -2.33189 -3.22285 0
M  V30 1703 H 152.391 -5.24425 -3.93267 0
M  V30 1704 H 151.911 -3.71695 -4.70747 0
M  V30 1705 H 153.59 -4.29706 -4.83696 0
M  V30 1706 N 153.722 1.14298 -1.08507 0
M  V30 1707 C 154.632 2.23027 -0.727753 0
M  V30 1708 C 155.648 1.71952 0.26619 0
M  V30 1709 O 156.824 2.011 0.109882 0
M  V30 1710 C 153.889 3.46403 -0.143541 0
M  V30 1711 C 152.95 4.12413 -1.19223 0
M  V30 1712 C 152.183 5.29899 -0.635798 0
M  V30 1713 O 152.406 5.67796 0.544393 0
M  V30 1714 O 151.34 5.85717 -1.38634 0
M  V30 1715 H 155.166 2.55945 -1.63481 0
M  V30 1716 H 152.751 1.22248 -0.858817 0
M  V30 1717 H 154.633 4.21018 0.179404 0
M  V30 1718 H 153.308 3.15206 0.736659 0
M  V30 1719 H 152.215 3.39667 -1.56772 0
M  V30 1720 H 153.548 4.47718 -2.04474 0
M  V30 1721 N 155.201 0.870884 1.31352 0
M  V30 1722 C 156.148 0.325425 2.28494 0
M  V30 1723 C 157.118 -0.576615 1.5577 0
M  V30 1724 O 158.303 -0.508059 1.83911 0
M  V30 1725 C 155.443 -0.466283 3.41935 0
M  V30 1726 C 154.556 0.463378 4.29508 0
M  V30 1727 C 153.691 -0.342544 5.30094 0
M  V30 1728 C 152.73 0.583486 6.09313 0
M  V30 1729 N 151.867 -0.186244 7.01853 0
M  V30 1730 H 156.707 1.15901 2.74538 0
M  V30 1731 H 154.244 0.58294 1.35056 0
M  V30 1732 H 156.202 -0.941085 4.06447 0
M  V30 1733 H 154.832 -1.26456 2.97 0
M  V30 1734 H 153.884 1.05663 3.65431 0
M  V30 1735 H 155.196 1.1734 4.84802 0
M  V30 1736 H 154.35 -0.879816 6.00287 0
M  V30 1737 H 153.089 -1.08585 4.75458 0
M  V30 1738 H 152.094 1.13251 5.3801 0
M  V30 1739 H 153.319 1.32566 6.66035 0
M  V30 1740 H 151.265 -0.912348 6.49625 0
M  V30 1741 H 151.182 0.464422 7.54572 0
M  V30 1742 H 152.45 -0.704716 7.76308 0
M  V30 1743 N 156.679 -1.44442 0.630414 0
M  V30 1744 C 157.926 -2.02052 0.134617 0
M  V30 1745 C 158.254 -1.49576 -1.24327 0
M  V30 1746 O 157.509 -0.669806 -1.83881 0
M  V30 1747 C 157.808 -3.57332 0.0697835 0
M  V30 1748 C 157.474 -4.29058 1.38635 0
M  V30 1749 C 156.136 -4.4837 1.74694 0
M  V30 1750 C 158.488 -4.69872 2.25543 0
M  V30 1751 C 155.816 -5.05756 2.97369 0
M  V30 1752 C 158.168 -5.28616 3.47487 0
M  V30 1753 C 156.832 -5.46147 3.8377 0
M  V30 1754 H 156.102 -0.739361 0.0492598 0
M  V30 1755 H 158.749 -1.73217 0.816586 0
M  V30 1756 H 157.054 -3.85577 -0.695553 0
M  V30 1757 H 158.751 -3.99637 -0.330344 0
M  V30 1758 H 155.341 -4.14357 1.09574 0
M  V30 1759 H 159.525 -4.54666 1.98979 0
M  V30 1760 H 154.781 -5.17515 3.25558 0
M  V30 1761 H 158.955 -5.59192 4.15063 0
M  V30 1762 H 156.582 -5.9038 4.7891 0
M  V30 1763 N 158.157 -0.370918 -1.53173 0
M  V30 1764 C 159.568 0.107139 -1.86392 0
M  V30 1765 C 159.919 1.47714 -1.29132 0
M  V30 1766 O 159.044 2.07464 -0.615439 0
M  V30 1767 C 159.639 0.201187 -3.38202 0
M  V30 1768 C 158.198 0.623507 -3.712 0
M  V30 1769 C 157.345 -0.225978 -2.76378 0
M  V30 1770 H 160.296 -0.58951 -1.47345 0
M  V30 1771 H 160.317 1.02377 -3.66468 0
M  V30 1772 H 159.829 -0.796058 -3.79848 0
M  V30 1773 H 157.93 1.62879 -3.35114 0
M  V30 1774 H 158.043 0.394414 -4.77474 0
M  V30 1775 H 156.407 0.305962 -2.52856 0
M  V30 1776 H 157.19 -1.22086 -3.20858 0
M  V30 1777 N 159.635 1.57281 -0.100228 0
M  V30 1778 C 160.598 2.13158 0.842398 0
M  V30 1779 C 161.598 1.06202 1.20738 0
M  V30 1780 O 162.788 1.32066 1.13597 0
M  V30 1781 C 159.92 2.65639 2.13655 0
M  V30 1782 H 161.113 2.97766 0.357114 0
M  V30 1783 H 158.666 1.5559 0.148823 0
M  V30 1784 H 159.401 1.84566 2.66657 0
M  V30 1785 H 159.186 3.43844 1.88451 0
M  V30 1786 H 160.676 3.08846 2.81077 0
M  V30 1787 N 161.113 -0.173488 1.56642 0
M  V30 1788 C 162.524 -0.736155 1.71574 0
M  V30 1789 C 162.875 -1.82888 0.710389 0
M  V30 1790 O 162 -2.16017 -0.1287 0
M  V30 1791 C 162.595 -1.34211 3.11083 0
M  V30 1792 C 161.154 -1.85162 3.27707 0
M  V30 1793 C 160.301 -0.729765 2.67525 0
M  V30 1794 H 163.252 0.0518786 1.58615 0
M  V30 1795 H 163.273 -2.21178 3.09613 0
M  V30 1796 H 162.785 -0.546579 3.84232 0
M  V30 1797 H 160.886 -2.67366 2.59512 0
M  V30 1798 H 160.999 -1.99855 4.35425 0
M  V30 1799 H 159.363 -1.14965 2.27278 0
M  V30 1800 H 160.146 0.0538806 3.43258 0
M  V30 1801 N 162.591 -1.51276 -0.441967 0
M  V30 1802 C 163.837 -1.63958 -1.19355 0
M  V30 1803 C 164.17 -0.352543 -1.90973 0
M  V30 1804 O 163.445 0.647627 -1.83401 0
M  V30 1805 C 163.728 -2.83979 -2.21422 0
M  V30 1806 C 163.581 -4.22646 -1.53918 0
M  V30 1807 C 164.9 -2.99521 -3.22451 0
M  V30 1808 H 162.019 -0.596709 -0.432559 0
M  V30 1809 H 164.661 -1.83748 -0.483398 0
M  V30 1810 H 162.811 -2.67237 -2.81987 0
M  V30 1811 H 164.483 -4.51045 -0.967256 0
M  V30 1812 H 162.726 -4.25558 -0.841615 0
M  V30 1813 H 163.397 -5.02609 -2.28229 0
M  V30 1814 H 165.873 -3.14944 -2.71937 0
M  V30 1815 H 164.749 -3.85072 -3.91166 0
M  V30 1816 H 165.01 -2.11391 -3.88287 0
M  V30 1817 N 164.069 0.697108 -1.41344 0
M  V30 1818 C 165.019 1.80313 -1.39539 0
M  V30 1819 C 166.003 1.58618 -0.270001 0
M  V30 1820 O 167.195 1.69477 -0.510551 0
M  V30 1821 C 164.324 3.18606 -1.27848 0
M  V30 1822 C 163.41 3.46001 -2.45244 0
M  V30 1823 N 163.801 3.44103 -3.70711 0
M  V30 1824 C 162.099 3.76542 -2.39023 0
M  V30 1825 C 162.8 3.7036 -4.48563 0
M  V30 1826 N 161.776 3.90027 -3.78655 0
M  V30 1827 H 165.578 1.77207 -2.34468 0
M  V30 1828 H 163.092 0.897031 -1.35378 0
M  V30 1829 H 165.089 3.97833 -1.24637 0
M  V30 1830 H 163.749 3.22925 -0.339032 0
M  V30 1831 H 164.76 3.2452 -4.03618 0
M  V30 1832 H 161.437 3.88241 -1.53542 0
M  V30 1833 H 162.827 3.75042 -5.57488 0
M  V30 1834 N 165.547 1.27147 0.931209 0
M  V30 1835 C 166.796 1.12664 1.67302 0
M  V30 1836 C 167.109 -0.327718 1.92835 0
M  V30 1837 O 168.315 -0.593392 2.64936 0
M  V30 1838 C 166.771 1.9683 3.01307 0
M  V30 1839 C 166.379 3.46901 2.83485 0
M  V30 1840 C 168.123 1.90985 3.79111 0
M  V30 1841 C 166.03 4.23279 4.13024 0
M  V30 1842 H 164.96 0.41803 0.627509 0
M  V30 1843 H 167.611 1.51539 1.03481 0
M  V30 1844 H 165.993 1.50797 3.66164 0
M  V30 1845 H 167.167 4.00773 2.27415 0
M  V30 1846 H 165.482 3.54088 2.19113 0
M  V30 1847 H 168.079 2.45328 4.75098 0
M  V30 1848 H 168.422 0.882718 4.06834 0
M  V30 1849 H 168.955 2.34895 3.21044 0
M  V30 1850 H 165.694 5.26503 3.90481 0
M  V30 1851 H 165.214 3.74186 4.6877 0
M  V30 1852 H 166.893 4.32265 4.81411 0
M  V30 1853 N 167.025 -1.13721 1.09112 0
M  V30 1854 C 168.265 -1.86576 0.834801 0
M  V30 1855 C 168.629 -1.81435 -0.628122 0
M  V30 1856 O 169.83 -2.49497 -1.00024 0
M  V30 1857 C 168.101 -3.30872 1.35124 0
M  V30 1858 S 169.66 -4.21257 1.22832 0
M  V30 1859 H 166.478 -0.643666 0.302017 0
M  V30 1860 H 169.08 -1.37085 1.39385 0
M  V30 1861 H 167.784 -3.32166 2.41027 0
M  V30 1862 H 167.315 -3.85423 0.788185 0
M  V30 1863 H 169.33 -4.95884 0.177191 0
M  V30 1864 N 168.503 -0.877838 -1.30888 0
M  V30 1865 C 169.749 -0.493426 -1.96706 0
M  V30 1866 C 170.082 0.953504 -1.6918 0
M  V30 1867 O 169.357 1.67266 -0.992594 0
M  V30 1868 C 169.64 -0.760429 -3.51979 0
M  V30 1869 C 169.493 -2.25747 -3.89048 0
M  V30 1870 C 170.812 -0.232148 -4.39487 0
M  V30 1871 H 167.931 -0.180746 -0.714493 0
M  V30 1872 H 170.573 -1.10052 -1.54882 0
M  V30 1873 H 168.723 -0.243715 -3.87735 0
M  V30 1874 H 170.395 -2.84204 -3.63354 0
M  V30 1875 H 168.638 -2.72694 -3.37373 0
M  V30 1876 H 169.309 -2.39491 -4.97341 0
M  V30 1877 H 171.785 -0.674314 -4.106 0
M  V30 1878 H 170.661 -0.448355 -5.47066 0
M  V30 1879 H 170.922 0.866297 -4.33529 0
M  V30 1880 N 169.982 1.44106 -0.638065 0
M  V30 1881 C 171.207 2.0685 -0.150916 0
M  V30 1882 C 171.632 1.47417 1.16833 0
M  V30 1883 O 170.99 0.578264 1.71831 0
M  V30 1884 C 171.038 3.60555 -0.05708 0
M  V30 1885 O 170.142 4.00465 0.984972 0
M  V30 1886 H 169.483 0.658151 -0.0879399 0
M  V30 1887 H 172.013 1.84865 -0.876707 0
M  V30 1888 H 172.023 4.07789 0.131232 0
M  V30 1889 H 170.698 4.03193 -1.02021 0
M  V30 1890 H 169.275 3.64849 0.770672 0
M  V30 1891 N 171.46 0.379036 1.52974 0
M  V30 1892 C 172.706 -0.199244 2.02422 0
M  V30 1893 C 173.061 -1.4532 1.26095 0
M  V30 1894 O 172.354 -1.88377 0.34996 0
M  V30 1895 C 172.548 -0.53096 3.53434 0
M  V30 1896 C 172.377 0.689298 4.44386 0
M  V30 1897 C 171.147 1.20546 4.9071 0
M  V30 1898 C 173.345 1.55856 4.90116 0
M  V30 1899 N 171.327 2.38434 5.65705 0
M  V30 1900 C 172.698 2.58396 5.63588 0
M  V30 1901 C 174.753 1.57986 4.7217 0
M  V30 1902 C 173.456 3.62939 6.21022 0
M  V30 1903 C 175.482 2.6143 5.30479 0
M  V30 1904 C 174.844 3.62693 6.03849 0
M  V30 1905 H 170.943 -0.0352671 0.781204 0
M  V30 1906 H 173.527 0.526614 1.87443 0
M  V30 1907 H 171.698 -1.22588 3.68547 0
M  V30 1908 H 173.43 -1.0955 3.89591 0
M  V30 1909 H 170.185 0.768022 4.67331 0
M  V30 1910 H 170.609 2.98055 6.07859 0
M  V30 1911 H 175.251 0.810475 4.14959 0
M  V30 1912 H 172.969 4.40751 6.77321 0
M  V30 1913 H 176.555 2.63949 5.18481 0
M  V30 1914 H 175.435 4.41424 6.48163 0
M  V30 1915 N 172.938 -1.57226 0.108567 0
M  V30 1916 C 173.848 -2.18292 -0.859401 0
M  V30 1917 C 174.864 -1.15612 -1.30038 0
M  V30 1918 O 176.04 -1.48039 -1.36552 0
M  V30 1919 C 173.105 -2.762 -2.09558 0
M  V30 1920 C 172.166 -3.93881 -1.70752 0
M  V30 1921 C 171.399 -4.49018 -2.88477 0
M  V30 1922 O 171.622 -4.03068 -4.036 0
M  V30 1923 O 170.556 -5.39852 -2.66164 0
M  V30 1924 H 174.382 -3.01441 -0.369769 0
M  V30 1925 H 171.967 -1.48945 -0.1165 0
M  V30 1926 H 173.849 -3.13156 -2.81978 0
M  V30 1927 H 172.524 -1.96089 -2.57548 0
M  V30 1928 H 171.431 -3.61713 -0.954714 0
M  V30 1929 H 172.764 -4.75396 -1.27513 0
M  V30 1930 N 174.416 0.165178 -1.56732 0
M  V30 1931 C 175.641 0.900253 -1.86843 0
M  V30 1932 C 176.066 1.74766 -0.695596 0
M  V30 1933 O 175.424 1.77786 0.35522 0
M  V30 1934 C 175.472 1.74777 -3.15413 0
M  V30 1935 O 174.576 2.85007 -2.98068 0
M  V30 1936 H 173.917 0.251832 -0.614391 0
M  V30 1937 H 176.447 0.161468 -2.03962 0
M  V30 1938 H 176.457 2.14646 -3.46974 0
M  V30 1939 H 175.132 1.12537 -4.00385 0
M  V30 1940 H 173.709 2.48676 -2.77875 0
M  V30 1941 N 175.894 1.51508 0.433938 0
M  V30 1942 C 177.119 1.68443 1.21003 0
M  V30 1943 C 177.544 0.382636 1.84167 0
M  V30 1944 O 176.902 -0.65755 1.68956 0
M  V30 1945 C 176.95 2.80405 2.26727 0
M  V30 1946 O 176.054 2.44245 3.32292 0
M  V30 1947 H 175.395 0.561536 0.354363 0
M  V30 1948 H 177.925 1.9809 0.512024 0
M  V30 1949 H 177.935 3.0459 2.71457 0
M  V30 1950 H 176.61 3.74867 1.80132 0
M  V30 1951 H 175.187 2.30644 2.93015 0
M  V30 1952 N 177.372 -0.689602 1.41712 0
M  V30 1953 C 178.597 -1.48329 1.44959 0
M  V30 1954 C 179.022 -1.8801 0.0581283 0
M  V30 1955 O 178.38 -1.55026 -0.940035 0
M  V30 1956 C 178.428 -2.71835 2.36935 0
M  V30 1957 O 177.532 -3.69549 1.8305 0
M  V30 1958 H 176.873 -0.446199 0.491734 0
M  V30 1959 H 179.403 -0.847127 1.86239 0
M  V30 1960 H 179.413 -3.20076 2.53013 0
M  V30 1961 H 178.088 -2.42291 3.38035 0
M  V30 1962 H 176.665 -3.2851 1.76452 0
M  V30 1963 N 178.85 -1.27639 -0.924453 0
M  V30 1964 C 180.098 -1.13941 -1.66918 0
M  V30 1965 C 180.419 0.314589 -1.92446 0
M  V30 1966 O 179.689 1.21964 -1.53303 0
M  V30 1967 H 178.269 -0.418678 -0.618642 0
M  V30 1968 H 180.931 -1.60213 -1.10985 0
M  V30 1969 H 180.027 -1.67094 -2.63602 0
M  V30 1970 N 180.328 1.1314 -1.09713 0
M  V30 1971 C 181.577 1.83838 -0.829851 0
M  V30 1972 C 181.89 1.84599 0.646728 0
M  V30 1973 O 183.096 2.51218 1.02965 0
M  V30 1974 C 181.552 3.30069 -1.43466 0
M  V30 1975 C 181.16 3.37688 -2.94399 0
M  V30 1976 C 182.904 4.05788 -1.24645 0
M  V30 1977 C 180.811 4.78209 -3.47952 0
M  V30 1978 H 179.741 0.68877 -0.306777 0
M  V30 1979 H 182.392 1.27448 -1.3202 0
M  V30 1980 H 180.774 3.8628 -0.871996 0
M  V30 1981 H 181.948 2.91456 -3.56918 0
M  V30 1982 H 180.263 2.75436 -3.12289 0
M  V30 1983 H 182.86 5.09535 -1.62107 0
M  V30 1984 H 183.203 4.15878 -0.187357 0
M  V30 1985 H 183.736 3.55915 -1.77678 0
M  V30 1986 H 180.475 4.73311 -4.53495 0
M  V30 1987 H 179.995 5.24924 -2.90198 0
M  V30 1988 H 181.674 5.47133 -3.45332 0
M  V30 1989 N 181.806 0.884767 1.30421 0
M  V30 1990 C 182.769 0.356277 2.26414 0
M  V30 1991 C 183.769 -0.501124 1.52792 0
M  V30 1992 O 184.959 -0.30831 1.7145 0
M  V30 1993 C 182.091 -0.492316 3.37326 0
M  V30 1994 H 183.284 1.20389 2.74675 0
M  V30 1995 H 180.837 0.661607 1.41607 0
M  V30 1996 H 181.572 -1.36052 2.94381 0
M  V30 1997 H 181.357 0.121832 3.91911 0
M  V30 1998 H 182.847 -0.853871 4.08777 0
M  V30 1999 N 183.284 -1.43765 0.645699 0
M  V30 2000 C 184.194 -2.34544 -0.0512957 0
M  V30 2001 C 185.21 -1.53455 -0.82022 0
M  V30 2002 O 186.386 -1.86133 -0.769176 0
M  V30 2003 C 183.451 -3.31636 -1.01087 0
M  V30 2004 C 182.512 -4.2863 -0.239712 0
M  V30 2005 C 181.745 -5.21084 -1.15358 0
M  V30 2006 O 181.968 -5.1779 -2.39269 0
M  V30 2007 O 180.902 -5.98593 -0.630038 0
M  V30 2008 H 184.728 -2.95624 0.695718 0
M  V30 2009 H 182.313 -1.43781 0.405882 0
M  V30 2010 H 184.195 -3.9136 -1.56254 0
M  V30 2011 H 182.87 -2.73069 -1.73824 0
M  V30 2012 H 181.777 -3.72408 0.355356 0
M  V30 2013 H 183.11 -4.90157 0.447936 0
M  V30 2014 N 184.763 -0.387143 -1.52771 0
M  V30 2015 C 186.01 0.195735 -2.01552 0
M  V30 2016 C 186.338 1.46995 -1.27369 0
M  V30 2017 O 185.593 1.92325 -0.361879 0
M  V30 2018 C 185.892 0.512209 -3.53711 0
M  V30 2019 C 185.558 -0.670202 -4.45891 0
M  V30 2020 C 184.22 -0.994586 -4.70809 0
M  V30 2021 C 186.572 -1.46134 -5.00294 0
M  V30 2022 C 183.9 -2.11169 -5.4738 0
M  V30 2023 C 186.252 -2.56903 -5.78086 0
M  V30 2024 C 184.916 -2.89852 -6.01284 0
M  V30 2025 H 184.186 0.0716246 -0.73753 0
M  V30 2026 H 186.833 -0.524046 -1.8419 0
M  V30 2027 H 185.138 1.31329 -3.69134 0
M  V30 2028 H 186.835 0.975804 -3.88946 0
M  V30 2029 H 183.425 -0.407366 -4.2666 0
M  V30 2030 H 187.609 -1.22397 -4.80971 0
M  V30 2031 H 182.865 -2.3707 -5.63567 0
M  V30 2032 H 187.039 -3.18608 -6.19243 0
M  V30 2033 H 184.666 -3.76533 -6.60399 0
M  V30 2034 N 186.241 1.57166 -0.116904 0
M  V30 2035 C 187.487 1.96206 0.536166 0
M  V30 2036 C 187.842 0.99915 1.64422 0
M  V30 2037 O 187.135 0.0288195 1.91578 0
M  V30 2038 C 187.329 3.39508 1.11664 0
M  V30 2039 C 187.158 4.49651 0.0663474 0
M  V30 2040 C 185.928 5.03982 -0.36474 0
M  V30 2041 C 188.126 5.09322 -0.713829 0
M  V30 2042 N 186.108 5.97699 -1.40102 0
M  V30 2043 C 187.479 5.98963 -1.60136 0
M  V30 2044 C 189.534 4.91989 -0.764948 0
M  V30 2045 C 188.237 6.73128 -2.53556 0
M  V30 2046 C 190.263 5.66833 -1.68685 0
M  V30 2047 C 189.625 6.56158 -2.56196 0
M  V30 2048 H 185.724 0.764203 0.165886 0
M  V30 2049 H 188.308 1.93623 -0.204535 0
M  V30 2050 H 186.479 3.42743 1.82707 0
M  V30 2051 H 188.211 3.65677 1.73386 0
M  V30 2052 H 184.966 4.73592 0.027252 0
M  V30 2053 H 185.39 6.49262 -1.91802 0
M  V30 2054 H 190.032 4.22676 -0.102501 0
M  V30 2055 H 187.75 7.41689 -3.20816 0
M  V30 2056 H 191.336 5.55427 -1.73181 0
M  V30 2057 H 190.216 7.13057 -3.26372 0
M  V30 2058 N 187.719 -0.156864 1.56817 0
M  V30 2059 C 188.968 -0.869504 1.81996 0
M  V30 2060 C 189.281 -1.82777 0.696545 0
M  V30 2061 O 190.487 -2.58384 0.833658 0
M  V30 2062 C 188.943 -1.59679 3.22538 0
M  V30 2063 C 188.551 -0.681431 4.42787 0
M  V30 2064 C 190.295 -2.2968 3.56997 0
M  V30 2065 C 188.202 -1.40978 5.74351 0
M  V30 2066 H 187.132 -0.328438 0.678708 0
M  V30 2067 H 189.783 -0.1223 1.83092 0
M  V30 2068 H 188.165 -2.38927 3.158 0
M  V30 2069 H 189.339 0.0751166 4.60739 0
M  V30 2070 H 187.654 -0.0903431 4.16302 0
M  V30 2071 H 190.251 -2.84794 4.52544 0
M  V30 2072 H 190.594 -3.05707 2.82576 0
M  V30 2073 H 191.127 -1.57361 3.65352 0
M  V30 2074 H 187.866 -0.691561 6.51842 0
M  V30 2075 H 187.386 -2.13929 5.60352 0
M  V30 2076 H 189.065 -1.95337 6.16808 0
M  V30 2077 N 189.197 -1.51736 -0.425897 0
M  V30 2078 C 190.145 -1.74464 -1.53834 0
M  V30 2079 C 191.139 -0.611241 -1.57988 0
M  V30 2080 O 192.345 -0.792899 -1.61596 0
M  V30 2081 H 188.72 -0.551437 -0.511293 0
M  V30 2082 H 190.691 -2.67694 -1.31843 0
M  V30 2083 C 189.44 -1.8972 -2.91379 0
M  V30 2084 H 188.763 -2.76344 -2.88919 0
M  V30 2085 H 190.203 -2.09629 -3.68553 0
M  V30 2086 C 188.662 -0.65992 -3.30374 0
M  V30 2087 O 189.192 0.180083 -4.01296 0
M  V30 2088 N 187.398 -0.500677 -2.86254 0
M  V30 2089 H 186.945 -1.18532 -2.28709 0
M  V30 2090 H 186.903 0.325903 -3.12706 0
M  V30 2091 N 190.675 0.682077 -1.42076 0
M  V30 2092 C 191.923 1.4393 -1.41876 0
M  V30 2093 C 192.244 1.94971 -0.0335599 0
M  V30 2094 O 191.514 1.72591 0.926773 0
M  V30 2095 H 190.094 0.534085 -0.522267 0
M  V30 2096 H 192.756 0.806427 -1.77434 0
M  V30 2097 H 191.852 2.29588 -2.11414 0
M  V30 2098 N 192.153 1.28127 0.917671 0
M  V30 2099 C 193.381 1.17892 1.70026 0
M  V30 2100 C 193.796 -0.262958 1.8696 0
M  V30 2101 O 193.153 -1.17811 1.3938 0
M  V30 2102 C 193.204 1.86872 3.09453 0
M  V30 2103 O 192.925 3.25428 2.93306 0
M  V30 2104 C 194.426 1.8289 4.03815 0
M  V30 2105 H 191.646 0.40942 0.531617 0
M  V30 2106 H 194.19 1.69181 1.14883 0
M  V30 2107 H 192.345 1.39464 3.61426 0
M  V30 2108 H 192.759 3.59918 3.81523 0
M  V30 2109 H 194.233 2.35751 4.99125 0
M  V30 2110 H 194.71 0.800412 4.31845 0
M  V30 2111 H 195.316 2.29959 3.57769 0
M  V30 2112 N 193.631 -1.12557 1.10312 0
M  V30 2113 C 195.042 -1.65574 0.862678 0
M  V30 2114 C 195.393 -1.86566 -0.607256 0
M  V30 2115 O 194.518 -1.59121 -1.46662 0
M  V30 2116 C 195.113 -3.00776 1.55947 0
M  V30 2117 C 193.672 -3.50748 1.36576 0
M  V30 2118 C 192.819 -2.25797 1.60968 0
M  V30 2119 H 195.77 -0.963552 1.26101 0
M  V30 2120 H 195.791 -3.67185 0.997753 0
M  V30 2121 H 195.303 -2.85465 2.62928 0
M  V30 2122 H 193.404 -3.71245 0.317531 0
M  V30 2123 H 193.517 -4.30289 2.10686 0
M  V30 2124 H 191.881 -2.32841 1.03234 0
M  V30 2125 H 192.664 -2.13043 2.69198 0
M  V30 2126 N 195.109 -0.891671 -1.2995 0
M  V30 2127 C 196.039 -0.379797 -2.30391 0
M  V30 2128 C 197.02 0.540919 -1.6127 0
M  V30 2129 O 198.205 0.453352 -1.88834 0
M  V30 2130 C 195.335 0.400654 -3.44981 0
M  V30 2131 C 194.289 -0.428905 -4.25846 0
M  V30 2132 C 193.615 0.478557 -5.32554 0
M  V30 2133 C 194.915 -1.67458 -4.94727 0
M  V30 2134 H 196.609 -1.21914 -2.73454 0
M  V30 2135 H 194.155 -0.587675 -1.31462 0
M  V30 2136 H 196.108 0.769434 -4.14316 0
M  V30 2137 H 194.832 1.27371 -3.0074 0
M  V30 2138 H 193.491 -0.779911 -3.58208 0
M  V30 2139 H 193.139 1.34951 -4.84559 0
M  V30 2140 H 192.839 -0.0727433 -5.87555 0
M  V30 2141 H 194.363 0.843705 -6.04743 0
M  V30 2142 H 195.777 -1.376 -5.56542 0
M  V30 2143 H 194.174 -2.16659 -5.59624 0
M  V30 2144 H 195.244 -2.41518 -4.20473 0
M  V30 2145 N 196.587 1.43421 -0.653314 0
M  V30 2146 C 197.833 2.02111 -0.166992 0
M  V30 2147 C 198.166 1.51423 1.21592 0
M  V30 2148 O 197.441 0.707389 1.8118 0
M  V30 2149 C 197.724 3.5966 -0.177948 0
M  V30 2150 C 197.577 4.20579 -1.59478 0
M  V30 2151 C 198.896 4.37413 0.4856 0
M  V30 2152 H 196.015 0.734374 -0.0621557 0
M  V30 2153 H 198.657 1.70717 -0.834016 0
M  V30 2154 H 196.807 3.86537 0.390032 0
M  V30 2155 H 198.479 4.04732 -2.21336 0
M  V30 2156 H 196.722 3.77226 -2.14204 0
M  V30 2157 H 197.393 5.29665 -1.5543 0
M  V30 2158 H 199.869 4.161 0.00234528 0
M  V30 2159 H 198.745 5.47075 0.447207 0
M  V30 2160 H 199.006 4.13672 1.55974 0
M  V30 2161 N 198.065 0.39524 1.52563 0
M  V30 2162 C 199.012 -0.437036 2.26624 0
M  V30 2163 C 199.982 -1.05281 1.28472 0
M  V30 2164 O 201.167 -1.07971 1.57311 0
M  V30 2165 C 198.307 -1.55524 3.08069 0
M  V30 2166 C 197.42 -0.961745 4.21158 0
M  V30 2167 C 196.555 -2.05149 4.89987 0
M  V30 2168 C 195.594 -1.4342 5.95061 0
M  V30 2169 N 194.731 -2.46351 6.57462 0
M  V30 2170 H 199.571 0.200976 2.97322 0
M  V30 2171 H 197.108 0.110944 1.46681 0
M  V30 2172 H 199.066 -2.21437 3.53584 0
M  V30 2173 H 197.696 -2.16348 2.3957 0
M  V30 2174 H 196.748 -0.192048 3.79915 0
M  V30 2175 H 198.06 -0.470701 4.96574 0
M  V30 2176 H 197.214 -2.78819 5.38837 0
M  V30 2177 H 195.953 -2.57615 4.14109 0
M  V30 2178 H 194.958 -0.682774 5.45544 0
M  V30 2179 H 196.183 -0.917416 6.72875 0
M  V30 2180 H 194.129 -2.97975 5.8442 0
M  V30 2181 H 194.046 -2.02019 7.28508 0
M  V30 2182 H 195.314 -3.19633 7.10954 0
M  V30 2183 N 199.544 -1.57102 0.125237 0
M  V30 2184 C 200.491 -2.15641 -0.822655 0
M  V30 2185 C 201.461 -1.08313 -1.25927 0
M  V30 2186 O 202.646 -1.36251 -1.33567 0
M  V30 2187 C 199.786 -2.76504 -2.06494 0
M  V30 2188 C 198.899 -3.98158 -1.67612 0
M  V30 2189 C 198.034 -4.47088 -2.86854 0
M  V30 2190 C 197.073 -5.6126 -2.44242 0
M  V30 2191 N 196.21 -6.04905 -3.56419 0
M  V30 2192 H 201.05 -2.96313 -0.316625 0
M  V30 2193 H 198.587 -1.46388 -0.144588 0
M  V30 2194 H 200.545 -3.09925 -2.79289 0
M  V30 2195 H 199.175 -1.98512 -2.54545 0
M  V30 2196 H 198.227 -3.70858 -0.846661 0
M  V30 2197 H 199.539 -4.80934 -1.32301 0
M  V30 2198 H 198.693 -4.82451 -3.67867 0
M  V30 2199 H 197.432 -3.63275 -3.25396 0
M  V30 2200 H 196.437 -5.25495 -1.61663 0
M  V30 2201 H 197.662 -6.46843 -2.0681 0
M  V30 2202 H 195.608 -5.24032 -3.94623 0
M  V30 2203 H 195.525 -6.82552 -3.25051 0
M  V30 2204 H 196.793 -6.44907 -4.37853 0
M  V30 2205 N 201.022 0.148545 -1.56898 0
M  V30 2206 C 202.27 0.859717 -1.82902 0
M  V30 2207 C 202.591 1.81775 -0.70588 0
M  V30 2208 O 201.861 1.93994 0.272586 0
M  V30 2209 H 200.441 0.320469 -0.674766 0
M  V30 2210 H 203.103 0.142918 -1.94375 0
M  V30 2211 H 202.199 1.4229 -2.77777 0
M  V30 2212 N 202.5 1.5196 0.417844 0
M  V30 2213 C 203.43 1.77634 1.51554 0
M  V30 2214 C 204.411 0.626918 1.58126 0
M  V30 2215 O 205.596 0.871632 1.7354 0
M  V30 2216 C 202.726 1.91911 2.8946 0
M  V30 2217 C 201.68 3.07463 2.97743 0
M  V30 2218 C 201.006 3.06951 4.37819 0
M  V30 2219 C 202.306 4.47082 2.70027 0
M  V30 2220 H 204 2.6955 1.3032 0
M  V30 2221 H 201.546 1.29706 0.625492 0
M  V30 2222 H 203.499 2.08455 3.6623 0
M  V30 2223 H 202.223 0.966598 3.11969 0
M  V30 2224 H 200.882 2.90656 2.23416 0
M  V30 2225 H 200.53 2.09438 4.57323 0
M  V30 2226 H 200.23 3.84556 4.44286 0
M  V30 2227 H 201.754 3.25613 5.16535 0
M  V30 2228 H 203.168 4.6414 3.36522 0
M  V30 2229 H 201.565 5.2654 2.87881 0
M  V30 2230 H 202.635 4.55777 1.65514 0
M  V30 2231 N 203.978 -0.674533 1.42435 0
M  V30 2232 C 205.394 -0.98769 1.25367 0
M  V30 2233 C 205.594 -2.00879 0.158044 0
M  V30 2234 O 204.65 -2.48075 -0.470633 0
M  V30 2235 C 205.963 -1.49224 2.6106 0
M  V30 2236 C 207.511 -1.61 2.68417 0
M  V30 2237 C 207.986 -2.14852 4.04478 0
M  V30 2238 N 209.477 -2.22185 4.06434 0
M  V30 2239 C 210.212 -2.64928 5.08528 0
M  V30 2240 N 209.708 -3.07121 6.21006 0
M  V30 2241 N 211.501 -2.64679 4.95885 0
M  V30 2242 H 203.652 0.00152503 2.124 0
M  V30 2243 H 205.915 -0.0618434 0.945981 0
M  V30 2244 H 205.621 -0.816453 3.42092 0
M  V30 2245 H 205.495 -2.47094 2.84999 0
M  V30 2246 H 207.882 -2.27686 1.87732 0
M  V30 2247 H 207.963 -0.616195 2.48267 0
M  V30 2248 H 207.607 -1.48775 4.85622 0
M  V30 2249 H 207.537 -3.15024 4.2198 0
M  V30 2250 H 210.028 -1.92435 3.25234 0
M  V30 2251 H 210.341 -3.38423 6.94759 0
M  V30 2252 H 208.686 -3.04978 6.24511 0
M  V30 2253 H 211.877 -2.31078 4.07088 0
M  V30 2254 H 212.05 -2.9767 5.75584 0
M  V30 2255 N 205.456 -1.28612 -0.910864 0
M  V30 2256 C 206.388 -1.08589 -2.01844 0
M  V30 2257 C 207.401 -0.0367419 -1.62759 0
M  V30 2258 O 208.59 -0.280101 -1.76289 0
M  V30 2259 C 205.69 -0.628626 -3.33019 0
M  V30 2260 C 204.863 -1.75382 -4.00699 0
M  V30 2261 C 203.922 -1.28945 -5.10156 0
M  V30 2262 O 202.948 -1.9922 -5.33198 0
M  V30 2263 N 204.15 -0.154224 -5.80295 0
M  V30 2264 H 206.915 -2.03973 -2.19579 0
M  V30 2265 H 204.476 -1.20403 -1.08234 0
M  V30 2266 H 206.468 -0.301508 -4.03575 0
M  V30 2267 H 205.038 0.232451 -3.11735 0
M  V30 2268 H 204.258 -2.25039 -3.23653 0
M  V30 2269 H 205.546 -2.50854 -4.42662 0
M  V30 2270 H 204.944 0.43194 -5.64049 0
M  V30 2271 H 203.501 0.113599 -6.51701 0
M  V30 2272 N 206.934 1.1197 -1.10907 0
M  V30 2273 C 208.182 1.83225 -0.852819 0
M  V30 2274 C 208.503 1.84769 0.623341 0
M  V30 2275 O 207.773 1.3143 1.45269 0
M  V30 2276 H 206.353 0.67849 -0.312507 0
M  V30 2277 H 209.015 1.3556 -1.40033 0
M  V30 2278 H 208.111 2.87265 -1.22005 0
M  V30 2279 N 208.412 0.89855 1.29475 0
M  V30 2280 C 209.642 0.538479 1.99459 0
M  V30 2281 C 210.05 -0.880922 1.67441 0
M  V30 2282 O 209.393 -1.59283 0.915127 0
M  V30 2283 C 209.455 0.649564 3.53583 0
M  V30 2284 C 209.119 2.03573 4.09154 0
M  V30 2285 C 210.116 3.00675 4.24135 0
M  V30 2286 C 207.801 2.3448 4.44212 0
M  V30 2287 C 209.795 4.26809 4.73405 0
M  V30 2288 C 207.482 3.60857 4.93179 0
M  V30 2289 C 208.48 4.56836 5.0773 0
M  V30 2290 O 208.168 5.80969 5.55635 0
M  V30 2291 H 207.9 0.205372 0.644048 0
M  V30 2292 H 210.454 1.20958 1.66007 0
M  V30 2293 H 208.684 -0.0785592 3.8662 0
M  V30 2294 H 210.373 0.29881 4.04799 0
M  V30 2295 H 211.139 2.78112 3.97339 0
M  V30 2296 H 207.018 1.60534 4.32145 0
M  V30 2297 H 210.562 5.0173 4.84678 0
M  V30 2298 H 206.459 3.83251 5.19412 0
M  V30 2299 H 207.227 5.83542 5.73952 0
M  V30 2300 N 209.89 -1.43072 0.660911 0
M  V30 2301 C 211.137 -2.01721 0.177445 0
M  V30 2302 C 211.465 -1.5218 -1.21126 0
M  V30 2303 O 210.72 -0.708659 -1.82419 0
M  V30 2304 C 211.019 -3.57103 0.145563 0
M  V30 2305 C 210.685 -4.26021 1.47705 0
M  V30 2306 C 209.347 -4.44563 1.84165 0
M  V30 2307 C 211.699 -4.64983 2.35458 0
M  V30 2308 C 209.027 -4.99334 3.0803 0
M  V30 2309 C 211.379 -5.21127 3.58622 0
M  V30 2310 C 210.043 -5.37884 3.95268 0
M  V30 2311 H 209.313 -0.73815 0.0649317 0
M  V30 2312 H 211.96 -1.71446 0.853144 0
M  V30 2313 H 210.265 -3.86965 -0.61361 0
M  V30 2314 H 211.962 -4.00248 -0.2455 0
M  V30 2315 H 208.552 -4.11939 1.18339 0
M  V30 2316 H 212.736 -4.50343 2.08579 0
M  V30 2317 H 207.992 -5.10493 3.36462 0
M  V30 2318 H 212.166 -5.50262 4.26831 0
M  V30 2319 H 209.793 -5.80089 4.91325 0
M  V30 2320 N 211.368 -0.403325 -1.52352 0
M  V30 2321 C 212.614 0.174605 -2.02047 0
M  V30 2322 C 212.947 1.45282 -1.28867 0
M  V30 2323 O 212.222 1.90483 -0.393257 0
M  V30 2324 C 212.505 0.428238 -3.57545 0
M  V30 2325 C 212.358 -0.866248 -4.4138 0
M  V30 2326 C 213.677 1.21287 -4.23057 0
M  V30 2327 H 210.796 0.0619851 -0.734389 0
M  V30 2328 H 213.438 -0.53565 -1.82293 0
M  V30 2329 H 211.588 1.03327 -3.74507 0
M  V30 2330 H 213.26 -1.50265 -4.3614 0
M  V30 2331 H 211.503 -1.47851 -4.07827 0
M  V30 2332 H 212.174 -0.643249 -5.48239 0
M  V30 2333 H 214.65 0.700703 -4.10158 0
M  V30 2334 H 213.526 1.35909 -5.31808 0
M  V30 2335 H 213.787 2.23193 -3.81625 0
M  V30 2336 N 212.846 1.57033 -0.133567 0
M  V30 2337 C 213.756 2.19632 0.824564 0
M  V30 2338 C 214.772 1.17666 1.28182 0
M  V30 2339 O 215.948 1.50193 1.3418 0
M  V30 2340 C 213.013 2.79499 2.05137 0
M  V30 2341 C 212.074 3.96548 1.64464 0
M  V30 2342 C 211.307 4.5355 2.81297 0
M  V30 2343 O 211.53 4.09438 3.97136 0
M  V30 2344 O 210.464 5.44018 2.57542 0
M  V30 2345 H 214.29 3.01991 0.321766 0
M  V30 2346 H 211.875 1.49112 0.0927889 0
M  V30 2347 H 213.757 3.17602 2.7696 0
M  V30 2348 H 212.432 2.00162 2.54395 0
M  V30 2349 H 211.339 3.63186 0.897048 0
M  V30 2350 H 212.672 4.77364 1.19934 0
M  V30 2351 N 214.325 -0.140222 1.56975 0
M  V30 2352 C 215.288 -1.15689 1.97861 0
M  V30 2353 C 216.288 -1.3549 0.865974 0
M  V30 2354 O 217.478 -1.32367 1.13246 0
M  V30 2355 C 214.61 -2.51582 2.30042 0
M  V30 2356 H 215.803 -0.805971 2.88867 0
M  V30 2357 H 213.356 -0.383801 1.51515 0
M  V30 2358 H 214.091 -2.91632 1.41849 0
M  V30 2359 H 213.876 -2.38569 3.11171 0
M  V30 2360 H 215.366 -3.24792 2.62488 0
M  V30 2361 N 215.803 -1.52179 -0.40978 0
M  V30 2362 C 216.735 -1.71703 -1.51825 0
M  V30 2363 C 217.748 -0.597445 -1.51441 0
M  V30 2364 O 218.937 -0.872582 -1.55719 0
M  V30 2365 C 216.037 -1.74171 -2.90719 0
M  V30 2366 C 215.21 -3.03156 -3.15302 0
M  V30 2367 C 214.269 -2.97445 -4.34065 0
M  V30 2368 O 213.295 -3.71352 -4.31377 0
M  V30 2369 N 214.497 -2.15191 -5.39141 0
M  V30 2370 H 217.262 -2.67334 -1.35472 0
M  V30 2371 H 214.823 -1.50409 -0.599069 0
M  V30 2372 H 216.815 -1.67884 -3.68235 0
M  V30 2373 H 215.385 -0.860166 -3.00533 0
M  V30 2374 H 214.605 -3.23097 -2.25836 0
M  V30 2375 H 215.893 -3.88484 -3.28569 0
M  V30 2376 H 215.291 -1.54573 -5.44173 0
M  V30 2377 H 213.848 -2.1476 -6.15403 0
M  V30 2378 N 217.281 0.66697 -1.42791 0
M  V30 2379 C 218.692 1.2478 -1.38877 0
M  V30 2380 C 219.043 1.96012 -0.0859426 0
M  V30 2381 O 218.168 2.00463 0.815081 0
M  V30 2382 C 218.763 2.26938 -2.51564 0
M  V30 2383 C 217.322 2.80529 -2.50959 0
M  V30 2384 C 216.469 1.54965 -2.29959 0
M  V30 2385 H 219.42 0.459853 -1.51892 0
M  V30 2386 H 219.441 3.08834 -2.22265 0
M  V30 2387 H 218.953 1.75065 -3.46372 0
M  V30 2388 H 217.054 3.36502 -1.59991 0
M  V30 2389 H 217.167 3.29012 -3.48265 0
M  V30 2390 H 215.531 1.81817 -1.78366 0
M  V30 2391 H 216.314 1.05047 -3.26833 0
M  V30 2392 N 218.759 1.29093 0.90403 0
M  V30 2393 C 219.706 1.13853 2.00764 0
M  V30 2394 C 220.676 0.0330084 1.66067 0
M  V30 2395 O 221.861 0.199733 1.89752 0
M  V30 2396 C 219.001 0.816537 3.35301 0
M  V30 2397 C 218.114 2.00206 3.82807 0
M  V30 2398 C 217.249 1.61983 5.059 0
M  V30 2399 C 216.288 2.77143 5.45764 0
M  V30 2400 N 215.425 2.39346 6.60044 0
M  V30 2401 H 220.265 2.08276 2.13132 0
M  V30 2402 H 217.802 1.03648 1.04381 0
M  V30 2403 H 219.76 0.610557 4.12708 0
M  V30 2404 H 218.39 -0.090779 3.22672 0
M  V30 2405 H 217.442 2.31988 3.01473 0
M  V30 2406 H 218.754 2.86512 4.08304 0
M  V30 2407 H 217.908 1.37649 5.90879 0
M  V30 2408 H 216.647 0.728202 4.82233 0
M  V30 2409 H 215.652 3.02165 4.59322 0
M  V30 2410 H 216.877 3.66964 5.71414 0
M  V30 2411 H 214.823 1.52665 6.37989 0
M  V30 2412 H 214.74 3.19185 6.85315 0
M  V30 2413 H 216.008 2.1832 7.48303 0
M  V30 2414 N 220.237 -1.11381 1.11499 0
M  V30 2415 C 221.486 -1.82494 0.858993 0
M  V30 2416 C 221.799 -1.85605 -0.617278 0
M  V30 2417 O 223.005 -2.52824 -0.989552 0
M  V30 2418 C 221.461 -3.27745 1.48699 0
M  V30 2419 C 221.069 -3.32961 2.99735 0
M  V30 2420 C 222.813 -4.03754 1.31085 0
M  V30 2421 C 220.72 -4.72612 3.55516 0
M  V30 2422 H 219.65 -0.683802 0.317696 0
M  V30 2423 H 222.301 -1.25331 1.34031 0
M  V30 2424 H 220.683 -3.84844 0.933339 0
M  V30 2425 H 221.857 -2.85741 3.61509 0
M  V30 2426 H 220.172 -2.70433 3.16631 0
M  V30 2427 H 222.769 -5.06891 1.70192 0
M  V30 2428 H 223.112 -4.15527 0.253496 0
M  V30 2429 H 223.645 -3.53043 1.83318 0
M  V30 2430 H 220.384 -4.66036 4.60967 0
M  V30 2431 H 219.904 -5.2024 2.98513 0
M  V30 2432 H 221.583 -5.4157 3.53992 0
M  V30 2433 N 221.715 -0.905404 -1.28997 0
M  V30 2434 C 222.961 -0.535039 -1.95615 0
M  V30 2435 C 223.294 0.917404 -1.71165 0
M  V30 2436 O 222.569 1.65123 -1.02785 0
M  V30 2437 C 222.852 -0.834918 -3.50287 0
M  V30 2438 C 222.705 -2.33948 -3.84172 0
M  V30 2439 C 224.024 -0.325318 -4.38896 0
M  V30 2440 H 221.143 -0.195861 -0.710498 0
M  V30 2441 H 223.785 -1.13313 -1.52513 0
M  V30 2442 H 221.935 -0.325904 -3.87131 0
M  V30 2443 H 223.607 -2.91847 -3.57243 0
M  V30 2444 H 221.85 -2.79789 -3.31513 0
M  V30 2445 H 222.521 -2.49987 -4.92149 0
M  V30 2446 H 224.997 -0.761256 -4.09077 0
M  V30 2447 H 223.873 -0.564295 -5.45992 0
M  V30 2448 H 224.134 0.774144 -4.35269 0
M  V30 2449 N 223.193 1.4272 -0.668489 0
M  V30 2450 C 224.123 2.335 -0.000100175 0
M  V30 2451 C 225.104 1.50328 0.795964 0
M  V30 2452 O 226.289 1.78949 0.754385 0
M  V30 2453 C 223.419 3.33874 0.956302 0
M  V30 2454 C 222.373 4.27152 0.269278 0
M  V30 2455 C 221.699 5.17684 1.33818 0
M  V30 2456 C 222.999 5.15373 -0.847805 0
M  V30 2457 H 224.693 2.89639 -0.758244 0
M  V30 2458 H 222.239 1.39269 -0.366079 0
M  V30 2459 H 224.192 3.9629 1.43292 0
M  V30 2460 H 222.916 2.76025 1.74579 0
M  V30 2461 H 221.575 3.66123 -0.187042 0
M  V30 2462 H 221.223 4.56165 2.1195 0
M  V30 2463 H 220.923 5.80918 0.883659 0
M  V30 2464 H 222.447 5.82974 1.81586 0
M  V30 2465 H 223.861 5.7151 -0.452681 0
M  V30 2466 H 222.258 5.87407 -1.22773 0
M  V30 2467 H 223.328 4.5415 -1.69929 0
M  V30 2468 N 224.671 0.411399 1.52136 0
M  V30 2469 C 225.919 -0.163322 2.01439 0
M  V30 2470 C 226.24 -1.45453 1.29879 0
M  V30 2471 O 225.51 -1.91225 0.4254 0
M  V30 2472 H 224.09 -0.0633447 0.744309 0
M  V30 2473 H 226.752 0.548161 1.87033 0
M  V30 2474 H 225.848 -0.357817 3.10042 0
M  V30 2475 N 226.149 -1.5696 0.141893 0
M  V30 2476 C 227.081 -2.13619 -0.830627 0
M  V30 2477 C 228.094 -1.08439 -1.21428 0
M  V30 2478 O 229.283 -1.35734 -1.15925 0
M  V30 2479 C 226.383 -2.63978 -2.12529 0
M  V30 2480 C 225.556 -3.93504 -1.9098 0
M  V30 2481 C 224.615 -4.29225 -3.04388 0
M  V30 2482 O 223.641 -4.97641 -2.76302 0
M  V30 2483 N 224.843 -3.88393 -4.31429 0
M  V30 2484 H 227.608 -2.97691 -0.34641 0
M  V30 2485 H 225.169 -1.61846 -0.0418375 0
M  V30 2486 H 227.161 -2.84891 -2.87436 0
M  V30 2487 H 225.731 -1.84659 -2.52229 0
M  V30 2488 H 224.951 -3.81269 -1.00139 0
M  V30 2489 H 226.239 -4.78154 -1.73914 0
M  V30 2490 H 225.637 -3.33257 -4.57117 0
M  V30 2491 H 224.194 -4.14368 -5.03133 0
M  V30 2492 N 227.627 0.131896 -1.57047 0
M  V30 2493 C 228.537 1.1815 -2.02676 0
M  V30 2494 C 229.553 1.46113 -0.944824 0
M  V30 2495 O 230.729 1.57485 -1.25541 0
M  V30 2496 C 227.794 2.49139 -2.41103 0
M  V30 2497 C 226.855 2.28688 -3.63318 0
M  V30 2498 C 226.088 3.53431 -3.99903 0
M  V30 2499 O 226.311 4.60223 -3.36973 0
M  V30 2500 O 225.245 3.45198 -4.93074 0
M  V30 2501 H 229.071 0.824069 -2.92306 0
M  V30 2502 H 226.656 0.341745 -1.45439 0
M  V30 2503 H 228.538 3.26338 -2.66611 0
M  V30 2504 H 227.213 2.84382 -1.54624 0
M  V30 2505 H 226.12 1.4939 -3.42977 0
M  V30 2506 H 227.453 1.98355 -4.50462 0
M  V30 2507 N 229.106 1.52395 0.401703 0
M  V30 2508 C 230.038 1.72505 1.50912 0
M  V30 2509 C 231.051 0.605468 1.51122 0
M  V30 2510 O 232.24 0.880828 1.55254 0
M  V30 2511 C 229.34 1.75711 2.89791 0
M  V30 2512 C 228.513 3.04824 3.1369 0
M  V30 2513 C 227.572 2.99743 4.32482 0
M  V30 2514 O 226.598 3.73635 4.29402 0
M  V30 2515 N 227.8 2.18047 5.37992 0
M  V30 2516 H 230.565 2.68049 1.34052 0
M  V30 2517 H 228.126 1.50724 0.591084 0
M  V30 2518 H 230.118 1.69834 3.6734 0
M  V30 2519 H 228.688 0.876092 3.00072 0
M  V30 2520 H 227.908 3.2429 2.24119 0
M  V30 2521 H 229.196 3.90221 3.26504 0
M  V30 2522 H 228.594 1.57456 5.43345 0
M  V30 2523 H 227.151 2.18021 6.14256 0
M  V30 2524 N 230.584 -0.659388 1.43143 0
M  V30 2525 C 231.861 -1.41627 1.34912 0
M  V30 2526 C 232.241 -2.11099 -0.00607785 0
M  V30 2527 O 231.589 -2.04353 -1.02236 0
M  V30 2528 C 231.799 -2.40604 2.52805 0
M  V30 2529 C 233.147 -3.04789 2.95616 0
M  V30 2530 O 234.171 -2.50932 2.52807 0
M  V30 2531 O 233.03 -4.02421 3.69756 0
M  V30 2532 H 230.124 -0.63246 0.532844 0
M  V30 2533 H 232.67 -0.686814 1.5518 0
M  V30 2534 H 231.442 -1.88174 3.43083 0
M  V30 2535 H 231.065 -3.21009 2.34604 0
M  V30 2536 N 232.062 -1.29571 -0.897171 0
M  V30 2537 C 233.287 -1.20705 -1.68656 0
M  V30 2538 C 233.712 0.228582 -1.86706 0
M  V30 2539 O 233.07 1.16494 -1.3892 0
M  V30 2540 C 233.118 -1.9282 -3.04717 0
M  V30 2541 O 232.222 -1.24697 -3.93096 0
M  V30 2542 H 231.563 -0.418126 -0.515816 0
M  V30 2543 H 234.093 -1.71183 -1.12061 0
M  V30 2544 H 234.103 -2.01372 -3.54843 0
M  V30 2545 H 232.778 -2.97239 -2.90899 0
M  V30 2546 H 231.355 -1.2442 -3.51531 0
M  V30 2547 N 233.54 1.10788 -1.12088 0
M  V30 2548 C 234.77 1.86191 -0.895351 0
M  V30 2549 C 235.178 1.80763 0.558702 0
M  V30 2550 O 234.521 1.19188 1.39785 0
M  V30 2551 C 234.583 3.35659 -1.28737 0
M  V30 2552 C 234.247 3.64849 -2.75198 0
M  V30 2553 C 235.244 3.61757 -3.734 0
M  V30 2554 C 232.929 3.93641 -3.12013 0
M  V30 2555 C 234.923 3.87045 -5.06434 0
M  V30 2556 C 232.61 4.18585 -4.4523 0
M  V30 2557 C 233.608 4.15277 -5.42249 0
M  V30 2558 O 233.296 4.3959 -6.73065 0
M  V30 2559 H 233.028 0.595425 -0.32007 0
M  V30 2560 H 235.582 1.40992 -1.49367 0
M  V30 2561 H 233.812 3.81497 -0.63224 0
M  V30 2562 H 235.501 3.92441 -1.03656 0
M  V30 2563 H 236.267 3.39557 -3.46303 0
M  V30 2564 H 232.146 3.95348 -2.37109 0
M  V30 2565 H 235.69 3.84378 -5.82151 0
M  V30 2566 H 231.587 4.40264 -4.72057 0
M  V30 2567 H 232.355 4.57123 -6.78956 0
M  V30 2568 N 235.018 0.912232 1.28515 0
M  V30 2569 C 236.266 0.543523 1.94654 0
M  V30 2570 C 236.587 -0.9155 1.72173 0
M  V30 2571 O 235.857 -1.64708 1.06058 0
M  V30 2572 H 234.437 0.198017 0.720277 0
M  V30 2573 H 237.099 1.16126 1.56527 0
M  V30 2574 H 236.195 0.736684 3.03281 0
M  V30 2575 N 236.496 -1.42363 0.676048 0
M  V30 2576 C 237.744 -2.01123 0.198437 0
M  V30 2577 C 238.065 -1.53731 -1.19966 0
M  V30 2578 O 237.335 -0.759518 -1.80577 0
M  V30 2579 H 235.915 -0.743678 0.0703721 0
M  V30 2580 H 238.577 -1.74263 0.872837 0
M  V30 2581 H 237.673 -3.11454 0.200686 0
M  V30 2582 N 237.974 -0.419461 -1.51915 0
M  V30 2583 C 238.921 0.400927 -2.27291 0
M  V30 2584 C 239.891 1.03224 -1.30131 0
M  V30 2585 O 241.076 1.05455 -1.59009 0
M  V30 2586 C 238.216 1.50603 -3.10504 0
M  V30 2587 C 237.329 0.89462 -4.22635 0
M  V30 2588 C 236.464 1.97328 -4.93189 0
M  V30 2589 C 235.503 1.33935 -5.97267 0
M  V30 2590 N 234.64 2.3586 -6.61298 0
M  V30 2591 H 239.48 -0.248251 -2.96964 0
M  V30 2592 H 237.017 -0.134266 -1.46486 0
M  V30 2593 H 238.975 2.15783 -3.57062 0
M  V30 2594 H 237.605 2.12509 -2.42981 0
M  V30 2595 H 236.657 0.131583 -3.80172 0
M  V30 2596 H 237.969 0.391641 -4.9726 0
M  V30 2597 H 237.123 2.70211 -5.43204 0
M  V30 2598 H 235.862 2.50994 -4.18155 0
M  V30 2599 H 234.867 0.595896 -5.46561 0
M  V30 2600 H 236.092 0.810252 -6.74249 0
M  V30 2601 H 234.038 2.88639 -5.89087 0
M  V30 2602 H 233.955 1.90403 -7.3163 0
M  V30 2603 H 235.223 3.08282 -7.15949 0
M  V30 2604 N 239.452 1.56882 -0.150215 0
M  V30 2605 C 240.699 1.96228 0.500093 0
M  V30 2606 C 241.027 1.03522 1.64661 0
M  V30 2607 O 240.282 0.0650683 1.95592 0
M  V30 2608 C 240.581 3.41801 1.04437 0
M  V30 2609 C 240.247 4.50897 0.0159671 0
M  V30 2610 C 238.909 4.8046 -0.266731 0
M  V30 2611 C 241.261 5.16703 -0.683192 0
M  V30 2612 C 238.589 5.73135 -1.25434 0
M  V30 2613 C 240.941 6.10441 -1.65964 0
M  V30 2614 C 239.605 6.38382 -1.95 0
M  V30 2615 H 238.875 0.718048 0.182997 0
M  V30 2616 H 241.522 1.90019 -0.237724 0
M  V30 2617 H 239.827 3.44857 1.85959 0
M  V30 2618 H 241.524 3.69573 1.55618 0
M  V30 2619 H 238.114 4.27891 0.246485 0
M  V30 2620 H 242.298 4.93993 -0.477983 0
M  V30 2621 H 237.554 5.93074 -1.48571 0
M  V30 2622 H 241.728 6.60507 -2.20689 0
M  V30 2623 H 239.355 7.09996 -2.71679 0
M  V30 2624 N 240.93 -0.123565 1.57115 0
M  V30 2625 C 242.207 -0.862196 1.75572 0
M  V30 2626 C 242.587 -1.98279 0.724475 0
M  V30 2627 O 241.935 -2.27102 -0.252407 0
M  V30 2628 C 242.145 -1.38309 3.20424 0
M  V30 2629 C 243.493 -1.83724 3.82793 0
M  V30 2630 O 244.517 -1.47999 3.23998 0
M  V30 2631 O 243.376 -2.49685 4.86127 0
M  V30 2632 H 240.47 -0.409113 0.718718 0
M  V30 2633 H 243.016 -0.107661 1.69358 0
M  V30 2634 H 241.788 -0.578889 3.86994 0
M  V30 2635 H 241.411 -2.20046 3.31158 0
M  V30 2636 N 242.408 -1.52605 -0.393616 0
M  V30 2637 C 243.824 -1.41753 -0.733357 0
M  V30 2638 C 244.024 -0.534293 -1.94287 0
M  V30 2639 O 243.08 -0.0059787 -2.52499 0
M  V30 2640 C 244.393 -2.84531 -0.972772 0
M  V30 2641 C 245.941 -2.93978 -1.07453 0
M  V30 2642 C 246.416 -4.37756 -1.3466 0
M  V30 2643 N 247.907 -4.4106 -1.41492 0
M  V30 2644 C 248.642 -5.49387 -1.642 0
M  V30 2645 N 248.138 -6.67806 -1.8441 0
M  V30 2646 N 249.931 -5.36923 -1.66342 0
M  V30 2647 H 242.082 -2.08555 0.402328 0
M  V30 2648 H 244.345 -0.940654 0.117789 0
M  V30 2649 H 244.051 -3.51353 -0.156204 0
M  V30 2650 H 243.925 -3.26508 -1.88871 0
M  V30 2651 H 246.312 -2.27326 -1.88167 0
M  V30 2652 H 246.393 -2.55435 -0.136605 0
M  V30 2653 H 246.037 -5.04972 -0.544581 0
M  V30 2654 H 245.967 -4.73848 -2.2973 0
M  V30 2655 H 248.458 -3.55705 -1.27601 0
M  V30 2656 H 248.771 -7.46141 -2.01231 0
M  V30 2657 H 247.116 -6.70843 -1.81644 0
M  V30 2658 H 250.307 -4.43381 -1.50102 0
M  V30 2659 H 250.48 -6.21416 -1.837 0
M  V30 2660 N 243.887 0.651787 -1.4349 0
M  V30 2661 C 245.112 1.44434 -1.48841 0
M  V30 2662 C 245.537 1.8779 -0.107955 0
M  V30 2663 O 244.895 1.57464 0.898602 0
M  V30 2664 C 244.943 2.65458 -2.44059 0
M  V30 2665 O 244.047 3.64566 -1.92784 0
M  V30 2666 H 243.388 0.433005 -0.503391 0
M  V30 2667 H 245.918 0.797451 -1.88419 0
M  V30 2668 H 245.928 3.13255 -2.6141 0
M  V30 2669 H 244.603 2.33244 -3.4434 0
M  V30 2670 H 243.18 3.23716 -1.851 0
M  V30 2671 N 245.365 1.30045 0.890287 0
M  V30 2672 C 246.297 1.11786 2.00091 0
M  V30 2673 C 247.31 0.0626307 1.62679 0
M  V30 2674 O 248.499 0.308112 1.75821 0
M  V30 2675 C 245.599 0.681527 3.31977 0
M  V30 2676 C 244.772 1.81735 3.97858 0
M  V30 2677 C 243.831 1.37045 5.08041 0
M  V30 2678 O 242.857 2.07677 5.29961 0
M  V30 2679 N 244.059 0.246525 5.79976 0
M  V30 2680 H 246.824 2.07441 2.16306 0
M  V30 2681 H 244.385 1.2211 1.06305 0
M  V30 2682 H 246.377 0.365675 4.03045 0
M  V30 2683 H 244.947 -0.182828 3.12065 0
M  V30 2684 H 244.167 2.30159 3.20032 0
M  V30 2685 H 245.455 2.57865 4.38615 0
M  V30 2686 H 244.853 -0.34215 5.64664 0
M  V30 2687 H 243.41 -0.00990438 6.51799 0
M  V30 2688 N 246.843 -1.10192 1.12674 0
M  V30 2689 C 248.068 -1.86523 0.906853 0
M  V30 2690 C 248.493 -1.80221 -0.538711 0
M  V30 2691 O 247.851 -1.17396 -1.38158 0
M  V30 2692 C 247.899 -3.32758 1.3894 0
M  V30 2693 O 247.003 -4.08449 0.5695 0
M  V30 2694 H 246.344 -0.578678 0.325619 0
M  V30 2695 H 248.874 -1.39203 1.49946 0
M  V30 2696 H 248.884 -3.83608 1.38958 0
M  V30 2697 H 247.559 -3.36661 2.44197 0
M  V30 2698 H 246.136 -3.67427 0.636528 0
M  V30 2699 N 248.321 -0.919034 -1.28029 0
M  V30 2700 C 249.568 -0.554934 -1.94748 0
M  V30 2701 C 249.896 0.90231 -1.72304 0
M  V30 2702 O 249.151 1.65767 -1.04018 0
M  V30 2703 C 249.45 -0.816855 -3.4794 0
M  V30 2704 C 249.116 -2.25448 -3.90492 0
M  V30 2705 C 247.778 -2.64752 -4.01821 0
M  V30 2706 C 250.13 -3.18977 -4.12193 0
M  V30 2707 C 247.458 -3.96727 -4.32232 0
M  V30 2708 C 249.81 -4.50523 -4.44086 0
M  V30 2709 C 248.474 -4.89673 -4.53626 0
M  V30 2710 H 247.744 -0.203065 -0.712633 0
M  V30 2711 H 250.391 -1.16136 -1.52265 0
M  V30 2712 H 248.696 -0.127677 -3.91592 0
M  V30 2713 H 250.393 -0.514238 -3.97689 0
M  V30 2714 H 246.983 -1.93952 -3.82205 0
M  V30 2715 H 251.167 -2.89817 -4.02889 0
M  V30 2716 H 246.423 -4.26754 -4.37825 0
M  V30 2717 H 250.597 -5.23005 -4.59825 0
M  V30 2718 H 248.224 -5.91969 -4.76946 0
M  V30 2719 N 249.799 1.42003 -0.683588 0
M  V30 2720 C 251.045 2.01712 -0.209825 0
M  V30 2721 C 251.378 1.53968 1.18353 0
M  V30 2722 O 250.653 0.745661 1.79639 0
M  V30 2723 C 250.936 3.59202 -0.254197 0
M  V30 2724 C 250.789 4.17102 -1.68363 0
M  V30 2725 C 252.108 4.38344 0.392709 0
M  V30 2726 H 249.227 0.732891 -0.0777189 0
M  V30 2727 H 251.869 1.68909 -0.87004 0
M  V30 2728 H 250.019 3.87278 0.307954 0
M  V30 2729 H 251.691 3.99946 -2.29871 0
M  V30 2730 H 249.934 3.72597 -2.22157 0
M  V30 2731 H 250.605 5.26249 -1.6663 0
M  V30 2732 H 253.081 4.16011 -0.0859162 0
M  V30 2733 H 251.957 5.47901 0.331063 0
M  V30 2734 H 252.218 4.16887 1.47164 0
M  V30 2735 N 251.277 0.427512 1.51691 0
M  V30 2736 C 252.525 -0.141948 2.01601 0
M  V30 2737 C 252.846 -1.44067 1.31414 0
M  V30 2738 O 252.116 -1.90763 0.445658 0
M  V30 2739 H 250.696 -0.0554468 0.744939 0
M  V30 2740 H 253.358 0.567968 1.86441 0
M  V30 2741 H 252.454 -0.324913 3.10404 0
M  V30 2742 N 252.755 -1.56801 0.158532 0
M  V30 2743 C 253.665 -2.20916 -0.789518 0
M  V30 2744 C 254.681 -1.1969 -1.26294 0
M  V30 2745 O 255.857 -1.52308 -1.31773 0
M  V30 2746 C 252.922 -2.82727 -2.00665 0
M  V30 2747 C 251.983 -3.99114 -1.58134 0
M  V30 2748 C 251.216 -4.57968 -2.74045 0
M  V30 2749 O 251.439 -4.15704 -3.90572 0
M  V30 2750 O 250.373 -5.48047 -2.48855 0
M  V30 2751 H 254.199 -3.02464 -0.273681 0
M  V30 2752 H 251.784 -1.4924 -0.0690548 0
M  V30 2753 H 253.666 -3.21968 -2.71872 0
M  V30 2754 H 252.341 -2.04184 -2.51179 0
M  V30 2755 H 251.248 -3.64567 -0.839155 0
M  V30 2756 H 252.581 -4.79212 -1.12325 0
M  V30 2757 N 254.233 0.115231 -1.57178 0
M  V30 2758 C 255.482 0.820945 -1.84237 0
M  V30 2759 C 255.795 1.80866 -0.744761 0
M  V30 2760 O 257.001 2.56083 -0.901871 0
M  V30 2761 C 255.457 1.51072 -3.26658 0
M  V30 2762 C 255.065 0.563795 -4.44438 0
M  V30 2763 C 256.809 2.20134 -3.62962 0
M  V30 2764 C 254.716 1.25701 -5.77887 0
M  V30 2765 H 253.646 0.310328 -0.687177 0
M  V30 2766 H 256.297 0.0737134 -1.83352 0
M  V30 2767 H 254.679 2.30471 -3.22024 0
M  V30 2768 H 255.853 -0.197247 -4.60378 0
M  V30 2769 H 254.168 -0.0200638 -4.16395 0
M  V30 2770 H 256.765 2.72696 -4.59936 0
M  V30 2771 H 257.108 2.98107 -2.90582 0
M  V30 2772 H 257.641 1.47619 -3.69396 0
M  V30 2773 H 254.38 0.518493 -6.53446 0
M  V30 2774 H 253.9 1.98997 -5.65827 0
M  V30 2775 H 255.579 1.78915 -6.2177 0
M  V30 2776 N 255.711 1.52812 0.385517 0
M  V30 2777 C 256.959 1.67694 1.12797 0
M  V30 2778 C 257.28 0.421115 1.90399 0
M  V30 2779 O 256.55 -0.564551 1.87589 0
M  V30 2780 H 255.13 0.618155 0.419396 0
M  V30 2781 H 257.792 1.89938 0.436972 0
M  V30 2782 H 256.888 2.52896 1.82894 0
M  V30 2783 N 257.189 -0.644168 1.43834 0
M  V30 2784 C 258.466 -1.40188 1.36406 0
M  V30 2785 C 258.846 -2.11094 0.0163124 0
M  V30 2786 O 258.194 -2.05426 -1.00062 0
M  V30 2787 C 258.404 -2.3791 2.55343 0
M  V30 2788 C 259.752 -3.01637 2.98832 0
M  V30 2789 O 260.776 -2.48237 2.55455 0
M  V30 2790 O 259.635 -3.98477 3.74003 0
M  V30 2791 H 256.729 -0.626773 0.539523 0
M  V30 2792 H 259.275 -0.670317 1.559 0
M  V30 2793 H 258.047 -1.84525 3.4506 0
M  V30 2794 H 257.67 -3.18503 2.37995 0
M  V30 2795 N 258.668 -1.30515 -0.883378 0
M  V30 2796 C 259.598 -1.19607 -2.00541 0
M  V30 2797 C 260.579 -0.086346 -1.69881 0
M  V30 2798 O 261.764 -0.268654 -1.92333 0
M  V30 2799 C 258.894 -0.888758 -3.35736 0
M  V30 2800 C 257.848 -1.95659 -3.8066 0
M  V30 2801 C 257.174 -1.50224 -5.13164 0
M  V30 2802 C 258.474 -3.36788 -3.99213 0
M  V30 2803 H 260.168 -2.13476 -2.09925 0
M  V30 2804 H 257.714 -1.02775 -1.00863 0
M  V30 2805 H 259.667 -0.799094 -4.13754 0
M  V30 2806 H 258.391 0.0856125 -3.26488 0
M  V30 2807 H 257.05 -2.03591 -3.04871 0
M  V30 2808 H 256.698 -0.516092 -5.00345 0
M  V30 2809 H 256.398 -2.2165 -5.44192 0
M  V30 2810 H 257.922 -1.42639 -5.93706 0
M  V30 2811 H 259.336 -3.31605 -4.67665 0
M  V30 2812 H 257.733 -4.06314 -4.41621 0
M  V30 2813 H 258.803 -3.78561 -3.03017 0
M  V30 2814 N 260.146 1.09593 -1.13257 0
M  V30 2815 C 261.376 1.85231 -0.915049 0
M  V30 2816 C 261.784 1.81345 0.539498 0
M  V30 2817 O 261.127 1.20664 1.38513 0
M  V30 2818 C 261.189 3.34275 -1.3229 0
M  V30 2819 C 260.853 3.6191 -2.79052 0
M  V30 2820 C 261.85 3.57777 -3.77216 0
M  V30 2821 C 259.535 3.90309 -3.16171 0
M  V30 2822 C 261.529 3.81652 -5.1051 0
M  V30 2823 C 259.216 4.13839 -4.49644 0
M  V30 2824 C 260.214 4.09502 -5.46623 0
M  V30 2825 O 259.902 4.32426 -6.77689 0
M  V30 2826 H 259.634 0.591997 -0.326367 0
M  V30 2827 H 262.188 1.394 -1.50854 0
M  V30 2828 H 260.418 3.80805 -0.672667 0
M  V30 2829 H 262.107 3.9132 -1.07812 0
M  V30 2830 H 262.873 3.35865 -3.49885 0
M  V30 2831 H 258.752 3.92811 -2.41289 0
M  V30 2832 H 262.296 3.78182 -5.86195 0
M  V30 2833 H 258.193 4.35232 -4.767 0
M  V30 2834 H 258.961 4.49896 -6.83766 0
M  V30 2835 N 261.624 0.925811 1.2754 0
M  V30 2836 C 262.557 0.367836 2.25216 0
M  V30 2837 C 263.535 -0.534738 1.53556 0
M  V30 2838 O 264.719 -0.475672 1.824 0
M  V30 2839 C 261.846 -0.47298 3.35381 0
M  V30 2840 C 260.892 0.365898 4.24928 0
M  V30 2841 S 261.725 1.78025 5.05042 0
M  V30 2842 C 262.881 0.947068 6.18693 0
M  V30 2843 H 263.114 1.19568 2.72196 0
M  V30 2844 H 260.647 0.727867 1.36167 0
M  V30 2845 H 262.605 -0.952242 3.99303 0
M  V30 2846 H 261.266 -1.27533 2.87044 0
M  V30 2847 H 260.459 -0.277582 5.03235 0
M  V30 2848 H 260.061 0.779261 3.65792 0
M  V30 2849 H 262.353 0.182201 6.77255 0
M  V30 2850 H 263.296 1.70309 6.87314 0
M  V30 2851 H 263.704 0.489913 5.6237 0
M  V30 2852 N 263.102 -1.41638 0.69111 0
M  V30 2853 C 264.348 -2.02104 0.229258 0
M  V30 2854 C 264.703 -1.53741 -1.15678 0
M  V30 2855 O 263.996 -0.736849 -1.76865 0
M  V30 2856 C 264.19 -3.56714 0.221277 0
M  V30 2857 C 264.019 -4.20083 1.605 0
M  V30 2858 C 262.789 -4.54566 2.20676 0
M  V30 2859 C 264.987 -4.46587 2.55078 0
M  V30 2860 N 262.969 -5.03199 3.5166 0
M  V30 2861 C 264.34 -4.96946 3.70735 0
M  V30 2862 C 266.395 -4.28593 2.53401 0
M  V30 2863 C 265.098 -5.31203 4.8499 0
M  V30 2864 C 267.124 -4.63936 3.66765 0
M  V30 2865 C 266.486 -5.14463 4.81152 0
M  V30 2866 H 262.585 -0.771256 0.12918 0
M  V30 2867 H 265.169 -1.72251 0.907626 0
M  V30 2868 H 263.34 -3.86051 -0.426562 0
M  V30 2869 H 265.072 -4.03896 -0.254983 0
M  V30 2870 H 261.827 -4.4087 1.73005 0
M  V30 2871 H 262.251 -5.31926 4.18789 0
M  V30 2872 H 266.893 -3.88771 1.66184 0
M  V30 2873 H 264.611 -5.69951 5.72871 0
M  V30 2874 H 268.197 -4.51677 3.66714 0
M  V30 2875 H 267.077 -5.41299 5.67419 0
M  V30 2876 N 264.58 -0.43555 -1.51462 0
M  V30 2877 C 265.857 0.191364 -1.94662 0
M  V30 2878 C 266.237 1.60254 -1.37411 0
M  V30 2879 O 265.585 2.2152 -0.560458 0
M  V30 2880 C 265.795 0.17091 -3.48581 0
M  V30 2881 C 267.143 0.377357 -4.2292 0
M  V30 2882 O 268.167 0.249104 -3.55328 0
M  V30 2883 O 267.026 0.63247 -5.42828 0
M  V30 2884 H 264.12 0.130932 -0.816569 0
M  V30 2885 H 266.666 -0.4934 -1.62369 0
M  V30 2886 H 265.438 -0.815738 -3.82703 0
M  V30 2887 H 265.061 0.898659 -3.87311 0
M  V30 2888 N 266.058 1.56714 -0.166846 0
M  V30 2889 C 267.283 2.01557 0.488833 0
M  V30 2890 C 267.708 1.0463 1.56314 0
M  V30 2891 O 267.066 0.0251304 1.81283 0
M  V30 2892 C 267.114 3.4503 1.04818 0
M  V30 2893 O 266.218 3.51163 2.16236 0
M  V30 2894 H 265.559 0.653516 0.117526 0
M  V30 2895 H 268.089 2.02818 -0.269421 0
M  V30 2896 H 268.099 3.84243 1.37191 0
M  V30 2897 H 266.774 4.15077 0.261572 0
M  V30 2898 H 265.351 3.23807 1.84942 0
M  V30 2899 N 267.536 -0.106894 1.57237 0
M  V30 2900 C 268.782 -0.81373 1.85759 0
M  V30 2901 C 269.115 -1.78952 0.754315 0
M  V30 2902 O 268.39 -1.93029 -0.23879 0
M  V30 2903 C 268.673 -1.55293 3.24894 0
M  V30 2904 C 268.526 -0.595929 4.45835 0
M  V30 2905 C 269.845 -2.5063 3.61763 0
M  V30 2906 H 266.964 -0.294369 0.67566 0
M  V30 2907 H 269.606 -0.0776472 1.89841 0
M  V30 2908 H 267.756 -2.1804 3.21544 0
M  V30 2909 H 269.428 0.0236262 4.61294 0
M  V30 2910 H 267.671 0.0916191 4.33703 0
M  V30 2911 H 268.342 -1.15004 5.39887 0
M  V30 2912 H 270.818 -1.97982 3.65981 0
M  V30 2913 H 269.694 -2.99376 4.60071 0
M  V30 2914 H 269.955 -3.3385 2.89821 0
M  V30 2915 N 269.014 -1.53014 -0.377408 0
M  V30 2916 C 269.944 -1.81589 -1.46791 0
M  V30 2917 C 270.925 -0.668622 -1.56408 0
M  V30 2918 O 272.11 -0.917337 -1.71168 0
M  V30 2919 C 269.24 -1.99519 -2.8427 0
M  V30 2920 C 268.194 -3.15249 -2.89486 0
M  V30 2921 C 267.52 -3.18451 -4.29527 0
M  V30 2922 C 268.82 -4.54084 -2.58079 0
M  V30 2923 H 270.514 -2.7291 -1.23127 0
M  V30 2924 H 268.06 -1.31319 -0.590883 0
M  V30 2925 H 270.013 -2.18092 -3.60575 0
M  V30 2926 H 268.737 -1.04897 -3.09296 0
M  V30 2927 H 267.396 -2.96477 -2.15631 0
M  V30 2928 H 267.044 -2.2149 -4.5161 0
M  V30 2929 H 266.744 -3.962 -4.33934 0
M  V30 2930 H 268.268 -3.39193 -5.07721 0
M  V30 2931 H 269.682 -4.72899 -3.24098 0
M  V30 2932 H 268.079 -5.33987 -2.7382 0
M  V30 2933 H 269.149 -4.60006 -1.53372 0
M  V30 2934 N 270.492 0.636531 -1.44174 0
M  V30 2935 C 271.903 1.21806 -1.41493 0
M  V30 2936 C 272.254 1.95785 -0.1275 0
M  V30 2937 O 271.379 2.02147 0.772376 0
M  V30 2938 C 271.974 2.21551 -2.56321 0
M  V30 2939 C 270.533 2.75143 -2.56853 0
M  V30 2940 C 269.68 1.50052 -2.33195 0
M  V30 2941 H 272.631 0.427531 -1.52833 0
M  V30 2942 H 272.652 3.0405 -2.28765 0
M  V30 2943 H 272.164 1.67679 -3.50008 0
M  V30 2944 H 270.265 3.33033 -1.67093 0
M  V30 2945 H 270.378 3.2155 -3.55165 0
M  V30 2946 H 268.742 1.77993 -1.82183 0
M  V30 2947 H 269.525 0.980903 -3.28988 0
M  V30 2948 N 271.97 1.30982 0.876444 0
M  V30 2949 C 273.381 1.18277 1.44456 0
M  V30 2950 C 273.732 -0.213265 1.95037 0
M  V30 2951 O 272.857 -1.11057 1.85729 0
M  V30 2952 C 273.452 2.1411 2.62569 0
M  V30 2953 C 272.011 2.05358 3.15444 0
M  V30 2954 C 271.158 2.03706 1.88146 0
M  V30 2955 H 274.109 1.43127 0.685584 0
M  V30 2956 H 274.13 1.72692 3.39054 0
M  V30 2957 H 273.642 3.15706 2.25724 0
M  V30 2958 H 271.743 1.06934 3.56926 0
M  V30 2959 H 271.856 2.94156 3.78166 0
M  V30 2960 H 270.22 1.48629 2.06837 0
M  V30 2961 H 271.003 3.07047 1.53547 0
M  V30 2962 N 273.449 -1.08991 1.13837 0
M  V30 2963 C 274.359 -2.19301 0.833333 0
M  V30 2964 C 275.375 -1.73026 -0.183847 0
M  V30 2965 O 276.551 -2.01395 -0.0138092 0
M  V30 2966 C 273.616 -3.45323 0.308651 0
M  V30 2967 C 272.677 -4.06255 1.38764 0
M  V30 2968 C 271.91 -5.26262 0.887896 0
M  V30 2969 O 272.133 -5.69747 -0.27287 0
M  V30 2970 O 271.067 -5.78435 1.66421 0
M  V30 2971 H 274.893 -2.47854 1.75506 0
M  V30 2972 H 272.478 -1.18012 0.916166 0
M  V30 2973 H 274.36 -4.21394 0.0216739 0
M  V30 2974 H 273.035 -3.18362 -0.585431 0
M  V30 2975 H 271.942 -3.318 1.72799 0
M  V30 2976 H 273.275 -4.37452 2.25602 0
M  V30 2977 N 274.927 -0.932562 -1.27047 0
M  V30 2978 C 275.875 -0.42603 -2.28665 0
M  V30 2979 C 276.869 0.49219 -1.62092 0
M  V30 2980 O 278.075 0.371355 -1.76128 0
M  V30 2981 H 274.45 -0.119213 -0.742491 0
M  V30 2982 H 276.421 -1.29579 -2.68797 0
M  V30 2983 C 275.17 0.301426 -3.46391 0
M  V30 2984 H 274.493 -0.39595 -3.97834 0
M  V30 2985 H 275.933 0.6202 -4.1944 0
M  V30 2986 C 274.392 1.51616 -3.00856 0
M  V30 2987 O 274.922 2.61476 -3.04948 0
M  V30 2988 N 273.128 1.36969 -2.56296 0
M  V30 2989 H 272.675 0.475873 -2.53166 0
M  V30 2990 H 272.633 2.18368 -2.26192 0
M  V30 2991 N 276.405 1.4127 -0.698611 0
M  V30 2992 C 277.654 2.00408 -0.227949 0
M  V30 2993 C 277.967 1.55981 1.18023 0
M  V30 2994 O 279.173 2.07699 1.74852 0
M  V30 2995 C 277.629 3.58129 -0.356636 0
M  V30 2996 C 277.237 4.11536 -1.77037 0
M  V30 2997 C 278.981 4.24466 0.0540969 0
M  V30 2998 C 276.888 5.61701 -1.85055 0
M  V30 2999 H 275.818 0.749586 -0.0814657 0
M  V30 3000 H 278.469 1.61713 -0.867249 0
M  V30 3001 H 276.851 3.94442 0.350965 0
M  V30 3002 H 278.025 3.86636 -2.50698 0
M  V30 3003 H 276.34 3.57736 -2.13105 0
M  V30 3004 H 278.937 5.34698 0.0146723 0
M  V30 3005 H 279.28 4.01687 1.09332 0
M  V30 3006 H 279.813 3.93198 -0.603337 0
M  V30 3007 H 276.552 5.89312 -2.8704 0
M  V30 3008 H 276.072 5.88519 -1.15783 0
M  V30 3009 H 277.751 6.26524 -1.61484 0
M  V30 3010 N 277.883 0.443576 1.51229 0
M  V30 3011 C 278.813 -0.355142 2.30783 0
M  V30 3012 C 279.794 -1.0154 1.36468 0
M  V30 3013 O 280.979 -1.01785 1.65389 0
M  V30 3014 C 278.109 -1.45312 3.15439 0
M  V30 3015 C 277.063 -0.916002 4.18083 0
M  V30 3016 C 276.389 -2.1102 4.91299 0
M  V30 3017 C 277.689 0.0538602 5.22272 0
M  V30 3018 H 279.383 0.308767 2.97804 0
M  V30 3019 H 276.929 0.149937 1.43217 0
M  V30 3020 H 278.882 -2.01914 3.69876 0
M  V30 3021 H 277.606 -2.14541 2.46252 0
M  V30 3022 H 276.265 -0.372145 3.64706 0
M  V30 3023 H 275.913 -2.78882 4.18609 0
M  V30 3024 H 275.613 -1.75717 5.60712 0
M  V30 3025 H 277.137 -2.68164 5.48562 0
M  V30 3026 H 278.551 -0.422069 5.71744 0
M  V30 3027 H 276.948 0.319776 5.99247 0
M  V30 3028 H 278.018 0.98858 4.74716 0
M  V30 3029 N 279.361 -1.56624 0.175154 0
M  V30 3030 C 280.586 -2.01813 -0.478137 0
M  V30 3031 C 281.011 -1.05457 -1.55757 0
M  V30 3032 O 280.369 -0.0347439 -1.81267 0
M  V30 3033 C 280.417 -3.45581 -1.02987 0
M  V30 3034 O 279.521 -3.52305 -2.14371 0
M  V30 3035 H 278.862 -0.65413 -0.114059 0
M  V30 3036 H 281.392 -2.02673 0.280173 0
M  V30 3037 H 281.402 -3.84965 -1.35151 0
M  V30 3038 H 280.077 -4.1521 -0.239556 0
M  V30 3039 H 278.654 -3.24783 -1.83222 0
M  V30 3040 N 280.839 0.0985539 -1.57292 0
M  V30 3041 C 281.802 1.10402 -2.00858 0
M  V30 3042 C 282.802 1.33146 -0.901593 0
M  V30 3043 O 283.992 1.29318 -1.16716 0
M  V30 3044 C 281.124 2.45394 -2.36632 0
M  V30 3045 H 282.317 0.729099 -2.90902 0
M  V30 3046 H 279.87 0.343495 -1.52479 0
M  V30 3047 H 280.605 2.87769 -1.49531 0
M  V30 3048 H 280.39 2.30235 -3.17387 0
M  V30 3049 H 281.88 3.17718 -2.71007 0
M  V30 3050 N 282.317 1.53212 0.369288 0
M  V30 3051 C 283.547 1.72868 1.13139 0
M  V30 3052 C 283.955 0.455754 1.83629 0
M  V30 3053 O 283.298 -0.580861 1.74275 0
M  V30 3054 C 283.36 2.83667 2.20847 0
M  V30 3055 C 283.024 4.24142 1.70155 0
M  V30 3056 C 284.021 5.06619 1.16763 0
M  V30 3057 C 281.706 4.70539 1.7578 0
M  V30 3058 C 283.7 6.33581 0.696678 0
M  V30 3059 C 281.387 5.97481 1.28297 0
M  V30 3060 C 282.385 6.78833 0.753307 0
M  V30 3061 O 282.073 8.03393 0.285475 0
M  V30 3062 H 281.805 0.581707 0.344373 0
M  V30 3063 H 284.359 2.00736 0.435243 0
M  V30 3064 H 282.589 2.51265 2.93944 0
M  V30 3065 H 284.278 2.91536 2.82421 0
M  V30 3066 H 285.044 4.71948 1.11758 0
M  V30 3067 H 280.923 4.07293 2.15949 0
M  V30 3068 H 284.467 6.97027 0.282581 0
M  V30 3069 H 280.364 6.31651 1.32994 0
M  V30 3070 H 281.132 8.17497 0.405145 0
M  V30 3071 N 283.795 -0.628877 1.44509 0
M  V30 3072 C 284.727 -1.754 1.47538 0
M  V30 3073 C 285.74 -1.58575 0.368506 0
M  V30 3074 O 286.929 -1.66847 0.634376 0
M  V30 3075 C 284.029 -3.1315 1.29577 0
M  V30 3076 C 283.202 -3.56413 2.53551 0
M  V30 3077 C 282.261 -4.7305 2.30457 0
M  V30 3078 O 281.287 -4.81247 3.03957 0
M  V30 3079 N 282.489 -5.64903 1.3366 0
M  V30 3080 H 285.254 -1.73272 2.44534 0
M  V30 3081 H 282.815 -0.813512 1.39977 0
M  V30 3082 H 284.807 -3.88902 1.11971 0
M  V30 3083 H 283.377 -3.09908 0.409371 0
M  V30 3084 H 282.597 -2.70847 2.86419 0
M  V30 3085 H 283.885 -3.82071 3.36005 0
M  V30 3086 H 283.283 -5.60975 0.729604 0
M  V30 3087 H 281.84 -6.40275 1.22032 0
M  V30 3088 N 285.273 -1.31445 -0.869486 0
M  V30 3089 C 286.521 -1.20918 -1.61936 0
M  V30 3090 C 286.842 0.232683 -1.93607 0
M  V30 3091 O 286.112 1.15352 -1.58338 0
M  V30 3092 H 284.692 -0.44454 -0.600328 0
M  V30 3093 H 287.354 -1.64776 -1.0409 0
M  V30 3094 H 286.45 -1.78124 -2.56278 0
M  V30 3095 N 286.751 1.08385 -1.14413 0
M  V30 3096 C 287.979 1.84517 -0.936001 0
M  V30 3097 C 288.394 1.81626 0.515503 0
M  V30 3098 O 287.751 1.22008 1.35721 0
M  V30 3099 C 287.802 3.32049 -1.42918 0
M  V30 3100 O 287.523 3.34951 -2.82381 0
M  V30 3101 C 289.024 4.24986 -1.26103 0
M  V30 3102 H 286.244 0.582491 -0.333084 0
M  V30 3103 H 288.788 1.36885 -1.5193 0
M  V30 3104 H 286.943 3.7707 -0.888641 0
M  V30 3105 H 287.357 4.27048 -3.04517 0
M  V30 3106 H 288.831 5.26615 -1.6547 0
M  V30 3107 H 289.308 4.38726 -0.20392 0
M  V30 3108 H 289.914 3.85791 -1.79012 0
M  V30 3109 N 288.23 0.939286 1.26551 0
M  V30 3110 C 289.641 0.628782 1.75793 0
M  V30 3111 C 289.992 -0.856046 1.7654 0
M  V30 3112 O 289.117 -1.66994 1.3763 0
M  V30 3113 C 289.712 1.13465 3.19235 0
M  V30 3114 C 288.271 0.874601 3.66098 0
M  V30 3115 C 287.418 1.28667 2.45642 0
M  V30 3116 H 290.369 1.1178 1.12654 0
M  V30 3117 H 290.39 0.487609 3.77363 0
M  V30 3118 H 289.902 2.21535 3.1866 0
M  V30 3119 H 288.003 -0.191793 3.72106 0
M  V30 3120 H 288.116 1.50028 4.55004 0
M  V30 3121 H 286.48 0.705109 2.44745 0
M  V30 3122 H 287.263 2.37625 2.47769 0
M  V30 3123 N 289.708 -1.40897 0.706093 0
M  V30 3124 C 290.638 -2.33418 0.0620085 0
M  V30 3125 C 291.619 -1.52385 -0.755827 0
M  V30 3126 O 292.804 -1.80886 -0.706674 0
M  V30 3127 C 289.934 -3.36293 -0.867445 0
M  V30 3128 C 288.888 -4.27716 -0.155932 0
M  V30 3129 C 288.214 -5.2105 -1.20046 0
M  V30 3130 C 289.514 -5.12944 0.984149 0
M  V30 3131 H 291.208 -2.87527 0.83477 0
M  V30 3132 H 288.754 -1.38249 0.402875 0
M  V30 3133 H 290.707 -3.99949 -1.32735 0
M  V30 3134 H 289.431 -2.80556 -1.67199 0
M  V30 3135 H 288.09 -3.65498 0.284047 0
M  V30 3136 H 287.738 -4.61624 -1.99781 0
M  V30 3137 H 287.438 -5.83056 -0.729328 0
M  V30 3138 H 288.962 -5.87584 -1.66066 0
M  V30 3139 H 290.376 -5.70109 0.604048 0
M  V30 3140 H 288.773 -5.83945 1.38304 0
M  V30 3141 H 289.843 -4.49485 1.81911 0
M  V30 3142 N 291.186 -0.45159 -1.50991 0
M  V30 3143 C 292.597 0.00818571 -1.86698 0
M  V30 3144 C 292.948 1.40661 -1.3678 0
M  V30 3145 O 292.073 2.0391 -0.724546 0
M  V30 3146 C 292.668 0.0216303 -3.38793 0
M  V30 3147 C 291.227 0.425865 -3.73983 0
M  V30 3148 C 290.374 -0.372163 -2.74791 0
M  V30 3149 H 293.325 -0.666785 -1.44013 0
M  V30 3150 H 293.346 0.828078 -3.7138 0
M  V30 3151 H 292.858 -0.996288 -3.75094 0
M  V30 3152 H 290.959 1.44886 -3.43277 0
M  V30 3153 H 291.072 0.140761 -4.78893 0
M  V30 3154 H 289.436 0.171498 -2.54122 0
M  V30 3155 H 290.219 -1.38922 -3.13935 0
M  V30 3156 N 292.664 1.56529 -0.183458 0
M  V30 3157 C 293.627 2.17324 0.728223 0
M  V30 3158 C 294.627 1.12453 1.14939 0
M  V30 3159 O 295.817 1.37902 1.06437 0
M  V30 3160 C 292.949 2.76591 1.99274 0
M  V30 3161 H 294.142 2.99241 0.198772 0
M  V30 3162 H 291.695 1.5616 0.0661391 0
M  V30 3163 H 292.43 1.98441 2.56499 0
M  V30 3164 H 292.215 3.5335 1.69959 0
M  V30 3165 H 293.705 3.23311 2.6431 0
M  V30 3166 N 294.142 -0.090211 1.57342 0
M  V30 3167 C 295.09 -1.12792 2.03422 0
M  V30 3168 C 296.084 -1.41182 0.936166 0
M  V30 3169 O 297.29 -1.40805 1.12133 0
M  V30 3170 H 293.665 -0.380986 0.648347 0
M  V30 3171 H 295.636 -0.71299 2.89757 0
M  V30 3172 C 294.385 -2.43855 2.47851 0
M  V30 3173 H 293.708 -2.22855 3.31927 0
M  V30 3174 H 295.148 -3.14955 2.83865 0
M  V30 3175 C 293.607 -3.08503 1.3538 0
M  V30 3176 O 294.137 -3.95805 0.685641 0
M  V30 3177 N 292.343 -2.68831 1.10355 0
M  V30 3178 H 291.89 -1.97929 1.64869 0
M  V30 3179 H 291.848 -3.12412 0.353031 0
M  V30 3180 N 295.62 -1.53406 -0.361157 0
M  V30 3181 C 296.869 -1.69022 -1.10066 0
M  V30 3182 C 297.182 -0.450838 -1.90333 0
M  V30 3183 O 298.388 -0.487617 -2.67085 0
M  V30 3184 C 296.844 -2.98812 -2.00598 0
M  V30 3185 C 296.452 -4.30027 -1.25621 0
M  V30 3186 C 298.196 -3.23795 -2.74513 0
M  V30 3187 C 296.103 -5.50903 -2.1508 0
M  V30 3188 H 295.033 -0.629776 -0.414606 0
M  V30 3189 H 297.684 -1.79907 -0.361348 0
M  V30 3190 H 296.066 -2.8174 -2.78278 0
M  V30 3191 H 297.24 -4.57745 -0.529739 0
M  V30 3192 H 295.555 -4.11522 -0.635496 0
M  V30 3193 H 298.152 -4.11289 -3.41681 0
M  V30 3194 H 298.495 -2.40045 -3.40123 0
M  V30 3195 H 299.028 -3.41561 -2.03914 0
M  V30 3196 H 295.767 -6.37143 -1.54041 0
M  V30 3197 H 295.287 -5.27459 -2.85565 0
M  V30 3198 H 296.966 -5.85865 -2.74538 0
M  V30 3199 N 297.098 0.621204 -1.44841 0
M  V30 3200 C 298.028 1.74366 -1.55303 0
M  V30 3201 C 299.009 1.65199 -0.405385 0
M  V30 3202 O 300.194 1.83807 -0.626787 0
M  V30 3203 C 297.324 3.12931 -1.50637 0
M  V30 3204 C 296.278 3.36896 -2.63979 0
M  V30 3205 C 295.604 4.75594 -2.44366 0
M  V30 3206 C 296.904 3.28483 -4.06074 0
M  V30 3207 H 298.598 1.65867 -2.49256 0
M  V30 3208 H 296.144 0.796558 -1.19962 0
M  V30 3209 H 298.097 3.9124 -1.56555 0
M  V30 3210 H 296.821 3.22237 -0.532057 0
M  V30 3211 H 295.48 2.60972 -2.57467 0
M  V30 3212 H 295.128 4.81616 -1.45105 0
M  V30 3213 H 294.828 4.92586 -3.20364 0
M  V30 3214 H 296.352 5.5612 -2.52117 0
M  V30 3215 H 297.766 3.96684 -4.13902 0
M  V30 3216 H 296.163 3.57008 -4.82354 0
M  V30 3217 H 297.233 2.26133 -4.28943 0
M  V30 3218 N 298.576 1.31904 0.862503 0
M  V30 3219 C 299.853 1.12644 1.59908 0
M  V30 3220 C 300.233 -0.316104 2.0872 0
M  V30 3221 O 299.581 -1.31145 1.87118 0
M  V30 3222 C 299.791 2.1472 2.7513 0
M  V30 3223 C 301.139 2.47637 3.44907 0
M  V30 3224 O 302.163 2.13205 2.85346 0
M  V30 3225 O 301.022 3.06632 4.52371 0
M  V30 3226 H 298.116 0.43416 0.703871 0
M  V30 3227 H 300.662 1.43408 0.907314 0
M  V30 3228 H 299.434 3.1172 2.3653 0
M  V30 3229 H 299.057 1.84905 3.51989 0
M  V30 3230 N 300.054 -1.07777 1.14986 0
M  V30 3231 C 301.3 -1.80719 0.93339 0
M  V30 3232 C 301.655 -1.8484 -0.534019 0
M  V30 3233 O 300.948 -1.31795 -1.3907 0
M  V30 3234 C 301.142 -3.25495 1.47608 0
M  V30 3235 C 300.971 -3.3548 2.99472 0
M  V30 3236 C 299.741 -3.46293 3.6798 0
M  V30 3237 C 301.939 -3.26596 3.97291 0
M  V30 3238 N 299.921 -3.45136 5.07695 0
M  V30 3239 C 301.292 -3.32506 5.23297 0
M  V30 3240 C 303.347 -3.10376 3.89321 0
M  V30 3241 C 302.05 -3.23866 6.42264 0
M  V30 3242 C 304.076 -3.03069 5.07842 0
M  V30 3243 C 303.438 -3.09587 6.32721 0
M  V30 3244 H 299.537 -0.674814 0.395158 0
M  V30 3245 H 302.121 -1.28681 1.46114 0
M  V30 3246 H 300.292 -3.75963 0.975022 0
M  V30 3247 H 302.024 -3.86535 1.19887 0
M  V30 3248 H 298.779 -3.50456 3.18555 0
M  V30 3249 H 299.203 -3.48097 5.80653 0
M  V30 3250 H 303.845 -3.04194 2.93642 0
M  V30 3251 H 301.563 -3.28807 7.38181 0
M  V30 3252 H 305.149 -2.91629 5.03432 0
M  V30 3253 H 304.029 -3.0397 7.22891 0
M  V30 3254 N 301.532 -0.945985 -1.26051 0
M  V30 3255 C 302.464 -0.416662 -2.25381 0
M  V30 3256 C 303.477 0.462712 -1.56086 0
M  V30 3257 O 304.666 0.272383 -1.7641 0
M  V30 3258 C 301.766 0.419812 -3.3629 0
M  V30 3259 C 300.939 -0.444531 -4.35135 0
M  V30 3260 C 299.998 0.332305 -5.2515 0
M  V30 3261 O 299.024 -0.266324 -5.68577 0
M  V30 3262 N 300.226 1.62763 -5.57215 0
M  V30 3263 H 302.991 -1.27059 -2.71433 0
M  V30 3264 H 300.552 -0.815392 -1.39868 0
M  V30 3265 H 302.544 0.947013 -3.93464 0
M  V30 3266 H 301.114 1.17456 -2.89694 0
M  V30 3267 H 300.334 -1.15291 -3.76964 0
M  V30 3268 H 301.622 -1.03478 -4.98166 0
M  V30 3269 H 301.02 2.13603 -5.23823 0
M  V30 3270 H 299.577 2.10097 -6.17011 0
M  V30 3271 N 303.011 1.40521 -0.713556 0
M  V30 3272 C 303.974 2.29098 -0.0684347 0
M  V30 3273 C 304.974 1.45268 0.689472 0
M  V30 3274 O 306.164 1.66205 0.521677 0
M  V30 3275 C 303.296 3.28446 0.913024 0
M  V30 3276 H 304.489 2.87645 -0.84855 0
M  V30 3277 H 302.042 1.48809 -0.47809 0
M  V30 3278 H 302.777 2.74913 1.72027 0
M  V30 3279 H 302.562 3.90327 0.372472 0
M  V30 3280 H 304.052 3.94777 1.36165 0
M  V30 3281 N 304.489 0.459591 1.5075 0
M  V30 3282 C 305.419 -0.330644 2.31147 0
M  V30 3283 C 306.4 -1.00087 1.37538 0
M  V30 3284 O 307.585 -1.00025 1.66459 0
M  V30 3285 C 304.715 -1.41958 3.16962 0
M  V30 3286 C 303.669 -0.871608 4.19031 0
M  V30 3287 C 302.995 -2.05797 4.9351 0
M  V30 3288 C 304.295 0.109251 5.22186 0
M  V30 3289 H 305.989 0.340336 2.97459 0
M  V30 3290 H 303.535 0.165119 1.4305 0
M  V30 3291 H 305.488 -1.9798 3.71997 0
M  V30 3292 H 304.212 -2.11917 2.48513 0
M  V30 3293 H 302.871 -0.333442 3.6508 0
M  V30 3294 H 302.519 -2.74427 4.21544 0
M  V30 3295 H 302.219 -1.6976 5.62544 0
M  V30 3296 H 303.743 -2.62331 5.51375 0
M  V30 3297 H 305.157 -0.361405 5.7216 0
M  V30 3298 H 303.554 0.383316 5.98875 0
M  V30 3299 H 304.624 1.03887 4.73641 0
M  V30 3300 N 305.967 -1.56429 0.191757 0
M  V30 3301 C 306.915 -2.20273 -0.747174 0
M  V30 3302 C 307.909 -1.17288 -1.22229 0
M  V30 3303 O 309.115 -1.35441 -1.18557 0
M  V30 3304 H 305.49 -0.705885 -0.259289 0
M  V30 3305 H 307.461 -2.97826 -0.184963 0
M  V30 3306 C 306.21 -2.87356 -1.95759 0
M  V30 3307 H 305.533 -3.66341 -1.60106 0
M  V30 3308 H 306.973 -3.3547 -2.59299 0
M  V30 3309 C 305.432 -1.88213 -2.79423 0
M  V30 3310 O 305.962 -1.38033 -3.7724 0
M  V30 3311 N 304.168 -1.56516 -2.44849 0
M  V30 3312 H 303.715 -1.97516 -1.65364 0
M  V30 3313 H 303.673 -0.904369 -3.01112 0
M  V30 3314 N 307.445 0.0818655 -1.57387 0
M  V30 3315 C 308.675 0.794954 -1.90694 0
M  V30 3316 C 309.083 1.72147 -0.784982 0
M  V30 3317 O 308.426 1.81974 0.251196 0
M  V30 3318 C 308.488 1.65042 -3.19376 0
M  V30 3319 C 308.152 0.894337 -4.48164 0
M  V30 3320 C 309.149 0.21813 -5.19442 0
M  V30 3321 C 306.834 0.864495 -4.94805 0
M  V30 3322 C 308.828 -0.477802 -6.35607 0
M  V30 3323 C 306.515 0.164785 -6.10878 0
M  V30 3324 C 307.513 -0.505173 -6.81129 0
M  V30 3325 O 307.201 -1.19363 -7.94989 0
M  V30 3326 H 306.933 0.231779 -0.635023 0
M  V30 3327 H 309.487 0.059493 -2.05314 0
M  V30 3328 H 307.717 2.42844 -3.00938 0
M  V30 3329 H 309.406 2.24127 -3.38411 0
M  V30 3330 H 310.172 0.232558 -4.84442 0
M  V30 3331 H 306.051 1.37542 -4.40004 0
M  V30 3332 H 309.595 -1.00129 -6.90377 0
M  V30 3333 H 305.492 0.148249 -6.4533 0
M  V30 3334 H 306.26 -1.10188 -8.11049 0
M  V30 3335 N 308.923 1.53595 0.353017 0
M  V30 3336 C 309.833 1.83897 1.45667 0
M  V30 3337 C 310.849 0.728334 1.58023 0
M  V30 3338 O 312.025 1.01968 1.73679 0
M  V30 3339 C 309.09 2.03383 2.80778 0
M  V30 3340 C 308.151 3.27262 2.77845 0
M  V30 3341 C 307.384 3.45809 4.06512 0
M  V30 3342 O 307.607 2.68387 5.03314 0
M  V30 3343 O 306.541 4.39207 4.11559 0
M  V30 3344 H 310.367 2.77686 1.2298 0
M  V30 3345 H 307.952 1.39132 0.544308 0
M  V30 3346 H 309.834 2.17698 3.60812 0
M  V30 3347 H 308.509 1.12783 3.03417 0
M  V30 3348 H 307.416 3.18359 1.96465 0
M  V30 3349 H 308.749 4.17824 2.60161 0
M  V30 3350 N 310.401 -0.613514 1.45168 0
M  V30 3351 C 311.65 -1.36874 1.4815 0
M  V30 3352 C 311.963 -1.952 0.124982 0
M  V30 3353 O 313.169 -2.71481 0.0324176 0
M  V30 3354 C 311.625 -2.47905 2.60904 0
M  V30 3355 C 311.233 -1.96016 4.02842 0
M  V30 3356 C 312.977 -3.24965 2.73126 0
M  V30 3357 C 310.884 -3.04494 5.06988 0
M  V30 3358 H 309.814 -0.514428 0.551253 0
M  V30 3359 H 312.465 -0.658182 1.7129 0
M  V30 3360 H 310.847 -3.21618 2.31037 0
M  V30 3361 H 312.021 -1.29051 4.4236 0
M  V30 3362 H 310.336 -1.31719 3.95018 0
M  V30 3363 H 312.933 -4.05865 3.48106 0
M  V30 3364 H 313.276 -3.75588 1.79553 0
M  V30 3365 H 313.809 -2.5835 3.0249 0
M  V30 3366 H 310.548 -2.58795 6.0225 0
M  V30 3367 H 310.068 -3.70044 4.72046 0
M  V30 3368 H 311.747 -3.68976 5.31475 0
M  V30 3369 N 311.879 -1.3236 -0.855495 0
M  V30 3370 C 313.295 -1.11332 -1.14356 0
M  V30 3371 C 313.495 0.106751 -2.01217 0
M  V30 3372 O 312.551 0.791891 -2.39761 0
M  V30 3373 C 313.864 -2.39237 -1.82171 0
M  V30 3374 C 315.412 -2.44986 -1.9481 0
M  V30 3375 C 315.887 -3.7281 -2.66039 0
M  V30 3376 N 317.378 -3.73787 -2.73565 0
M  V30 3377 C 318.113 -4.69394 -3.29327 0
M  V30 3378 N 317.609 -5.75367 -3.85907 0
M  V30 3379 N 319.402 -4.56893 -3.27423 0
M  V30 3380 H 311.553 -2.10586 -0.277027 0
M  V30 3381 H 313.816 -0.929701 -0.185364 0
M  V30 3382 H 313.522 -3.28431 -1.25802 0
M  V30 3383 H 313.396 -2.50134 -2.82335 0
M  V30 3384 H 315.783 -1.56252 -2.50338 0
M  V30 3385 H 315.864 -2.38043 -0.936448 0
M  V30 3386 H 315.508 -4.61918 -2.11174 0
M  V30 3387 H 315.438 -3.77024 -3.67642 0
M  V30 3388 H 317.929 -2.97189 -2.33424 0
M  V30 3389 H 318.242 -6.44378 -4.26611 0
M  V30 3390 H 316.587 -5.79123 -3.84242 0
M  V30 3391 H 319.778 -3.73269 -2.82467 0
M  V30 3392 H 319.951 -5.31577 -3.7058 0
M  V30 3393 N 313.357 1.07166 -1.15556 0
M  V30 3394 C 314.605 1.79443 -0.929764 0
M  V30 3395 C 314.926 1.87246 0.544414 0
M  V30 3396 O 314.196 1.37473 1.39564 0
M  V30 3397 H 312.776 0.664625 -0.341003 0
M  V30 3398 H 315.438 1.29499 -1.45657 0
M  V30 3399 H 314.534 2.81832 -1.34079 0
M  V30 3400 N 314.835 0.952656 1.25548 0
M  V30 3401 C 316.065 0.622592 1.96996 0
M  V30 3402 C 316.473 -0.809112 1.71026 0
M  V30 3403 O 315.816 -1.55258 0.981861 0
M  V30 3404 C 315.878 0.798946 3.5051 0
M  V30 3405 C 315.542 2.20744 4.00151 0
M  V30 3406 C 316.539 3.18394 4.11001 0
M  V30 3407 C 314.224 2.5311 4.33867 0
M  V30 3408 C 316.218 4.46504 4.54877 0
M  V30 3409 C 313.905 3.8145 4.7743 0
M  V30 3410 C 314.903 4.77959 4.87897 0
M  V30 3411 O 314.591 6.04012 5.30494 0
M  V30 3412 H 314.323 0.232503 0.634758 0
M  V30 3413 H 316.877 1.2789 1.60728 0
M  V30 3414 H 315.107 0.0854903 3.86605 0
M  V30 3415 H 316.796 0.47023 4.03167 0
M  V30 3416 H 317.562 2.94715 3.85186 0
M  V30 3417 H 313.441 1.78719 4.24948 0
M  V30 3418 H 316.985 5.21835 4.62962 0
M  V30 3419 H 312.882 4.04936 5.0269 0
M  V30 3420 H 313.65 6.0736 5.48685 0
M  V30 3421 N 316.313 -1.40141 0.720998 0
M  V30 3422 C 317.559 -2.01084 0.263231 0
M  V30 3423 C 317.892 -1.57052 -1.14229 0
M  V30 3424 O 317.167 -0.793027 -1.77599 0
M  V30 3425 C 317.45 -3.58401 0.349344 0
M  V30 3426 C 317.303 -4.12491 1.79363 0
M  V30 3427 C 318.622 -4.39231 -0.276351 0
M  V30 3428 H 315.741 -0.730572 0.0971228 0
M  V30 3429 H 318.383 -1.66543 0.914518 0
M  V30 3430 H 316.533 -3.87958 -0.205165 0
M  V30 3431 H 318.205 -3.93711 2.40394 0
M  V30 3432 H 316.448 -3.66576 2.31958 0
M  V30 3433 H 317.119 -5.21646 1.80524 0
M  V30 3434 H 319.595 -4.15637 0.196184 0
M  V30 3435 H 318.471 -5.48586 -0.185681 0
M  V30 3436 H 318.732 -4.20643 -1.36059 0
M  V30 3437 N 317.792 -0.46758 -1.50504 0
M  V30 3438 C 319.041 0.0902868 -2.01498 0
M  V30 3439 C 319.354 1.411 -1.35463 0
M  V30 3440 O 320.56 2.0536 -1.77594 0
M  V30 3441 C 319.016 0.21142 -3.59278 0
M  V30 3442 C 318.624 -1.10065 -4.34269 0
M  V30 3443 C 320.368 0.721433 -4.18325 0
M  V30 3444 C 318.275 -0.943505 -5.83825 0
M  V30 3445 H 317.205 0.037517 -0.753066 0
M  V30 3446 H 319.856 -0.601943 -1.73346 0
M  V30 3447 H 318.238 0.967352 -3.84003 0
M  V30 3448 H 319.412 -1.86726 -4.21272 0
M  V30 3449 H 317.727 -1.5415 -3.86816 0
M  V30 3450 H 320.324 0.85598 -5.27804 0
M  V30 3451 H 320.667 1.71186 -3.79475 0
M  V30 3452 H 321.2 0.0229843 -3.97793 0
M  V30 3453 H 317.939 -1.90719 -6.27141 0
M  V30 3454 H 317.459 -0.217213 -5.99407 0
M  V30 3455 H 319.138 -0.608715 -6.4413 0
M  V30 3456 N 319.27 1.56325 -0.20005 0
M  V30 3457 C 320.519 1.96895 0.437652 0
M  V30 3458 C 320.832 1.08999 1.62415 0
M  V30 3459 O 322.038 1.39372 2.32997 0
M  V30 3460 C 320.494 3.50198 0.830025 0
M  V30 3461 C 320.102 4.46765 -0.332461 0
M  V30 3462 C 321.846 3.99526 1.43453 0
M  V30 3463 C 319.753 5.91344 0.0811468 0
M  V30 3464 H 318.683 0.735209 0.167282 0
M  V30 3465 H 321.334 1.81148 -0.292853 0
M  V30 3466 H 319.716 3.61467 1.61734 0
M  V30 3467 H 320.89 4.47231 -1.11 0
M  V30 3468 H 319.205 4.07657 -0.848789 0
M  V30 3469 H 321.802 5.05025 1.75652 0
M  V30 3470 H 322.145 3.44122 2.34277 0
M  V30 3471 H 322.678 3.91393 0.71109 0
M  V30 3472 H 319.417 6.50685 -0.793033 0
M  V30 3473 H 318.937 5.94121 0.823445 0
M  V30 3474 H 320.616 6.44945 0.515252 0
M  V30 3475 N 320.748 -0.0735177 1.57428 0
M  V30 3476 C 321.695 -1.08756 2.0357 0
M  V30 3477 C 322.665 -1.38559 0.916 0
M  V30 3478 O 323.85 -1.49656 1.18354 0
M  V30 3479 C 320.99 -2.39657 2.48311 0
M  V30 3480 C 320.103 -2.16399 3.73892 0
M  V30 3481 C 319.238 -3.40852 4.07423 0
M  V30 3482 C 318.277 -3.1295 5.2605 0
M  V30 3483 N 317.414 -4.29729 5.55228 0
M  V30 3484 H 322.254 -0.687104 2.8997 0
M  V30 3485 H 319.791 -0.327709 1.43403 0
M  V30 3486 H 321.749 -3.16081 2.72303 0
M  V30 3487 H 320.379 -2.77508 1.64891 0
M  V30 3488 H 319.431 -1.30676 3.57251 0
M  V30 3489 H 320.743 -1.91788 4.60455 0
M  V30 3490 H 319.897 -4.25671 4.32306 0
M  V30 3491 H 318.636 -3.68537 3.19425 0
M  V30 3492 H 317.641 -2.26526 5.00965 0
M  V30 3493 H 318.866 -2.86589 6.15665 0
M  V30 3494 H 316.812 -4.57448 4.70188 0
M  V30 3495 H 316.729 -4.08385 6.36206 0
M  V30 3496 H 317.997 -5.1555 5.84661 0
M  V30 3497 N 322.226 -1.5378 -0.344866 0
M  V30 3498 C 323.637 -1.62428 -0.920552 0
M  V30 3499 C 323.988 -0.504747 -1.89596 0
M  V30 3500 O 323.113 0.365711 -2.13287 0
M  V30 3501 C 323.708 -2.94419 -1.67639 0
M  V30 3502 C 322.267 -3.05333 -2.20111 0
M  V30 3503 C 321.414 -2.57866 -1.01982 0
M  V30 3504 H 324.365 -1.58222 -0.123042 0
M  V30 3505 H 324.386 -2.83384 -2.53917 0
M  V30 3506 H 323.898 -3.7588 -0.966224 0
M  V30 3507 H 321.999 -2.28502 -2.94308 0
M  V30 3508 H 322.112 -4.10778 -2.46573 0
M  V30 3509 H 320.476 -2.13241 -1.39285 0
M  V30 3510 H 321.259 -3.41765 -0.324308 0
M  V30 3511 N 323.704 0.605807 -1.45491 0
M  V30 3512 C 324.634 1.72709 -1.57143 0
M  V30 3513 C 325.615 1.6476 -0.422884 0
M  V30 3514 O 326.8 1.83132 -0.646247 0
M  V30 3515 C 323.93 3.11316 -1.53948 0
M  V30 3516 C 322.884 3.34077 -2.67537 0
M  V30 3517 C 322.21 4.72975 -2.49397 0
M  V30 3518 C 323.51 3.24158 -4.09535 0
M  V30 3519 H 325.204 1.63214 -2.51001 0
M  V30 3520 H 322.75 0.78379 -1.208 0
M  V30 3521 H 324.703 3.89557 -1.60696 0
M  V30 3522 H 323.427 3.21655 -0.566205 0
M  V30 3523 H 322.086 2.58227 -2.6022 0
M  V30 3524 H 321.734 4.8005 -1.50205 0
M  V30 3525 H 321.434 4.8916 -3.25571 0
M  V30 3526 H 322.958 5.53414 -2.58002 0
M  V30 3527 H 324.372 3.92271 -4.18086 0
M  V30 3528 H 322.769 3.51872 -4.86113 0
M  V30 3529 H 323.839 2.2157 -4.31317 0
M  V30 3530 N 325.182 1.32811 0.848464 0
M  V30 3531 C 326.428 1.23907 1.60546 0
M  V30 3532 C 326.761 -0.197161 1.93197 0
M  V30 3533 O 326.036 -1.13596 1.5788 0
M  V30 3534 C 326.319 2.10489 2.92175 0
M  V30 3535 C 326.172 3.62522 2.66266 0
M  V30 3536 C 327.491 1.97075 3.93509 0
M  V30 3537 H 324.61 0.451459 0.58254 0
M  V30 3538 H 327.252 1.62818 0.979296 0
M  V30 3539 H 325.402 1.77434 3.45614 0
M  V30 3540 H 327.074 4.05821 2.19334 0
M  V30 3541 H 325.317 3.84879 2.00126 0
M  V30 3542 H 325.988 4.18437 3.6002 0
M  V30 3543 H 328.464 2.26045 3.49346 0
M  V30 3544 H 327.34 2.59923 4.83457 0
M  V30 3545 H 327.601 0.940186 4.31987 0
M  V30 3546 N 326.66 -1.06551 1.16123 0
M  V30 3547 C 327.906 -1.79719 0.952505 0
M  V30 3548 C 328.261 -1.85396 -0.514385 0
M  V30 3549 O 327.554 -1.33263 -1.37665 0
M  V30 3550 C 327.748 -3.23911 1.51052 0
M  V30 3551 C 327.577 -3.32284 3.03013 0
M  V30 3552 C 326.347 -3.42371 3.71632 0
M  V30 3553 C 328.545 -3.22363 4.00732 0
M  V30 3554 N 326.527 -3.39732 5.11327 0
M  V30 3555 C 327.898 -3.26937 5.26794 0
M  V30 3556 C 329.953 -3.0623 3.92591 0
M  V30 3557 C 328.656 -3.17035 6.45663 0
M  V30 3558 C 330.682 -2.97665 5.11028 0
M  V30 3559 C 330.044 -3.02858 6.35969 0
M  V30 3560 H 326.143 -0.670585 0.402293 0
M  V30 3561 H 328.727 -1.27125 1.4747 0
M  V30 3562 H 326.898 -3.74907 1.01484 0
M  V30 3563 H 328.63 -3.85242 1.2398 0
M  V30 3564 H 325.385 -3.47058 3.22254 0
M  V30 3565 H 325.809 -3.41919 5.84312 0
M  V30 3566 H 330.451 -3.01063 2.96852 0
M  V30 3567 H 328.169 -3.2096 7.41627 0
M  V30 3568 H 331.755 -2.86273 5.06497 0
M  V30 3569 H 330.635 -2.96286 7.26075 0
M  V30 3570 N 328.138 -0.959301 -1.25041 0
M  V30 3571 C 329.384 -0.617525 -1.9317 0
M  V30 3572 C 329.717 0.843981 -1.74902 0
M  V30 3573 O 328.992 1.60615 -1.09696 0
M  V30 3574 C 329.275 -0.982736 -3.46431 0
M  V30 3575 C 329.128 -2.50032 -3.73904 0
M  V30 3576 C 330.447 -0.511176 -4.37121 0
M  V30 3577 H 327.566 -0.22582 -0.701552 0
M  V30 3578 H 330.208 -1.19679 -1.4757 0
M  V30 3579 H 328.358 -0.489806 -3.854 0
M  V30 3580 H 330.03 -3.06737 -3.44544 0
M  V30 3581 H 328.273 -2.93598 -3.19348 0
M  V30 3582 H 328.944 -2.70635 -4.81103 0
M  V30 3583 H 331.42 -0.934075 -4.0548 0
M  V30 3584 H 330.296 -0.795361 -5.43107 0
M  V30 3585 H 330.557 0.588834 -4.38161 0
M  V30 3586 O 329.655 1.36296 -0.866345 0
M  V30 3587 H 330.346 1.88046 -0.464585 0
M  V30 END ATOM
M  V30 BEGIN BOND
M  V30 END BOND
M  V30 END CTAB
M  END
$$$$
