drugbank_target|P02974 Fimbrial protein (DB04079; DB04522; DB06838)
 OpenBabel12092119583D

  0  0  0     0  0            999 V3000
M  V30 BEGIN CTAB
M  V30 COUNTS 2533 2554 0 0 0
M  V30 BEGIN ATOM
M  V30 1 H -0.908 1.98254 -0.117106 0
M  V30 2 N 0 1.576 0 0
M  V30 3 C 0.933 2.03868 1.02534 0
M  V30 4 C 1.911 0.928543 1.3348 0
M  V30 5 O 3.095 1.19667 1.45644 0
M  V30 6 C 0.222 2.43627 2.35294 0
M  V30 7 C -0.732 3.65373 2.2001 0
M  V30 8 S 0.101 5.13292 1.52614 0
M  V30 9 C 1.257 5.56322 2.86805 0
M  V30 10 H 1.49 2.90518 0.631377 0
M  V30 11 H -0.977 1.52953 0.210867 0
M  V30 12 H 0.981 2.67203 3.11629 0
M  V30 13 H -0.358 1.57376 2.7183 0
M  V30 14 H -1.165 3.90944 3.18086 0
M  V30 15 H -1.563 3.418 1.51819 0
M  V30 16 H 0.729 5.58782 3.83104 0
M  V30 17 H 1.672 6.56266 2.65933 0
M  V30 18 H 2.08 4.83886 2.90714 0
M  V30 19 N 1.4781 -0.272755 1.55222 0
M  V30 20 C 2.4261 -1.35705 1.88909 0
M  V30 21 C 3.4201 -1.5112 0.765456 0
M  V30 22 O 4.6261 -1.52901 0.949802 0
M  V30 23 H 1.0011 -0.453868 0.59959 0
M  V30 24 H 2.9721 -1.04544 2.79487 0
M  V30 25 C 1.7211 -2.71049 2.17779 0
M  V30 26 H 1.0441 -2.59979 3.03728 0
M  V30 27 H 2.4841 -3.45858 2.45272 0
M  V30 28 C 0.9431 -3.22165 0.985473 0
M  V30 29 O 1.4731 -4.01096 0.220233 0
M  V30 30 N -0.3209 -2.7985 0.783108 0
M  V30 31 H -0.7739 -2.15775 1.40708 0
M  V30 32 H -0.8159 -3.14397 -0.0130392 0
M  V30 33 N 2.9562 -1.48159 -0.537278 0
M  V30 34 C 4.1842 -1.59454 -1.31841 0
M  V30 35 C 4.5992 -0.252065 -1.8711 0
M  V30 36 O 3.9562 0.757621 -1.66031 0
M  V30 37 C 4.0072 -2.63546 -2.47439 0
M  V30 38 O 3.7282 -3.92583 -1.94449 0
M  V30 39 C 5.2292 -2.85212 -3.39366 0
M  V30 40 H 2.4492 -0.53785 -0.401196 0
M  V30 41 H 4.9932 -1.93932 -0.648891 0
M  V30 42 H 3.1482 -2.31946 -3.1029 0
M  V30 43 H 3.5622 -4.49629 -2.70063 0
M  V30 44 H 5.0362 -3.61863 -4.16844 0
M  V30 45 H 5.5132 -1.93765 -3.94147 0
M  V30 46 H 6.1192 -3.18086 -2.82314 0
M  V30 47 N 4.4343 0.785586 -1.36625 0
M  V30 48 C 5.3643 1.91259 -1.33949 0
M  V30 49 C 6.3453 1.68795 -0.210325 0
M  V30 50 O 7.5303 1.89854 -0.408561 0
M  V30 51 C 4.6603 3.28339 -1.13186 0
M  V30 52 C 3.6143 3.65335 -2.22967 0
M  V30 53 C 2.9403 5.00806 -1.87342 0
M  V30 54 C 4.2403 3.7352 -3.65075 0
M  V30 55 H 5.9343 1.93755 -2.28253 0
M  V30 56 H 3.4803 0.930788 -1.09874 0
M  V30 57 H 5.4333 4.06804 -1.09948 0
M  V30 58 H 4.1573 3.2624 -0.153332 0
M  V30 59 H 2.8163 2.89169 -2.25337 0
M  V30 60 H 2.4643 4.95233 -0.880545 0
M  V30 61 H 2.1643 5.26529 -2.60846 0
M  V30 62 H 3.6883 5.81687 -1.85667 0
M  V30 63 H 5.1023 4.42168 -3.64911 0
M  V30 64 H 3.4993 4.10731 -4.37516 0
M  V30 65 H 4.5693 2.74527 -3.99703 0
M  V30 66 N 5.9124 1.20967 1.01018 0
M  V30 67 C 6.8444 0.922059 2.09835 0
M  V30 68 C 7.8574 -0.0927106 1.62536 0
M  V30 69 O 9.0464 0.139127 1.77957 0
M  V30 70 C 6.1464 0.362004 3.36961 0
M  V30 71 C 5.3194 1.42986 4.13369 0
M  V30 72 C 4.3784 0.879976 5.1879 0
M  V30 73 O 3.4044 1.56219 5.47343 0
M  V30 74 N 4.6064 -0.307396 5.79686 0
M  V30 75 H 7.3714 1.8588 2.35093 0
M  V30 76 H 4.9324 1.11422 1.1746 0
M  V30 77 H 6.9244 -0.0201474 4.04695 0
M  V30 78 H 5.4944 -0.479437 3.08902 0
M  V30 79 H 4.7144 1.98608 3.40512 0
M  V30 80 H 6.0024 2.14885 4.61196 0
M  V30 81 H 5.4004 -0.878796 5.58832 0
M  V30 82 H 3.9574 -0.631115 6.48737 0
M  V30 83 N 7.3905 -1.2043 1.01659 0
M  V30 84 C 8.3375 -2.23215 0.586822 0
M  V30 85 C 9.3075 -1.61382 -0.393085 0
M  V30 86 O 10.4925 -1.88544 -0.292525 0
M  V30 87 C 7.6325 -3.45032 -0.0687464 0
M  V30 88 C 6.7455 -4.21296 0.955724 0
M  V30 89 C 5.8805 -5.30507 0.271208 0
M  V30 90 C 4.9195 -5.98515 1.28244 0
M  V30 91 N 4.0565 -6.99316 0.62459 0
M  V30 92 H 8.8965 -2.59336 1.46796 0
M  V30 93 H 6.4335 -1.27431 0.734836 0
M  V30 94 H 8.3915 -4.1459 -0.465965 0
M  V30 95 H 7.0215 -3.09604 -0.913529 0
M  V30 96 H 6.0735 -3.50803 1.4711 0
M  V30 97 H 7.3855 -4.6803 1.72479 0
M  V30 98 H 6.5395 -6.06428 -0.18151 0
M  V30 99 H 5.2785 -4.8481 -0.530163 0
M  V30 100 H 4.2835 -5.21355 1.74554 0
M  V30 101 H 5.5085 -6.46298 2.08509 0
M  V30 102 H 3.4545 -6.55812 -0.156914 0
M  V30 103 H 3.3715 -7.44178 1.33172 0
M  V30 104 H 4.6395 -7.79255 0.195462 0
M  V30 105 N 8.8686 -0.792821 -1.36206 0
M  V30 106 C 10.1166 -0.366062 -1.98757 0
M  V30 107 C 10.4376 1.0668 -1.63231 0
M  V30 108 O 9.7076 1.73587 -0.907978 0
M  V30 109 H 8.2876 -0.132364 -0.735179 0
M  V30 110 H 10.9496 -1.01562 -1.66347 0
M  V30 111 H 10.0456 -0.460638 -3.08682 0
M  V30 112 N 10.3467 1.47872 -0.545128 0
M  V30 113 C 11.5937 2.02493 -0.0165858 0
M  V30 114 C 11.9217 1.42073 1.32836 0
M  V30 115 O 11.1767 0.561459 1.87473 0
M  V30 116 C 11.4757 3.57131 0.13867 0
M  V30 117 C 11.1417 4.36411 -1.13384 0
M  V30 118 C 9.8037 4.57792 -1.48256 0
M  V30 119 C 12.1557 4.82223 -1.97764 0
M  V30 120 C 9.4837 5.22233 -2.67376 0
M  V30 121 C 11.8357 5.47977 -3.16076 0
M  V30 122 C 10.4997 5.67593 -3.51275 0
M  V30 123 H 9.7697 0.740975 -0.00606918 0
M  V30 124 H 12.4167 1.77683 -0.714207 0
M  V30 125 H 10.7217 3.80865 0.919172 0
M  V30 126 H 12.4187 3.97031 0.562782 0
M  V30 127 H 9.0087 4.2004 -0.852297 0
M  V30 128 H 13.1927 4.65493 -1.72132 0
M  V30 129 H 8.4487 5.35616 -2.94831 0
M  V30 130 H 12.6227 5.8244 -3.81755 0
M  V30 131 H 10.2497 6.17298 -4.43675 0
M  V30 132 N 11.8248 0.280983 1.55075 0
M  V30 133 C 13.0528 -0.337293 2.04132 0
M  V30 134 C 13.4678 -1.4903 1.15912 0
M  V30 135 O 12.8248 -1.81606 0.180459 0
M  V30 136 C 12.8758 -0.812706 3.52246 0
M  V30 137 O 12.5968 0.294387 4.3711 0
M  V30 138 C 14.0978 -1.4982 4.17216 0
M  V30 139 H 11.3178 -0.0761638 0.666663 0
M  V30 140 H 13.8618 0.414787 2.00249 0
M  V30 141 H 12.0168 -1.51486 3.56554 0
M  V30 142 H 12.4308 -0.0721325 5.2445 0
M  V30 143 H 13.9048 -1.7822 5.22438 0
M  V30 144 H 14.3818 -2.43168 3.65741 0
M  V30 145 H 14.9878 -0.839742 4.16927 0
M  V30 146 N 13.3029 -1.57598 0.00835791 0
M  V30 147 C 14.2329 -2.1198 -0.979113 0
M  V30 148 C 15.2139 -1.03091 -1.35301 0
M  V30 149 O 16.3989 -1.30818 -1.43528 0
M  V30 150 C 13.5289 -2.62995 -2.26828 0
M  V30 151 C 12.4829 -3.76485 -2.03576 0
M  V30 152 C 11.8089 -4.13846 -3.38579 0
M  V30 153 C 13.1089 -5.0342 -1.39161 0
M  V30 154 H 14.8029 -2.94738 -0.526281 0
M  V30 155 H 12.3489 -1.41783 -0.251704 0
M  V30 156 H 14.3019 -2.99669 -2.96271 0
M  V30 157 H 13.0259 -1.7737 -2.7424 0
M  V30 158 H 11.6849 -3.40217 -1.36557 0
M  V30 159 H 11.3329 -3.25232 -3.83709 0
M  V30 160 H 11.0329 -4.90312 -3.23834 0
M  V30 161 H 12.5569 -4.53086 -4.09323 0
M  V30 162 H 13.9709 -5.37812 -1.98573 0
M  V30 163 H 12.3679 -5.84746 -1.34878 0
M  V30 164 H 13.4379 -4.83548 -0.361868 0
M  V30 165 N 14.781 0.264519 -1.55364 0
M  V30 166 C 16.03 0.992812 -1.75574 0
M  V30 167 C 16.343 1.87142 -0.568979 0
M  V30 168 O 17.549 2.63513 -0.653682 0
M  V30 169 C 16.005 1.81519 -3.10771 0
M  V30 170 C 15.613 0.984839 -4.37041 0
M  V30 171 C 17.357 2.53727 -3.40327 0
M  V30 172 C 15.264 1.80209 -5.63275 0
M  V30 173 H 14.194 0.374412 -0.65447 0
M  V30 174 H 16.845 0.248138 -1.81815 0
M  V30 175 H 15.227 2.60115 -2.98591 0
M  V30 176 H 16.401 0.242455 -4.60162 0
M  V30 177 H 14.716 0.37691 -4.14691 0
M  V30 178 H 17.313 3.15292 -4.3185 0
M  V30 179 H 17.656 3.24447 -2.60845 0
M  V30 180 H 18.189 1.82156 -3.53644 0
M  V30 181 H 14.928 1.13896 -6.45529 0
M  V30 182 H 14.448 2.52022 -5.44284 0
M  V30 183 H 16.127 2.37364 -6.01887 0
M  V30 184 N 16.2591 1.48442 0.529413 0
M  V30 185 C 17.1691 1.6569 1.66084 0
M  V30 186 C 18.1851 0.539432 1.65427 0
M  V30 187 O 19.3611 0.810572 1.84368 0
M  V30 188 C 16.4261 1.69315 3.02545 0
M  V30 189 C 15.4871 2.92694 3.14052 0
M  V30 190 C 14.7201 2.96137 4.44003 0
M  V30 191 O 14.9431 2.07973 5.31134 0
M  V30 192 O 13.8771 3.88312 4.59888 0
M  V30 193 H 17.7031 2.61483 1.54469 0
M  V30 194 H 15.2881 1.3185 0.702567 0
M  V30 195 H 17.1701 1.74217 3.83701 0
M  V30 196 H 15.8451 0.766966 3.14483 0
M  V30 197 H 14.7521 2.93324 2.32189 0
M  V30 198 H 16.0851 3.84699 3.0703 0
M  V30 199 N 17.7372 -0.778329 1.37039 0
M  V30 200 C 18.6672 -1.90546 1.34962 0
M  V30 201 C 19.6482 -1.68681 0.219274 0
M  V30 202 O 20.8332 -1.89634 0.418624 0
M  V30 203 C 17.9632 -3.27734 1.14925 0
M  V30 204 C 16.9172 -3.64147 2.24902 0
M  V30 205 C 16.2432 -4.99806 1.89996 0
M  V30 206 C 17.5432 -3.71579 3.67051 0
M  V30 207 H 19.2372 -1.92541 2.29277 0
M  V30 208 H 16.7832 -0.924948 1.10366 0
M  V30 209 H 18.7362 -4.06215 1.12104 0
M  V30 210 H 17.4602 -3.26154 0.170631 0
M  V30 211 H 16.1192 -2.8797 2.26868 0
M  V30 212 H 15.7672 -4.94759 0.906796 0
M  V30 213 H 15.4672 -5.25139 2.63634 0
M  V30 214 H 16.9912 -5.80694 1.88749 0
M  V30 215 H 18.4052 -4.40227 3.67251 0
M  V30 216 H 16.8022 -4.08405 4.39688 0
M  V30 217 H 17.8722 -2.72404 4.01154 0
M  V30 218 N 19.2153 -1.21501 -1.00376 0
M  V30 219 C 20.1483 -0.918669 -2.08892 0
M  V30 220 C 21.1263 0.134277 -1.62045 0
M  V30 221 O 22.3103 0.00504255 -1.88499 0
M  V30 222 C 19.4373 -0.379645 -3.36566 0
M  V30 223 C 18.4833 -1.41559 -4.02323 0
M  V30 224 S 19.3163 -2.98521 -4.44574 0
M  V30 225 C 20.4723 -2.46228 -5.75433 0
M  V30 226 H 20.7053 -1.83761 -2.33707 0
M  V30 227 H 18.2383 -1.04489 -1.13673 0
M  V30 228 H 20.1963 -0.0752195 -4.10431 0
M  V30 229 H 18.8573 0.518008 -3.09799 0
M  V30 230 H 18.0503 -0.988076 -4.9422 0
M  V30 231 H 17.6523 -1.66815 -3.34737 0
M  V30 232 H 19.9443 -1.86791 -6.51241 0
M  V30 233 H 20.8873 -3.36572 -6.22997 0
M  V30 234 H 21.2953 -1.87894 -5.32312 0
M  V30 235 N 20.6934 1.19889 -1.02296 0
M  V30 236 C 21.9424 1.88743 -0.711257 0
M  V30 237 C 22.2554 1.80112 0.762817 0
M  V30 238 O 23.4614 2.44161 1.18733 0
M  V30 239 C 21.9174 3.38525 -1.22185 0
M  V30 240 C 21.5254 3.55727 -2.72328 0
M  V30 241 C 23.2694 4.12893 -0.985864 0
M  V30 242 C 21.1764 4.99369 -3.16835 0
M  V30 243 H 20.1064 0.706885 -0.262353 0
M  V30 244 H 22.7574 1.35586 -1.23648 0
M  V30 245 H 21.1394 3.91044 -0.624571 0
M  V30 246 H 22.3134 3.13564 -3.3766 0
M  V30 247 H 20.6284 2.94739 -2.9414 0
M  V30 248 H 23.2254 5.18813 -1.29374 0
M  V30 249 H 23.5684 4.16228 0.0775055 0
M  V30 250 H 24.1014 3.66494 -1.54684 0
M  V30 251 H 20.8404 5.01193 -4.22476 0
M  V30 252 H 20.3604 5.42317 -2.56228 0
M  V30 253 H 22.0394 5.67988 -3.09837 0
M  V30 254 N 22.1715 0.800033 1.35784 0
M  V30 255 C 23.4175 0.377901 1.99248 0
M  V30 256 C 23.7505 -1.05052 1.63333 0
M  V30 257 O 23.0255 -1.72768 0.893385 0
M  V30 258 C 23.3085 0.553922 3.55814 0
M  V30 259 C 23.1615 2.0268 4.01548 0
M  V30 260 C 24.4805 -0.0244802 4.40093 0
M  V30 261 H 21.5995 0.138782 0.723815 0
M  V30 262 H 24.2415 1.00835 1.61035 0
M  V30 263 H 22.3915 0.0172398 3.88496 0
M  V30 264 H 24.0635 2.62536 3.79305 0
M  V30 265 H 22.3065 2.5256 3.52698 0
M  V30 266 H 22.9775 2.10087 5.10458 0
M  V30 267 H 25.4535 0.433775 4.13833 0
M  V30 268 H 24.3295 0.128637 5.48749 0
M  V30 269 H 24.5905 -1.11758 4.27741 0
M  V30 270 N 23.6496 -1.47581 0.552962 0
M  V30 271 C 24.8986 -2.01684 0.0251995 0
M  V30 272 C 25.2116 -1.43317 -1.33115 0
M  V30 273 O 26.4176 -1.89057 -1.94858 0
M  V30 274 C 24.8736 -3.599 -0.00542052 0
M  V30 275 C 24.4816 -4.27257 1.34742 0
M  V30 276 C 26.2256 -4.21768 -0.4808 0
M  V30 277 C 24.1326 -5.77467 1.27614 0
M  V30 278 H 23.0626 -0.753979 0.00565033 0
M  V30 279 H 25.7136 -1.69616 0.70018 0
M  V30 280 H 24.0956 -3.88911 -0.745961 0
M  V30 281 H 25.2696 -4.09893 2.10534 0
M  V30 282 H 23.5846 -3.77358 1.76039 0
M  V30 283 H 26.1816 -5.31838 -0.55246 0
M  V30 284 H 26.5246 -3.88651 -1.49184 0
M  V30 285 H 27.0576 -3.97273 0.204752 0
M  V30 286 H 23.7966 -6.15196 2.26304 0
M  V30 287 H 23.3166 -5.9718 0.55996 0
M  V30 288 H 24.9956 -6.3959 0.976421 0
M  V30 289 N 25.1277 -0.289203 -1.54924 0
M  V30 290 C 26.0907 0.579144 -2.21762 0
M  V30 291 C 27.0907 1.07047 -1.1999 0
M  V30 292 O 28.2807 0.968384 -1.44803 0
M  V30 293 C 25.4127 1.80055 -2.8947 0
M  V30 294 H 26.6057 -0.00464908 -2.999 0
M  V30 295 H 24.1587 -0.0399306 -1.56249 0
M  V30 296 H 24.8937 2.42449 -2.15381 0
M  V30 297 H 24.6787 1.45602 -3.64064 0
M  V30 298 H 26.1687 2.41773 -3.40493 0
M  V30 299 N 26.6058 1.57591 -0.0167156 0
M  V30 300 C 27.8548 1.90461 0.663877 0
M  V30 301 C 28.1678 0.893515 1.73999 0
M  V30 302 O 29.3738 1.11302 2.47637 0
M  V30 303 C 27.8298 3.38155 1.23204 0
M  V30 304 C 27.4378 4.47597 0.189866 0
M  V30 305 C 29.1818 3.80111 1.88986 0
M  V30 306 C 27.0888 5.86379 0.768964 0
M  V30 307 H 26.0188 0.710738 0.251729 0
M  V30 308 H 28.6698 1.83326 -0.0799926 0
M  V30 309 H 27.0518 3.40182 2.02712 0
M  V30 310 H 28.2258 4.57112 -0.581846 0
M  V30 311 H 26.5408 4.14766 -0.368475 0
M  V30 312 H 29.1378 4.81145 2.33247 0
M  V30 313 H 29.4808 3.14511 2.72743 0
M  V30 314 H 30.0138 3.80454 1.16187 0
M  V30 315 H 26.7528 6.55493 -0.0301957 0
M  V30 316 H 26.2728 5.80496 1.50945 0
M  V30 317 H 27.9518 6.34563 1.26251 0
M  V30 318 N 28.0839 -0.256276 1.55502 0
M  V30 319 C 29.3299 -0.987079 1.77157 0
M  V30 320 C 29.6629 -1.85327 0.580315 0
M  V30 321 O 28.9379 -1.89874 -0.421686 0
M  V30 322 C 29.2209 -1.85553 3.08613 0
M  V30 323 C 29.0739 -1.01816 4.38125 0
M  V30 324 C 30.3929 -2.8397 3.36228 0
M  V30 325 H 27.5119 -0.357428 0.644526 0
M  V30 326 H 30.1539 -0.258239 1.88237 0
M  V30 327 H 28.3039 -2.47695 2.99298 0
M  V30 328 H 29.9759 -0.416159 4.59419 0
M  V30 329 H 28.2189 -0.322178 4.32602 0
M  V30 330 H 28.8899 -1.65939 5.26468 0
M  V30 331 H 31.3659 -2.31964 3.45445 0
M  V30 332 H 30.2419 -3.41864 4.29442 0
M  V30 333 H 30.5029 -3.59955 2.56681 0
M  V30 334 N 29.562 -1.4872 -0.521534 0
M  V30 335 C 30.81 -1.56857 -1.27437 0
M  V30 336 C 31.131 -0.247982 -1.93417 0
M  V30 337 O 30.401 0.731151 -1.81744 0
M  V30 338 H 28.981 -0.577885 -0.473347 0
M  V30 339 H 31.643 -1.85233 -0.606205 0
M  V30 340 H 30.739 -2.35402 -2.0492 0
M  V30 341 N 31.0401 0.771051 -1.3745 0
M  V30 342 C 32.2891 1.52491 -1.3202 0
M  V30 343 C 32.6021 1.9538 0.0927347 0
M  V30 344 O 33.8081 2.70159 0.269503 0
M  V30 345 C 32.2641 2.75366 -2.31736 0
M  V30 346 C 31.8721 2.39573 -3.78562 0
M  V30 347 C 33.6161 3.53307 -2.35318 0
M  V30 348 C 31.5231 3.58954 -4.70007 0
M  V30 349 H 30.4531 0.572506 -0.490666 0
M  V30 350 H 33.1041 0.844474 -1.62914 0
M  V30 351 H 31.4861 3.45303 -1.93861 0
M  V30 352 H 32.6601 1.77415 -4.25277 0
M  V30 353 H 30.9751 1.74805 -3.77932 0
M  V30 354 H 33.5721 4.42039 -3.00842 0
M  V30 355 H 33.9151 3.93217 -1.36698 0
M  V30 356 H 34.4481 2.90367 -2.71904 0
M  V30 357 H 31.1871 3.24125 -5.69757 0
M  V30 358 H 30.7071 4.20214 -4.27996 0
M  V30 359 H 32.3861 4.25758 -4.87175 0
M  V30 360 N 32.5182 1.22032 0.997298 0
M  V30 361 C 33.4482 1.01065 2.10495 0
M  V30 362 C 34.4292 -0.0669542 1.69968 0
M  V30 363 O 35.6142 0.0943987 1.9397 0
M  V30 364 C 32.7442 0.582874 3.42374 0
M  V30 365 C 31.6982 1.60592 3.96729 0
M  V30 366 C 31.0242 1.03412 5.24605 0
M  V30 367 C 32.3242 2.99478 4.27914 0
M  V30 368 H 34.0182 1.93708 2.28292 0
M  V30 369 H 31.5642 0.932761 1.09707 0
M  V30 370 H 33.5172 0.423332 4.19268 0
M  V30 371 H 32.2412 -0.379213 3.24391 0
M  V30 372 H 30.9002 1.75316 3.21963 0
M  V30 373 H 30.5482 0.063518 5.0296 0
M  V30 374 H 30.2482 1.71754 5.61938 0
M  V30 375 H 31.7722 0.886066 6.04137 0
M  V30 376 H 33.1862 2.88153 4.95622 0
M  V30 377 H 31.5832 3.64903 4.76409 0
M  V30 378 H 32.6532 3.49742 3.3587 0
M  V30 379 N 33.9963 -1.19345 1.0293 0
M  V30 380 C 34.9593 -2.20793 0.615069 0
M  V30 381 C 35.9593 -1.57553 -0.321533 0
M  V30 382 O 37.1493 -1.73862 -0.108483 0
M  V30 383 C 34.2813 -3.40754 -0.0999222 0
M  V30 384 H 35.4743 -2.58955 1.51269 0
M  V30 385 H 33.0273 -1.3303 0.820534 0
M  V30 386 H 33.7623 -3.0811 -1.01187 0
M  V30 387 H 33.5473 -3.87889 0.57309 0
M  V30 388 H 35.0373 -4.15898 -0.376645 0
M  V30 389 N 35.4744 -0.807222 -1.35358 0
M  V30 390 C 36.4374 -0.223665 -2.28106 0
M  V30 391 C 37.4374 0.589354 -1.4961 0
M  V30 392 O 38.6274 0.407745 -1.69361 0
M  V30 393 C 35.7594 0.688149 -3.33882 0
M  V30 394 H 36.9524 -1.04169 -2.81227 0
M  V30 395 H 34.5054 -0.577921 -1.45223 0
M  V30 396 H 35.2404 1.52984 -2.85948 0
M  V30 397 H 35.0254 0.10687 -3.91954 0
M  V30 398 H 36.5154 1.09075 -4.03104 0
M  V30 399 N 36.9525 1.47285 -0.560781 0
M  V30 400 C 38.1985 2.02764 -0.0381184 0
M  V30 401 C 38.5315 1.43384 1.30976 0
M  V30 402 O 37.8065 0.590733 1.85312 0
M  V30 403 C 38.0895 3.60064 0.0511427 0
M  V30 404 C 37.9425 4.2987 -1.32408 0
M  V30 405 C 39.2615 4.33439 0.762795 0
M  V30 406 H 36.3805 0.736841 -0.0153264 0
M  V30 407 H 39.0225 1.75675 -0.723759 0
M  V30 408 H 37.1725 3.83274 0.635065 0
M  V30 409 H 38.8445 4.17989 -1.95148 0
M  V30 410 H 37.0875 3.90085 -1.8978 0
M  V30 411 H 37.7585 5.38478 -1.21431 0
M  V30 412 H 40.2345 4.15243 0.266965 0
M  V30 413 H 39.1105 5.43124 0.794221 0
M  V30 414 H 39.3715 4.02915 1.81966 0
M  V30 415 N 38.4306 0.297415 1.54768 0
M  V30 416 C 39.3936 -0.567375 2.22066 0
M  V30 417 C 40.3936 -1.06409 1.20556 0
M  V30 418 O 41.5836 -0.960691 1.45315 0
M  V30 419 C 38.7156 -1.78517 2.90421 0
M  V30 420 H 39.9086 0.0205534 2.99893 0
M  V30 421 H 37.4616 0.0482163 1.56226 0
M  V30 422 H 38.1966 -2.41303 2.16664 0
M  V30 423 H 37.9816 -1.43669 3.64831 0
M  V30 424 H 39.4716 -2.39964 3.41771 0
M  V30 425 N 39.9087 -1.5758 0.0250728 0
M  V30 426 C 40.8387 -2.13007 -0.956575 0
M  V30 427 C 41.8197 -1.0452 -1.342 0
M  V30 428 O 43.0047 -1.32332 -1.42133 0
M  V30 429 C 40.1347 -2.65386 -2.24026 0
M  V30 430 C 39.0887 -3.78623 -1.99571 0
M  V30 431 C 38.4147 -4.17414 -3.3417 0
M  V30 432 C 39.7147 -5.04867 -1.33814 0
M  V30 433 H 41.4087 -2.9528 -0.494991 0
M  V30 434 H 38.9547 -1.42042 -0.236651 0
M  V30 435 H 40.9077 -3.02794 -2.93076 0
M  V30 436 H 39.6317 -1.80268 -2.72343 0
M  V30 437 H 38.2907 -3.41646 -1.32941 0
M  V30 438 H 37.9387 -3.29284 -3.80238 0
M  V30 439 H 37.6387 -4.93719 -3.18615 0
M  V30 440 H 39.1627 -4.57402 -4.04495 0
M  V30 441 H 40.5767 -5.39888 -1.92857 0
M  V30 442 H 38.9737 -5.86144 -1.28669 0
M  V30 443 H 40.0437 -4.83904 -0.310561 0
M  V30 444 N 41.3868 0.248026 -1.55636 0
M  V30 445 C 42.7978 0.817177 -1.67866 0
M  V30 446 C 43.1488 1.86069 -0.622322 0
M  V30 447 O 42.2738 2.15157 0.231618 0
M  V30 448 C 42.8688 1.489 -3.04326 0
M  V30 449 C 41.4278 2.00587 -3.185 0
M  V30 450 C 40.5748 0.856573 -2.63739 0
M  V30 451 H 43.5258 0.0238579 -1.58682 0
M  V30 452 H 43.5468 2.35698 -2.98708 0
M  V30 453 H 43.0588 0.729279 -3.81186 0
M  V30 454 H 41.1598 2.79443 -2.4646 0
M  V30 455 H 41.2728 2.20402 -4.25393 0
M  V30 456 H 39.6368 1.25678 -2.21534 0
M  V30 457 H 40.4198 0.109953 -3.43124 0
M  V30 458 N 42.8649 1.48995 0.513639 0
M  V30 459 C 43.8279 1.64229 1.59879 0
M  V30 460 C 44.8279 0.514696 1.5234 0
M  V30 461 O 46.0179 0.78087 1.55718 0
M  V30 462 C 43.1499 1.62783 2.99524 0
M  V30 463 H 44.3429 2.61004 1.47705 0
M  V30 464 H 41.8959 1.37837 0.736936 0
M  V30 465 H 42.6309 0.675461 3.17188 0
M  V30 466 H 42.4159 2.4466 3.06404 0
M  V30 467 H 43.9059 1.76669 3.78388 0
M  V30 468 N 44.343 -0.763751 1.37857 0
M  V30 469 C 45.573 -1.55067 1.3652 0
M  V30 470 C 45.981 -1.89135 -0.0494227 0
M  V30 471 O 45.324 -1.52529 -1.02375 0
M  V30 472 C 45.386 -2.8838 2.14656 0
M  V30 473 C 45.05 -2.76905 3.63555 0
M  V30 474 C 46.047 -2.4739 4.57268 0
M  V30 475 C 43.732 -2.94676 4.06781 0
M  V30 476 C 45.726 -2.35786 5.92186 0
M  V30 477 C 43.413 -2.82692 5.41782 0
M  V30 478 C 44.411 -2.53289 6.34298 0
M  V30 479 O 44.099 -2.41345 7.66817 0
M  V30 480 H 43.831 -0.486776 0.469069 0
M  V30 481 H 46.385 -0.953812 1.81911 0
M  V30 482 H 44.615 -3.50217 1.63967 0
M  V30 483 H 46.304 -3.49828 2.05852 0
M  V30 484 H 47.07 -2.33339 4.2518 0
M  V30 485 H 42.949 -3.16563 3.35126 0
M  V30 486 H 46.493 -2.12757 6.64365 0
M  V30 487 H 42.39 -2.96314 5.7347 0
M  V30 488 H 43.158 -2.56634 7.77226 0
M  V30 489 N 45.8211 -1.22559 -0.990812 0
M  V30 490 C 46.7531 -0.955325 -2.08342 0
M  V30 491 C 47.7661 0.0668408 -1.62663 0
M  V30 492 O 48.9551 -0.167421 -1.77713 0
M  V30 493 C 46.0551 -0.415566 -3.36342 0
M  V30 494 C 45.2281 -1.49544 -4.11042 0
M  V30 495 C 44.2871 -0.962399 -5.17324 0
M  V30 496 O 43.3131 -1.64907 -5.44788 0
M  V30 497 N 44.5151 0.215134 -5.80101 0
M  V30 498 H 47.2801 -1.89596 -2.32106 0
M  V30 499 H 44.8411 -1.13276 -1.15673 0
M  V30 500 H 46.8331 -0.0442386 -4.04676 0
M  V30 501 H 45.4031 0.430232 -3.09625 0
M  V30 502 H 44.6231 -2.04 -3.37309 0
M  V30 503 H 45.9111 -2.22195 -4.57719 0
M  V30 504 H 45.3091 0.789779 -5.6016 0
M  V30 505 H 43.8661 0.527826 -6.49659 0
M  V30 506 N 47.2992 1.18797 -1.03562 0
M  V30 507 C 48.5762 1.84469 -0.650434 0
M  V30 508 C 48.9562 1.92319 0.870433 0
M  V30 509 O 48.3042 1.44528 1.76986 0
M  V30 510 C 48.5142 3.2306 -1.32036 0
M  V30 511 C 49.8622 3.9915 -1.44792 0
M  V30 512 O 50.8862 3.32481 -1.27806 0
M  V30 513 O 49.7452 5.18587 -1.72423 0
M  V30 514 H 46.8392 0.795251 -0.226946 0
M  V30 515 H 49.3852 1.26231 -1.13419 0
M  V30 516 H 48.1572 3.1222 -2.3587 0
M  V30 517 H 47.7802 3.88949 -0.8249 0
M  V30 518 N 48.7773 0.814389 1.34928 0
M  V30 519 C 50.0073 0.41054 2.0248 0
M  V30 520 C 50.4153 -0.985625 1.61499 0
M  V30 521 O 49.7583 -1.64781 0.811976 0
M  V30 522 C 49.8203 0.423384 3.56998 0
M  V30 523 C 49.4843 1.77141 4.21272 0
M  V30 524 C 50.4813 2.73093 4.42398 0
M  V30 525 C 48.1663 2.05755 4.58225 0
M  V30 526 C 50.1603 3.95838 4.9959 0
M  V30 527 C 47.8473 3.28762 5.1513 0
M  V30 528 C 48.8453 4.23621 5.35755 0
M  V30 529 O 48.5333 5.44456 5.91458 0
M  V30 530 H 48.2653 0.163997 0.655806 0
M  V30 531 H 50.8193 1.10155 1.73364 0
M  V30 532 H 49.0493 -0.324276 3.85338 0
M  V30 533 H 50.7383 0.0407683 4.0588 0
M  V30 534 H 51.5043 2.5228 4.14222 0
M  V30 535 H 47.3833 1.32727 4.4148 0
M  V30 536 H 50.9273 4.69891 5.15605 0
M  V30 537 H 46.8243 3.49443 5.42734 0
M  V30 538 H 47.5923 5.4586 6.09901 0
M  V30 539 N 50.2554 -1.46986 0.568584 0
M  V30 540 C 51.4834 -2.0683 0.0539956 0
M  V30 541 C 51.8984 -1.41953 -1.24478 0
M  V30 542 O 51.2554 -0.519933 -1.74937 0
M  V30 543 C 51.3064 -3.61254 -0.133362 0
M  V30 544 O 51.0274 -4.237 1.11399 0
M  V30 545 C 52.5284 -4.37992 -0.683927 0
M  V30 546 H 49.7484 -0.669058 0.0510141 0
M  V30 547 H 52.2924 -1.88824 0.785234 0
M  V30 548 H 50.4474 -3.78735 -0.81477 0
M  V30 549 H 50.8614 -5.16388 0.91888 0
M  V30 550 H 52.3354 -5.46684 -0.764263 0
M  V30 551 H 52.8124 -4.05058 -1.69778 0
M  V30 552 H 53.4184 -4.25283 -0.0378494 0
M  V30 553 N 51.7335 -0.305618 -1.54608 0
M  V30 554 C 52.6965 0.555591 -2.22364 0
M  V30 555 C 53.6965 1.05768 -1.21119 0
M  V30 556 O 54.8865 0.952972 -1.45822 0
M  V30 557 C 52.0185 1.76974 -2.91364 0
M  V30 558 H 53.2115 -0.0364572 -2.99878 0
M  V30 559 H 50.7645 -0.0565007 -1.56198 0
M  V30 560 H 51.4995 2.40151 -2.17941 0
M  V30 561 H 51.2845 1.41732 -3.65588 0
M  V30 562 H 52.7745 2.38148 -3.43038 0
M  V30 563 N 53.2116 1.57565 -0.0334293 0
M  V30 564 C 54.6276 1.56297 0.322997 0
M  V30 565 C 54.8276 1.03945 1.7262 0
M  V30 566 O 53.8836 0.688109 2.42943 0
M  V30 567 C 55.1966 3.00232 0.167664 0
M  V30 568 C 56.7446 3.12078 0.240107 0
M  V30 569 C 57.2196 4.57859 0.113513 0
M  V30 570 N 58.7106 4.62887 0.170359 0
M  V30 571 C 59.4456 5.73319 0.0962517 0
M  V30 572 N 58.9416 6.92794 -0.0291881 0
M  V30 573 N 60.7346 5.61898 0.150551 0
M  V30 574 H 52.8856 1.89923 -0.950956 0
M  V30 575 H 55.1486 0.873824 -0.367608 0
M  V30 576 H 54.8546 3.42501 -0.799102 0
M  V30 577 H 54.7286 3.654 0.936083 0
M  V30 578 H 57.1156 2.69718 1.19733 0
M  V30 579 H 57.1966 2.49623 -0.558763 0
M  V30 580 H 56.8406 5.009 -0.840314 0
M  V30 581 H 56.7706 5.18299 0.931302 0
M  V30 582 H 59.2616 3.76954 0.26728 0
M  V30 583 H 59.5746 7.7276 -0.0789252 0
M  V30 584 H 57.9196 6.94971 -0.0640299 0
M  V30 585 H 61.1106 4.67448 0.246981 0
M  V30 586 H 61.2836 6.47938 0.0893365 0
M  V30 587 N 54.6897 -0.239769 1.55765 0
M  V30 588 C 55.6527 -1.28038 1.90103 0
M  V30 589 C 56.6527 -1.40723 0.778055 0
M  V30 590 O 57.8427 -1.39301 1.04599 0
M  V30 591 C 54.9747 -2.65702 2.13577 0
M  V30 592 H 56.1677 -0.988048 2.83157 0
M  V30 593 H 53.7207 -0.479382 1.48767 0
M  V30 594 H 54.4557 -3.00063 1.23015 0
M  V30 595 H 54.2407 -2.57875 2.95369 0
M  V30 596 H 55.7307 -3.40828 2.41301 0
M  V30 597 N 56.1678 -1.49265 -0.50573 0
M  V30 598 C 57.0998 -1.617 -1.62437 0
M  V30 599 C 58.1128 -0.499924 -1.54934 0
M  V30 600 O 59.3018 -0.771785 -1.60953 0
M  V30 601 C 56.4018 -1.5533 -3.01207 0
M  V30 602 C 55.5748 -2.8249 -3.33943 0
M  V30 603 C 54.6338 -2.69238 -4.52103 0
M  V30 604 O 53.6598 -3.43167 -4.5412 0
M  V30 605 N 54.8618 -1.80468 -5.51735 0
M  V30 606 H 57.6268 -2.58177 -1.52199 0
M  V30 607 H 55.1878 -1.46294 -0.693511 0
M  V30 608 H 57.1798 -1.44125 -3.78167 0
M  V30 609 H 55.7498 -0.667297 -3.05395 0
M  V30 610 H 54.9698 -3.08081 -2.45926 0
M  V30 611 H 56.2578 -3.66802 -3.5261 0
M  V30 612 H 55.6558 -1.19653 -5.52901 0
M  V30 613 H 54.2128 -1.75188 -6.27816 0
M  V30 614 N 57.6459 0.756429 -1.3826 0
M  V30 615 C 58.8919 1.51772 -1.34511 0
M  V30 616 C 59.2249 1.94089 0.0656691 0
M  V30 617 O 58.4999 1.65221 1.02626 0
M  V30 618 C 58.7829 2.77226 -2.29821 0
M  V30 619 C 58.6359 2.41065 -3.79747 0
M  V30 620 C 59.9549 3.79236 -2.23312 0
M  V30 621 H 57.0739 0.550578 -0.489931 0
M  V30 622 H 59.7159 0.866607 -1.69086 0
M  V30 623 H 57.8659 3.32784 -2.00467 0
M  V30 624 H 59.5379 1.91303 -4.19763 0
M  V30 625 H 57.7809 1.7356 -3.97567 0
M  V30 626 H 58.4519 3.3081 -4.41892 0
M  V30 627 H 60.9279 3.3321 -2.49219 0
M  V30 628 H 59.8039 4.64714 -2.92116 0
M  V30 629 H 60.0649 4.24615 -1.23102 0
M  V30 630 N 59.124 1.23083 0.984299 0
M  V30 631 C 60.349 1.088 1.76571 0
M  V30 632 C 60.774 -0.356657 1.84688 0
M  V30 633 O 60.132 -1.25788 1.30565 0
M  V30 634 C 60.18 1.71371 3.17277 0
M  V30 635 O 59.284 0.973213 4.00752 0
M  V30 636 H 58.625 0.381599 0.543395 0
M  V30 637 H 61.155 1.63057 1.23587 0
M  V30 638 H 61.165 1.76449 3.67872 0
M  V30 639 H 59.84 2.76493 3.10684 0
M  V30 640 H 58.417 0.999078 3.59267 0
M  V30 641 N 60.6021 -1.18246 1.0419 0
M  V30 642 C 61.5121 -2.25574 0.644476 0
M  V30 643 C 62.5281 -1.70845 -0.329826 0
M  V30 644 O 63.7041 -2.00554 -0.184443 0
M  V30 645 C 60.7691 -3.46697 0.014877 0
M  V30 646 C 59.8301 -4.16554 1.03834 0
M  V30 647 C 59.0631 -5.31894 0.438692 0
M  V30 648 O 59.2861 -5.65385 -0.754752 0
M  V30 649 O 58.2201 -5.90459 1.168 0
M  V30 650 H 62.0461 -2.61836 1.53869 0
M  V30 651 H 59.6311 -1.25352 0.812854 0
M  V30 652 H 61.5131 -4.20062 -0.335538 0
M  V30 653 H 60.1881 -3.12255 -0.853138 0
M  V30 654 H 59.0951 -3.45251 1.44057 0
M  V30 655 H 60.4281 -4.54998 1.87716 0
M  V30 656 N 62.0802 -0.821533 -1.34494 0
M  V30 657 C 63.0432 -0.247847 -2.27856 0
M  V30 658 C 64.0432 0.573453 -1.50227 0
M  V30 659 O 65.2332 0.389759 -1.69784 0
M  V30 660 C 62.3652 0.652698 -3.34593 0
M  V30 661 H 63.5582 -1.07146 -2.80107 0
M  V30 662 H 61.1112 -0.593291 -1.44602 0
M  V30 663 H 61.8462 1.49943 -2.87555 0
M  V30 664 H 61.6312 0.065292 -3.92046 0
M  V30 665 H 63.1212 1.04793 -4.04238 0
M  V30 666 N 63.5583 1.46682 -0.576371 0
M  V30 667 C 64.8073 2.01619 -0.0572825 0
M  V30 668 C 65.1203 1.45417 1.30818 0
M  V30 669 O 66.3263 1.92133 1.91825 0
M  V30 670 C 64.7823 3.59863 -0.0518371 0
M  V30 671 C 64.3903 4.25059 -1.41523 0
M  V30 672 C 66.1343 4.2248 0.413639 0
M  V30 673 C 64.0413 5.75364 -1.36785 0
M  V30 674 H 62.9713 0.753794 -0.0176448 0
M  V30 675 H 65.6223 1.68481 -0.727076 0
M  V30 676 H 64.0043 3.90048 0.683994 0
M  V30 677 H 65.1783 4.06491 -2.17029 0
M  V30 678 H 63.4933 3.7451 -1.8202 0
M  V30 679 H 66.0903 5.3265 0.467779 0
M  V30 680 H 66.4333 3.90976 1.42982 0
M  V30 681 H 66.9663 3.96897 -0.267929 0
M  V30 682 H 63.7053 6.11518 -2.36063 0
M  V30 683 H 63.2253 5.96214 -0.654895 0
M  V30 684 H 64.9043 6.37955 -1.07805 0
M  V30 685 N 65.0364 0.313813 1.54444 0
M  V30 686 C 65.9664 -0.549454 2.26943 0
M  V30 687 C 66.9474 -1.12741 1.27372 0
M  V30 688 O 68.1324 -1.15436 1.56167 0
M  V30 689 C 65.2624 -1.71523 3.01989 0
M  V30 690 C 64.2164 -1.26703 4.08816 0
M  V30 691 C 63.5424 -2.51898 4.71647 0
M  V30 692 C 64.8424 -0.388962 5.2085 0
M  V30 693 H 66.5364 0.0552661 2.99349 0
M  V30 694 H 64.0824 0.0280207 1.43973 0
M  V30 695 H 66.0354 -2.32535 3.51433 0
M  V30 696 H 64.7594 -2.34639 2.27183 0
M  V30 697 H 63.4184 -0.679896 3.6024 0
M  V30 698 H 63.0664 -3.13356 3.93468 0
M  V30 699 H 62.7664 -2.22605 5.43802 0
M  V30 700 H 64.2904 -3.1369 5.23861 0
M  V30 701 H 65.7044 -0.905107 5.6611 0
M  V30 702 H 64.1014 -0.18924 5.99802 0
M  V30 703 H 65.1714 0.582699 4.81386 0
M  V30 704 N 66.5145 -1.57545 0.0417849 0
M  V30 705 C 67.4445 -2.14009 -0.933929 0
M  V30 706 C 68.4255 -1.05938 -1.33083 0
M  V30 707 O 69.6105 -1.33833 -1.40721 0
M  V30 708 C 66.7405 -2.67747 -2.21199 0
M  V30 709 C 65.6945 -3.80718 -1.95544 0
M  V30 710 C 65.0205 -4.20935 -3.29724 0
M  V30 711 C 66.3205 -5.06258 -1.28452 0
M  V30 712 H 68.0145 -2.95788 -0.463645 0
M  V30 713 H 65.5605 -1.42285 -0.221573 0
M  V30 714 H 67.5135 -3.05886 -2.89848 0
M  V30 715 H 66.2375 -1.83147 -2.70416 0
M  V30 716 H 64.8965 -3.43037 -1.2931 0
M  V30 717 H 64.5445 -3.33298 -3.76724 0
M  V30 718 H 64.2445 -4.9707 -3.13361 0
M  V30 719 H 65.7685 -4.61666 -3.9962 0
M  V30 720 H 67.1825 -5.41903 -1.8712 0
M  V30 721 H 65.5795 -5.87475 -1.22445 0
M  V30 722 H 66.6495 -4.84207 -0.259219 0
M  V30 723 N 67.9926 0.231505 -1.5589 0
M  V30 724 C 68.9556 1.27028 -1.90779 0
M  V30 725 C 69.9556 1.40308 -0.785507 0
M  V30 726 O 71.1456 1.38744 -1.05336 0
M  V30 727 C 68.2776 2.64566 -2.14983 0
M  V30 728 H 69.4706 0.973017 -2.83677 0
M  V30 729 H 67.0236 0.471486 -1.49019 0
M  V30 730 H 67.7586 2.99406 -1.24604 0
M  V30 731 H 67.5436 2.56305 -2.96732 0
M  V30 732 H 69.0336 3.39543 -2.43105 0
M  V30 733 N 69.4707 1.49531 0.497807 0
M  V30 734 C 70.3807 1.69176 1.62532 0
M  V30 735 C 71.3967 0.5744 1.64246 0
M  V30 736 O 72.5727 0.849497 1.82608 0
M  V30 737 C 69.6377 1.75695 2.98885 0
M  V30 738 C 68.6987 2.9929 3.07773 0
M  V30 739 C 67.9317 3.05488 4.37622 0
M  V30 740 O 68.1547 2.19192 5.26603 0
M  V30 741 O 67.0887 3.9798 4.51548 0
M  V30 742 H 70.9147 2.647 1.48887 0
M  V30 743 H 68.4997 1.3331 0.674441 0
M  V30 744 H 70.3817 1.82317 3.79919 0
M  V30 745 H 69.0567 0.8335 3.12785 0
M  V30 746 H 67.9637 2.98183 2.25915 0
M  V30 747 H 69.2967 3.91125 2.98801 0
M  V30 748 N 70.9488 -0.749086 1.3866 0
M  V30 749 C 72.1968 -1.50535 1.34847 0
M  V30 750 C 72.5178 -1.94909 -0.0595016 0
M  V30 751 O 71.7878 -1.67973 -1.00806 0
M  V30 752 H 70.3678 -0.558395 0.49619 0
M  V30 753 H 73.0298 -0.890165 1.73384 0
M  V30 754 H 72.1258 -2.39413 2.00219 0
M  V30 755 N 72.4269 -1.23603 -0.977757 0
M  V30 756 C 73.3589 -0.977369 -2.07317 0
M  V30 757 C 74.3719 0.0495845 -1.62724 0
M  V30 758 O 75.5609 -0.186261 -1.77526 0
M  V30 759 C 72.6609 -0.451216 -3.35883 0
M  V30 760 C 71.8339 -1.53896 -4.09432 0
M  V30 761 C 70.8929 -1.01721 -5.16274 0
M  V30 762 O 69.9189 -1.70676 -5.43009 0
M  V30 763 N 71.1209 0.153594 -5.80297 0
M  V30 764 H 73.8859 -1.92047 -2.30082 0
M  V30 765 H 71.4469 -1.14497 -1.14465 0
M  V30 766 H 73.4389 -0.0871574 -4.04606 0
M  V30 767 H 72.0089 0.397368 -3.10064 0
M  V30 768 H 71.2289 -2.07566 -3.35127 0
M  V30 769 H 72.5169 -2.27037 -4.55337 0
M  V30 770 H 71.9149 0.730323 -5.60966 0
M  V30 771 H 70.4719 0.458892 -6.50183 0
M  V30 772 N 73.905 1.17692 -1.04816 0
M  V30 773 C 74.852 2.21581 -0.645797 0
M  V30 774 C 75.822 1.62367 0.350159 0
M  V30 775 O 77.007 1.89254 0.242433 0
M  V30 776 C 74.147 3.45092 -0.0227568 0
M  V30 777 C 73.26 4.18613 -1.06709 0
M  V30 778 C 72.395 5.29602 -0.411767 0
M  V30 779 C 71.434 5.94904 -1.44067 0
M  V30 780 N 70.571 6.97414 -0.809781 0
M  V30 781 H 75.411 2.55353 -1.5362 0
M  V30 782 H 72.948 1.25438 -0.768364 0
M  V30 783 H 74.906 4.15679 0.35588 0
M  V30 784 H 73.536 3.11917 0.831122 0
M  V30 785 H 72.588 3.46779 -1.5636 0
M  V30 786 H 73.9 4.63293 -1.84827 0
M  V30 787 H 73.054 6.06696 0.0206623 0
M  V30 788 H 71.793 4.86045 0.401438 0
M  V30 789 H 70.798 5.16544 -1.88316 0
M  V30 790 H 72.023 6.40542 -2.25571 0
M  V30 791 H 69.969 6.55998 -0.0170186 0
M  V30 792 H 69.886 7.40386 -1.52856 0
M  V30 793 H 71.154 7.78463 -0.401999 0
M  V30 794 N 75.3831 0.828654 1.34056 0
M  V30 795 C 76.6081 0.431637 2.02859 0
M  V30 796 C 77.0331 -0.956339 1.61975 0
M  V30 797 O 76.3911 -1.62338 0.807228 0
M  V30 798 C 76.4391 0.548323 3.56407 0
M  V30 799 O 75.5431 -0.429556 4.10157 0
M  V30 800 H 74.8841 0.176886 0.640006 0
M  V30 801 H 77.4141 1.12066 1.71179 0
M  V30 802 H 77.4241 0.426196 4.05768 0
M  V30 803 H 76.0991 1.5606 3.8551 0
M  V30 804 H 74.6761 -0.265836 3.71951 0
M  V30 805 N 76.8612 -1.46375 0.584142 0
M  V30 806 C 77.8242 -2.28784 -0.138108 0
M  V30 807 C 78.8242 -1.38471 -0.817462 0
M  V30 808 O 80.0142 -1.60833 -0.669199 0
M  V30 809 C 77.1462 -3.18892 -1.20503 0
M  V30 810 H 78.3392 -2.94117 0.586127 0
M  V30 811 H 75.8922 -1.52509 0.342171 0
M  V30 812 H 76.6272 -2.58309 -1.96079 0
M  V30 813 H 76.4122 -3.85388 -0.722384 0
M  V30 814 H 77.9022 -3.80914 -1.71155 0
M  V30 815 N 78.3393 -0.321999 -1.54275 0
M  V30 816 C 79.5853 0.281461 -2.00837 0
M  V30 817 C 79.9183 1.51909 -1.20985 0
M  V30 818 O 79.1933 1.923 -0.291733 0
M  V30 819 C 79.4763 0.617162 -3.54772 0
M  V30 820 C 79.3293 -0.631064 -4.45351 0
M  V30 821 C 80.6483 1.43542 -4.16033 0
M  V30 822 H 77.7673 0.100826 -0.730071 0
M  V30 823 H 80.4093 -0.438268 -1.84876 0
M  V30 824 H 78.5593 1.23034 -3.68504 0
M  V30 825 H 80.2313 -1.26934 -4.43492 0
M  V30 826 H 78.4743 -1.26025 -4.15091 0
M  V30 827 H 79.1453 -0.351735 -5.50878 0
M  V30 828 H 81.6213 0.917134 -4.05867 0
M  V30 829 H 80.4973 1.63907 -5.23856 0
M  V30 830 H 80.7583 2.43108 -3.69257 0
M  V30 831 N 79.8174 1.5752 -0.0501392 0
M  V30 832 C 81.0454 1.96963 0.633492 0
M  V30 833 C 81.4604 0.927631 1.6444 0
M  V30 834 O 80.8174 -0.0882665 1.82286 0
M  V30 835 C 80.8684 3.36487 1.32132 0
M  V30 836 O 80.5894 4.36693 0.350894 0
M  V30 837 C 82.0904 3.90682 2.09481 0
M  V30 838 H 79.3104 0.648244 0.173266 0
M  V30 839 H 81.8544 2.0417 -0.116134 0
M  V30 840 H 80.0094 3.30434 2.02218 0
M  V30 841 H 80.4234 5.17702 0.841735 0
M  V30 842 H 81.8974 4.90591 2.5303 0
M  V30 843 H 82.3744 3.26053 2.94255 0
M  V30 844 H 82.9804 4.00069 1.44307 0
M  V30 845 N 81.2955 -0.223234 1.56011 0
M  V30 846 C 82.2055 -1.29766 1.95443 0
M  V30 847 C 83.2215 -1.51373 0.858028 0
M  V30 848 O 84.3975 -1.64536 1.16146 0
M  V30 849 C 81.4625 -2.62772 2.26167 0
M  V30 850 C 80.5235 -2.49482 3.49367 0
M  V30 851 C 79.7565 -3.76145 3.78616 0
M  V30 852 O 79.9795 -4.79087 3.09568 0
M  V30 853 O 78.9135 -3.73358 4.72109 0
M  V30 854 H 82.7395 -0.99309 2.87004 0
M  V30 855 H 80.3245 -0.425958 1.43199 0
M  V30 856 H 82.2065 -3.41327 2.47131 0
M  V30 857 H 80.8815 -2.92913 1.37781 0
M  V30 858 H 79.7885 -1.69133 3.33684 0
M  V30 859 H 81.1215 -2.2428 4.38131 0
M  V30 860 N 82.7736 -1.49793 -0.48987 0
M  V30 861 C 84.0036 -1.6333 -1.26518 0
M  V30 862 C 84.4116 -0.308392 -1.8667 0
M  V30 863 O 83.7546 0.717512 -1.69108 0
M  V30 864 C 83.8166 -2.6522 -2.4269 0
M  V30 865 C 83.4806 -4.09279 -2.03321 0
M  V30 866 C 84.4776 -4.95738 -1.56652 0
M  V30 867 C 82.1626 -4.55082 -2.12616 0
M  V30 868 C 84.1566 -6.26041 -1.19795 0
M  V30 869 C 81.8436 -5.85396 -1.75371 0
M  V30 870 C 82.8416 -6.707 -1.29036 0
M  V30 871 O 82.5296 -7.98584 -0.92299 0
M  V30 872 H 82.2616 -0.552502 -0.389509 0
M  V30 873 H 84.8156 -1.96642 -0.593381 0
M  V30 874 H 83.0456 -2.27112 -3.12981 0
M  V30 875 H 84.7346 -2.68171 -3.04695 0
M  V30 876 H 85.5006 -4.61575 -1.48908 0
M  V30 877 H 81.3796 -3.88844 -2.47631 0
M  V30 878 H 84.9236 -6.92578 -0.835582 0
M  V30 879 H 80.8206 -6.19085 -1.82768 0
M  V30 880 H 81.5886 -8.11692 -1.05349 0
M  V30 881 N 84.2517 0.741722 -1.39055 0
M  V30 882 C 85.4817 1.52876 -1.3897 0
M  V30 883 C 85.8897 1.8919 0.0193266 0
M  V30 884 O 85.2327 1.54138 0.999356 0
M  V30 885 C 85.2947 2.84929 -2.19216 0
M  V30 886 C 84.9587 2.71086 -3.67915 0
M  V30 887 C 85.9557 2.40084 -4.61146 0
M  V30 888 C 83.6407 2.88168 -4.11418 0
M  V30 889 C 85.6347 2.26335 -5.95862 0
M  V30 890 C 83.3217 2.74037 -5.46211 0
M  V30 891 C 84.3197 2.43166 -6.38247 0
M  V30 892 O 84.0077 2.29115 -7.70559 0
M  V30 893 H 83.7397 0.479252 -0.476753 0
M  V30 894 H 86.2937 0.924751 -1.83405 0
M  V30 895 H 84.5237 3.47564 -1.69518 0
M  V30 896 H 86.2127 3.46509 -2.11392 0
M  V30 897 H 86.9787 2.26545 -4.28838 0
M  V30 898 H 82.8577 3.11191 -3.40119 0
M  V30 899 H 86.4017 2.0216 -6.67665 0
M  V30 900 H 82.2987 2.87153 -5.78112 0
M  V30 901 H 83.0667 2.44237 -7.81211 0
M  V30 902 N 85.7298 1.2412 0.971189 0
M  V30 903 C 86.6598 1.05508 2.08304 0
M  V30 904 C 87.6408 -0.0308864 1.70072 0
M  V30 905 O 88.8258 0.135521 1.93727 0
M  V30 906 C 85.9558 0.655365 3.4106 0
M  V30 907 C 84.9098 1.68971 3.93234 0
M  V30 908 C 84.2358 1.14516 5.22293 0
M  V30 909 C 85.5358 3.08487 4.21465 0
M  V30 910 H 87.2298 1.98507 2.24132 0
M  V30 911 H 84.7758 0.955821 1.07704 0
M  V30 912 H 86.7288 0.51217 4.18276 0
M  V30 913 H 85.4528 -0.31032 3.25122 0
M  V30 914 H 84.1118 1.82106 3.18171 0
M  V30 915 H 83.7598 0.170189 5.02712 0
M  V30 916 H 83.4598 1.83635 5.58168 0
M  V30 917 H 84.9838 1.01401 6.02121 0
M  V30 918 H 86.3978 2.98601 4.89398 0
M  V30 919 H 84.7948 3.74926 4.68562 0
M  V30 920 H 85.8648 3.56787 3.28376 0
M  V30 921 N 87.2079 -1.17134 1.05439 0
M  V30 922 C 88.1559 -2.23289 0.651511 0
M  V30 923 C 89.1499 -1.66186 -0.328411 0
M  V30 924 O 90.3559 -1.78949 -0.194206 0
M  V30 925 H 86.7309 -0.726938 0.192523 0
M  V30 926 H 88.7019 -2.54565 1.55689 0
M  V30 927 C 87.4509 -3.47671 0.0448436 0
M  V30 928 H 86.7739 -3.91918 0.78996 0
M  V30 929 H 88.2139 -4.2353 -0.19964 0
M  V30 930 C 86.6729 -3.14453 -1.20918 0
M  V30 931 O 87.2029 -3.29459 -2.29825 0
M  V30 932 N 85.4089 -2.68657 -1.10779 0
M  V30 933 H 84.9559 -2.56646 -0.221526 0
M  V30 934 H 84.9139 -2.46804 -1.9477 0
M  V30 935 N 88.686 -0.835752 -1.33615 0
M  V30 936 C 89.636 -0.238856 -2.26745 0
M  V30 937 C 90.62 0.604343 -1.49119 0
M  V30 938 O 91.812 0.456822 -1.71003 0
M  V30 939 C 88.941 0.587725 -3.38232 0
M  V30 940 C 88.027 -0.266811 -4.2326 0
M  V30 941 N 88.418 -1.34403 -4.87616 0
M  V30 942 C 86.716 -0.0533131 -4.45968 0
M  V30 943 C 87.417 -1.86819 -5.50884 0
M  V30 944 N 86.393 -1.17013 -5.30857 0
M  V30 945 H 90.195 -1.06266 -2.74016 0
M  V30 946 H 87.709 -0.679881 -1.47483 0
M  V30 947 H 89.706 1.03161 -4.03935 0
M  V30 948 H 88.366 1.40954 -2.9251 0
M  V30 949 H 89.377 -1.7269 -4.88261 0
M  V30 950 H 86.054 0.735312 -4.10974 0
M  V30 951 H 87.444 -2.7701 -6.1214 0
M  V30 952 N 90.1641 1.46063 -0.591896 0
M  V30 953 C 91.4121 2.01938 -0.0808391 0
M  V30 954 C 91.7331 1.46475 1.28725 0
M  V30 955 O 91.0031 0.652944 1.84698 0
M  V30 956 H 89.5831 0.746516 -0.0268938 0
M  V30 957 H 92.2451 1.79055 -0.769752 0
M  V30 958 H 91.3411 3.12094 -0.0187578 0
M  V30 959 N 91.6422 0.330177 1.54103 0
M  V30 960 C 92.5892 -0.532762 2.24567 0
M  V30 961 C 93.5592 -1.10635 1.23892 0
M  V30 962 O 94.7442 -1.14546 1.5259 0
M  V30 963 C 91.8842 -1.6845 3.01195 0
M  V30 964 C 90.9972 -1.13951 4.167 0
M  V30 965 C 90.1322 -2.25746 4.80845 0
M  V30 966 C 89.1712 -1.6853 5.88442 0
M  V30 967 N 88.3082 -2.74014 6.46421 0
M  V30 968 H 93.1482 0.0746905 2.97906 0
M  V30 969 H 90.6852 0.048632 1.4702 0
M  V30 970 H 92.6432 -2.36234 3.43874 0
M  V30 971 H 91.2732 -2.26314 2.30178 0
M  V30 972 H 90.3252 -0.35301 3.78758 0
M  V30 973 H 91.6372 -0.680892 4.94131 0
M  V30 974 H 90.7912 -3.01422 5.26526 0
M  V30 975 H 89.5302 -2.74947 4.0281 0
M  V30 976 H 88.5352 -0.913543 5.42157 0
M  V30 977 H 89.7602 -1.20198 6.68378 0
M  V30 978 H 87.7062 -3.22494 5.71256 0
M  V30 979 H 87.6232 -2.32735 7.19285 0
M  V30 980 H 88.8912 -3.49499 6.96757 0
M  V30 981 N 93.1203 -1.57491 0.0584922 0
M  V30 982 C 94.3663 -1.94081 -0.608617 0
M  V30 983 C 94.7213 -0.937438 -1.68017 0
M  V30 984 O 94.0143 0.0423034 -1.91553 0
M  V30 985 C 94.2083 -3.3513 -1.24188 0
M  V30 986 C 94.0373 -4.49095 -0.233187 0
M  V30 987 C 92.8073 -5.04988 0.177439 0
M  V30 988 C 95.0053 -5.1162 0.524306 0
M  V30 989 N 92.9873 -6.02487 1.17823 0
M  V30 990 C 94.3583 -6.04493 1.37796 0
M  V30 991 C 96.4133 -4.94489 0.581822 0
M  V30 992 C 95.1163 -6.82075 2.28399 0
M  V30 993 C 97.1423 -5.72703 1.47531 0
M  V30 994 C 96.5043 -6.65214 2.31667 0
M  V30 995 H 92.6033 -0.75752 -0.194134 0
M  V30 996 H 95.1873 -1.94248 0.132533 0
M  V30 997 H 93.3583 -3.35726 -1.95302 0
M  V30 998 H 95.0903 -3.5899 -1.86838 0
M  V30 999 H 91.8453 -4.73165 -0.203004 0
M  V30 1000 H 92.2693 -6.55933 1.67573 0
M  V30 1001 H 96.9113 -4.22765 -0.054443 0
M  V30 1002 H 94.6293 -7.53085 2.93067 0
M  V30 1003 H 98.2153 -5.61472 1.52448 0
M  V30 1004 H 97.0953 -7.24679 2.99683 0
M  V30 1005 N 94.5984 0.214957 -1.56127 0
M  V30 1006 C 96.0094 0.781386 -1.69562 0
M  V30 1007 C 96.3604 1.84707 -0.66165 0
M  V30 1008 O 95.4854 2.156 0.185927 0
M  V30 1009 C 96.0804 1.42411 -3.07416 0
M  V30 1010 C 94.6394 1.93786 -3.22683 0
M  V30 1011 C 93.7864 0.800438 -2.65496 0
M  V30 1012 H 96.7374 -0.00980633 -1.58697 0
M  V30 1013 H 96.7584 2.29309 -3.0364 0
M  V30 1014 H 96.2704 0.64826 -3.82648 0
M  V30 1015 H 94.3714 2.74152 -2.52332 0
M  V30 1016 H 94.4844 2.1133 -4.29973 0
M  V30 1017 H 92.8484 1.2095 -2.2415 0
M  V30 1018 H 93.6314 0.0371471 -3.4328 0
M  V30 1019 N 96.0765 1.50051 0.48192 0
M  V30 1020 C 96.9865 1.7089 1.60728 0
M  V30 1021 C 98.0025 0.591788 1.63627 0
M  V30 1022 O 99.1785 0.868817 1.81696 0
M  V30 1023 C 96.2435 1.78855 2.97005 0
M  V30 1024 C 95.3045 3.02537 3.04581 0
M  V30 1025 C 94.5375 3.10112 4.34357 0
M  V30 1026 O 94.7605 2.24765 5.24249 0
M  V30 1027 O 93.6945 4.02747 4.47301 0
M  V30 1028 H 97.5205 2.66264 1.46072 0
M  V30 1029 H 95.1055 1.34018 0.660264 0
M  V30 1030 H 96.9875 1.86336 3.77964 0
M  V30 1031 H 95.6625 0.866628 3.11883 0
M  V30 1032 H 94.5695 3.00563 2.22739 0
M  V30 1033 H 95.9025 3.94272 2.94636 0
M  V30 1034 N 97.5546 -0.734337 1.39446 0
M  V30 1035 C 98.5026 -1.86971 1.38364 0
M  V30 1036 C 99.4966 -1.67288 0.266687 0
M  V30 1037 O 100.703 -1.74621 0.436755 0
M  V30 1038 H 97.0776 -0.615474 0.432082 0
M  V30 1039 H 99.0486 -1.85 2.34132 0
M  V30 1040 C 97.7976 -3.2466 1.24465 0
M  V30 1041 H 97.1206 -3.40402 2.09682 0
M  V30 1042 H 98.5606 -4.04292 1.27764 0
M  V30 1043 C 97.0196 -3.36867 -0.0468674 0
M  V30 1044 O 97.5496 -3.88618 -1.01681 0
M  V30 1045 N 95.7556 -2.90391 -0.110145 0
M  V30 1046 H 95.3026 -2.48466 0.679868 0
M  V30 1047 H 95.2606 -2.98939 -0.973799 0
M  V30 1048 N 99.0327 -1.24633 -0.964593 0
M  V30 1049 C 99.9807 -1.03917 -2.08096 0
M  V30 1050 C 100.975 0.0268581 -1.69379 0
M  V30 1051 O 102.181 -0.127952 -1.79545 0
M  V30 1052 H 98.5557 -0.319044 -0.680966 0
M  V30 1053 H 100.527 -1.98581 -2.22729 0
M  V30 1054 C 99.2757 -0.663983 -3.41301 0
M  V30 1055 H 98.5987 -1.47605 -3.71555 0
M  V30 1056 H 100.039 -0.558663 -4.20303 0
M  V30 1057 C 98.4977 0.629169 -3.30973 0
M  V30 1058 O 99.0277 1.67404 -3.65156 0
M  V30 1059 N 97.2337 0.611057 -2.84103 0
M  V30 1060 H 96.7807 -0.239593 -2.56483 0
M  V30 1061 H 96.7387 1.47647 -2.77575 0
M  V30 1062 N 100.511 1.16574 -1.06058 0
M  V30 1063 C 101.739 1.90952 -0.796552 0
M  V30 1064 C 102.154 1.77302 0.648808 0
M  V30 1065 O 101.511 1.11605 1.44397 0
M  V30 1066 C 101.562 3.41736 -1.17894 0
M  V30 1067 O 101.283 3.54975 -2.56758 0
M  V30 1068 C 102.784 4.33169 -0.942308 0
M  V30 1069 H 100.004 0.605594 -0.288959 0
M  V30 1070 H 102.548 1.47777 -1.41358 0
M  V30 1071 H 100.703 3.82623 -0.606491 0
M  V30 1072 H 101.117 4.4846 -2.72 0
M  V30 1073 H 102.591 5.37439 -1.25952 0
M  V30 1074 H 103.068 4.3903 0.122078 0
M  V30 1075 H 103.674 3.98007 -1.49902 0
M  V30 1076 N 101.989 0.842826 1.3317 0
M  V30 1077 C 103.214 0.453129 2.02389 0
M  V30 1078 C 103.639 -0.939105 1.6298 0
M  V30 1079 O 102.997 -1.61472 0.8244 0
M  V30 1080 C 103.045 0.586094 3.55805 0
M  V30 1081 O 102.149 -0.386029 4.10589 0
M  V30 1082 H 101.49 0.183664 0.638094 0
M  V30 1083 H 104.02 1.13875 1.69981 0
M  V30 1084 H 104.03 0.469209 4.05293 0
M  V30 1085 H 102.705 1.6014 3.83833 0
M  V30 1086 H 101.282 -0.226371 3.72212 0
M  V30 1087 N 103.467 -1.45747 0.599634 0
M  V30 1088 C 104.43 -2.28917 -0.113835 0
M  V30 1089 C 105.43 -1.3933 -0.802729 0
M  V30 1090 O 106.62 -1.61534 -0.652103 0
M  V30 1091 C 103.752 -3.20152 -1.17114 0
M  V30 1092 H 104.945 -2.93478 0.617289 0
M  V30 1093 H 102.498 -1.52137 0.358327 0
M  V30 1094 H 103.233 -2.60374 -1.93329 0
M  V30 1095 H 103.018 -3.86133 -0.681468 0
M  V30 1096 H 104.508 -3.82708 -1.67105 0
M  V30 1097 N 104.945 -0.338344 -1.53925 0
M  V30 1098 C 106.193 0.259245 -2.0043 0
M  V30 1099 C 106.514 1.51484 -1.22791 0
M  V30 1100 O 105.784 1.93037 -0.33368 0
M  V30 1101 H 104.364 0.0987845 -0.740439 0
M  V30 1102 H 107.026 -0.458302 -1.89435 0
M  V30 1103 H 106.122 0.505334 -3.07982 0
M  V30 1104 N 106.423 1.57458 -0.0668435 0
M  V30 1105 C 107.669 1.93587 0.6043 0
M  V30 1106 C 108.002 0.946722 1.69561 0
M  V30 1107 O 107.277 -0.0248516 1.94484 0
M  V30 1108 C 107.56 3.40014 1.18585 0
M  V30 1109 C 107.413 4.49685 0.101529 0
M  V30 1110 C 108.732 3.87154 2.09284 0
M  V30 1111 H 105.851 0.703958 0.218202 0
M  V30 1112 H 108.493 1.89542 -0.131804 0
M  V30 1113 H 106.643 3.43592 1.81319 0
M  V30 1114 H 108.315 4.5823 -0.531279 0
M  V30 1115 H 106.558 4.30059 -0.568487 0
M  V30 1116 H 107.229 5.49266 0.54874 0
M  V30 1117 H 109.705 3.85551 1.56491 0
M  V30 1118 H 108.581 4.90231 2.46911 0
M  V30 1119 H 108.842 3.2481 2.99918 0
M  V30 1120 N 107.901 -0.206675 1.56239 0
M  V30 1121 C 108.864 -1.23976 1.92776 0
M  V30 1122 C 109.864 -1.39041 0.807729 0
M  V30 1123 O 111.054 -1.37051 1.0753 0
M  V30 1124 C 108.186 -2.61112 2.19165 0
M  V30 1125 H 109.379 -0.927764 2.85189 0
M  V30 1126 H 106.932 -0.447718 1.4975 0
M  V30 1127 H 107.667 -2.97386 1.29352 0
M  V30 1128 H 107.452 -2.51552 3.00772 0
M  V30 1129 H 108.942 -3.35633 2.48476 0
M  V30 1130 N 109.379 -1.50304 -0.473955 0
M  V30 1131 C 110.604 -1.65175 -1.25427 0
M  V30 1132 C 111.029 -0.333673 -1.85117 0
M  V30 1133 O 110.387 0.702114 -1.67153 0
M  V30 1134 C 110.435 -2.74295 -2.34082 0
M  V30 1135 O 109.539 -2.35349 -3.38651 0
M  V30 1136 H 108.88 -0.551944 -0.369126 0
M  V30 1137 H 111.41 -1.96662 -0.564364 0
M  V30 1138 H 111.42 -2.97285 -2.79438 0
M  V30 1139 H 110.095 -3.69959 -1.90008 0
M  V30 1140 H 108.672 -2.22794 -2.99027 0
M  V30 1141 N 110.857 0.726932 -1.39834 0
M  V30 1142 C 112.268 1.30558 -1.3346 0
M  V30 1143 C 112.619 1.962 -0.00273003 0
M  V30 1144 O 111.744 1.96826 0.899371 0
M  V30 1145 C 112.339 2.37404 -2.41713 0
M  V30 1146 C 110.898 2.90921 -2.38835 0
M  V30 1147 C 110.045 1.64578 -2.2318 0
M  V30 1148 H 112.996 0.523862 -1.49804 0
M  V30 1149 H 113.017 3.17984 -2.08966 0
M  V30 1150 H 112.529 1.89599 -3.38635 0
M  V30 1151 H 110.63 3.42985 -1.45575 0
M  V30 1152 H 110.743 3.43487 -3.33997 0
M  V30 1153 H 109.107 1.89219 -1.70494 0
M  V30 1154 H 109.89 1.18814 -3.22084 0
M  V30 1155 N 112.336 1.25143 0.95797 0
M  V30 1156 C 113.747 1.08851 1.51685 0
M  V30 1157 C 114.098 -0.33687 1.93286 0
M  V30 1158 O 113.223 -1.22644 1.7829 0
M  V30 1159 C 113.818 1.96978 2.75654 0
M  V30 1160 C 112.377 1.84881 3.27866 0
M  V30 1161 C 111.524 1.91329 2.0072 0
M  V30 1162 H 114.475 1.38478 0.77522 0
M  V30 1163 H 114.496 1.5078 3.4935 0
M  V30 1164 H 114.008 3.00712 2.45345 0
M  V30 1165 H 112.109 0.840182 3.63004 0
M  V30 1166 H 112.222 2.6951 3.96107 0
M  V30 1167 H 110.586 1.35174 2.15871 0
M  V30 1168 H 111.369 2.96661 1.72764 0
M  V30 1169 N 113.814 -1.1601 1.06675 0
M  V30 1170 C 115.039 -1.91068 0.806706 0
M  V30 1171 C 115.464 -1.77112 -0.633485 0
M  V30 1172 O 114.822 -1.09908 -1.44187 0
M  V30 1173 C 114.87 -3.39655 1.21106 0
M  V30 1174 O 113.974 -4.10893 0.352189 0
M  V30 1175 H 113.315 -0.595125 0.294486 0
M  V30 1176 H 115.845 -1.46955 1.42356 0
M  V30 1177 H 115.855 -3.90434 1.18428 0
M  V30 1178 H 114.53 -3.49132 2.26008 0
M  V30 1179 H 113.107 -3.70285 0.440868 0
M  V30 1180 N 115.292 -0.849877 -1.32721 0
M  V30 1181 C 116.569 -0.372405 -1.92022 0
M  V30 1182 C 116.949 1.1435 -1.77447 0
M  V30 1183 O 116.297 1.96296 -1.16962 0
M  V30 1184 C 116.507 -0.831482 -3.3895 0
M  V30 1185 C 117.855 -0.845882 -4.16089 0
M  V30 1186 O 118.879 -0.775806 -3.47649 0
M  V30 1187 O 117.738 -0.943753 -5.38289 0
M  V30 1188 H 114.832 -0.107667 -0.819961 0
M  V30 1189 H 117.378 -0.93646 -1.41522 0
M  V30 1190 H 116.15 -1.87448 -3.4348 0
M  V30 1191 H 115.773 -0.24461 -3.96847 0
M  V30 1192 N 116.77 1.45427 -0.607355 0
M  V30 1193 C 118.019 2.01452 -0.100036 0
M  V30 1194 C 118.332 1.48159 1.27704 0
M  V30 1195 O 119.538 1.96159 1.87707 0
M  V30 1196 C 117.994 3.59672 -0.128158 0
M  V30 1197 C 117.602 4.21962 -1.50507 0
M  V30 1198 C 119.346 4.23262 0.323932 0
M  V30 1199 C 117.253 5.72333 -1.48959 0
M  V30 1200 H 116.183 0.75325 -0.0336299 0
M  V30 1201 H 118.834 1.66901 -0.76265 0
M  V30 1202 H 117.216 3.91411 0.601105 0
M  V30 1203 H 118.39 4.01796 -2.25602 0
M  V30 1204 H 116.705 3.70565 -1.89923 0
M  V30 1205 H 119.302 5.33522 0.354691 0
M  V30 1206 H 119.645 3.93921 1.34656 0
M  V30 1207 H 120.178 3.96239 -0.352056 0
M  V30 1208 H 116.917 6.06373 -2.48981 0
M  V30 1209 H 116.437 5.94691 -0.781214 0
M  V30 1210 H 118.116 6.35525 -1.21313 0
M  V30 1211 N 118.248 0.346503 1.53744 0
M  V30 1212 C 119.195 -0.508914 2.25119 0
M  V30 1213 C 120.165 -1.09315 1.25058 0
M  V30 1214 O 121.35 -1.12921 1.53797 0
M  V30 1215 C 118.49 -1.65246 3.02965 0
M  V30 1216 C 117.603 -1.09525 4.17886 0
M  V30 1217 C 116.738 -2.20634 4.83212 0
M  V30 1218 C 115.777 -1.62279 5.90196 0
M  V30 1219 N 114.914 -2.67143 6.49291 0
M  V30 1220 H 119.754 0.106283 2.9781 0
M  V30 1221 H 117.291 0.0642227 1.4696 0
M  V30 1222 H 119.249 -2.32574 3.4636 0
M  V30 1223 H 117.879 -2.2386 2.32565 0
M  V30 1224 H 116.931 -0.312818 3.79112 0
M  V30 1225 H 118.243 -0.628444 4.94825 0
M  V30 1226 H 117.397 -2.95821 5.29693 0
M  V30 1227 H 116.136 -2.70659 4.05703 0
M  V30 1228 H 115.141 -0.855989 5.43096 0
M  V30 1229 H 116.366 -1.13102 6.69615 0
M  V30 1230 H 114.312 -3.16417 5.74645 0
M  V30 1231 H 114.229 -2.25093 7.21713 0
M  V30 1232 H 115.497 -3.4209 7.00425 0
M  V30 1233 N 119.726 -1.57421 0.075193 0
M  V30 1234 C 120.974 -1.93236 -0.591974 0
M  V30 1235 C 121.295 -0.956241 -1.69944 0
M  V30 1236 O 120.565 -0.00494792 -1.95899 0
M  V30 1237 H 119.145 -0.713355 -0.22166 0
M  V30 1238 H 121.807 -1.9444 0.133848 0
M  V30 1239 H 120.903 -2.95131 -1.01509 0
M  V30 1240 N 121.204 0.198386 -1.56346 0
M  V30 1241 C 122.151 1.24589 -1.94284 0
M  V30 1242 C 123.121 1.454 -0.802997 0
M  V30 1243 O 124.306 1.58588 -1.06087 0
M  V30 1244 C 121.446 2.58631 -2.28482 0
M  V30 1245 C 120.559 2.45426 -3.55514 0
M  V30 1246 C 119.694 3.7215 -3.79049 0
M  V30 1247 C 118.733 3.53763 -4.99518 0
M  V30 1248 N 117.87 4.72491 -5.19323 0
M  V30 1249 H 122.71 0.915356 -2.83593 0
M  V30 1250 H 120.247 0.440629 -1.40346 0
M  V30 1251 H 122.205 3.3672 -2.46324 0
M  V30 1252 H 120.835 2.89734 -1.42317 0
M  V30 1253 H 119.887 1.58652 -3.45737 0
M  V30 1254 H 121.199 2.27772 -4.43758 0
M  V30 1255 H 120.353 4.58679 -3.97113 0
M  V30 1256 H 119.092 3.92754 -2.89129 0
M  V30 1257 H 118.097 2.65619 -4.8138 0
M  V30 1258 H 119.322 3.34607 -5.90944 0
M  V30 1259 H 117.268 4.93365 -4.3235 0
M  V30 1260 H 117.185 4.5765 -6.01741 0
M  V30 1261 H 118.453 5.6038 -5.41843 0
M  V30 1262 N 122.682 1.50554 0.465978 0
M  V30 1263 C 123.912 1.65323 1.23903 0
M  V30 1264 C 124.32 0.338051 1.86155 0
M  V30 1265 O 123.663 -0.690518 1.70228 0
M  V30 1266 C 123.725 2.69048 2.3844 0
M  V30 1267 C 123.389 4.12462 1.96784 0
M  V30 1268 C 124.386 4.98168 1.48745 0
M  V30 1269 C 122.071 4.58407 2.05349 0
M  V30 1270 C 124.065 6.27868 1.0982 0
M  V30 1271 C 121.752 5.88112 1.66035 0
M  V30 1272 C 122.75 6.72668 1.18349 0
M  V30 1273 O 122.438 7.99951 0.795825 0
M  V30 1274 H 122.17 0.558629 0.38067 0
M  V30 1275 H 124.724 1.97561 0.562022 0
M  V30 1276 H 122.954 2.32062 3.09328 0
M  V30 1277 H 124.643 2.72985 3.0039 0
M  V30 1278 H 125.409 4.63885 1.41546 0
M  V30 1279 H 121.288 3.92735 2.41414 0
M  V30 1280 H 124.832 6.93819 0.725293 0
M  V30 1281 H 120.729 6.21914 1.72895 0
M  V30 1282 H 121.497 8.13265 0.924222 0
M  V30 1283 N 124.16 -0.719506 1.40217 0
M  V30 1284 C 125.406 -1.48152 1.38488 0
M  V30 1285 C 125.739 -1.94195 -0.0141867 0
M  V30 1286 O 125.014 -1.67884 -0.982096 0
M  V30 1287 C 125.297 -2.71035 2.37091 0
M  V30 1288 C 125.15 -2.30912 3.86005 0
M  V30 1289 C 126.469 -3.73182 2.33288 0
M  V30 1290 H 123.588 -0.537395 0.504357 0
M  V30 1291 H 126.23 -0.821472 1.71324 0
M  V30 1292 H 124.38 -3.27352 2.0922 0
M  V30 1293 H 126.052 -1.80107 4.24687 0
M  V30 1294 H 124.295 -1.62958 4.02029 0
M  V30 1295 H 124.966 -3.18978 4.50508 0
M  V30 1296 H 127.442 -3.26485 2.57966 0
M  V30 1297 H 126.318 -4.56806 3.04334 0
M  V30 1298 H 126.579 -4.21202 1.34317 0
M  V30 1299 N 125.638 -1.25649 -0.95132 0
M  V30 1300 C 126.585 -1.06323 -2.04851 0
M  V30 1301 C 127.555 0.0286491 -1.66075 0
M  V30 1302 O 128.74 -0.12917 -1.90362 0
M  V30 1303 C 125.88 -0.691529 -3.381 0
M  V30 1304 C 124.993 -1.85861 -3.89974 0
M  V30 1305 C 124.128 -1.43096 -5.11563 0
M  V30 1306 C 123.167 -2.56696 -5.55674 0
M  V30 1307 N 122.304 -2.14684 -6.68472 0
M  V30 1308 H 127.144 -2.00222 -2.20715 0
M  V30 1309 H 124.681 -0.997027 -1.08156 0
M  V30 1310 H 126.639 -0.456963 -4.1469 0
M  V30 1311 H 125.269 0.210474 -3.22113 0
M  V30 1312 H 124.321 -2.20639 -3.09875 0
M  V30 1313 H 125.633 -2.71161 -4.18657 0
M  V30 1314 H 124.787 -1.15624 -5.9558 0
M  V30 1315 H 123.526 -0.548722 -4.84603 0
M  V30 1316 H 122.531 -2.84909 -4.7022 0
M  V30 1317 H 123.756 -3.45503 -5.8464 0
M  V30 1318 H 121.702 -1.28881 -6.43215 0
M  V30 1319 H 121.619 -2.9353 -6.96689 0
M  V30 1320 H 122.887 -1.90397 -7.5589 0
M  V30 1321 N 127.117 1.15442 -1.07289 0
M  V30 1322 C 128.027 2.23786 -0.704057 0
M  V30 1323 C 129.043 1.7166 0.284413 0
M  V30 1324 O 130.219 2.00972 0.131205 0
M  V30 1325 C 127.284 3.46535 -0.106792 0
M  V30 1326 C 126.345 4.13654 -1.14842 0
M  V30 1327 C 125.578 5.30544 -0.57956 0
M  V30 1328 O 125.801 5.67187 0.604585 0
M  V30 1329 O 124.735 5.87154 -1.32414 0
M  V30 1330 H 128.561 2.57664 -1.60757 0
M  V30 1331 H 126.146 1.23152 -0.845803 0
M  V30 1332 H 128.028 4.20804 0.224048 0
M  V30 1333 H 126.703 3.14407 0.770049 0
M  V30 1334 H 125.61 3.4131 -1.5316 0
M  V30 1335 H 126.943 4.49861 -1.99714 0
M  V30 1336 N 128.595 0.856903 1.32268 0
M  V30 1337 C 129.841 0.462069 1.97466 0
M  V30 1338 C 130.174 -0.980298 1.67642 0
M  V30 1339 O 129.449 -1.68824 0.965858 0
M  V30 1340 C 129.732 0.704336 3.53145 0
M  V30 1341 C 129.585 2.19529 3.9259 0
M  V30 1342 C 130.904 0.1622 4.39801 0
M  V30 1343 H 128.023 0.169357 0.717278 0
M  V30 1344 H 130.665 1.07574 1.56614 0
M  V30 1345 H 128.815 0.181999 3.88073 0
M  V30 1346 H 130.487 2.78387 3.67829 0
M  V30 1347 H 128.73 2.67292 3.41668 0
M  V30 1348 H 129.401 2.31549 5.01088 0
M  V30 1349 H 131.877 0.608905 4.11621 0
M  V30 1350 H 130.753 0.361265 5.4771 0
M  V30 1351 H 131.014 -0.935158 4.32096 0
M  V30 1352 N 130.073 -1.45103 0.615059 0
M  V30 1353 C 130.983 -2.34382 -0.101034 0
M  V30 1354 C 131.999 -1.51681 -0.852585 0
M  V30 1355 O 133.175 -1.8446 -0.808484 0
M  V30 1356 C 130.24 -3.29417 -1.08099 0
M  V30 1357 C 129.301 -4.28025 -0.330577 0
M  V30 1358 C 128.534 -5.1852 -1.26385 0
M  V30 1359 O 128.757 -5.12598 -2.50198 0
M  V30 1360 O 127.691 -5.97122 -0.756866 0
M  V30 1361 H 131.517 -2.97033 0.632855 0
M  V30 1362 H 129.102 -1.4461 0.375293 0
M  V30 1363 H 130.984 -3.87958 -1.6452 0
M  V30 1364 H 129.659 -2.69321 -1.79577 0
M  V30 1365 H 128.566 -3.73078 0.276283 0
M  V30 1366 H 129.899 -4.90997 0.343866 0
M  V30 1367 N 131.551 -0.354651 -1.53558 0
M  V30 1368 C 132.797 0.238797 -2.01389 0
M  V30 1369 C 133.13 1.49309 -1.2418 0
M  V30 1370 O 132.405 1.91638 -0.332457 0
M  V30 1371 C 132.688 0.541771 -3.56001 0
M  V30 1372 C 132.541 -0.725388 -4.43912 0
M  V30 1373 C 133.86 1.34685 -4.18984 0
M  V30 1374 H 130.979 0.0853177 -0.732045 0
M  V30 1375 H 133.621 -0.477384 -1.83905 0
M  V30 1376 H 131.771 1.15189 -3.71031 0
M  V30 1377 H 133.443 -1.36313 -4.407 0
M  V30 1378 H 131.686 -1.34801 -4.12324 0
M  V30 1379 H 132.357 -0.468505 -5.50008 0
M  V30 1380 H 134.833 0.830837 -4.07721 0
M  V30 1381 H 133.709 1.52759 -5.27215 0
M  V30 1382 H 133.97 2.35221 -3.74331 0
M  V30 1383 N 133.029 1.57378 -0.0835403 0
M  V30 1384 C 133.976 2.13384 0.879539 0
M  V30 1385 C 134.946 1.04936 1.28754 0
M  V30 1386 O 136.131 1.32662 1.37133 0
M  V30 1387 C 133.271 2.70932 2.13752 0
M  V30 1388 C 132.384 3.93575 1.7811 0
M  V30 1389 C 131.519 4.39326 2.98607 0
M  V30 1390 C 130.558 5.54587 2.59037 0
M  V30 1391 N 129.695 5.95243 3.72331 0
M  V30 1392 H 134.535 2.9537 0.395076 0
M  V30 1393 H 132.072 1.45953 0.183349 0
M  V30 1394 H 134.03 3.02411 2.87408 0
M  V30 1395 H 132.66 1.91693 2.59718 0
M  V30 1396 H 131.712 3.68483 0.94469 0
M  V30 1397 H 133.024 4.77258 1.45005 0
M  V30 1398 H 132.178 4.72528 3.80529 0
M  V30 1399 H 130.917 3.5452 3.34913 0
M  V30 1400 H 129.922 5.21024 1.75539 0
M  V30 1401 H 131.147 6.41133 2.23887 0
M  V30 1402 H 129.093 5.13385 4.08378 0
M  V30 1403 H 129.01 6.73694 3.43034 0
M  V30 1404 H 130.278 6.33072 4.54797 0
M  V30 1405 N 134.507 -0.190092 1.56449 0
M  V30 1406 C 135.455 -1.25501 1.95837 0
M  V30 1407 C 136.449 -1.4685 0.844485 0
M  V30 1408 O 137.655 -1.47651 1.02952 0
M  V30 1409 H 134.03 -0.421447 0.622805 0
M  V30 1410 H 136.001 -0.895821 2.84636 0
M  V30 1411 C 134.75 -2.59124 2.31841 0
M  V30 1412 H 134.073 -2.43514 3.17082 0
M  V30 1413 H 135.513 -3.32371 2.6326 0
M  V30 1414 C 133.972 -3.16488 1.15486 0
M  V30 1415 O 134.502 -3.99365 0.432535 0
M  V30 1416 N 132.708 -2.75305 0.930349 0
M  V30 1417 H 132.255 -2.08013 1.51948 0
M  V30 1418 H 132.213 -3.14024 0.153634 0
M  V30 1419 N 135.985 -1.50799 -0.457987 0
M  V30 1420 C 137.233 -1.62121 -1.2067 0
M  V30 1421 C 137.554 -0.329793 -1.92191 0
M  V30 1422 O 136.824 0.653409 -1.84682 0
M  V30 1423 H 135.404 -0.597441 -0.448411 0
M  V30 1424 H 138.066 -1.87637 -0.527096 0
M  V30 1425 H 137.162 -2.43882 -1.94751 0
M  V30 1426 N 137.463 0.71206 -1.40597 0
M  V30 1427 C 138.709 1.47416 -1.39271 0
M  V30 1428 C 139.042 1.942 0.00388791 0
M  V30 1429 O 138.317 1.68403 0.973179 0
M  V30 1430 C 138.6 2.69774 -2.38525 0
M  V30 1431 C 138.453 2.28861 -3.87224 0
M  V30 1432 C 139.772 3.71939 -2.35264 0
M  V30 1433 H 136.891 0.534713 -0.5072 0
M  V30 1434 H 139.533 0.812375 -1.71757 0
M  V30 1435 H 137.683 3.26238 -2.10953 0
M  V30 1436 H 139.355 1.77852 -4.25636 0
M  V30 1437 H 137.598 1.60824 -4.02887 0
M  V30 1438 H 138.269 3.16584 -4.52193 0
M  V30 1439 H 140.745 3.25113 -2.59694 0
M  V30 1440 H 139.621 4.55186 -3.06753 0
M  V30 1441 H 139.882 4.20484 -1.36549 0
M  V30 1442 N 138.941 1.26152 0.944643 0
M  V30 1443 C 140.187 1.11657 1.69294 0
M  V30 1444 C 140.52 -0.339926 1.91202 0
M  V30 1445 O 139.795 -1.24994 1.49019 0
M  V30 1446 C 140.078 1.88236 3.06984 0
M  V30 1447 C 139.931 3.41772 2.92424 0
M  V30 1448 C 141.25 1.67343 4.07043 0
M  V30 1449 H 138.369 0.407004 0.614424 0
M  V30 1450 H 141.011 1.55106 1.09737 0
M  V30 1451 H 139.161 1.51308 3.57824 0
M  V30 1452 H 140.833 3.88433 2.48832 0
M  V30 1453 H 139.076 3.68974 2.28124 0
M  V30 1454 H 139.747 3.90579 3.90067 0
M  V30 1455 H 142.223 1.99509 3.65151 0
M  V30 1456 H 141.099 2.23346 5.01406 0
M  V30 1457 H 141.36 0.617158 4.37771 0
M  V30 1458 N 140.419 -1.14872 1.07899 0
M  V30 1459 C 141.647 -1.89661 0.82683 0
M  V30 1460 C 142.062 -1.78312 -0.620519 0
M  V30 1461 O 141.419 -1.13888 -1.42604 0
M  V30 1462 C 141.47 -3.39817 1.23316 0
M  V30 1463 O 141.191 -3.50845 2.62372 0
M  V30 1464 C 142.692 -4.31615 1.0111 0
M  V30 1465 H 139.912 -0.60092 0.298557 0
M  V30 1466 H 142.456 -1.4551 1.43691 0
M  V30 1467 H 140.611 -3.8161 0.667286 0
M  V30 1468 H 141.025 -4.44076 2.79101 0
M  V30 1469 H 142.499 -5.35367 1.34486 0
M  V30 1470 H 142.976 -4.39169 -0.0522168 0
M  V30 1471 H 143.582 -3.95572 1.56215 0
M  V30 1472 N 141.898 -0.863906 -1.31812 0
M  V30 1473 C 142.861 -0.320212 -2.26952 0
M  V30 1474 C 143.861 0.525369 -1.51975 0
M  V30 1475 O 145.051 0.335547 -1.70938 0
M  V30 1476 C 142.183 0.545919 -3.365 0
M  V30 1477 H 143.376 -1.16004 -2.76556 0
M  V30 1478 H 140.929 -0.638995 -1.42641 0
M  V30 1479 H 141.664 1.40718 -2.92179 0
M  V30 1480 H 141.449 -0.0594674 -3.92055 0
M  V30 1481 H 142.939 0.918796 -4.07367 0
M  V30 1482 N 143.376 1.44774 -0.622745 0
M  V30 1483 C 144.604 2.06487 -0.130722 0
M  V30 1484 C 145.019 1.46476 1.19123 0
M  V30 1485 O 144.376 0.584502 1.72887 0
M  V30 1486 C 144.427 3.615 -0.000807207 0
M  V30 1487 O 144.148 4.19274 -1.27048 0
M  V30 1488 C 145.649 4.40229 0.520898 0
M  V30 1489 H 142.869 0.666704 -0.0758106 0
M  V30 1490 H 145.413 1.85779 -0.854774 0
M  V30 1491 H 143.568 3.81498 0.673643 0
M  V30 1492 H 143.982 5.12622 -1.1099 0
M  V30 1493 H 145.456 5.49144 0.560838 0
M  V30 1494 H 145.933 4.1108 1.54627 0
M  V30 1495 H 146.539 4.25131 -0.120018 0
M  V30 1496 N 144.854 0.36279 1.53368 0
M  V30 1497 C 145.787 -0.528507 2.21996 0
M  V30 1498 C 146.765 -1.0852 1.21087 0
M  V30 1499 O 147.949 -1.14186 1.4998 0
M  V30 1500 C 145.076 -1.72893 2.91249 0
M  V30 1501 C 144.122 -1.29994 4.06207 0
M  V30 1502 S 144.955 -0.303575 5.34639 0
M  V30 1503 C 146.111 -1.51039 6.07403 0
M  V30 1504 H 146.344 0.0543423 2.9725 0
M  V30 1505 H 143.877 0.146889 1.537 0
M  V30 1506 H 145.835 -2.41751 3.31763 0
M  V30 1507 H 144.496 -2.28303 2.15724 0
M  V30 1508 H 143.689 -2.19549 4.53667 0
M  V30 1509 H 143.291 -0.690608 3.67569 0
M  V30 1510 H 145.583 -2.44186 6.31965 0
M  V30 1511 H 146.526 -1.07721 6.99858 0
M  V30 1512 H 146.934 -1.71518 5.37812 0
M  V30 1513 N 146.332 -1.57332 0.0918853 0
M  V30 1514 C 147.262 -2.16872 -0.865371 0
M  V30 1515 C 148.243 -1.10118 -1.29646 0
M  V30 1516 O 149.428 -1.38242 -1.36392 0
M  V30 1517 C 146.558 -2.74649 -2.12569 0
M  V30 1518 C 145.512 -3.86747 -1.83333 0
M  V30 1519 C 144.838 -4.31212 -3.16166 0
M  V30 1520 C 146.138 -5.10089 -1.1228 0
M  V30 1521 H 147.832 -2.97114 -0.369307 0
M  V30 1522 H 145.378 -1.42918 -0.176194 0
M  V30 1523 H 147.331 -3.14952 -2.7997 0
M  V30 1524 H 146.055 -1.91657 -2.64452 0
M  V30 1525 H 144.714 -3.46978 -1.18331 0
M  V30 1526 H 144.362 -3.45115 -3.6593 0
M  V30 1527 H 144.062 -5.06788 -2.97388 0
M  V30 1528 H 145.586 -4.74146 -3.84731 0
M  V30 1529 H 147 -5.47582 -1.69785 0
M  V30 1530 H 145.397 -5.91073 -1.03693 0
M  V30 1531 H 146.467 -4.84786 -0.105041 0
M  V30 1532 N 147.81 0.181792 -1.56548 0
M  V30 1533 C 149.035 0.920019 -1.85877 0
M  V30 1534 C 149.46 1.75494 -0.677021 0
M  V30 1535 O 148.818 1.77399 0.374056 0
M  V30 1536 C 148.866 1.78112 -3.13542 0
M  V30 1537 O 147.97 2.88152 -2.95029 0
M  V30 1538 H 147.311 0.258334 -0.611686 0
M  V30 1539 H 149.841 0.183092 -2.03779 0
M  V30 1540 H 149.851 2.18314 -3.44678 0
M  V30 1541 H 148.526 1.16777 -3.99169 0
M  V30 1542 H 147.103 2.51609 -2.75222 0
M  V30 1543 N 149.288 1.51039 0.449983 0
M  V30 1544 C 150.513 1.6715 1.22783 0
M  V30 1545 C 150.938 0.363081 1.84563 0
M  V30 1546 O 150.296 -0.675433 1.68249 0
M  V30 1547 C 150.344 2.77985 2.29689 0
M  V30 1548 O 149.448 2.40707 3.34864 0
M  V30 1549 H 148.789 0.557746 0.360299 0
M  V30 1550 H 151.319 1.97535 0.533005 0
M  V30 1551 H 151.329 3.01693 2.74673 0
M  V30 1552 H 150.004 3.72935 1.84098 0
M  V30 1553 H 148.581 2.27523 2.95445 0
M  V30 1554 N 150.766 -0.704594 1.40972 0
M  V30 1555 C 152.014 -1.46169 1.39568 0
M  V30 1556 C 152.335 -1.95 0.00253745 0
M  V30 1557 O 151.605 -1.71095 -0.954114 0
M  V30 1558 H 150.185 -0.542326 0.513704 0
M  V30 1559 H 152.847 -0.834553 1.76128 0
M  V30 1560 H 151.943 -2.32922 2.07735 0
M  V30 1561 N 152.244 -1.26651 -0.937939 0
M  V30 1562 C 153.49 -1.12553 -1.687 0
M  V30 1563 C 153.823 0.329782 -1.91379 0
M  V30 1564 O 153.098 1.24202 -1.4968 0
M  V30 1565 C 153.381 -1.89862 -3.05981 0
M  V30 1566 C 153.234 -3.43318 -2.90607 0
M  V30 1567 C 154.553 -1.69499 -4.0615 0
M  V30 1568 H 151.672 -0.410257 -0.612257 0
M  V30 1569 H 154.314 -1.55685 -1.08913 0
M  V30 1570 H 152.464 -1.53204 -3.57017 0
M  V30 1571 H 154.136 -3.89747 -2.46769 0
M  V30 1572 H 152.379 -3.70179 -2.26164 0
M  V30 1573 H 153.05 -3.92642 -3.8799 0
M  V30 1574 H 155.526 -2.01442 -3.64088 0
M  V30 1575 H 154.402 -2.26002 -5.00214 0
M  V30 1576 H 154.663 -0.640365 -4.37438 0
M  V30 1577 N 153.722 1.14298 -1.08507 0
M  V30 1578 C 154.67 2.21483 -0.710483 0
M  V30 1579 C 155.664 1.66998 0.284234 0
M  V30 1580 O 156.87 1.79401 0.146692 0
M  V30 1581 H 153.245 0.721578 -0.211729 0
M  V30 1582 H 155.216 2.50348 -1.62384 0
M  V30 1583 C 153.965 3.4743 -0.137007 0
M  V30 1584 H 153.288 3.89686 -0.893592 0
M  V30 1585 H 154.728 4.2391 0.0872789 0
M  V30 1586 C 153.187 3.17548 1.12538 0
M  V30 1587 O 153.717 3.35437 2.21009 0
M  V30 1588 N 151.923 2.71499 1.03617 0
M  V30 1589 H 151.47 2.57143 0.153403 0
M  V30 1590 H 151.428 2.51881 1.88158 0
M  V30 1591 N 155.201 0.870884 1.31352 0
M  V30 1592 C 156.149 0.316445 2.30437 0
M  V30 1593 C 157.143 -0.568965 1.59559 0
M  V30 1594 O 158.349 -0.454964 1.74155 0
M  V30 1595 H 154.724 0.0836521 0.747333 0
M  V30 1596 H 156.695 1.16606 2.74673 0
M  V30 1597 C 155.444 -0.46635 3.44558 0
M  V30 1598 H 154.767 0.205687 3.99271 0
M  V30 1599 H 156.207 -0.819614 4.16003 0
M  V30 1600 C 154.666 -1.65797 2.9328 0
M  V30 1601 O 155.196 -2.75728 2.92125 0
M  V30 1602 N 153.402 -1.49041 2.4947 0
M  V30 1603 H 152.949 -0.59612 2.50608 0
M  V30 1604 H 152.907 -2.28911 2.15516 0
M  V30 1605 N 156.679 -1.44442 0.630414 0
M  V30 1606 C 157.589 -2.34476 -0.0761693 0
M  V30 1607 C 158.605 -1.52576 -0.836449 0
M  V30 1608 O 159.781 -1.85307 -0.788874 0
M  V30 1609 C 156.846 -3.30545 -1.04599 0
M  V30 1610 C 155.907 -4.28352 -0.28516 0
M  V30 1611 C 155.14 -5.19831 -1.20878 0
M  V30 1612 O 155.363 -5.15223 -2.44747 0
M  V30 1613 O 154.297 -5.97892 -0.693491 0
M  V30 1614 H 158.123 -2.96345 0.664324 0
M  V30 1615 H 155.708 -1.44203 0.39061 0
M  V30 1616 H 157.59 -3.89681 -1.60396 0
M  V30 1617 H 156.265 -2.7121 -1.76711 0
M  V30 1618 H 155.172 -3.72764 0.315837 0
M  V30 1619 H 156.505 -4.90605 0.395924 0
M  V30 1620 N 158.157 -0.370918 -1.53173 0
M  V30 1621 C 159.406 0.218249 -2.00516 0
M  V30 1622 C 159.719 1.49429 -1.26215 0
M  V30 1623 O 160.925 2.16239 -1.64174 0
M  V30 1624 C 159.381 0.43948 -3.57207 0
M  V30 1625 C 158.989 -0.822244 -4.4039 0
M  V30 1626 C 160.733 0.986012 -4.1289 0
M  V30 1627 C 158.64 -0.570304 -5.88644 0
M  V30 1628 H 157.57 0.0853333 -0.749156 0
M  V30 1629 H 160.221 -0.490483 -1.76823 0
M  V30 1630 H 158.603 1.20961 -3.77074 0
M  V30 1631 H 159.777 -1.59557 -4.32294 0
M  V30 1632 H 158.092 -1.29238 -3.95836 0
M  V30 1633 H 160.689 1.18991 -5.21292 0
M  V30 1634 H 161.032 1.94972 -3.6782 0
M  V30 1635 H 161.565 0.27592 -3.96842 0
M  V30 1636 H 158.304 -1.50449 -6.38001 0
M  V30 1637 H 157.824 0.164427 -5.99575 0
M  V30 1638 H 159.503 -0.19784 -6.46697 0
M  V30 1639 N 159.635 1.57281 -0.100228 0
M  V30 1640 C 160.582 2.14305 0.856858 0
M  V30 1641 C 161.552 1.06296 1.27634 0
M  V30 1642 O 162.737 1.34109 1.35718 0
M  V30 1643 C 159.877 2.73184 2.10866 0
M  V30 1644 C 158.99 3.95442 1.73925 0
M  V30 1645 C 158.125 4.42468 2.93931 0
M  V30 1646 C 157.164 5.57303 2.5314 0
M  V30 1647 N 156.301 5.99158 3.65997 0
M  V30 1648 H 161.141 2.95772 0.363726 0
M  V30 1649 H 158.678 1.46139 0.167858 0
M  V30 1650 H 160.636 3.05442 2.84185 0
M  V30 1651 H 159.266 1.94437 2.57671 0
M  V30 1652 H 158.318 3.69464 0.905554 0
M  V30 1653 H 159.63 4.78769 1.39935 0
M  V30 1654 H 158.784 4.76537 3.75496 0
M  V30 1655 H 157.523 3.58052 3.31134 0
M  V30 1656 H 156.528 5.22857 1.70003 0
M  V30 1657 H 157.753 6.43471 2.17075 0
M  V30 1658 H 155.699 5.17687 4.02909 0
M  V30 1659 H 155.616 6.77295 3.35869 0
M  V30 1660 H 156.884 6.3786 4.48057 0
M  V30 1661 N 161.113 -0.173488 1.56642 0
M  V30 1662 C 162.361 -0.888706 1.81512 0
M  V30 1663 C 162.682 -1.82875 0.676872 0
M  V30 1664 O 161.952 -1.93536 -0.303414 0
M  V30 1665 H 160.532 -0.331164 0.669582 0
M  V30 1666 H 163.194 -0.173823 1.94123 0
M  V30 1667 H 162.29 -1.46691 2.75478 0
M  V30 1668 N 162.591 -1.51276 -0.441967 0
M  V30 1669 C 163.538 -1.72256 -1.53612 0
M  V30 1670 C 164.508 -0.564164 -1.56225 0
M  V30 1671 O 165.693 -0.798074 -1.73307 0
M  V30 1672 C 162.833 -1.84932 -2.91366 0
M  V30 1673 C 161.946 -3.12459 -2.98317 0
M  V30 1674 C 161.081 -3.15758 -4.27166 0
M  V30 1675 C 160.12 -4.37619 -4.27967 0
M  V30 1676 N 159.257 -4.38493 -5.48333 0
M  V30 1677 H 164.097 -2.65654 -1.35026 0
M  V30 1678 H 161.634 -1.31662 -0.656009 0
M  V30 1679 H 163.592 -1.90263 -3.7129 0
M  V30 1680 H 162.222 -0.949461 -3.08521 0
M  V30 1681 H 161.274 -3.1646 -2.11086 0
M  V30 1682 H 162.586 -4.02382 -2.94771 0
M  V30 1683 H 161.74 -3.19979 -5.15459 0
M  V30 1684 H 160.479 -2.23715 -4.33362 0
M  V30 1685 H 159.484 -4.33579 -3.38067 0
M  V30 1686 H 160.709 -5.30921 -4.23438 0
M  V30 1687 H 158.655 -3.49318 -5.55259 0
M  V30 1688 H 158.572 -5.22219 -5.46647 0
M  V30 1689 H 159.84 -4.469 -6.38671 0
M  V30 1690 N 164.069 0.697108 -1.41344 0
M  V30 1691 C 165.016 1.81106 -1.43071 0
M  V30 1692 C 165.986 1.63632 -0.285275 0
M  V30 1693 O 167.171 1.84504 -0.486091 0
M  V30 1694 C 164.311 3.18975 -1.31715 0
M  V30 1695 C 163.424 3.47892 -2.56115 0
M  V30 1696 C 162.559 4.75367 -2.37064 0
M  V30 1697 C 161.598 4.97247 -3.56948 0
M  V30 1698 N 160.735 6.15947 -3.36977 0
M  V30 1699 H 165.575 1.78965 -2.38276 0
M  V30 1700 H 163.112 0.873975 -1.18322 0
M  V30 1701 H 165.07 3.98615 -1.23133 0
M  V30 1702 H 163.7 3.20297 -0.401183 0
M  V30 1703 H 162.752 2.62669 -2.75153 0
M  V30 1704 H 164.064 3.59962 -3.45295 0
M  V30 1705 H 163.218 5.63059 -2.25941 0
M  V30 1706 H 161.957 4.65541 -1.45338 0
M  V30 1707 H 160.962 4.08004 -3.68527 0
M  V30 1708 H 162.187 5.08934 -4.49626 0
M  V30 1709 H 160.133 6.07336 -2.47949 0
M  V30 1710 H 160.05 6.28777 -4.19732 0
M  V30 1711 H 161.318 7.06377 -3.29623 0
M  V30 1712 N 165.547 1.27147 0.931209 0
M  V30 1713 C 166.477 1.12081 2.04842 0
M  V30 1714 C 167.458 0.0232364 1.70084 0
M  V30 1715 O 168.643 0.197085 1.93197 0
M  V30 1716 C 165.773 0.76354 3.38803 0
M  V30 1717 C 164.727 1.81396 3.87659 0
M  V30 1718 C 164.053 1.31075 5.18385 0
M  V30 1719 C 165.353 3.21739 4.11438 0
M  V30 1720 H 167.047 2.05537 2.17703 0
M  V30 1721 H 164.593 0.989603 1.04608 0
M  V30 1722 H 166.546 0.644982 4.16435 0
M  V30 1723 H 165.27 -0.206727 3.25945 0
M  V30 1724 H 163.929 1.92136 3.12217 0
M  V30 1725 H 163.577 0.330037 5.01916 0
M  V30 1726 H 163.277 2.013 5.52044 0
M  V30 1727 H 164.801 1.20506 5.98591 0
M  V30 1728 H 166.215 3.14019 4.79651 0
M  V30 1729 H 164.612 3.89644 4.56397 0
M  V30 1730 H 165.682 3.67054 3.16859 0
M  V30 1731 N 167.025 -1.13721 1.09112 0
M  V30 1732 C 168.25 -1.89314 0.847053 0
M  V30 1733 C 168.675 -1.78416 -0.595774 0
M  V30 1734 O 168.033 -1.12942 -1.41823 0
M  V30 1735 C 168.081 -3.3701 1.28284 0
M  V30 1736 O 167.185 -4.10054 0.439267 0
M  V30 1737 H 166.526 -0.588745 0.307044 0
M  V30 1738 H 169.056 -1.43902 1.45442 0
M  V30 1739 H 169.066 -3.87834 1.26683 0
M  V30 1740 H 167.741 -3.4426 2.33363 0
M  V30 1741 H 166.318 -3.69266 0.519312 0
M  V30 1742 N 168.503 -0.877838 -1.30888 0
M  V30 1743 C 169.433 -0.35534 -2.3078 0
M  V30 1744 C 170.414 0.557994 -1.60687 0
M  V30 1745 O 171.599 0.473355 -1.88343 0
M  V30 1746 C 168.729 0.437221 -3.44537 0
M  V30 1747 C 167.683 -0.383715 -4.26276 0
M  V30 1748 C 167.009 0.535014 -5.32017 0
M  V30 1749 C 168.309 -1.62201 -4.96476 0
M  V30 1750 H 170.003 -1.19007 -2.74732 0
M  V30 1751 H 167.549 -0.573698 -1.32078 0
M  V30 1752 H 169.502 0.813334 -4.13477 0
M  V30 1753 H 168.226 1.30553 -2.99372 0
M  V30 1754 H 166.885 -0.741874 -3.59015 0
M  V30 1755 H 166.533 1.40083 -4.831 0
M  V30 1756 H 166.233 -0.0104211 -5.87599 0
M  V30 1757 H 167.757 0.907799 -6.03814 0
M  V30 1758 H 169.171 -1.31689 -5.5797 0
M  V30 1759 H 167.568 -2.10711 -5.61891 0
M  V30 1760 H 168.638 -2.37044 -4.23011 0
M  V30 1761 N 169.982 1.44106 -0.638065 0
M  V30 1762 C 171.228 2.02815 -0.15409 0
M  V30 1763 C 171.583 1.49342 1.21304 0
M  V30 1764 O 170.876 0.670699 1.79478 0
M  V30 1765 C 171.07 3.5729 -0.0887327 0
M  V30 1766 C 170.899 4.2575 -1.44799 0
M  V30 1767 C 169.669 4.62443 -2.03653 0
M  V30 1768 C 171.867 4.55746 -2.38327 0
M  V30 1769 N 169.849 5.15903 -3.32741 0
M  V30 1770 C 171.22 5.10364 -3.52036 0
M  V30 1771 C 173.275 4.37703 -2.3732 0
M  V30 1772 C 171.978 5.48837 -4.64941 0
M  V30 1773 C 174.004 4.77229 -3.49294 0
M  V30 1774 C 173.366 5.31966 -4.61726 0
M  V30 1775 H 169.465 0.775519 -0.100466 0
M  V30 1776 H 172.049 1.755 -0.843071 0
M  V30 1777 H 170.22 3.84201 0.569548 0
M  V30 1778 H 171.952 4.02671 0.404711 0
M  V30 1779 H 168.707 4.46987 -1.56523 0
M  V30 1780 H 169.131 5.47102 -3.98758 0
M  V30 1781 H 173.773 3.94671 -1.51641 0
M  V30 1782 H 171.491 5.9082 -5.51323 0
M  V30 1783 H 175.077 4.64976 -3.49698 0
M  V30 1784 H 173.957 5.61986 -5.46939 0
M  V30 1785 N 171.46 0.379036 1.52974 0
M  V30 1786 C 172.423 -0.448865 2.24762 0
M  V30 1787 C 173.423 -0.998689 1.26027 0
M  V30 1788 O 174.613 -0.882313 1.50203 0
M  V30 1789 C 171.745 -1.62872 2.99476 0
M  V30 1790 H 172.938 0.179491 2.99362 0
M  V30 1791 H 170.491 0.13096 1.5575 0
M  V30 1792 H 171.226 -2.29479 2.29151 0
M  V30 1793 H 171.011 -1.24128 3.71934 0
M  V30 1794 H 172.501 -2.2151 3.5401 0
M  V30 1795 N 172.938 -1.57226 0.108567 0
M  V30 1796 C 174.354 -1.5766 -0.248058 0
M  V30 1797 C 174.554 -1.12063 -1.67464 0
M  V30 1798 O 173.61 -0.803236 -2.39383 0
M  V30 1799 C 174.923 -3.0069 -0.0242287 0
M  V30 1800 C 176.471 -3.12868 -0.0909372 0
M  V30 1801 C 176.946 -4.57879 0.105067 0
M  V30 1802 N 178.437 -4.63172 0.0506846 0
M  V30 1803 C 179.172 -5.73126 0.177396 0
M  V30 1804 N 178.668 -6.91866 0.359696 0
M  V30 1805 N 180.461 -5.61977 0.117709 0
M  V30 1806 H 172.612 -1.85169 1.04049 0
M  V30 1807 H 174.875 -0.85529 0.40888 0
M  V30 1808 H 174.581 -3.38299 0.961604 0
M  V30 1809 H 174.455 -3.6945 -0.76068 0
M  V30 1810 H 176.842 -2.75124 -1.06729 0
M  V30 1811 H 176.923 -2.46672 0.677225 0
M  V30 1812 H 176.567 -4.96321 1.07834 0
M  V30 1813 H 176.497 -5.22153 -0.682954 0
M  V30 1814 H 178.988 -3.778 -0.0871266 0
M  V30 1815 H 179.301 -7.71503 0.447529 0
M  V30 1816 H 177.646 -6.93874 0.395536 0
M  V30 1817 H 180.837 -4.68094 -0.0236741 0
M  V30 1818 H 181.01 -6.47627 0.219905 0
M  V30 1819 N 174.416 0.165178 -1.56732 0
M  V30 1820 C 175.832 0.517174 -1.50988 0
M  V30 1821 C 176.032 1.84331 -0.813894 0
M  V30 1822 O 175.088 2.49672 -0.37682 0
M  V30 1823 C 176.401 0.544261 -2.95733 0
M  V30 1824 C 177.949 0.631039 -3.06573 0
M  V30 1825 C 178.424 0.68896 -4.52788 0
M  V30 1826 N 179.915 0.751683 -4.5706 0
M  V30 1827 C 180.65 0.817177 -5.67547 0
M  V30 1828 N 180.146 0.843129 -6.8765 0
M  V30 1829 N 181.939 0.856668 -5.55534 0
M  V30 1830 H 174.09 -0.704318 -2.00382 0
M  V30 1831 H 176.353 -0.254687 -0.913148 0
M  V30 1832 H 176.059 -0.361607 -3.49836 0
M  V30 1833 H 175.933 1.3886 -3.5071 0
M  V30 1834 H 178.32 1.52733 -2.52501 0
M  V30 1835 H 178.401 -0.240095 -2.54671 0
M  V30 1836 H 178.045 -0.2031 -5.07494 0
M  V30 1837 H 177.975 1.57633 -5.02454 0
M  V30 1838 H 180.466 0.739661 -3.70591 0
M  V30 1839 H 180.779 0.894448 -7.67606 0
M  V30 1840 H 179.124 0.811304 -6.90248 0
M  V30 1841 H 182.315 0.833437 -4.60621 0
M  V30 1842 H 182.488 0.904247 -6.4166 0
M  V30 1843 N 175.894 1.51508 0.433938 0
M  V30 1844 C 176.804 1.75917 1.5521 0
M  V30 1845 C 177.82 0.643545 1.61662 0
M  V30 1846 O 178.996 0.926183 1.7884 0
M  V30 1847 C 176.061 1.88213 2.91164 0
M  V30 1848 C 175.122 3.12074 2.94802 0
M  V30 1849 C 174.355 3.23774 4.24271 0
M  V30 1850 O 174.578 2.4133 5.16833 0
M  V30 1851 O 173.512 4.16774 4.34262 0
M  V30 1852 H 177.338 2.70777 1.37527 0
M  V30 1853 H 174.923 1.36051 0.617293 0
M  V30 1854 H 176.805 1.98267 3.71845 0
M  V30 1855 H 175.48 0.965413 3.08968 0
M  V30 1856 H 174.387 3.07497 2.13065 0
M  V30 1857 H 175.72 4.03446 2.81943 0
M  V30 1858 N 177.372 -0.689602 1.41712 0
M  V30 1859 C 178.32 -1.82475 1.44242 0
M  V30 1860 C 179.314 -1.66354 0.319774 0
M  V30 1861 O 180.52 -1.73143 0.492089 0
M  V30 1862 H 176.895 -0.601416 0.451445 0
M  V30 1863 H 178.866 -1.77458 2.39899 0
M  V30 1864 C 177.615 -3.20535 1.3473 0
M  V30 1865 H 176.938 -3.33559 2.20405 0
M  V30 1866 H 178.378 -4.00023 1.40562 0
M  V30 1867 C 176.837 -3.36846 0.0603281 0
M  V30 1868 O 177.367 -3.91656 -0.892663 0
M  V30 1869 N 175.573 -2.90595 -0.0177039 0
M  V30 1870 H 175.12 -2.46178 0.758572 0
M  V30 1871 H 175.078 -3.01886 -0.878201 0
M  V30 1872 N 178.85 -1.27639 -0.924453 0
M  V30 1873 C 180.098 -1.13941 -1.66918 0
M  V30 1874 C 180.419 0.314589 -1.92446 0
M  V30 1875 O 179.689 1.21964 -1.53303 0
M  V30 1876 H 178.269 -0.418678 -0.618642 0
M  V30 1877 H 180.931 -1.60213 -1.10985 0
M  V30 1878 H 180.027 -1.67094 -2.63602 0
M  V30 1879 N 180.328 1.1314 -1.09713 0
M  V30 1880 C 181.553 1.88862 -0.857081 0
M  V30 1881 C 181.978 1.78729 0.586304 0
M  V30 1882 O 181.336 1.13692 1.41222 0
M  V30 1883 C 181.384 3.36325 -1.30069 0
M  V30 1884 O 180.488 4.09815 -0.461007 0
M  V30 1885 H 179.829 0.587108 -0.310162 0
M  V30 1886 H 182.359 1.43129 -1.46203 0
M  V30 1887 H 182.369 3.87157 -1.28738 0
M  V30 1888 H 181.044 3.43017 -2.35185 0
M  V30 1889 H 179.621 3.68986 -0.538888 0
M  V30 1890 N 181.806 0.884767 1.30421 0
M  V30 1891 C 183.052 0.503851 1.96441 0
M  V30 1892 C 183.385 -0.944518 1.69684 0
M  V30 1893 O 182.66 -1.66737 1.00145 0
M  V30 1894 C 182.943 0.779085 3.51571 0
M  V30 1895 C 182.796 2.27807 3.87846 0
M  V30 1896 C 184.115 0.255452 4.39358 0
M  V30 1897 H 181.234 0.184533 0.713524 0
M  V30 1898 H 183.876 1.10872 1.54297 0
M  V30 1899 H 182.026 0.264274 3.876 0
M  V30 1900 H 183.698 2.86127 3.61841 0
M  V30 1901 H 181.941 2.74479 3.35922 0
M  V30 1902 H 182.612 2.42125 4.96064 0
M  V30 1903 H 185.088 0.696079 4.10236 0
M  V30 1904 H 183.964 0.477361 5.4682 0
M  V30 1905 H 184.225 -0.843293 4.33983 0
M  V30 1906 N 183.284 -1.43765 0.645699 0
M  V30 1907 C 184.231 -2.30745 -0.0504648 0
M  V30 1908 C 185.201 -1.4432 -0.822241 0
M  V30 1909 O 186.386 -1.73202 -0.800358 0
M  V30 1910 C 183.526 -3.29802 -1.0161 0
M  V30 1911 C 182.639 -4.31326 -0.241219 0
M  V30 1912 C 181.774 -5.17469 -1.19998 0
M  V30 1913 C 180.813 -6.10691 -0.415094 0
M  V30 1914 N 179.95 -6.89483 -1.32506 0
M  V30 1915 H 184.79 -2.8973 0.697155 0
M  V30 1916 H 182.327 -1.42738 0.355563 0
M  V30 1917 H 184.285 -3.85734 -1.58949 0
M  V30 1918 H 182.915 -2.72483 -1.73069 0
M  V30 1919 H 181.967 -3.77749 0.448334 0
M  V30 1920 H 183.279 -4.9743 0.369437 0
M  V30 1921 H 182.433 -5.7799 -1.84424 0
M  V30 1922 H 181.172 -4.51473 -1.84455 0
M  V30 1923 H 180.177 -5.49265 0.242565 0
M  V30 1924 H 181.402 -6.78727 0.224966 0
M  V30 1925 H 179.348 -6.26142 -1.95657 0
M  V30 1926 H 179.265 -7.52081 -0.768783 0
M  V30 1927 H 180.533 -7.54516 -1.9577 0
M  V30 1928 N 184.763 -0.387143 -1.52771 0
M  V30 1929 C 186.009 0.188506 -2.02525 0
M  V30 1930 C 186.364 1.44649 -1.26864 0
M  V30 1931 O 185.657 1.88189 -0.359945 0
M  V30 1932 C 185.851 0.512209 -3.53711 0
M  V30 1933 C 185.68 -0.712855 -4.44014 0
M  V30 1934 C 184.45 -1.23147 -4.90064 0
M  V30 1935 C 186.648 -1.58453 -4.89282 0
M  V30 1936 N 184.63 -2.41431 -5.64433 0
M  V30 1937 C 186.001 -2.61381 -5.6221 0
M  V30 1938 C 188.056 -1.60488 -4.71326 0
M  V30 1939 C 186.759 -3.66227 -6.19088 0
M  V30 1940 C 188.785 -2.6424 -5.29085 0
M  V30 1941 C 188.147 -3.6589 -6.01917 0
M  V30 1942 H 184.246 0.0311236 -0.78138 0
M  V30 1943 H 186.83 -0.536548 -1.87161 0
M  V30 1944 H 185.001 1.20632 -3.69192 0
M  V30 1945 H 186.733 1.07482 -3.90166 0
M  V30 1946 H 183.488 -0.792795 -4.66917 0
M  V30 1947 H 183.912 -3.01274 -6.0627 0
M  V30 1948 H 188.554 -0.83247 -4.14524 0
M  V30 1949 H 186.272 -4.44337 -6.74974 0
M  V30 1950 H 189.858 -2.66695 -5.17074 0
M  V30 1951 H 188.738 -4.44855 -6.45813 0
M  V30 1952 N 186.241 1.57166 -0.116904 0
M  V30 1953 C 187.488 1.95123 0.541603 0
M  V30 1954 C 187.816 1.00006 1.6682 0
M  V30 1955 O 187.071 0.0235658 1.95686 0
M  V30 1956 C 187.37 3.39508 1.11664 0
M  V30 1957 C 187.036 4.50762 0.111606 0
M  V30 1958 C 185.698 4.80918 -0.164758 0
M  V30 1959 C 188.05 5.18036 -0.573438 0
M  V30 1960 C 185.378 5.75666 -1.13249 0
M  V30 1961 C 187.73 6.13824 -1.52978 0
M  V30 1962 C 186.394 6.42374 -1.81415 0
M  V30 1963 H 185.664 0.714005 0.198187 0
M  V30 1964 H 188.311 1.9048 -0.197365 0
M  V30 1965 H 186.616 3.40835 1.93232 0
M  V30 1966 H 188.313 3.66189 1.63422 0
M  V30 1967 H 184.903 4.27272 0.337192 0
M  V30 1968 H 189.087 4.94896 -0.373092 0
M  V30 1969 H 184.343 5.96092 -1.35958 0
M  V30 1970 H 188.517 6.65039 -2.06629 0
M  V30 1971 H 186.144 7.15599 -2.56557 0
M  V30 1972 N 187.719 -0.156864 1.56817 0
M  V30 1973 C 188.959 -0.877453 1.84608 0
M  V30 1974 C 189.323 -1.78791 0.699845 0
M  V30 1975 O 190.524 -2.5472 0.858553 0
M  V30 1976 C 188.795 -1.63992 3.17555 0
M  V30 1977 S 190.354 -2.40729 3.66872 0
M  V30 1978 H 187.172 -0.293612 0.647544 0
M  V30 1979 H 189.774 -0.138099 1.95012 0
M  V30 1980 H 188.478 -0.962363 3.98957 0
M  V30 1981 H 188.009 -2.42038 3.10131 0
M  V30 1982 H 190.024 -3.65725 3.3535 0
M  V30 1983 N 189.197 -1.51736 -0.425897 0
M  V30 1984 C 190.445 -1.64644 -1.17204 0
M  V30 1985 C 190.766 -0.370486 -1.91448 0
M  V30 1986 O 190.036 0.614088 -1.86026 0
M  V30 1987 H 188.616 -0.606819 -0.435638 0
M  V30 1988 H 191.278 -1.88713 -0.487177 0
M  V30 1989 H 190.374 -2.47958 -1.89534 0
M  V30 1990 N 190.675 0.682077 -1.42076 0
M  V30 1991 C 191.607 1.80755 -1.40926 0
M  V30 1992 C 192.62 1.59833 -0.309398 0
M  V30 1993 O 193.809 1.69087 -0.572014 0
M  V30 1994 C 190.909 3.17744 -1.17865 0
M  V30 1995 C 190.082 3.65578 -2.40149 0
M  V30 1996 C 189.141 4.81277 -2.12742 0
M  V30 1997 O 188.167 4.92197 -2.85887 0
M  V30 1998 N 189.369 5.69474 -1.12602 0
M  V30 1999 H 192.134 1.82229 -2.37935 0
M  V30 2000 H 189.695 0.864903 -1.36861 0
M  V30 2001 H 191.687 3.9279 -0.9746 0
M  V30 2002 H 190.257 3.11214 -0.294068 0
M  V30 2003 H 189.477 2.81291 -2.76169 0
M  V30 2004 H 190.765 3.94278 -3.21593 0
M  V30 2005 H 190.163 5.63297 -0.520899 0
M  V30 2006 H 188.72 6.44363 -0.981842 0
M  V30 2007 N 192.153 1.28127 0.917671 0
M  V30 2008 C 193.564 1.13622 1.48145 0
M  V30 2009 C 193.915 -0.275207 1.9426 0
M  V30 2010 O 193.04 -1.1691 1.82102 0
M  V30 2011 C 193.635 2.05648 2.69248 0
M  V30 2012 C 192.194 1.95219 3.21818 0
M  V30 2013 C 191.341 1.97618 1.94532 0
M  V30 2014 H 194.292 1.40874 0.730772 0
M  V30 2015 H 194.313 1.61818 3.44377 0
M  V30 2016 H 193.825 3.08365 2.35653 0
M  V30 2017 H 191.926 0.955244 3.60147 0
M  V30 2018 H 192.039 2.81976 3.87333 0
M  V30 2019 H 190.403 1.41973 2.11461 0
M  V30 2020 H 191.186 3.02007 1.63238 0
M  V30 2021 N 193.631 -1.12557 1.10312 0
M  V30 2022 C 194.877 -1.84311 0.846011 0
M  V30 2023 C 195.21 -1.83805 -0.626859 0
M  V30 2024 O 194.485 -1.28268 -1.46211 0
M  V30 2025 C 194.768 -3.32048 1.39341 0
M  V30 2026 C 194.621 -3.41016 2.93305 0
M  V30 2027 C 195.94 -4.27764 1.03468 0
M  V30 2028 H 193.059 -0.669192 0.30879 0
M  V30 2029 H 195.701 -1.32057 1.36605 0
M  V30 2030 H 193.851 -3.76678 0.951087 0
M  V30 2031 H 195.523 -3.05031 3.46055 0
M  V30 2032 H 193.766 -2.81603 3.29973 0
M  V30 2033 H 194.437 -4.44948 3.26689 0
M  V30 2034 H 196.913 -3.91253 1.41633 0
M  V30 2035 H 195.789 -5.29549 1.44463 0
M  V30 2036 H 196.05 -4.42064 -0.0560404 0
M  V30 2037 N 195.109 -0.891671 -1.2995 0
M  V30 2038 C 196.337 -0.52866 -2.00032 0
M  V30 2039 C 196.752 0.884574 -1.66795 0
M  V30 2040 O 196.109 1.5827 -0.908669 0
M  V30 2041 C 196.16 -0.701814 -3.54622 0
M  V30 2042 O 195.881 -2.05942 -3.86678 0
M  V30 2043 C 197.382 -0.342683 -4.41973 0
M  V30 2044 H 194.602 -0.203659 -0.639347 0
M  V30 2045 H 197.146 -1.19881 -1.65677 0
M  V30 2046 H 195.301 -0.0789468 -3.8732 0
M  V30 2047 H 195.715 -2.08291 -4.81368 0
M  V30 2048 H 197.189 -0.514709 -5.49595 0
M  V30 2049 H 197.666 0.71975 -4.33262 0
M  V30 2050 H 198.272 -0.942154 -4.14733 0
M  V30 2051 N 196.587 1.43421 -0.653314 0
M  V30 2052 C 198.003 1.56341 -0.320886 0
M  V30 2053 C 198.203 1.63696 1.17499 0
M  V30 2054 O 197.259 1.59208 1.95982 0
M  V30 2055 C 198.572 2.82424 -1.03233 0
M  V30 2056 C 200.12 2.96168 -1.01259 0
M  V30 2057 C 200.595 4.25084 -1.70492 0
M  V30 2058 N 202.086 4.31948 -1.67257 0
M  V30 2059 C 202.821 5.30466 -2.17701 0
M  V30 2060 N 202.317 6.35261 -2.76434 0
M  V30 2061 N 204.11 5.2212 -2.082 0
M  V30 2062 H 196.261 1.3689 -1.62403 0
M  V30 2063 H 198.524 0.657455 -0.682977 0
M  V30 2064 H 198.23 2.83053 -2.08744 0
M  V30 2065 H 198.104 3.72653 -0.583948 0
M  V30 2066 H 200.491 2.9508 0.0341235 0
M  V30 2067 H 200.572 2.07229 -1.49966 0
M  V30 2068 H 200.216 4.26932 -2.7512 0
M  V30 2069 H 200.146 5.1292 -1.19251 0
M  V30 2070 H 202.637 3.56838 -1.24398 0
M  V30 2071 H 202.95 7.06754 -3.12601 0
M  V30 2072 H 201.295 6.35884 -2.80495 0
M  V30 2073 H 204.486 4.39166 -1.62021 0
M  V30 2074 H 204.659 5.98739 -2.47822 0
M  V30 2075 N 198.065 0.39524 1.52563 0
M  V30 2076 C 199.293 -0.184943 2.06072 0
M  V30 2077 C 199.708 -1.40021 1.26647 0
M  V30 2078 O 199.065 -1.79767 0.314672 0
M  V30 2079 C 199.116 -0.549179 3.57304 0
M  V30 2080 O 198.837 0.617813 4.33722 0
M  V30 2081 C 200.338 -1.18459 4.2718 0
M  V30 2082 H 197.558 -0.0265025 0.670476 0
M  V30 2083 H 200.102 0.562184 1.96621 0
M  V30 2084 H 198.257 -1.2462 3.66809 0
M  V30 2085 H 198.671 0.317091 5.23541 0
M  V30 2086 H 200.145 -1.38976 5.34219 0
M  V30 2087 H 200.622 -2.15368 3.82771 0
M  V30 2088 H 201.228 -0.528163 4.22008 0
M  V30 2089 N 199.544 -1.57102 0.125237 0
M  V30 2090 C 200.821 -1.86953 -0.575142 0
M  V30 2091 C 201.201 -1.02749 -1.84407 0
M  V30 2092 O 200.549 -0.108144 -2.28244 0
M  V30 2093 C 200.759 -3.38198 -0.861583 0
M  V30 2094 C 202.107 -4.06937 -1.21192 0
M  V30 2095 O 203.131 -3.43252 -0.951645 0
M  V30 2096 O 201.99 -5.19364 -1.70068 0
M  V30 2097 H 199.084 -0.774147 -0.290906 0
M  V30 2098 H 201.63 -1.68942 0.160211 0
M  V30 2099 H 200.402 -3.91282 0.0373647 0
M  V30 2100 H 200.025 -3.61661 -1.65188 0
M  V30 2101 N 201.022 0.148545 -1.56898 0
M  V30 2102 C 202.299 0.890019 -1.74178 0
M  V30 2103 C 202.679 1.99407 -0.692839 0
M  V30 2104 O 202.027 2.26671 0.288505 0
M  V30 2105 C 202.237 1.43389 -3.18183 0
M  V30 2106 C 203.585 1.89791 -3.79822 0
M  V30 2107 O 204.609 1.53134 -3.21603 0
M  V30 2108 O 203.468 2.57387 -4.82093 0
M  V30 2109 H 200.562 0.420496 -0.712118 0
M  V30 2110 H 203.108 0.134591 -1.69165 0
M  V30 2111 H 201.88 0.640383 -3.86024 0
M  V30 2112 H 201.503 2.25287 -3.27615 0
M  V30 2113 N 202.5 1.5196 0.417844 0
M  V30 2114 C 203.777 1.56146 1.17803 0
M  V30 2115 C 204.157 0.337275 2.08388 0
M  V30 2116 O 203.505 -0.676447 2.18258 0
M  V30 2117 C 203.715 2.88566 1.96293 0
M  V30 2118 C 205.063 3.41244 2.52662 0
M  V30 2119 O 206.087 2.90247 2.06483 0
M  V30 2120 O 204.946 4.30273 3.36938 0
M  V30 2121 H 202.04 0.628598 0.537395 0
M  V30 2122 H 204.586 1.64283 0.425331 0
M  V30 2123 H 203.358 3.69116 1.2988 0
M  V30 2124 H 202.981 2.83681 2.78587 0
M  V30 2125 N 203.978 -0.674533 1.42435 0
M  V30 2126 C 205.206 -1.46283 1.46317 0
M  V30 2127 C 205.621 -1.88653 0.0745836 0
M  V30 2128 O 204.978 -1.58151 -0.91074 0
M  V30 2129 C 205.029 -2.71178 2.3905 0
M  V30 2130 O 204.75 -2.30586 3.72507 0
M  V30 2131 C 206.251 -3.64738 2.51955 0
M  V30 2132 H 203.471 -0.450104 0.497642 0
M  V30 2133 H 206.015 -0.828792 1.86953 0
M  V30 2134 H 204.17 -3.3077 2.01667 0
M  V30 2135 H 204.584 -3.11241 4.22172 0
M  V30 2136 H 206.058 -4.49096 3.20962 0
M  V30 2137 H 206.535 -4.10656 1.55752 0
M  V30 2138 H 207.141 -3.11038 2.90061 0
M  V30 2139 N 205.456 -1.28612 -0.910864 0
M  V30 2140 C 206.702 -1.16106 -1.66274 0
M  V30 2141 C 207.035 0.289113 -1.92036 0
M  V30 2142 O 206.31 1.21 -1.52281 0
M  V30 2143 C 206.593 -1.96309 -3.01885 0
M  V30 2144 C 206.446 -3.49405 -2.8326 0
M  V30 2145 C 207.765 -1.78076 -4.02463 0
M  V30 2146 H 204.884 -0.423152 -0.603417 0
M  V30 2147 H 207.526 -1.57961 -1.05586 0
M  V30 2148 H 205.676 -1.60742 -3.53687 0
M  V30 2149 H 207.348 -3.94894 -2.38446 0
M  V30 2150 H 205.591 -3.74893 -2.18261 0
M  V30 2151 H 206.262 -4.00784 -3.79574 0
M  V30 2152 H 208.738 -2.0912 -3.59733 0
M  V30 2153 H 207.614 -2.36561 -4.95308 0
M  V30 2154 H 207.875 -0.733008 -4.35981 0
M  V30 2155 N 206.934 1.1197 -1.10907 0
M  V30 2156 C 207.897 2.16031 -0.765707 0
M  V30 2157 C 208.897 1.59393 0.212235 0
M  V30 2158 O 210.087 1.74196 -0.0115441 0
M  V30 2159 C 207.219 3.40632 -0.135053 0
M  V30 2160 H 208.412 2.47919 -1.68748 0
M  V30 2161 H 205.965 1.27061 -0.910226 0
M  V30 2162 H 206.7 3.14348 0.797218 0
M  V30 2163 H 206.485 3.8302 -0.838937 0
M  V30 2164 H 207.975 4.17505 0.0892469 0
M  V30 2165 N 208.412 0.89855 1.29475 0
M  V30 2166 C 209.689 0.443416 1.90508 0
M  V30 2167 C 210.069 -1.07685 1.81569 0
M  V30 2168 O 209.417 -1.9182 1.24166 0
M  V30 2169 C 209.627 0.956708 3.35631 0
M  V30 2170 C 210.975 0.999728 4.12663 0
M  V30 2171 O 211.999 0.904299 3.4453 0
M  V30 2172 O 210.858 1.14289 5.34416 0
M  V30 2173 H 207.952 0.138025 0.815401 0
M  V30 2174 H 210.498 0.98834 1.37949 0
M  V30 2175 H 209.27 2.00067 3.36287 0
M  V30 2176 H 208.893 0.391728 3.95666 0
M  V30 2177 N 209.89 -1.43072 0.660911 0
M  V30 2178 C 210.853 -2.29194 -0.0166406 0
M  V30 2179 C 211.853 -1.42609 -0.742912 0
M  V30 2180 O 213.043 -1.64155 -0.583004 0
M  V30 2181 C 210.175 -3.24831 -1.0343 0
M  V30 2182 H 211.368 -2.90596 0.741208 0
M  V30 2183 H 208.921 -1.5048 0.422532 0
M  V30 2184 H 209.656 -2.68339 -1.82111 0
M  V30 2185 H 209.441 -3.88676 -0.517082 0
M  V30 2186 H 210.931 -3.89451 -1.50723 0
M  V30 2187 N 211.368 -0.403325 -1.52352 0
M  V30 2188 C 212.315 0.425011 -2.26853 0
M  V30 2189 C 213.285 1.04598 -1.29029 0
M  V30 2190 O 214.47 1.07135 -1.57882 0
M  V30 2191 C 211.61 1.53888 -3.08889 0
M  V30 2192 C 210.723 0.939396 -4.21663 0
M  V30 2193 C 209.858 2.02547 -4.91068 0
M  V30 2194 C 208.897 1.40263 -5.95813 0
M  V30 2195 N 208.034 2.4286 -6.58759 0
M  V30 2196 H 212.874 -0.21674 -2.97211 0
M  V30 2197 H 210.411 -0.118722 -1.4662 0
M  V30 2198 H 212.369 2.19558 -3.54753 0
M  V30 2199 H 210.999 2.15074 -2.40714 0
M  V30 2200 H 210.051 0.171898 -3.80011 0
M  V30 2201 H 211.363 0.44436 -4.96817 0
M  V30 2202 H 210.517 2.75958 -5.40308 0
M  V30 2203 H 209.256 2.55415 -4.15469 0
M  V30 2204 H 208.261 0.653833 -5.45898 0
M  V30 2205 H 209.486 0.881719 -6.73352 0
M  V30 2206 H 207.432 2.94871 -5.85992 0
M  V30 2207 H 207.349 1.98152 -7.2957 0
M  V30 2208 H 208.617 3.15858 -7.12639 0
M  V30 2209 N 212.846 1.57033 -0.133567 0
M  V30 2210 C 214.123 1.87256 0.56522 0
M  V30 2211 C 214.503 1.03726 1.83859 0
M  V30 2212 O 213.851 0.120247 2.28183 0
M  V30 2213 C 214.061 3.3865 0.843636 0
M  V30 2214 C 215.409 4.07574 1.19032 0
M  V30 2215 O 216.433 3.43752 0.933429 0
M  V30 2216 O 215.292 5.20259 1.67312 0
M  V30 2217 H 212.386 0.775678 0.286796 0
M  V30 2218 H 214.932 1.68855 -0.169168 0
M  V30 2219 H 213.704 3.91257 -0.0581149 0
M  V30 2220 H 213.327 3.62532 1.63268 0
M  V30 2221 N 214.325 -0.140222 1.56975 0
M  V30 2222 C 215.573 -0.850005 1.83356 0
M  V30 2223 C 215.894 -1.81399 0.71551 0
M  V30 2224 O 215.164 -1.94136 -0.262294 0
M  V30 2225 H 213.744 -0.316886 0.676456 0
M  V30 2226 H 216.406 -0.132608 1.94448 0
M  V30 2227 H 215.502 -1.40814 2.78528 0
M  V30 2228 N 215.803 -1.52179 -0.40978 0
M  V30 2229 C 216.75 -1.75475 -1.49924 0
M  V30 2230 C 217.72 -0.597175 -1.54994 0
M  V30 2231 O 218.905 -0.834655 -1.71575 0
M  V30 2232 C 216.045 -1.9107 -2.87378 0
M  V30 2233 C 215.158 -3.18717 -2.91622 0
M  V30 2234 C 214.293 -3.24747 -4.20372 0
M  V30 2235 C 213.332 -4.46598 -4.18588 0
M  V30 2236 N 212.469 -4.50025 -5.38908 0
M  V30 2237 H 217.309 -2.68458 -1.29361 0
M  V30 2238 H 214.846 -1.33024 -0.627934 0
M  V30 2239 H 216.804 -1.98096 -3.6717 0
M  V30 2240 H 215.434 -1.01469 -3.06437 0
M  V30 2241 H 214.486 -3.20866 -2.04326 0
M  V30 2242 H 215.798 -4.08544 -2.86169 0
M  V30 2243 H 214.952 -3.30841 -5.08556 0
M  V30 2244 H 213.691 -2.32857 -4.28519 0
M  V30 2245 H 212.696 -4.40652 -3.28794 0
M  V30 2246 H 213.921 -5.39783 -4.12081 0
M  V30 2247 H 211.867 -3.61017 -5.47725 0
M  V30 2248 H 211.784 -5.33697 -5.35447 0
M  V30 2249 H 213.052 -4.60347 -6.29048 0
M  V30 2250 N 217.281 0.66697 -1.42791 0
M  V30 2251 C 218.191 1.80962 -1.49299 0
M  V30 2252 C 219.207 1.69775 -0.381108 0
M  V30 2253 O 220.383 1.91188 -0.633188 0
M  V30 2254 C 217.448 3.17156 -1.40045 0
M  V30 2255 C 216.509 3.40242 -2.6179 0
M  V30 2256 C 215.742 4.69939 -2.52969 0
M  V30 2257 O 215.965 5.48372 -1.56985 0
M  V30 2258 O 214.899 4.94441 -3.43237 0
M  V30 2259 H 218.725 1.78427 -2.45759 0
M  V30 2260 H 216.31 0.823713 -1.24641 0
M  V30 2261 H 218.192 3.98413 -1.37276 0
M  V30 2262 H 216.867 3.20312 -0.467138 0
M  V30 2263 H 215.774 2.58802 -2.70134 0
M  V30 2264 H 217.107 3.41923 -3.54047 0
M  V30 2265 N 218.759 1.29093 0.90403 0
M  V30 2266 C 220.008 1.16187 1.64874 0
M  V30 2267 C 220.321 -0.286742 1.93487 0
M  V30 2268 O 221.527 -0.537062 2.66135 0
M  V30 2269 C 219.983 2.03177 2.97064 0
M  V30 2270 C 219.591 3.52836 2.76062 0
M  V30 2271 C 221.335 1.98984 3.74974 0
M  V30 2272 C 219.242 4.31945 4.03952 0
M  V30 2273 H 218.172 0.431246 0.618501 0
M  V30 2274 H 220.823 1.53699 1.00243 0
M  V30 2275 H 219.205 1.5853 3.62883 0
M  V30 2276 H 220.379 4.05507 2.18863 0
M  V30 2277 H 218.694 3.58656 2.11553 0
M  V30 2278 H 221.291 2.55351 4.69787 0
M  V30 2279 H 221.634 0.968815 4.0487 0
M  V30 2280 H 222.167 2.41652 3.15989 0
M  V30 2281 H 218.906 5.34667 3.79225 0
M  V30 2282 H 218.426 3.84045 4.60727 0
M  V30 2283 H 220.105 4.42379 4.72133 0
M  V30 2284 N 220.237 -1.11381 1.11499 0
M  V30 2285 C 221.514 -1.7955 0.775965 0
M  V30 2286 C 221.894 -1.97859 -0.73588 0
M  V30 2287 O 221.242 -1.56376 -1.66609 0
M  V30 2288 C 221.452 -3.13196 1.53977 0
M  V30 2289 C 222.8 -3.88227 1.71944 0
M  V30 2290 O 223.824 -3.22887 1.50407 0
M  V30 2291 O 222.683 -5.05477 2.07738 0
M  V30 2292 H 219.777 -0.777728 0.28119 0
M  V30 2293 H 222.323 -1.18118 1.21845 0
M  V30 2294 H 221.095 -2.95229 2.56818 0
M  V30 2295 H 220.718 -3.82342 1.09088 0
M  V30 2296 N 221.715 -0.905404 -1.28997 0
M  V30 2297 C 222.943 -0.549846 -1.9946 0
M  V30 2298 C 223.358 0.866834 -1.67724 0
M  V30 2299 O 222.715 1.57298 -0.925404 0
M  V30 2300 C 222.766 -0.739387 -3.53858 0
M  V30 2301 O 222.487 -2.10031 -3.84472 0
M  V30 2302 C 223.988 -0.389541 -4.41585 0
M  V30 2303 H 221.208 -0.210429 -0.637151 0
M  V30 2304 H 223.752 -1.21632 -1.64396 0
M  V30 2305 H 221.907 -0.120023 -3.87214 0
M  V30 2306 H 222.321 -2.13385 -4.79132 0
M  V30 2307 H 223.795 -0.572972 -5.49018 0
M  V30 2308 H 224.272 0.673756 -4.34001 0
M  V30 2309 H 224.878 -0.986089 -4.1371 0
M  V30 2310 N 223.193 1.4272 -0.668489 0
M  V30 2311 C 224.14 2.30796 0.0137489 0
M  V30 2312 C 225.11 1.4561 0.799177 0
M  V30 2313 O 226.295 1.74453 0.772702 0
M  V30 2314 C 223.435 3.31377 0.963507 0
M  V30 2315 C 222.548 4.31655 0.172569 0
M  V30 2316 C 221.683 5.19312 1.1175 0
M  V30 2317 C 220.722 6.11274 0.317886 0
M  V30 2318 N 219.859 6.91504 1.2152 0
M  V30 2319 H 224.699 2.88585 -0.743161 0
M  V30 2320 H 222.236 1.42154 -0.378226 0
M  V30 2321 H 224.194 3.88214 1.52792 0
M  V30 2322 H 222.824 2.75202 1.68712 0
M  V30 2323 H 221.876 3.76988 -0.508374 0
M  V30 2324 H 223.188 4.96779 -0.448527 0
M  V30 2325 H 222.342 5.80851 1.75206 0
M  V30 2326 H 221.081 4.5435 1.77249 0
M  V30 2327 H 220.086 5.48809 -0.329918 0
M  V30 2328 H 221.311 6.78283 -0.332917 0
M  V30 2329 H 219.257 6.29176 1.85671 0
M  V30 2330 H 219.174 7.53209 0.649036 0
M  V30 2331 H 220.442 7.57535 1.83742 0
M  V30 2332 N 224.671 0.411399 1.52136 0
M  V30 2333 C 225.621 -0.430376 2.23901 0
M  V30 2334 C 226.605 -1.0116 1.25121 0
M  V30 2335 O 227.797 -0.934044 1.50348 0
M  V30 2336 C 224.926 -1.54527 3.06556 0
M  V30 2337 C 224.012 -0.9747 4.12747 0
M  V30 2338 N 224.403 -0.130991 5.0563 0
M  V30 2339 C 222.701 -1.24497 4.28271 0
M  V30 2340 C 223.402 0.186689 5.814 0
M  V30 2341 N 222.378 -0.42304 5.41951 0
M  V30 2342 H 226.18 0.220509 2.93072 0
M  V30 2343 H 223.694 0.221952 1.60876 0
M  V30 2344 H 225.691 -2.16093 3.56524 0
M  V30 2345 H 224.351 -2.19875 2.38925 0
M  V30 2346 H 225.362 0.23349 5.17373 0
M  V30 2347 H 222.039 -1.89787 3.7187 0
M  V30 2348 H 223.429 0.871673 6.66222 0
M  V30 2349 N 226.149 -1.5696 0.141893 0
M  V30 2350 C 227.079 -2.19516 -0.795936 0
M  V30 2351 C 228.06 -1.14187 -1.26077 0
M  V30 2352 O 229.245 -1.42511 -1.31925 0
M  V30 2353 C 226.375 -2.81272 -2.03723 0
M  V30 2354 C 225.329 -3.92384 -1.70936 0
M  V30 2355 C 224.655 -4.41052 -3.02287 0
M  V30 2356 C 225.955 -5.13403 -0.959954 0
M  V30 2357 H 227.649 -2.98138 -0.274596 0
M  V30 2358 H 225.195 -1.43406 -0.130636 0
M  V30 2359 H 227.148 -3.237 -2.69808 0
M  V30 2360 H 225.872 -1.99973 -2.58221 0
M  V30 2361 H 224.531 -3.50566 -1.07232 0
M  V30 2362 H 224.179 -3.56582 -3.54765 0
M  V30 2363 H 223.879 -5.15993 -2.81114 0
M  V30 2364 H 225.403 -4.86146 -3.69451 0
M  V30 2365 H 226.817 -5.52706 -1.52279 0
M  V30 2366 H 225.214 -5.94073 -0.848357 0
M  V30 2367 H 226.284 -4.84875 0.0492434 0
M  V30 2368 N 227.627 0.131896 -1.57047 0
M  V30 2369 C 229.038 0.690407 -1.73465 0
M  V30 2370 C 229.389 1.8094 -0.758629 0
M  V30 2371 O 228.514 2.16282 0.0713813 0
M  V30 2372 C 229.109 1.25916 -3.14532 0
M  V30 2373 C 227.668 1.76409 -3.32501 0
M  V30 2374 C 226.815 0.658579 -2.69366 0
M  V30 2375 H 229.766 -0.0939144 -1.58422 0
M  V30 2376 H 229.787 2.12892 -3.15369 0
M  V30 2377 H 229.299 0.444515 -3.85546 0
M  V30 2378 H 227.4 2.60391 -2.66509 0
M  V30 2379 H 227.513 1.88241 -4.4057 0
M  V30 2380 H 225.877 1.08899 -2.30246 0
M  V30 2381 H 226.66 -0.14487 -3.42994 0
M  V30 2382 N 229.106 1.52395 0.401703 0
M  V30 2383 C 230.331 1.70972 1.17403 0
M  V30 2384 C 230.756 0.421615 1.83314 0
M  V30 2385 O 230.114 -0.621564 1.70312 0
M  V30 2386 C 230.162 2.85151 2.20728 0
M  V30 2387 O 229.266 2.51238 3.27037 0
M  V30 2388 H 228.607 0.568927 0.342372 0
M  V30 2389 H 231.137 1.99131 0.469891 0
M  V30 2390 H 231.147 3.10279 2.64936 0
M  V30 2391 H 229.822 3.78603 1.7214 0
M  V30 2392 H 228.399 2.36808 2.88057 0
M  V30 2393 N 230.584 -0.659388 1.43143 0
M  V30 2394 C 231.812 -1.44723 1.47861 0
M  V30 2395 C 232.227 -1.88563 0.0945886 0
M  V30 2396 O 231.584 -1.59108 -0.893915 0
M  V30 2397 C 231.635 -2.68627 2.41913 0
M  V30 2398 O 231.356 -2.26623 3.74932 0
M  V30 2399 C 232.857 -3.62045 2.55809 0
M  V30 2400 H 230.077 -0.444801 0.502387 0
M  V30 2401 H 232.621 -0.808916 1.87821 0
M  V30 2402 H 230.776 -3.28613 2.05164 0
M  V30 2403 H 231.19 -3.06745 4.2545 0
M  V30 2404 H 232.664 -4.45666 3.25708 0
M  V30 2405 H 233.141 -4.08981 1.60099 0
M  V30 2406 H 233.747 -3.07944 2.93344 0
M  V30 2407 N 232.062 -1.29571 -0.897171 0
M  V30 2408 C 233.302 -1.18959 -1.66217 0
M  V30 2409 C 233.666 0.254271 -1.90309 0
M  V30 2410 O 234.867 0.483407 -2.64417 0
M  V30 2411 C 233.138 -1.98302 -2.9734 0
M  V30 2412 S 234.697 -2.04253 -3.88364 0
M  V30 2413 H 231.515 -0.424137 -0.570639 0
M  V30 2414 H 234.117 -1.6389 -1.06585 0
M  V30 2415 H 232.821 -3.02342 -2.77521 0
M  V30 2416 H 232.352 -1.53986 -3.62011 0
M  V30 2417 H 234.367 -1.16105 -4.82425 0
M  V30 2418 N 233.54 1.10788 -1.12088 0
M  V30 2419 C 234.956 1.34691 -0.856186 0
M  V30 2420 C 235.156 1.94791 0.515615 0
M  V30 2421 O 234.212 2.18524 1.26505 0
M  V30 2422 C 235.525 2.27208 -1.9697 0
M  V30 2423 C 237.073 2.40755 -2.00016 0
M  V30 2424 C 237.548 3.36598 -3.1059 0
M  V30 2425 N 239.039 3.44164 -3.10008 0
M  V30 2426 C 239.774 4.18284 -3.92206 0
M  V30 2427 N 239.27 4.95322 -4.84384 0
M  V30 2428 N 241.063 4.13865 -3.80357 0
M  V30 2429 H 233.214 0.70144 -2.00483 0
M  V30 2430 H 235.477 0.371405 -0.872217 0
M  V30 2431 H 235.183 1.90251 -2.958 0
M  V30 2432 H 235.057 3.27485 -1.87172 0
M  V30 2433 H 237.444 2.76982 -1.01808 0
M  V30 2434 H 237.525 1.40305 -2.13888 0
M  V30 2435 H 237.169 3.01096 -4.09028 0
M  V30 2436 H 237.099 4.36918 -2.93956 0
M  V30 2437 H 239.59 2.8922 -2.43228 0
M  V30 2438 H 239.903 5.49267 -5.43623 0
M  V30 2439 H 238.248 4.94459 -4.884 0
M  V30 2440 H 241.439 3.52773 -3.07683 0
M  V30 2441 H 241.612 4.71372 -4.44649 0
M  V30 2442 N 235.018 0.912232 1.28515 0
M  V30 2443 C 236.295 0.463597 1.90027 0
M  V30 2444 C 236.675 -1.05753 1.82701 0
M  V30 2445 O 236.023 -1.90492 1.26194 0
M  V30 2446 C 236.233 0.992253 3.34597 0
M  V30 2447 C 237.581 1.04344 4.11579 0
M  V30 2448 O 238.605 0.94079 3.43551 0
M  V30 2449 O 237.464 1.1995 5.33174 0
M  V30 2450 H 234.558 0.146666 0.813891 0
M  V30 2451 H 237.104 1.00292 1.36893 0
M  V30 2452 H 235.876 2.03623 3.34146 0
M  V30 2453 H 235.499 0.433672 3.95228 0
M  V30 2454 N 236.496 -1.42363 0.676048 0
M  V30 2455 C 237.444 -2.32596 -0.0131507 0
M  V30 2456 C 238.438 -1.49891 -0.789238 0
M  V30 2457 O 239.644 -1.65955 -0.697061 0
M  V30 2458 H 236.019 -0.751647 -0.0230481 0
M  V30 2459 H 237.99 -2.88421 0.765243 0
M  V30 2460 C 236.739 -3.34479 -0.949702 0
M  V30 2461 H 236.062 -3.98158 -0.361938 0
M  V30 2462 H 237.502 -4.00199 -1.4006 0
M  V30 2463 C 235.961 -2.66838 -2.05667 0
M  V30 2464 O 236.491 -2.50124 -3.14326 0
M  V30 2465 N 234.697 -2.25843 -1.82875 0
M  V30 2466 H 234.244 -2.39637 -0.945085 0
M  V30 2467 H 234.202 -1.80918 -2.5713 0
M  V30 2468 N 237.974 -0.419461 -1.51915 0
M  V30 2469 C 239.221 0.152939 -2.01922 0
M  V30 2470 C 239.549 1.4426 -1.30458 0
M  V30 2471 O 238.804 1.91514 -0.402593 0
M  V30 2472 C 239.103 0.437067 -3.54717 0
M  V30 2473 C 238.769 -0.764632 -4.44369 0
M  V30 2474 C 237.431 -1.09423 -4.68594 0
M  V30 2475 C 239.783 -1.56713 -4.97082 0
M  V30 2476 C 237.111 -2.22732 -5.42777 0
M  V30 2477 C 239.463 -2.69107 -5.72507 0
M  V30 2478 C 238.127 -3.02541 -5.95 0
M  V30 2479 H 237.397 0.0559644 -0.738884 0
M  V30 2480 H 240.044 -0.562998 -1.83037 0
M  V30 2481 H 238.349 1.23469 -3.71837 0
M  V30 2482 H 240.046 0.893083 -3.90928 0
M  V30 2483 H 236.636 -0.497775 -4.257 0
M  V30 2484 H 240.82 -1.32571 -4.78266 0
M  V30 2485 H 236.076 -2.48971 -5.58411 0
M  V30 2486 H 240.25 -3.31671 -6.12346 0
M  V30 2487 H 237.877 -3.90457 -6.52264 0
M  V30 2488 N 239.452 1.56882 -0.150215 0
M  V30 2489 C 240.729 1.87844 0.545327 0
M  V30 2490 C 241.109 1.0567 1.82749 0
M  V30 2491 O 240.457 0.144442 2.28043 0
M  V30 2492 C 240.667 3.39526 0.80767 0
M  V30 2493 C 242.015 4.08814 1.14703 0
M  V30 2494 O 243.039 3.44723 0.896917 0
M  V30 2495 O 241.898 5.22004 1.61784 0
M  V30 2496 H 238.992 0.778677 0.278553 0
M  V30 2497 H 241.538 1.68666 -0.187068 0
M  V30 2498 H 240.31 3.91173 -0.0996096 0
M  V30 2499 H 239.933 3.64243 1.59413 0
M  V30 2500 N 240.93 -0.123565 1.57115 0
M  V30 2501 C 241.893 -1.13583 1.99076 0
M  V30 2502 C 242.893 -1.34564 0.880296 0
M  V30 2503 O 244.083 -1.31158 1.14644 0
M  V30 2504 C 241.215 -2.49128 2.32698 0
M  V30 2505 H 242.408 -0.775287 2.89706 0
M  V30 2506 H 239.961 -0.36771 1.51913 0
M  V30 2507 H 240.696 -2.90111 1.44934 0
M  V30 2508 H 240.481 -2.35255 3.13684 0
M  V30 2509 H 241.971 -3.2199 2.65918 0
M  V30 2510 N 242.408 -1.52605 -0.393616 0
M  V30 2511 C 243.355 -1.77055 -1.48054 0
M  V30 2512 C 244.325 -0.61358 -1.54352 0
M  V30 2513 O 245.51 -0.852806 -1.70681 0
M  V30 2514 C 242.65 -1.94108 -2.85335 0
M  V30 2515 C 241.763 -3.21792 -2.88226 0
M  V30 2516 C 240.898 -3.29188 -4.16904 0
M  V30 2517 C 239.937 -4.51013 -4.13828 0
M  V30 2518 N 239.074 -4.55716 -5.34105 0
M  V30 2519 H 243.914 -2.69815 -1.26506 0
M  V30 2520 H 241.451 -1.33683 -0.61379 0
M  V30 2521 H 243.409 -2.01979 -3.65049 0
M  V30 2522 H 242.039 -1.04713 -3.05344 0
M  V30 2523 H 241.091 -3.23015 -2.00911 0
M  V30 2524 H 242.403 -4.11557 -2.8182 0
M  V30 2525 H 241.557 -3.36216 -5.05018 0
M  V30 2526 H 240.296 -2.37389 -4.26026 0
M  V30 2527 H 239.301 -4.44115 -3.24102 0
M  V30 2528 H 240.526 -5.44123 -4.06333 0
M  V30 2529 H 238.472 -3.66807 -5.43865 0
M  V30 2530 H 238.389 -5.39346 -5.29756 0
M  V30 2531 H 239.657 -4.66993 -6.2413 0
M  V30 2532 O 243.925 0.539544 -1.52221 0
M  V30 2533 H 244.616 1.19468 -1.5247 0
M  V30 END ATOM
M  V30 BEGIN BOND
M  V30 END BOND
M  V30 END CTAB
M  END
$$$$
