drugbank_target|P02920 Lactose permease (DB04396)
 OpenBabel12092120023D

  0  0  0     0  0            999 V3000
M  V30 BEGIN CTAB
M  V30 COUNTS 6627 6724 0 0 0
M  V30 BEGIN ATOM
M  V30 1 H -0.908 1.98254 -0.117106 0
M  V30 2 N 0 1.576 0 0
M  V30 3 C 0.933 2.03868 1.02534 0
M  V30 4 C 1.911 0.928543 1.3348 0
M  V30 5 O 3.095 1.19667 1.45644 0
M  V30 6 C 0.222 2.43627 2.35294 0
M  V30 7 C -0.732 3.65373 2.2001 0
M  V30 8 S 0.101 5.13292 1.52614 0
M  V30 9 C 1.257 5.56322 2.86805 0
M  V30 10 H 1.49 2.90518 0.631377 0
M  V30 11 H -0.977 1.52953 0.210867 0
M  V30 12 H 0.981 2.67203 3.11629 0
M  V30 13 H -0.358 1.57376 2.7183 0
M  V30 14 H -1.165 3.90944 3.18086 0
M  V30 15 H -1.563 3.418 1.51819 0
M  V30 16 H 0.729 5.58782 3.83104 0
M  V30 17 H 1.672 6.56266 2.65933 0
M  V30 18 H 2.08 4.83886 2.90714 0
M  V30 19 N 1.4781 -0.272755 1.55222 0
M  V30 20 C 2.7081 -1.02107 1.79604 0
M  V30 21 C 3.1161 -1.80419 0.569693 0
M  V30 22 O 2.4591 -1.77566 -0.470743 0
M  V30 23 C 2.5211 -2.02675 2.96922 0
M  V30 24 C 2.1851 -1.43299 4.33952 0
M  V30 25 C 3.1821 -0.84853 5.12929 0
M  V30 26 C 0.8671 -1.46012 4.8061 0
M  V30 27 C 2.8611 -0.299109 6.36698 0
M  V30 28 C 0.5481 -0.906833 6.04334 0
M  V30 29 C 1.5461 -0.32733 6.82215 0
M  V30 30 O 1.2341 0.217479 8.03606 0
M  V30 31 H 0.9661 -0.307322 0.602104 0
M  V30 32 H 3.5201 -0.308862 2.03065 0
M  V30 33 H 1.7501 -2.77656 2.69155 0
M  V30 34 H 3.4391 -2.63637 3.08626 0
M  V30 35 H 4.2051 -0.820265 4.78013 0
M  V30 36 H 0.0841 -1.90056 4.2 0
M  V30 37 H 3.6281 0.153852 6.9743 0
M  V30 38 H -0.4749 -0.932339 6.38731 0
M  V30 39 H 0.2931 0.106863 8.1843 0
M  V30 40 N 2.9562 -1.48159 -0.537278 0
M  V30 41 C 4.1862 -1.59223 -1.3165 0
M  V30 42 C 4.5942 -0.248849 -1.87556 0
M  V30 43 O 3.9372 0.770949 -1.6674 0
M  V30 44 C 3.9992 -2.57365 -2.51005 0
M  V30 45 C 3.6632 -4.02603 -2.16239 0
M  V30 46 C 4.6602 -4.90503 -1.72344 0
M  V30 47 C 2.3452 -4.48088 -2.26986 0
M  V30 48 C 4.3392 -6.21913 -1.39651 0
M  V30 49 C 2.0262 -5.7952 -1.93906 0
M  V30 50 C 3.0242 -6.66255 -1.50309 0
M  V30 51 O 2.7122 -7.95243 -1.17659 0
M  V30 52 H 2.4442 -0.539831 -0.406889 0
M  V30 53 H 4.9982 -1.94655 -0.655641 0
M  V30 54 H 3.2282 -2.1704 -3.20048 0
M  V30 55 H 4.9172 -2.58342 -3.13072 0
M  V30 56 H 5.6832 -4.56604 -1.63517 0
M  V30 57 H 1.5622 -3.80769 -2.59877 0
M  V30 58 H 5.1062 -6.89569 -1.0555 0
M  V30 59 H 1.0032 -6.12957 -2.02371 0
M  V30 60 H 1.7712 -8.0793 -1.31119 0
M  V30 61 N 4.4343 0.785586 -1.36625 0
M  V30 62 C 5.3643 1.91259 -1.33949 0
M  V30 63 C 6.3453 1.68795 -0.210325 0
M  V30 64 O 7.5303 1.89854 -0.408561 0
M  V30 65 C 4.6603 3.28339 -1.13186 0
M  V30 66 C 3.6143 3.65335 -2.22967 0
M  V30 67 C 2.9403 5.00806 -1.87342 0
M  V30 68 C 4.2403 3.7352 -3.65075 0
M  V30 69 H 5.9343 1.93755 -2.28253 0
M  V30 70 H 3.4803 0.930788 -1.09874 0
M  V30 71 H 5.4333 4.06804 -1.09948 0
M  V30 72 H 4.1573 3.2624 -0.153332 0
M  V30 73 H 2.8163 2.89169 -2.25337 0
M  V30 74 H 2.4643 4.95233 -0.880545 0
M  V30 75 H 2.1643 5.26529 -2.60846 0
M  V30 76 H 3.6883 5.81687 -1.85667 0
M  V30 77 H 5.1023 4.42168 -3.64911 0
M  V30 78 H 3.4993 4.10731 -4.37516 0
M  V30 79 H 4.5693 2.74527 -3.99703 0
M  V30 80 N 5.9124 1.20967 1.01018 0
M  V30 81 C 6.8594 0.964281 2.09691 0
M  V30 82 C 7.8294 -0.107853 1.65749 0
M  V30 83 O 9.0144 0.0381987 1.90762 0
M  V30 84 C 6.1544 0.52943 3.41015 0
M  V30 85 C 5.2674 1.67043 3.98398 0
M  V30 86 C 4.4024 1.18525 5.17808 0
M  V30 87 C 3.4414 2.29892 5.67288 0
M  V30 88 N 2.5784 1.82546 6.77954 0
M  V30 89 H 7.4184 1.89463 2.30017 0
M  V30 90 H 4.9554 0.944289 1.1279 0
M  V30 91 H 6.9134 0.258588 4.16398 0
M  V30 92 H 5.5434 -0.363919 3.20742 0
M  V30 93 H 4.5954 2.05603 3.20049 0
M  V30 94 H 5.9074 2.50877 4.31117 0
M  V30 95 H 5.0614 0.870762 6.00419 0
M  V30 96 H 3.8004 0.316887 4.86669 0
M  V30 97 H 2.8054 2.6215 4.83278 0
M  V30 98 H 4.0304 3.17216 6.00459 0
M  V30 99 H 1.9764 0.980454 6.48632 0
M  V30 100 H 1.8934 2.59956 7.09901 0
M  V30 101 H 3.1614 1.54115 7.64113 0
M  V30 102 N 7.3905 -1.2043 1.01659 0
M  V30 103 C 8.3385 -2.25249 0.580143 0
M  V30 104 C 9.3325 -1.65057 -0.381115 0
M  V30 105 O 10.5385 -1.78241 -0.251039 0
M  V30 106 H 6.9135 -0.732695 0.169299 0
M  V30 107 H 8.8845 -2.59389 1.47512 0
M  V30 108 C 7.6335 -3.47638 -0.065788 0
M  V30 109 H 6.9565 -3.94233 0.664874 0
M  V30 110 H 8.3965 -4.2268 -0.334282 0
M  V30 111 C 6.8555 -3.10447 -1.3086 0
M  V30 112 O 7.3855 -3.21981 -2.4019 0
M  V30 113 N 5.5915 -2.64996 -1.1927 0
M  V30 114 H 5.1385 -2.55811 -0.303064 0
M  V30 115 H 5.0965 -2.40482 -2.02523 0
M  V30 116 N 8.8686 -0.792821 -1.36206 0
M  V30 117 C 10.0966 -0.378825 -2.03402 0
M  V30 118 C 10.5116 1.00586 -1.59774 0
M  V30 119 O 9.8686 1.64574 -0.788764 0
M  V30 120 C 9.9196 -0.43683 -3.58851 0
M  V30 121 O 9.6406 -1.76691 -4.00889 0
M  V30 122 C 11.1416 -0.0138943 -4.43298 0
M  V30 123 H 8.3616 -0.155673 -0.652692 0
M  V30 124 H 10.9056 -1.07261 -1.74113 0
M  V30 125 H 9.0606 0.208575 -3.86838 0
M  V30 126 H 9.4746 -1.72011 -4.95492 0
M  V30 127 H 10.9486 -0.105615 -5.51899 0
M  V30 128 H 11.4256 1.03915 -4.2673 0
M  V30 129 H 12.0316 -0.63192 -4.20579 0
M  V30 130 N 10.3467 1.47872 -0.545128 0
M  V30 131 C 11.2947 2.31533 0.222512 0
M  V30 132 C 12.2887 1.42177 0.920985 0
M  V30 133 O 13.4947 1.59005 0.843645 0
M  V30 134 H 9.8697 0.746519 0.0906278 0
M  V30 135 H 11.8407 2.94139 -0.50246 0
M  V30 136 C 10.5897 3.2457 1.24699 0
M  V30 137 H 9.9127 3.93283 0.718944 0
M  V30 138 H 11.3527 3.85963 1.75523 0
M  V30 139 C 9.8117 2.47237 2.28856 0
M  V30 140 O 10.3417 2.20808 3.35569 0
M  V30 141 N 8.5477 2.08461 2.02466 0
M  V30 142 H 8.0947 2.30155 1.157 0
M  V30 143 H 8.0527 1.57033 2.72375 0
M  V30 144 N 11.8248 0.280983 1.55075 0
M  V30 145 C 13.0718 -0.334115 1.99725 0
M  V30 146 C 13.3998 -1.5542 1.1694 0
M  V30 147 O 12.6548 -1.94361 0.228531 0
M  V30 148 C 12.9538 -0.754656 3.49342 0
M  V30 149 C 12.6198 0.361445 4.49449 0
M  V30 150 C 11.2818 0.667893 4.76542 0
M  V30 151 C 13.6338 1.11322 5.09173 0
M  V30 152 C 10.9618 1.7296 5.60626 0
M  V30 153 C 13.3138 2.1647 5.9441 0
M  V30 154 C 11.9778 2.47742 6.19822 0
M  V30 155 H 11.2478 -0.122261 0.730844 0
M  V30 156 H 13.8948 0.395917 1.87363 0
M  V30 157 H 12.1998 -1.56446 3.5921 0
M  V30 158 H 13.8968 -1.24142 3.813 0
M  V30 159 H 10.4868 0.112481 4.28452 0
M  V30 160 H 14.6708 0.88973 4.8826 0
M  V30 161 H 9.9268 1.97684 5.78559 0
M  V30 162 H 14.1008 2.75193 6.3972 0
M  V30 163 H 11.7278 3.30145 6.84769 0
M  V30 164 N 13.3029 -1.57598 0.00835791 0
M  V30 165 C 14.5489 -1.92046 -0.670055 0
M  V30 166 C 14.9039 -0.88351 -1.70915 0
M  V30 167 O 14.1969 0.103223 -1.91322 0
M  V30 168 C 14.3909 -3.3101 -1.34787 0
M  V30 169 C 14.2199 -4.48126 -0.375945 0
M  V30 170 C 12.9899 -5.05297 0.0166914 0
M  V30 171 C 15.1879 -5.1303 0.361272 0
M  V30 172 N 13.1699 -6.05931 0.985952 0
M  V30 173 C 14.5409 -6.08571 1.18495 0
M  V30 174 C 16.5959 -4.9609 0.42421 0
M  V30 175 C 15.2989 -6.88996 2.06584 0
M  V30 176 C 17.3249 -5.77107 1.29236 0
M  V30 177 C 16.6869 -6.72248 2.10386 0
M  V30 178 H 12.7859 -0.75096 -0.218136 0
M  V30 179 H 15.3699 -1.94572 0.0706669 0
M  V30 180 H 13.5409 -3.29342 -2.05884 0
M  V30 181 H 15.2729 -3.52864 -1.98164 0
M  V30 182 H 12.0279 -4.72279 -0.353435 0
M  V30 183 H 12.4519 -6.60932 1.4662 0
M  V30 184 H 17.0939 -4.22378 -0.188915 0
M  V30 185 H 14.8119 -7.62028 2.6896 0
M  V30 186 H 18.3979 -5.66038 1.34508 0
M  V30 187 H 17.2779 -7.33846 2.76476 0
M  V30 188 N 14.781 0.264519 -1.55364 0
M  V30 189 C 15.714 1.35297 -1.83766 0
M  V30 190 C 16.692 1.47171 -0.691336 0
M  V30 191 O 17.876 1.63663 -0.935238 0
M  V30 192 C 15.003 2.72847 -2.00679 0
M  V30 193 C 14.049 2.78214 -3.23263 0
M  V30 194 S 14.882 2.36601 -4.80396 0
M  V30 195 C 16.038 3.7611 -5.00292 0
M  V30 196 H 16.271 1.11003 -2.758 0
M  V30 197 H 13.804 0.464596 -1.47244 0
M  V30 198 H 15.762 3.52057 -2.11108 0
M  V30 199 H 14.423 2.94388 -1.09518 0
M  V30 200 H 13.616 3.7919 -3.3201 0
M  V30 201 H 13.218 2.07034 -3.11469 0
M  V30 202 H 15.51 4.71457 -4.86554 0
M  V30 203 H 16.453 3.7231 -6.02321 0
M  V30 204 H 16.861 3.67806 -4.28228 0
M  V30 205 N 16.2591 1.48442 0.529413 0
M  V30 206 C 17.5061 1.56488 1.28521 0
M  V30 207 C 17.8341 0.239042 1.93025 0
M  V30 208 O 17.0891 -0.770713 1.79885 0
M  V30 209 C 17.3881 2.6523 2.39558 0
M  V30 210 C 17.0541 4.07648 1.92702 0
M  V30 211 C 15.7161 4.46411 1.79641 0
M  V30 212 C 18.0681 4.96896 1.573 0
M  V30 213 C 15.3961 5.72226 1.29514 0
M  V30 214 C 17.7481 6.23202 1.08636 0
M  V30 215 C 16.4121 6.60821 0.941919 0
M  V30 216 H 15.6821 0.572631 0.470292 0
M  V30 217 H 18.3291 1.82161 0.59072 0
M  V30 218 H 16.6341 2.33419 3.14679 0
M  V30 219 H 18.3311 2.68671 2.97686 0
M  V30 220 H 14.9211 3.77036 2.03819 0
M  V30 221 H 19.1051 4.67626 1.66251 0
M  V30 222 H 14.3611 6.00097 1.17019 0
M  V30 223 H 18.5351 6.91753 0.803136 0
M  V30 224 H 16.1621 7.58198 0.5513 0
M  V30 225 N 17.7372 -0.778329 1.37039 0
M  V30 226 C 18.9852 -1.53361 1.31623 0
M  V30 227 C 19.3062 -1.94739 -0.100831 0
M  V30 228 O 18.5762 -1.65797 -1.04347 0
M  V30 229 H 17.1562 -0.568794 0.484234 0
M  V30 230 H 19.8182 -0.926742 1.71457 0
M  V30 231 H 18.9142 -2.43606 1.95096 0
M  V30 232 N 19.2153 -1.21501 -1.00376 0
M  V30 233 C 20.1453 -0.999478 -2.11028 0
M  V30 234 C 21.1263 0.0759671 -1.6993 0
M  V30 235 O 22.3113 -0.0841106 -1.94018 0
M  V30 236 C 19.4413 -0.564709 -3.42678 0
M  V30 237 C 18.3953 -1.58486 -3.97576 0
M  V30 238 C 17.7213 -1.00628 -5.25146 0
M  V30 239 C 19.0213 -2.97204 -4.29496 0
M  V30 240 H 20.7153 -1.92495 -2.29317 0
M  V30 241 H 18.2613 -0.92693 -1.102 0
M  V30 242 H 20.2143 -0.401091 -4.19487 0
M  V30 243 H 18.9383 0.396411 -3.24185 0
M  V30 244 H 17.5973 -1.73606 -3.22888 0
M  V30 245 H 17.2453 -0.0368439 -5.02987 0
M  V30 246 H 16.9453 -1.68771 -5.62841 0
M  V30 247 H 18.4693 -0.854015 -6.04598 0
M  V30 248 H 19.8833 -2.8552 -4.97143 0
M  V30 249 H 18.2803 -3.62372 -4.78338 0
M  V30 250 H 19.3503 -3.47956 -3.3772 0
M  V30 251 N 20.6934 1.19889 -1.02296 0
M  V30 252 C 21.9404 1.8942 -0.715972 0
M  V30 253 C 22.2684 1.79251 0.754944 0
M  V30 254 O 21.5234 1.17526 1.56481 0
M  V30 255 C 21.8224 3.39883 -1.10518 0
M  V30 256 C 21.4884 3.70254 -2.57337 0
M  V30 257 C 20.1504 3.78254 -2.97452 0
M  V30 258 C 22.5024 3.84052 -3.52354 0
M  V30 259 C 19.8304 3.97514 -4.31509 0
M  V30 260 C 22.1824 4.04824 -4.86108 0
M  V30 261 C 20.8464 4.11054 -5.25919 0
M  V30 262 H 20.1164 0.693138 -0.261993 0
M  V30 263 H 22.7634 1.42012 -1.28472 0
M  V30 264 H 21.0684 3.8915 -0.454953 0
M  V30 265 H 22.7654 3.9199 -0.845261 0
M  V30 266 H 19.3554 3.64632 -2.25258 0
M  V30 267 H 23.5394 3.77221 -3.22518 0
M  V30 268 H 18.7954 4.00574 -4.61898 0
M  V30 269 H 22.9694 4.14442 -5.59653 0
M  V30 270 H 20.5964 4.2573 -6.29808 0
M  V30 271 N 22.1715 0.800033 1.35784 0
M  V30 272 C 23.4185 0.377342 1.98953 0
M  V30 273 C 23.7465 -1.05378 1.6348 0
M  V30 274 O 23.0015 -1.74459 0.886707 0
M  V30 275 C 23.3005 0.500276 3.53881 0
M  V30 276 C 22.9665 1.89375 4.09204 0
M  V30 277 C 21.6285 2.27499 4.24025 0
M  V30 278 C 23.9805 2.8057 4.39238 0
M  V30 279 C 21.3085 3.562 4.66195 0
M  V30 280 C 23.6605 4.0871 4.82844 0
M  V30 281 C 22.3245 4.46843 4.95871 0
M  V30 282 H 21.5945 0.138079 0.728021 0
M  V30 283 H 24.2415 1.01955 1.62103 0
M  V30 284 H 22.5465 -0.225405 3.91151 0
M  V30 285 H 24.2435 0.154097 4.00704 0
M  V30 286 H 20.8335 1.58753 3.98115 0
M  V30 287 H 25.0175 2.52367 4.27346 0
M  V30 288 H 20.2735 3.85602 4.74469 0
M  V30 289 H 24.4475 4.79481 5.05046 0
M  V30 290 H 22.0745 5.46623 5.28306 0
M  V30 291 N 23.6496 -1.47581 0.552962 0
M  V30 292 C 24.8966 -2.02482 0.0273243 0
M  V30 293 C 25.2246 -1.42776 -1.32081 0
M  V30 294 O 24.4796 -0.571393 -1.87173 0
M  V30 295 C 24.7786 -3.57199 -0.119728 0
M  V30 296 C 24.4446 -4.35804 1.15697 0
M  V30 297 C 23.1066 -4.57 1.50681 0
M  V30 298 C 25.4586 -4.81167 2.00319 0
M  V30 299 C 22.7866 -5.20807 2.70142 0
M  V30 300 C 25.1386 -5.46293 3.18978 0
M  V30 301 C 23.8026 -5.65722 3.54281 0
M  V30 302 H 23.0726 -0.740933 0.00999866 0
M  V30 303 H 25.7196 -1.77302 0.72362 0
M  V30 304 H 24.0246 -3.81348 -0.89896 0
M  V30 305 H 25.7216 -3.97324 -0.541718 0
M  V30 306 H 22.3116 -4.19582 0.874561 0
M  V30 307 H 26.4956 -4.64574 1.74599 0
M  V30 308 H 21.7516 -5.34045 2.97668 0
M  V30 309 H 25.9256 -5.80407 3.84838 0
M  V30 310 H 23.5526 -6.14936 4.46942 0
M  V30 311 N 25.1277 -0.289203 -1.54924 0
M  V30 312 C 26.3747 0.323519 -1.99899 0
M  V30 313 C 26.7027 1.54797 -1.17762 0
M  V30 314 O 25.9577 1.94237 -0.238835 0
M  V30 315 C 26.2567 0.736119 -3.49737 0
M  V30 316 C 25.9227 -0.385276 -4.49251 0
M  V30 317 C 24.5847 -0.693156 -4.76181 0
M  V30 318 C 26.9367 -1.14021 -5.08575 0
M  V30 319 C 24.2647 -1.7593 -5.59701 0
M  V30 320 C 26.6167 -2.19619 -5.93254 0
M  V30 321 C 25.2807 -2.51026 -6.185 0
M  V30 322 H 24.5507 0.118384 -0.731482 0
M  V30 323 H 27.1977 -0.405847 -1.8715 0
M  V30 324 H 25.5027 1.54539 -3.60035 0
M  V30 325 H 27.1997 1.22118 -3.81953 0
M  V30 326 H 23.7897 -0.135202 -4.28387 0
M  V30 327 H 27.9737 -0.915611 -4.87781 0
M  V30 328 H 23.2297 -2.0075 -5.77503 0
M  V30 329 H 27.4037 -2.78581 -6.38252 0
M  V30 330 H 25.0307 -3.33772 -6.83008 0
M  V30 331 N 26.6058 1.57591 -0.0167156 0
M  V30 332 C 27.8358 1.95292 0.674149 0
M  V30 333 C 28.2438 0.891097 1.66901 0
M  V30 334 O 27.5868 -0.136908 1.83189 0
M  V30 335 C 27.6488 3.29072 1.44747 0
M  V30 336 C 27.3128 4.52879 0.612331 0
M  V30 337 C 28.3098 5.1979 -0.107126 0
M  V30 338 C 25.9948 4.99242 0.553381 0
M  V30 339 C 27.9888 6.31375 -0.874339 0
M  V30 340 C 25.6758 6.10713 -0.217546 0
M  V30 341 C 26.6738 6.76637 -0.930123 0
M  V30 342 O 26.3618 7.85969 -1.68844 0
M  V30 343 H 26.0938 0.648275 0.191615 0
M  V30 344 H 28.6478 2.05284 -0.0690148 0
M  V30 345 H 26.8778 3.15535 2.2355 0
M  V30 346 H 28.5668 3.51764 2.02526 0
M  V30 347 H 29.3328 4.84948 -0.0708392 0
M  V30 348 H 25.2118 4.47744 1.09757 0
M  V30 349 H 28.7558 6.82764 -1.43106 0
M  V30 350 H 24.6528 6.44994 -0.255593 0
M  V30 351 H 25.4208 8.02571 -1.6069 0
M  V30 352 N 28.0839 -0.256276 1.55502 0
M  V30 353 C 29.3309 -0.985619 1.76895 0
M  V30 354 C 29.6589 -1.85671 0.579355 0
M  V30 355 O 28.9139 -1.90744 -0.437651 0
M  V30 356 C 29.2129 -1.88432 3.03691 0
M  V30 357 C 28.8789 -1.16936 4.35473 0
M  V30 358 C 27.5409 -0.97173 4.71286 0
M  V30 359 C 29.8929 -0.661889 5.1698 0
M  V30 360 C 27.2209 -0.254179 5.86149 0
M  V30 361 C 29.5729 0.042149 6.32586 0
M  V30 362 C 28.2369 0.25134 6.67027 0
M  V30 363 H 27.5069 -0.360663 0.647304 0
M  V30 364 H 30.1539 -0.256483 1.89775 0
M  V30 365 H 28.4589 -2.68021 2.85783 0
M  V30 366 H 30.1559 -2.45015 3.1744 0
M  V30 367 H 26.7459 -1.33332 4.07333 0
M  V30 368 H 30.9299 -0.802145 4.89775 0
M  V30 369 H 26.1859 -0.0815408 6.11346 0
M  V30 370 H 30.3599 0.443049 6.94989 0
M  V30 371 H 27.9869 0.809314 7.5588 0
M  V30 372 N 29.562 -1.4872 -0.521534 0
M  V30 373 C 30.809 -1.57168 -1.27689 0
M  V30 374 C 31.137 -0.249275 -1.92896 0
M  V30 375 O 30.392 0.761162 -1.80291 0
M  V30 376 C 30.691 -2.66497 -2.38148 0
M  V30 377 C 30.357 -4.08664 -1.90538 0
M  V30 378 C 29.019 -4.47357 -1.77271 0
M  V30 379 C 31.371 -4.97724 -1.54663 0
M  V30 380 C 28.699 -5.72905 -1.26478 0
M  V30 381 C 31.051 -6.2377 -1.05329 0
M  V30 382 C 29.715 -6.61311 -0.906861 0
M  V30 383 H 28.985 -0.575117 -0.467249 0
M  V30 384 H 31.632 -1.82472 -0.581051 0
M  V30 385 H 29.937 -2.35085 -3.13437 0
M  V30 386 H 31.634 -2.70246 -2.96257 0
M  V30 387 H 28.224 -3.78111 -2.01816 0
M  V30 388 H 32.408 -4.68501 -1.63768 0
M  V30 389 H 27.664 -6.00709 -1.13835 0
M  V30 390 H 31.838 -6.9217 -0.76644 0
M  V30 391 H 29.465 -7.5848 -0.511083 0
M  V30 392 N 31.0401 0.771051 -1.3745 0
M  V30 393 C 32.2891 1.52491 -1.3202 0
M  V30 394 C 32.6021 1.9538 0.0927347 0
M  V30 395 O 33.8081 2.70159 0.269503 0
M  V30 396 C 32.2641 2.75366 -2.31736 0
M  V30 397 C 31.8721 2.39573 -3.78562 0
M  V30 398 C 33.6161 3.53307 -2.35318 0
M  V30 399 C 31.5231 3.58954 -4.70007 0
M  V30 400 H 30.4531 0.572506 -0.490666 0
M  V30 401 H 33.1041 0.844474 -1.62914 0
M  V30 402 H 31.4861 3.45303 -1.93861 0
M  V30 403 H 32.6601 1.77415 -4.25277 0
M  V30 404 H 30.9751 1.74805 -3.77932 0
M  V30 405 H 33.5721 4.42039 -3.00842 0
M  V30 406 H 33.9151 3.93217 -1.36698 0
M  V30 407 H 34.4481 2.90367 -2.71904 0
M  V30 408 H 31.1871 3.24125 -5.69757 0
M  V30 409 H 30.7071 4.20214 -4.27996 0
M  V30 410 H 32.3861 4.25758 -4.87175 0
M  V30 411 N 32.5182 1.22032 0.997298 0
M  V30 412 C 33.4512 0.929735 2.08401 0
M  V30 413 C 34.4292 -0.125681 1.62114 0
M  V30 414 O 35.6132 0.00495409 1.88499 0
M  V30 415 C 32.7402 0.397488 3.3636 0
M  V30 416 C 31.7862 1.4369 4.01566 0
M  V30 417 S 32.6192 3.00874 4.42984 0
M  V30 418 C 33.7752 2.49276 5.74119 0
M  V30 419 H 34.0082 1.84998 2.32729 0
M  V30 420 H 31.5412 1.0509 1.13117 0
M  V30 421 H 33.4992 0.0969846 4.10385 0
M  V30 422 H 32.1602 -0.501571 3.10069 0
M  V30 423 H 31.3532 1.01427 4.93689 0
M  V30 424 H 30.9552 1.68588 3.33847 0
M  V30 425 H 33.2472 1.90242 6.50242 0
M  V30 426 H 34.1902 3.39872 6.21203 0
M  V30 427 H 34.5982 1.90714 5.31308 0
M  V30 428 N 33.9963 -1.19345 1.0293 0
M  V30 429 C 35.2443 -1.88665 0.724574 0
M  V30 430 C 35.5653 -1.80036 -0.749144 0
M  V30 431 O 34.8353 -1.2111 -1.53978 0
M  V30 432 H 33.4153 -0.698406 0.265025 0
M  V30 433 H 36.0773 -1.44885 1.30362 0
M  V30 434 H 35.1733 -2.94987 1.01926 0
M  V30 435 N 35.4744 -0.807222 -1.35358 0
M  V30 436 C 36.4374 -0.223665 -2.28106 0
M  V30 437 C 37.4374 0.589354 -1.4961 0
M  V30 438 O 38.6274 0.407745 -1.69361 0
M  V30 439 C 35.7594 0.688149 -3.33882 0
M  V30 440 H 36.9524 -1.04169 -2.81227 0
M  V30 441 H 34.5054 -0.577921 -1.45223 0
M  V30 442 H 35.2404 1.52984 -2.85948 0
M  V30 443 H 35.0254 0.10687 -3.91954 0
M  V30 444 H 36.5154 1.09075 -4.03104 0
M  V30 445 N 36.9525 1.47285 -0.560781 0
M  V30 446 C 38.1825 2.06555 -0.0429638 0
M  V30 447 C 38.5905 1.41339 1.25777 0
M  V30 448 O 37.9335 0.505182 1.76617 0
M  V30 449 C 37.9955 3.58827 0.219887 0
M  V30 450 C 37.6595 4.46105 -0.991944 0
M  V30 451 C 38.6565 4.84 -1.89843 0
M  V30 452 C 36.3415 4.87567 -1.20762 0
M  V30 453 C 38.3355 5.6216 -3.00425 0
M  V30 454 C 36.0225 5.65491 -2.31653 0
M  V30 455 C 37.0205 6.02699 -3.21315 0
M  V30 456 O 36.7085 6.79052 -4.30283 0
M  V30 457 H 36.4405 0.674537 -0.0444468 0
M  V30 458 H 38.9945 1.90225 -0.774818 0
M  V30 459 H 37.2245 3.73383 1.00609 0
M  V30 460 H 38.9135 4.00103 0.683522 0
M  V30 461 H 39.6795 4.52564 -1.74387 0
M  V30 462 H 35.5585 4.5807 -0.518893 0
M  V30 463 H 39.1025 5.9112 -3.70436 0
M  V30 464 H 34.9995 5.9634 -2.47081 0
M  V30 465 H 35.7675 6.9745 -4.28376 0
M  V30 466 N 38.4306 0.297415 1.54768 0
M  V30 467 C 39.6776 -0.312913 2.00068 0
M  V30 468 C 40.0056 -1.54171 1.18582 0
M  V30 469 O 39.2606 -1.94108 0.249133 0
M  V30 470 C 39.5596 -0.717561 3.50123 0
M  V30 471 C 39.2256 0.409095 4.4904 0
M  V30 472 C 37.8876 0.718399 4.75807 0
M  V30 473 C 40.2396 1.16717 5.07963 0
M  V30 474 C 37.5676 1.78896 5.5876 0
M  V30 475 C 39.9196 2.22762 5.92081 0
M  V30 476 C 38.5836 2.54303 6.1716 0
M  V30 477 H 37.8536 -0.114503 0.7321 0
M  V30 478 H 40.5006 0.415767 1.86932 0
M  V30 479 H 38.8056 -1.52627 3.60849 0
M  V30 480 H 40.5026 -1.20091 3.82595 0
M  V30 481 H 37.0926 0.157918 4.28309 0
M  V30 482 H 41.2766 0.941466 4.87289 0
M  V30 483 H 36.5326 2.0381 5.7643 0
M  V30 484 H 40.7066 2.81962 6.36765 0
M  V30 485 H 38.3336 3.3739 6.81229 0
M  V30 486 N 39.9087 -1.5758 0.0250728 0
M  V30 487 C 41.3197 -1.79476 -0.514323 0
M  V30 488 C 41.6707 -0.934956 -1.72491 0
M  V30 489 O 40.7957 -0.144245 -2.15919 0
M  V30 490 C 41.3907 -3.25503 -0.939842 0
M  V30 491 C 39.9497 -3.48408 -1.42438 0
M  V30 492 C 39.0967 -2.74583 -0.387201 0
M  V30 493 H 42.0477 -1.567 0.25113 0
M  V30 494 H 42.0687 -3.34992 -1.80445 0
M  V30 495 H 41.5807 -3.88056 -0.0585628 0
M  V30 496 H 39.6817 -2.91103 -2.32572 0
M  V30 497 H 39.7947 -4.57119 -1.43455 0
M  V30 498 H 38.1587 -2.39942 -0.854409 0
M  V30 499 H 38.9417 -3.39849 0.485543 0
M  V30 500 N 41.3868 0.248026 -1.55636 0
M  V30 501 C 42.6338 0.976224 -1.77415 0
M  V30 502 C 42.9618 1.85361 -0.589193 0
M  V30 503 O 42.2168 1.90973 0.427529 0
M  V30 504 C 42.5158 1.86819 -3.04686 0
M  V30 505 C 42.1818 1.14625 -4.36087 0
M  V30 506 C 40.8438 0.946723 -4.71795 0
M  V30 507 C 43.1958 0.634463 -5.17324 0
M  V30 508 C 40.5238 0.223091 -5.86276 0
M  V30 509 C 42.8758 -0.0756959 -6.32555 0
M  V30 510 C 41.5398 -0.286711 -6.66884 0
M  V30 511 H 40.8098 0.357226 -0.649208 0
M  V30 512 H 43.4568 0.246415 -1.89908 0
M  V30 513 H 41.7618 2.66502 -2.872 0
M  V30 514 H 43.4588 2.43329 -3.18735 0
M  V30 515 H 40.0488 1.3117 -4.08035 0
M  V30 516 H 44.2328 0.77616 -4.90193 0
M  V30 517 H 39.4888 0.0491185 -6.1138 0
M  V30 518 H 43.6628 -0.479899 -6.94745 0
M  V30 519 H 41.2898 -0.849389 -7.5544 0
M  V30 520 N 42.8649 1.48995 0.513639 0
M  V30 521 C 44.1119 1.57843 1.26854 0
M  V30 522 C 44.4399 0.259501 1.92761 0
M  V30 523 O 43.6949 -0.75159 1.80692 0
M  V30 524 C 43.9939 2.67756 2.36731 0
M  V30 525 C 43.6599 4.09669 1.88368 0
M  V30 526 C 42.3219 4.48291 1.74896 0
M  V30 527 C 44.6739 4.98537 1.52021 0
M  V30 528 C 42.0019 5.73568 1.23438 0
M  V30 529 C 44.3539 6.24319 1.0202 0
M  V30 530 C 43.0179 6.61783 0.871778 0
M  V30 531 H 42.2879 0.577587 0.464192 0
M  V30 532 H 44.9349 1.82778 0.571366 0
M  V30 533 H 43.2399 2.36743 3.12185 0
M  V30 534 H 44.9369 2.71813 2.9482 0
M  V30 535 H 41.5269 3.79176 1.99808 0
M  V30 536 H 45.7109 4.69363 1.61281 0
M  V30 537 H 40.9669 6.01304 1.10648 0
M  V30 538 H 45.1409 6.92566 0.729722 0
M  V30 539 H 42.7679 7.5874 0.470852 0
M  V30 540 N 44.343 -0.763751 1.37857 0
M  V30 541 C 45.754 -1.3405 1.29952 0
M  V30 542 C 46.105 -1.96138 -0.0492898 0
M  V30 543 O 45.23 -1.94372 -0.951239 0
M  V30 544 C 45.825 -2.43729 2.35333 0
M  V30 545 C 44.384 -2.97151 2.31037 0
M  V30 546 C 43.531 -1.70438 2.18738 0
M  V30 547 H 46.482 -0.563396 1.48363 0
M  V30 548 H 46.503 -3.23412 2.00462 0
M  V30 549 H 46.015 -1.9851 3.33489 0
M  V30 550 H 44.116 -3.46724 1.3643 0
M  V30 551 H 44.229 -3.52221 3.24772 0
M  V30 552 H 42.593 -1.93673 1.65418 0
M  V30 553 H 43.376 -1.27312 3.18821 0
M  V30 554 N 45.8211 -1.22559 -0.990812 0
M  V30 555 C 47.0701 -1.04553 -1.72486 0
M  V30 556 C 47.3831 0.419349 -1.91052 0
M  V30 557 O 48.5891 0.719121 -2.61803 0
M  V30 558 C 47.0451 -1.82231 -3.10355 0
M  V30 559 C 46.6531 -3.32981 -2.99713 0
M  V30 560 C 48.3971 -1.7268 -3.87791 0
M  V30 561 C 46.3041 -4.03091 -4.32748 0
M  V30 562 H 45.2341 -0.387614 -0.646739 0
M  V30 563 H 47.8851 -1.46429 -1.10593 0
M  V30 564 H 46.2671 -1.33155 -3.72942 0
M  V30 565 H 47.4411 -3.89466 -2.46278 0
M  V30 566 H 45.7561 -3.43231 -2.35758 0
M  V30 567 H 48.3531 -2.22381 -4.86262 0
M  V30 568 H 48.6961 -0.687607 -4.10582 0
M  V30 569 H 49.2291 -2.1931 -3.31885 0
M  V30 570 H 45.9681 -5.07273 -4.15156 0
M  V30 571 H 45.4881 -3.51394 -4.86089 0
M  V30 572 H 47.1671 -4.08804 -5.01486 0
M  V30 573 N 47.2992 1.18797 -1.03562 0
M  V30 574 C 48.5452 1.89192 -0.746867 0
M  V30 575 C 48.9002 1.78531 0.717245 0
M  V30 576 O 48.1932 1.17137 1.51622 0
M  V30 577 C 48.3872 3.38692 -1.14117 0
M  V30 578 C 48.2162 3.63902 -2.64207 0
M  V30 579 C 46.9862 3.81553 -3.31279 0
M  V30 580 C 49.1842 3.64903 -3.62423 0
M  V30 581 N 47.1662 3.94455 -4.70402 0
M  V30 582 C 48.5372 3.83458 -4.87196 0
M  V30 583 C 50.5922 3.47965 -3.56125 0
M  V30 584 C 49.2952 3.86829 -6.06429 0
M  V30 585 C 51.3212 3.52616 -4.7478 0
M  V30 586 C 50.6832 3.71663 -5.9837 0
M  V30 587 H 46.7822 0.711141 -0.325273 0
M  V30 588 H 49.3662 1.42727 -1.32428 0
M  V30 589 H 47.5372 3.83864 -0.591889 0
M  V30 590 H 49.2692 3.96634 -0.803966 0
M  V30 591 H 46.0242 3.80723 -2.81686 0
M  V30 592 H 46.4482 4.0474 -5.42692 0
M  V30 593 H 51.0902 3.32189 -2.61553 0
M  V30 594 H 48.8082 4.01395 -7.01362 0
M  V30 595 H 52.3942 3.40791 -4.71543 0
M  V30 596 H 51.2742 3.75145 -6.88648 0
M  V30 597 N 48.7773 0.814389 1.34928 0
M  V30 598 C 49.7073 0.244827 2.32213 0
M  V30 599 C 50.6883 -0.634024 1.57842 0
M  V30 600 O 51.8733 -0.562676 1.8587 0
M  V30 601 C 49.0033 -0.601106 3.42058 0
M  V30 602 C 47.9573 0.179896 4.27622 0
M  V30 603 C 47.2833 -0.788237 5.28858 0
M  V30 604 C 48.5833 1.38329 5.03649 0
M  V30 605 H 50.2773 1.05763 2.80097 0
M  V30 606 H 47.8233 0.510029 1.34665 0
M  V30 607 H 49.7763 -1.00968 4.09125 0
M  V30 608 H 48.5003 -1.44688 2.92802 0
M  V30 609 H 47.1593 0.569739 3.62146 0
M  V30 610 H 46.8073 -1.62973 4.75866 0
M  V30 611 H 46.5073 -0.269942 5.8698 0
M  V30 612 H 48.0313 -1.19485 5.98795 0
M  V30 613 H 49.4453 1.04918 5.63618 0
M  V30 614 H 47.8423 1.83662 5.71304 0
M  V30 615 H 48.9123 2.16592 4.33839 0
M  V30 616 N 50.2554 -1.46986 0.568584 0
M  V30 617 C 51.2054 -2.27179 -0.193339 0
M  V30 618 C 52.1894 -1.35035 -0.874895 0
M  V30 619 O 53.3814 -1.5931 -0.771322 0
M  V30 620 C 50.5104 -3.21063 -1.21546 0
M  V30 621 C 49.5964 -4.2069 -0.536738 0
M  V30 622 N 49.9874 -5.04218 0.399673 0
M  V30 623 C 48.2854 -4.38961 -0.789254 0
M  V30 624 C 48.9864 -5.76242 0.795017 0
M  V30 625 N 47.9624 -5.434 0.1473 0
M  V30 626 H 51.7644 -2.89146 0.526458 0
M  V30 627 H 49.2784 -1.57664 0.389342 0
M  V30 628 H 51.2754 -3.77209 -1.77536 0
M  V30 629 H 49.9354 -2.60654 -1.93623 0
M  V30 630 H 50.9464 -5.12077 0.774454 0
M  V30 631 H 47.6234 -3.89713 -1.49767 0
M  V30 632 H 49.0134 -6.53417 1.56513 0
M  V30 633 N 51.7335 -0.305618 -1.54608 0
M  V30 634 C 53.0105 0.355652 -1.92339 0
M  V30 635 C 53.3905 1.71324 -1.23335 0
M  V30 636 O 52.7385 2.25473 -0.370702 0
M  V30 637 C 52.9485 0.46572 -3.45879 0
M  V30 638 C 54.2965 0.734426 -4.182 0
M  V30 639 O 55.3205 0.54935 -3.51938 0
M  V30 640 O 54.1795 1.09024 -5.35515 0
M  V30 641 H 51.2735 0.199666 -0.802535 0
M  V30 642 H 53.8195 -0.354017 -1.65966 0
M  V30 643 H 52.5915 -0.488461 -3.88239 0
M  V30 644 H 52.2145 1.22367 -3.78301 0
M  V30 645 N 53.2116 1.57565 -0.0334293 0
M  V30 646 C 54.4606 1.91155 0.643639 0
M  V30 647 C 54.7736 0.91192 1.73042 0
M  V30 648 O 55.9796 1.13923 2.46442 0
M  V30 649 C 54.4356 3.39443 1.1961 0
M  V30 650 C 54.0436 4.47774 0.142381 0
M  V30 651 C 55.7876 3.82094 1.84944 0
M  V30 652 C 53.6946 5.87162 0.706727 0
M  V30 653 H 52.6246 0.713368 0.244176 0
M  V30 654 H 55.2756 1.8323 -0.0994323 0
M  V30 655 H 53.6576 3.42313 1.99092 0
M  V30 656 H 54.8316 4.56469 -0.630296 0
M  V30 657 H 53.1466 4.14352 -0.412446 0
M  V30 658 H 55.7436 4.83591 2.2813 0
M  V30 659 H 56.0866 3.17386 2.69392 0
M  V30 660 H 56.6196 3.81665 1.12145 0
M  V30 661 H 53.3586 6.55424 -0.0997178 0
M  V30 662 H 52.8786 5.82064 1.44779 0
M  V30 663 H 54.5576 6.35866 1.19514 0
M  V30 664 N 54.6897 -0.239769 1.55765 0
M  V30 665 C 55.6377 -1.31668 1.91745 0
M  V30 666 C 56.6317 -1.49462 0.797338 0
M  V30 667 O 57.8377 -1.50852 0.982021 0
M  V30 668 H 54.2127 -0.441048 0.609082 0
M  V30 669 H 56.1837 -0.985923 2.81642 0
M  V30 670 C 54.9327 -2.66368 2.2348 0
M  V30 671 H 54.2557 -2.53478 3.09175 0
M  V30 672 H 55.6957 -3.40578 2.52553 0
M  V30 673 C 54.1547 -3.20002 1.05359 0
M  V30 674 O 54.6847 -4.00538 0.305261 0
M  V30 675 N 52.8907 -2.78126 0.842292 0
M  V30 676 H 52.4377 -2.12742 1.45253 0
M  V30 677 H 52.3957 -3.14354 0.053652 0
M  V30 678 N 56.1678 -1.49265 -0.50573 0
M  V30 679 C 57.1178 -1.6198 -1.60457 0
M  V30 680 C 58.1018 -0.47568 -1.53708 0
M  V30 681 O 59.2938 -0.728392 -1.61318 0
M  V30 682 C 56.4228 -1.68526 -2.99089 0
M  V30 683 C 55.5088 -2.885 -3.10852 0
M  V30 684 N 55.8998 -4.12635 -2.92517 0
M  V30 685 C 54.1978 -2.86338 -3.41945 0
M  V30 686 C 54.8988 -4.93258 -3.08337 0
M  V30 687 N 53.8748 -4.26533 -3.37003 0
M  V30 688 H 57.6768 -2.55681 -1.44928 0
M  V30 689 H 55.1908 -1.45972 -0.711752 0
M  V30 690 H 57.1878 -1.75732 -3.78053 0
M  V30 691 H 55.8478 -0.759584 -3.1569 0
M  V30 692 H 56.8588 -4.42689 -2.68787 0
M  V30 693 H 53.5358 -2.03129 -3.64753 0
M  V30 694 H 54.9258 -6.01856 -2.98695 0
M  V30 695 N 57.6459 0.756429 -1.3826 0
M  V30 696 C 58.8949 1.51082 -1.3363 0
M  V30 697 C 59.2079 1.95467 0.0720068 0
M  V30 698 O 60.4139 2.7043 0.240834 0
M  V30 699 C 58.8699 2.72893 -2.34644 0
M  V30 700 C 58.4779 2.35544 -3.81081 0
M  V30 701 C 60.2219 3.50791 -2.39052 0
M  V30 702 C 58.1289 3.53948 -4.73787 0
M  V30 703 H 57.0589 0.56727 -0.49671 0
M  V30 704 H 59.7099 0.827147 -1.638 0
M  V30 705 H 58.0919 3.43227 -1.97513 0
M  V30 706 H 59.2659 1.72894 -4.27135 0
M  V30 707 H 57.5809 1.70786 -3.79764 0
M  V30 708 H 60.1779 4.38823 -3.05513 0
M  V30 709 H 60.5209 3.91745 -1.40861 0
M  V30 710 H 61.0539 2.87467 -2.74968 0
M  V30 711 H 57.7929 3.18064 -5.73163 0
M  V30 712 H 57.3129 4.15651 -4.32428 0
M  V30 713 H 58.9919 4.20566 -4.91663 0
M  V30 714 N 59.124 1.23083 0.984299 0
M  V30 715 C 60.349 1.088 1.76571 0
M  V30 716 C 60.774 -0.356657 1.84688 0
M  V30 717 O 60.132 -1.25788 1.30565 0
M  V30 718 C 60.18 1.71371 3.17277 0
M  V30 719 O 59.284 0.973213 4.00752 0
M  V30 720 H 58.625 0.381599 0.543395 0
M  V30 721 H 61.155 1.63057 1.23587 0
M  V30 722 H 61.165 1.76449 3.67872 0
M  V30 723 H 59.84 2.76493 3.10684 0
M  V30 724 H 58.417 0.999078 3.59267 0
M  V30 725 N 60.6021 -1.18246 1.0419 0
M  V30 726 C 61.5491 -2.2192 0.634037 0
M  V30 727 C 62.5191 -1.62179 -0.358765 0
M  V30 728 O 63.7041 -1.89122 -0.252466 0
M  V30 729 C 60.8441 -3.451 0.00445535 0
M  V30 730 C 59.9571 -4.19174 1.04487 0
M  V30 731 C 59.0921 -5.29813 0.383676 0
M  V30 732 C 58.1311 -5.9566 1.4091 0
M  V30 733 N 57.2681 -6.97834 0.772784 0
M  V30 734 H 62.1081 -2.56164 1.52263 0
M  V30 735 H 59.6451 -1.25843 0.761701 0
M  V30 736 H 61.6031 -4.15485 -0.377919 0
M  V30 737 H 60.2331 -3.11472 -0.847652 0
M  V30 738 H 59.2851 -3.47604 1.54518 0
M  V30 739 H 60.5971 -4.64267 1.82368 0
M  V30 740 H 59.7511 -6.06677 -0.0528366 0
M  V30 741 H 58.4901 -4.85825 -0.427208 0
M  V30 742 H 57.4951 -5.17535 1.85574 0
M  V30 743 H 58.7201 -6.4173 2.22171 0
M  V30 744 H 56.6661 -6.55998 -0.0177708 0
M  V30 745 H 56.5831 -7.41186 1.48928 0
M  V30 746 H 57.8511 -7.78665 0.36071 0
M  V30 747 N 62.0802 -0.821533 -1.34494 0
M  V30 748 C 63.3052 -0.420873 -2.03085 0
M  V30 749 C 63.7302 0.964915 -1.61465 0
M  V30 750 O 63.0882 1.62763 -0.798607 0
M  V30 751 C 63.1362 -0.529414 -3.56693 0
M  V30 752 O 62.2402 0.451302 -4.09923 0
M  V30 753 H 61.5812 -0.173489 -0.640935 0
M  V30 754 H 64.1112 -1.11157 -1.71771 0
M  V30 755 H 64.1212 -0.404671 -4.05988 0
M  V30 756 H 62.7962 -1.54014 -3.86332 0
M  V30 757 H 61.3732 0.285558 -3.71805 0
M  V30 758 N 63.5583 1.46682 -0.576371 0
M  V30 759 C 64.8353 1.95599 0.00703437 0
M  V30 760 C 65.2153 1.51904 1.46589 0
M  V30 761 O 64.5633 0.766755 2.15251 0
M  V30 762 C 64.7733 3.4864 -0.158404 0
M  V30 763 C 66.1213 4.24594 -0.0229439 0
M  V30 764 O 67.1453 3.56094 -0.0869173 0
M  V30 765 O 66.0043 5.46373 0.118015 0
M  V30 766 H 63.0983 0.825275 0.053384 0
M  V30 767 H 65.6443 1.56996 -0.644244 0
M  V30 768 H 64.4163 3.7331 -1.17282 0
M  V30 769 H 64.0393 3.94057 0.5296 0
M  V30 770 N 65.0364 0.313813 1.54444 0
M  V30 771 C 66.2644 -0.293918 2.04802 0
M  V30 772 C 66.6794 -1.46537 1.19047 0
M  V30 773 O 66.0364 -1.81182 0.218939 0
M  V30 774 C 66.0874 -0.737806 3.53891 0
M  V30 775 O 65.8084 0.387038 4.36387 0
M  V30 776 C 67.3094 -1.40936 4.203 0
M  V30 777 H 64.5294 -0.0620057 0.668129 0
M  V30 778 H 67.0734 0.457169 1.99324 0
M  V30 779 H 65.2284 -1.43889 3.59687 0
M  V30 780 H 65.6424 0.0391274 5.24485 0
M  V30 781 H 67.1164 -1.67099 5.26101 0
M  V30 782 H 67.5934 -2.35355 3.70816 0
M  V30 783 H 68.1994 -0.751117 4.18615 0
M  V30 784 N 66.5145 -1.57545 0.0417849 0
M  V30 785 C 67.7625 -1.91937 -0.632829 0
M  V30 786 C 68.0835 -0.919978 -1.71934 0
M  V30 787 O 67.3535 0.0366064 -1.95866 0
M  V30 788 H 65.9335 -0.708493 -0.236742 0
M  V30 789 H 68.5955 -1.9468 0.0925745 0
M  V30 790 H 67.6915 -2.92912 -1.07746 0
M  V30 791 N 67.9926 0.231505 -1.5589 0
M  V30 792 C 69.2416 0.955346 -1.7764 0
M  V30 793 C 69.5546 1.85893 -0.608546 0
M  V30 794 O 70.7606 2.62067 -0.70943 0
M  V30 795 C 69.2166 1.74886 -3.14552 0
M  V30 796 C 68.8246 0.891915 -4.39032 0
M  V30 797 C 70.5686 2.46452 -3.45633 0
M  V30 798 C 68.4756 1.68221 -5.66971 0
M  V30 799 H 67.4056 0.360446 -0.662265 0
M  V30 800 H 70.0566 0.209516 -1.823 0
M  V30 801 H 68.4386 2.53723 -3.04041 0
M  V30 802 H 69.6126 0.144793 -4.60572 0
M  V30 803 H 67.9276 0.288863 -4.15397 0
M  V30 804 H 70.5246 3.06061 -4.38441 0
M  V30 805 H 70.8676 3.18841 -2.67668 0
M  V30 806 H 71.4006 1.74613 -3.57428 0
M  V30 807 H 68.1396 1.00178 -6.478 0
M  V30 808 H 67.6596 2.4042 -5.49507 0
M  V30 809 H 69.3386 2.24544 -6.06786 0
M  V30 810 N 69.4707 1.49531 0.497807 0
M  V30 811 C 70.7197 1.58426 1.24837 0
M  V30 812 C 71.0327 0.277643 1.93619 0
M  V30 813 O 72.2387 0.24517 2.70391 0
M  V30 814 C 70.6947 2.79538 2.26686 0
M  V30 815 C 70.3027 4.16971 1.63828 0
M  V30 816 C 72.0467 2.97764 3.0255 0
M  V30 817 C 69.9537 5.29301 2.63807 0
M  V30 818 H 68.8837 0.58989 0.469623 0
M  V30 819 H 71.5347 1.75923 0.521857 0
M  V30 820 H 69.9167 2.55542 3.02514 0
M  V30 821 H 71.0907 4.51116 0.939711 0
M  V30 822 H 69.4057 4.04129 1.00342 0
M  V30 823 H 72.0027 3.78856 3.77323 0
M  V30 824 H 72.3457 2.08448 3.60354 0
M  V30 825 H 72.8787 3.21815 2.33838 0
M  V30 826 H 69.6177 6.20687 2.10779 0
M  V30 827 H 69.1377 4.99606 3.31894 0
M  V30 828 H 70.8167 5.58768 3.2617 0
M  V30 829 N 70.9488 -0.749086 1.3866 0
M  V30 830 C 72.1958 -1.50833 1.35114 0
M  V30 831 C 72.5238 -1.94415 -0.0574049 0
M  V30 832 O 71.7788 -1.66065 -1.03541 0
M  V30 833 C 72.0778 -2.7712 2.25697 0
M  V30 834 C 71.7438 -2.52477 3.73585 0
M  V30 835 C 70.4058 -2.45466 4.13884 0
M  V30 836 C 72.7578 -2.31066 4.67181 0
M  V30 837 C 70.0858 -2.15064 5.45861 0
M  V30 838 C 72.4378 -2.02183 5.9942 0
M  V30 839 C 71.1018 -1.93631 6.38798 0
M  V30 840 H 70.3718 -0.551936 0.494416 0
M  V30 841 H 73.0188 -0.860979 1.71054 0
M  V30 842 H 71.3238 -3.46528 1.82827 0
M  V30 843 H 73.0208 -3.35096 2.20254 0
M  V30 844 H 69.6108 -2.58807 3.41638 0
M  V30 845 H 73.7948 -2.35459 4.3689 0
M  V30 846 H 69.0508 -2.06954 5.75308 0
M  V30 847 H 73.2248 -1.8462 6.71482 0
M  V30 848 H 70.8518 -1.69839 7.40985 0
M  V30 849 N 72.4269 -1.23603 -0.977757 0
M  V30 850 C 73.3899 -1.02069 -2.05218 0
M  V30 851 C 74.3899 0.0184305 -1.60789 0
M  V30 852 O 75.5799 -0.221569 -1.72785 0
M  V30 853 C 72.7119 -0.544926 -3.36517 0
M  V30 854 H 73.9049 -1.9742 -2.25755 0
M  V30 855 H 71.4579 -1.05684 -1.15155 0
M  V30 856 H 72.1929 0.412241 -3.21669 0
M  V30 857 H 71.9779 -1.2948 -3.70105 0
M  V30 858 H 73.4679 -0.414985 -4.15533 0
M  V30 859 N 73.905 1.17692 -1.04816 0
M  V30 860 C 74.868 2.19787 -0.650117 0
M  V30 861 C 75.868 1.58044 0.296427 0
M  V30 862 O 77.058 1.74012 0.0808097 0
M  V30 863 C 74.19 3.40869 0.0456987 0
M  V30 864 H 75.383 2.56516 -1.5537 0
M  V30 865 H 72.936 1.31708 -0.841594 0
M  V30 866 H 73.671 3.09681 0.962726 0
M  V30 867 H 73.456 3.86928 -0.634727 0
M  V30 868 H 74.946 4.16445 0.310432 0
M  V30 869 N 75.3831 0.828654 1.34056 0
M  V30 870 C 76.6321 0.415828 1.97367 0
M  V30 871 C 76.9451 -1.02796 1.6641 0
M  V30 872 O 78.1511 -1.54497 2.23255 0
M  V30 873 C 76.6071 0.692601 3.53173 0
M  V30 874 C 76.2151 2.15038 3.93017 0
M  V30 875 C 77.9591 0.346222 4.23086 0
M  V30 876 C 75.8661 2.37174 5.41758 0
M  V30 877 H 74.7961 0.151755 0.738571 0
M  V30 878 H 77.4471 1.01581 1.52819 0
M  V30 879 H 75.8291 0.0223764 3.95994 0
M  V30 880 H 77.0031 2.86024 3.61285 0
M  V30 881 H 75.3181 2.45875 3.36057 0
M  V30 882 H 77.9151 0.48937 5.32456 0
M  V30 883 H 78.2581 -0.709842 4.10204 0
M  V30 884 H 78.7911 0.971258 3.85761 0
M  V30 885 H 75.5301 3.41308 5.59633 0
M  V30 886 H 75.0501 1.70738 5.74986 0
M  V30 887 H 76.7291 2.19818 6.08514 0
M  V30 888 N 76.8612 -1.46375 0.584142 0
M  V30 889 C 78.0862 -2.07268 0.0740405 0
M  V30 890 C 78.5112 -1.42979 -1.22223 0
M  V30 891 O 77.8692 -0.514092 -1.73859 0
M  V30 892 C 77.9172 -3.60518 -0.0767769 0
M  V30 893 O 77.0212 -3.96533 -1.13292 0
M  V30 894 H 76.3622 -0.660961 0.0634524 0
M  V30 895 H 78.8922 -1.87991 0.807492 0
M  V30 896 H 78.9022 -4.07021 -0.282489 0
M  V30 897 H 77.5772 -4.06702 0.86986 0
M  V30 898 H 76.1542 -3.61738 -0.905553 0
M  V30 899 N 78.3393 -0.321999 -1.54275 0
M  V30 900 C 79.2693 0.537411 -2.27231 0
M  V30 901 C 80.2503 1.12064 -1.27968 0
M  V30 902 O 81.4353 1.14606 -1.56777 0
M  V30 903 C 78.5653 1.69919 -3.02894 0
M  V30 904 C 77.5193 1.24534 -4.09482 0
M  V30 905 C 76.8453 2.49394 -4.72977 0
M  V30 906 C 78.1453 0.361335 -5.21049 0
M  V30 907 H 79.8393 -0.0711406 -2.99315 0
M  V30 908 H 77.3853 -0.0356555 -1.43956 0
M  V30 909 H 79.3383 2.30668 -3.52662 0
M  V30 910 H 78.0623 2.33431 -2.28424 0
M  V30 911 H 76.7213 0.660782 -3.60596 0
M  V30 912 H 76.3693 3.11265 -3.95124 0
M  V30 913 H 76.0693 2.19718 -5.44975 0
M  V30 914 H 77.5933 3.10908 -5.25517 0
M  V30 915 H 79.0073 0.875072 -5.66582 0
M  V30 916 H 77.4043 0.157428 -5.99893 0
M  V30 917 H 78.4743 -0.60822 -4.8107 0
M  V30 918 N 79.8174 1.5752 -0.0501392 0
M  V30 919 C 81.0644 1.9265 0.623874 0
M  V30 920 C 81.3924 0.928411 1.70912 0
M  V30 921 O 80.6474 -0.0594525 1.9561 0
M  V30 922 C 80.9464 3.34467 1.25963 0
M  V30 923 C 80.6124 4.49883 0.302689 0
M  V30 924 C 79.2744 4.81184 0.0393636 0
M  V30 925 C 81.6264 5.20002 -0.353205 0
M  V30 926 C 78.9544 5.79951 -0.887308 0
M  V30 927 C 81.3064 6.1976 -1.26806 0
M  V30 928 C 79.9704 6.49491 -1.54007 0
M  V30 929 H 79.2404 0.704957 0.228292 0
M  V30 930 H 81.8874 1.91146 -0.116398 0
M  V30 931 H 80.1924 3.32333 2.07514 0
M  V30 932 H 81.8894 3.58928 1.78806 0
M  V30 933 H 78.4794 4.25457 0.518109 0
M  V30 934 H 82.6634 4.96033 -0.162854 0
M  V30 935 H 77.9194 6.01322 -1.10553 0
M  V30 936 H 82.0934 6.73205 -1.78236 0
M  V30 937 H 79.7204 7.25837 -2.25976 0
M  V30 938 N 81.2955 -0.223234 1.56011 0
M  V30 939 C 82.5205 -0.968978 1.83373 0
M  V30 940 C 82.9455 -1.77227 0.630254 0
M  V30 941 O 82.3035 -1.76345 -0.420959 0
M  V30 942 C 82.3515 -1.86363 3.08709 0
M  V30 943 O 81.4555 -2.95873 2.87285 0
M  V30 944 H 80.7965 -0.274461 0.604622 0
M  V30 945 H 83.3265 -0.237056 2.03222 0
M  V30 946 H 83.3365 -2.27376 3.38768 0
M  V30 947 H 82.0115 -1.27319 3.95933 0
M  V30 948 H 80.5885 -2.58818 2.68454 0
M  V30 949 N 82.7736 -1.49793 -0.48987 0
M  V30 950 C 83.7036 -1.70201 -1.59856 0
M  V30 951 C 84.6846 -0.55076 -1.60937 0
M  V30 952 O 85.8696 -0.787841 -1.77501 0
M  V30 953 C 82.9996 -1.77882 -2.98287 0
M  V30 954 C 81.9536 -2.92907 -3.12073 0
M  V30 955 C 81.2796 -2.85712 -4.51965 0
M  V30 956 C 82.5796 -4.3369 -2.91051 0
M  V30 957 H 84.2736 -2.63025 -1.43032 0
M  V30 958 H 81.8196 -1.26574 -0.686664 0
M  V30 959 H 83.7726 -1.90744 -3.75759 0
M  V30 960 H 82.4966 -0.816653 -3.16225 0
M  V30 961 H 81.1556 -2.79665 -2.37029 0
M  V30 962 H 80.8036 -1.8738 -4.66795 0
M  V30 963 H 80.5036 -3.62921 -4.62128 0
M  V30 964 H 82.0276 -3.00598 -5.31482 0
M  V30 965 H 83.4416 -4.47555 -3.58284 0
M  V30 966 H 81.8386 -5.12205 -3.12675 0
M  V30 967 H 82.9086 -4.47362 -1.87071 0
M  V30 968 N 84.2517 0.741722 -1.39055 0
M  V30 969 C 85.1817 1.869 -1.39966 0
M  V30 970 C 86.1627 1.6804 -0.26392 0
M  V30 971 O 87.3477 1.88458 -0.468755 0
M  V30 972 C 84.4777 3.24572 -1.23574 0
M  V30 973 C 83.4317 3.58056 -2.34477 0
M  V30 974 C 82.7577 4.94593 -2.0318 0
M  V30 975 C 84.0577 3.61716 -3.76774 0
M  V30 976 H 85.7517 1.86395 -2.34302 0
M  V30 977 H 83.2977 0.895361 -1.1278 0
M  V30 978 H 85.2507 4.031 -1.22834 0
M  V30 979 H 83.9747 3.25587 -0.257045 0
M  V30 980 H 82.6337 2.81854 -2.34423 0
M  V30 981 H 82.2817 4.92181 -1.03765 0
M  V30 982 H 81.9817 5.17964 -2.77465 0
M  V30 983 H 83.5057 5.75486 -2.04079 0
M  V30 984 H 84.9197 4.30335 -3.78794 0
M  V30 985 H 83.3167 3.96603 -4.50362 0
M  V30 986 H 84.3867 2.61672 -4.08235 0
M  V30 987 N 85.7298 1.2412 0.971189 0
M  V30 988 C 86.9768 1.07881 1.71371 0
M  V30 989 C 87.3048 -0.382901 1.90694 0
M  V30 990 O 86.5598 -1.29945 1.46331 0
M  V30 991 C 86.8588 1.75983 3.11071 0
M  V30 992 C 86.5248 3.25909 3.11599 0
M  V30 993 C 85.1868 3.66813 3.11451 0
M  V30 994 C 87.5388 4.21771 3.062 0
M  V30 995 C 84.8668 5.02021 3.03631 0
M  V30 996 C 87.2188 5.56982 2.99923 0
M  V30 997 C 85.8828 5.97237 2.98102 0
M  V30 998 H 85.1528 0.394764 0.62709 0
M  V30 999 H 87.7998 1.54176 1.13587 0
M  V30 1000 H 86.1048 1.22072 3.72298 0
M  V30 1001 H 87.8018 1.60887 3.6731 0
M  V30 1002 H 84.3918 2.93353 3.12477 0
M  V30 1003 H 88.5758 3.91172 3.05447 0
M  V30 1004 H 83.8318 5.32411 3.0058 0
M  V30 1005 H 88.0058 6.30969 2.94704 0
M  V30 1006 H 85.6328 7.01967 2.91798 0
M  V30 1007 N 87.2079 -1.17134 1.05439 0
M  V30 1008 C 88.1399 -2.2078 0.615539 0
M  V30 1009 C 89.1529 -1.59584 -0.322001 0
M  V30 1010 O 90.3419 -1.78133 -0.114344 0
M  V30 1011 C 87.4419 -3.38691 -0.118938 0
M  V30 1012 C 86.6149 -4.29454 0.829924 0
M  V30 1013 C 85.6739 -5.26024 0.136258 0
M  V30 1014 O 84.6999 -5.63952 0.77115 0
M  V30 1015 N 85.9019 -5.69487 -1.1254 0
M  V30 1016 H 88.6669 -2.59052 1.50705 0
M  V30 1017 H 86.2279 -1.32058 0.936603 0
M  V30 1018 H 88.2199 -4.00329 -0.593179 0
M  V30 1019 H 86.7899 -2.98996 -0.91215 0
M  V30 1020 H 86.0099 -3.65211 1.48373 0
M  V30 1021 H 87.2979 -4.86984 1.47392 0
M  V30 1022 H 86.6959 -5.4075 -1.6615 0
M  V30 1023 H 85.2529 -6.33257 -1.54366 0
M  V30 1024 N 88.686 -0.835752 -1.33615 0
M  V30 1025 C 90.097 -0.487099 -1.80234 0
M  V30 1026 C 90.448 0.993627 -1.69179 0
M  V30 1027 O 89.573 1.77403 -1.23924 0
M  V30 1028 C 90.168 -0.877385 -3.27242 0
M  V30 1029 C 88.727 -0.580915 -3.7189 0
M  V30 1030 C 87.874 -1.0874 -2.5509 0
M  V30 1031 H 90.825 -1.02474 -1.2118 0
M  V30 1032 H 90.846 -0.186195 -3.80044 0
M  V30 1033 H 90.358 -1.95512 -3.35256 0
M  V30 1034 H 88.459 0.486881 -3.69405 0
M  V30 1035 H 88.572 -1.13396 -4.65487 0
M  V30 1036 H 86.936 -0.508392 -2.49575 0
M  V30 1037 H 87.719 -2.17184 -2.65868 0
M  V30 1038 N 90.1641 1.46063 -0.591896 0
M  V30 1039 C 91.0941 2.33172 0.123673 0
M  V30 1040 C 92.0751 1.45897 0.87453 0
M  V30 1041 O 93.2601 1.74698 0.848181 0
M  V30 1042 C 90.3901 3.28336 1.13194 0
M  V30 1043 C 89.3441 4.25124 0.495324 0
M  V30 1044 C 88.6701 5.09863 1.61071 0
M  V30 1045 C 89.9701 5.19143 -0.573425 0
M  V30 1046 H 91.6641 2.93252 -0.603646 0
M  V30 1047 H 89.2101 1.41014 -0.291741 0
M  V30 1048 H 91.1631 3.88137 1.64097 0
M  V30 1049 H 89.8871 2.66383 1.88965 0
M  V30 1050 H 88.5461 3.66599 0.00729452 0
M  V30 1051 H 88.1941 4.44288 2.35832 0
M  V30 1052 H 87.8941 5.75417 1.19035 0
M  V30 1053 H 89.4181 5.72529 2.12233 0
M  V30 1054 H 90.8321 5.73106 -0.1491 0
M  V30 1055 H 89.2291 5.93089 -0.914636 0
M  V30 1056 H 90.2991 4.62519 -1.45617 0
M  V30 1057 N 91.6422 0.330177 1.54103 0
M  V30 1058 C 92.8892 -0.270405 2.00686 0
M  V30 1059 C 93.2172 -1.51621 1.21825 0
M  V30 1060 O 92.4722 -1.93536 0.29025 0
M  V30 1061 C 92.7712 -0.643134 3.51566 0
M  V30 1062 C 92.4372 0.504251 4.48072 0
M  V30 1063 C 91.0992 0.819163 4.74176 0
M  V30 1064 C 93.4512 1.27465 5.05373 0
M  V30 1065 C 90.7792 1.90708 5.5484 0
M  V30 1066 C 93.1312 2.35271 5.87223 0
M  V30 1067 C 91.7952 2.67336 6.11627 0
M  V30 1068 H 91.0652 -0.0989482 0.734364 0
M  V30 1069 H 93.7122 0.455324 1.86008 0
M  V30 1070 H 92.0172 -1.44938 3.64006 0
M  V30 1071 H 93.7142 -1.11949 3.85056 0
M  V30 1072 H 90.3042 0.248733 4.27878 0
M  V30 1073 H 94.4882 1.04462 4.85182 0
M  V30 1074 H 89.7442 2.15991 5.71977 0
M  V30 1075 H 93.9182 2.95405 6.30641 0
M  V30 1076 H 91.5452 3.51763 6.73919 0
M  V30 1077 N 93.1203 -1.57491 0.0584922 0
M  V30 1078 C 94.3683 -1.92597 -0.612436 0
M  V30 1079 C 94.6893 -0.938162 -1.70949 0
M  V30 1080 O 93.9593 0.0158301 -1.95894 0
M  V30 1081 H 92.5393 -0.710964 -0.229214 0
M  V30 1082 H 95.2013 -1.94571 0.113218 0
M  V30 1083 H 94.2973 -2.94038 -1.04633 0
M  V30 1084 N 94.5984 0.214957 -1.56127 0
M  V30 1085 C 95.5284 1.2695 -1.95974 0
M  V30 1086 C 96.5094 1.48539 -0.828868 0
M  V30 1087 O 97.6944 1.60611 -1.09168 0
M  V30 1088 C 94.8244 2.61794 -2.28214 0
M  V30 1089 C 93.7784 2.54851 -3.43853 0
M  V30 1090 C 93.1044 3.93785 -3.61715 0
M  V30 1091 C 94.4044 2.09065 -4.78632 0
M  V30 1092 H 96.0984 0.93846 -2.84312 0
M  V30 1093 H 93.6444 0.449996 -1.36788 0
M  V30 1094 H 95.5974 3.35731 -2.54682 0
M  V30 1095 H 94.3214 2.96599 -1.36736 0
M  V30 1096 H 92.9804 1.8337 -3.17444 0
M  V30 1097 H 92.6284 4.25908 -2.67602 0
M  V30 1098 H 92.3284 3.90019 -4.39498 0
M  V30 1099 H 93.8524 4.69374 -3.90539 0
M  V30 1100 H 95.2664 2.7275 -5.04262 0
M  V30 1101 H 93.6634 2.16346 -5.59745 0
M  V30 1102 H 94.7334 1.04315 -4.73547 0
M  V30 1103 N 96.0765 1.50051 0.48192 0
M  V30 1104 C 97.0065 1.71046 1.58951 0
M  V30 1105 C 97.9875 0.559288 1.60642 0
M  V30 1106 O 99.1725 0.797243 1.77081 0
M  V30 1107 C 96.3025 1.79462 2.97339 0
M  V30 1108 C 95.2565 2.94558 3.10515 0
M  V30 1109 C 94.5825 2.88105 4.50444 0
M  V30 1110 C 95.8825 4.35227 2.88747 0
M  V30 1111 H 97.5765 2.6378 1.41635 0
M  V30 1112 H 95.1225 1.26936 0.679942 0
M  V30 1113 H 97.0755 1.92734 3.74742 0
M  V30 1114 H 95.7995 0.833412 3.15788 0
M  V30 1115 H 94.4585 2.80918 2.35543 0
M  V30 1116 H 94.1065 1.89853 4.65795 0
M  V30 1117 H 93.8065 3.65366 4.60197 0
M  V30 1118 H 95.3305 3.03412 5.29881 0
M  V30 1119 H 96.7445 4.49449 3.55905 0
M  V30 1120 H 95.1415 5.13856 3.09955 0
M  V30 1121 H 96.2115 4.48347 1.84696 0
M  V30 1122 N 97.5546 -0.734337 1.39446 0
M  V30 1123 C 98.7796 -1.52866 1.40167 0
M  V30 1124 C 99.2046 -1.881 -0.00171513 0
M  V30 1125 O 98.5626 -1.51957 -0.988879 0
M  V30 1126 C 98.6106 -2.79235 2.28167 0
M  V30 1127 O 97.7146 -3.75185 1.71201 0
M  V30 1128 H 97.0556 -0.461618 0.477289 0
M  V30 1129 H 99.5856 -0.905949 1.8345 0
M  V30 1130 H 99.5956 -3.27963 2.42702 0
M  V30 1131 H 98.2706 -2.52923 3.30156 0
M  V30 1132 H 96.8476 -3.33958 1.65912 0
M  V30 1133 N 99.0327 -1.24633 -0.964593 0
M  V30 1134 C 100.31 -0.995809 -1.68354 0
M  V30 1135 C 100.69 0.480964 -2.05548 0
M  V30 1136 O 100.038 1.45599 -1.76105 0
M  V30 1137 C 100.248 -1.92177 -2.91323 0
M  V30 1138 C 101.596 -2.19446 -3.63495 0
M  V30 1139 O 102.62 -1.89855 -3.01386 0
M  V30 1140 O 101.479 -2.69714 -4.75307 0
M  V30 1141 H 98.5727 -0.376854 -0.736146 0
M  V30 1142 H 101.119 -1.35745 -1.0184 0
M  V30 1143 H 99.8907 -2.91938 -2.60553 0
M  V30 1144 H 99.5137 -1.56349 -3.65569 0
M  V30 1145 N 100.511 1.16574 -1.06058 0
M  V30 1146 C 101.458 2.20883 -0.669263 0
M  V30 1147 C 102.428 1.62729 0.332918 0
M  V30 1148 O 103.613 1.895 0.222346 0
M  V30 1149 C 100.753 3.45049 -0.0593572 0
M  V30 1150 C 99.8658 4.17458 -1.11143 0
M  V30 1151 C 99.0008 5.29135 -0.467916 0
M  V30 1152 C 98.0398 5.93343 -1.50369 0
M  V30 1153 N 97.1768 6.96516 -0.883706 0
M  V30 1154 H 102.017 2.53709 -1.5632 0
M  V30 1155 H 99.5538 1.24616 -0.781625 0
M  V30 1156 H 101.512 4.16033 0.311771 0
M  V30 1157 H 100.142 3.12781 0.797992 0
M  V30 1158 H 99.1938 3.45101 -1.60029 0
M  V30 1159 H 100.506 4.61307 -1.89731 0
M  V30 1160 H 99.6598 6.06684 -0.0436871 0
M  V30 1161 H 98.3988 4.86443 0.349864 0
M  V30 1162 H 97.4038 5.14517 -1.93784 0
M  V30 1163 H 98.6288 6.38114 -2.32352 0
M  V30 1164 H 96.5748 6.55943 -0.086595 0
M  V30 1165 H 96.4918 7.38723 -1.607 0
M  V30 1166 H 97.7598 7.77993 -0.484543 0
M  V30 1167 N 101.989 0.842826 1.3317 0
M  V30 1168 C 102.919 0.294028 2.31641 0
M  V30 1169 C 103.9 -0.600401 1.59151 0
M  V30 1170 O 105.085 -0.523124 1.87022 0
M  V30 1171 C 102.215 -0.528416 3.43257 0
M  V30 1172 C 101.169 0.27056 4.27144 0
M  V30 1173 C 100.495 -0.675881 5.30411 0
M  V30 1174 C 101.795 1.48981 5.00602 0
M  V30 1175 H 103.489 1.11681 2.77791 0
M  V30 1176 H 101.035 0.538478 1.33553 0
M  V30 1177 H 102.988 -0.922674 4.11175 0
M  V30 1178 H 101.712 -1.38445 2.95805 0
M  V30 1179 H 100.371 0.646427 3.60856 0
M  V30 1180 H 100.019 -1.52842 4.79216 0
M  V30 1181 H 99.7189 -0.145374 5.8742 0
M  V30 1182 H 101.243 -1.06757 6.01195 0
M  V30 1183 H 102.657 1.16849 5.61266 0
M  V30 1184 H 101.054 1.95739 5.6728 0
M  V30 1185 H 102.124 2.25746 4.29147 0
M  V30 1186 N 103.467 -1.45747 0.599634 0
M  V30 1187 C 104.715 -2.01893 0.0915472 0
M  V30 1188 C 105.036 -1.47155 -1.27946 0
M  V30 1189 O 104.306 -0.66273 -1.84349 0
M  V30 1190 H 102.886 -0.746363 0.0308524 0
M  V30 1191 H 105.548 -1.78645 0.779237 0
M  V30 1192 H 104.644 -3.1208 0.0353086 0
M  V30 1193 N 104.945 -0.338344 -1.53925 0
M  V30 1194 C 105.875 0.51328 -2.27789 0
M  V30 1195 C 106.856 1.107 -1.29149 0
M  V30 1196 O 108.041 1.12937 -1.57984 0
M  V30 1197 C 105.171 1.66697 -3.04679 0
M  V30 1198 C 104.125 1.20183 -4.1078 0
M  V30 1199 C 103.451 2.44363 -4.75595 0
M  V30 1200 C 104.751 0.30605 -5.21403 0
M  V30 1201 H 106.445 -0.102883 -2.99223 0
M  V30 1202 H 103.991 -0.0509219 -1.4391 0
M  V30 1203 H 105.944 2.26915 -3.55088 0
M  V30 1204 H 104.668 2.30995 -2.30887 0
M  V30 1205 H 103.327 0.622499 -3.61276 0
M  V30 1206 H 102.975 3.07057 -3.98403 0
M  V30 1207 H 102.675 2.13925 -5.47275 0
M  V30 1208 H 104.199 3.05317 -5.28786 0
M  V30 1209 H 105.613 0.814929 -5.67478 0
M  V30 1210 H 104.01 0.0937929 -6.00027 0
M  V30 1211 H 105.08 -0.65921 -4.80398 0
M  V30 1212 N 106.423 1.57458 -0.0668435 0
M  V30 1213 C 107.839 1.56947 0.289772 0
M  V30 1214 C 108.039 1.07584 1.70376 0
M  V30 1215 O 107.095 0.739486 2.41429 0
M  V30 1216 C 108.408 3.0052 0.103943 0
M  V30 1217 C 109.956 3.12517 0.173857 0
M  V30 1218 C 110.431 4.57997 0.0163682 0
M  V30 1219 N 111.922 4.63144 0.0721352 0
M  V30 1220 C 112.657 5.73394 -0.0253794 0
M  V30 1221 N 112.153 6.92576 -0.176133 0
M  V30 1222 N 113.946 5.62091 0.0313305 0
M  V30 1223 H 106.097 1.87863 -0.991027 0
M  V30 1224 H 108.36 0.86583 -0.38606 0
M  V30 1225 H 108.066 3.40729 -0.871572 0
M  V30 1226 H 107.94 3.67304 0.858366 0
M  V30 1227 H 110.327 2.72197 1.13985 0
M  V30 1228 H 110.408 2.48381 -0.611586 0
M  V30 1229 H 110.052 4.99005 -0.946374 0
M  V30 1230 H 109.982 5.20158 0.821153 0
M  V30 1231 H 112.473 3.77436 0.187263 0
M  V30 1232 H 112.786 7.72418 -0.242821 0
M  V30 1233 H 111.131 6.94678 -0.211429 0
M  V30 1234 H 114.322 4.67867 0.147773 0
M  V30 1235 H 114.495 6.47982 -0.048121 0
M  V30 1236 N 107.901 -0.206675 1.56239 0
M  V30 1237 C 108.848 -1.25617 1.93621 0
M  V30 1238 C 109.818 -1.45824 0.795274 0
M  V30 1239 O 111.003 -1.59148 1.05245 0
M  V30 1240 C 108.143 -2.59839 2.27107 0
M  V30 1241 C 107.256 -2.47308 3.54207 0
M  V30 1242 C 106.391 -3.74155 3.7707 0
M  V30 1243 C 105.43 -3.56407 4.97635 0
M  V30 1244 N 104.567 -4.75238 5.1681 0
M  V30 1245 H 109.407 -0.930383 2.83104 0
M  V30 1246 H 106.944 -0.448065 1.4011 0
M  V30 1247 H 108.902 -3.38021 2.44535 0
M  V30 1248 H 107.532 -2.90485 1.40778 0
M  V30 1249 H 106.584 -1.60483 3.4489 0
M  V30 1250 H 107.896 -2.30122 4.42544 0
M  V30 1251 H 107.05 -4.60778 3.94675 0
M  V30 1252 H 105.789 -3.94282 2.87042 0
M  V30 1253 H 104.794 -2.68168 4.79964 0
M  V30 1254 H 106.019 -3.37736 5.89161 0
M  V30 1255 H 103.965 -4.95651 4.29728 0
M  V30 1256 H 103.882 -4.60835 5.99306 0
M  V30 1257 H 105.15 -5.63246 5.38864 0
M  V30 1258 N 109.379 -1.50304 -0.473955 0
M  V30 1259 C 110.609 -1.64663 -1.24778 0
M  V30 1260 C 111.017 -0.328174 -1.86332 0
M  V30 1261 O 110.36 0.699536 -1.69859 0
M  V30 1262 C 110.422 -2.6778 -2.39863 0
M  V30 1263 C 110.086 -4.11413 -1.98969 0
M  V30 1264 C 111.083 -4.97372 -1.51385 0
M  V30 1265 C 108.768 -4.57312 -2.07777 0
M  V30 1266 C 110.762 -6.27277 -1.13148 0
M  V30 1267 C 108.449 -5.87223 -1.69152 0
M  V30 1268 C 109.447 -6.72031 -1.21915 0
M  V30 1269 O 109.135 -7.99518 -0.838237 0
M  V30 1270 H 108.867 -0.556602 -0.383627 0
M  V30 1271 H 111.421 -1.9726 -0.572491 0
M  V30 1272 H 109.651 -2.30419 -3.10554 0
M  V30 1273 H 111.34 -2.71388 -3.01833 0
M  V30 1274 H 112.106 -4.63128 -1.44004 0
M  V30 1275 H 107.985 -3.91449 -2.43493 0
M  V30 1276 H 111.529 -6.93425 -0.762077 0
M  V30 1277 H 107.426 -6.20989 -1.76191 0
M  V30 1278 H 108.194 -8.12764 -0.967339 0
M  V30 1279 N 110.857 0.726932 -1.39834 0
M  V30 1280 C 111.787 1.85405 -1.41941 0
M  V30 1281 C 112.768 1.67751 -0.281728 0
M  V30 1282 O 113.953 1.8795 -0.488717 0
M  V30 1283 C 111.083 3.23243 -1.2701 0
M  V30 1284 C 110.037 3.55549 -2.38262 0
M  V30 1285 C 109.363 4.9241 -2.08415 0
M  V30 1286 C 110.663 3.577 -3.80589 0
M  V30 1287 H 112.357 1.83899 -2.36266 0
M  V30 1288 H 109.903 0.883349 -1.13723 0
M  V30 1289 H 111.856 4.01775 -1.27103 0
M  V30 1290 H 110.58 3.25296 -0.291564 0
M  V30 1291 H 109.239 2.79351 -2.37399 0
M  V30 1292 H 108.887 4.91052 -1.0898 0
M  V30 1293 H 108.587 5.14992 -2.82943 0
M  V30 1294 H 110.111 5.73289 -2.10171 0
M  V30 1295 H 111.525 4.26293 -3.83337 0
M  V30 1296 H 109.922 3.91804 -4.54543 0
M  V30 1297 H 110.992 2.57328 -4.10987 0
M  V30 1298 N 112.336 1.25143 0.95797 0
M  V30 1299 C 113.266 1.07711 2.07173 0
M  V30 1300 C 114.247 -0.0128462 1.70095 0
M  V30 1301 O 115.432 0.156061 1.93572 0
M  V30 1302 C 112.562 0.691503 3.40346 0
M  V30 1303 C 111.516 1.73132 3.9142 0
M  V30 1304 C 110.842 1.20049 5.21049 0
M  V30 1305 C 112.142 3.1294 4.1817 0
M  V30 1306 H 113.836 2.00873 2.22014 0
M  V30 1307 H 111.382 0.967191 1.06684 0
M  V30 1308 H 113.335 0.556505 4.17709 0
M  V30 1309 H 112.059 -0.275819 3.25433 0
M  V30 1310 H 110.718 1.8547 3.16222 0
M  V30 1311 H 110.366 0.223499 5.02503 0
M  V30 1312 H 110.066 1.89545 5.56189 0
M  V30 1313 H 111.59 1.07782 6.01012 0
M  V30 1314 H 113.004 3.03775 4.86203 0
M  V30 1315 H 111.401 3.79875 4.64559 0
M  V30 1316 H 112.471 3.6025 3.24573 0
M  V30 1317 N 113.814 -1.1601 1.06675 0
M  V30 1318 C 115.06 -1.87145 0.796766 0
M  V30 1319 C 115.415 -1.8037 -0.669658 0
M  V30 1320 O 114.708 -1.21116 -1.48463 0
M  V30 1321 C 114.902 -3.35547 1.23057 0
M  V30 1322 C 114.731 -3.56769 2.73762 0
M  V30 1323 C 113.501 -3.72635 3.41279 0
M  V30 1324 C 115.699 -3.55166 3.7197 0
M  V30 1325 N 113.681 -3.81845 4.80695 0
M  V30 1326 C 115.052 -3.70406 4.97191 0
M  V30 1327 C 117.107 -3.384 3.65226 0
M  V30 1328 C 115.81 -3.70615 6.16471 0
M  V30 1329 C 117.836 -3.39904 4.83962 0
M  V30 1330 C 117.198 -3.55667 6.08013 0
M  V30 1331 H 113.297 -0.702267 0.344014 0
M  V30 1332 H 115.881 -1.39165 1.36166 0
M  V30 1333 H 114.052 -3.82159 0.693456 0
M  V30 1334 H 115.784 -3.94363 0.908844 0
M  V30 1335 H 112.539 -3.73121 2.91681 0
M  V30 1336 H 112.963 -3.90209 5.53232 0
M  V30 1337 H 117.605 -3.25138 2.70269 0
M  V30 1338 H 115.323 -3.82658 7.11757 0
M  V30 1339 H 118.909 -3.28169 4.80413 0
M  V30 1340 H 117.789 -3.56755 6.98352 0
M  V30 1341 N 115.292 -0.849877 -1.32721 0
M  V30 1342 C 116.541 -0.447175 -1.96681 0
M  V30 1343 C 116.854 1.00135 -1.68025 0
M  V30 1344 O 118.06 1.50926 -2.25685 0
M  V30 1345 C 116.516 -0.7487 -3.52026 0
M  V30 1346 C 116.124 -2.21264 -3.89546 0
M  V30 1347 C 117.868 -0.413487 -4.22481 0
M  V30 1348 C 115.775 -2.45763 -5.37917 0
M  V30 1349 H 114.705 -0.163486 -0.736063 0
M  V30 1350 H 117.356 -1.03999 -1.51183 0
M  V30 1351 H 115.738 -0.0853727 -3.95908 0
M  V30 1352 H 116.912 -2.91736 -3.56689 0
M  V30 1353 H 115.227 -2.5119 -3.32103 0
M  V30 1354 H 117.824 -0.574017 -5.3161 0
M  V30 1355 H 118.167 0.644492 -4.11281 0
M  V30 1356 H 118.7 -1.03251 -3.84167 0
M  V30 1357 H 115.439 -3.50168 -5.54132 0
M  V30 1358 H 114.959 -1.79864 -5.72197 0
M  V30 1359 H 116.638 -2.29471 -6.0494 0
M  V30 1360 N 116.77 1.45427 -0.607355 0
M  V30 1361 C 118.019 2.01452 -0.100036 0
M  V30 1362 C 118.332 1.48159 1.27704 0
M  V30 1363 O 119.538 1.96159 1.87707 0
M  V30 1364 C 117.994 3.59672 -0.128158 0
M  V30 1365 C 117.602 4.21962 -1.50507 0
M  V30 1366 C 119.346 4.23262 0.323932 0
M  V30 1367 C 117.253 5.72333 -1.48959 0
M  V30 1368 H 116.183 0.75325 -0.0336299 0
M  V30 1369 H 118.834 1.66901 -0.76265 0
M  V30 1370 H 117.216 3.91411 0.601105 0
M  V30 1371 H 118.39 4.01796 -2.25602 0
M  V30 1372 H 116.705 3.70565 -1.89923 0
M  V30 1373 H 119.302 5.33522 0.354691 0
M  V30 1374 H 119.645 3.93921 1.34656 0
M  V30 1375 H 120.178 3.96239 -0.352056 0
M  V30 1376 H 116.917 6.06373 -2.48981 0
M  V30 1377 H 116.437 5.94691 -0.781214 0
M  V30 1378 H 118.116 6.35525 -1.21313 0
M  V30 1379 N 118.248 0.346503 1.53744 0
M  V30 1380 C 119.476 -0.25041 2.05379 0
M  V30 1381 C 119.891 -1.43979 1.22129 0
M  V30 1382 O 119.248 -1.80677 0.257321 0
M  V30 1383 C 119.299 -0.662575 3.55376 0
M  V30 1384 O 119.02 0.479515 4.35468 0
M  V30 1385 C 120.521 -1.31989 4.23195 0
M  V30 1386 H 117.741 -0.0478198 0.669294 0
M  V30 1387 H 120.285 0.499346 1.9831 0
M  V30 1388 H 118.44 -1.36227 3.62658 0
M  V30 1389 H 118.854 0.15037 5.24284 0
M  V30 1390 H 120.328 -1.55902 5.29527 0
M  V30 1391 H 120.805 -2.27436 3.75725 0
M  V30 1392 H 121.411 -0.662154 4.20114 0
M  V30 1393 N 119.726 -1.57421 0.075193 0
M  V30 1394 C 120.974 -1.93236 -0.591974 0
M  V30 1395 C 121.295 -0.956241 -1.69944 0
M  V30 1396 O 120.565 -0.00494792 -1.95899 0
M  V30 1397 H 119.145 -0.713355 -0.22166 0
M  V30 1398 H 121.807 -1.9444 0.133848 0
M  V30 1399 H 120.903 -2.95131 -1.01509 0
M  V30 1400 N 121.204 0.198386 -1.56346 0
M  V30 1401 C 122.137 1.27381 -1.89339 0
M  V30 1402 C 123.115 1.44106 -0.753134 0
M  V30 1403 O 124.299 1.59549 -1.00381 0
M  V30 1404 C 121.426 2.6409 -2.12071 0
M  V30 1405 C 120.472 2.64253 -3.34772 0
M  V30 1406 S 121.305 2.16013 -4.89999 0
M  V30 1407 C 122.461 3.54553 -5.15794 0
M  V30 1408 H 122.694 0.992058 -2.8026 0
M  V30 1409 H 120.227 0.401726 -1.49082 0
M  V30 1410 H 122.185 3.42786 -2.2585 0
M  V30 1411 H 120.846 2.89478 -1.21906 0
M  V30 1412 H 120.039 3.64768 -3.47794 0
M  V30 1413 H 119.641 1.93637 -3.1997 0
M  V30 1414 H 121.933 4.50396 -5.06112 0
M  V30 1415 H 122.876 3.46428 -6.1757 0
M  V30 1416 H 123.284 3.49313 -4.43442 0
M  V30 1417 N 122.682 1.50554 0.465978 0
M  V30 1418 C 123.612 1.72722 1.57128 0
M  V30 1419 C 124.593 0.576294 1.6004 0
M  V30 1420 O 125.778 0.81598 1.76225 0
M  V30 1421 C 122.908 1.82605 2.95419 0
M  V30 1422 C 121.862 2.97835 3.07373 0
M  V30 1423 C 121.188 2.92867 4.47363 0
M  V30 1424 C 122.488 4.38265 2.84114 0
M  V30 1425 H 124.182 2.65267 1.38829 0
M  V30 1426 H 121.728 1.2765 0.666441 0
M  V30 1427 H 123.681 1.96698 3.72677 0
M  V30 1428 H 122.405 0.866858 3.14886 0
M  V30 1429 H 121.064 2.83401 2.3255 0
M  V30 1430 H 120.712 1.94783 4.63755 0
M  V30 1431 H 120.412 3.70227 4.56296 0
M  V30 1432 H 121.936 3.09015 5.26633 0
M  V30 1433 H 123.35 4.53198 3.51118 0
M  V30 1434 H 121.747 5.17115 3.04487 0
M  V30 1435 H 122.817 4.50281 1.7993 0
M  V30 1436 N 124.16 -0.719506 1.40217 0
M  V30 1437 C 125.406 -1.48152 1.38488 0
M  V30 1438 C 125.739 -1.94195 -0.0141867 0
M  V30 1439 O 125.014 -1.67884 -0.982096 0
M  V30 1440 C 125.297 -2.71035 2.37091 0
M  V30 1441 C 125.15 -2.30912 3.86005 0
M  V30 1442 C 126.469 -3.73182 2.33288 0
M  V30 1443 H 123.588 -0.537395 0.504357 0
M  V30 1444 H 126.23 -0.821472 1.71324 0
M  V30 1445 H 124.38 -3.27352 2.0922 0
M  V30 1446 H 126.052 -1.80107 4.24687 0
M  V30 1447 H 124.295 -1.62958 4.02029 0
M  V30 1448 H 124.966 -3.18978 4.50508 0
M  V30 1449 H 127.442 -3.26485 2.57966 0
M  V30 1450 H 126.318 -4.56806 3.04334 0
M  V30 1451 H 126.579 -4.21202 1.34317 0
M  V30 1452 N 125.638 -1.25649 -0.95132 0
M  V30 1453 C 126.571 -1.00644 -2.04807 0
M  V30 1454 C 127.549 0.0654271 -1.62468 0
M  V30 1455 O 128.733 -0.074911 -1.88351 0
M  V30 1456 C 125.86 -0.522052 -3.34653 0
M  V30 1457 C 124.906 -1.58495 -3.95957 0
M  V30 1458 S 125.739 -3.17108 -4.31512 0
M  V30 1459 C 126.895 -2.70412 -5.64471 0
M  V30 1460 H 127.128 -1.93508 -2.25703 0
M  V30 1461 H 124.661 -1.09216 -1.09139 0
M  V30 1462 H 126.619 -0.24923 -4.09743 0
M  V30 1463 H 125.28 0.386146 -3.11717 0
M  V30 1464 H 124.473 -1.1968 -4.89584 0
M  V30 1465 H 124.075 -1.80862 -3.2736 0
M  V30 1466 H 126.367 -2.14245 -6.42733 0
M  V30 1467 H 127.31 -3.62693 -6.08161 0
M  V30 1468 H 127.718 -2.10302 -5.23864 0
M  V30 1469 N 127.117 1.15442 -1.07289 0
M  V30 1470 C 128.364 1.86213 -0.795668 0
M  V30 1471 C 128.692 1.82291 0.678238 0
M  V30 1472 O 127.947 1.24057 1.51355 0
M  V30 1473 C 128.246 3.3489 -1.24834 0
M  V30 1474 C 127.912 3.59007 -2.72809 0
M  V30 1475 C 126.574 3.65298 -3.13227 0
M  V30 1476 C 128.926 3.68762 -3.68326 0
M  V30 1477 C 126.254 3.78854 -4.4798 0
M  V30 1478 C 128.606 3.83842 -5.0284 0
M  V30 1479 C 127.27 3.88378 -5.4288 0
M  V30 1480 H 126.54 0.681403 -0.291155 0
M  V30 1481 H 129.187 1.36435 -1.34379 0
M  V30 1482 H 127.492 3.8687 -0.619595 0
M  V30 1483 H 129.189 3.88052 -1.01076 0
M  V30 1484 H 125.779 3.5475 -2.40521 0
M  V30 1485 H 129.963 3.63202 -3.38227 0
M  V30 1486 H 125.219 3.80623 -4.78472 0
M  V30 1487 H 129.393 3.90332 -5.76727 0
M  V30 1488 H 127.02 3.98635 -6.47298 0
M  V30 1489 N 128.595 0.856903 1.32268 0
M  V30 1490 C 129.558 0.308171 2.27119 0
M  V30 1491 C 130.558 -0.533421 1.51695 0
M  V30 1492 O 131.748 -0.344607 1.70757 0
M  V30 1493 C 128.88 -0.563757 3.36206 0
M  V30 1494 H 130.073 1.14535 2.77167 0
M  V30 1495 H 127.626 0.631421 1.42978 0
M  V30 1496 H 128.361 -1.42266 2.91429 0
M  V30 1497 H 128.146 0.0386749 3.92081 0
M  V30 1498 H 129.636 -0.940386 4.06874 0
M  V30 1499 N 130.073 -1.45103 0.615059 0
M  V30 1500 C 131.484 -1.85654 0.197383 0
M  V30 1501 C 131.835 -1.51433 -1.24749 0
M  V30 1502 O 130.96 -0.944608 -1.94695 0
M  V30 1503 C 131.555 -3.36972 0.351448 0
M  V30 1504 C 130.114 -3.76398 -0.011593 0
M  V30 1505 C 129.261 -2.69024 0.672394 0
M  V30 1506 H 132.212 -1.35797 0.821263 0
M  V30 1507 H 132.233 -3.78239 -0.414227 0
M  V30 1508 H 131.745 -3.61847 1.40314 0
M  V30 1509 H 129.846 -3.5714 -1.06217 0
M  V30 1510 H 129.959 -4.77532 0.387265 0
M  V30 1511 H 128.323 -2.54465 0.109284 0
M  V30 1512 H 129.106 -2.96735 1.72636 0
M  V30 1513 N 131.551 -0.354651 -1.53558 0
M  V30 1514 C 132.798 0.238443 -2.01091 0
M  V30 1515 C 133.126 1.49663 -1.24222 0
M  V30 1516 O 132.381 1.93049 -0.321003 0
M  V30 1517 C 132.68 0.587121 -3.52545 0
M  V30 1518 C 132.346 -0.575472 -4.47213 0
M  V30 1519 C 131.008 -0.894497 -4.72813 0
M  V30 1520 C 133.36 -1.35489 -5.03281 0
M  V30 1521 C 130.688 -1.99511 -5.51736 0
M  V30 1522 C 133.04 -2.44583 -5.83405 0
M  V30 1523 C 131.704 -2.77033 -6.07296 0
M  V30 1524 H 130.974 0.0872526 -0.735845 0
M  V30 1525 H 133.621 -0.484859 -1.8526 0
M  V30 1526 H 131.926 1.39129 -3.66265 0
M  V30 1527 H 133.623 1.05809 -3.86789 0
M  V30 1528 H 130.213 -0.316774 -4.27428 0
M  V30 1529 H 134.397 -1.12167 -4.83459 0
M  V30 1530 H 129.653 -2.25063 -5.68469 0
M  V30 1531 H 133.827 -3.05401 -6.25862 0
M  V30 1532 H 131.454 -3.6244 -6.68237 0
M  V30 1533 N 133.029 1.57378 -0.0835403 0
M  V30 1534 C 134.276 1.9393 0.58287 0
M  V30 1535 C 134.604 0.964455 1.68904 0
M  V30 1536 O 133.859 -0.0179474 1.95692 0
M  V30 1537 C 134.158 3.37063 1.1884 0
M  V30 1538 C 133.824 4.50424 0.207194 0
M  V30 1539 C 132.486 4.81159 -0.0627115 0
M  V30 1540 C 134.838 5.19136 -0.463426 0
M  V30 1541 C 132.166 5.77939 -1.01012 0
M  V30 1542 C 134.518 6.16931 -1.39924 0
M  V30 1543 C 133.182 6.46078 -1.67749 0
M  V30 1544 H 132.452 0.70964 0.213287 0
M  V30 1545 H 135.099 1.90856 -0.156916 0
M  V30 1546 H 133.404 3.3666 2.00418 0
M  V30 1547 H 135.101 3.6264 1.71153 0
M  V30 1548 H 131.691 4.2646 0.427747 0
M  V30 1549 H 135.875 4.95576 -0.268034 0
M  V30 1550 H 131.131 5.98842 -1.23283 0
M  V30 1551 H 135.305 6.69273 -1.92476 0
M  V30 1552 H 132.932 7.2088 -2.41321 0
M  V30 1553 N 134.507 -0.190092 1.56449 0
M  V30 1554 C 135.756 -0.907912 1.80111 0
M  V30 1555 C 136.069 -1.84214 0.657619 0
M  V30 1556 O 137.275 -2.60094 0.778663 0
M  V30 1557 C 135.731 -1.66485 3.19078 0
M  V30 1558 C 135.339 -0.7752 4.41242 0
M  V30 1559 C 137.083 -2.37201 3.52045 0
M  V30 1560 C 134.99 -1.53129 5.71231 0
M  V30 1561 H 133.92 -0.34276 0.671589 0
M  V30 1562 H 136.571 -0.161109 1.82791 0
M  V30 1563 H 134.953 -2.45572 3.10661 0
M  V30 1564 H 136.127 -0.0226298 4.60794 0
M  V30 1565 H 134.442 -0.178627 4.16017 0
M  V30 1566 H 137.039 -2.94329 4.46402 0
M  V30 1567 H 137.382 -3.11632 2.76028 0
M  V30 1568 H 137.915 -1.65075 3.61932 0
M  V30 1569 H 134.654 -0.82967 6.50228 0
M  V30 1570 H 134.174 -2.25767 5.55688 0
M  V30 1571 H 135.853 -2.08377 6.12526 0
M  V30 1572 N 135.985 -1.50799 -0.457987 0
M  V30 1573 C 137.232 -1.62442 -1.20908 0
M  V30 1574 C 137.56 -0.330865 -1.91665 0
M  V30 1575 O 136.815 0.68401 -1.83357 0
M  V30 1576 C 137.114 -2.76358 -2.2663 0
M  V30 1577 C 136.78 -4.16378 -1.73033 0
M  V30 1578 C 135.442 -4.54473 -1.58138 0
M  V30 1579 C 137.794 -5.03836 -1.33413 0
M  V30 1580 C 135.122 -5.77754 -1.02065 0
M  V30 1581 C 137.474 -6.27676 -0.78778 0
M  V30 1582 C 136.138 -6.64562 -0.625561 0
M  V30 1583 H 135.408 -0.594417 -0.442435 0
M  V30 1584 H 138.055 -1.84772 -0.503136 0
M  V30 1585 H 136.36 -2.48167 -3.03184 0
M  V30 1586 H 138.057 -2.82568 -2.84528 0
M  V30 1587 H 134.647 -3.86331 -1.85598 0
M  V30 1588 H 138.831 -4.75026 -1.4375 0
M  V30 1589 H 134.087 -6.04997 -0.882547 0
M  V30 1590 H 138.261 -6.94797 -0.472177 0
M  V30 1591 H 135.888 -7.59965 -0.188926 0
M  V30 1592 N 137.463 0.71206 -1.40597 0
M  V30 1593 C 138.712 1.46754 -1.38369 0
M  V30 1594 C 139.025 1.95598 0.0097839 0
M  V30 1595 O 140.231 2.71059 0.154677 0
M  V30 1596 C 138.687 2.65289 -2.43207 0
M  V30 1597 C 138.295 2.23301 -3.88382 0
M  V30 1598 C 140.039 3.43008 -2.50091 0
M  V30 1599 C 137.946 3.38696 -4.84808 0
M  V30 1600 H 136.876 0.55118 -0.514506 0
M  V30 1601 H 139.527 0.774616 -1.66349 0
M  V30 1602 H 137.909 3.36769 -2.08332 0
M  V30 1603 H 139.083 1.59218 -4.32419 0
M  V30 1604 H 137.398 1.58618 -3.85006 0
M  V30 1605 H 139.995 4.28881 -3.1932 0
M  V30 1606 H 140.338 3.87065 -1.53253 0
M  V30 1607 H 140.871 2.78574 -2.83974 0
M  V30 1608 H 137.61 2.99668 -5.82992 0
M  V30 1609 H 137.13 4.01683 -4.45433 0
M  V30 1610 H 138.809 4.04712 -5.04794 0
M  V30 1611 N 138.941 1.26152 0.944643 0
M  V30 1612 C 140.188 1.11492 1.69044 0
M  V30 1613 C 140.516 -0.342366 1.91463 0
M  V30 1614 O 139.771 -1.26812 1.49054 0
M  V30 1615 C 140.07 1.82541 3.07268 0
M  V30 1616 C 139.736 3.32445 3.04616 0
M  V30 1617 C 138.398 3.73337 3.036 0
M  V30 1618 C 140.75 4.28171 2.97185 0
M  V30 1619 C 138.078 5.08348 2.92915 0
M  V30 1620 C 140.43 5.63218 2.88041 0
M  V30 1621 C 139.094 6.03426 2.85366 0
M  V30 1622 H 138.364 0.407977 0.618576 0
M  V30 1623 H 141.011 1.56551 1.10291 0
M  V30 1624 H 139.316 1.29941 3.69625 0
M  V30 1625 H 141.013 1.68642 3.63815 0
M  V30 1626 H 137.603 2.99915 3.06185 0
M  V30 1627 H 141.787 3.97563 2.97081 0
M  V30 1628 H 137.043 5.38667 2.89219 0
M  V30 1629 H 141.217 6.37078 2.81254 0
M  V30 1630 H 138.844 7.07999 2.76842 0
M  V30 1631 N 140.419 -1.14872 1.07899 0
M  V30 1632 C 141.667 -1.85422 0.803941 0
M  V30 1633 C 141.988 -1.83051 -0.67211 0
M  V30 1634 O 141.258 -1.27532 -1.48703 0
M  V30 1635 H 139.838 -0.686537 0.294408 0
M  V30 1636 H 142.5 -1.39226 1.3639 0
M  V30 1637 H 141.596 -2.90399 1.14346 0
M  V30 1638 N 141.898 -0.863906 -1.31812 0
M  V30 1639 C 143.309 -0.52522 -1.7916 0
M  V30 1640 C 143.66 0.957518 -1.71248 0
M  V30 1641 O 142.785 1.74734 -1.27659 0
M  V30 1642 C 143.38 -0.9466 -3.25307 0
M  V30 1643 C 141.939 -0.659668 -3.70574 0
M  V30 1644 C 141.086 -1.14126 -2.52726 0
M  V30 1645 H 144.037 -1.05022 -1.1898 0
M  V30 1646 H 144.058 -0.266766 -3.79564 0
M  V30 1647 H 143.57 -2.02579 -3.31034 0
M  V30 1648 H 141.671 0.408416 -3.70355 0
M  V30 1649 H 141.784 -1.23245 -4.62977 0
M  V30 1650 H 140.148 -0.561216 -2.4844 0
M  V30 1651 H 140.931 -2.22775 -2.61201 0
M  V30 1652 N 143.376 1.44774 -0.622745 0
M  V30 1653 C 144.306 2.33382 0.0741861 0
M  V30 1654 C 145.287 1.47719 0.843387 0
M  V30 1655 O 146.472 1.76458 0.810934 0
M  V30 1656 C 143.602 3.30663 1.06204 0
M  V30 1657 C 142.556 4.26079 0.405037 0
M  V30 1658 C 141.882 5.13165 1.5022 0
M  V30 1659 C 143.182 5.1781 -0.683414 0
M  V30 1660 H 144.876 2.91905 -0.665713 0
M  V30 1661 H 142.422 1.40363 -0.321587 0
M  V30 1662 H 144.375 3.9153 1.55827 0
M  V30 1663 H 143.099 2.70331 1.83272 0
M  V30 1664 H 141.758 3.66532 -0.0704683 0
M  V30 1665 H 141.406 4.49191 2.26355 0
M  V30 1666 H 141.106 5.77812 1.06803 0
M  V30 1667 H 142.63 5.76902 2.00041 0
M  V30 1668 H 144.044 5.72661 -0.270631 0
M  V30 1669 H 142.441 5.91015 -1.04023 0
M  V30 1670 H 143.511 4.59326 -1.55395 0
M  V30 1671 N 144.854 0.36279 1.53368 0
M  V30 1672 C 145.784 -0.476976 2.28576 0
M  V30 1673 C 146.765 -1.08631 1.30894 0
M  V30 1674 O 147.95 -1.10409 1.59761 0
M  V30 1675 C 145.08 -1.61828 3.07293 0
M  V30 1676 C 144.034 -1.13633 4.1264 0
M  V30 1677 C 143.36 -2.36766 4.79423 0
M  V30 1678 C 144.66 -0.223061 5.21823 0
M  V30 1679 H 146.354 0.150474 2.99022 0
M  V30 1680 H 143.9 0.0738103 1.43811 0
M  V30 1681 H 145.853 -2.21237 3.58653 0
M  V30 1682 H 144.577 -2.27292 2.34533 0
M  V30 1683 H 143.236 -0.564945 3.62221 0
M  V30 1684 H 142.884 -3.0068 4.03238 0
M  V30 1685 H 142.584 -2.05192 5.50609 0
M  V30 1686 H 144.108 -2.96865 5.33576 0
M  V30 1687 H 145.522 -0.724545 5.68703 0
M  V30 1688 H 143.919 0.001678 6.001 0
M  V30 1689 H 144.989 0.735553 4.79289 0
M  V30 1690 N 146.332 -1.57332 0.0918853 0
M  V30 1691 C 147.264 -2.10869 -0.898168 0
M  V30 1692 C 148.277 -1.04521 -1.24817 0
M  V30 1693 O 149.466 -1.31977 -1.20184 0
M  V30 1694 C 146.566 -2.57083 -2.2082 0
M  V30 1695 C 145.739 -3.87229 -2.03402 0
M  V30 1696 C 144.798 -4.19324 -3.17889 0
M  V30 1697 O 143.824 -4.88598 -2.91994 0
M  V30 1698 N 145.026 -3.74471 -4.43567 0
M  V30 1699 H 147.791 -2.96439 -0.440943 0
M  V30 1700 H 145.352 -1.61631 -0.0933064 0
M  V30 1701 H 147.344 -2.75602 -2.96354 0
M  V30 1702 H 145.914 -1.76541 -2.57977 0
M  V30 1703 H 145.134 -3.7789 -1.12218 0
M  V30 1704 H 146.422 -4.72379 -1.89038 0
M  V30 1705 H 145.82 -3.18546 -4.67488 0
M  V30 1706 H 144.377 -3.98151 -5.16061 0
M  V30 1707 N 147.81 0.181792 -1.56548 0
M  V30 1708 C 149.04 0.914618 -1.85252 0
M  V30 1709 C 149.448 1.76791 -0.673914 0
M  V30 1710 O 148.791 1.80009 0.366416 0
M  V30 1711 C 148.853 1.85019 -3.08234 0
M  V30 1712 C 148.517 1.17754 -4.41569 0
M  V30 1713 C 149.514 0.548035 -5.17003 0
M  V30 1714 C 147.199 1.17742 -4.88305 0
M  V30 1715 C 149.193 -0.0726128 -6.37359 0
M  V30 1716 C 146.88 0.552946 -6.08593 0
M  V30 1717 C 147.878 -0.070978 -6.82963 0
M  V30 1718 O 147.566 -0.685635 -8.00971 0
M  V30 1719 H 147.298 0.271695 -0.618998 0
M  V30 1720 H 149.852 0.189944 -2.0452 0
M  V30 1721 H 148.082 2.61491 -2.84885 0
M  V30 1722 H 149.771 2.45195 -3.23472 0
M  V30 1723 H 150.537 0.540174 -4.81982 0
M  V30 1724 H 146.416 1.65246 -4.30366 0
M  V30 1725 H 149.96 -0.560213 -6.95347 0
M  V30 1726 H 145.857 0.558354 -6.43081 0
M  V30 1727 H 146.625 -0.58385 -8.16415 0
M  V30 1728 N 149.288 1.51039 0.449983 0
M  V30 1729 C 150.236 1.71995 1.5659 0
M  V30 1730 C 151.23 0.586029 1.5894 0
M  V30 1731 O 152.436 0.76709 1.62837 0
M  V30 1732 H 148.811 0.543233 0.520001 0
M  V30 1733 H 150.782 2.65562 1.36085 0
M  V30 1734 C 149.531 1.8506 2.9436 0
M  V30 1735 H 148.854 2.71712 2.93279 0
M  V30 1736 H 150.294 2.0374 3.71842 0
M  V30 1737 C 148.753 0.607277 3.31382 0
M  V30 1738 O 149.283 -0.243903 4.00959 0
M  V30 1739 N 147.489 0.455073 2.87015 0
M  V30 1740 H 147.036 1.14879 2.30566 0
M  V30 1741 H 146.994 -0.375611 3.12148 0
M  V30 1742 N 150.766 -0.704594 1.40972 0
M  V30 1743 C 152.015 -1.46018 1.39146 0
M  V30 1744 C 152.328 -1.956 0.000589254 0
M  V30 1745 O 153.534 -2.71137 -0.1403 0
M  V30 1746 C 151.99 -2.63996 2.4461 0
M  V30 1747 C 151.598 -2.21238 3.89561 0
M  V30 1748 C 153.342 -3.41677 2.51907 0
M  V30 1749 C 151.249 -3.3612 4.86598 0
M  V30 1750 H 150.179 -0.548444 0.517422 0
M  V30 1751 H 152.83 -0.765784 1.66757 0
M  V30 1752 H 151.212 -3.3566 2.10115 0
M  V30 1753 H 152.386 -1.56923 4.33257 0
M  V30 1754 H 150.701 -1.56574 3.85841 0
M  V30 1755 H 153.298 -4.27182 3.2159 0
M  V30 1756 H 153.641 -3.86247 1.55303 0
M  V30 1757 H 154.174 -2.77064 2.85448 0
M  V30 1758 H 150.913 -2.96572 5.84573 0
M  V30 1759 H 150.433 -3.99315 4.47557 0
M  V30 1760 H 152.112 -4.02029 5.06934 0
M  V30 1761 N 152.244 -1.26651 -0.937939 0
M  V30 1762 C 153.174 -1.10993 -2.05433 0
M  V30 1763 C 154.155 -0.0142161 -1.70094 0
M  V30 1764 O 155.34 -0.186837 -1.93299 0
M  V30 1765 C 152.47 -0.745561 -3.39203 0
M  V30 1766 C 151.424 -1.79337 -3.88616 0
M  V30 1767 C 150.75 -1.28324 -5.19073 0
M  V30 1768 C 152.05 -3.19553 -4.13138 0
M  V30 1769 H 153.744 -2.0438 -2.1879 0
M  V30 1770 H 151.29 -0.984041 -1.05131 0
M  V30 1771 H 153.243 -0.622888 -4.16771 0
M  V30 1772 H 151.967 0.22401 -3.25831 0
M  V30 1773 H 150.626 -1.90477 -3.13231 0
M  V30 1774 H 150.274 -0.303414 -5.02084 0
M  V30 1775 H 149.974 -1.98369 -5.53103 0
M  V30 1776 H 151.498 -1.1733 -5.99221 0
M  V30 1777 H 152.912 -3.11471 -4.81309 0
M  V30 1778 H 151.309 -3.87218 -4.58457 0
M  V30 1779 H 152.379 -3.65368 -3.18801 0
M  V30 1780 N 153.722 1.14298 -1.08507 0
M  V30 1781 C 154.968 1.85633 -0.816581 0
M  V30 1782 C 155.301 1.82784 0.656021 0
M  V30 1783 O 154.576 1.25926 1.48233 0
M  V30 1784 C 154.859 3.34223 -1.34041 0
M  V30 1785 C 154.712 3.45639 -2.87843 0
M  V30 1786 C 156.031 4.29356 -0.9665 0
M  V30 1787 H 153.15 0.67402 -0.298104 0
M  V30 1788 H 155.792 1.34214 -1.34487 0
M  V30 1789 H 153.942 3.78144 -0.89104 0
M  V30 1790 H 155.614 3.10498 -3.41158 0
M  V30 1791 H 153.857 2.86817 -3.25451 0
M  V30 1792 H 154.528 4.50089 -3.19569 0
M  V30 1793 H 157.004 3.93457 -1.35391 0
M  V30 1794 H 155.88 5.3178 -1.3602 0
M  V30 1795 H 156.141 4.41919 0.126362 0
M  V30 1796 N 155.201 0.870884 1.31352 0
M  V30 1797 C 156.449 0.48132 1.96285 0
M  V30 1798 C 156.77 -0.969813 1.69173 0
M  V30 1799 O 156.04 -1.67998 1.00764 0
M  V30 1800 H 154.62 0.175002 0.726212 0
M  V30 1801 H 157.282 1.11087 1.60143 0
M  V30 1802 H 156.378 0.639825 3.05471 0
M  V30 1803 N 156.679 -1.44442 0.630414 0
M  V30 1804 C 157.904 -2.06927 0.139944 0
M  V30 1805 C 158.329 -1.46795 -1.17613 0
M  V30 1806 O 157.687 -0.569144 -1.72135 0
M  V30 1807 C 157.735 -3.6058 0.0379581 0
M  V30 1808 O 156.839 -3.99937 -1.0062 0
M  V30 1809 H 156.18 -0.658608 0.0844483 0
M  V30 1810 H 158.71 -1.85327 0.866891 0
M  V30 1811 H 158.72 -4.07714 -0.152856 0
M  V30 1812 H 157.395 -4.03728 0.998809 0
M  V30 1813 H 155.972 -3.64436 -0.79001 0
M  V30 1814 N 158.157 -0.370918 -1.53173 0
M  V30 1815 C 159.406 0.218249 -2.00516 0
M  V30 1816 C 159.719 1.49429 -1.26215 0
M  V30 1817 O 160.925 2.16239 -1.64174 0
M  V30 1818 C 159.381 0.43948 -3.57207 0
M  V30 1819 C 158.989 -0.822244 -4.4039 0
M  V30 1820 C 160.733 0.986012 -4.1289 0
M  V30 1821 C 158.64 -0.570304 -5.88644 0
M  V30 1822 H 157.57 0.0853333 -0.749156 0
M  V30 1823 H 160.221 -0.490483 -1.76823 0
M  V30 1824 H 158.603 1.20961 -3.77074 0
M  V30 1825 H 159.777 -1.59557 -4.32294 0
M  V30 1826 H 158.092 -1.29238 -3.95836 0
M  V30 1827 H 160.689 1.18991 -5.21292 0
M  V30 1828 H 161.032 1.94972 -3.6782 0
M  V30 1829 H 161.565 0.27592 -3.96842 0
M  V30 1830 H 158.304 -1.50449 -6.38001 0
M  V30 1831 H 157.824 0.164427 -5.99575 0
M  V30 1832 H 159.503 -0.19784 -6.46697 0
M  V30 1833 N 159.635 1.57281 -0.100228 0
M  V30 1834 C 160.881 1.94826 0.563101 0
M  V30 1835 C 161.214 0.982475 1.67514 0
M  V30 1836 O 160.489 0.0164069 1.94493 0
M  V30 1837 C 160.772 3.42453 1.11346 0
M  V30 1838 C 160.625 4.498 0.00612081 0
M  V30 1839 C 161.944 3.91506 2.01024 0
M  V30 1840 H 159.063 0.708428 0.203221 0
M  V30 1841 H 161.705 1.8922 -0.171979 0
M  V30 1842 H 159.855 3.47361 1.7399 0
M  V30 1843 H 161.527 4.57 -0.628357 0
M  V30 1844 H 159.77 4.28756 -0.659581 0
M  V30 1845 H 160.441 5.50306 0.432109 0
M  V30 1846 H 162.917 3.88784 1.48278 0
M  V30 1847 H 161.793 4.95358 2.36457 0
M  V30 1848 H 162.054 3.31099 2.92961 0
M  V30 1849 N 161.113 -0.173488 1.56642 0
M  V30 1850 C 162.361 -0.888706 1.81512 0
M  V30 1851 C 162.682 -1.82875 0.676872 0
M  V30 1852 O 161.952 -1.93536 -0.303414 0
M  V30 1853 H 160.532 -0.331164 0.669582 0
M  V30 1854 H 163.194 -0.173823 1.94123 0
M  V30 1855 H 162.29 -1.46691 2.75478 0
M  V30 1856 N 162.591 -1.51276 -0.441967 0
M  V30 1857 C 163.839 -1.63392 -1.18943 0
M  V30 1858 C 164.16 -0.350159 -1.9183 0
M  V30 1859 O 163.43 0.633784 -1.85364 0
M  V30 1860 H 162.01 -0.602164 -0.442049 0
M  V30 1861 H 164.672 -1.88186 -0.507165 0
M  V30 1862 H 163.768 -2.45934 -1.92154 0
M  V30 1863 N 164.069 0.697108 -1.41344 0
M  V30 1864 C 165.318 1.45279 -1.39918 0
M  V30 1865 C 165.631 1.95597 -0.0109624 0
M  V30 1866 O 166.837 2.71208 0.125919 0
M  V30 1867 C 165.293 2.62695 -2.46007 0
M  V30 1868 C 164.901 2.19169 -3.90729 0
M  V30 1869 C 166.645 3.40336 -2.53715 0
M  V30 1870 C 164.552 3.33535 -4.88373 0
M  V30 1871 H 163.482 0.545692 -0.520323 0
M  V30 1872 H 166.133 0.756929 -1.67161 0
M  V30 1873 H 164.515 3.34541 -2.11892 0
M  V30 1874 H 165.689 1.54623 -4.34083 0
M  V30 1875 H 164.004 1.54525 -3.86666 0
M  V30 1876 H 166.601 4.2547 -3.2385 0
M  V30 1877 H 166.944 3.85418 -1.5735 0
M  V30 1878 H 167.477 2.75546 -2.86913 0
M  V30 1879 H 164.216 2.93468 -5.86137 0
M  V30 1880 H 163.736 3.96936 -4.49668 0
M  V30 1881 H 165.415 3.99335 -5.09059 0
M  V30 1882 N 165.547 1.27147 0.931209 0
M  V30 1883 C 166.777 1.15914 1.71019 0
M  V30 1884 C 167.185 -0.287112 1.87009 0
M  V30 1885 O 166.528 -1.20761 1.38429 0
M  V30 1886 C 166.59 1.76647 3.13107 0
M  V30 1887 C 166.254 3.25807 3.20467 0
M  V30 1888 C 167.251 4.22489 3.02983 0
M  V30 1889 C 164.936 3.66452 3.43538 0
M  V30 1890 C 166.93 5.57794 3.08454 0
M  V30 1891 C 164.617 5.01888 3.48643 0
M  V30 1892 C 165.615 5.97369 3.31119 0
M  V30 1893 O 165.303 7.30337 3.35952 0
M  V30 1894 H 165.035 0.404062 0.54195 0
M  V30 1895 H 167.589 1.68457 1.17521 0
M  V30 1896 H 165.819 1.18578 3.68071 0
M  V30 1897 H 167.508 1.60179 3.72958 0
M  V30 1898 H 168.274 3.92425 2.85004 0
M  V30 1899 H 164.153 2.92611 3.5623 0
M  V30 1900 H 167.697 6.32298 2.94694 0
M  V30 1901 H 163.594 5.31609 3.66145 0
M  V30 1902 H 164.362 7.38739 3.5243 0
M  V30 1903 N 167.025 -1.13721 1.09112 0
M  V30 1904 C 167.955 -2.21148 0.749385 0
M  V30 1905 C 168.936 -1.6792 -0.271475 0
M  V30 1906 O 170.121 -1.93693 -0.140251 0
M  V30 1907 C 167.251 -3.46905 0.165659 0
M  V30 1908 C 166.205 -4.13203 1.11567 0
M  V30 1909 C 165.531 -5.33248 0.393809 0
M  V30 1910 C 166.831 -4.60912 2.45678 0
M  V30 1911 H 168.525 -2.4999 1.64758 0
M  V30 1912 H 166.071 -1.20156 0.793626 0
M  V30 1913 H 168.024 -4.21313 -0.085466 0
M  V30 1914 H 166.748 -3.17449 -0.767714 0
M  V30 1915 H 165.407 -3.40758 1.35202 0
M  V30 1916 H 165.055 -5.00054 -0.543599 0
M  V30 1917 H 164.755 -5.78552 1.02721 0
M  V30 1918 H 166.279 -6.10413 0.150908 0
M  V30 1919 H 167.693 -5.26759 2.26269 0
M  V30 1920 H 166.09 -5.16944 3.04776 0
M  V30 1921 H 167.16 -3.75603 3.06677 0
M  V30 1922 N 168.503 -0.877838 -1.30888 0
M  V30 1923 C 169.751 -0.491723 -1.96027 0
M  V30 1924 C 170.072 0.960827 -1.69685 0
M  V30 1925 O 169.342 1.67462 -1.01654 0
M  V30 1926 H 167.922 -0.17885 -0.725273 0
M  V30 1927 H 170.584 -1.11935 -1.59551 0
M  V30 1928 H 169.68 -0.656016 -3.05128 0
M  V30 1929 N 169.982 1.44106 -0.638065 0
M  V30 1930 C 171.229 2.01978 -0.14533 0
M  V30 1931 C 171.557 1.50234 1.23532 0
M  V30 1932 O 170.812 0.679548 1.83523 0
M  V30 1933 C 171.111 3.5729 -0.0887327 0
M  V30 1934 C 170.777 4.28317 -1.40909 0
M  V30 1935 C 169.439 4.47437 -1.77069 0
M  V30 1936 C 171.791 4.6867 -2.28031 0
M  V30 1937 C 169.119 5.04171 -3.00047 0
M  V30 1938 C 171.471 5.26766 -3.50286 0
M  V30 1939 C 170.135 5.44104 -3.86661 0
M  V30 1940 H 169.405 0.739089 -0.0531801 0
M  V30 1941 H 172.052 1.72781 -0.825761 0
M  V30 1942 H 170.357 3.8594 0.675095 0
M  V30 1943 H 172.054 3.99807 0.309145 0
M  V30 1944 H 168.644 4.1377 -1.1177 0
M  V30 1945 H 172.828 4.53604 -2.01388 0
M  V30 1946 H 168.084 5.15782 -3.28298 0
M  V30 1947 H 172.258 5.56983 -4.18023 0
M  V30 1948 H 169.885 5.87832 -4.82034 0
M  V30 1949 N 171.46 0.379036 1.52974 0
M  V30 1950 C 172.7 -0.206325 2.03356 0
M  V30 1951 C 173.064 -1.44892 1.25977 0
M  V30 1952 O 174.265 -2.11078 1.66432 0
M  V30 1953 C 172.536 -0.477887 3.54191 0
M  V30 1954 S 174.095 -1.035 4.26419 0
M  V30 1955 H 170.913 -0.0590259 0.708546 0
M  V30 1956 H 173.515 0.525013 1.88319 0
M  V30 1957 H 172.219 0.433745 4.08101 0
M  V30 1958 H 171.75 -1.23793 3.73415 0
M  V30 1959 H 173.765 -2.31821 4.38718 0
M  V30 1960 N 172.938 -1.57226 0.108567 0
M  V30 1961 C 174.185 -1.94833 -0.551943 0
M  V30 1962 C 174.513 -0.991204 -1.67348 0
M  V30 1963 O 173.768 -0.0131878 -1.95696 0
M  V30 1964 C 174.067 -3.38911 -1.13463 0
M  V30 1965 C 173.733 -4.50696 -0.135509 0
M  V30 1966 C 172.395 -4.80998 0.139252 0
M  V30 1967 C 174.747 -5.18333 0.545957 0
M  V30 1968 C 172.075 -5.76259 1.10194 0
M  V30 1969 C 174.427 -6.14627 1.49721 0
M  V30 1970 C 173.091 -6.43327 1.78006 0
M  V30 1971 H 172.361 -0.712944 -0.20197 0
M  V30 1972 H 175.008 -1.90582 0.18726 0
M  V30 1973 H 173.313 -3.39805 -1.95037 0
M  V30 1974 H 175.01 -3.65317 -1.65362 0
M  V30 1975 H 171.6 -4.27087 -0.359846 0
M  V30 1976 H 175.784 -4.95087 0.346842 0
M  V30 1977 H 171.04 -5.96804 1.32795 0
M  V30 1978 H 175.214 -6.66126 2.03099 0
M  V30 1979 H 172.841 -7.1695 2.52759 0
M  V30 1980 N 174.416 0.165178 -1.56732 0
M  V30 1981 C 175.364 1.22369 -1.97809 0
M  V30 1982 C 176.358 1.45488 -0.867741 0
M  V30 1983 O 177.564 1.45995 -1.05288 0
M  V30 1984 H 173.939 0.411486 -0.629431 0
M  V30 1985 H 175.91 0.850425 -2.86025 0
M  V30 1986 C 174.659 2.55403 -2.35934 0
M  V30 1987 H 173.982 2.38438 -3.20916 0
M  V30 1988 H 175.422 3.2814 -2.68514 0
M  V30 1989 C 173.881 3.14611 -1.20506 0
M  V30 1990 O 174.411 3.98626 -0.496016 0
M  V30 1991 N 172.617 2.7379 -0.97403 0
M  V30 1992 H 172.164 2.0557 -1.55238 0
M  V30 1993 H 172.122 3.1374 -0.203573 0
M  V30 1994 N 175.894 1.51508 0.433938 0
M  V30 1995 C 176.857 1.72473 1.50949 0
M  V30 1996 C 177.857 0.594725 1.49398 0
M  V30 1997 O 179.047 0.862315 1.5136 0
M  V30 1998 C 176.179 1.78431 2.90474 0
M  V30 1999 H 177.372 2.68467 1.33662 0
M  V30 2000 H 174.925 1.41549 0.662836 0
M  V30 2001 H 175.66 0.842645 3.13161 0
M  V30 2002 H 175.445 2.60558 2.93005 0
M  V30 2003 H 176.935 1.96479 3.68491 0
M  V30 2004 N 177.372 -0.689602 1.41712 0
M  V30 2005 C 178.62 -1.4468 1.4111 0
M  V30 2006 C 178.941 -1.94986 0.0232196 0
M  V30 2007 O 178.211 -1.72097 -0.935913 0
M  V30 2008 H 176.791 -0.536847 0.519427 0
M  V30 2009 H 179.453 -0.815825 1.77004 0
M  V30 2010 H 178.549 -2.30706 2.10193 0
M  V30 2011 N 178.85 -1.27639 -0.924453 0
M  V30 2012 C 179.813 -1.10681 -2.00705 0
M  V30 2013 C 180.813 -0.0497823 -1.60723 0
M  V30 2014 O 182.003 -0.294654 -1.7169 0
M  V30 2015 C 179.135 -0.687164 -3.33902 0
M  V30 2016 H 180.328 -2.06817 -2.17179 0
M  V30 2017 H 177.881 -1.10473 -1.10569 0
M  V30 2018 H 178.616 0.275439 -3.23128 0
M  V30 2019 H 178.401 -1.45061 -3.6428 0
M  V30 2020 H 179.891 -0.590853 -4.13399 0
M  V30 2021 N 180.328 1.1314 -1.09713 0
M  V30 2022 C 181.739 1.66029 -0.853885 0
M  V30 2023 C 182.09 1.86241 0.617142 0
M  V30 2024 O 181.215 1.5834 1.47503 0
M  V30 2025 C 181.81 3.01599 -1.5435 0
M  V30 2026 C 180.369 3.51467 -1.34714 0
M  V30 2027 C 179.516 2.26648 -1.59769 0
M  V30 2028 H 182.467 0.970226 -1.25588 0
M  V30 2029 H 182.488 3.67709 -0.978267 0
M  V30 2030 H 182 2.86856 -2.6141 0
M  V30 2031 H 180.101 3.71408 -0.297838 0
M  V30 2032 H 180.214 4.314 -2.08401 0
M  V30 2033 H 178.578 2.33385 -1.01998 0
M  V30 2034 H 179.361 2.14467 -2.68065 0
M  V30 2035 N 181.806 0.884767 1.30421 0
M  V30 2036 C 182.769 0.356277 2.26414 0
M  V30 2037 C 183.769 -0.501124 1.52792 0
M  V30 2038 O 184.959 -0.30831 1.7145 0
M  V30 2039 C 182.091 -0.492316 3.37326 0
M  V30 2040 H 183.284 1.20389 2.74675 0
M  V30 2041 H 180.837 0.661607 1.41607 0
M  V30 2042 H 181.572 -1.36052 2.94381 0
M  V30 2043 H 181.357 0.121832 3.91911 0
M  V30 2044 H 182.847 -0.853871 4.08777 0
M  V30 2045 N 183.284 -1.43765 0.645699 0
M  V30 2046 C 184.53 -2.02197 0.156271 0
M  V30 2047 C 184.863 -1.50776 -1.22393 0
M  V30 2048 O 184.138 -0.697771 -1.81553 0
M  V30 2049 C 184.421 -3.59749 0.158872 0
M  V30 2050 C 184.274 -4.21419 1.57245 0
M  V30 2051 C 185.593 -4.37149 -0.50879 0
M  V30 2052 H 182.712 -0.734694 0.0582602 0
M  V30 2053 H 185.354 -1.71157 0.824951 0
M  V30 2054 H 183.504 -3.86325 -0.410525 0
M  V30 2055 H 185.176 -4.059 2.19186 0
M  V30 2056 H 183.419 -3.78356 2.122 0
M  V30 2057 H 184.09 -5.30482 1.52619 0
M  V30 2058 H 186.566 -4.16093 -0.024412 0
M  V30 2059 H 185.442 -5.4683 -0.476213 0
M  V30 2060 H 185.703 -4.12839 -1.58165 0
M  V30 2061 N 184.763 -0.387143 -1.52771 0
M  V30 2062 C 185.673 0.456442 -2.30117 0
M  V30 2063 C 186.689 1.07342 -1.36944 0
M  V30 2064 O 187.865 1.07971 -1.70013 0
M  V30 2065 C 184.93 1.56957 -3.09136 0
M  V30 2066 C 183.991 0.977916 -4.18014 0
M  V30 2067 C 183.224 2.038 -4.93256 0
M  V30 2068 O 183.447 3.25271 -4.68567 0
M  V30 2069 O 182.381 1.6565 -5.78657 0
M  V30 2070 H 186.207 -0.17359 -3.03203 0
M  V30 2071 H 183.792 -0.150919 -1.48636 0
M  V30 2072 H 185.674 2.21628 -3.58412 0
M  V30 2073 H 184.349 2.18461 -2.38865 0
M  V30 2074 H 183.256 0.294525 -3.72939 0
M  V30 2075 H 184.589 0.407128 -4.90513 0
M  V30 2076 N 186.241 1.57166 -0.116904 0
M  V30 2077 C 187.204 2.14039 0.819742 0
M  V30 2078 C 188.204 1.07477 1.19605 0
M  V30 2079 O 189.394 1.33263 1.1219 0
M  V30 2080 C 186.526 2.67891 2.10826 0
M  V30 2081 H 187.719 2.98128 0.325511 0
M  V30 2082 H 185.272 1.55739 0.132312 0
M  V30 2083 H 186.007 1.87384 2.64685 0
M  V30 2084 H 185.792 3.45823 1.84793 0
M  V30 2085 H 187.282 3.11809 2.77785 0
M  V30 2086 N 187.719 -0.156864 1.56817 0
M  V30 2087 C 188.966 -0.871125 1.82805 0
M  V30 2088 C 189.294 -1.81611 0.696262 0
M  V30 2089 O 188.549 -1.93141 -0.315459 0
M  V30 2090 C 188.848 -1.68737 3.1506 0
M  V30 2091 C 188.514 -0.890045 4.42028 0
M  V30 2092 C 187.176 -0.670042 4.76512 0
M  V30 2093 C 189.528 -0.331769 5.20143 0
M  V30 2094 C 186.856 0.119104 5.86579 0
M  V30 2095 C 189.208 0.444365 6.31037 0
M  V30 2096 C 187.872 0.675035 6.64078 0
M  V30 2097 H 187.142 -0.318767 0.668931 0
M  V30 2098 H 189.789 -0.135274 1.91022 0
M  V30 2099 H 188.094 -2.49304 3.0225 0
M  V30 2100 H 189.791 -2.24331 3.3238 0
M  V30 2101 H 186.381 -1.07157 4.14988 0
M  V30 2102 H 190.565 -0.489043 4.93885 0
M  V30 2103 H 185.821 0.307417 6.10627 0
M  V30 2104 H 189.995 0.884139 6.90765 0
M  V30 2105 H 187.622 1.28839 7.49203 0
M  V30 2106 N 189.197 -1.51736 -0.425897 0
M  V30 2107 C 190.446 -1.64201 -1.17136 0
M  V30 2108 C 190.759 -0.369705 -1.92074 0
M  V30 2109 O 191.965 -0.373898 -2.68913 0
M  V30 2110 C 190.421 -2.90035 -2.13091 0
M  V30 2111 C 190.029 -4.24312 -1.43747 0
M  V30 2112 C 191.773 -3.1186 -2.87999 0
M  V30 2113 C 189.68 -5.41285 -2.38253 0
M  V30 2114 H 188.61 -0.611624 -0.440944 0
M  V30 2115 H 191.261 -1.78212 -0.437328 0
M  V30 2116 H 189.643 -2.69684 -2.89977 0
M  V30 2117 H 190.817 -4.55086 -0.723408 0
M  V30 2118 H 189.132 -4.08456 -0.809465 0
M  V30 2119 H 191.729 -3.96427 -3.58817 0
M  V30 2120 H 192.072 -2.25403 -3.49999 0
M  V30 2121 H 192.605 -3.32605 -2.18217 0
M  V30 2122 H 189.344 -6.30037 -1.80925 0
M  V30 2123 H 188.864 -5.14872 -3.0768 0
M  V30 2124 H 190.543 -5.73694 -2.99139 0
M  V30 2125 N 190.675 0.682077 -1.42076 0
M  V30 2126 C 191.585 1.82535 -1.47371 0
M  V30 2127 C 192.601 1.7017 -0.363079 0
M  V30 2128 O 193.777 1.91848 -0.612875 0
M  V30 2129 C 190.842 3.18624 -1.36674 0
M  V30 2130 C 189.903 3.42999 -2.58167 0
M  V30 2131 C 189.136 4.72595 -2.4797 0
M  V30 2132 O 189.359 5.50006 -1.5116 0
M  V30 2133 O 188.293 4.98054 -3.37974 0
M  V30 2134 H 192.119 1.81023 -2.43853 0
M  V30 2135 H 189.704 0.836887 -1.2376 0
M  V30 2136 H 191.586 3.99847 -1.33043 0
M  V30 2137 H 190.261 3.20789 -0.433138 0
M  V30 2138 H 189.168 2.61653 -2.67373 0
M  V30 2139 H 190.501 3.45659 -3.50401 0
M  V30 2140 N 192.153 1.28127 0.917671 0
M  V30 2141 C 193.1 1.11717 2.0196 0
M  V30 2142 C 194.07 0.0153929 1.66093 0
M  V30 2143 O 195.255 0.179596 1.89953 0
M  V30 2144 C 192.395 0.780927 3.36148 0
M  V30 2145 C 191.508 1.96135 3.84909 0
M  V30 2146 C 190.643 1.56609 5.0759 0
M  V30 2147 C 189.682 2.71339 5.48673 0
M  V30 2148 N 188.819 2.32332 6.62545 0
M  V30 2149 H 193.659 2.06003 2.15329 0
M  V30 2150 H 191.196 1.02535 1.05475 0
M  V30 2151 H 193.154 0.56675 4.13333 0
M  V30 2152 H 191.784 -0.124998 3.22558 0
M  V30 2153 H 190.836 2.28777 3.03916 0
M  V30 2154 H 192.148 2.82165 4.1132 0
M  V30 2155 H 191.302 1.31374 5.92305 0
M  V30 2156 H 190.041 0.677014 4.82978 0
M  V30 2157 H 189.046 2.97276 4.62501 0
M  V30 2158 H 190.271 3.60882 5.75274 0
M  V30 2159 H 188.217 1.45889 6.39572 0
M  V30 2160 H 188.134 3.11899 6.88662 0
M  V30 2161 H 189.402 2.10371 7.50576 0
M  V30 2162 N 193.631 -1.12557 1.10312 0
M  V30 2163 C 194.877 -1.84311 0.846011 0
M  V30 2164 C 195.21 -1.83805 -0.626859 0
M  V30 2165 O 194.485 -1.28268 -1.46211 0
M  V30 2166 C 194.768 -3.32048 1.39341 0
M  V30 2167 C 194.621 -3.41016 2.93305 0
M  V30 2168 C 195.94 -4.27764 1.03468 0
M  V30 2169 H 193.059 -0.669192 0.30879 0
M  V30 2170 H 195.701 -1.32057 1.36605 0
M  V30 2171 H 193.851 -3.76678 0.951087 0
M  V30 2172 H 195.523 -3.05031 3.46055 0
M  V30 2173 H 193.766 -2.81603 3.29973 0
M  V30 2174 H 194.437 -4.44948 3.26689 0
M  V30 2175 H 196.913 -3.91253 1.41633 0
M  V30 2176 H 195.789 -5.29549 1.44463 0
M  V30 2177 H 196.05 -4.42064 -0.0560404 0
M  V30 2178 N 195.109 -0.891671 -1.2995 0
M  V30 2179 C 196.334 -0.527932 -2.00568 0
M  V30 2180 C 196.759 0.877969 -1.66353 0
M  V30 2181 O 196.117 1.58301 -0.883762 0
M  V30 2182 C 196.165 -0.717745 -3.53385 0
M  V30 2183 O 195.269 0.233376 -4.11739 0
M  V30 2184 H 194.61 -0.20722 -0.630837 0
M  V30 2185 H 197.14 -1.20105 -1.65638 0
M  V30 2186 H 197.15 -0.619307 -4.03272 0
M  V30 2187 H 195.825 -1.74276 -3.77625 0
M  V30 2188 H 194.402 0.0880706 -3.72796 0
M  V30 2189 N 196.587 1.43421 -0.653314 0
M  V30 2190 C 198.003 1.56341 -0.320886 0
M  V30 2191 C 198.203 1.63696 1.17499 0
M  V30 2192 O 197.259 1.59208 1.95982 0
M  V30 2193 C 198.572 2.82424 -1.03233 0
M  V30 2194 C 200.12 2.96168 -1.01259 0
M  V30 2195 C 200.595 4.25084 -1.70492 0
M  V30 2196 N 202.086 4.31948 -1.67257 0
M  V30 2197 C 202.821 5.30466 -2.17701 0
M  V30 2198 N 202.317 6.35261 -2.76434 0
M  V30 2199 N 204.11 5.2212 -2.082 0
M  V30 2200 H 196.261 1.3689 -1.62403 0
M  V30 2201 H 198.524 0.657455 -0.682977 0
M  V30 2202 H 198.23 2.83053 -2.08744 0
M  V30 2203 H 198.104 3.72653 -0.583948 0
M  V30 2204 H 200.491 2.9508 0.0341235 0
M  V30 2205 H 200.572 2.07229 -1.49966 0
M  V30 2206 H 200.216 4.26932 -2.7512 0
M  V30 2207 H 200.146 5.1292 -1.19251 0
M  V30 2208 H 202.637 3.56838 -1.24398 0
M  V30 2209 H 202.95 7.06754 -3.12601 0
M  V30 2210 H 201.295 6.35884 -2.80495 0
M  V30 2211 H 204.486 4.39166 -1.62021 0
M  V30 2212 H 204.659 5.98739 -2.47822 0
M  V30 2213 N 198.065 0.39524 1.52563 0
M  V30 2214 C 199.481 0.0454682 1.59535 0
M  V30 2215 C 199.681 -1.44056 1.4089 0
M  V30 2216 O 198.737 -2.20579 1.22888 0
M  V30 2217 C 200.05 0.527963 2.96029 0
M  V30 2218 C 201.598 0.484733 3.09224 0
M  V30 2219 C 202.073 0.943512 4.48176 0
M  V30 2220 N 203.564 0.899765 4.54377 0
M  V30 2221 C 204.299 1.22609 5.60138 0
M  V30 2222 N 203.795 1.62319 6.73516 0
M  V30 2223 N 205.588 1.14696 5.50274 0
M  V30 2224 H 197.739 1.36261 1.62931 0
M  V30 2225 H 200.002 0.558887 0.765735 0
M  V30 2226 H 199.708 1.56607 3.14908 0
M  V30 2227 H 199.582 -0.0698056 3.77135 0
M  V30 2228 H 201.969 -0.544298 2.90037 0
M  V30 2229 H 202.05 1.11838 2.30056 0
M  V30 2230 H 201.694 1.9708 4.68104 0
M  V30 2231 H 201.624 0.286817 5.25818 0
M  V30 2232 H 204.115 0.607632 3.72983 0
M  V30 2233 H 204.428 1.85567 7.5019 0
M  V30 2234 H 202.773 1.66211 6.74833 0
M  V30 2235 H 205.964 0.835701 4.6058 0
M  V30 2236 H 206.137 1.40459 6.32594 0
M  V30 2237 N 199.544 -1.57102 0.125237 0
M  V30 2238 C 200.769 -2.0019 -0.542101 0
M  V30 2239 C 201.194 -1.00449 -1.59034 0
M  V30 2240 O 200.552 0.0229423 -1.81285 0
M  V30 2241 C 200.6 -3.42129 -1.13929 0
M  V30 2242 O 199.704 -3.45307 -2.2547 0
M  V30 2243 H 199.045 -0.650171 -0.134812 0
M  V30 2244 H 201.575 -2.03461 0.215553 0
M  V30 2245 H 201.585 -3.80471 -1.4733 0
M  V30 2246 H 200.26 -4.14237 -0.371531 0
M  V30 2247 H 198.837 -3.1879 -1.93462 0
M  V30 2248 N 201.022 0.148545 -1.56898 0
M  V30 2249 C 201.97 1.20265 -1.99096 0
M  V30 2250 C 202.964 1.44559 -0.883123 0
M  V30 2251 O 204.17 1.4487 -1.0683 0
M  V30 2252 H 200.545 0.404786 -0.63376 0
M  V30 2253 H 202.516 0.82004 -2.86911 0
M  V30 2254 C 201.265 2.52886 -2.3863 0
M  V30 2255 H 200.588 2.35021 -3.23427 0
M  V30 2256 H 202.028 3.25274 -2.7198 0
M  V30 2257 C 200.487 3.13315 -1.23837 0
M  V30 2258 O 201.017 3.98077 -0.538268 0
M  V30 2259 N 199.223 2.72742 -1.00301 0
M  V30 2260 H 198.77 2.03912 -1.5741 0
M  V30 2261 H 198.728 3.13507 -0.236838 0
M  V30 2262 N 202.5 1.5196 0.417844 0
M  V30 2263 C 203.747 1.65591 1.16559 0
M  V30 2264 C 204.075 0.381565 1.90721 0
M  V30 2265 O 203.33 -0.635156 1.85106 0
M  V30 2266 C 203.629 2.82269 2.19223 0
M  V30 2267 C 203.295 4.20819 1.61933 0
M  V30 2268 C 201.957 4.58506 1.46033 0
M  V30 2269 C 204.309 5.07196 1.20008 0
M  V30 2270 C 201.637 5.80257 0.867113 0
M  V30 2271 C 203.989 6.29544 0.621086 0
M  V30 2272 C 202.653 6.65987 0.449144 0
M  V30 2273 H 201.923 0.605939 0.42652 0
M  V30 2274 H 204.57 1.86041 0.45397 0
M  V30 2275 H 202.875 2.56118 2.96498 0
M  V30 2276 H 204.572 2.90012 2.76936 0
M  V30 2277 H 201.162 3.91116 1.7529 0
M  V30 2278 H 205.346 4.7867 1.31105 0
M  V30 2279 H 200.602 6.07124 0.721833 0
M  V30 2280 H 204.776 6.95805 0.287798 0
M  V30 2281 H 202.403 7.60199 -0.012632 0
M  V30 2282 N 203.978 -0.674533 1.42435 0
M  V30 2283 C 204.888 -1.81751 1.48337 0
M  V30 2284 C 205.904 -1.69975 0.372099 0
M  V30 2285 O 207.08 -1.91521 0.62304 0
M  V30 2286 C 204.145 -3.17895 1.38361 0
M  V30 2287 C 203.206 -3.41625 2.59982 0
M  V30 2288 C 202.439 -4.71274 2.50473 0
M  V30 2289 O 202.662 -5.49197 1.54075 0
M  V30 2290 O 201.596 -4.96254 3.4061 0
M  V30 2291 H 205.422 -1.79728 2.44809 0
M  V30 2292 H 203.007 -0.830312 1.24202 0
M  V30 2293 H 204.889 -3.99136 1.35161 0
M  V30 2294 H 203.564 -3.20555 0.450144 0
M  V30 2295 H 202.471 -2.60231 2.68757 0
M  V30 2296 H 203.804 -3.43796 3.52229 0
M  V30 2297 N 205.456 -1.28612 -0.910864 0
M  V30 2298 C 206.703 -1.15934 -1.66029 0
M  V30 2299 C 207.031 0.291483 -1.92303 0
M  V30 2300 O 206.286 1.22816 -1.52364 0
M  V30 2301 C 206.585 -1.90624 -3.0232 0
M  V30 2302 C 206.251 -3.40405 -2.95695 0
M  V30 2303 C 204.913 -3.81255 -2.93595 0
M  V30 2304 C 207.265 -4.359 -2.85728 0
M  V30 2305 C 204.593 -5.15936 -2.79334 0
M  V30 2306 C 206.945 -5.70657 -2.73007 0
M  V30 2307 C 205.609 -6.10779 -2.69267 0
M  V30 2308 H 204.879 -0.424234 -0.607541 0
M  V30 2309 H 207.526 -1.5942 -1.06101 0
M  V30 2310 H 205.831 -1.39696 -3.6605 0
M  V30 2311 H 207.528 -1.78228 -3.59215 0
M  V30 2312 H 204.118 -3.07927 -2.98125 0
M  V30 2313 H 208.302 -4.053 -2.86436 0
M  V30 2314 H 203.558 -5.46146 -2.74835 0
M  V30 2315 H 207.732 -6.44311 -2.64264 0
M  V30 2316 H 205.359 -7.1509 -2.57974 0
M  V30 2317 N 206.934 1.1197 -1.10907 0
M  V30 2318 C 208.182 1.83225 -0.852819 0
M  V30 2319 C 208.503 1.84769 0.623341 0
M  V30 2320 O 207.773 1.3143 1.45269 0
M  V30 2321 H 206.353 0.67849 -0.312507 0
M  V30 2322 H 209.015 1.3556 -1.40033 0
M  V30 2323 H 208.111 2.87265 -1.22005 0
M  V30 2324 N 208.412 0.89855 1.29475 0
M  V30 2325 C 209.828 0.594483 1.48115 0
M  V30 2326 C 210.028 -0.86431 1.82022 0
M  V30 2327 O 209.084 -1.64457 1.91599 0
M  V30 2328 C 210.397 1.51932 2.59494 0
M  V30 2329 C 211.945 1.5244 2.7337 0
M  V30 2330 C 212.42 2.43548 3.87877 0
M  V30 2331 N 213.911 2.41589 3.95208 0
M  V30 2332 C 214.646 3.08789 4.83153 0
M  V30 2333 N 214.142 3.85265 5.75798 0
M  V30 2334 N 215.935 2.97952 4.76635 0
M  V30 2335 H 208.086 1.84207 1.05742 0
M  V30 2336 H 210.349 0.789251 0.525154 0
M  V30 2337 H 210.055 2.55865 2.41301 0
M  V30 2338 H 209.929 1.23899 3.56271 0
M  V30 2339 H 212.316 0.492518 2.90961 0
M  V30 2340 H 212.397 1.8451 1.77172 0
M  V30 2341 H 212.041 3.46829 3.71041 0
M  V30 2342 H 211.971 2.08788 4.83441 0
M  V30 2343 H 214.462 1.86025 3.28943 0
M  V30 2344 H 214.775 4.33598 6.39697 0
M  V30 2345 H 213.12 3.89371 5.75687 0
M  V30 2346 H 216.311 2.37723 4.03244 0
M  V30 2347 H 216.484 3.50599 5.44962 0
M  V30 2348 N 209.89 -1.43072 0.660911 0
M  V30 2349 C 210.853 -2.29194 -0.0166406 0
M  V30 2350 C 211.853 -1.42609 -0.742912 0
M  V30 2351 O 213.043 -1.64155 -0.583004 0
M  V30 2352 C 210.175 -3.24831 -1.0343 0
M  V30 2353 H 211.368 -2.90596 0.741208 0
M  V30 2354 H 208.921 -1.5048 0.422532 0
M  V30 2355 H 209.656 -2.68339 -1.82111 0
M  V30 2356 H 209.441 -3.88676 -0.517082 0
M  V30 2357 H 210.931 -3.89451 -1.50723 0
M  V30 2358 N 211.368 -0.403325 -1.52352 0
M  V30 2359 C 212.784 -0.0539281 -1.59509 0
M  V30 2360 C 212.984 1.43307 -1.41652 0
M  V30 2361 O 212.04 2.19924 -1.24056 0
M  V30 2362 C 213.353 -0.543654 -2.95745 0
M  V30 2363 C 214.901 -0.501125 -3.08962 0
M  V30 2364 C 215.376 -0.967267 -4.47669 0
M  V30 2365 N 216.867 -0.923849 -4.53893 0
M  V30 2366 C 217.602 -1.25578 -5.5948 0
M  V30 2367 N 217.098 -1.65889 -6.72646 0
M  V30 2368 N 218.891 -1.17613 -5.49658 0
M  V30 2369 H 211.042 -1.37123 -1.62206 0
M  V30 2370 H 213.305 -0.56294 -0.76276 0
M  V30 2371 H 213.011 -1.58275 -3.14073 0
M  V30 2372 H 212.885 0.0498042 -3.77167 0
M  V30 2373 H 215.272 0.528909 -2.90321 0
M  V30 2374 H 215.353 -1.13056 -2.2946 0
M  V30 2375 H 214.997 -1.9956 -4.67053 0
M  V30 2376 H 214.927 -0.314698 -5.25659 0
M  V30 2377 H 217.418 -0.627403 -3.72655 0
M  V30 2378 H 217.731 -1.89543 -7.49195 0
M  V30 2379 H 216.076 -1.69787 -6.73942 0
M  V30 2380 H 219.267 -0.860115 -4.6013 0
M  V30 2381 H 219.44 -1.43812 -6.3184 0
M  V30 2382 N 212.846 1.57033 -0.133567 0
M  V30 2383 C 213.779 2.11824 0.848872 0
M  V30 2384 C 214.757 1.03833 1.2513 0
M  V30 2385 O 215.941 1.31579 1.34978 0
M  V30 2386 C 213.068 2.62692 2.138 0
M  V30 2387 C 212.114 3.82705 1.88253 0
M  V30 2388 S 212.947 5.2438 1.08563 0
M  V30 2389 C 214.103 5.78627 2.38624 0
M  V30 2390 H 214.336 2.94824 0.38289 0
M  V30 2391 H 211.869 1.5419 0.0804796 0
M  V30 2392 H 213.827 2.92652 2.87863 0
M  V30 2393 H 212.488 1.79847 2.57515 0
M  V30 2394 H 211.681 4.16496 2.83809 0
M  V30 2395 H 211.283 3.53437 1.22305 0
M  V30 2396 H 213.575 5.8924 3.34369 0
M  V30 2397 H 214.518 6.76443 2.09358 0
M  V30 2398 H 214.926 5.06783 2.48658 0
M  V30 2399 N 214.325 -0.140222 1.56975 0
M  V30 2400 C 215.572 -0.851687 1.83719 0
M  V30 2401 C 215.9 -1.80862 0.715485 0
M  V30 2402 O 215.155 -1.93464 -0.294956 0
M  V30 2403 C 215.454 -1.65386 3.16832 0
M  V30 2404 C 215.12 -0.843112 4.42947 0
M  V30 2405 C 213.782 -0.619464 4.77196 0
M  V30 2406 C 216.134 -0.276582 5.20466 0
M  V30 2407 C 213.462 0.181312 5.8642 0
M  V30 2408 C 215.814 0.51127 6.30531 0
M  V30 2409 C 214.478 0.745432 6.63325 0
M  V30 2410 H 213.748 -0.311654 0.672274 0
M  V30 2411 H 216.395 -0.115006 1.91154 0
M  V30 2412 H 214.7 -2.46084 3.04877 0
M  V30 2413 H 216.397 -2.20793 3.34741 0
M  V30 2414 H 212.987 -1.0275 4.16101 0
M  V30 2415 H 217.171 -0.436632 4.94376 0
M  V30 2416 H 212.427 0.372165 6.10266 0
M  V30 2417 H 216.601 0.957354 6.89788 0
M  V30 2418 H 214.228 1.36778 7.47794 0
M  V30 2419 N 215.803 -1.52179 -0.40978 0
M  V30 2420 C 217.051 -1.65878 -1.15451 0
M  V30 2421 C 217.372 -0.390771 -1.91044 0
M  V30 2422 O 216.642 0.594323 -1.86667 0
M  V30 2423 H 215.222 -0.611405 -0.429177 0
M  V30 2424 H 217.884 -1.89219 -0.467134 0
M  V30 2425 H 216.98 -2.49954 -1.86894 0
M  V30 2426 N 217.281 0.66697 -1.42791 0
M  V30 2427 C 218.521 1.43892 -1.4517 0
M  V30 2428 C 218.885 1.91877 -0.0687551 0
M  V30 2429 O 220.086 2.6878 0.0327455 0
M  V30 2430 C 218.357 2.59839 -2.45395 0
M  V30 2431 S 219.916 3.48572 -2.66539 0
M  V30 2432 H 216.734 0.491356 -0.513897 0
M  V30 2433 H 219.336 0.775656 -1.79454 0
M  V30 2434 H 218.04 2.22838 -3.44632 0
M  V30 2435 H 217.571 3.3103 -2.12562 0
M  V30 2436 H 219.586 4.56094 -1.95429 0
M  V30 2437 N 218.759 1.29093 0.90403 0
M  V30 2438 C 220.005 1.16986 1.65656 0
M  V30 2439 C 220.338 -0.278925 1.92186 0
M  V30 2440 O 219.613 -1.2019 1.5292 0
M  V30 2441 C 219.896 1.97908 3.0084 0
M  V30 2442 C 219.749 3.50903 2.81403 0
M  V30 2443 C 221.068 1.80208 4.01513 0
M  V30 2444 H 218.187 0.426346 0.601164 0
M  V30 2445 H 220.829 1.58518 1.04747 0
M  V30 2446 H 218.979 1.62616 3.52829 0
M  V30 2447 H 220.651 3.96153 2.36348 0
M  V30 2448 H 218.894 3.76045 2.1627 0
M  V30 2449 H 219.565 4.02791 3.77443 0
M  V30 2450 H 222.041 2.11025 3.58619 0
M  V30 2451 H 220.917 2.39184 4.94047 0
M  V30 2452 H 221.178 0.756119 4.35586 0
M  V30 2453 N 220.237 -1.11381 1.11499 0
M  V30 2454 C 221.485 -1.8277 0.862524 0
M  V30 2455 C 221.806 -1.85097 -0.613534 0
M  V30 2456 O 221.076 -1.32198 -1.4457 0
M  V30 2457 H 219.656 -0.676823 0.316101 0
M  V30 2458 H 222.318 -1.34816 1.4075 0
M  V30 2459 H 221.414 -2.86614 1.23527 0
M  V30 2460 N 221.715 -0.905404 -1.28997 0
M  V30 2461 C 222.961 -0.544465 -1.95977 0
M  V30 2462 C 223.316 0.90041 -1.70031 0
M  V30 2463 O 222.609 1.63064 -1.00601 0
M  V30 2464 C 222.803 -0.779906 -3.48787 0
M  V30 2465 C 222.632 -2.24612 -3.89589 0
M  V30 2466 C 221.402 -2.89464 -4.14172 0
M  V30 2467 C 223.6 -3.22182 -4.00878 0
M  V30 2468 N 221.582 -4.26469 -4.41585 0
M  V30 2469 C 222.953 -4.44323 -4.32409 0
M  V30 2470 C 225.008 -3.17694 -3.83373 0
M  V30 2471 C 223.711 -5.62546 -4.48258 0
M  V30 2472 C 225.737 -4.35208 -4.00435 0
M  V30 2473 C 225.099 -5.56121 -4.3233 0
M  V30 2474 H 221.198 -0.248948 -0.741316 0
M  V30 2475 H 223.782 -1.1674 -1.5582 0
M  V30 2476 H 221.953 -0.186308 -3.87953 0
M  V30 2477 H 223.685 -0.383833 -4.02876 0
M  V30 2478 H 220.44 -2.40232 -4.08149 0
M  V30 2479 H 220.864 -4.97283 -4.5939 0
M  V30 2480 H 225.506 -2.25297 -3.57773 0
M  V30 2481 H 223.224 -6.55429 -4.72692 0
M  V30 2482 H 226.81 -4.33228 -3.88336 0
M  V30 2483 H 225.69 -6.45537 -4.45255 0
M  V30 2484 N 223.193 1.4272 -0.668489 0
M  V30 2485 C 224.156 2.292 0.00448567 0
M  V30 2486 C 225.156 1.43001 0.735339 0
M  V30 2487 O 226.346 1.64461 0.57429 0
M  V30 2488 C 223.478 3.25375 1.01705 0
M  V30 2489 H 224.671 2.90199 -0.756608 0
M  V30 2490 H 222.224 1.50254 -0.430506 0
M  V30 2491 H 222.959 2.69301 1.80686 0
M  V30 2492 H 222.744 3.88944 0.496463 0
M  V30 2493 H 224.234 3.90245 1.48655 0
M  V30 2494 N 224.671 0.411399 1.52136 0
M  V30 2495 C 225.601 -0.404015 2.29978 0
M  V30 2496 C 226.582 -1.04412 1.34284 0
M  V30 2497 O 227.767 -1.0527 1.63192 0
M  V30 2498 C 224.897 -1.5197 3.12286 0
M  V30 2499 C 223.851 -1.00448 4.16046 0
M  V30 2500 C 223.177 -2.21393 4.86712 0
M  V30 2501 C 224.477 -0.0569336 5.22269 0
M  V30 2502 H 226.171 0.245529 2.98392 0
M  V30 2503 H 223.717 0.119525 1.43503 0
M  V30 2504 H 225.67 -2.09715 3.6551 0
M  V30 2505 H 224.394 -2.19716 2.41646 0
M  V30 2506 H 223.053 -0.449421 3.63835 0
M  V30 2507 H 222.701 -2.87699 4.12599 0
M  V30 2508 H 222.401 -1.87571 5.56858 0
M  V30 2509 H 223.925 -2.7974 5.4275 0
M  V30 2510 H 225.339 -0.54325 5.7072 0
M  V30 2511 H 223.736 0.192594 5.99791 0
M  V30 2512 H 224.806 0.887663 4.76706 0
M  V30 2513 N 226.149 -1.5696 0.141893 0
M  V30 2514 C 227.389 -1.9785 -0.513304 0
M  V30 2515 C 227.753 -1.02467 -1.62371 0
M  V30 2516 O 228.954 -1.32382 -2.33941 0
M  V30 2517 C 227.225 -3.42797 -1.01118 0
M  V30 2518 S 228.784 -4.05709 -1.67169 0
M  V30 2519 H 225.602 -0.691318 -0.166135 0
M  V30 2520 H 228.204 -1.94114 0.232398 0
M  V30 2521 H 226.908 -4.0995 -0.192179 0
M  V30 2522 H 226.439 -3.50235 -1.79162 0
M  V30 2523 H 228.454 -3.98342 -2.95868 0
M  V30 2524 N 227.627 0.131896 -1.57047 0
M  V30 2525 C 228.59 1.14638 -1.98471 0
M  V30 2526 C 229.59 1.35029 -0.873148 0
M  V30 2527 O 230.78 1.31764 -1.13946 0
M  V30 2528 C 227.912 2.50358 -2.31373 0
M  V30 2529 H 229.105 0.79064 -2.8929 0
M  V30 2530 H 226.658 0.375761 -1.51716 0
M  V30 2531 H 227.393 2.90876 -1.43393 0
M  V30 2532 H 227.178 2.36915 -3.12432 0
M  V30 2533 H 228.668 3.23395 -2.64207 0
M  V30 2534 N 229.106 1.52395 0.401703 0
M  V30 2535 C 230.331 1.70972 1.17403 0
M  V30 2536 C 230.756 0.421615 1.83314 0
M  V30 2537 O 230.114 -0.621564 1.70312 0
M  V30 2538 C 230.162 2.85151 2.20728 0
M  V30 2539 O 229.266 2.51238 3.27037 0
M  V30 2540 H 228.607 0.568927 0.342372 0
M  V30 2541 H 231.137 1.99131 0.469891 0
M  V30 2542 H 231.147 3.10279 2.64936 0
M  V30 2543 H 229.822 3.78603 1.7214 0
M  V30 2544 H 228.399 2.36808 2.88057 0
M  V30 2545 N 230.584 -0.659388 1.43143 0
M  V30 2546 C 231.833 -1.41518 1.43721 0
M  V30 2547 C 232.146 -1.95499 0.0628176 0
M  V30 2548 O 233.352 -2.71446 -0.0539683 0
M  V30 2549 C 231.808 -2.5608 2.52885 0
M  V30 2550 C 231.416 -2.08733 3.96402 0
M  V30 2551 C 233.16 -3.3349 2.62649 0
M  V30 2552 C 231.067 -3.20469 4.97045 0
M  V30 2553 H 229.997 -0.531705 0.534608 0
M  V30 2554 H 232.648 -0.712343 1.69109 0
M  V30 2555 H 231.03 -3.28805 2.20688 0
M  V30 2556 H 232.204 -1.43059 4.3803 0
M  V30 2557 H 230.519 -1.44219 3.90627 0
M  V30 2558 H 233.116 -4.16734 3.35017 0
M  V30 2559 H 233.459 -3.8111 1.67513 0
M  V30 2560 H 233.992 -2.67842 2.94118 0
M  V30 2561 H 230.731 -2.77824 5.93712 0
M  V30 2562 H 230.251 -3.84874 4.60034 0
M  V30 2563 H 231.93 -3.85698 5.19467 0
M  V30 2564 N 232.062 -1.29571 -0.897171 0
M  V30 2565 C 233.308 -1.17863 -1.65034 0
M  V30 2566 C 233.641 0.268729 -1.92332 0
M  V30 2567 O 232.916 1.19378 -1.53555 0
M  V30 2568 C 233.199 -1.995 -2.99786 0
M  V30 2569 C 233.052 -3.5239 -2.79538 0
M  V30 2570 C 234.371 -1.82335 -4.00552 0
M  V30 2571 H 231.49 -0.429528 -0.598895 0
M  V30 2572 H 234.132 -1.59072 -1.03905 0
M  V30 2573 H 232.282 -1.64485 -3.51962 0
M  V30 2574 H 233.954 -3.97401 -2.34244 0
M  V30 2575 H 232.197 -3.77187 -2.14273 0
M  V30 2576 H 232.868 -4.04787 -3.75302 0
M  V30 2577 H 235.344 -2.12924 -3.57495 0
M  V30 2578 H 234.22 -2.41801 -4.92771 0
M  V30 2579 H 234.481 -0.779209 -4.35179 0
M  V30 2580 N 233.54 1.10788 -1.12088 0
M  V30 2581 C 234.788 1.8231 -0.872205 0
M  V30 2582 C 235.109 1.85419 0.603709 0
M  V30 2583 O 234.379 1.32963 1.43867 0
M  V30 2584 H 232.959 0.675137 -0.319686 0
M  V30 2585 H 235.621 1.34068 -1.41463 0
M  V30 2586 H 234.717 2.85955 -1.25045 0
M  V30 2587 N 235.018 0.912232 1.28515 0
M  V30 2588 C 236.267 0.540504 1.94323 0
M  V30 2589 C 236.58 -0.920044 1.72611 0
M  V30 2590 O 237.786 -1.39986 2.32629 0
M  V30 2591 C 236.242 0.915803 3.48053 0
M  V30 2592 C 235.85 2.39598 3.78546 0
M  V30 2593 C 237.594 0.614588 4.20027 0
M  V30 2594 C 235.501 2.71148 5.25578 0
M  V30 2595 H 234.431 0.198418 0.727424 0
M  V30 2596 H 237.082 1.11094 1.46049 0
M  V30 2597 H 235.464 0.274168 3.9505 0
M  V30 2598 H 236.638 3.08422 3.42364 0
M  V30 2599 H 234.953 2.66749 3.1974 0
M  V30 2600 H 237.55 0.827002 5.28266 0
M  V30 2601 H 237.893 -0.447531 4.13887 0
M  V30 2602 H 238.426 1.21462 3.78803 0
M  V30 2603 H 235.165 3.76207 5.36794 0
M  V30 2604 H 234.685 2.0696 5.62963 0
M  V30 2605 H 236.364 2.58072 5.93302 0
M  V30 2606 N 236.496 -1.42363 0.676048 0
M  V30 2607 C 237.429 -2.28141 -0.0516916 0
M  V30 2608 C 238.407 -1.41135 -0.807439 0
M  V30 2609 O 239.591 -1.70573 -0.802305 0
M  V30 2610 C 236.718 -3.21007 -1.08039 0
M  V30 2611 C 235.764 -4.24426 -0.420076 0
M  V30 2612 S 236.597 -5.29134 0.823246 0
M  V30 2613 C 237.753 -6.25566 -0.204344 0
M  V30 2614 H 237.986 -2.89515 0.675884 0
M  V30 2615 H 235.519 -1.47211 0.465635 0
M  V30 2616 H 237.477 -3.75048 -1.66881 0
M  V30 2617 H 236.138 -2.58766 -1.78042 0
M  V30 2618 H 235.331 -4.89596 -1.19633 0
M  V30 2619 H 234.933 -3.7388 0.0947845 0
M  V30 2620 H 237.225 -6.69098 -1.06369 0
M  V30 2621 H 238.168 -7.06895 0.412915 0
M  V30 2622 H 238.576 -5.61811 -0.55038 0
M  V30 2623 N 237.974 -0.419461 -1.51915 0
M  V30 2624 C 239.221 0.152939 -2.01922 0
M  V30 2625 C 239.549 1.4426 -1.30458 0
M  V30 2626 O 238.804 1.91514 -0.402593 0
M  V30 2627 C 239.103 0.437067 -3.54717 0
M  V30 2628 C 238.769 -0.764632 -4.44369 0
M  V30 2629 C 237.431 -1.09423 -4.68594 0
M  V30 2630 C 239.783 -1.56713 -4.97082 0
M  V30 2631 C 237.111 -2.22732 -5.42777 0
M  V30 2632 C 239.463 -2.69107 -5.72507 0
M  V30 2633 C 238.127 -3.02541 -5.95 0
M  V30 2634 H 237.397 0.0559644 -0.738884 0
M  V30 2635 H 240.044 -0.562998 -1.83037 0
M  V30 2636 H 238.349 1.23469 -3.71837 0
M  V30 2637 H 240.046 0.893083 -3.90928 0
M  V30 2638 H 236.636 -0.497775 -4.257 0
M  V30 2639 H 240.82 -1.32571 -4.78266 0
M  V30 2640 H 236.076 -2.48971 -5.58411 0
M  V30 2641 H 240.25 -3.31671 -6.12346 0
M  V30 2642 H 237.877 -3.90457 -6.52264 0
M  V30 2643 N 239.452 1.56882 -0.150215 0
M  V30 2644 C 240.68 2.00593 0.506948 0
M  V30 2645 C 241.095 1.03033 1.58208 0
M  V30 2646 O 240.452 0.0278396 1.82479 0
M  V30 2647 C 240.503 3.44209 1.10465 0
M  V30 2648 O 240.224 4.3804 0.0724636 0
M  V30 2649 C 241.725 4.03214 1.84211 0
M  V30 2650 H 238.945 0.65795 0.13169 0
M  V30 2651 H 241.489 2.03018 -0.245743 0
M  V30 2652 H 239.644 3.42625 1.80795 0
M  V30 2653 H 240.058 5.22007 0.510793 0
M  V30 2654 H 241.532 5.0569 2.21318 0
M  V30 2655 H 242.009 3.44107 2.72923 0
M  V30 2656 H 242.615 4.08437 1.18572 0
M  V30 2657 N 240.93 -0.123565 1.57115 0
M  V30 2658 C 242.179 -0.830704 1.83799 0
M  V30 2659 C 242.492 -1.81259 0.735158 0
M  V30 2660 O 243.698 -2.56558 0.888278 0
M  V30 2661 C 242.154 -1.52802 3.25852 0
M  V30 2662 C 241.762 -0.587356 4.44133 0
M  V30 2663 C 243.506 -2.22056 3.61789 0
M  V30 2664 C 241.413 -1.28764 5.77212 0
M  V30 2665 H 240.343 -0.313967 0.685522 0
M  V30 2666 H 242.994 -0.0834359 1.8331 0
M  V30 2667 H 241.376 -2.32175 3.20797 0
M  V30 2668 H 242.55 0.172829 4.60476 0
M  V30 2669 H 240.865 -0.00201892 4.164 0
M  V30 2670 H 243.462 -2.75131 4.58483 0
M  V30 2671 H 243.805 -2.99644 2.88997 0
M  V30 2672 H 244.338 -1.49576 3.68608 0
M  V30 2673 H 241.077 -0.55314 6.53162 0
M  V30 2674 H 240.597 -2.01995 5.64764 0
M  V30 2675 H 242.276 -1.8221 6.20813 0
M  V30 2676 N 242.408 -1.52605 -0.393616 0
M  V30 2677 C 243.356 -1.77688 -1.50099 0
M  V30 2678 C 244.35 -0.644615 -1.56656 0
M  V30 2679 O 245.556 -0.826997 -1.59877 0
M  V30 2680 H 241.931 -0.562159 -0.499481 0
M  V30 2681 H 243.902 -2.7043 -1.26135 0
M  V30 2682 C 242.651 -1.95858 -2.87289 0
M  V30 2683 H 241.974 -2.8241 -2.82992 0
M  V30 2684 H 243.414 -2.174 -3.64024 0
M  V30 2685 C 241.873 -0.729848 -3.28899 0
M  V30 2686 O 242.403 0.0949217 -4.01588 0
M  V30 2687 N 240.609 -0.561283 -2.85128 0
M  V30 2688 H 240.156 -1.23357 -2.26143 0
M  V30 2689 H 240.114 0.2595 -3.13327 0
M  V30 2690 N 243.887 0.651787 -1.4349 0
M  V30 2691 C 244.835 1.78586 -1.49029 0
M  V30 2692 C 245.829 1.65448 -0.363767 0
M  V30 2693 O 247.035 1.71777 -0.537821 0
M  V30 2694 H 243.41 0.589236 -0.467231 0
M  V30 2695 H 245.381 1.71035 -2.44519 0
M  V30 2696 C 244.13 3.16851 -1.43181 0
M  V30 2697 H 243.453 3.27598 -2.29171 0
M  V30 2698 H 244.893 3.96156 -1.51118 0
M  V30 2699 C 243.352 3.36568 -0.149616 0
M  V30 2700 O 243.882 3.93885 0.788509 0
M  V30 2701 N 242.088 2.90539 -0.0593484 0
M  V30 2702 H 241.635 2.4408 -0.823575 0
M  V30 2703 H 241.593 3.04108 0.797853 0
M  V30 2704 N 245.365 1.30045 0.890287 0
M  V30 2705 C 246.297 1.11786 2.00091 0
M  V30 2706 C 247.31 0.0626307 1.62679 0
M  V30 2707 O 248.499 0.308112 1.75821 0
M  V30 2708 C 245.599 0.681527 3.31977 0
M  V30 2709 C 244.772 1.81735 3.97858 0
M  V30 2710 C 243.831 1.37045 5.08041 0
M  V30 2711 O 242.857 2.07677 5.29961 0
M  V30 2712 N 244.059 0.246525 5.79976 0
M  V30 2713 H 246.824 2.07441 2.16306 0
M  V30 2714 H 244.385 1.2211 1.06305 0
M  V30 2715 H 246.377 0.365675 4.03045 0
M  V30 2716 H 244.947 -0.182828 3.12065 0
M  V30 2717 H 244.167 2.30159 3.20032 0
M  V30 2718 H 245.455 2.57865 4.38615 0
M  V30 2719 H 244.853 -0.34215 5.64664 0
M  V30 2720 H 243.41 -0.00990438 6.51799 0
M  V30 2721 N 246.843 -1.10192 1.12674 0
M  V30 2722 C 248.09 -1.82205 0.883606 0
M  V30 2723 C 248.418 -1.8532 -0.590492 0
M  V30 2724 O 247.673 -1.31137 -1.45264 0
M  V30 2725 C 247.972 -3.28552 1.4067 0
M  V30 2726 C 247.638 -3.45582 2.89627 0
M  V30 2727 C 246.3 -3.49937 3.30299 0
M  V30 2728 C 248.652 -3.50768 3.85501 0
M  V30 2729 C 245.98 -3.57049 4.65546 0
M  V30 2730 C 248.332 -3.59414 5.20581 0
M  V30 2731 C 246.996 -3.62034 5.60792 0
M  V30 2732 H 246.266 -0.666735 0.323334 0
M  V30 2733 H 248.913 -1.29868 1.40736 0
M  V30 2734 H 247.218 -3.83473 0.80347 0
M  V30 2735 H 248.915 -3.82788 1.19475 0
M  V30 2736 H 245.505 -3.42871 2.57172 0
M  V30 2737 H 249.689 -3.46651 3.55171 0
M  V30 2738 H 244.945 -3.57361 4.96088 0
M  V30 2739 H 249.119 -3.62371 5.94693 0
M  V30 2740 H 246.746 -3.67298 6.6558 0
M  V30 2741 N 248.321 -0.919034 -1.28029 0
M  V30 2742 C 249.567 -0.555757 -1.95036 0
M  V30 2743 C 249.9 0.899198 -1.72128 0
M  V30 2744 O 249.175 1.64023 -1.04531 0
M  V30 2745 C 249.458 -0.872024 -3.49382 0
M  V30 2746 C 249.311 -2.3801 -3.81669 0
M  V30 2747 C 250.63 -0.37185 -4.38526 0
M  V30 2748 H 247.749 -0.203386 -0.708381 0
M  V30 2749 H 250.391 -1.14924 -1.51303 0
M  V30 2750 H 248.541 -0.366946 -3.86763 0
M  V30 2751 H 250.213 -2.9562 -3.54128 0
M  V30 2752 H 248.456 -2.83289 -3.28526 0
M  V30 2753 H 249.127 -2.55192 -4.8947 0
M  V30 2754 H 251.603 -0.804602 -4.08247 0
M  V30 2755 H 250.479 -0.622173 -5.45362 0
M  V30 2756 H 250.74 0.727934 -4.36066 0
M  V30 2757 N 249.799 1.42003 -0.683588 0
M  V30 2758 C 251.046 2.01413 -0.209514 0
M  V30 2759 C 251.374 1.54088 1.1869 0
M  V30 2760 O 250.629 0.737591 1.81268 0
M  V30 2761 C 250.928 3.56827 -0.202357 0
M  V30 2762 C 250.594 4.23617 -1.54464 0
M  V30 2763 C 249.256 4.41577 -1.91215 0
M  V30 2764 C 251.608 4.61178 -2.42826 0
M  V30 2765 C 248.936 4.9437 -3.15935 0
M  V30 2766 C 251.288 5.15355 -3.66867 0
M  V30 2767 C 249.952 5.31528 -4.03776 0
M  V30 2768 H 249.222 0.737023 -0.0766668 0
M  V30 2769 H 251.869 1.70067 -0.880312 0
M  V30 2770 H 250.174 3.87892 0.551969 0
M  V30 2771 H 251.871 4.00588 0.181793 0
M  V30 2772 H 248.461 4.10004 -1.24877 0
M  V30 2773 H 252.645 4.46968 -2.15717 0
M  V30 2774 H 247.901 5.05076 -3.44541 0
M  V30 2775 H 252.075 5.43402 -4.35531 0
M  V30 2776 H 249.702 5.72199 -5.00492 0
M  V30 2777 N 251.277 0.427512 1.51691 0
M  V30 2778 C 252.523 -0.134744 2.02953 0
M  V30 2779 C 252.878 -1.41235 1.30654 0
M  V30 2780 O 252.171 -1.87168 0.409713 0
M  V30 2781 C 252.365 -0.418249 3.54944 0
M  V30 2782 C 252.194 0.830327 4.41968 0
M  V30 2783 C 250.964 1.36097 4.86627 0
M  V30 2784 C 253.162 1.7137 4.84909 0
M  V30 2785 N 251.144 2.56311 5.57833 0
M  V30 2786 C 252.515 2.76195 5.55082 0
M  V30 2787 C 254.57 1.72928 4.66905 0
M  V30 2788 C 253.273 3.82512 6.09161 0
M  V30 2789 C 255.299 2.78175 5.21894 0
M  V30 2790 C 254.661 3.8172 5.92004 0
M  V30 2791 H 250.76 -0.0103958 0.781931 0
M  V30 2792 H 253.344 0.585981 1.85673 0
M  V30 2793 H 251.515 -1.10801 3.7226 0
M  V30 2794 H 253.247 -0.970999 3.92879 0
M  V30 2795 H 250.002 0.916311 4.64651 0
M  V30 2796 H 250.426 3.17242 5.98069 0
M  V30 2797 H 255.068 0.942081 4.12171 0
M  V30 2798 H 252.786 4.62077 6.62956 0
M  V30 2799 H 256.372 2.8031 5.09821 0
M  V30 2800 H 255.252 4.61821 6.33791 0
M  V30 2801 N 252.755 -1.56801 0.158532 0
M  V30 2802 C 253.685 -2.20347 -0.772609 0
M  V30 2803 C 254.666 -1.15518 -1.24859 0
M  V30 2804 O 255.851 -1.43902 -1.30406 0
M  V30 2805 C 252.981 -2.83417 -2.00729 0
M  V30 2806 C 251.935 -3.94174 -1.66765 0
M  V30 2807 C 251.261 -4.44233 -2.97592 0
M  V30 2808 C 252.561 -5.14392 -0.905447 0
M  V30 2809 H 254.255 -2.98413 -0.242959 0
M  V30 2810 H 251.801 -1.43537 -0.115419 0
M  V30 2811 H 253.754 -3.26543 -2.6636 0
M  V30 2812 H 252.478 -2.02701 -2.56086 0
M  V30 2813 H 251.137 -3.51684 -1.03508 0
M  V30 2814 H 250.785 -3.60325 -3.50963 0
M  V30 2815 H 250.485 -5.18945 -2.75626 0
M  V30 2816 H 252.009 -4.90037 -3.64274 0
M  V30 2817 H 253.423 -5.5429 -1.46408 0
M  V30 2818 H 251.82 -5.9494 -0.7853 0
M  V30 2819 H 252.89 -4.84795 0.100668 0
M  V30 2820 N 254.233 0.115231 -1.57178 0
M  V30 2821 C 255.481 0.820727 -1.84685 0
M  V30 2822 C 255.802 1.80237 -0.744279 0
M  V30 2823 O 255.072 1.94529 0.231375 0
M  V30 2824 H 253.652 0.306084 -0.681411 0
M  V30 2825 H 256.314 0.101656 -1.94635 0
M  V30 2826 H 255.41 1.36366 -2.80733 0
M  V30 2827 N 255.711 1.52812 0.385517 0
M  V30 2828 C 256.936 1.72207 1.15583 0
M  V30 2829 C 257.361 0.441034 1.82857 0
M  V30 2830 O 256.719 -0.603465 1.70962 0
M  V30 2831 C 256.767 2.87476 2.17692 0
M  V30 2832 O 255.871 2.54693 3.24354 0
M  V30 2833 H 255.212 0.572526 0.336319 0
M  V30 2834 H 257.742 1.99618 0.448744 0
M  V30 2835 H 257.752 3.13072 2.6163 0
M  V30 2836 H 256.427 3.80408 1.68115 0
M  V30 2837 H 255.004 2.3985 2.85529 0
M  V30 2838 N 257.189 -0.644168 1.43834 0
M  V30 2839 C 258.437 -1.40117 1.45642 0
M  V30 2840 C 258.758 -1.94814 0.0852413 0
M  V30 2841 O 258.028 -1.74988 -0.880688 0
M  V30 2842 H 256.608 -0.52005 0.536243 0
M  V30 2843 H 259.27 -0.7591 1.7951 0
M  V30 2844 H 258.366 -2.23902 2.17427 0
M  V30 2845 N 258.668 -1.30515 -0.883378 0
M  V30 2846 C 259.908 -1.20716 -1.64946 0
M  V30 2847 C 260.272 0.234072 -1.90568 0
M  V30 2848 O 261.473 0.455335 -2.64915 0
M  V30 2849 C 259.744 -2.01444 -2.9522 0
M  V30 2850 S 261.303 -2.0836 -3.86175 0
M  V30 2851 H 258.121 -0.430165 -0.566109 0
M  V30 2852 H 260.723 -1.65011 -1.04841 0
M  V30 2853 H 259.427 -3.05268 -2.74298 0
M  V30 2854 H 258.958 -1.57817 -3.60357 0
M  V30 2855 H 260.973 -1.21215 -4.81167 0
M  V30 2856 N 260.146 1.09593 -1.13257 0
M  V30 2857 C 261.109 2.14359 -0.811358 0
M  V30 2858 C 262.109 1.59808 0.178377 0
M  V30 2859 O 263.299 1.74132 -0.0484911 0
M  V30 2860 C 260.431 3.40269 -0.207276 0
M  V30 2861 H 261.624 2.44284 -1.73969 0
M  V30 2862 H 259.177 1.25102 -0.936973 0
M  V30 2863 H 259.912 3.15969 0.73036 0
M  V30 2864 H 259.697 3.81154 -0.919992 0
M  V30 2865 H 261.187 4.176 0.000667944 0
M  V30 2866 N 261.624 0.925811 1.2754 0
M  V30 2867 C 262.554 0.440748 2.29303 0
M  V30 2868 C 263.535 -0.497971 1.62648 0
M  V30 2869 O 264.72 -0.403126 1.8997 0
M  V30 2870 C 261.85 -0.309048 3.45922 0
M  V30 2871 C 260.804 0.54166 4.24559 0
M  V30 2872 C 260.13 -0.337191 5.33636 0
M  V30 2873 C 261.43 1.80516 4.90114 0
M  V30 2874 H 263.124 1.29121 2.70126 0
M  V30 2875 H 260.67 0.622323 1.29858 0
M  V30 2876 H 262.623 -0.659315 4.1621 0
M  V30 2877 H 261.347 -1.19352 3.04011 0
M  V30 2878 H 260.006 0.874609 3.56014 0
M  V30 2879 H 259.654 -1.22056 4.87966 0
M  V30 2880 H 259.354 0.228497 5.87156 0
M  V30 2881 H 260.878 -0.683072 6.06767 0
M  V30 2882 H 262.292 1.52307 5.52698 0
M  V30 2883 H 260.689 2.3142 5.53683 0
M  V30 2884 H 261.759 2.52581 4.13921 0
M  V30 2885 N 263.102 -1.41638 0.69111 0
M  V30 2886 C 264.351 -2.00526 0.217318 0
M  V30 2887 C 264.664 -1.55353 -1.18848 0
M  V30 2888 O 265.87 -2.06769 -1.75951 0
M  V30 2889 C 264.326 -3.58313 0.337639 0
M  V30 2890 C 263.934 -4.12469 1.74852 0
M  V30 2891 C 265.678 -4.24431 -0.0766066 0
M  V30 2892 C 263.585 -5.62675 1.82074 0
M  V30 2893 H 262.515 -0.750008 0.0774893 0
M  V30 2894 H 265.166 -1.6217 0.858661 0
M  V30 2895 H 263.548 -3.9425 -0.371879 0
M  V30 2896 H 264.722 -3.8796 2.48644 0
M  V30 2897 H 263.037 -3.58861 2.11205 0
M  V30 2898 H 265.634 -5.34683 -0.0430284 0
M  V30 2899 H 265.977 -4.01101 -1.1146 0
M  V30 2900 H 266.51 -3.93512 0.582476 0
M  V30 2901 H 263.249 -5.90826 2.83911 0
M  V30 2902 H 262.769 -5.89124 1.12661 0
M  V30 2903 H 264.448 -6.27371 1.58159 0
M  V30 2904 N 264.58 -0.43555 -1.51462 0
M  V30 2905 C 265.51 0.367376 -2.30592 0
M  V30 2906 C 266.491 1.02263 -1.35928 0
M  V30 2907 O 267.676 1.02661 -1.64847 0
M  V30 2908 C 264.806 1.46983 -3.14664 0
M  V30 2909 C 263.76 0.938161 -4.17591 0
M  V30 2910 C 263.086 2.13622 -4.90173 0
M  V30 2911 C 264.386 -0.0261621 -5.22293 0
M  V30 2912 H 266.08 -0.292969 -2.97963 0
M  V30 2913 H 263.626 -0.14234 -1.43295 0
M  V30 2914 H 265.579 2.03873 -3.688 0
M  V30 2915 H 264.303 2.15843 -2.4511 0
M  V30 2916 H 262.962 0.391481 -3.64504 0
M  V30 2917 H 262.61 2.81098 -4.17124 0
M  V30 2918 H 262.31 1.78688 -5.59772 0
M  V30 2919 H 263.834 2.7107 -5.47132 0
M  V30 2920 H 265.248 0.452384 -5.71512 0
M  V30 2921 H 263.645 -0.287992 -5.99409 0
M  V30 2922 H 264.715 -0.963391 -4.75233 0
M  V30 2923 N 266.058 1.56714 -0.166846 0
M  V30 2924 C 267.021 2.16539 0.751232 0
M  V30 2925 C 268.021 1.11228 1.16125 0
M  V30 2926 O 269.211 1.36765 1.07894 0
M  V30 2927 C 266.343 2.74462 2.02196 0
M  V30 2928 H 267.536 2.99013 0.230499 0
M  V30 2929 H 265.089 1.56081 0.0826982 0
M  V30 2930 H 265.824 1.95709 2.58589 0
M  V30 2931 H 265.609 3.51527 1.73698 0
M  V30 2932 H 267.099 3.20489 2.67725 0
M  V30 2933 N 267.536 -0.106894 1.57237 0
M  V30 2934 C 268.782 -0.81373 1.85759 0
M  V30 2935 C 269.115 -1.78952 0.754315 0
M  V30 2936 O 268.39 -1.93029 -0.23879 0
M  V30 2937 C 268.673 -1.55293 3.24894 0
M  V30 2938 C 268.526 -0.595929 4.45835 0
M  V30 2939 C 269.845 -2.5063 3.61763 0
M  V30 2940 H 266.964 -0.294369 0.67566 0
M  V30 2941 H 269.606 -0.0776472 1.89841 0
M  V30 2942 H 267.756 -2.1804 3.21544 0
M  V30 2943 H 269.428 0.0236262 4.61294 0
M  V30 2944 H 267.671 0.0916191 4.33703 0
M  V30 2945 H 268.342 -1.15004 5.39887 0
M  V30 2946 H 270.818 -1.97982 3.65981 0
M  V30 2947 H 269.694 -2.99376 4.60071 0
M  V30 2948 H 269.955 -3.3385 2.89821 0
M  V30 2949 N 269.014 -1.53014 -0.377408 0
M  V30 2950 C 269.944 -1.81589 -1.46791 0
M  V30 2951 C 270.925 -0.668622 -1.56408 0
M  V30 2952 O 272.11 -0.917337 -1.71168 0
M  V30 2953 C 269.24 -1.99519 -2.8427 0
M  V30 2954 C 268.194 -3.15249 -2.89486 0
M  V30 2955 C 267.52 -3.18451 -4.29527 0
M  V30 2956 C 268.82 -4.54084 -2.58079 0
M  V30 2957 H 270.514 -2.7291 -1.23127 0
M  V30 2958 H 268.06 -1.31319 -0.590883 0
M  V30 2959 H 270.013 -2.18092 -3.60575 0
M  V30 2960 H 268.737 -1.04897 -3.09296 0
M  V30 2961 H 267.396 -2.96477 -2.15631 0
M  V30 2962 H 267.044 -2.2149 -4.5161 0
M  V30 2963 H 266.744 -3.962 -4.33934 0
M  V30 2964 H 268.268 -3.39193 -5.07721 0
M  V30 2965 H 269.682 -4.72899 -3.24098 0
M  V30 2966 H 268.079 -5.33987 -2.7382 0
M  V30 2967 H 269.149 -4.60006 -1.53372 0
M  V30 2968 N 270.492 0.636531 -1.44174 0
M  V30 2969 C 271.422 1.76003 -1.53444 0
M  V30 2970 C 272.403 1.65619 -0.387841 0
M  V30 2971 O 273.588 1.84461 -0.607257 0
M  V30 2972 C 270.718 3.14511 -1.4731 0
M  V30 2973 C 269.672 3.39677 -2.60391 0
M  V30 2974 C 268.998 4.78159 -2.39308 0
M  V30 2975 C 270.298 3.32772 -4.02567 0
M  V30 2976 H 271.992 1.68501 -2.47483 0
M  V30 2977 H 269.538 0.809237 -1.19111 0
M  V30 2978 H 271.491 3.92878 -1.52397 0
M  V30 2979 H 270.215 3.22783 -0.49785 0
M  V30 2980 H 268.874 2.63688 -2.54684 0
M  V30 2981 H 268.522 4.83128 -1.39988 0
M  V30 2982 H 268.222 4.95956 -3.15122 0
M  V30 2983 H 269.746 5.58762 -2.46205 0
M  V30 2984 H 271.16 4.01051 -4.09672 0
M  V30 2985 H 269.557 3.62104 -4.7854 0
M  V30 2986 H 270.627 2.30669 -4.2652 0
M  V30 2987 N 271.97 1.30982 0.876444 0
M  V30 2988 C 273.217 1.20296 1.62896 0
M  V30 2989 C 273.545 -0.240395 1.93009 0
M  V30 2990 O 272.8 -1.18733 1.55567 0
M  V30 2991 C 273.099 1.98572 2.9716 0
M  V30 2992 C 272.765 3.48125 2.86566 0
M  V30 2993 C 271.427 3.88905 2.83383 0
M  V30 2994 C 273.779 4.43322 2.74071 0
M  V30 2995 C 271.107 5.2316 2.65556 0
M  V30 2996 C 273.459 5.77695 2.57781 0
M  V30 2997 C 272.123 6.17704 2.52979 0
M  V30 2998 H 271.393 0.440193 0.59608 0
M  V30 2999 H 274.04 1.62177 1.01837 0
M  V30 3000 H 272.345 1.49352 3.62217 0
M  V30 3001 H 274.042 1.8769 3.54364 0
M  V30 3002 H 270.632 3.15723 2.89856 0
M  V30 3003 H 274.816 4.12752 2.75589 0
M  V30 3004 H 270.072 5.53241 2.60259 0
M  V30 3005 H 274.246 6.51091 2.47089 0
M  V30 3006 H 271.873 7.21678 2.38924 0
M  V30 3007 N 273.449 -1.08991 1.13837 0
M  V30 3008 C 274.696 -1.81258 0.902882 0
M  V30 3009 C 275.024 -1.85936 -0.570803 0
M  V30 3010 O 274.279 -1.3267 -1.43865 0
M  V30 3011 C 274.578 -3.27042 1.44147 0
M  V30 3012 C 274.244 -3.4249 2.93276 0
M  V30 3013 C 272.906 -3.46414 3.33992 0
M  V30 3014 C 275.258 -3.4666 3.892 0
M  V30 3015 C 272.586 -3.52091 4.69307 0
M  V30 3016 C 274.938 -3.53872 5.24364 0
M  V30 3017 C 273.602 -3.56066 5.646 0
M  V30 3018 H 272.872 -0.663268 0.330388 0
M  V30 3019 H 275.519 -1.28368 1.42105 0
M  V30 3020 H 273.824 -3.82599 0.844097 0
M  V30 3021 H 275.521 -3.81499 1.23528 0
M  V30 3022 H 272.111 -3.40124 2.60794 0
M  V30 3023 H 276.295 -3.42865 3.58828 0
M  V30 3024 H 271.551 -3.52079 4.9985 0
M  V30 3025 H 275.725 -3.56043 5.98503 0
M  V30 3026 H 273.352 -3.60218 6.69438 0
M  V30 3027 N 274.927 -0.932562 -1.27047 0
M  V30 3028 C 275.89 -0.440064 -2.24936 0
M  V30 3029 C 276.89 0.444071 -1.54547 0
M  V30 3030 O 278.08 0.244465 -1.72476 0
M  V30 3031 C 275.212 0.36678 -3.38921 0
M  V30 3032 H 276.405 -1.305 -2.70018 0
M  V30 3033 H 273.958 -0.713707 -1.39054 0
M  V30 3034 H 274.693 1.25033 -2.99228 0
M  V30 3035 H 274.478 -0.267204 -3.91188 0
M  V30 3036 H 275.968 0.701567 -4.11665 0
M  V30 3037 N 276.405 1.4127 -0.698611 0
M  V30 3038 C 277.352 2.30773 -0.0352094 0
M  V30 3039 C 278.322 1.47273 0.768111 0
M  V30 3040 O 279.507 1.76053 0.735524 0
M  V30 3041 C 276.647 3.33346 0.893 0
M  V30 3042 C 275.76 4.31924 0.0809695 0
M  V30 3043 C 274.895 5.21566 1.0071 0
M  V30 3044 C 273.934 6.11811 0.188155 0
M  V30 3045 N 273.071 6.93926 1.06825 0
M  V30 3046 H 277.911 2.86943 -0.804207 0
M  V30 3047 H 275.448 1.4132 -0.408294 0
M  V30 3048 H 277.406 3.91368 1.44523 0
M  V30 3049 H 276.036 2.78719 1.62836 0
M  V30 3050 H 275.088 3.75825 -0.588224 0
M  V30 3051 H 276.4 4.95716 -0.553801 0
M  V30 3052 H 275.554 5.84437 1.62845 0
M  V30 3053 H 274.293 4.58008 1.67572 0
M  V30 3054 H 273.298 5.47986 -0.446254 0
M  V30 3055 H 274.523 6.77425 -0.476716 0
M  V30 3056 H 272.469 6.32973 1.72283 0
M  V30 3057 H 272.386 7.54416 0.489123 0
M  V30 3058 H 273.654 7.61262 1.67632 0
M  V30 3059 N 277.883 0.443576 1.51229 0
M  V30 3060 C 279.111 -0.11929 2.06556 0
M  V30 3061 C 279.526 -1.35921 1.31038 0
M  V30 3062 O 278.883 -1.78675 0.371704 0
M  V30 3063 C 278.934 -0.435228 3.5887 0
M  V30 3064 O 278.655 0.755486 4.31537 0
M  V30 3065 C 280.156 -1.04808 4.30732 0
M  V30 3066 H 277.376 -0.0051584 0.67098 0
M  V30 3067 H 279.92 0.624453 1.94733 0
M  V30 3068 H 278.075 -1.12887 3.70588 0
M  V30 3069 H 278.489 0.483491 5.22267 0
M  V30 3070 H 279.963 -1.2191 5.3837 0
M  V30 3071 H 280.44 -2.03081 3.89429 0
M  V30 3072 H 281.046 -0.393637 4.23474 0
M  V30 3073 N 279.361 -1.56624 0.175154 0
M  V30 3074 C 280.638 -1.88688 -0.515373 0
M  V30 3075 C 281.018 -1.08564 -1.81044 0
M  V30 3076 O 280.366 -0.180703 -2.27784 0
M  V30 3077 C 280.576 -3.40768 -0.753552 0
M  V30 3078 C 281.924 -4.10587 -1.08184 0
M  V30 3079 O 282.948 -3.46106 -0.841961 0
M  V30 3080 O 281.807 -5.24512 -1.53459 0
M  V30 3081 H 278.901 -0.78301 -0.26613 0
M  V30 3082 H 281.447 -1.68347 0.213877 0
M  V30 3083 H 280.219 -3.90965 0.161829 0
M  V30 3084 H 279.842 -3.66733 -1.53598 0
M  V30 3085 N 280.839 0.0985539 -1.57292 0
M  V30 3086 C 281.802 1.10402 -2.00858 0
M  V30 3087 C 282.802 1.33146 -0.901593 0
M  V30 3088 O 283.992 1.29318 -1.16716 0
M  V30 3089 C 281.124 2.45394 -2.36632 0
M  V30 3090 H 282.317 0.729099 -2.90902 0
M  V30 3091 H 279.87 0.343495 -1.52479 0
M  V30 3092 H 280.605 2.87769 -1.49531 0
M  V30 3093 H 280.39 2.30235 -3.17387 0
M  V30 3094 H 281.88 3.17718 -2.71007 0
M  V30 3095 N 282.317 1.53212 0.369288 0
M  V30 3096 C 283.728 1.60943 0.946276 0
M  V30 3097 C 284.079 0.47452 1.90375 0
M  V30 3098 O 283.204 -0.399597 2.12679 0
M  V30 3099 C 283.799 2.91715 1.72302 0
M  V30 3100 C 282.358 3.01792 2.24941 0
M  V30 3101 C 281.505 2.56211 1.06072 0
M  V30 3102 H 284.456 1.58007 0.148198 0
M  V30 3103 H 284.477 2.79309 2.58393 0
M  V30 3104 H 283.989 3.74295 1.0259 0
M  V30 3105 H 282.09 2.23791 2.97906 0
M  V30 3106 H 282.203 4.06803 2.53077 0
M  V30 3107 H 280.567 2.10998 1.4266 0
M  V30 3108 H 281.35 3.41206 0.378639 0
M  V30 3109 N 283.795 -0.628877 1.44509 0
M  V30 3110 C 285.02 -1.42048 1.5112 0
M  V30 3111 C 285.445 -1.87594 0.137818 0
M  V30 3112 O 284.803 -1.58873 -0.873437 0
M  V30 3113 C 284.851 -2.61541 2.48251 0
M  V30 3114 O 283.955 -3.61453 1.98559 0
M  V30 3115 H 283.296 -0.424942 0.510216 0
M  V30 3116 H 285.826 -0.767374 1.89664 0
M  V30 3117 H 285.836 -3.09057 2.66361 0
M  V30 3118 H 284.511 -2.27736 3.48007 0
M  V30 3119 H 283.088 -3.20731 1.90227 0
M  V30 3120 N 285.273 -1.31445 -0.869486 0
M  V30 3121 C 286.498 -1.24256 -1.66058 0
M  V30 3122 C 286.923 0.188928 -1.87149 0
M  V30 3123 O 286.281 1.13522 -1.4136 0
M  V30 3124 C 286.329 -1.9924 -3.00559 0
M  V30 3125 O 285.433 -1.33007 -3.90362 0
M  V30 3126 H 284.774 -0.428973 -0.506831 0
M  V30 3127 H 287.304 -1.73521 -1.08404 0
M  V30 3128 H 287.314 -2.08854 -3.50491 0
M  V30 3129 H 285.989 -3.03342 -2.84528 0
M  V30 3130 H 284.566 -1.31848 -3.48813 0
M  V30 3131 N 286.751 1.08385 -1.14413 0
M  V30 3132 C 287.714 2.13486 -0.834048 0
M  V30 3133 C 288.714 1.59988 0.161418 0
M  V30 3134 O 289.904 1.74071 -0.0669575 0
M  V30 3135 C 287.036 3.4003 -0.243354 0
M  V30 3136 H 288.229 2.42425 -1.7655 0
M  V30 3137 H 285.782 1.24101 -0.950189 0
M  V30 3138 H 286.517 3.16726 0.696807 0
M  V30 3139 H 286.302 3.80157 -0.960367 0
M  V30 3140 H 287.792 4.17577 -0.0436242 0
M  V30 3141 N 288.23 0.939286 1.26551 0
M  V30 3142 C 289.458 0.602536 1.97932 0
M  V30 3143 C 289.873 -0.82206 1.69964 0
M  V30 3144 O 289.23 -1.54789 0.966784 0
M  V30 3145 C 289.281 0.832946 3.51773 0
M  V30 3146 O 289.002 2.20151 3.78768 0
M  V30 3147 C 290.503 0.506483 4.40397 0
M  V30 3148 H 287.723 0.227248 0.631347 0
M  V30 3149 H 290.267 1.25948 1.61113 0
M  V30 3150 H 288.422 0.222644 3.8676 0
M  V30 3151 H 288.836 2.26013 4.73306 0
M  V30 3152 H 290.31 0.718333 5.47306 0
M  V30 3153 H 290.787 -0.558451 4.35635 0
M  V30 3154 H 291.393 1.09543 4.10951 0
M  V30 3155 N 289.708 -1.40897 0.706093 0
M  V30 3156 C 290.954 -2.01352 0.241889 0
M  V30 3157 C 291.287 -1.55832 -1.15888 0
M  V30 3158 O 290.562 -0.774145 -1.7843 0
M  V30 3159 C 290.845 -3.58752 0.311311 0
M  V30 3160 C 290.698 -4.1437 1.74978 0
M  V30 3161 C 292.017 -4.38914 -0.322922 0
M  V30 3162 H 289.136 -0.731562 0.0893687 0
M  V30 3163 H 291.778 -1.67504 0.896802 0
M  V30 3164 H 289.928 -3.87718 -0.246302 0
M  V30 3165 H 291.6 -3.96239 2.36205 0
M  V30 3166 H 289.843 -3.69016 2.28057 0
M  V30 3167 H 290.514 -5.23532 1.74981 0
M  V30 3168 H 292.99 -4.15822 0.152089 0
M  V30 3169 H 291.866 -5.48358 -0.243855 0
M  V30 3170 H 292.127 -4.19176 -1.40513 0
M  V30 3171 N 291.186 -0.45159 -1.50991 0
M  V30 3172 C 292.149 0.341117 -2.26647 0
M  V30 3173 C 293.149 0.937422 -1.30649 0
M  V30 3174 O 294.339 0.809644 -1.54241 0
M  V30 3175 C 291.471 1.48398 -3.06905 0
M  V30 3176 H 292.664 -0.322117 -2.98165 0
M  V30 3177 H 290.217 -0.205122 -1.54948 0
M  V30 3178 H 290.952 2.18284 -2.39838 0
M  V30 3179 H 290.737 1.06241 -3.77432 0
M  V30 3180 H 292.227 2.04367 -3.64176 0
M  V30 3181 N 292.664 1.56529 -0.183458 0
M  V30 3182 C 293.612 2.19873 0.758845 0
M  V30 3183 C 294.606 1.16638 1.22849 0
M  V30 3184 O 295.812 1.3481 1.19274 0
M  V30 3185 H 292.187 0.7045 0.263029 0
M  V30 3186 H 294.158 2.97724 0.200755 0
M  V30 3187 C 292.907 2.86314 1.9728 0
M  V30 3188 H 292.23 3.65487 1.62047 0
M  V30 3189 H 293.67 3.3409 2.61075 0
M  V30 3190 C 292.129 1.86729 2.80418 0
M  V30 3191 O 292.659 1.36031 3.77966 0
M  V30 3192 N 290.865 1.55216 2.45675 0
M  V30 3193 H 290.412 1.96636 1.66409 0
M  V30 3194 H 290.37 0.888388 3.01588 0
M  V30 3195 N 294.142 -0.090211 1.57342 0
M  V30 3196 C 295.105 -1.09335 2.01441 0
M  V30 3197 C 296.105 -1.32666 0.908641 0
M  V30 3198 O 297.295 -1.28697 1.174 0
M  V30 3199 C 294.427 -2.44136 2.3793 0
M  V30 3200 H 295.62 -0.713662 2.91285 0
M  V30 3201 H 293.173 -0.335404 1.52659 0
M  V30 3202 H 293.908 -2.86972 1.51055 0
M  V30 3203 H 293.693 -2.28548 3.18603 0
M  V30 3204 H 295.183 -3.16277 2.72688 0
M  V30 3205 N 295.62 -1.53406 -0.361157 0
M  V30 3206 C 296.866 -1.70054 -1.10496 0
M  V30 3207 C 297.199 -0.453278 -1.88836 0
M  V30 3208 O 296.474 0.5495 -1.86576 0
M  V30 3209 C 296.757 -2.95317 -2.06058 0
M  V30 3210 C 296.61 -4.3021 -1.31298 0
M  V30 3211 C 297.929 -3.16193 -3.06121 0
M  V30 3212 H 295.048 -0.618799 -0.400321 0
M  V30 3213 H 297.69 -1.86052 -0.385318 0
M  V30 3214 H 295.84 -2.81809 -2.67425 0
M  V30 3215 H 297.512 -4.55538 -0.726807 0
M  V30 3216 H 295.755 -4.29421 -0.614853 0
M  V30 3217 H 296.426 -5.14 -2.01265 0
M  V30 3218 H 298.902 -3.28916 -2.5486 0
M  V30 3219 H 297.778 -4.05266 -3.70204 0
M  V30 3220 H 298.039 -2.31676 -3.76535 0
M  V30 3221 N 297.098 0.621204 -1.44841 0
M  V30 3222 C 298.346 1.37783 -1.47852 0
M  V30 3223 C 298.667 1.94653 -0.116224 0
M  V30 3224 O 297.937 1.76367 0.852737 0
M  V30 3225 H 296.517 0.511453 -0.544449 0
M  V30 3226 H 299.179 0.730446 -1.80694 0
M  V30 3227 H 298.275 2.20414 -2.20961 0
M  V30 3228 N 298.576 1.31904 0.862503 0
M  V30 3229 C 299.539 1.20131 1.95195 0
M  V30 3230 C 300.539 0.126409 1.60302 0
M  V30 3231 O 301.729 0.376234 1.70089 0
M  V30 3232 C 298.861 0.845691 3.30244 0
M  V30 3233 H 300.054 2.16943 2.07064 0
M  V30 3234 H 297.607 1.15622 1.05172 0
M  V30 3235 H 298.342 -0.120957 3.24074 0
M  V30 3236 H 298.127 1.62276 3.56944 0
M  V30 3237 H 299.617 0.787418 4.10109 0
M  V30 3238 N 300.054 -1.07777 1.14986 0
M  V30 3239 C 301.002 -2.16964 0.838406 0
M  V30 3240 C 301.996 -1.68372 -0.186386 0
M  V30 3241 O 303.202 -1.79951 -0.0418465 0
M  V30 3242 H 299.577 -0.708006 0.253439 0
M  V30 3243 H 301.548 -2.40454 1.76704 0
M  V30 3244 C 300.297 -3.4604 0.339335 0
M  V30 3245 H 299.62 -3.83813 1.11927 0
M  V30 3246 H 301.06 -4.23698 0.160021 0
M  V30 3247 C 299.519 -3.23569 -0.938325 0
M  V30 3248 O 300.049 -3.47752 -2.01077 0
M  V30 3249 N 298.255 -2.77079 -0.876117 0
M  V30 3250 H 297.802 -2.576 -0.00322037 0
M  V30 3251 H 297.76 -2.62422 -1.73153 0
M  V30 3252 N 301.532 -0.945985 -1.26051 0
M  V30 3253 C 302.482 -0.430164 -2.23905 0
M  V30 3254 C 303.466 0.47579 -1.53704 0
M  V30 3255 O 304.658 0.310252 -1.7426 0
M  V30 3256 C 301.787 0.298957 -3.41996 0
M  V30 3257 C 300.873 -0.624566 -4.19476 0
M  V30 3258 N 301.264 -1.75245 -4.74471 0
M  V30 3259 C 299.562 -0.431082 -4.43912 0
M  V30 3260 C 300.263 -2.32834 -5.3307 0
M  V30 3261 N 299.239 -1.61583 -5.1903 0
M  V30 3262 H 303.041 -1.29107 -2.64024 0
M  V30 3263 H 300.555 -0.802428 -1.41191 0
M  V30 3264 H 302.552 0.685565 -4.11225 0
M  V30 3265 H 301.212 1.15657 -3.03403 0
M  V30 3266 H 302.223 -2.13449 -4.71868 0
M  V30 3267 H 298.9 0.384364 -4.15727 0
M  V30 3268 H 300.29 -3.27893 -5.86461 0
M  V30 3269 N 303.011 1.40521 -0.713556 0
M  V30 3270 C 304.236 2.05759 -0.26035 0
M  V30 3271 C 304.661 1.53403 1.08854 0
M  V30 3272 O 304.019 0.668535 1.68524 0
M  V30 3273 C 304.067 3.59745 -0.248122 0
M  V30 3274 O 303.171 4.05123 0.77131 0
M  V30 3275 H 302.512 0.652564 -0.122703 0
M  V30 3276 H 305.042 1.79958 -0.973467 0
M  V30 3277 H 305.052 4.07911 -0.0851129 0
M  V30 3278 H 303.727 3.97218 -1.2325 0
M  V30 3279 H 302.304 3.68422 0.57619 0
M  V30 3280 N 304.489 0.459591 1.5075 0
M  V30 3281 C 305.452 -0.329093 2.26825 0
M  V30 3282 C 306.452 -0.930481 1.31144 0
M  V30 3283 O 307.642 -0.801453 1.54669 0
M  V30 3284 C 304.774 -1.46768 3.07688 0
M  V30 3285 H 305.967 0.337924 2.9799 0
M  V30 3286 H 303.52 0.213336 1.54837 0
M  V30 3287 H 304.255 -2.17009 2.40993 0
M  V30 3288 H 304.04 -1.04238 3.77991 0
M  V30 3289 H 305.53 -2.02433 3.65254 0
M  V30 3290 N 305.967 -1.56429 0.191757 0
M  V30 3291 C 307.214 -1.97485 -0.447891 0
M  V30 3292 C 307.542 -1.07852 -1.61859 0
M  V30 3293 O 306.797 -0.116903 -1.95351 0
M  V30 3294 C 307.096 -3.44449 -0.953384 0
M  V30 3295 C 306.762 -4.50781 0.103586 0
M  V30 3296 C 305.424 -4.79584 0.394023 0
M  V30 3297 C 307.776 -5.1471 0.819946 0
M  V30 3298 C 305.104 -5.69607 1.40585 0
M  V30 3299 C 307.456 -6.05827 1.8209 0
M  V30 3300 C 306.12 -6.32987 2.11857 0
M  V30 3301 H 305.39 -0.722648 -0.163895 0
M  V30 3302 H 308.037 -1.89322 0.28802 0
M  V30 3303 H 306.342 -3.49666 -1.76751 0
M  V30 3304 H 308.039 -3.73569 -1.45765 0
M  V30 3305 H 304.629 -4.28394 -0.132951 0
M  V30 3306 H 308.813 -4.92552 0.608789 0
M  V30 3307 H 304.069 -5.88926 1.64243 0
M  V30 3308 H 308.243 -6.54424 2.38123 0
M  V30 3309 H 305.87 -7.02544 2.90407 0
M  V30 3310 N 307.445 0.0818655 -1.57387 0
M  V30 3311 C 308.67 0.799946 -1.91352 0
M  V30 3312 C 309.095 1.70833 -0.787258 0
M  V30 3313 O 308.453 1.79419 0.26048 0
M  V30 3314 C 308.501 1.57812 -3.24234 0
M  V30 3315 O 307.605 2.68806 -3.12757 0
M  V30 3316 H 306.946 0.21891 -0.626877 0
M  V30 3317 H 309.476 0.0531256 -2.04531 0
M  V30 3318 H 309.486 1.95952 -3.57864 0
M  V30 3319 H 308.161 0.911548 -4.05788 0
M  V30 3320 H 306.738 2.33597 -2.90666 0
M  V30 3321 N 308.923 1.53595 0.353017 0
M  V30 3322 C 309.853 1.83902 1.43883 0
M  V30 3323 C 310.834 0.693421 1.55324 0
M  V30 3324 O 312.019 0.944452 1.69687 0
M  V30 3325 C 309.149 2.04016 2.8106 0
M  V30 3326 C 308.103 3.19814 2.84434 0
M  V30 3327 C 307.429 3.25244 4.24406 0
M  V30 3328 C 308.729 4.58133 2.50822 0
M  V30 3329 H 310.423 2.74835 1.1877 0
M  V30 3330 H 307.969 1.32242 0.569917 0
M  V30 3331 H 309.922 2.238 3.57059 0
M  V30 3332 H 308.646 1.09804 3.07588 0
M  V30 3333 H 307.305 2.9987 2.10887 0
M  V30 3334 H 306.953 2.28646 4.48029 0
M  V30 3335 H 306.653 4.03054 4.27576 0
M  V30 3336 H 308.177 3.47228 5.0226 0
M  V30 3337 H 309.591 4.77995 3.16534 0
M  V30 3338 H 307.988 5.38276 2.6529 0
M  V30 3339 H 309.058 4.62387 1.46034 0
M  V30 3340 N 310.401 -0.613514 1.45168 0
M  V30 3341 C 311.348 -1.72456 1.53387 0
M  V30 3342 C 312.318 -1.6169 0.380191 0
M  V30 3343 O 313.503 -1.81356 0.592836 0
M  V30 3344 C 310.643 -3.10753 1.50088 0
M  V30 3345 C 309.756 -3.32368 2.75963 0
M  V30 3346 C 308.891 -4.60737 2.64376 0
M  V30 3347 C 307.93 -4.7559 3.85332 0
M  V30 3348 N 307.067 -5.95253 3.72315 0
M  V30 3349 H 311.907 -1.64768 2.48305 0
M  V30 3350 H 309.444 -0.803503 1.23216 0
M  V30 3351 H 311.402 -3.90758 1.46164 0
M  V30 3352 H 310.032 -3.17413 0.587243 0
M  V30 3353 H 309.084 -2.4618 2.89999 0
M  V30 3354 H 310.396 -3.39218 3.65695 0
M  V30 3355 H 309.55 -5.48928 2.58385 0
M  V30 3356 H 308.289 -4.56275 1.72233 0
M  V30 3357 H 307.294 -3.85824 3.91688 0
M  V30 3358 H 308.519 -4.81854 4.78533 0
M  V30 3359 H 306.465 -5.91847 2.82937 0
M  V30 3360 H 306.382 -6.03236 4.55677 0
M  V30 3361 H 307.65 -6.85958 3.70246 0
M  V30 3362 N 311.879 -1.3236 -0.855495 0
M  V30 3363 C 312.809 -1.23833 -1.97958 0
M  V30 3364 C 313.79 -0.122361 -1.69659 0
M  V30 3365 O 314.975 -0.30939 -1.9172 0
M  V30 3366 C 312.105 -0.959772 -3.33775 0
M  V30 3367 C 311.059 -2.03689 -3.76424 0
M  V30 3368 C 310.385 -1.61075 -5.09862 0
M  V30 3369 C 311.685 -3.4518 -3.9198 0
M  V30 3370 H 313.379 -2.1788 -2.0535 0
M  V30 3371 H 310.925 -1.04891 -0.986605 0
M  V30 3372 H 312.878 -0.886678 -4.11966 0
M  V30 3373 H 311.602 0.0163404 -3.26596 0
M  V30 3374 H 310.261 -2.10012 -3.00484 0
M  V30 3375 H 309.909 -0.622107 -4.99138 0
M  V30 3376 H 309.609 -2.33143 -5.39368 0
M  V30 3377 H 311.133 -1.55201 -5.90546 0
M  V30 3378 H 312.547 -3.4145 -4.60526 0
M  V30 3379 H 310.944 -4.1559 -4.32903 0
M  V30 3380 H 312.014 -3.84903 -2.94919 0
M  V30 3381 N 313.357 1.07166 -1.15556 0
M  V30 3382 C 314.32 2.12589 -0.856644 0
M  V30 3383 C 315.32 1.6015 0.14444 0
M  V30 3384 O 316.51 1.7399 -0.0854163 0
M  V30 3385 C 313.642 3.39753 -0.279405 0
M  V30 3386 H 314.835 2.40539 -1.79112 0
M  V30 3387 H 312.388 1.23086 -0.963298 0
M  V30 3388 H 313.123 3.17447 0.663174 0
M  V30 3389 H 312.908 3.79117 -1.00063 0
M  V30 3390 H 314.398 4.17507 -0.0879113 0
M  V30 3391 N 314.835 0.952656 1.25548 0
M  V30 3392 C 315.765 0.489287 2.28316 0
M  V30 3393 C 316.746 -0.463359 1.63667 0
M  V30 3394 O 317.931 -0.36274 1.90782 0
M  V30 3395 C 315.061 -0.235603 3.465 0
M  V30 3396 C 314.015 0.631593 4.23314 0
M  V30 3397 C 313.341 -0.223923 5.34231 0
M  V30 3398 C 314.641 1.90871 4.86174 0
M  V30 3399 H 316.335 1.34822 2.67326 0
M  V30 3400 H 313.881 0.649728 1.28509 0
M  V30 3401 H 315.834 -0.570882 4.17515 0
M  V30 3402 H 314.558 -1.12877 3.06474 0
M  V30 3403 H 313.217 0.949929 3.54079 0
M  V30 3404 H 312.865 -1.11678 4.90446 0
M  V30 3405 H 312.565 0.35299 5.86539 0
M  V30 3406 H 314.089 -0.554214 6.0808 0
M  V30 3407 H 315.503 1.63997 5.49343 0
M  V30 3408 H 313.9 2.43112 5.4865 0
M  V30 3409 H 314.97 2.61304 4.08471 0
M  V30 3410 N 316.313 -1.40141 0.720998 0
M  V30 3411 C 317.223 -2.34486 0.0731031 0
M  V30 3412 C 318.239 -1.57587 -0.737723 0
M  V30 3413 O 319.415 -1.89949 -0.669429 0
M  V30 3414 C 316.48 -3.36528 -0.833656 0
M  V30 3415 C 315.541 -4.29298 -0.0121673 0
M  V30 3416 C 314.774 -5.26466 -0.875742 0
M  V30 3417 O 314.997 -5.29745 -2.11485 0
M  V30 3418 O 313.931 -6.01092 -0.31185 0
M  V30 3419 H 317.757 -2.9152 0.851444 0
M  V30 3420 H 315.342 -1.41427 0.481527 0
M  V30 3421 H 317.224 -3.99093 -1.35289 0
M  V30 3422 H 315.899 -2.81899 -1.59105 0
M  V30 3423 H 314.806 -3.70001 0.552262 0
M  V30 3424 H 316.139 -4.87094 0.707129 0
M  V30 3425 N 317.792 -0.46758 -1.50504 0
M  V30 3426 C 318.722 0.318381 -2.31319 0
M  V30 3427 C 319.703 0.993564 -1.38066 0
M  V30 3428 O 320.888 0.991411 -1.66987 0
M  V30 3429 C 318.018 1.40275 -3.17711 0
M  V30 3430 C 316.972 0.849373 -4.19487 0
M  V30 3431 C 316.298 2.03177 -4.94594 0
M  V30 3432 C 317.598 -0.136942 -5.2212 0
M  V30 3433 H 319.292 -0.356106 -2.97275 0
M  V30 3434 H 316.838 -0.172703 -1.42961 0
M  V30 3435 H 318.791 1.96004 -3.73042 0
M  V30 3436 H 317.515 2.10596 -2.49634 0
M  V30 3437 H 316.174 0.314076 -3.65252 0
M  V30 3438 H 315.822 2.72187 -4.22993 0
M  V30 3439 H 315.522 1.66774 -5.63436 0
M  V30 3440 H 317.046 2.59403 -5.52759 0
M  V30 3441 H 318.46 0.331056 -5.72343 0
M  V30 3442 H 316.857 -0.41507 -5.98663 0
M  V30 3443 H 317.927 -1.06398 -4.73083 0
M  V30 3444 N 319.27 1.56325 -0.20005 0
M  V30 3445 C 320.517 1.97719 0.437411 0
M  V30 3446 C 320.845 1.08709 1.61284 0
M  V30 3447 O 320.1 0.127261 1.95286 0
M  V30 3448 C 320.399 3.4495 0.935103 0
M  V30 3449 C 320.065 4.5072 -0.12749 0
M  V30 3450 C 318.727 4.79368 -0.419451 0
M  V30 3451 C 321.079 5.14268 -0.847231 0
M  V30 3452 C 318.407 5.68854 -1.43604 0
M  V30 3453 C 320.759 6.04852 -1.85301 0
M  V30 3454 C 319.423 6.31855 -2.15211 0
M  V30 3455 H 318.693 0.723507 0.16006 0
M  V30 3456 H 321.34 1.89166 -0.298056 0
M  V30 3457 H 319.645 3.50599 1.74894 0
M  V30 3458 H 321.342 3.74337 1.43781 0
M  V30 3459 H 317.932 4.28458 0.11023 0
M  V30 3460 H 322.116 4.92222 -0.634901 0
M  V30 3461 H 317.372 5.88047 -1.67364 0
M  V30 3462 H 321.546 6.53152 -2.41591 0
M  V30 3463 H 319.173 7.00994 -2.94129 0
M  V30 3464 N 320.748 -0.0735177 1.57428 0
M  V30 3465 C 322.164 -0.428264 1.53747 0
M  V30 3466 C 322.364 -1.79272 0.91998 0
M  V30 3467 O 321.42 -2.47051 0.521745 0
M  V30 3468 C 322.733 -0.370914 2.98404 0
M  V30 3469 C 324.281 -0.451224 3.0973 0
M  V30 3470 C 324.756 -0.4238 4.56035 0
M  V30 3471 N 326.247 -0.483925 4.60665 0
M  V30 3472 C 326.982 -0.484891 5.71346 0
M  V30 3473 N 326.478 -0.440775 6.91396 0
M  V30 3474 N 328.271 -0.531319 5.59583 0
M  V30 3475 H 320.422 0.819949 1.95935 0
M  V30 3476 H 322.685 0.307493 0.896745 0
M  V30 3477 H 322.391 0.564956 3.47133 0
M  V30 3478 H 322.265 -1.18176 3.5821 0
M  V30 3479 H 324.652 -1.37752 2.60976 0
M  V30 3480 H 324.733 0.388167 2.52838 0
M  V30 3481 H 324.377 0.498638 5.05446 0
M  V30 3482 H 324.307 -1.2807 5.10789 0
M  V30 3483 H 326.798 -0.522338 3.74273 0
M  V30 3484 H 327.111 -0.44539 7.71515 0
M  V30 3485 H 325.456 -0.40749 6.93804 0
M  V30 3486 H 328.647 -0.563464 4.64696 0
M  V30 3487 H 328.82 -0.528603 6.4584 0
M  V30 3488 N 322.226 -1.5378 -0.344866 0
M  V30 3489 C 323.158 -1.77988 -1.44406 0
M  V30 3490 C 324.171 -0.661138 -1.48771 0
M  V30 3491 O 325.36 -0.937842 -1.51877 0
M  V30 3492 C 322.46 -1.86345 -2.8307 0
M  V30 3493 C 321.633 -3.16256 -3.0216 0
M  V30 3494 C 320.692 -3.15588 -4.21059 0
M  V30 3495 O 319.718 -3.89314 -4.15239 0
M  V30 3496 N 320.92 -2.37864 -5.29529 0
M  V30 3497 H 323.685 -2.72839 -1.24012 0
M  V30 3498 H 321.246 -1.52814 -0.534737 0
M  V30 3499 H 323.238 -1.83351 -3.60783 0
M  V30 3500 H 321.808 -0.986858 -2.96614 0
M  V30 3501 H 321.028 -3.32385 -2.11929 0
M  V30 3502 H 322.316 -4.0207 -3.11797 0
M  V30 3503 H 321.714 -1.77514 -5.37127 0
M  V30 3504 H 320.271 -2.40668 -6.05741 0
M  V30 3505 N 323.704 0.605807 -1.45491 0
M  V30 3506 C 325.115 1.18777 -1.44045 0
M  V30 3507 C 325.466 1.95471 -0.169001 0
M  V30 3508 O 324.591 2.0374 0.729324 0
M  V30 3509 C 325.186 2.16064 -2.60963 0
M  V30 3510 C 323.745 2.69633 -2.62631 0
M  V30 3511 C 322.892 1.45072 -2.36325 0
M  V30 3512 H 325.843 0.395017 -1.53705 0
M  V30 3513 H 325.864 2.9913 -2.35163 0
M  V30 3514 H 325.376 1.60217 -3.53486 0
M  V30 3515 H 323.477 3.29414 -1.74119 0
M  V30 3516 H 323.59 3.13944 -3.61906 0
M  V30 3517 H 321.954 1.74089 -1.85917 0
M  V30 3518 H 322.737 0.910899 -3.30995 0
M  V30 3519 N 325.182 1.32811 0.848464 0
M  V30 3520 C 326.129 1.22265 1.95755 0
M  V30 3521 C 327.099 0.103413 1.65778 0
M  V30 3522 O 328.284 0.280033 1.88734 0
M  V30 3523 C 325.424 0.958014 3.31536 0
M  V30 3524 C 324.537 2.16262 3.73971 0
M  V30 3525 C 323.672 1.83295 4.98575 0
M  V30 3526 C 322.711 3.00041 5.33518 0
M  V30 3527 N 321.848 2.67125 6.49299 0
M  V30 3528 H 326.688 2.17128 2.04107 0
M  V30 3529 H 324.225 1.07982 0.998913 0
M  V30 3530 H 326.183 0.785052 4.09747 0
M  V30 3531 H 324.813 0.046159 3.22767 0
M  V30 3532 H 323.865 2.44565 2.91362 0
M  V30 3533 H 325.177 3.03572 3.95785 0
M  V30 3534 H 324.331 1.62586 5.84509 0
M  V30 3535 H 323.07 0.932078 4.7871 0
M  V30 3536 H 322.075 3.21374 4.46093 0
M  V30 3537 H 323.3 3.90869 5.55336 0
M  V30 3538 H 321.246 1.79586 6.3094 0
M  V30 3539 H 321.163 3.47965 6.71161 0
M  V30 3540 H 322.431 2.49861 7.3837 0
M  V30 3541 N 326.66 -1.06551 1.16123 0
M  V30 3542 C 327.59 -2.15935 0.88851 0
M  V30 3543 C 328.571 -1.69306 -0.164135 0
M  V30 3544 O 329.756 -1.94193 -0.0167857 0
M  V30 3545 C 326.886 -3.45149 0.385942 0
M  V30 3546 C 325.84 -4.05271 1.3762 0
M  V30 3547 C 325.166 -5.29664 0.732137 0
M  V30 3548 C 326.466 -4.44355 2.74493 0
M  V30 3549 H 328.16 -2.39006 1.80323 0
M  V30 3550 H 325.706 -1.14866 0.868435 0
M  V30 3551 H 327.659 -4.21004 0.182647 0
M  V30 3552 H 326.383 -3.21689 -0.564274 0
M  V30 3553 H 325.042 -3.3147 1.56599 0
M  V30 3554 H 324.69 -5.02499 -0.224483 0
M  V30 3555 H 324.39 -5.70848 1.39307 0
M  V30 3556 H 325.914 -6.08218 0.538802 0
M  V30 3557 H 327.328 -5.11303 2.59311 0
M  V30 3558 H 325.725 -4.96515 3.37035 0
M  V30 3559 H 326.795 -3.55339 3.29943 0
M  V30 3560 N 328.138 -0.959301 -1.25041 0
M  V30 3561 C 329.384 -0.627096 -1.93492 0
M  V30 3562 C 329.739 0.827484 -1.73696 0
M  V30 3563 O 329.032 1.58651 -1.07427 0
M  V30 3564 C 329.226 -0.927136 -3.45165 0
M  V30 3565 C 329.055 -2.40933 -3.79712 0
M  V30 3566 C 327.825 -3.0677 -4.01522 0
M  V30 3567 C 330.023 -3.38894 -3.86853 0
M  V30 3568 N 328.005 -4.44815 -4.231 0
M  V30 3569 C 329.376 -4.62263 -4.13174 0
M  V30 3570 C 331.431 -3.33668 -3.69554 0
M  V30 3571 C 330.134 -5.81052 -4.23995 0
M  V30 3572 C 332.16 -4.518 -3.81616 0
M  V30 3573 C 331.522 -5.73957 -4.08354 0
M  V30 3574 H 327.621 -0.280166 -0.73009 0
M  V30 3575 H 330.205 -1.23244 -1.50729 0
M  V30 3576 H 328.376 -0.350685 -3.86814 0
M  V30 3577 H 330.108 -0.554361 -4.00885 0
M  V30 3578 H 326.863 -2.57327 -3.97593 0
M  V30 3579 H 327.287 -5.16319 -4.37885 0
M  V30 3580 H 331.929 -2.40268 -3.47895 0
M  V30 3581 H 329.647 -6.74888 -4.44468 0
M  V30 3582 H 333.233 -4.49309 -3.69612 0
M  V30 3583 H 332.113 -6.6384 -4.17475 0
M  V30 3584 N 329.616 1.39756 -0.72842 0
M  V30 3585 C 330.863 2.00645 -0.273487 0
M  V30 3586 C 331.191 1.57786 1.13727 0
M  V30 3587 O 330.446 0.794886 1.7883 0
M  V30 3588 C 330.745 3.56002 -0.315776 0
M  V30 3589 C 330.411 4.18489 -1.67863 0
M  V30 3590 C 329.073 4.3527 -2.05166 0
M  V30 3591 C 331.425 4.53219 -2.57375 0
M  V30 3592 C 328.753 4.84069 -3.31503 0
M  V30 3593 C 331.105 5.03423 -3.83077 0
M  V30 3594 C 329.769 5.18413 -4.20481 0
M  V30 3595 H 329.039 0.734211 -0.100076 0
M  V30 3596 H 331.686 1.6718 -0.933972 0
M  V30 3597 H 329.991 3.89452 0.428285 0
M  V30 3598 H 331.688 4.00963 0.0542575 0
M  V30 3599 H 328.278 4.05824 -1.37858 0
M  V30 3600 H 332.462 4.39878 -2.29827 0
M  V30 3601 H 327.718 4.93859 -3.60435 0
M  V30 3602 H 331.892 5.2927 -4.52599 0
M  V30 3603 H 329.519 5.55987 -5.18443 0
M  V30 3604 N 331.094 0.475555 1.50254 0
M  V30 3605 C 332.024 -0.30611 2.31485 0
M  V30 3606 C 333.005 -0.986228 1.38591 0
M  V30 3607 O 334.19 -0.982541 1.67511 0
M  V30 3608 C 331.32 -1.38588 3.1845 0
M  V30 3609 C 330.274 -0.827115 4.19932 0
M  V30 3610 C 329.6 -2.00551 4.95665 0
M  V30 3611 C 330.9 0.16463 5.2204 0
M  V30 3612 H 332.594 0.371866 2.97082 0
M  V30 3613 H 330.14 0.180282 1.42867 0
M  V30 3614 H 332.093 -1.94023 3.74076 0
M  V30 3615 H 330.817 -2.09269 2.50747 0
M  V30 3616 H 329.476 -0.294702 3.65414 0
M  V30 3617 H 329.124 -2.6994 4.2443 0
M  V30 3618 H 328.824 -1.63784 5.64313 0
M  V30 3619 H 330.348 -2.56468 5.54127 0
M  V30 3620 H 331.762 -0.300699 5.72511 0
M  V30 3621 H 330.159 0.446813 5.98434 0
M  V30 3622 H 331.229 1.08905 4.72512 0
M  V30 3623 N 332.573 -1.56217 0.208337 0
M  V30 3624 C 333.798 -2.02782 -0.435222 0
M  V30 3625 C 334.223 -1.08738 -1.53485 0
M  V30 3626 O 333.581 -0.0731855 -1.81152 0
M  V30 3627 C 333.629 -3.47687 -0.956335 0
M  V30 3628 O 332.733 -3.56773 -2.06849 0
M  V30 3629 H 332.074 -0.656403 -0.100158 0
M  V30 3630 H 334.604 -2.02033 0.3231 0
M  V30 3631 H 334.614 -3.87745 -1.26955 0
M  V30 3632 H 333.289 -4.15624 -0.15143 0
M  V30 3633 H 331.866 -3.28597 -1.76292 0
M  V30 3634 N 334.051 0.0651679 -1.57465 0
M  V30 3635 C 334.981 1.07693 -2.07182 0
M  V30 3636 C 335.962 1.39962 -0.966673 0
M  V30 3637 O 337.147 1.49475 -1.2398 0
M  V30 3638 C 334.277 2.3885 -2.52127 0
M  V30 3639 C 333.231 2.20917 -3.66579 0
M  V30 3640 C 332.557 3.57515 -3.97601 0
M  V30 3641 C 333.857 1.62493 -4.9638 0
M  V30 3642 H 335.551 0.663199 -2.91962 0
M  V30 3643 H 333.097 0.317569 -1.40455 0
M  V30 3644 H 335.05 3.09928 -2.85522 0
M  V30 3645 H 333.774 2.82215 -1.64384 0
M  V30 3646 H 332.433 1.52279 -3.33477 0
M  V30 3647 H 332.081 3.98463 -3.06979 0
M  V30 3648 H 331.781 3.46353 -4.74672 0
M  V30 3649 H 333.305 4.30013 -4.33499 0
M  V30 3650 H 334.719 2.23445 -5.27963 0
M  V30 3651 H 333.116 1.62009 -5.77818 0
M  V30 3652 H 334.186 0.587041 -4.81333 0
M  V30 3653 N 335.529 1.53961 0.336706 0
M  V30 3654 C 336.759 1.75229 1.09446 0
M  V30 3655 C 337.167 0.494602 1.82621 0
M  V30 3656 O 336.51 -0.543764 1.75468 0
M  V30 3657 C 336.572 2.88288 2.1478 0
M  V30 3658 C 336.236 4.27656 1.6112 0
M  V30 3659 C 337.233 5.08981 1.0599 0
M  V30 3660 C 334.918 4.74161 1.6576 0
M  V30 3661 C 336.912 6.34916 0.562129 0
M  V30 3662 C 334.599 6.00067 1.15595 0
M  V30 3663 C 335.597 6.80278 0.609147 0
M  V30 3664 O 335.285 8.03818 0.114999 0
M  V30 3665 H 335.017 0.588881 0.331956 0
M  V30 3666 H 337.571 2.01614 0.392566 0
M  V30 3667 H 335.801 2.57443 2.88548 0
M  V30 3668 H 337.49 2.97461 2.76174 0
M  V30 3669 H 338.256 4.74213 1.01722 0
M  V30 3670 H 334.135 4.11781 2.07261 0
M  V30 3671 H 337.679 6.9747 0.134668 0
M  V30 3672 H 333.576 6.3433 1.19566 0
M  V30 3673 H 334.344 8.18172 0.231651 0
M  V30 3674 N 337.007 -0.598083 1.45811 0
M  V30 3675 C 338.253 -1.35882 1.50545 0
M  V30 3676 C 338.586 -1.93616 0.150445 0
M  V30 3677 O 337.861 -1.75604 -0.83628 0
M  V30 3678 C 338.144 -2.49966 2.59208 0
M  V30 3679 C 337.997 -1.97367 4.04186 0
M  V30 3680 C 339.316 -3.52068 2.64076 0
M  V30 3681 H 336.435 -0.492717 0.548087 0
M  V30 3682 H 339.077 -0.673319 1.77669 0
M  V30 3683 H 337.227 -3.08443 2.3621 0
M  V30 3684 H 338.899 -1.43466 4.38423 0
M  V30 3685 H 337.142 -1.283 4.14393 0
M  V30 3686 H 337.813 -2.79649 4.75921 0
M  V30 3687 H 340.289 -3.03448 2.84708 0
M  V30 3688 H 339.165 -4.2937 3.41954 0
M  V30 3689 H 339.426 -4.08304 1.69531 0
M  V30 3690 N 338.485 -1.33259 -0.841409 0
M  V30 3691 C 339.734 -1.23921 -1.59143 0
M  V30 3692 C 340.047 0.1941 -1.94635 0
M  V30 3693 O 341.253 0.409474 -2.68394 0
M  V30 3694 C 339.709 -2.17119 -2.87032 0
M  V30 3695 C 339.317 -3.65606 -2.58914 0
M  V30 3696 C 341.061 -2.16648 -3.65053 0
M  V30 3697 C 338.968 -4.50726 -3.82884 0
M  V30 3698 H 337.898 -0.460264 -0.597221 0
M  V30 3699 H 340.549 -1.58307 -0.927959 0
M  V30 3700 H 338.931 -1.75663 -3.54906 0
M  V30 3701 H 340.105 -4.15487 -1.99267 0
M  V30 3702 H 338.42 -3.68341 -1.942 0
M  V30 3703 H 341.017 -2.77474 -4.57069 0
M  V30 3704 H 341.36 -1.16088 -3.99787 0
M  V30 3705 H 341.893 -2.56453 -3.041 0
M  V30 3706 H 338.632 -5.52151 -3.53283 0
M  V30 3707 H 338.152 -4.0559 -4.41879 0
M  V30 3708 H 339.831 -4.64401 -4.50489 0
M  V30 3709 N 339.963 1.05934 -1.16686 0
M  V30 3710 C 341.211 1.78447 -0.948744 0
M  V30 3711 C 341.532 1.87813 0.524523 0
M  V30 3712 O 340.802 1.38945 1.38098 0
M  V30 3713 H 339.382 0.660971 -0.348033 0
M  V30 3714 H 342.044 1.27947 -1.47022 0
M  V30 3715 H 341.14 2.80394 -1.37061 0
M  V30 3716 N 341.441 0.965919 1.2453 0
M  V30 3717 C 342.687 0.62776 1.92839 0
M  V30 3718 C 343.02 -0.834694 1.75347 0
M  V30 3719 O 342.295 -1.60031 1.10546 0
M  V30 3720 C 342.578 1.00109 3.45905 0
M  V30 3721 C 342.431 2.52011 3.72573 0
M  V30 3722 C 343.75 0.53435 4.36844 0
M  V30 3723 H 340.869 0.229537 0.700344 0
M  V30 3724 H 343.511 1.2046 1.46933 0
M  V30 3725 H 341.661 0.510238 3.85135 0
M  V30 3726 H 343.333 3.08559 3.42912 0
M  V30 3727 H 341.576 2.95287 3.17786 0
M  V30 3728 H 342.247 2.73183 4.79661 0
M  V30 3729 H 344.723 0.955565 4.04979 0
M  V30 3730 H 343.599 0.824152 5.42678 0
M  V30 3731 H 343.86 -0.565589 4.38467 0
M  V30 3732 N 342.919 -1.39368 0.735821 0
M  V30 3733 C 344.144 -2.05319 0.293052 0
M  V30 3734 C 344.569 -1.55115 -1.064 0
M  V30 3735 O 343.927 -0.695261 -1.67439 0
M  V30 3736 C 343.975 -3.59305 0.305323 0
M  V30 3737 O 343.079 -4.06299 -0.706761 0
M  V30 3738 H 342.42 -0.650529 0.13307 0
M  V30 3739 H 344.95 -1.78386 1.00197 0
M  V30 3740 H 344.96 -4.07724 0.149997 0
M  V30 3741 H 343.635 -3.95207 1.29553 0
M  V30 3742 H 342.212 -3.69292 -0.517504 0
M  V30 3743 N 344.397 -0.483516 -1.5 0
M  V30 3744 C 345.637 0.0657469 -2.04294 0
M  V30 3745 C 346.001 1.35869 -1.35659 0
M  V30 3746 O 347.202 1.99111 -1.80578 0
M  V30 3747 C 345.473 0.232758 -3.56641 0
M  V30 3748 S 347.032 0.738788 -4.32536 0
M  V30 3749 H 343.85 0.0100755 -0.710929 0
M  V30 3750 H 346.452 -0.653494 -1.84254 0
M  V30 3751 H 345.156 -0.713847 -4.04144 0
M  V30 3752 H 344.687 0.977751 -3.81056 0
M  V30 3753 H 346.702 2.01048 -4.53645 0
M  V30 3754 N 345.875 1.56104 -0.216619 0
M  V30 3755 C 347.103 2.02563 0.421413 0
M  V30 3756 C 347.518 1.0965 1.53695 0
M  V30 3757 O 346.875 0.10521 1.82196 0
M  V30 3758 C 346.926 3.48584 0.957665 0
M  V30 3759 O 346.647 4.37953 -0.113389 0
M  V30 3760 C 348.148 4.10664 1.66943 0
M  V30 3761 H 345.368 0.662944 0.103665 0
M  V30 3762 H 347.912 2.01793 -0.331629 0
M  V30 3763 H 346.067 3.49985 1.661 0
M  V30 3764 H 346.481 5.23704 0.288932 0
M  V30 3765 H 347.955 5.14622 1.99671 0
M  V30 3766 H 348.432 3.55373 2.58083 0
M  V30 3767 H 349.038 4.13098 1.01142 0
M  V30 3768 N 347.353 -0.0568162 1.57498 0
M  V30 3769 C 348.583 -0.764515 1.91934 0
M  V30 3770 C 348.991 -1.70877 0.81227 0
M  V30 3771 O 348.334 -1.82351 -0.222213 0
M  V30 3772 C 348.396 -1.5994 3.21962 0
M  V30 3773 C 348.06 -0.822925 4.4953 0
M  V30 3774 C 349.057 -0.135464 5.19723 0
M  V30 3775 C 346.742 -0.785666 4.96117 0
M  V30 3776 C 348.736 0.578861 6.34766 0
M  V30 3777 C 346.423 -0.0675784 6.11063 0
M  V30 3778 C 347.421 0.613471 6.80239 0
M  V30 3779 O 347.109 1.31996 7.92989 0
M  V30 3780 H 346.841 -0.221647 0.63863 0
M  V30 3781 H 349.395 -0.0268218 2.05382 0
M  V30 3782 H 347.625 -2.38026 3.04763 0
M  V30 3783 H 349.314 -2.18715 3.41934 0
M  V30 3784 H 350.08 -0.155458 4.84751 0
M  V30 3785 H 345.959 -1.30524 4.42136 0
M  V30 3786 H 349.503 1.111 6.88696 0
M  V30 3787 H 345.4 -0.0455636 6.45484 0
M  V30 3788 H 346.168 1.23077 8.09194 0
M  V30 3789 N 348.832 -1.54138 -0.328536 0
M  V30 3790 C 350.109 -1.62749 -1.08499 0
M  V30 3791 C 350.489 -0.458198 -2.06067 0
M  V30 3792 O 349.837 0.548046 -2.2183 0
M  V30 3793 C 350.047 -2.99519 -1.79135 0
M  V30 3794 C 351.395 -3.55394 -2.32337 0
M  V30 3795 O 352.419 -3.01792 -1.89209 0
M  V30 3796 O 351.278 -4.49186 -3.11279 0
M  V30 3797 H 348.372 -0.65886 -0.499832 0
M  V30 3798 H 350.918 -1.66484 -0.328826 0
M  V30 3799 H 349.69 -3.76061 -1.08139 0
M  V30 3800 H 349.313 -2.99441 -2.61574 0
M  V30 3801 N 350.31 0.590341 -1.46126 0
M  V30 3802 C 351.556 1.35082 -1.51264 0
M  V30 3803 C 351.889 1.93534 -0.160711 0
M  V30 3804 O 351.164 1.76045 0.826956 0
M  V30 3805 C 351.447 2.48588 -2.6053 0
M  V30 3806 C 351.3 1.95221 -4.05227 0
M  V30 3807 C 352.619 3.50662 -2.6594 0
M  V30 3808 H 349.738 0.489803 -0.550692 0
M  V30 3809 H 352.38 0.663887 -1.78024 0
M  V30 3810 H 350.53 3.07186 -2.37843 0
M  V30 3811 H 352.202 1.41139 -4.39178 0
M  V30 3812 H 350.445 1.26101 -4.15068 0
M  V30 3813 H 351.116 2.77121 -4.77397 0
M  V30 3814 H 353.592 3.01934 -2.86313 0
M  V30 3815 H 352.468 4.27551 -3.44226 0
M  V30 3816 H 352.729 4.07399 -1.71694 0
M  V30 3817 N 351.788 1.33704 0.83433 0
M  V30 3818 C 353.035 1.25417 1.58987 0
M  V30 3819 C 353.363 -0.178869 1.93676 0
M  V30 3820 O 352.618 -1.13723 1.59265 0
M  V30 3821 C 352.917 2.07926 2.90692 0
M  V30 3822 C 352.583 3.57066 2.75345 0
M  V30 3823 C 351.245 3.97724 2.70867 0
M  V30 3824 C 353.597 4.51817 2.59828 0
M  V30 3825 C 350.925 5.31344 2.48778 0
M  V30 3826 C 353.277 5.85604 2.39272 0
M  V30 3827 C 351.941 6.25439 2.33199 0
M  V30 3828 H 351.211 0.458934 0.581774 0
M  V30 3829 H 353.858 1.65335 0.966261 0
M  V30 3830 H 352.163 1.608 3.57282 0
M  V30 3831 H 353.86 1.98868 3.48213 0
M  V30 3832 H 350.45 3.24785 2.79665 0
M  V30 3833 H 354.634 4.21311 2.62319 0
M  V30 3834 H 349.89 5.61241 2.42526 0
M  V30 3835 H 354.064 6.58623 2.2625 0
M  V30 3836 H 351.691 7.28914 2.15843 0
M  V30 3837 N 353.266 -1.05314 1.17247 0
M  V30 3838 C 354.543 -1.75184 0.87005 0
M  V30 3839 C 354.923 -2.01481 -0.629965 0
M  V30 3840 O 354.271 -1.64988 -1.58086 0
M  V30 3841 C 354.481 -3.04594 1.70363 0
M  V30 3842 C 355.829 -3.78567 1.92281 0
M  V30 3843 O 356.853 -3.14461 1.67311 0
M  V30 3844 O 355.712 -4.93755 2.3424 0
M  V30 3845 H 352.806 -0.761729 0.322021 0
M  V30 3846 H 355.352 -1.11493 1.27935 0
M  V30 3847 H 354.124 -2.81201 2.72106 0
M  V30 3848 H 353.747 -3.76022 1.29202 0
M  V30 3849 N 354.744 -0.972509 -1.24016 0
M  V30 3850 C 355.676 -0.464375 -2.24446 0
M  V30 3851 C 356.689 0.4295 -1.57032 0
M  V30 3852 O 357.878 0.234902 -1.76948 0
M  V30 3853 C 354.978 0.348385 -3.37105 0
M  V30 3854 C 354.151 -0.53673 -4.34094 0
M  V30 3855 C 353.21 0.220838 -5.25736 0
M  V30 3856 O 352.236 -0.386867 -5.67884 0
M  V30 3857 N 353.438 1.50907 -5.60542 0
M  V30 3858 H 356.203 -1.32788 -2.68677 0
M  V30 3859 H 353.764 -0.844877 -1.38107 0
M  V30 3860 H 355.756 0.863341 -3.95384 0
M  V30 3861 H 354.326 1.11285 -2.92121 0
M  V30 3862 H 353.546 -1.23261 -3.74433 0
M  V30 3863 H 354.834 -1.14022 -4.95859 0
M  V30 3864 H 354.232 2.02444 -5.28236 0
M  V30 3865 H 352.789 1.96962 -6.21329 0
M  V30 3866 N 356.222 1.38976 -0.743202 0
M  V30 3867 C 357.154 2.29096 -0.0689228 0
M  V30 3868 C 358.167 1.47229 0.694791 0
M  V30 3869 O 359.356 1.70212 0.537597 0
M  V30 3870 C 356.456 3.25988 0.926548 0
M  V30 3871 C 355.629 4.36833 0.222647 0
M  V30 3872 C 354.688 5.13981 1.12739 0
M  V30 3873 O 353.714 5.6601 0.601795 0
M  V30 3874 N 354.916 5.25966 2.45641 0
M  V30 3875 H 357.681 2.87604 -0.842846 0
M  V30 3876 H 355.242 1.50645 -0.593109 0
M  V30 3877 H 357.234 3.74476 1.5346 0
M  V30 3878 H 355.804 2.68453 1.60162 0
M  V30 3879 H 355.024 3.90116 -0.565983 0
M  V30 3880 H 356.312 5.0811 -0.264841 0
M  V30 3881 H 355.71 4.85228 2.9081 0
M  V30 3882 H 354.267 5.77865 3.01522 0
M  V30 3883 N 357.7 0.491464 1.49741 0
M  V30 3884 C 358.947 -0.0564256 2.02421 0
M  V30 3885 C 359.275 -1.37872 1.37192 0
M  V30 3886 O 358.53 -1.89375 0.493508 0
M  V30 3887 C 358.829 -0.267329 3.56399 0
M  V30 3888 C 358.495 0.975775 4.40215 0
M  V30 3889 C 357.157 1.31655 4.62839 0
M  V30 3890 C 359.509 1.80251 4.89039 0
M  V30 3891 C 356.837 2.48375 5.31532 0
M  V30 3892 C 359.189 2.96116 5.59015 0
M  V30 3893 C 357.853 3.30585 5.79888 0
M  V30 3894 H 357.123 -0.0206476 0.740712 0
M  V30 3895 H 359.77 0.649686 1.80143 0
M  V30 3896 H 358.075 -1.05588 3.77304 0
M  V30 3897 H 359.772 -0.705549 3.94744 0
M  V30 3898 H 356.362 0.700315 4.2284 0
M  V30 3899 H 360.546 1.55239 4.71396 0
M  V30 3900 H 355.802 2.7533 5.45897 0
M  V30 3901 H 359.976 3.60509 5.95824 0
M  V30 3902 H 357.603 4.21132 6.32892 0
M  V30 3903 N 359.178 -1.55987 0.224894 0
M  V30 3904 C 360.141 -2.19178 -0.670348 0
M  V30 3905 C 361.141 -1.15461 -1.11917 0
M  V30 3906 O 362.331 -1.40675 -1.02743 0
M  V30 3907 C 359.463 -2.81777 -1.9187 0
M  V30 3908 H 360.656 -2.99662 -0.119364 0
M  V30 3909 H 358.209 -1.5628 -0.0247128 0
M  V30 3910 H 358.944 -2.05172 -2.51147 0
M  V30 3911 H 358.729 -3.57732 -1.60531 0
M  V30 3912 H 360.219 -3.30205 -2.55645 0
M  V30 3913 N 360.656 0.0484629 -1.57525 0
M  V30 3914 C 361.604 1.07359 -2.06341 0
M  V30 3915 C 362.598 1.3865 -0.973269 0
M  V30 3916 O 363.804 1.37783 -1.15827 0
M  V30 3917 H 360.179 0.363662 -0.65822 0
M  V30 3918 H 362.15 0.635916 -2.91545 0
M  V30 3919 C 360.899 2.37198 -2.54229 0
M  V30 3920 H 360.222 2.13977 -3.37719 0
M  V30 3921 H 361.662 3.07319 -2.92115 0
M  V30 3922 C 360.121 3.04805 -1.43511 0
M  V30 3923 O 360.651 3.93848 -0.79034 0
M  V30 3924 N 358.857 2.65811 -1.17444 0
M  V30 3925 H 358.404 1.93488 -1.70059 0
M  V30 3926 H 358.362 3.11366 -0.435737 0
M  V30 3927 N 362.134 1.5431 0.320358 0
M  V30 3928 C 363.381 1.72668 1.05792 0
M  V30 3929 C 363.709 0.502084 1.87908 0
M  V30 3930 O 362.964 -0.516149 1.88771 0
M  V30 3931 C 363.263 2.95639 2.00828 0
M  V30 3932 C 362.929 4.30265 1.34843 0
M  V30 3933 C 361.591 4.66865 1.16578 0
M  V30 3934 C 363.943 5.13801 0.875095 0
M  V30 3935 C 361.271 5.84597 0.496336 0
M  V30 3936 C 363.623 6.32219 0.219463 0
M  V30 3937 C 362.287 6.67495 0.0246915 0
M  V30 3938 H 361.557 0.631837 0.387121 0
M  V30 3939 H 364.204 1.88552 0.334735 0
M  V30 3940 H 362.509 2.74456 2.79609 0
M  V30 3941 H 364.206 3.07038 2.57932 0
M  V30 3942 H 360.796 4.01472 1.50061 0
M  V30 3943 H 364.98 4.86039 1.00398 0
M  V30 3944 H 360.236 6.10486 0.334264 0
M  V30 3945 H 364.41 6.96227 -0.155291 0
M  V30 3946 H 362.037 7.5858 -0.496065 0
M  V30 3947 N 363.613 -0.582584 1.46437 0
M  V30 3948 C 364.86 -1.34079 1.51753 0
M  V30 3949 C 365.188 -1.93762 0.169299 0
M  V30 3950 O 364.443 -1.76989 -0.835062 0
M  V30 3951 C 364.742 -2.48964 2.56421 0
M  V30 3952 C 364.408 -2.07273 4.00436 0
M  V30 3953 C 363.07 -1.95618 4.39644 0
M  V30 3954 C 365.422 -1.75111 4.90903 0
M  V30 3955 C 362.75 -1.5006 5.67185 0
M  V30 3956 C 365.102 -1.31032 6.18881 0
M  V30 3957 C 363.766 -1.17954 6.56996 0
M  V30 3958 H 363.036 -0.49063 0.555304 0
M  V30 3959 H 365.683 -0.656007 1.79913 0
M  V30 3960 H 363.988 -3.22889 2.21923 0
M  V30 3961 H 365.685 -3.07178 2.57765 0
M  V30 3962 H 362.275 -2.17279 3.69443 0
M  V30 3963 H 366.459 -1.83001 4.61329 0
M  V30 3964 H 361.715 -1.38577 5.95488 0
M  V30 3965 H 365.889 -1.052 6.88408 0
M  V30 3966 H 363.516 -0.824279 7.55718 0
M  V30 3967 N 365.091 -1.34144 -0.827227 0
M  V30 3968 C 366.319 -1.29325 -1.61501 0
M  V30 3969 C 366.734 0.13354 -1.88327 0
M  V30 3970 O 366.091 1.0793 -1.47164 0
M  V30 3971 C 366.142 -2.07746 -2.95844 0
M  V30 3972 O 365.863 -3.4486 -2.70191 0
M  V30 3973 C 367.364 -2.10273 -3.90256 0
M  V30 3974 H 364.584 -0.445069 -0.50215 0
M  V30 3975 H 367.128 -1.76693 -1.02955 0
M  V30 3976 H 365.283 -1.6403 -3.5096 0
M  V30 3977 H 365.697 -3.85345 -3.55822 0
M  V30 3978 H 367.171 -2.69575 -4.81698 0
M  V30 3979 H 367.648 -1.096 -4.25305 0
M  V30 3980 H 368.254 -2.54059 -3.41078 0
M  V30 3981 N 366.569 1.04691 -1.17803 0
M  V30 3982 C 367.794 1.81984 -0.994813 0
M  V30 3983 C 368.219 1.82586 0.452112 0
M  V30 3984 O 367.577 1.23854 1.324 0
M  V30 3985 C 367.625 3.2575 -1.54659 0
M  V30 3986 O 366.729 4.05267 -0.763728 0
M  V30 3987 H 366.07 0.562483 -0.352857 0
M  V30 3988 H 368.6 1.3189 -1.56417 0
M  V30 3989 H 368.61 3.76541 -1.57102 0
M  V30 3990 H 367.285 3.24627 -2.59981 0
M  V30 3991 H 365.862 3.63972 -0.811108 0
M  V30 3992 N 368.047 0.979072 1.23499 0
M  V30 3993 C 369.294 0.647219 1.91878 0
M  V30 3994 C 369.622 -0.819074 1.76413 0
M  V30 3995 O 368.877 -1.60616 1.11808 0
M  V30 3996 C 369.176 0.981932 3.43646 0
M  V30 3997 C 368.842 2.43822 3.79291 0
M  V30 3998 C 367.504 2.83622 3.88731 0
M  V30 3999 C 369.856 3.3828 3.96505 0
M  V30 4000 C 367.184 4.16897 4.12812 0
M  V30 4001 C 369.536 4.71197 4.22085 0
M  V30 4002 C 368.2 5.10758 4.29747 0
M  V30 4003 H 367.47 0.236834 0.702133 0
M  V30 4004 H 370.117 1.23268 1.46551 0
M  V30 4005 H 368.422 0.314365 3.90537 0
M  V30 4006 H 370.119 0.703395 3.94783 0
M  V30 4007 H 366.709 2.11966 3.72516 0
M  V30 4008 H 370.893 3.0871 3.88603 0
M  V30 4009 H 366.149 4.47157 4.16966 0
M  V30 4010 H 370.323 5.44348 4.34348 0
M  V30 4011 H 367.95 6.1405 4.48159 0
M  V30 4012 N 369.525 -1.3858 0.750561 0
M  V30 4013 C 370.772 -2.00184 0.305373 0
M  V30 4014 C 371.1 -1.59575 -1.11203 0
M  V30 4015 O 370.355 -0.823236 -1.77542 0
M  V30 4016 C 370.654 -3.55455 0.372373 0
M  V30 4017 C 370.32 -4.15765 1.745 0
M  V30 4018 C 368.982 -4.31951 2.12065 0
M  V30 4019 C 371.334 -4.49067 2.64553 0
M  V30 4020 C 368.662 -4.78734 3.39162 0
M  V30 4021 C 371.014 -4.97265 3.91038 0
M  V30 4022 C 369.678 -5.11658 4.28676 0
M  V30 4023 H 368.948 -0.732526 0.111744 0
M  V30 4024 H 371.595 -1.65673 0.960451 0
M  V30 4025 H 369.9 -3.90084 -0.366272 0
M  V30 4026 H 371.597 -4.00999 0.00953918 0
M  V30 4027 H 368.187 -4.03579 1.44297 0
M  V30 4028 H 372.371 -4.36166 2.36796 0
M  V30 4029 H 367.627 -4.88062 3.68246 0
M  V30 4030 H 371.801 -5.22003 4.60962 0
M  V30 4031 H 369.428 -5.47668 5.27222 0
M  V30 4032 N 371.003 -0.499398 -1.49478 0
M  V30 4033 C 371.966 0.268838 -2.27618 0
M  V30 4034 C 372.966 0.895383 -1.33565 0
M  V30 4035 O 374.156 0.760164 -1.56739 0
M  V30 4036 C 371.288 1.38559 -3.11471 0
M  V30 4037 H 372.481 -0.416812 -2.96989 0
M  V30 4038 H 370.034 -0.254313 -1.54217 0
M  V30 4039 H 370.769 2.10544 -2.46661 0
M  V30 4040 H 370.554 0.941797 -3.80621 0
M  V30 4041 H 372.044 1.92678 -3.70493 0
M  V30 4042 N 372.481 1.55866 -0.233164 0
M  V30 4043 C 373.709 2.02998 0.399905 0
M  V30 4044 C 374.124 1.11274 1.52524 0
M  V30 4045 O 373.481 0.124528 1.82075 0
M  V30 4046 C 373.532 3.4958 0.920639 0
M  V30 4047 O 373.253 4.37808 -0.159834 0
M  V30 4048 C 374.754 4.12411 1.62578 0
M  V30 4049 H 371.974 0.664006 0.0966281 0
M  V30 4050 H 374.518 2.0143 -0.353013 0
M  V30 4051 H 372.673 3.51727 1.62379 0
M  V30 4052 H 373.087 5.23981 0.23337 0
M  V30 4053 H 374.561 5.16711 1.94201 0
M  V30 4054 H 375.038 3.5809 2.54299 0
M  V30 4055 H 375.644 4.14148 0.967553 0
M  V30 4056 N 373.959 -0.0401083 1.57549 0
M  V30 4057 C 375.207 -0.731677 1.8839 0
M  V30 4058 C 375.528 -1.76481 0.829425 0
M  V30 4059 O 374.798 -1.95411 -0.1383 0
M  V30 4060 H 373.378 -0.273225 0.695239 0
M  V30 4061 H 376.04 -0.00867725 1.94898 0
M  V30 4062 H 375.136 -1.22816 2.86919 0
M  V30 4063 N 375.437 -1.54477 -0.31217 0
M  V30 4064 C 376.347 -1.87695 -1.4074 0
M  V30 4065 C 377.363 -0.769975 -1.56036 0
M  V30 4066 O 378.539 -1.06537 -1.70915 0
M  V30 4067 C 375.604 -2.10755 -2.75287 0
M  V30 4068 C 374.665 -3.34514 -2.69071 0
M  V30 4069 C 373.898 -3.56465 -3.97201 0
M  V30 4070 O 374.121 -2.81637 -4.96021 0
M  V30 4071 O 373.055 -4.49964 -3.9977 0
M  V30 4072 H 376.881 -2.80849 -1.15574 0
M  V30 4073 H 374.466 -1.40526 -0.507228 0
M  V30 4074 H 376.348 -2.27188 -3.54913 0
M  V30 4075 H 375.023 -1.20788 -3.0032 0
M  V30 4076 H 373.93 -3.23456 -1.87955 0
M  V30 4077 H 375.263 -4.24575 -2.48992 0
M  V30 4078 N 376.915 0.57481 -1.46744 0
M  V30 4079 C 377.847 1.69804 -1.53946 0
M  V30 4080 C 378.86 1.57098 -0.427106 0
M  V30 4081 O 380.049 1.64378 -0.695863 0
M  V30 4082 C 377.149 3.08125 -1.4111 0
M  V30 4083 C 376.322 3.46757 -2.66605 0
M  V30 4084 C 375.381 4.6417 -2.47855 0
M  V30 4085 O 374.407 4.69634 -3.21609 0
M  V30 4086 N 375.609 5.59553 -1.54534 0
M  V30 4087 H 378.374 1.64077 -2.50796 0
M  V30 4088 H 375.935 0.761 -1.429 0
M  V30 4089 H 377.927 3.84478 -1.26328 0
M  V30 4090 H 376.497 3.08175 -0.524109 0
M  V30 4091 H 375.717 2.6003 -2.96274 0
M  V30 4092 H 377.005 3.69337 -3.49954 0
M  V30 4093 H 376.403 5.57881 -0.937304 0
M  V30 4094 H 374.96 6.35304 -1.45711 0
M  V30 4095 N 378.394 1.34581 0.820102 0
M  V30 4096 C 379.642 1.26845 1.57336 0
M  V30 4097 C 379.963 -0.160667 1.94337 0
M  V30 4098 O 379.233 -1.09396 1.6251 0
M  V30 4099 H 377.813 0.466514 0.583415 0
M  V30 4100 H 380.475 1.68526 0.979027 0
M  V30 4101 H 379.571 1.87513 2.4949 0
M  V30 4102 N 379.872 -1.04064 1.18357 0
M  V30 4103 C 381.1 -1.80916 1.00384 0
M  V30 4104 C 381.515 -1.83414 -0.447738 0
M  V30 4105 O 380.872 -1.26962 -1.31099 0
M  V30 4106 C 380.923 -3.26516 1.55144 0
M  V30 4107 O 380.644 -3.2424 2.94618 0
M  V30 4108 C 382.145 -4.20013 1.41789 0
M  V30 4109 H 379.365 -0.569728 0.354474 0
M  V30 4110 H 381.909 -1.31151 1.56906 0
M  V30 4111 H 380.064 -3.73512 1.02798 0
M  V30 4112 H 380.478 -4.15452 3.20156 0
M  V30 4113 H 381.952 -5.20111 1.84901 0
M  V30 4114 H 382.429 -4.37667 0.36661 0
M  V30 4115 H 383.035 -3.78881 1.93207 0
M  V30 4116 N 381.35 -0.985608 -1.22978 0
M  V30 4117 C 382.766 -0.695104 -1.43668 0
M  V30 4118 C 382.966 0.736866 -1.87543 0
M  V30 4119 O 382.022 1.50868 -2.02473 0
M  V30 4120 C 383.335 -1.69447 -2.48412 0
M  V30 4121 C 384.883 -1.70909 -2.62219 0
M  V30 4122 C 385.358 -2.6969 -3.70178 0
M  V30 4123 N 386.849 -2.6824 -3.77626 0
M  V30 4124 C 387.584 -3.41339 -4.60733 0
M  V30 4125 N 387.08 -4.24015 -5.4789 0
M  V30 4126 N 388.873 -3.30079 -4.54977 0
M  V30 4127 H 381.024 -1.91054 -0.928016 0
M  V30 4128 H 383.287 -0.823553 -0.469536 0
M  V30 4129 H 382.993 -2.7188 -2.23102 0
M  V30 4130 H 382.867 -1.48147 -3.46889 0
M  V30 4131 H 385.254 -0.691785 -2.86877 0
M  V30 4132 H 385.335 -1.96276 -1.6404 0
M  V30 4133 H 384.979 -3.71566 -3.46268 0
M  V30 4134 H 384.909 -2.41595 -4.67909 0
M  V30 4135 H 387.4 -2.08243 -3.15346 0
M  V30 4136 H 387.713 -4.76636 -6.08308 0
M  V30 4137 H 386.058 -4.28104 -5.47496 0
M  V30 4138 H 389.249 -2.64937 -3.85909 0
M  V30 4139 H 389.422 -3.87308 -5.19516 0
M  V30 4140 N 382.828 1.3818 -0.7579 0
M  V30 4141 C 384.074 2.00316 -0.316453 0
M  V30 4142 C 384.407 1.60026 1.10025 0
M  V30 4143 O 383.682 0.839835 1.75434 0
M  V30 4144 C 383.965 3.57349 -0.444245 0
M  V30 4145 C 383.818 4.07591 -1.90236 0
M  V30 4146 C 385.137 4.3981 0.1598 0
M  V30 4147 H 382.256 0.727741 -0.116459 0
M  V30 4148 H 384.898 1.6406 -0.958352 0
M  V30 4149 H 383.048 3.88365 0.102233 0
M  V30 4150 H 384.72 3.87199 -2.50748 0
M  V30 4151 H 382.963 3.60297 -2.41595 0
M  V30 4152 H 383.634 5.16677 -1.94291 0
M  V30 4153 H 386.11 4.14971 -0.306314 0
M  V30 4154 H 384.986 5.48885 0.0401675 0
M  V30 4155 H 385.247 4.24102 1.24859 0
M  V30 4156 N 384.306 0.507319 1.49211 0
M  V30 4157 C 385.553 -0.0349529 2.0247 0
M  V30 4158 C 385.881 -1.36409 1.38647 0
M  V30 4159 O 385.136 -1.88841 0.513566 0
M  V30 4160 C 385.435 -0.229513 3.56662 0
M  V30 4161 C 385.101 1.02241 4.39156 0
M  V30 4162 C 383.763 1.36557 4.61417 0
M  V30 4163 C 386.115 1.85428 4.871 0
M  V30 4164 C 383.443 2.53999 5.28868 0
M  V30 4165 C 385.795 3.02028 5.55843 0
M  V30 4166 C 384.459 3.36717 5.76349 0
M  V30 4167 H 383.729 -0.0127902 0.74089 0
M  V30 4168 H 386.376 0.668756 1.79443 0
M  V30 4169 H 384.681 -1.0158 3.78403 0
M  V30 4170 H 386.378 -0.663641 3.9547 0
M  V30 4171 H 382.968 0.745124 4.22073 0
M  V30 4172 H 387.152 1.6023 4.69723 0
M  V30 4173 H 382.408 2.81105 5.42946 0
M  V30 4174 H 386.582 3.66808 5.91967 0
M  V30 4175 H 384.209 4.27821 6.28389 0
M  V30 4176 N 385.784 -1.5574 0.241426 0
M  V30 4177 C 387.032 -1.98417 -0.384075 0
M  V30 4178 C 387.353 -1.13078 -1.58866 0
M  V30 4179 O 386.623 -0.212312 -1.94746 0
M  V30 4180 H 385.203 -0.732813 -0.144894 0
M  V30 4181 H 387.865 -1.9193 0.338943 0
M  V30 4182 H 386.961 -3.04219 -0.696939 0
M  V30 4183 N 387.262 0.0317525 -1.57568 0
M  V30 4184 C 388.492 0.733884 -1.93126 0
M  V30 4185 C 388.9 1.69563 -0.839352 0
M  V30 4186 O 388.243 1.82681 0.193175 0
M  V30 4187 C 388.305 1.54798 -3.24465 0
M  V30 4188 C 387.969 0.751304 -4.50782 0
M  V30 4189 C 388.966 0.0527632 -5.19873 0
M  V30 4190 C 386.651 0.706639 -4.97305 0
M  V30 4191 C 388.645 -0.679774 -6.33765 0
M  V30 4192 C 386.332 -0.0296449 -6.11093 0
M  V30 4193 C 387.33 -0.721614 -6.79177 0
M  V30 4194 O 387.018 -1.44595 -7.90789 0
M  V30 4195 H 386.75 0.211459 -0.642076 0
M  V30 4196 H 389.304 -0.00585615 -2.05399 0
M  V30 4197 H 387.534 2.33147 -3.08512 0
M  V30 4198 H 389.223 2.13247 -3.4537 0
M  V30 4199 H 389.989 0.0783188 -4.84937 0
M  V30 4200 H 385.868 1.23474 -4.44157 0
M  V30 4201 H 389.412 -1.22042 -6.86842 0
M  V30 4202 H 385.309 -0.0571331 -6.45475 0
M  V30 4203 H 386.077 -1.35935 -8.07133 0
M  V30 4204 N 388.74 1.54641 0.303973 0
M  V30 4205 C 389.986 1.74038 1.04109 0
M  V30 4206 C 390.319 0.523051 1.87024 0
M  V30 4207 O 389.594 -0.479874 1.88487 0
M  V30 4208 C 389.877 3.02761 1.94955 0
M  V30 4209 C 389.73 4.34787 1.1524 0
M  V30 4210 C 391.049 3.27336 2.94175 0
M  V30 4211 H 388.168 0.63323 0.377079 0
M  V30 4212 H 390.81 1.87354 0.316001 0
M  V30 4213 H 388.96 2.9154 2.56782 0
M  V30 4214 H 390.632 4.57922 0.557236 0
M  V30 4215 H 388.875 4.31407 0.455053 0
M  V30 4216 H 389.546 5.21116 1.8205 0
M  V30 4217 H 392.022 3.38148 2.42477 0
M  V30 4218 H 390.898 4.18726 3.54908 0
M  V30 4219 H 391.159 2.45491 3.67677 0
M  V30 4220 N 390.218 -0.567019 1.47046 0
M  V30 4221 C 391.446 -1.35027 1.56765 0
M  V30 4222 C 391.861 -1.8758 0.214316 0
M  V30 4223 O 391.218 -1.64471 -0.790919 0
M  V30 4224 C 391.269 -2.52698 2.58507 0
M  V30 4225 O 390.99 -2.0232 3.88585 0
M  V30 4226 C 392.491 -3.45043 2.78316 0
M  V30 4227 H 389.711 -0.41195 0.529658 0
M  V30 4228 H 392.255 -0.687832 1.92585 0
M  V30 4229 H 390.41 -3.149 2.25648 0
M  V30 4230 H 390.824 -2.79068 4.44096 0
M  V30 4231 H 392.298 -4.2405 3.53391 0
M  V30 4232 H 392.775 -3.97971 1.85784 0
M  V30 4233 H 393.381 -2.88665 3.12334 0
M  V30 4234 N 391.696 -1.35014 -0.812953 0
M  V30 4235 C 392.924 -1.31031 -1.6012 0
M  V30 4236 C 393.339 0.113558 -1.88458 0
M  V30 4237 O 392.696 1.06363 -1.48301 0
M  V30 4238 C 392.747 -2.10872 -2.93624 0
M  V30 4239 O 392.468 -3.47706 -2.66518 0
M  V30 4240 C 393.969 -2.14401 -3.88004 0
M  V30 4241 H 391.189 -0.45037 -0.497401 0
M  V30 4242 H 393.733 -1.77775 -1.01076 0
M  V30 4243 H 391.888 -1.67744 -3.492 0
M  V30 4244 H 392.302 -3.89097 -3.51715 0
M  V30 4245 H 393.776 -2.74669 -4.78812 0
M  V30 4246 H 394.253 -1.14105 -4.24119 0
M  V30 4247 H 394.859 -2.57662 -3.38364 0
M  V30 4248 N 393.175 1.03435 -1.18907 0
M  V30 4249 C 394.108 2.11162 -0.86521 0
M  V30 4250 C 395.086 1.6165 0.175473 0
M  V30 4251 O 396.27 1.88425 0.0530129 0
M  V30 4252 C 393.397 3.37423 -0.293868 0
M  V30 4253 C 392.443 4.05795 -1.31274 0
M  V30 4254 S 393.276 4.52027 -2.8711 0
M  V30 4255 C 394.432 5.81513 -2.31504 0
M  V30 4256 H 394.665 2.38308 -1.77754 0
M  V30 4257 H 392.198 1.16295 -1.01562 0
M  V30 4258 H 394.156 4.1049 0.0292572 0
M  V30 4259 H 392.817 3.0838 0.596682 0
M  V30 4260 H 392.01 4.96574 -0.86198 0
M  V30 4261 H 391.612 3.38874 -1.58242 0
M  V30 4262 H 393.904 6.55784 -1.70157 0
M  V30 4263 H 394.847 6.3136 -3.20608 0
M  V30 4264 H 395.255 5.36921 -1.74286 0
M  V30 4265 N 394.653 0.992116 1.22453 0
M  V30 4266 C 395.901 0.666215 1.90804 0
M  V30 4267 C 396.222 -0.804152 1.77647 0
M  V30 4268 O 395.492 -1.57629 1.16318 0
M  V30 4269 H 394.072 0.243423 0.706225 0
M  V30 4270 H 396.734 1.25845 1.48825 0
M  V30 4271 H 395.83 0.928069 2.97982 0
M  V30 4272 N 396.131 -1.37776 0.765217 0
M  V30 4273 C 397.041 -2.34135 0.147666 0
M  V30 4274 C 398.057 -1.59854 -0.687215 0
M  V30 4275 O 399.233 -1.91983 -0.608659 0
M  V30 4276 C 396.298 -3.3901 -0.72617 0
M  V30 4277 C 395.359 -4.2912 0.124417 0
M  V30 4278 C 394.592 -5.28986 -0.707807 0
M  V30 4279 O 394.815 -5.36205 -1.94525 0
M  V30 4280 O 393.749 -6.01779 -0.12046 0
M  V30 4281 H 397.575 -2.88664 0.943758 0
M  V30 4282 H 395.16 -1.39824 0.526277 0
M  V30 4283 H 397.042 -4.03195 -1.22524 0
M  V30 4284 H 395.717 -2.86819 -1.50056 0
M  V30 4285 H 394.624 -3.68057 0.669696 0
M  V30 4286 H 395.957 -4.84598 0.861736 0
M  V30 4287 N 397.609 -0.515225 -1.4894 0
M  V30 4288 C 398.539 0.244628 -2.32215 0
M  V30 4289 C 399.52 0.949136 -1.41157 0
M  V30 4290 O 400.705 0.937783 -1.70057 0
M  V30 4291 C 397.835 1.30096 -3.22013 0
M  V30 4292 C 396.789 0.715486 -4.21977 0
M  V30 4293 C 396.115 1.87339 -5.00808 0
M  V30 4294 C 397.415 -0.302982 -5.2142 0
M  V30 4295 H 399.109 -0.450501 -2.95991 0
M  V30 4296 H 396.655 -0.218098 -1.42339 0
M  V30 4297 H 398.608 1.84037 -3.79089 0
M  V30 4298 H 397.332 2.02547 -2.56207 0
M  V30 4299 H 395.991 0.197715 -3.66066 0
M  V30 4300 H 395.639 2.58592 -4.31438 0
M  V30 4301 H 395.339 1.48764 -5.68457 0
M  V30 4302 H 396.863 2.41686 -5.60732 0
M  V30 4303 H 398.277 0.148802 -5.73107 0
M  V30 4304 H 396.674 -0.60532 -5.97039 0
M  V30 4305 H 397.744 -1.21395 -4.69459 0
M  V30 4306 N 399.087 1.5561 -0.249682 0
M  V30 4307 C 400.017 2.24477 0.642826 0
M  V30 4308 C 400.998 1.22601 1.17911 0
M  V30 4309 O 402.183 1.5126 1.21795 0
M  V30 4310 C 399.313 2.94638 1.83863 0
M  V30 4311 C 398.267 4.03227 1.435 0
M  V30 4312 C 397.593 4.60828 2.71186 0
M  V30 4313 C 398.893 5.18796 0.604002 0
M  V30 4314 H 400.587 2.99321 0.0685625 0
M  V30 4315 H 398.133 1.43965 0.0315363 0
M  V30 4316 H 400.086 3.41517 2.46868 0
M  V30 4317 H 398.81 2.17287 2.43832 0
M  V30 4318 H 397.469 3.57121 0.828275 0
M  V30 4319 H 397.117 3.80174 3.29358 0
M  V30 4320 H 396.817 5.34132 2.44901 0
M  V30 4321 H 398.341 5.10442 3.35084 0
M  V30 4322 H 399.755 5.61883 1.13842 0
M  V30 4323 H 398.152 5.98506 0.437097 0
M  V30 4324 H 399.222 4.83384 -0.383147 0
M  V30 4325 N 400.565 -0.0233959 1.57583 0
M  V30 4326 C 401.513 -1.04063 2.08023 0
M  V30 4327 C 402.507 -1.37084 0.995204 0
M  V30 4328 O 403.713 -1.35923 1.18004 0
M  V30 4329 H 400.088 -0.353144 0.663922 0
M  V30 4330 H 402.059 -0.589453 2.9252 0
M  V30 4331 C 400.808 -2.33123 2.57971 0
M  V30 4332 H 400.131 -2.08577 3.4108 0
M  V30 4333 H 401.571 -3.02632 2.96967 0
M  V30 4334 C 400.03 -3.02483 1.48342 0
M  V30 4335 O 400.56 -3.92541 0.852898 0
M  V30 4336 N 398.766 -2.63909 1.21658 0
M  V30 4337 H 398.313 -1.90758 1.73116 0
M  V30 4338 H 398.271 -3.10633 0.485218 0
M  V30 4339 N 402.043 -1.548 -0.295768 0
M  V30 4340 C 403.006 -1.85363 -1.34808 0
M  V30 4341 C 404.006 -0.726817 -1.43436 0
M  V30 4342 O 405.196 -0.995088 -1.42981 0
M  V30 4343 C 402.328 -2.03859 -2.73229 0
M  V30 4344 H 403.521 -2.7941 -1.08949 0
M  V30 4345 H 401.074 -1.46942 -0.532702 0
M  V30 4346 H 401.809 -1.12117 -3.04303 0
M  V30 4347 H 401.594 -2.8588 -2.68356 0
M  V30 4348 H 403.084 -2.28857 -3.49305 0
M  V30 4349 N 403.521 0.559213 -1.47345 0
M  V30 4350 C 404.746 1.34676 -1.57725 0
M  V30 4351 C 405.171 1.86723 -0.227164 0
M  V30 4352 O 404.529 1.6286 0.796642 0
M  V30 4353 C 404.577 2.49399 -2.60447 0
M  V30 4354 O 403.681 3.51567 -2.15578 0
M  V30 4355 H 403.022 0.400115 -0.52991 0
M  V30 4356 H 405.552 0.676009 -1.93109 0
M  V30 4357 H 405.562 2.95996 -2.80803 0
M  V30 4358 H 404.237 2.10873 -3.58477 0
M  V30 4359 H 402.814 3.11289 -2.05313 0
M  V30 4360 N 404.999 1.35443 0.805782 0
M  V30 4361 C 406.248 1.28097 1.55801 0
M  V30 4362 C 406.561 -0.142428 1.95081 0
M  V30 4363 O 407.767 -0.33817 2.69386 0
M  V30 4364 C 406.223 2.24653 2.81174 0
M  V30 4365 C 405.831 3.72342 2.49129 0
M  V30 4366 C 407.575 2.2625 3.59181 0
M  V30 4367 C 405.482 4.60719 3.70799 0
M  V30 4368 H 404.412 0.475937 0.584808 0
M  V30 4369 H 407.063 1.60712 0.885661 0
M  V30 4370 H 405.445 1.85011 3.50124 0
M  V30 4371 H 406.619 4.20624 1.88181 0
M  V30 4372 H 404.934 3.73361 1.84366 0
M  V30 4373 H 407.531 2.89495 4.49552 0
M  V30 4374 H 407.874 1.26647 3.96568 0
M  V30 4375 H 408.407 2.64426 2.97193 0
M  V30 4376 H 405.146 5.61324 3.3852 0
M  V30 4377 H 404.666 4.17163 4.3097 0
M  V30 4378 H 406.345 4.76182 4.38018 0
M  V30 4379 N 406.477 -1.02803 1.19454 0
M  V30 4380 C 407.41 -2.107 0.876396 0
M  V30 4381 C 408.388 -1.61741 -0.166897 0
M  V30 4382 O 409.572 -1.88451 -0.0430195 0
M  V30 4383 C 406.699 -3.37262 0.311758 0
M  V30 4384 C 405.745 -4.05093 1.33424 0
M  V30 4385 S 406.578 -4.50498 2.89503 0
M  V30 4386 C 407.734 -5.80277 2.34584 0
M  V30 4387 H 407.967 -2.37362 1.79016 0
M  V30 4388 H 405.5 -1.15755 1.02177 0
M  V30 4389 H 407.458 -4.10499 -0.00748752 0
M  V30 4390 H 406.119 -3.08693 -0.58032 0
M  V30 4391 H 405.312 -4.9611 0.888302 0
M  V30 4392 H 404.914 -3.3803 1.60037 0
M  V30 4393 H 407.206 -6.54873 1.73633 0
M  V30 4394 H 408.149 -6.29651 3.23952 0
M  V30 4395 H 408.557 -5.3599 1.77131 0
M  V30 4396 N 407.956 -0.998596 -1.21925 0
M  V30 4397 C 409.203 -0.677663 -1.90824 0
M  V30 4398 C 409.531 0.790905 -1.77693 0
M  V30 4399 O 408.786 1.58817 -1.14349 0
M  V30 4400 C 409.085 -1.03648 -3.42041 0
M  V30 4401 C 408.751 -2.49825 -3.75364 0
M  V30 4402 C 407.413 -2.8977 -3.8417 0
M  V30 4403 C 409.765 -3.44545 -3.91073 0
M  V30 4404 C 407.093 -4.23412 -4.06127 0
M  V30 4405 C 409.445 -4.77853 -4.14535 0
M  V30 4406 C 408.109 -5.17531 -4.21566 0
M  V30 4407 H 407.379 -0.247975 -0.698276 0
M  V30 4408 H 410.026 -1.25584 -1.44571 0
M  V30 4409 H 408.331 -0.376457 -3.89987 0
M  V30 4410 H 410.028 -0.766113 -3.93614 0
M  V30 4411 H 406.618 -2.17866 -3.69097 0
M  V30 4412 H 410.802 -3.14853 -3.83642 0
M  V30 4413 H 406.058 -4.53734 -4.09799 0
M  V30 4414 H 410.232 -5.51189 -4.25633 0
M  V30 4415 H 407.859 -6.21102 -4.38333 0
M  V30 4416 N 409.434 1.37368 -0.772513 0
M  V30 4417 C 410.681 1.99673 -0.337182 0
M  V30 4418 C 411.009 1.61324 1.0865 0
M  V30 4419 O 410.264 0.851377 1.7621 0
M  V30 4420 C 410.563 3.54817 -0.428876 0
M  V30 4421 C 410.229 4.12936 -1.81092 0
M  V30 4422 C 408.891 4.28523 -2.1891 0
M  V30 4423 C 411.243 4.44801 -2.71664 0
M  V30 4424 C 408.571 4.73277 -3.46735 0
M  V30 4425 C 410.923 4.90981 -3.98899 0
M  V30 4426 C 409.587 5.04773 -4.36761 0
M  V30 4427 H 408.857 0.730656 -0.123384 0
M  V30 4428 H 411.504 1.64124 -0.986686 0
M  V30 4429 H 409.809 3.90618 0.304167 0
M  V30 4430 H 411.506 4.00933 -0.0733334 0
M  V30 4431 H 408.096 4.01233 -1.50699 0
M  V30 4432 H 412.28 4.32344 -2.43706 0
M  V30 4433 H 407.536 4.82142 -3.75964 0
M  V30 4434 H 411.71 5.14603 -4.69208 0
M  V30 4435 H 409.337 5.39211 -5.35868 0
M  V30 4436 N 410.912 0.523116 1.48665 0
M  V30 4437 C 411.875 -0.232592 2.28017 0
M  V30 4438 C 412.875 -0.874021 1.34972 0
M  V30 4439 O 414.065 -0.735132 1.57929 0
M  V30 4440 C 411.197 -1.33586 3.13636 0
M  V30 4441 H 412.39 0.464008 2.96289 0
M  V30 4442 H 409.943 0.278816 1.53793 0
M  V30 4443 H 410.678 -2.06593 2.4998 0
M  V30 4444 H 410.463 -0.881125 3.82071 0
M  V30 4445 H 411.953 -1.86759 3.73511 0
M  V30 4446 N 412.39 -1.55475 0.257931 0
M  V30 4447 C 413.801 -1.8511 -0.243135 0
M  V30 4448 C 414.152 -1.17986 -1.5676 0
M  V30 4449 O 413.277 -0.462102 -2.11409 0
M  V30 4450 C 413.872 -3.35826 -0.447929 0
M  V30 4451 C 412.431 -3.65647 -0.893245 0
M  V30 4452 C 411.578 -2.7729 0.0232965 0
M  V30 4453 H 414.529 -1.51261 0.480199 0
M  V30 4454 H 414.55 -3.58002 -1.28898 0
M  V30 4455 H 414.062 -3.84652 0.516196 0
M  V30 4456 H 412.163 -3.22308 -1.86945 0
M  V30 4457 H 412.276 -4.73312 -0.742469 0
M  V30 4458 H 410.64 -2.49942 -0.490021 0
M  V30 4459 H 411.423 -3.28926 0.982994 0
M  V30 4460 N 413.868 0.0150385 -1.57593 0
M  V30 4461 C 414.798 1.01047 -2.10503 0
M  V30 4462 C 415.779 1.36816 -1.01071 0
M  V30 4463 O 416.964 1.45455 -1.28672 0
M  V30 4464 C 414.094 2.30708 -2.59598 0
M  V30 4465 C 413.048 2.09142 -3.73421 0
M  V30 4466 C 412.374 3.44685 -4.08774 0
M  V30 4467 C 413.674 1.46619 -5.01298 0
M  V30 4468 H 415.368 0.569978 -2.93925 0
M  V30 4469 H 412.914 0.272724 -1.41394 0
M  V30 4470 H 414.867 3.00687 -2.95238 0
M  V30 4471 H 413.591 2.76843 -1.73279 0
M  V30 4472 H 412.25 1.41592 -3.38153 0
M  V30 4473 H 411.898 3.88495 -3.195 0
M  V30 4474 H 411.598 3.31077 -4.8545 0
M  V30 4475 H 413.122 4.16004 -4.4696 0
M  V30 4476 H 414.536 2.06535 -5.34805 0
M  V30 4477 H 412.933 1.43544 -5.82679 0
M  V30 4478 H 414.003 0.433611 -4.82957 0
M  V30 4479 N 415.346 1.54954 0.287554 0
M  V30 4480 C 416.595 1.74081 1.01877 0
M  V30 4481 C 416.908 0.541135 1.87966 0
M  V30 4482 O 418.114 0.614491 2.64455 0
M  V30 4483 C 416.57 3.08042 1.86113 0
M  V30 4484 C 416.178 4.35531 1.04961 0
M  V30 4485 C 417.922 3.36523 2.58752 0
M  V30 4486 C 415.829 5.60538 1.88551 0
M  V30 4487 H 414.759 0.64884 0.384087 0
M  V30 4488 H 417.41 1.81426 0.275101 0
M  V30 4489 H 415.792 2.94696 2.64519 0
M  V30 4490 H 416.966 4.59751 0.31074 0
M  V30 4491 H 415.281 4.14085 0.43843 0
M  V30 4492 H 417.878 4.27122 3.21668 0
M  V30 4493 H 418.221 2.56 3.28283 0
M  V30 4494 H 418.754 3.50901 1.87386 0
M  V30 4495 H 415.493 6.43767 1.23466 0
M  V30 4496 H 415.013 5.40483 2.60074 0
M  V30 4497 H 416.692 5.98297 2.46273 0
M  V30 4498 N 416.824 -0.551391 1.4764 0
M  V30 4499 C 418.073 -1.30467 1.53822 0
M  V30 4500 C 418.386 -1.94495 0.207661 0
M  V30 4501 O 419.592 -2.71099 0.147533 0
M  V30 4502 C 418.048 -2.36616 2.71184 0
M  V30 4503 C 417.656 -1.78754 4.10793 0
M  V30 4504 C 419.4 -3.13088 2.86663 0
M  V30 4505 C 417.307 -2.82717 5.19447 0
M  V30 4506 H 416.237 -0.490584 0.572576 0
M  V30 4507 H 418.888 -0.58494 1.73927 0
M  V30 4508 H 417.27 -3.11529 2.4447 0
M  V30 4509 H 418.444 -1.10173 4.47435 0
M  V30 4510 H 416.759 -1.14846 4.00249 0
M  V30 4511 H 419.356 -3.90736 3.65007 0
M  V30 4512 H 419.699 -3.67635 1.95321 0
M  V30 4513 H 420.232 -2.45288 3.13175 0
M  V30 4514 H 416.971 -2.33018 6.12685 0
M  V30 4515 H 416.491 -3.4969 4.87316 0
M  V30 4516 H 418.17 -3.46102 5.46646 0
M  V30 4517 N 418.302 -1.35869 -0.798587 0
M  V30 4518 C 419.25 -1.29491 -1.93222 0
M  V30 4519 C 420.244 -0.18836 -1.6835 0
M  V30 4520 O 421.45 -0.354822 -1.76468 0
M  V30 4521 H 417.825 -0.402901 -0.63496 0
M  V30 4522 H 419.796 -2.25247 -1.9572 0
M  V30 4523 C 418.545 -1.09184 -3.30112 0
M  V30 4524 H 417.868 -1.93574 -3.49813 0
M  V30 4525 H 419.308 -1.08766 -4.09812 0
M  V30 4526 C 417.767 0.203959 -3.36282 0
M  V30 4527 O 418.297 1.19699 -3.83451 0
M  V30 4528 N 416.503 0.245488 -2.89561 0
M  V30 4529 H 416.05 -0.563223 -2.51367 0
M  V30 4530 H 416.008 1.11219 -2.94071 0
M  V30 4531 N 419.78 1.02168 -1.19998 0
M  V30 4532 C 421.196 1.27969 -0.953737 0
M  V30 4533 C 421.396 1.98079 0.369703 0
M  V30 4534 O 420.452 2.27306 1.09947 0
M  V30 4535 C 421.765 2.11971 -2.13281 0
M  V30 4536 C 423.313 2.25255 -2.17323 0
M  V30 4537 C 423.788 3.12632 -3.34702 0
M  V30 4538 N 425.279 3.2022 -3.34684 0
M  V30 4539 C 426.014 3.88039 -4.22153 0
M  V30 4540 N 425.51 4.58027 -5.19791 0
M  V30 4541 N 427.303 3.84511 -4.10009 0
M  V30 4542 H 419.454 0.550794 -2.05134 0
M  V30 4543 H 421.717 0.305683 -0.897364 0
M  V30 4544 H 421.423 1.67785 -3.09097 0
M  V30 4545 H 421.297 3.12699 -2.10949 0
M  V30 4546 H 423.684 2.68667 -1.22073 0
M  V30 4547 H 423.765 1.24053 -2.23706 0
M  V30 4548 H 423.409 2.69926 -4.30235 0
M  V30 4549 H 423.339 4.13909 -3.25556 0
M  V30 4550 H 425.83 2.70382 -2.64012 0
M  V30 4551 H 426.143 5.07429 -5.82868 0
M  V30 4552 H 424.488 4.56869 -5.23733 0
M  V30 4553 H 427.679 3.28978 -3.33003 0
M  V30 4554 H 427.852 4.3709 -4.78389 0
M  V30 4555 N 421.258 1.00505 1.21394 0
M  V30 4556 C 422.507 0.683159 1.89778 0
M  V30 4557 C 422.82 -0.789471 1.7896 0
M  V30 4558 O 424.026 -1.22344 2.42372 0
M  V30 4559 C 422.482 1.17146 3.40301 0
M  V30 4560 C 422.09 2.67017 3.5973 0
M  V30 4561 C 423.834 0.924461 4.14311 0
M  V30 4562 C 421.741 3.09387 5.04017 0
M  V30 4563 H 420.671 0.25183 0.710702 0
M  V30 4564 H 423.322 1.21622 1.37406 0
M  V30 4565 H 421.704 0.566451 3.91928 0
M  V30 4566 H 422.878 3.32968 3.18542 0
M  V30 4567 H 421.193 2.89732 2.99073 0
M  V30 4568 H 423.79 1.21658 5.20676 0
M  V30 4569 H 424.133 -0.139286 4.16067 0
M  V30 4570 H 424.666 1.49226 3.6875 0
M  V30 4571 H 421.405 4.14989 5.07409 0
M  V30 4572 H 420.925 2.48149 5.46061 0
M  V30 4573 H 422.604 3.01371 5.72525 0
M  V30 4574 N 422.737 -1.36956 0.779787 0
M  V30 4575 C 423.985 -1.99097 0.347079 0
M  V30 4576 C 424.306 -1.62206 -1.08232 0
M  V30 4577 O 423.576 -0.891373 -1.74446 0
M  V30 4578 H 422.156 -0.736409 0.125342 0
M  V30 4579 H 424.818 -1.67308 0.999696 0
M  V30 4580 H 423.914 -3.09107 0.431162 0
M  V30 4581 N 424.215 -0.530993 -1.48385 0
M  V30 4582 C 425.463 0.00273189 -2.021 0
M  V30 4583 C 425.784 1.34672 -1.41027 0
M  V30 4584 O 425.054 1.8724 -0.576012 0
M  V30 4585 H 423.634 0.00399774 -0.746989 0
M  V30 4586 H 426.296 -0.695054 -1.82085 0
M  V30 4587 H 425.392 0.11031 -3.11905 0
M  V30 4588 N 425.693 1.55336 -0.266172 0
M  V30 4589 C 426.64 2.22172 0.625165 0
M  V30 4590 C 427.61 1.19211 1.15663 0
M  V30 4591 O 428.795 1.47723 1.20758 0
M  V30 4592 C 425.935 2.93972 1.8076 0
M  V30 4593 C 425.048 4.11632 1.31084 0
M  V30 4594 C 424.183 4.71099 2.45436 0
M  V30 4595 C 423.222 5.8097 1.92718 0
M  V30 4596 N 422.359 6.34538 3.00509 0
M  V30 4597 H 427.199 2.9796 0.0485582 0
M  V30 4598 H 424.736 1.47095 0.0122024 0
M  V30 4599 H 426.694 3.33811 2.50251 0
M  V30 4600 H 425.324 2.20623 2.35638 0
M  V30 4601 H 424.376 3.76975 0.509326 0
M  V30 4602 H 425.688 4.90893 0.884633 0
M  V30 4603 H 424.842 5.13612 3.22936 0
M  V30 4604 H 423.581 3.91096 2.91368 0
M  V30 4605 H 422.586 5.37916 1.13695 0
M  V30 4606 H 423.811 6.62836 1.47733 0
M  V30 4607 H 421.757 5.57433 3.45839 0
M  V30 4608 H 421.674 7.09046 2.62279 0
M  V30 4609 H 422.942 6.81709 3.78011 0
M  V30 4610 N 427.171 -0.0066808 1.57599 0
M  V30 4611 C 428.119 -1.01851 2.09115 0
M  V30 4612 C 429.113 -1.36021 1.00969 0
M  V30 4613 O 430.319 -1.34663 1.19439 0
M  V30 4614 H 426.694 -0.346083 0.667631 0
M  V30 4615 H 428.665 -0.558394 2.93129 0
M  V30 4616 C 427.414 -2.30374 2.60429 0
M  V30 4617 H 426.737 -2.04947 3.43273 0
M  V30 4618 H 428.177 -2.99466 3.00161 0
M  V30 4619 C 426.636 -3.00893 1.51542 0
M  V30 4620 O 427.166 -3.91614 0.894484 0
M  V30 4621 N 425.372 -2.62603 1.2445 0
M  V30 4622 H 424.919 -1.88911 1.75129 0
M  V30 4623 H 424.877 -3.10101 0.518137 0
M  V30 4624 N 428.649 -1.55105 -0.279332 0
M  V30 4625 C 429.612 -1.86783 -1.32834 0
M  V30 4626 C 430.612 -0.74199 -1.42657 0
M  V30 4627 O 431.802 -1.0102 -1.41918 0
M  V30 4628 C 428.934 -2.06746 -2.71052 0
M  V30 4629 H 430.127 -2.8055 -1.05979 0
M  V30 4630 H 427.68 -1.47499 -0.517087 0
M  V30 4631 H 428.415 -1.15339 -3.03097 0
M  V30 4632 H 428.2 -2.88711 -2.65309 0
M  V30 4633 H 429.69 -2.32549 -3.46858 0
M  V30 4634 N 430.127 0.543554 -1.4793 0
M  V30 4635 C 431.057 1.65888 -1.64327 0
M  V30 4636 C 432.038 1.62818 -0.492383 0
M  V30 4637 O 433.223 1.80226 -0.723338 0
M  V30 4638 C 430.353 3.04506 -1.67013 0
M  V30 4639 C 429.307 3.2243 -2.81466 0
M  V30 4640 C 428.633 4.61972 -2.69233 0
M  V30 4641 C 429.933 3.06496 -4.22915 0
M  V30 4642 H 431.627 1.52421 -2.57698 0
M  V30 4643 H 429.173 0.731849 -1.24016 0
M  V30 4644 H 431.126 3.82391 -1.77074 0
M  V30 4645 H 429.85 3.18964 -0.70212 0
M  V30 4646 H 428.509 2.46957 -2.70938 0
M  V30 4647 H 428.157 4.73247 -1.7043 0
M  V30 4648 H 427.857 4.74911 -3.46025 0
M  V30 4649 H 429.381 5.41974 -2.81242 0
M  V30 4650 H 430.795 3.74186 -4.34348 0
M  V30 4651 H 429.192 3.30938 -5.006 0
M  V30 4652 H 430.262 2.03077 -4.40327 0
M  V30 4653 N 431.605 1.3629 0.791371 0
M  V30 4654 C 432.535 1.33137 1.91825 0
M  V30 4655 C 433.516 0.203168 1.68882 0
M  V30 4656 O 434.701 0.400509 1.90025 0
M  V30 4657 C 431.831 1.11793 3.28816 0
M  V30 4658 C 430.785 2.21417 3.66277 0
M  V30 4659 C 430.111 1.85218 5.01596 0
M  V30 4660 C 431.411 3.63489 3.75064 0
M  V30 4661 H 433.105 2.2743 1.9472 0
M  V30 4662 H 430.651 1.09479 0.935437 0
M  V30 4663 H 432.604 1.08222 4.07266 0
M  V30 4664 H 431.328 0.139501 3.26302 0
M  V30 4665 H 429.987 2.2411 2.90121 0
M  V30 4666 H 429.635 0.859544 4.95602 0
M  V30 4667 H 429.335 2.58611 5.27631 0
M  V30 4668 H 430.859 1.832 5.82469 0
M  V30 4669 H 432.273 3.63034 4.43711 0
M  V30 4670 H 430.67 4.35771 4.12582 0
M  V30 4671 H 431.74 3.98536 2.76219 0
M  V30 4672 N 433.083 -1.0153 1.20538 0
M  V30 4673 C 434.013 -2.11972 0.979295 0
M  V30 4674 C 434.994 -1.6985 -0.0921787 0
M  V30 4675 O 436.179 -1.94089 0.0655932 0
M  V30 4676 C 433.309 -3.43201 0.531984 0
M  V30 4677 C 432.263 -3.9907 1.54685 0
M  V30 4678 C 431.589 -5.26082 0.956127 0
M  V30 4679 C 432.889 -4.32313 2.93092 0
M  V30 4680 H 434.583 -2.31143 1.90298 0
M  V30 4681 H 432.129 -1.11079 0.916372 0
M  V30 4682 H 434.082 -4.1985 0.361044 0
M  V30 4683 H 432.806 -3.23792 -0.427327 0
M  V30 4684 H 431.465 -3.2453 1.70517 0
M  V30 4685 H 431.113 -5.02999 -0.0111538 0
M  V30 4686 H 430.813 -5.64426 1.63393 0
M  V30 4687 H 432.337 -6.05386 0.796284 0
M  V30 4688 H 433.751 -4.99845 2.80763 0
M  V30 4689 H 432.148 -4.81774 3.57791 0
M  V30 4690 H 433.218 -3.41025 3.44717 0
M  V30 4691 N 434.561 -1.01147 -1.20859 0
M  V30 4692 C 435.524 -0.582224 -2.21682 0
M  V30 4693 C 436.524 0.344887 -1.57058 0
M  V30 4694 O 437.714 0.134281 -1.73682 0
M  V30 4695 C 434.846 0.150496 -3.40568 0
M  V30 4696 H 436.039 -1.47408 -2.61172 0
M  V30 4697 H 433.592 -0.800695 -1.34233 0
M  V30 4698 H 434.327 1.0575 -3.06574 0
M  V30 4699 H 434.112 -0.515444 -3.88697 0
M  V30 4700 H 435.602 0.438344 -4.15293 0
M  V30 4701 N 436.039 1.36541 -0.78704 0
M  V30 4702 C 437.287 1.98911 -0.357633 0
M  V30 4703 C 437.608 1.62778 1.07371 0
M  V30 4704 O 436.878 0.900612 1.73971 0
M  V30 4705 H 435.458 0.735734 -0.129246 0
M  V30 4706 H 438.12 1.66776 -1.00855 0
M  V30 4707 H 437.216 3.08874 -0.447549 0
M  V30 4708 N 437.518 0.538854 1.48102 0
M  V30 4709 C 438.746 0.0123136 2.06896 0
M  V30 4710 C 439.161 -1.27312 1.39417 0
M  V30 4711 O 438.518 -1.75949 0.484582 0
M  V30 4712 C 438.569 -0.206118 3.60912 0
M  V30 4713 O 438.29 1.0284 4.25859 0
M  V30 4714 C 439.791 -0.772033 4.36526 0
M  V30 4715 H 437.011 0.0375239 0.66995 0
M  V30 4716 H 439.555 0.747032 1.90367 0
M  V30 4717 H 437.71 -0.89091 3.77017 0
M  V30 4718 H 438.124 0.814654 5.18135 0
M  V30 4719 H 439.598 -0.874251 5.45033 0
M  V30 4720 H 440.075 -1.77904 4.01555 0
M  V30 4721 H 440.681 -0.123526 4.25121 0
M  V30 4722 N 438.996 -1.55193 0.274407 0
M  V30 4723 C 440.245 -1.98758 -0.343213 0
M  V30 4724 C 440.558 -1.16624 -1.5703 0
M  V30 4725 O 441.764 -1.5033 -2.26082 0
M  V30 4726 C 440.22 -3.53759 -0.661996 0
M  V30 4727 C 439.828 -4.4467 0.54524 0
M  V30 4728 C 441.572 -4.05916 -1.24228 0
M  V30 4729 C 439.479 -5.91058 0.201084 0
M  V30 4730 H 438.409 -0.742353 -0.132014 0
M  V30 4731 H 441.06 -1.79545 0.378948 0
M  V30 4732 H 439.442 -3.68772 -1.44304 0
M  V30 4733 H 440.616 -4.41426 1.32212 0
M  V30 4734 H 438.931 -4.03143 1.04232 0
M  V30 4735 H 441.528 -5.12831 -1.51357 0
M  V30 4736 H 441.871 -3.54908 -2.17592 0
M  V30 4737 H 442.404 -3.9434 -0.523542 0
M  V30 4738 H 439.143 -6.46161 1.10258 0
M  V30 4739 H 438.663 -5.97373 -0.539045 0
M  V30 4740 H 440.342 -6.46669 -0.206954 0
M  V30 4741 N 440.474 -0.00167713 -1.576 0
M  V30 4742 C 441.407 1.02317 -2.03977 0
M  V30 4743 C 442.385 1.33381 -0.929963 0
M  V30 4744 O 443.569 1.45517 -1.19822 0
M  V30 4745 C 440.696 2.35035 -2.43878 0
M  V30 4746 C 439.742 2.19621 -3.65607 0
M  V30 4747 S 440.575 1.52068 -5.13455 0
M  V30 4748 C 441.731 2.86212 -5.56627 0
M  V30 4749 H 441.964 0.628285 -2.90585 0
M  V30 4750 H 439.497 0.209239 -1.52976 0
M  V30 4751 H 441.455 3.11345 -2.67534 0
M  V30 4752 H 440.116 2.71663 -1.57665 0
M  V30 4753 H 439.309 3.1767 -3.91282 0
M  V30 4754 H 438.911 1.51455 -3.41961 0
M  V30 4755 H 441.203 3.82509 -5.59189 0
M  V30 4756 H 442.146 2.65235 -6.56549 0
M  V30 4757 H 442.554 2.90199 -4.84195 0
M  V30 4758 N 441.952 1.55251 0.271103 0
M  V30 4759 C 443.177 1.80306 1.02491 0
M  V30 4760 C 443.602 0.575457 1.79081 0
M  V30 4761 O 442.96 -0.474987 1.74967 0
M  V30 4762 C 443.008 3.02832 1.95768 0
M  V30 4763 O 442.112 2.78051 3.04568 0
M  V30 4764 H 441.453 0.595896 0.292923 0
M  V30 4765 H 443.983 2.02397 0.299436 0
M  V30 4766 H 443.993 3.31616 2.37686 0
M  V30 4767 H 442.668 3.9183 1.39434 0
M  V30 4768 H 441.245 2.60369 2.66951 0
M  V30 4769 N 443.43 -0.535701 1.48216 0
M  V30 4770 C 444.676 -1.29375 1.56173 0
M  V30 4771 C 445.009 -1.92804 0.232429 0
M  V30 4772 O 444.284 -1.78992 -0.761048 0
M  V30 4773 C 444.567 -2.38747 2.69577 0
M  V30 4774 C 444.42 -1.80046 4.12193 0
M  V30 4775 C 445.739 -3.40551 2.78771 0
M  V30 4776 H 442.858 -0.469027 0.568491 0
M  V30 4777 H 445.5 -0.597358 1.80365 0
M  V30 4778 H 443.65 -2.98147 2.4908 0
M  V30 4779 H 445.322 -1.24742 4.44114 0
M  V30 4780 H 443.565 -1.10609 4.19462 0
M  V30 4781 H 444.236 -2.59212 4.87353 0
M  V30 4782 H 446.712 -2.91099 2.97322 0
M  V30 4783 H 445.588 -4.1448 3.59857 0
M  V30 4784 H 445.849 -4.00746 1.86696 0
M  V30 4785 N 444.908 -1.36708 -0.784132 0
M  V30 4786 C 446.324 -1.17237 -1.08294 0
M  V30 4787 C 446.524 -5.93947e-05 -2.015 0
M  V30 4788 O 445.58 0.663686 -2.43622 0
M  V30 4789 C 446.893 -2.48557 -1.69233 0
M  V30 4790 C 448.441 -2.54968 -1.8155 0
M  V30 4791 C 448.916 -3.86388 -2.45904 0
M  V30 4792 N 450.407 -3.87762 -2.53367 0
M  V30 4793 C 451.142 -4.86191 -3.03983 0
M  V30 4794 N 450.638 -5.95015 -3.54866 0
M  V30 4795 N 452.431 -4.73606 -3.02743 0
M  V30 4796 H 444.582 -2.11758 -0.16501 0
M  V30 4797 H 446.845 -0.93822 -0.135822 0
M  V30 4798 H 446.551 -3.34638 -1.08215 0
M  V30 4799 H 446.425 -2.64748 -2.68679 0
M  V30 4800 H 448.812 -1.69302 -2.41704 0
M  V30 4801 H 448.893 -2.42672 -0.80895 0
M  V30 4802 H 448.537 -4.72462 -1.86392 0
M  V30 4803 H 448.467 -3.95982 -3.4714 0
M  V30 4804 H 450.958 -3.09145 -2.17343 0
M  V30 4805 H 451.271 -6.66086 -3.91854 0
M  V30 4806 H 449.616 -5.98676 -3.53003 0
M  V30 4807 H 452.807 -3.87717 -2.62284 0
M  V30 4808 H 452.98 -5.50473 -3.41881 0
M  V30 4809 N 446.386 1.0089 -1.21074 0
M  V30 4810 C 447.635 1.74019 -1.01981 0
M  V30 4811 C 447.948 1.90408 0.447665 0
M  V30 4812 O 449.154 2.60707 0.757906 0
M  V30 4813 C 447.61 3.13026 -1.77603 0
M  V30 4814 C 447.218 3.04623 -3.28495 0
M  V30 4815 C 448.962 3.90312 -1.66904 0
M  V30 4816 C 446.869 4.38685 -3.96623 0
M  V30 4817 H 445.799 0.652422 -0.377971 0
M  V30 4818 H 448.45 1.12755 -1.44771 0
M  V30 4819 H 446.832 3.74878 -1.27604 0
M  V30 4820 H 448.006 2.52032 -3.85767 0
M  V30 4821 H 446.321 2.40827 -3.39693 0
M  V30 4822 H 448.918 4.8951 -2.15138 0
M  V30 4823 H 449.261 4.11558 -0.62658 0
M  V30 4824 H 449.794 3.35104 -2.14359 0
M  V30 4825 H 446.533 4.22641 -5.01054 0
M  V30 4826 H 446.053 4.91252 -3.4414 0
M  V30 4827 H 447.732 5.075 -4.01314 0
M  V30 4828 N 447.864 1.01787 1.20321 0
M  V30 4829 C 449.113 0.703249 1.89043 0
M  V30 4830 C 449.426 -0.770445 1.79787 0
M  V30 4831 O 450.632 -1.19767 2.43656 0
M  V30 4832 C 449.088 1.20749 3.3904 0
M  V30 4833 C 448.696 2.70817 3.56878 0
M  V30 4834 C 450.44 0.968352 4.13308 0
M  V30 4835 C 448.347 3.14716 5.00708 0
M  V30 4836 H 447.277 0.259354 0.707991 0
M  V30 4837 H 449.928 1.23072 1.36108 0
M  V30 4838 H 448.31 0.607989 3.91305 0
M  V30 4839 H 449.484 3.36327 3.14993 0
M  V30 4840 H 447.799 2.92888 2.95983 0
M  V30 4841 H 450.396 1.27173 5.19356 0
M  V30 4842 H 450.739 -0.095149 4.16191 0
M  V30 4843 H 451.272 1.53129 3.67146 0
M  V30 4844 H 448.011 4.20347 5.02979 0
M  V30 4845 H 447.531 2.53927 5.43398 0
M  V30 4846 H 449.21 3.07426 5.69296 0
M  V30 4847 N 449.342 -1.36122 0.79427 0
M  V30 4848 C 450.59 -1.98718 0.368177 0
M  V30 4849 C 450.911 -1.63345 -1.06506 0
M  V30 4850 O 450.181 -0.909825 -1.73491 0
M  V30 4851 H 448.761 -0.735038 0.133146 0
M  V30 4852 H 451.423 -1.66239 1.01739 0
M  V30 4853 H 450.519 -3.08633 0.463923 0
M  V30 4854 N 450.82 -0.546701 -1.47814 0
M  V30 4855 C 452.045 -0.021268 -2.07389 0
M  V30 4856 C 452.47 1.25822 -1.39822 0
M  V30 4857 O 451.828 1.75111 -0.46968 0
M  V30 4858 C 451.876 0.168502 -3.60206 0
M  V30 4859 O 450.98 1.23347 -3.93522 0
M  V30 4860 H 450.321 -0.0466108 -0.662362 0
M  V30 4861 H 452.851 -0.759387 -1.89985 0
M  V30 4862 H 452.861 0.385982 -4.0617 0
M  V30 4863 H 451.536 -0.766075 -4.08784 0
M  V30 4864 H 450.113 0.997319 -3.59316 0
M  V30 4865 N 452.299 1.55045 -0.282633 0
M  V30 4866 C 453.524 2.04628 0.337977 0
M  V30 4867 C 453.949 1.15937 1.48123 0
M  V30 4868 O 453.307 0.159532 1.80597 0
M  V30 4869 C 453.355 3.51854 0.78936 0
M  V30 4870 O 452.459 3.66236 1.89592 0
M  V30 4871 H 451.8 0.660434 0.0687261 0
M  V30 4872 H 454.33 2.00261 -0.419124 0
M  V30 4873 H 454.34 3.93361 1.08311 0
M  V30 4874 H 453.015 4.15873 -0.0470419 0
M  V30 4875 H 451.592 3.36633 1.60413 0
M  V30 4876 N 453.777 0.010035 1.57597 0
M  V30 4877 C 455.024 -0.6727 1.91 0
M  V30 4878 C 455.352 -1.73219 0.884614 0
M  V30 4879 O 454.607 -1.95395 -0.109215 0
M  V30 4880 C 454.906 -1.34434 3.31153 0
M  V30 4881 C 454.572 -0.417083 4.48967 0
M  V30 4882 C 453.234 -0.161809 4.80928 0
M  V30 4883 C 455.586 0.220753 5.20732 0
M  V30 4884 C 452.914 0.739426 5.82022 0
M  V30 4885 C 455.266 1.10993 6.22787 0
M  V30 4886 C 453.93 1.37428 6.532 0
M  V30 4887 H 453.2 -0.246158 0.698918 0
M  V30 4888 H 455.847 0.0677145 1.9138 0
M  V30 4889 H 454.152 -2.15905 3.26944 0
M  V30 4890 H 455.849 -1.87883 3.54261 0
M  V30 4891 H 452.439 -0.626217 4.24001 0
M  V30 4892 H 456.623 0.0365643 4.96287 0
M  V30 4893 H 451.879 0.952139 6.03941 0
M  V30 4894 H 456.053 1.61046 6.77523 0
M  V30 4895 H 453.68 2.0743 7.31353 0
M  V30 4896 N 455.255 -1.55392 -0.262866 0
M  V30 4897 C 456.218 -1.88181 -1.30846 0
M  V30 4898 C 457.218 -0.757079 -1.41862 0
M  V30 4899 O 458.408 -1.02519 -1.40838 0
M  V30 4900 C 455.54 -2.09609 -2.68844 0
M  V30 4901 H 456.733 -2.81659 -1.02997 0
M  V30 4902 H 454.286 -1.48039 -0.501414 0
M  V30 4903 H 455.021 -1.18547 -3.01856 0
M  V30 4904 H 454.806 -2.91508 -2.62231 0
M  V30 4905 H 456.296 -2.36215 -3.44372 0
M  V30 4906 N 456.733 0.527833 -1.48498 0
M  V30 4907 C 457.961 1.30823 -1.6029 0
M  V30 4908 C 458.376 1.86945 -0.263974 0
M  V30 4909 O 457.733 1.6651 0.747034 0
M  V30 4910 C 457.784 2.45756 -2.65116 0
M  V30 4911 O 457.505 1.91946 -3.93813 0
M  V30 4912 C 459.006 3.37543 -2.87367 0
M  V30 4913 H 456.226 0.397763 -0.540394 0
M  V30 4914 H 458.77 0.636529 -1.94341 0
M  V30 4915 H 456.925 3.08806 -2.33917 0
M  V30 4916 H 457.339 2.67195 -4.51339 0
M  V30 4917 H 458.813 4.14532 -3.6451 0
M  V30 4918 H 459.29 3.92905 -1.9627 0
M  V30 4919 H 459.896 2.80283 -3.19878 0
M  V30 4920 N 458.211 1.37122 0.776871 0
M  V30 4921 C 459.436 1.354 1.57104 0
M  V30 4922 C 459.861 -0.0595562 1.88006 0
M  V30 4923 O 459.219 -1.03514 1.48844 0
M  V30 4924 C 459.267 2.19472 2.8612 0
M  V30 4925 O 458.371 1.59582 3.80273 0
M  V30 4926 H 457.712 0.462869 0.476076 0
M  V30 4927 H 460.242 1.80577 0.961932 0
M  V30 4928 H 460.252 2.32502 3.35271 0
M  V30 4929 H 458.927 3.22222 2.62956 0
M  V30 4930 H 457.504 1.55564 3.38902 0
M  V30 4931 N 459.689 -1.00246 1.21608 0
M  V30 4932 C 460.652 -2.07233 0.979133 0
M  V30 4933 C 461.652 -1.6072 -0.0508219 0
M  V30 4934 O 462.842 -1.73196 0.186712 0
M  V30 4935 C 459.974 -3.37546 0.477016 0
M  V30 4936 H 461.167 -2.29687 1.92831 0
M  V30 4937 H 458.72 -1.17261 1.03342 0
M  V30 4938 H 459.455 -3.20773 -0.476966 0
M  V30 4939 H 459.24 -3.72638 1.21997 0
M  V30 4940 H 460.73 -4.16285 0.331181 0
M  V30 4941 N 461.167 -1.02423 -1.1978 0
M  V30 4942 C 462.097 -0.62157 -2.25075 0
M  V30 4943 C 463.078 0.367148 -1.6609 0
M  V30 4944 O 464.263 0.250892 -1.92573 0
M  V30 4945 C 461.393 0.0331826 -3.47284 0
M  V30 4946 C 460.347 -0.877323 -4.18912 0
M  V30 4947 C 459.673 -0.0879296 -5.34628 0
M  V30 4948 C 460.973 -2.18892 -4.74219 0
M  V30 4949 H 462.667 -1.50179 -2.59011 0
M  V30 4950 H 460.213 -0.723547 -1.24502 0
M  V30 4951 H 462.166 0.326488 -4.20133 0
M  V30 4952 H 460.89 0.948164 -3.12534 0
M  V30 4953 H 459.549 -1.15475 -3.47938 0
M  V30 4954 H 459.197 0.828941 -4.96123 0
M  V30 4955 H 458.897 -0.694359 -5.83483 0
M  V30 4956 H 460.421 0.198743 -6.10276 0
M  V30 4957 H 461.835 -1.95746 -5.38847 0
M  V30 4958 H 460.232 -2.74686 -5.33542 0
M  V30 4959 H 461.302 -2.84674 -3.92541 0
M  V30 4960 N 462.645 1.35699 -0.801477 0
M  V30 4961 C 463.555 2.33661 -0.209691 0
M  V30 4962 C 464.571 1.6162 0.644591 0
M  V30 4963 O 465.747 1.93529 0.557545 0
M  V30 4964 C 462.812 3.40816 0.636033 0
M  V30 4965 C 461.873 4.28639 -0.238147 0
M  V30 4966 C 461.106 5.30676 0.567307 0
M  V30 4967 O 461.329 5.41174 1.8024 0
M  V30 4968 O 460.263 6.01887 -0.0391336 0
M  V30 4969 H 464.089 2.8606 -1.01996 0
M  V30 4970 H 461.674 1.38379 -0.563164 0
M  V30 4971 H 463.556 4.06301 1.11791 0
M  V30 4972 H 462.231 2.90696 1.42399 0
M  V30 4973 H 461.138 3.66152 -0.767044 0
M  V30 4974 H 462.471 4.82143 -0.989915 0
M  V30 4975 N 464.123 0.554532 1.47522 0
M  V30 4976 C 465.369 0.0295227 2.02779 0
M  V30 4977 C 465.702 -1.31582 1.42828 0
M  V30 4978 O 464.977 -1.85561 0.582872 0
M  V30 4979 C 465.26 -0.0664057 3.60039 0
M  V30 4980 C 465.113 1.30585 4.30427 0
M  V30 4981 C 466.432 -0.781162 4.33112 0
M  V30 4982 H 463.551 0.0122027 0.736899 0
M  V30 4983 H 466.193 0.716305 1.7598 0
M  V30 4984 H 464.343 -0.651307 3.83002 0
M  V30 4985 H 466.015 1.93374 4.18813 0
M  V30 4986 H 464.258 1.88125 3.90886 0
M  V30 4987 H 464.929 1.19147 5.38988 0
M  V30 4988 H 467.405 -0.284565 4.15126 0
M  V30 4989 H 466.281 -0.817237 5.42782 0
M  V30 4990 H 466.542 -1.83672 4.0214 0
M  V30 4991 N 465.601 -1.54893 0.290851 0
M  V30 4992 C 466.847 -2.0023 -0.321867 0
M  V30 4993 C 467.18 -1.179 -1.54316 0
M  V30 4994 O 466.455 -0.25293 -1.92848 0
M  V30 4995 C 466.738 -3.53456 -0.688515 0
M  V30 4996 C 466.591 -4.46532 0.541209 0
M  V30 4997 C 467.91 -4.13057 -1.51895 0
M  V30 4998 H 465.029 -0.727891 -0.115515 0
M  V30 4999 H 467.671 -1.85722 0.400931 0
M  V30 5000 H 465.821 -3.6595 -1.30433 0
M  V30 5001 H 467.493 -4.4596 1.17973 0
M  V30 5002 H 465.736 -4.17545 1.17636 0
M  V30 5003 H 466.407 -5.51475 0.240675 0
M  V30 5004 H 468.883 -4.03937 -0.99872 0
M  V30 5005 H 467.759 -5.20448 -1.74429 0
M  V30 5006 H 468.02 -3.64284 -2.50498 0
M  V30 5007 N 467.08 -0.0183926 -1.57589 0
M  V30 5008 C 468.329 0.66185 -1.90532 0
M  V30 5009 C 468.642 1.73904 -0.895366 0
M  V30 5010 O 469.848 2.47518 -1.11566 0
M  V30 5011 C 468.304 1.22844 -3.38286 0
M  V30 5012 C 467.912 0.185103 -4.47617 0
M  V30 5013 C 469.656 1.88581 -3.80312 0
M  V30 5014 C 467.563 0.762723 -5.86461 0
M  V30 5015 H 466.493 0.250972 -0.711006 0
M  V30 5016 H 469.144 -0.0819435 -1.83317 0
M  V30 5017 H 467.526 2.0235 -3.40398 0
M  V30 5018 H 468.7 -0.58671 -4.5705 0
M  V30 5019 H 467.015 -0.372889 -4.14727 0
M  V30 5020 H 469.612 2.32735 -4.81392 0
M  V30 5021 H 469.955 2.72408 -3.14801 0
M  V30 5022 H 470.488 1.15782 -3.80578 0
M  V30 5023 H 467.227 -0.0371713 -6.55489 0
M  V30 5024 H 466.747 1.50327 -5.80656 0
M  V30 5025 H 468.426 1.25576 -6.34697 0
M  V30 5026 N 468.558 1.5553 0.254621 0
M  V30 5027 C 469.488 1.9268 1.31897 0
M  V30 5028 C 470.469 0.790797 1.506 0
M  V30 5029 O 471.654 1.05045 1.63337 0
M  V30 5030 C 468.784 2.21477 2.67517 0
M  V30 5031 C 467.738 3.37256 2.63519 0
M  V30 5032 C 467.064 3.51576 4.02862 0
M  V30 5033 C 468.364 4.73157 2.21179 0
M  V30 5034 H 470.058 2.81832 1.01051 0
M  V30 5035 H 467.604 1.35599 0.484662 0
M  V30 5036 H 469.557 2.46055 3.42104 0
M  V30 5037 H 468.281 1.29144 2.99982 0
M  V30 5038 H 466.94 3.12675 1.9139 0
M  V30 5039 H 466.588 2.56676 4.32581 0
M  V30 5040 H 466.288 4.2943 4.01078 0
M  V30 5041 H 467.812 3.78467 4.79161 0
M  V30 5042 H 469.226 4.97158 2.85494 0
M  V30 5043 H 467.623 5.54058 2.30521 0
M  V30 5044 H 468.693 4.70739 1.16332 0
M  V30 5045 N 470.036 -0.519951 1.48776 0
M  V30 5046 C 470.983 -1.62352 1.64044 0
M  V30 5047 C 471.953 -1.58945 0.482251 0
M  V30 5048 O 473.138 -1.77219 0.706971 0
M  V30 5049 C 470.278 -3.00579 1.69547 0
M  V30 5050 C 469.391 -3.14145 2.96541 0
M  V30 5051 C 468.526 -4.42991 2.93142 0
M  V30 5052 C 467.565 -4.50122 4.14797 0
M  V30 5053 N 466.702 -5.7037 4.09418 0
M  V30 5054 H 471.542 -1.48643 2.58281 0
M  V30 5055 H 469.079 -0.723516 1.28077 0
M  V30 5056 H 471.037 -3.80671 1.70719 0
M  V30 5057 H 469.667 -3.13036 0.787918 0
M  V30 5058 H 468.719 -2.27239 3.05068 0
M  V30 5059 H 470.031 -3.15275 3.86527 0
M  V30 5060 H 469.185 -5.31385 2.92772 0
M  V30 5061 H 467.924 -4.44398 2.00902 0
M  V30 5062 H 466.929 -3.60133 4.15433 0
M  V30 5063 H 468.154 -4.50445 5.08208 0
M  V30 5064 H 466.1 -5.72655 3.20004 0
M  V30 5065 H 466.017 -5.73036 4.93119 0
M  V30 5066 H 467.285 -6.61023 4.13121 0
M  V30 5067 N 471.514 -1.37532 -0.769588 0
M  V30 5068 C 472.742 -1.36059 -1.55871 0
M  V30 5069 C 473.157 0.053544 -1.88724 0
M  V30 5070 O 472.514 1.01591 -1.5161 0
M  V30 5071 C 472.565 -2.20107 -2.86767 0
M  V30 5072 O 472.286 -3.56009 -2.55321 0
M  V30 5073 C 473.787 -2.26636 -3.80987 0
M  V30 5074 H 471.007 -0.465967 -0.482821 0
M  V30 5075 H 473.551 -1.80901 -0.953686 0
M  V30 5076 H 471.706 -1.78768 -3.43687 0
M  V30 5077 H 472.12 -4.0009 -3.39158 0
M  V30 5078 H 473.594 -2.89763 -4.69831 0
M  V30 5079 H 474.071 -1.2754 -4.20274 0
M  V30 5080 H 474.677 -2.68296 -3.29996 0
M  V30 5081 N 472.992 0.995999 -1.22138 0
M  V30 5082 C 473.922 2.10387 -1.01289 0
M  V30 5083 C 474.903 1.69975 0.0651454 0
M  V30 5084 O 476.088 1.9396 -0.0964628 0
M  V30 5085 C 473.218 3.42312 -0.586517 0
M  V30 5086 C 472.172 3.96558 -1.61014 0
M  V30 5087 C 471.498 5.24494 -1.0397 0
M  V30 5088 C 472.798 4.27595 -2.99933 0
M  V30 5089 H 474.492 2.28086 -1.93951 0
M  V30 5090 H 472.038 1.09607 -0.933928 0
M  V30 5091 H 473.991 4.19223 -0.427793 0
M  V30 5092 H 472.715 3.24431 0.375761 0
M  V30 5093 H 471.374 3.21776 -1.75658 0
M  V30 5094 H 471.022 5.02953 -0.0688703 0
M  V30 5095 H 470.722 5.61755 -1.72352 0
M  V30 5096 H 472.246 6.04042 -0.892494 0
M  V30 5097 H 473.66 4.95315 -2.8868 0
M  V30 5098 H 472.057 4.76021 -3.6541 0
M  V30 5099 H 473.127 3.35498 -3.50099 0
M  V30 5100 N 474.47 1.03057 1.19235 0
M  V30 5101 C 475.42 0.583386 2.2041 0
M  V30 5102 C 476.404 -0.368776 1.56617 0
M  V30 5103 O 477.596 -0.189471 1.75983 0
M  V30 5104 C 474.725 -0.0626534 3.43243 0
M  V30 5105 C 473.811 0.91205 4.14177 0
M  V30 5106 N 474.202 2.07514 4.61272 0
M  V30 5107 C 472.5 0.735859 4.39888 0
M  V30 5108 C 473.201 2.69003 5.15764 0
M  V30 5109 N 472.177 1.96954 5.06666 0
M  V30 5110 H 475.979 1.46988 2.54503 0
M  V30 5111 H 473.493 0.897785 1.35328 0
M  V30 5112 H 475.49 -0.400653 4.1497 0
M  V30 5113 H 474.15 -0.944813 3.1065 0
M  V30 5114 H 475.161 2.45448 4.56043 0
M  V30 5115 H 471.838 -0.0970656 4.17387 0
M  V30 5116 H 473.228 3.67514 5.6248 0
M  V30 5117 N 475.948 -1.35272 0.808662 0
M  V30 5118 C 476.881 -2.27595 0.165994 0
M  V30 5119 C 477.859 -1.48189 -0.669241 0
M  V30 5120 O 479.043 -1.77444 -0.636073 0
M  V30 5121 C 476.17 -3.29843 -0.769505 0
M  V30 5122 C 475.216 -4.26498 -0.0136267 0
M  V30 5123 S 476.049 -5.18878 1.32384 0
M  V30 5124 C 477.205 -6.24666 0.392838 0
M  V30 5125 H 477.438 -2.81755 0.948756 0
M  V30 5126 H 474.971 -1.42103 0.603828 0
M  V30 5127 H 476.929 -3.89247 -1.30374 0
M  V30 5128 H 475.59 -2.74558 -1.52567 0
M  V30 5129 H 474.783 -4.98769 -0.724227 0
M  V30 5130 H 474.385 -3.71274 0.450713 0
M  V30 5131 H 476.677 -6.7619 -0.4211 0
M  V30 5132 H 477.62 -6.99741 1.0848 0
M  V30 5133 H 478.028 -5.64499 -0.0123908 0
M  V30 5134 N 477.426 -0.562348 -1.47226 0
M  V30 5135 C 478.673 -0.0402165 -2.0246 0
M  V30 5136 C 479.001 1.31169 -1.43614 0
M  V30 5137 O 478.256 1.86805 -0.5833 0
M  V30 5138 C 478.555 0.0969817 -3.57268 0
M  V30 5139 C 478.221 -1.1847 -4.35058 0
M  V30 5140 C 476.883 -1.53588 -4.56031 0
M  V30 5141 C 479.235 -2.03378 -4.79882 0
M  V30 5142 C 476.563 -2.73452 -5.19077 0
M  V30 5143 C 478.915 -3.2245 -5.44251 0
M  V30 5144 C 477.579 -3.57876 -5.63455 0
M  V30 5145 H 476.849 -0.0147163 -0.740854 0
M  V30 5146 H 479.496 -0.734895 -1.76838 0
M  V30 5147 H 477.801 0.87466 -3.81912 0
M  V30 5148 H 479.498 0.516408 -3.97661 0
M  V30 5149 H 476.088 -0.90126 -4.19017 0
M  V30 5150 H 480.272 -1.77553 -4.63453 0
M  V30 5151 H 475.528 -3.01062 -5.32139 0
M  V30 5152 H 479.702 -3.88526 -5.77945 0
M  V30 5153 H 477.329 -4.50849 -6.12078 0
M  V30 5154 N 478.904 1.54736 -0.299062 0
M  V30 5155 C 479.814 2.27127 0.587413 0
M  V30 5156 C 480.83 1.30575 1.15005 0
M  V30 5157 O 482.006 1.63554 1.17525 0
M  V30 5158 C 479.071 2.99645 1.74395 0
M  V30 5159 C 478.132 4.11731 1.21559 0
M  V30 5160 C 477.365 4.80781 2.317 0
M  V30 5161 O 477.588 4.4918 3.51558 0
M  V30 5162 O 476.522 5.68226 1.98501 0
M  V30 5163 H 480.348 3.037 0.000250109 0
M  V30 5164 H 477.933 1.49256 -0.0655919 0
M  V30 5165 H 479.815 3.45138 2.4178 0
M  V30 5166 H 478.49 2.25969 2.31775 0
M  V30 5167 H 477.397 3.70641 0.507514 0
M  V30 5168 H 478.73 4.87379 0.687233 0
M  V30 5169 N 480.382 0.0267497 1.57577 0
M  V30 5170 C 481.628 -0.653371 1.91987 0
M  V30 5171 C 481.961 -1.71915 0.903263 0
M  V30 5172 O 481.236 -1.94358 -0.0743387 0
M  V30 5173 C 481.519 -1.272 3.36886 0
M  V30 5174 C 481.372 -0.215938 4.49281 0
M  V30 5175 C 482.691 -2.19069 3.81703 0
M  V30 5176 H 479.81 -0.236047 0.698177 0
M  V30 5177 H 482.452 0.0835236 1.89816 0
M  V30 5178 H 480.602 -1.90005 3.38866 0
M  V30 5179 H 482.274 0.41449 4.59434 0
M  V30 5180 H 480.517 0.458855 4.31366 0
M  V30 5181 H 481.188 -0.688347 5.47691 0
M  V30 5182 H 483.664 -1.66253 3.81444 0
M  V30 5183 H 482.54 -2.59307 4.83788 0
M  V30 5184 H 482.801 -3.08087 3.17072 0
M  V30 5185 N 481.861 -1.55662 -0.24637 0
M  V30 5186 C 483.272 -1.67953 -0.81539 0
M  V30 5187 C 483.623 -0.624302 -1.86002 0
M  V30 5188 O 482.748 0.229328 -2.15181 0
M  V30 5189 C 483.343 -3.04484 -1.48576 0
M  V30 5190 C 481.902 -3.18713 -2.00248 0
M  V30 5191 C 481.049 -2.6383 -0.853766 0
M  V30 5192 H 484 -1.58685 -0.0221692 0
M  V30 5193 H 484.021 -2.98959 -2.3538 0
M  V30 5194 H 483.533 -3.81264 -0.725222 0
M  V30 5195 H 481.634 -2.46757 -2.79181 0
M  V30 5196 H 481.747 -4.25628 -2.1995 0
M  V30 5197 H 480.111 -2.21667 -1.25442 0
M  V30 5198 H 480.894 -3.43135 -0.106302 0
M  V30 5199 N 483.339 0.512053 -1.4905 0
M  V30 5200 C 484.586 1.26686 -1.57978 0
M  V30 5201 C 484.914 1.92733 -0.261553 0
M  V30 5202 O 484.169 1.80772 0.749667 0
M  V30 5203 C 484.468 2.36446 -2.68008 0
M  V30 5204 C 484.134 1.87932 -4.09869 0
M  V30 5205 C 482.796 1.74419 -4.48477 0
M  V30 5206 C 485.148 1.5149 -4.98698 0
M  V30 5207 C 482.476 1.22827 -5.73699 0
M  V30 5208 C 484.828 1.01355 -6.24428 0
M  V30 5209 C 483.492 0.864735 -6.61875 0
M  V30 5210 H 482.762 0.463577 -0.578081 0
M  V30 5211 H 485.409 0.569421 -1.82838 0
M  V30 5212 H 483.714 3.11933 -2.37076 0
M  V30 5213 H 485.411 2.9453 -2.72127 0
M  V30 5214 H 482.001 1.99405 -3.79389 0
M  V30 5215 H 486.185 1.60782 -4.69535 0
M  V30 5216 H 481.441 1.10008 -6.01422 0
M  V30 5217 H 485.615 0.722351 -6.92644 0
M  V30 5218 H 483.242 0.462777 -7.5879 0
M  V30 5219 N 484.817 1.37938 0.762283 0
M  V30 5220 C 485.747 1.37176 1.88958 0
M  V30 5221 C 486.728 0.238945 1.68413 0
M  V30 5222 O 487.913 0.440726 1.89133 0
M  V30 5223 C 485.043 1.18742 3.2637 0
M  V30 5224 C 483.997 2.29136 3.61498 0
M  V30 5225 C 483.323 1.95816 4.97554 0
M  V30 5226 C 484.623 3.71363 3.6727 0
M  V30 5227 H 486.317 2.31509 1.89853 0
M  V30 5228 H 483.863 1.11438 0.912005 0
M  V30 5229 H 485.816 1.16837 4.04879 0
M  V30 5230 H 484.54 0.208683 3.25933 0
M  V30 5231 H 483.199 2.30213 2.85303 0
M  V30 5232 H 482.847 0.964475 4.93667 0
M  V30 5233 H 482.547 2.69745 5.22026 0
M  V30 5234 H 484.071 1.95513 5.78452 0
M  V30 5235 H 485.485 3.72364 4.35911 0
M  V30 5236 H 483.882 4.44425 4.03245 0
M  V30 5237 H 484.952 4.04305 2.67704 0
M  V30 5238 N 486.295 -0.989507 1.22664 0
M  V30 5239 C 487.225 -2.09847 1.02404 0
M  V30 5240 C 488.206 -1.70007 -0.0561303 0
M  V30 5241 O 489.391 -1.93906 0.106748 0
M  V30 5242 C 486.521 -3.41996 0.604663 0
M  V30 5243 C 485.475 -3.95699 1.63115 0
M  V30 5244 C 484.801 -5.23936 1.0675 0
M  V30 5245 C 486.101 -4.25999 3.02196 0
M  V30 5246 H 487.795 -2.27054 1.95158 0
M  V30 5247 H 485.341 -1.09111 0.939727 0
M  V30 5248 H 487.294 -4.1899 0.45002 0
M  V30 5249 H 486.018 -3.24626 -0.35855 0
M  V30 5250 H 484.677 -3.2084 1.77362 0
M  V30 5251 H 484.325 -5.02909 0.0955422 0
M  V30 5252 H 484.025 -5.60833 1.75328 0
M  V30 5253 H 485.549 -6.0356 0.924516 0
M  V30 5254 H 486.963 -4.93777 2.91303 0
M  V30 5255 H 485.36 -4.74076 3.67929 0
M  V30 5256 H 486.43 -3.33636 3.51873 0
M  V30 5257 N 487.773 -1.03688 -1.18687 0
M  V30 5258 C 489.019 -0.739123 -1.88851 0
M  V30 5259 C 489.352 0.731042 -1.79915 0
M  V30 5260 O 488.627 1.53313 -1.19688 0
M  V30 5261 C 488.91 -1.20106 -3.3948 0
M  V30 5262 C 488.763 -2.73304 -3.57246 0
M  V30 5263 C 490.082 -0.788134 -4.32986 0
M  V30 5264 H 487.201 -0.269978 -0.68577 0
M  V30 5265 H 489.843 -1.28822 -1.3966 0
M  V30 5266 H 487.993 -0.733915 -3.81505 0
M  V30 5267 H 489.665 -3.28027 -3.24339 0
M  V30 5268 H 487.908 -3.13313 -3.00029 0
M  V30 5269 H 488.579 -3.00684 -4.62918 0
M  V30 5270 H 491.055 -1.19005 -3.98719 0
M  V30 5271 H 489.931 -1.13915 -5.36949 0
M  V30 5272 H 490.192 0.308988 -4.41019 0
M  V30 5273 N 489.251 1.34841 -0.815825 0
M  V30 5274 C 490.499 1.98107 -0.399744 0
M  V30 5275 C 490.82 1.65019 1.03894 0
M  V30 5276 O 490.09 0.937311 1.72021 0
M  V30 5277 H 488.67 0.732827 -0.144823 0
M  V30 5278 H 491.332 1.64599 -1.0437 0
M  V30 5279 H 490.428 3.07856 -0.512965 0
M  V30 5280 N 490.729 0.570148 1.46925 0
M  V30 5281 C 491.969 0.0534743 2.0433 0
M  V30 5282 C 492.333 -1.27729 1.4335 0
M  V30 5283 O 493.534 -1.88244 1.91879 0
M  V30 5284 C 491.805 -0.0244296 3.57392 0
M  V30 5285 S 493.364 -0.485351 4.36108 0
M  V30 5286 H 490.182 0.0313908 0.710307 0
M  V30 5287 H 492.784 0.759808 1.80131 0
M  V30 5288 H 491.488 0.948261 3.99295 0
M  V30 5289 H 491.019 -0.753922 3.86108 0
M  V30 5290 H 493.034 -1.74258 4.64595 0
M  V30 5291 N 492.207 -1.54576 0.307264 0
M  V30 5292 C 493.454 -2.00263 -0.300167 0
M  V30 5293 C 493.782 -1.19561 -1.53413 0
M  V30 5294 O 493.037 -0.261487 -1.93945 0
M  V30 5295 C 493.336 -3.50572 -0.695253 0
M  V30 5296 C 493.002 -4.48771 0.437679 0
M  V30 5297 C 491.664 -4.7534 0.748681 0
M  V30 5298 C 494.016 -5.0721 1.19949 0
M  V30 5299 C 491.344 -5.5761 1.8245 0
M  V30 5300 C 493.696 -5.90651 2.26527 0
M  V30 5301 C 492.36 -6.15528 2.58227 0
M  V30 5302 H 491.63 -0.732814 -0.109839 0
M  V30 5303 H 494.277 -1.86664 0.427661 0
M  V30 5304 H 492.582 -3.61814 -1.50326 0
M  V30 5305 H 494.279 -3.83352 -1.17653 0
M  V30 5306 H 490.869 -4.282 0.185187 0
M  V30 5307 H 495.053 -4.86679 0.972474 0
M  V30 5308 H 490.309 -5.75121 2.07476 0
M  V30 5309 H 494.483 -6.34957 2.86011 0
M  V30 5310 H 492.11 -6.79066 3.4172 0
M  V30 5311 N 493.685 -0.035106 -1.57561 0
M  V30 5312 C 494.632 0.94474 -2.10578 0
M  V30 5313 C 495.602 1.3192 -1.00927 0
M  V30 5314 O 496.787 1.41147 -1.28382 0
M  V30 5315 C 493.927 2.21982 -2.64231 0
M  V30 5316 C 493.04 1.90128 -3.87911 0
M  V30 5317 C 492.175 3.11975 -4.29936 0
M  V30 5318 C 491.214 2.75968 -5.46359 0
M  V30 5319 N 490.351 3.90459 -5.83512 0
M  V30 5320 H 495.191 0.485717 -2.94015 0
M  V30 5321 H 492.728 0.228143 -1.4532 0
M  V30 5322 H 494.686 2.96572 -2.9343 0
M  V30 5323 H 493.316 2.6549 -1.83616 0
M  V30 5324 H 492.368 1.05755 -3.65404 0
M  V30 5325 H 493.68 1.59613 -4.72573 0
M  V30 5326 H 492.834 3.9488 -4.60603 0
M  V30 5327 H 491.573 3.45657 -3.44053 0
M  V30 5328 H 490.578 1.91478 -5.1538 0
M  V30 5329 H 491.803 2.43497 -6.33945 0
M  V30 5330 H 489.749 4.23971 -5.00584 0
M  V30 5331 H 489.666 3.63588 -6.62827 0
M  V30 5332 H 490.934 4.7405 -6.18787 0
M  V30 5333 N 495.163 1.55791 0.238111 0
M  V30 5334 C 496.393 1.81834 0.980809 0
M  V30 5335 C 496.801 0.609741 1.79106 0
M  V30 5336 O 496.144 -0.431073 1.78571 0
M  V30 5337 C 496.206 3.01363 1.96011 0
M  V30 5338 C 495.87 4.37037 1.33597 0
M  V30 5339 C 496.867 5.14692 0.734063 0
M  V30 5340 C 494.552 4.83743 1.3527 0
M  V30 5341 C 496.546 6.37206 0.157208 0
M  V30 5342 C 494.233 6.06204 0.77199 0
M  V30 5343 C 495.231 6.82775 0.175282 0
M  V30 5344 O 494.919 8.02922 -0.396432 0
M  V30 5345 H 494.651 0.6088 0.293834 0
M  V30 5346 H 497.205 2.03702 0.263552 0
M  V30 5347 H 495.435 2.75273 2.71591 0
M  V30 5348 H 497.124 3.14422 2.56697 0
M  V30 5349 H 497.89 4.79722 0.713582 0
M  V30 5350 H 493.769 4.24129 1.80653 0
M  V30 5351 H 497.313 6.96915 -0.30917 0
M  V30 5352 H 493.21 6.4065 0.789828 0
M  V30 5353 H 493.978 8.17989 -0.289145 0
M  V30 5354 N 496.642 -0.504142 1.49319 0
M  V30 5355 C 497.891 -1.25507 1.57895 0
M  V30 5356 C 498.204 -1.93735 0.269433 0
M  V30 5357 O 499.41 -2.70492 0.233706 0
M  V30 5358 C 497.866 -2.27869 2.78574 0
M  V30 5359 C 497.474 -1.65594 4.16272 0
M  V30 5360 C 499.218 -3.0381 2.96479 0
M  V30 5361 C 497.125 -2.66048 5.28178 0
M  V30 5362 H 496.055 -0.47212 0.587894 0
M  V30 5363 H 498.706 -0.52931 1.757 0
M  V30 5364 H 497.088 -3.03594 2.54257 0
M  V30 5365 H 498.262 -0.958826 4.50714 0
M  V30 5366 H 496.577 -1.02055 4.037 0
M  V30 5367 H 499.174 -3.78925 3.77253 0
M  V30 5368 H 499.517 -3.61235 2.06918 0
M  V30 5369 H 500.05 -2.352 3.20821 0
M  V30 5370 H 496.789 -2.13408 6.19788 0
M  V30 5371 H 496.309 -3.34009 4.98195 0
M  V30 5372 H 497.988 -3.28536 5.57381 0
M  V30 5373 N 498.12 -1.38341 -0.754957 0
M  V30 5374 C 499.348 -1.37704 -1.54419 0
M  V30 5375 C 499.763 0.0335243 -1.8877 0
M  V30 5376 O 499.12 0.999773 -1.52679 0
M  V30 5377 C 499.171 -2.23136 -2.84416 0
M  V30 5378 O 498.892 -3.58697 -2.51531 0
M  V30 5379 C 500.393 -2.30664 -3.78562 0
M  V30 5380 H 497.613 -0.471061 -0.477852 0
M  V30 5381 H 500.157 -1.81902 -0.934446 0
M  V30 5382 H 498.312 -1.82403 -3.41772 0
M  V30 5383 H 498.726 -4.03665 -3.34896 0
M  V30 5384 H 500.2 -2.9473 -4.66732 0
M  V30 5385 H 500.677 -1.3199 -4.18898 0
M  V30 5386 H 501.283 -2.71781 -3.27131 0
M  V30 5387 N 499.598 0.982988 -1.23187 0
M  V30 5388 C 500.823 1.76455 -1.08988 0
M  V30 5389 C 501.248 1.84726 0.354691 0
M  V30 5390 O 500.606 1.30699 1.25649 0
M  V30 5391 C 500.654 3.17094 -1.71708 0
M  V30 5392 O 499.758 4.00648 -0.977477 0
M  V30 5393 H 499.099 0.542988 -0.382177 0
M  V30 5394 H 501.629 1.23413 -1.63188 0
M  V30 5395 H 501.639 3.67684 -1.76841 0
M  V30 5396 H 500.314 3.10389 -2.76823 0
M  V30 5397 H 498.891 3.59161 -1.0029 0
M  V30 5398 N 501.076 1.04316 1.18135 0
M  V30 5399 C 502.008 0.594444 2.21357 0
M  V30 5400 C 503.021 -0.337215 1.59269 0
M  V30 5401 O 504.21 -0.131337 1.78016 0
M  V30 5402 C 501.31 -0.151251 3.38562 0
M  V30 5403 C 500.483 0.788907 4.30227 0
M  V30 5404 C 499.542 0.0860572 5.2613 0
M  V30 5405 O 498.568 0.717302 5.64662 0
M  V30 5406 N 499.77 -1.17969 5.68387 0
M  V30 5407 H 502.535 1.48227 2.60478 0
M  V30 5408 H 500.096 0.92396 1.32946 0
M  V30 5409 H 502.088 -0.631352 3.99745 0
M  V30 5410 H 500.658 -0.940639 2.98112 0
M  V30 5411 H 499.878 1.44882 3.6661 0
M  V30 5412 H 501.166 1.42738 4.88368 0
M  V30 5413 H 500.564 -1.71302 5.3914 0
M  V30 5414 H 499.121 -1.60402 6.31755 0
M  V30 5415 N 502.554 -1.34406 0.822964 0
M  V30 5416 C 503.801 -1.98284 0.411057 0
M  V30 5417 C 504.129 -1.65245 -1.02588 0
M  V30 5418 O 503.384 -0.91619 -1.72929 0
M  V30 5419 C 503.683 -3.52981 0.560268 0
M  V30 5420 C 503.349 -4.05931 1.96293 0
M  V30 5421 C 502.011 -4.20103 2.34664 0
M  V30 5422 C 504.363 -4.34412 2.87985 0
M  V30 5423 C 501.691 -4.60082 3.64062 0
M  V30 5424 C 504.043 -4.75838 4.16847 0
M  V30 5425 C 502.707 -4.88215 4.55195 0
M  V30 5426 H 501.977 -0.725573 0.150416 0
M  V30 5427 H 504.624 -1.60349 1.04692 0
M  V30 5428 H 502.929 -3.91477 -0.158982 0
M  V30 5429 H 504.626 -4.00385 0.222087 0
M  V30 5430 H 501.216 -3.95363 1.65487 0
M  V30 5431 H 505.4 -4.23001 2.59584 0
M  V30 5432 H 500.656 -4.67856 3.93599 0
M  V30 5433 H 504.83 -4.96834 4.87984 0
M  V30 5434 H 502.457 -5.18952 5.55512 0
M  V30 5435 N 504.032 -0.577932 -1.46621 0
M  V30 5436 C 504.942 0.160651 -2.34049 0
M  V30 5437 C 505.958 0.890911 -1.49462 0
M  V30 5438 O 507.134 0.855166 -1.82343 0
M  V30 5439 C 504.199 1.16447 -3.26559 0
M  V30 5440 C 503.26 0.4394 -4.27045 0
M  V30 5441 C 502.493 1.3954 -5.15135 0
M  V30 5442 O 502.716 2.63162 -5.06065 0
M  V30 5443 O 501.65 0.908585 -5.95003 0
M  V30 5444 H 505.476 -0.557057 -2.98547 0
M  V30 5445 H 503.061 -0.338369 -1.45518 0
M  V30 5446 H 504.943 1.7434 -3.83645 0
M  V30 5447 H 503.618 1.86373 -2.64663 0
M  V30 5448 H 502.525 -0.181247 -3.73661 0
M  V30 5449 H 503.858 -0.218799 -4.91713 0
M  V30 5450 N 505.51 1.54411 -0.315457 0
M  V30 5451 C 506.756 2.00716 0.289972 0
M  V30 5452 C 507.089 1.2034 1.5242 0
M  V30 5453 O 506.364 0.283579 1.92422 0
M  V30 5454 C 506.647 3.54507 0.632196 0
M  V30 5455 C 506.5 4.45615 -0.61218 0
M  V30 5456 C 507.819 4.15421 1.45305 0
M  V30 5457 H 504.938 0.729637 0.10392 0
M  V30 5458 H 507.58 1.8506 -0.430427 0
M  V30 5459 H 505.73 3.67979 1.24595 0
M  V30 5460 H 507.402 4.44026 -1.25053 0
M  V30 5461 H 505.645 4.15621 -1.24264 0
M  V30 5462 H 506.316 5.51022 -0.328379 0
M  V30 5463 H 508.792 4.05474 0.934331 0
M  V30 5464 H 507.668 5.23157 1.66127 0
M  V30 5465 H 507.929 3.68223 2.44671 0
M  V30 5466 N 506.988 0.0434614 1.5754 0
M  V30 5467 C 508.404 -0.313039 1.565 0
M  V30 5468 C 508.604 -1.71954 1.05043 0
M  V30 5469 O 507.66 -2.425 0.703564 0
M  V30 5470 C 508.973 -0.148544 3.00333 0
M  V30 5471 C 510.521 -0.220231 3.12224 0
M  V30 5472 C 510.996 -0.0843565 4.57922 0
M  V30 5473 N 512.487 -0.140881 4.62986 0
M  V30 5474 C 513.222 -0.0597443 5.73369 0
M  V30 5475 N 512.718 0.0733004 6.92761 0
M  V30 5476 N 514.511 -0.11477 5.61983 0
M  V30 5477 H 506.662 0.96303 1.89313 0
M  V30 5478 H 508.925 0.373164 0.871466 0
M  V30 5479 H 508.631 0.820894 3.41986 0
M  V30 5480 H 508.505 -0.912798 3.65989 0
M  V30 5481 H 510.892 -1.18014 2.70475 0
M  V30 5482 H 510.973 0.574646 2.49262 0
M  V30 5483 H 510.617 0.872192 5.00355 0
M  V30 5484 H 510.547 -0.898281 5.18882 0
M  V30 5485 H 513.038 -0.243273 3.77116 0
M  V30 5486 H 513.351 0.128128 7.72694 0
M  V30 5487 H 511.696 0.10828 6.94916 0
M  V30 5488 H 514.887 -0.217212 4.67596 0
M  V30 5489 H 515.06 -0.0480779 6.47982 0
M  V30 5490 N 508.466 -1.55915 -0.229846 0
M  V30 5491 C 509.713 -1.78542 -0.955452 0
M  V30 5492 C 510.041 -0.610785 -1.84661 0
M  V30 5493 O 509.296 0.405213 -1.91459 0
M  V30 5494 C 509.595 -3.06845 -1.8325 0
M  V30 5495 C 509.261 -4.37395 -1.09528 0
M  V30 5496 C 507.923 -4.72868 -0.891598 0
M  V30 5497 C 510.275 -5.18029 -0.574046 0
M  V30 5498 C 507.603 -5.86496 -0.154655 0
M  V30 5499 C 509.955 -6.32423 0.149513 0
M  V30 5500 C 508.619 -6.66504 0.364519 0
M  V30 5501 H 507.889 -0.653333 -0.349625 0
M  V30 5502 H 510.536 -1.90183 -0.224235 0
M  V30 5503 H 508.841 -2.90291 -2.63132 0
M  V30 5504 H 510.538 -3.21553 -2.39592 0
M  V30 5505 H 507.128 -4.09538 -1.26399 0
M  V30 5506 H 511.312 -4.91066 -0.718899 0
M  V30 5507 H 506.568 -6.11396 0.0222356 0
M  V30 5508 H 510.742 -6.94137 0.560947 0
M  V30 5509 H 508.369 -7.54397 0.937495 0
M  V30 5510 N 509.944 0.496216 -1.49584 0
M  V30 5511 C 511.169 1.27865 -1.63295 0
M  V30 5512 C 511.594 1.85592 -0.306156 0
M  V30 5513 O 510.952 1.66092 0.726851 0
M  V30 5514 C 511 2.38128 -2.7079 0
M  V30 5515 O 510.104 3.42108 -2.30296 0
M  V30 5516 H 509.445 0.377279 -0.546403 0
M  V30 5517 H 511.975 0.593497 -1.95803 0
M  V30 5518 H 511.985 2.8382 -2.93104 0
M  V30 5519 H 510.66 1.95479 -3.67098 0
M  V30 5520 H 509.237 3.02301 -2.18331 0
M  V30 5521 N 511.423 1.38739 0.74761 0
M  V30 5522 C 512.386 1.36241 1.84312 0
M  V30 5523 C 513.386 0.261811 1.58654 0
M  V30 5524 O 514.576 0.519031 1.66288 0
M  V30 5525 C 511.708 1.12253 3.21888 0
M  V30 5526 H 512.901 2.33712 1.87933 0
M  V30 5527 H 510.454 1.2412 0.949946 0
M  V30 5528 H 511.189 0.154133 3.23934 0
M  V30 5529 H 510.974 1.91943 3.41907 0
M  V30 5530 H 512.464 1.13215 4.0196 0
M  V30 5531 N 512.901 -0.976442 1.23707 0
M  V30 5532 C 514.129 -1.75341 1.09833 0
M  V30 5533 C 514.544 -1.8553 -0.349885 0
M  V30 5534 O 513.901 -1.33732 -1.24185 0
M  V30 5535 C 513.952 -3.17833 1.72233 0
M  V30 5536 O 513.673 -3.08167 3.11391 0
M  V30 5537 C 515.174 -4.11906 1.63853 0
M  V30 5538 H 512.394 -0.550137 0.384175 0
M  V30 5539 H 514.938 -1.2265 1.63638 0
M  V30 5540 H 513.093 -3.67538 1.22452 0
M  V30 5541 H 513.507 -3.97897 3.41729 0
M  V30 5542 H 514.981 -5.09579 2.12211 0
M  V30 5543 H 515.458 -4.35109 0.598092 0
M  V30 5544 H 516.064 -3.68107 2.13019 0
M  V30 5545 N 514.379 -1.04941 -1.1758 0
M  V30 5546 C 515.628 -0.753124 -1.87112 0
M  V30 5547 C 515.941 0.722507 -1.81767 0
M  V30 5548 O 517.147 1.13265 -2.46746 0
M  V30 5549 C 515.603 -1.29695 -3.35719 0
M  V30 5550 C 515.211 -2.80184 -3.49572 0
M  V30 5551 C 516.955 -1.07759 -4.10595 0
M  V30 5552 C 514.862 -3.2788 -4.92187 0
M  V30 5553 H 513.792 -0.278034 -0.700866 0
M  V30 5554 H 516.443 -1.26637 -1.32798 0
M  V30 5555 H 514.825 -0.711522 -3.89555 0
M  V30 5556 H 515.999 -3.44561 -3.05965 0
M  V30 5557 H 514.314 -3.00632 -2.88113 0
M  V30 5558 H 516.911 -1.40899 -5.15802 0
M  V30 5559 H 517.254 -0.0152302 -4.16297 0
M  V30 5560 H 517.787 -1.62809 -3.62957 0
M  V30 5561 H 514.526 -4.33535 -4.91658 0
M  V30 5562 H 514.046 -2.68245 -5.36475 0
M  V30 5563 H 515.725 -3.22412 -5.60945 0
M  V30 5564 N 515.857 1.33968 -0.830081 0
M  V30 5565 C 517.087 2.01987 -0.434142 0
M  V30 5566 C 517.495 1.62639 0.96671 0
M  V30 5567 O 516.838 0.831151 1.63822 0
M  V30 5568 C 516.9 3.5648 -0.465018 0
M  V30 5569 C 516.564 4.19176 -1.82045 0
M  V30 5570 C 517.561 4.39181 -2.78237 0
M  V30 5571 C 515.246 4.55792 -2.11089 0
M  V30 5572 C 517.24 4.94937 -4.01642 0
M  V30 5573 C 514.927 5.11258 -3.34752 0
M  V30 5574 C 515.925 5.30775 -4.29845 0
M  V30 5575 O 515.613 5.85064 -5.51322 0
M  V30 5576 H 515.345 0.653847 -0.171639 0
M  V30 5577 H 517.899 1.72066 -1.12171 0
M  V30 5578 H 516.129 3.8569 0.279284 0
M  V30 5579 H 517.818 4.05804 -0.0881334 0
M  V30 5580 H 518.584 4.11249 -2.57097 0
M  V30 5581 H 514.463 4.39901 -1.3787 0
M  V30 5582 H 518.007 5.10086 -4.75876 0
M  V30 5583 H 513.904 5.38619 -3.55753 0
M  V30 5584 H 514.672 6.03489 -5.5294 0
M  V30 5585 N 517.335 0.585699 1.46312 0
M  V30 5586 C 518.265 -0.133556 2.33118 0
M  V30 5587 C 519.246 -0.880707 1.45525 0
M  V30 5588 O 520.431 -0.855579 1.74337 0
M  V30 5589 C 517.561 -1.14585 3.27853 0
M  V30 5590 C 516.515 -0.513341 4.2491 0
M  V30 5591 C 515.841 -1.63231 5.09175 0
M  V30 5592 C 517.141 0.551413 5.19381 0
M  V30 5593 H 518.835 0.59121 2.93505 0
M  V30 5594 H 516.381 0.285761 1.41136 0
M  V30 5595 H 518.334 -1.65741 3.87438 0
M  V30 5596 H 517.058 -1.90093 2.65579 0
M  V30 5597 H 515.717 -0.0228349 3.66593 0
M  V30 5598 H 515.365 -2.37713 4.43285 0
M  V30 5599 H 515.065 -1.21473 5.74907 0
M  V30 5600 H 516.589 -2.14658 5.71624 0
M  V30 5601 H 518.003 0.124804 5.73164 0
M  V30 5602 H 516.4 0.889486 5.93471 0
M  V30 5603 H 517.47 1.43655 4.63132 0
M  V30 5604 N 518.813 -1.54241 0.323641 0
M  V30 5605 C 520.059 -2.00867 -0.279323 0
M  V30 5606 C 520.392 -1.21146 -1.5178 0
M  V30 5607 O 519.667 -0.29378 -1.92269 0
M  V30 5608 C 519.95 -3.54837 -0.613387 0
M  V30 5609 C 519.803 -4.45284 0.635803 0
M  V30 5610 C 521.122 -4.16186 -1.43099 0
M  V30 5611 H 518.241 -0.730177 -0.100049 0
M  V30 5612 H 520.883 -1.84829 0.440235 0
M  V30 5613 H 519.033 -3.68634 -1.22641 0
M  V30 5614 H 520.705 -4.43357 1.27406 0
M  V30 5615 H 518.948 -4.14956 1.26466 0
M  V30 5616 H 519.619 -5.5084 0.357597 0
M  V30 5617 H 522.095 -4.05964 -0.912814 0
M  V30 5618 H 520.971 -5.24031 -1.6335 0
M  V30 5619 H 521.232 -3.69516 -2.42715 0
M  V30 5620 N 520.291 -0.0518155 -1.57515 0
M  V30 5621 C 521.531 0.625712 -1.94587 0
M  V30 5622 C 521.895 1.6797 -0.930053 0
M  V30 5623 O 523.096 2.41135 -1.18774 0
M  V30 5624 C 521.367 1.20574 -3.36447 0
M  V30 5625 S 522.926 1.90118 -3.95475 0
M  V30 5626 H 519.744 0.205434 -0.680675 0
M  V30 5627 H 522.346 -0.120906 -1.95126 0
M  V30 5628 H 521.05 0.426521 -4.08178 0
M  V30 5629 H 520.581 1.98916 -3.39405 0
M  V30 5630 H 522.596 3.18184 -3.80753 0
M  V30 5631 N 521.769 1.56035 0.221574 0
M  V30 5632 C 523.016 1.79047 0.94597 0
M  V30 5633 C 523.344 0.62057 1.84334 0
M  V30 5634 O 522.599 -0.395053 1.91671 0
M  V30 5635 C 522.898 3.07813 1.8162 0
M  V30 5636 C 522.564 4.3797 1.07206 0
M  V30 5637 C 521.226 4.73334 0.866508 0
M  V30 5638 C 523.578 5.18326 0.546565 0
M  V30 5639 C 520.906 5.8657 0.123549 0
M  V30 5640 C 523.258 6.32335 -0.18305 0
M  V30 5641 C 521.922 6.66301 -0.399861 0
M  V30 5642 H 521.192 0.655178 0.346155 0
M  V30 5643 H 523.839 1.90299 0.214146 0
M  V30 5644 H 522.144 2.91682 2.61589 0
M  V30 5645 H 523.841 3.2282 2.37884 0
M  V30 5646 H 520.431 4.10202 1.24226 0
M  V30 5647 H 524.615 4.9144 0.692847 0
M  V30 5648 H 519.871 6.11376 -0.0546591 0
M  V30 5649 H 524.045 6.9383 -0.59775 0
M  V30 5650 H 521.672 7.53889 -0.977489 0
M  V30 5651 N 523.247 -0.488276 1.49845 0
M  V30 5652 C 524.487 -1.2516 1.61599 0
M  V30 5653 C 524.851 -1.89615 0.301706 0
M  V30 5654 O 526.052 -2.67182 0.29453 0
M  V30 5655 C 524.323 -2.2805 2.75187 0
M  V30 5656 S 525.882 -3.13552 3.0697 0
M  V30 5657 H 522.7 -0.425178 0.569864 0
M  V30 5658 H 525.302 -0.551545 1.87559 0
M  V30 5659 H 524.006 -1.7925 3.69185 0
M  V30 5660 H 523.537 -3.02708 2.5126 0
M  V30 5661 H 525.552 -4.28927 2.49471 0
M  V30 5662 N 524.725 -1.39134 -0.740242 0
M  V30 5663 C 525.972 -1.36071 -1.49969 0
M  V30 5664 C 526.3 0.0450245 -1.94448 0
M  V30 5665 O 525.555 1.02482 -1.66721 0
M  V30 5666 C 525.854 -2.27457 -2.75678 0
M  V30 5667 C 525.52 -3.75185 -2.50094 0
M  V30 5668 C 524.182 -4.15439 -2.42825 0
M  V30 5669 C 526.534 -4.68643 -2.28086 0
M  V30 5670 C 523.862 -5.4722 -2.11584 0
M  V30 5671 C 526.214 -6.00695 -1.98363 0
M  V30 5672 C 524.878 -6.40018 -1.8956 0
M  V30 5673 H 524.148 -0.497921 -0.548777 0
M  V30 5674 H 526.795 -1.71599 -0.85007 0
M  V30 5675 H 525.1 -1.8503 -3.45356 0
M  V30 5676 H 526.797 -2.22384 -3.33686 0
M  V30 5677 H 523.387 -3.43279 -2.56627 0
M  V30 5678 H 527.571 -4.3838 -2.32672 0
M  V30 5679 H 522.827 -5.76615 -2.03287 0
M  V30 5680 H 527.001 -6.72644 -1.80341 0
M  V30 5681 H 524.628 -7.42051 -1.65117 0
M  V30 5682 N 526.204 0.969867 -1.24223 0
M  V30 5683 C 527.451 1.71256 -1.08063 0
M  V30 5684 C 527.779 1.90734 0.380872 0
M  V30 5685 O 527.034 1.46469 1.29789 0
M  V30 5686 C 527.333 3.10883 -1.76314 0
M  V30 5687 C 526.999 3.11252 -3.26241 0
M  V30 5688 C 525.661 3.1106 -3.67144 0
M  V30 5689 C 528.013 3.05751 -4.22097 0
M  V30 5690 C 525.341 3.03097 -5.02344 0
M  V30 5691 C 527.693 2.9933 -5.57301 0
M  V30 5692 C 526.357 2.97466 -5.97554 0
M  V30 5693 H 525.627 0.62667 -0.395431 0
M  V30 5694 H 528.274 1.13422 -1.54297 0
M  V30 5695 H 526.579 3.72168 -1.22468 0
M  V30 5696 H 528.276 3.67138 -1.61277 0
M  V30 5697 H 524.866 3.12165 -2.93685 0
M  V30 5698 H 529.05 3.05031 -3.91497 0
M  V30 5699 H 524.306 3.00013 -5.32731 0
M  V30 5700 H 528.48 2.94033 -6.31283 0
M  V30 5701 H 526.107 2.91051 -7.02277 0
M  V30 5702 N 527.682 1.05563 1.17022 0
M  V30 5703 C 528.629 0.659893 2.21165 0
M  V30 5704 C 529.599 -0.339813 1.62587 0
M  V30 5705 O 530.784 -0.230378 1.89404 0
M  V30 5706 C 527.924 0.0447297 3.45071 0
M  V30 5707 C 527.037 1.09372 4.17926 0
M  V30 5708 C 526.172 0.445481 5.29329 0
M  V30 5709 C 525.211 1.47852 5.93975 0
M  V30 5710 N 524.348 0.854172 6.96885 0
M  V30 5711 H 529.188 1.55243 2.54369 0
M  V30 5712 H 526.725 0.776336 1.24946 0
M  V30 5713 H 528.683 -0.329404 4.15898 0
M  V30 5714 H 527.313 -0.811244 3.1244 0
M  V30 5715 H 526.365 1.58564 3.45777 0
M  V30 5716 H 527.677 1.87773 4.62107 0
M  V30 5717 H 526.831 0.0179688 6.06697 0
M  V30 5718 H 525.57 -0.370481 4.86291 0
M  V30 5719 H 524.575 1.91601 5.15334 0
M  V30 5720 H 525.8 2.29645 6.39093 0
M  V30 5721 H 523.746 0.0587882 6.55974 0
M  V30 5722 H 523.663 1.57567 7.39397 0
M  V30 5723 H 524.931 0.451559 7.78191 0
M  V30 5724 N 529.16 -1.33526 0.837174 0
M  V30 5725 C 530.092 -2.28077 0.226579 0
M  V30 5726 C 531.105 -1.51666 -0.591717 0
M  V30 5727 O 532.294 -1.73511 -0.419064 0
M  V30 5728 C 529.394 -3.31597 -0.69978 0
M  V30 5729 C 528.567 -4.37329 0.0788067 0
M  V30 5730 C 527.626 -5.20526 -0.770637 0
M  V30 5731 O 526.652 -5.68811 -0.210453 0
M  V30 5732 N 527.854 -5.41639 -2.08825 0
M  V30 5733 H 530.619 -2.81115 1.03897 0
M  V30 5734 H 528.18 -1.46201 0.695476 0
M  V30 5735 H 530.172 -3.84158 -1.27298 0
M  V30 5736 H 528.742 -2.78848 -1.41288 0
M  V30 5737 H 527.962 -3.8529 0.833381 0
M  V30 5738 H 529.25 -5.05079 0.614238 0
M  V30 5739 H 528.648 -5.04108 -2.56693 0
M  V30 5740 H 527.205 -5.97263 -2.60998 0
M  V30 5741 N 530.638 -0.59345 -1.46 0
M  V30 5742 C 531.568 0.121192 -2.33185 0
M  V30 5743 C 532.549 0.872977 -1.4599 0
M  V30 5744 O 533.734 0.846321 -1.74789 0
M  V30 5745 C 530.864 1.12844 -3.28456 0
M  V30 5746 C 529.818 0.4908 -4.25177 0
M  V30 5747 C 529.144 1.60529 -5.10034 0
M  V30 5748 C 530.444 -0.578949 -5.19081 0
M  V30 5749 H 532.138 -0.606767 -2.93187 0
M  V30 5750 H 529.684 -0.293242 -1.40983 0
M  V30 5751 H 531.637 1.63684 -3.88311 0
M  V30 5752 H 530.361 1.88681 -2.66584 0
M  V30 5753 H 529.02 0.00339328 -3.666 0
M  V30 5754 H 528.668 2.35359 -4.44539 0
M  V30 5755 H 528.368 1.18422 -5.75543 0
M  V30 5756 H 529.892 2.11623 -5.72755 0
M  V30 5757 H 531.306 -0.155199 -5.7309 0
M  V30 5758 H 529.703 -0.920947 -5.92991 0
M  V30 5759 H 530.773 -1.46109 -4.62364 0
M  V30 5760 N 532.116 1.54067 -0.331816 0
M  V30 5761 C 533.079 2.23275 0.517768 0
M  V30 5762 C 534.079 1.22897 1.03697 0
M  V30 5763 O 535.269 1.47419 0.928084 0
M  V30 5764 C 532.401 2.94326 1.72004 0
M  V30 5765 H 533.594 2.99773 -0.0873507 0
M  V30 5766 H 531.147 1.56079 -0.0830042 0
M  V30 5767 H 531.882 2.21986 2.36417 0
M  V30 5768 H 531.667 3.67941 1.35507 0
M  V30 5769 H 533.157 3.47031 2.32291 0
M  V30 5770 N 533.594 0.0601682 1.57485 0
M  V30 5771 C 534.527 -0.94676 2.07634 0
M  V30 5772 C 535.505 -1.29837 0.978826 0
M  V30 5773 O 536.689 -1.40969 1.2514 0
M  V30 5774 C 533.816 -2.25822 2.52433 0
M  V30 5775 C 532.862 -2.05901 3.73507 0
M  V30 5776 S 533.695 -1.32907 5.18745 0
M  V30 5777 C 534.851 -2.65356 5.66866 0
M  V30 5778 H 535.084 -0.520003 2.92717 0
M  V30 5779 H 532.617 -0.152319 1.53647 0
M  V30 5780 H 534.575 -3.01201 2.78905 0
M  V30 5781 H 533.236 -2.65624 1.67639 0
M  V30 5782 H 532.429 -3.02929 4.02803 0
M  V30 5783 H 532.031 -1.38659 3.47347 0
M  V30 5784 H 534.323 -3.61492 5.73001 0
M  V30 5785 H 535.266 -2.40685 6.6594 0
M  V30 5786 H 535.674 -2.72028 4.94632 0
M  V30 5787 N 535.072 -1.5615 -0.213296 0
M  V30 5788 C 536.321 -1.78743 -0.93455 0
M  V30 5789 C 536.634 -0.630199 -1.8517 0
M  V30 5790 O 537.84 -0.739966 -2.61222 0
M  V30 5791 C 536.296 -3.16571 -1.71203 0
M  V30 5792 C 535.904 -4.40043 -0.840617 0
M  V30 5793 C 537.648 -3.48485 -2.42401 0
M  V30 5794 C 535.555 -5.68895 -1.61592 0
M  V30 5795 H 534.485 -0.666426 -0.352692 0
M  V30 5796 H 537.136 -1.82532 -0.188227 0
M  V30 5797 H 535.518 -3.06981 -2.50157 0
M  V30 5798 H 536.692 -4.6071 -0.0910326 0
M  V30 5799 H 535.007 -4.15706 -0.240365 0
M  V30 5800 H 537.604 -4.41983 -3.00924 0
M  V30 5801 H 537.947 -2.71371 -3.15695 0
M  V30 5802 H 538.48 -3.59442 -1.7043 0
M  V30 5803 H 535.219 -6.48925 -0.926106 0
M  V30 5804 H 534.739 -5.52275 -2.33991 0
M  V30 5805 H 536.418 -6.09365 -2.17447 0
M  V30 5806 N 536.55 0.480323 -1.50102 0
M  V30 5807 C 537.797 1.23307 -1.60629 0
M  V30 5808 C 538.125 1.92135 -0.302375 0
M  V30 5809 O 537.38 1.82321 0.711154 0
M  V30 5810 C 537.679 2.30708 -2.72963 0
M  V30 5811 C 537.345 1.79195 -4.13763 0
M  V30 5812 C 536.007 1.64867 -4.52076 0
M  V30 5813 C 538.359 1.40878 -5.018 0
M  V30 5814 C 535.687 1.10631 -5.76175 0
M  V30 5815 C 538.039 0.880872 -6.26437 0
M  V30 5816 C 536.703 0.724146 -6.6356 0
M  V30 5817 H 535.973 0.451211 -0.587784 0
M  V30 5818 H 538.62 0.53051 -1.84005 0
M  V30 5819 H 536.925 3.06834 -2.43639 0
M  V30 5820 H 538.622 2.88692 -2.78313 0
M  V30 5821 H 535.212 1.91313 -3.83533 0
M  V30 5822 H 539.396 1.50786 -4.7284 0
M  V30 5823 H 534.652 0.972263 -6.0362 0
M  V30 5824 H 538.826 0.575269 -6.9402 0
M  V30 5825 H 536.453 0.301722 -7.59601 0
M  V30 5826 N 538.028 1.39524 0.732853 0
M  V30 5827 C 538.961 1.32806 1.85574 0
M  V30 5828 C 539.939 0.201354 1.61348 0
M  V30 5829 O 541.123 0.38216 1.84585 0
M  V30 5830 C 538.25 1.06271 3.21596 0
M  V30 5831 C 537.296 2.21161 3.64678 0
M  V30 5832 S 538.129 3.83454 3.73796 0
M  V30 5833 C 539.285 3.59149 5.12604 0
M  V30 5834 H 539.518 2.27838 1.9099 0
M  V30 5835 H 537.051 1.25605 0.897927 0
M  V30 5836 H 539.009 0.916461 4.00139 0
M  V30 5837 H 537.67 0.129223 3.13834 0
M  V30 5838 H 536.863 1.98193 4.63396 0
M  V30 5839 H 536.465 2.32 2.93346 0
M  V30 5840 H 538.757 3.16547 5.99003 0
M  V30 5841 H 539.7 4.57335 5.40602 0
M  V30 5842 H 540.108 2.93203 4.82382 0
M  V30 5843 N 539.506 -0.963266 1.24736 0
M  V30 5844 C 540.731 -1.74699 1.11781 0
M  V30 5845 C 541.156 -1.85267 -0.325258 0
M  V30 5846 O 540.514 -1.32681 -1.23553 0
M  V30 5847 C 540.562 -3.14322 1.76731 0
M  V30 5848 O 539.666 -3.99043 1.04109 0
M  V30 5849 H 539.007 -0.53684 0.390767 0
M  V30 5850 H 541.537 -1.20801 1.65131 0
M  V30 5851 H 541.547 -3.64824 1.82668 0
M  V30 5852 H 540.222 -3.05946 2.81726 0
M  V30 5853 H 538.799 -3.5752 1.05991 0
M  V30 5854 N 540.985 -1.06182 -1.16461 0
M  V30 5855 C 542.231 -0.779015 -1.87241 0
M  V30 5856 C 542.564 0.692715 -1.81425 0
M  V30 5857 O 541.839 1.5074 -1.22913 0
M  V30 5858 C 542.122 -1.2728 -3.36856 0
M  V30 5859 C 541.975 -2.80821 -3.51368 0
M  V30 5860 C 543.294 -0.879799 -4.31216 0
M  V30 5861 H 540.413 -0.284464 -0.679889 0
M  V30 5862 H 543.055 -1.31755 -1.36896 0
M  V30 5863 H 541.205 -0.814673 -3.79862 0
M  V30 5864 H 542.877 -3.34833 -3.17308 0
M  V30 5865 H 541.12 -3.19606 -2.93316 0
M  V30 5866 H 541.791 -3.10435 -4.56436 0
M  V30 5867 H 544.267 -1.27436 -3.96105 0
M  V30 5868 H 543.143 -1.25278 -5.34412 0
M  V30 5869 H 543.404 0.215372 -4.41575 0
M  V30 5870 N 542.463 1.3308 -0.844243 0
M  V30 5871 C 543.393 2.3161 -0.296493 0
M  V30 5872 C 544.374 1.59215 0.598707 0
M  V30 5873 O 545.559 1.87077 0.521134 0
M  V30 5874 C 542.689 3.43313 0.524762 0
M  V30 5875 C 541.643 4.27115 -0.275106 0
M  V30 5876 C 540.969 5.30483 0.670236 0
M  V30 5877 C 542.269 5.00443 -1.49514 0
M  V30 5878 H 543.963 2.77672 -1.11976 0
M  V30 5879 H 541.509 1.33496 -0.539899 0
M  V30 5880 H 543.462 4.11273 0.918298 0
M  V30 5881 H 542.186 2.95952 1.3813 0
M  V30 5882 H 540.845 3.60787 -0.650267 0
M  V30 5883 H 540.493 4.79379 1.52332 0
M  V30 5884 H 540.193 5.87435 0.139123 0
M  V30 5885 H 541.717 6.01308 1.06117 0
M  V30 5886 H 543.131 5.61141 -1.17447 0
M  V30 5887 H 541.528 5.67071 -1.96343 0
M  V30 5888 H 542.598 4.28906 -2.26202 0
M  V30 5889 N 543.941 0.601185 1.45683 0
M  V30 5890 C 544.904 -0.111398 2.28929 0
M  V30 5891 C 545.904 -0.801246 1.39416 0
M  V30 5892 O 547.094 -0.650383 1.61603 0
M  V30 5893 C 544.226 -1.16773 3.20276 0
M  V30 5894 H 545.419 0.620412 2.93413 0
M  V30 5895 H 542.972 0.359946 1.52099 0
M  V30 5896 H 543.707 -1.93051 2.60579 0
M  V30 5897 H 543.492 -0.677358 3.86205 0
M  V30 5898 H 544.982 -1.66698 3.82886 0
M  V30 5899 N 545.419 -1.53889 0.339982 0
M  V30 5900 C 546.667 -2.00458 -0.257112 0
M  V30 5901 C 546.988 -1.22953 -1.51353 0
M  V30 5902 O 546.258 -0.335734 -1.93002 0
M  V30 5903 H 544.838 -0.740544 -0.0979965 0
M  V30 5904 H 547.5 -1.89386 0.460317 0
M  V30 5905 H 546.596 -3.08035 -0.502057 0
M  V30 5906 N 546.897 -0.0685191 -1.57451 0
M  V30 5907 C 547.845 0.917577 -2.13736 0
M  V30 5908 C 548.839 1.31049 -1.07344 0
M  V30 5909 O 550.045 1.28811 -1.25728 0
M  V30 5910 H 546.42 0.313835 -0.683382 0
M  V30 5911 H 548.391 0.417903 -2.95459 0
M  V30 5912 C 547.14 2.17686 -2.71123 0
M  V30 5913 H 546.463 1.88336 -3.52661 0
M  V30 5914 H 547.903 2.84803 -3.14107 0
M  V30 5915 C 546.362 2.9332 -1.65726 0
M  V30 5916 O 546.892 3.86901 -1.08031 0
M  V30 5917 N 545.098 2.56367 -1.36837 0
M  V30 5918 H 544.645 1.80341 -1.83943 0
M  V30 5919 H 544.603 3.07276 -0.665501 0
M  V30 5920 N 548.375 1.56261 0.205012 0
M  V30 5921 C 549.308 1.88797 1.28183 0
M  V30 5922 C 550.286 0.747018 1.44424 0
M  V30 5923 O 551.47 0.997039 1.59973 0
M  V30 5924 C 548.597 2.10949 2.64987 0
M  V30 5925 C 547.643 3.33649 2.6567 0
M  V30 5926 S 548.476 4.89078 2.18088 0
M  V30 5927 C 549.632 5.14286 3.56736 0
M  V30 5928 H 549.865 2.79837 1.00393 0
M  V30 5929 H 547.398 1.48911 0.408042 0
M  V30 5930 H 549.356 2.24395 3.4374 0
M  V30 5931 H 548.017 1.20678 2.89993 0
M  V30 5932 H 547.21 3.46245 3.66239 0
M  V30 5933 H 546.812 3.19146 1.94992 0
M  V30 5934 H 549.104 5.04198 4.52537 0
M  V30 5935 H 550.047 6.16096 3.49043 0
M  V30 5936 H 550.455 4.41957 3.51189 0
M  V30 5937 N 549.853 -0.472356 1.50355 0
M  V30 5938 C 551.083 -1.24603 1.64796 0
M  V30 5939 C 551.491 -1.86297 0.330156 0
M  V30 5940 O 550.834 -1.69934 -0.697728 0
M  V30 5941 C 550.896 -2.39578 2.68035 0
M  V30 5942 C 550.56 -1.98531 4.11624 0
M  V30 5943 C 551.557 -1.50856 4.97532 0
M  V30 5944 C 549.242 -2.0729 4.57532 0
M  V30 5945 C 551.236 -1.12481 6.27397 0
M  V30 5946 C 548.923 -1.68527 5.87403 0
M  V30 5947 C 549.921 -1.212 6.7216 0
M  V30 5948 O 549.609 -0.829728 7.99607 0
M  V30 5949 H 549.341 -0.383035 0.55701 0
M  V30 5950 H 551.895 -0.570392 1.97321 0
M  V30 5951 H 550.125 -3.10309 2.30749 0
M  V30 5952 H 551.814 -3.01544 2.71709 0
M  V30 5953 H 552.58 -1.43511 4.63281 0
M  V30 5954 H 548.459 -2.43076 3.91708 0
M  V30 5955 H 552.003 -0.754698 6.93506 0
M  V30 5956 H 547.9 -1.7553 6.21176 0
M  V30 5957 H 548.668 -0.958689 8.12866 0
M  V30 5958 N 551.331 -1.39911 -0.725443 0
M  V30 5959 C 552.241 -1.41688 -1.8698 0
M  V30 5960 C 553.257 -0.310579 -1.71206 0
M  V30 5961 O 554.433 -0.55359 -1.93642 0
M  V30 5962 C 551.498 -1.26811 -3.22676 0
M  V30 5963 C 550.559 -2.47497 -3.50776 0
M  V30 5964 C 549.792 -2.3332 -4.79997 0
M  V30 5965 O 550.015 -1.34175 -5.54394 0
M  V30 5966 O 548.949 -3.22498 -5.08211 0
M  V30 5967 H 552.775 -2.38171 -1.88436 0
M  V30 5968 H 550.36 -1.21128 -0.874548 0
M  V30 5969 H 552.242 -1.20684 -4.03749 0
M  V30 5970 H 550.917 -0.334289 -3.21969 0
M  V30 5971 H 549.824 -2.59201 -2.69751 0
M  V30 5972 H 551.157 -3.39606 -3.5627 0
M  V30 5973 N 552.809 0.956637 -1.25245 0
M  V30 5974 C 554.034 1.74104 -1.12706 0
M  V30 5975 C 554.459 1.85436 0.315429 0
M  V30 5976 O 553.817 1.33334 1.22848 0
M  V30 5977 C 553.865 3.1338 -1.78396 0
M  V30 5978 O 552.969 3.98485 -1.06224 0
M  V30 5979 H 552.31 0.53476 -0.393609 0
M  V30 5980 H 554.84 1.19924 -1.65769 0
M  V30 5981 H 554.85 3.6385 -1.846 0
M  V30 5982 H 553.525 3.04448 -2.83345 0
M  V30 5983 H 552.102 3.56952 -1.07886 0
M  V30 5984 N 554.287 1.06798 1.15896 0
M  V30 5985 C 555.536 0.782796 1.8589 0
M  V30 5986 C 555.849 -0.693498 1.82893 0
M  V30 5987 O 557.055 -1.09325 2.48516 0
M  V30 5988 C 555.511 1.3502 3.33613 0
M  V30 5989 C 555.119 2.8571 3.45071 0
M  V30 5990 C 556.863 1.14278 4.08829 0
M  V30 5991 C 554.77 3.35669 4.86909 0
M  V30 5992 H 553.7 0.289149 0.696354 0
M  V30 5993 H 556.351 1.28734 1.30766 0
M  V30 5994 H 554.733 0.773407 3.88374 0
M  V30 5995 H 555.907 3.49385 3.00445 0
M  V30 5996 H 554.222 3.05178 2.83294 0
M  V30 5997 H 556.819 1.49087 5.13495 0
M  V30 5998 H 557.162 0.0814575 4.1622 0
M  V30 5999 H 557.695 1.68563 3.60321 0
M  V30 6000 H 554.434 4.41302 4.84698 0
M  V30 6001 H 553.954 2.76745 5.32139 0
M  V30 6002 H 555.633 3.31296 5.55745 0
M  V30 6003 N 555.766 -1.3263 0.851289 0
M  V30 6004 C 557.014 -1.96978 0.452128 0
M  V30 6005 C 557.335 -1.67715 -0.99482 0
M  V30 6006 O 556.605 -0.98259 -1.69476 0
M  V30 6007 H 555.185 -0.72873 0.164202 0
M  V30 6008 H 557.847 -1.61774 1.08698 0
M  V30 6009 H 556.943 -3.06387 0.594407 0
M  V30 6010 N 557.244 -0.608902 -1.45362 0
M  V30 6011 C 558.491 -0.104607 -2.0223 0
M  V30 6012 C 558.819 1.26534 -1.47714 0
M  V30 6013 O 558.074 1.84855 -0.642435 0
M  V30 6014 C 558.373 -0.0167296 -3.57396 0
M  V30 6015 C 558.039 -1.32251 -4.31069 0
M  V30 6016 C 556.701 -1.68019 -4.50914 0
M  V30 6017 C 559.053 -2.18542 -4.73169 0
M  V30 6018 C 556.381 -2.89828 -5.10114 0
M  V30 6019 C 558.733 -3.39602 -5.33717 0
M  V30 6020 C 557.397 -3.7562 -5.51784 0
M  V30 6021 H 556.667 -0.0382785 -0.740011 0
M  V30 6022 H 559.314 -0.790782 -1.7441 0
M  V30 6023 H 557.619 0.752715 -3.84502 0
M  V30 6024 H 559.316 0.389634 -3.99103 0
M  V30 6025 H 555.906 -1.03411 -4.15938 0
M  V30 6026 H 560.09 -1.92208 -4.5757 0
M  V30 6027 H 555.346 -3.17839 -5.22291 0
M  V30 6028 H 559.52 -4.06716 -5.65292 0
M  V30 6029 H 557.147 -4.70093 -5.97425 0
M  V30 6030 N 558.722 1.53707 -0.348139 0
M  V30 6031 C 559.654 2.22725 0.540946 0
M  V30 6032 C 560.667 1.2354 1.06027 0
M  V30 6033 O 561.856 1.49867 0.96964 0
M  V30 6034 C 558.956 2.89756 1.75768 0
M  V30 6035 C 558.129 4.15297 1.37285 0
M  V30 6036 C 557.188 4.65697 2.44976 0
M  V30 6037 O 556.214 5.29798 2.08092 0
M  V30 6038 N 557.416 4.42017 3.763 0
M  V30 6039 H 560.181 2.99658 -0.0501592 0
M  V30 6040 H 557.742 1.60979 -0.17248 0
M  V30 6041 H 559.734 3.20388 2.47252 0
M  V30 6042 H 558.304 2.16382 2.25605 0
M  V30 6043 H 557.524 3.9116 0.488584 0
M  V30 6044 H 558.812 4.96948 1.09179 0
M  V30 6045 H 558.21 3.9076 4.09051 0
M  V30 6046 H 556.767 4.77242 4.4394 0
M  V30 6047 N 560.2 0.0768682 1.57412 0
M  V30 6048 C 561.448 -0.589918 1.93299 0
M  V30 6049 C 561.769 -1.69842 0.958049 0
M  V30 6050 O 561.039 -1.95899 0.00703261 0
M  V30 6051 H 559.619 -0.220901 0.713591 0
M  V30 6052 H 562.281 0.135917 1.94425 0
M  V30 6053 H 561.377 -1.01195 2.95239 0
M  V30 6054 N 561.678 -1.56367 -0.196722 0
M  V30 6055 C 562.641 -1.93561 -1.22746 0
M  V30 6056 C 563.641 -0.816566 -1.38524 0
M  V30 6057 O 564.831 -1.084 -1.36363 0
M  V30 6058 C 561.963 -2.20823 -2.59712 0
M  V30 6059 H 563.156 -2.85774 -0.909586 0
M  V30 6060 H 560.709 -1.50032 -0.438174 0
M  V30 6061 H 561.444 -1.31243 -2.96557 0
M  V30 6062 H 561.229 -3.02368 -2.49632 0
M  V30 6063 H 562.719 -2.50608 -3.34044 0
M  V30 6064 N 563.156 0.464375 -1.50603 0
M  V30 6065 C 564.386 1.23727 -1.65454 0
M  V30 6066 C 564.794 1.86119 -0.340032 0
M  V30 6067 O 564.137 1.70301 0.688706 0
M  V30 6068 C 564.199 2.38153 -2.69301 0
M  V30 6069 C 563.863 1.96345 -4.12671 0
M  V30 6070 C 564.86 1.48215 -4.98326 0
M  V30 6071 C 562.545 2.04861 -4.58625 0
M  V30 6072 C 564.539 1.09152 -6.27985 0
M  V30 6073 C 562.226 1.65409 -5.88288 0
M  V30 6074 C 563.224 1.17634 -6.72794 0
M  V30 6075 O 562.912 0.787312 -8.00035 0
M  V30 6076 H 562.644 0.380075 -0.559034 0
M  V30 6077 H 565.198 0.559919 -1.97621 0
M  V30 6078 H 563.428 3.09081 -2.32392 0
M  V30 6079 H 565.117 3.00099 -2.73304 0
M  V30 6080 H 565.883 1.41052 -4.64036 0
M  V30 6081 H 561.762 2.40996 -3.92991 0
M  V30 6082 H 565.306 0.717909 -6.93896 0
M  V30 6083 H 561.203 1.72233 -6.22098 0
M  V30 6084 H 561.971 0.915567 -8.13363 0
M  V30 6085 N 564.634 1.40294 0.718013 0
M  V30 6086 C 565.564 1.43118 1.84498 0
M  V30 6087 C 566.545 0.292403 1.67568 0
M  V30 6088 O 567.73 0.500675 1.87635 0
M  V30 6089 C 564.86 1.29065 3.22427 0
M  V30 6090 C 563.814 2.40521 3.54025 0
M  V30 6091 C 563.14 2.11546 4.91073 0
M  V30 6092 C 564.44 3.82859 3.55269 0
M  V30 6093 H 566.134 2.37432 1.82391 0
M  V30 6094 H 563.68 1.14283 0.87609 0
M  V30 6095 H 565.633 1.29658 4.00957 0
M  V30 6096 H 564.357 0.312271 3.25104 0
M  V30 6097 H 563.016 2.39173 2.77834 0
M  V30 6098 H 562.664 1.12104 4.90348 0
M  V30 6099 H 562.364 2.86216 5.1318 0
M  V30 6100 H 563.888 2.13817 5.71939 0
M  V30 6101 H 565.302 3.86044 4.23843 0
M  V30 6102 H 563.699 4.57029 3.88902 0
M  V30 6103 H 564.769 4.12617 2.54706 0
M  V30 6104 N 566.112 -0.949982 1.2575 0
M  V30 6105 C 567.358 -1.69766 1.10938 0
M  V30 6106 C 567.691 -1.91056 -0.348028 0
M  V30 6107 O 566.966 -1.48488 -1.25625 0
M  V30 6108 C 567.249 -3.07779 1.86933 0
M  V30 6109 C 567.102 -2.9387 3.4053 0
M  V30 6110 C 568.421 -4.07749 1.65616 0
M  V30 6111 H 565.54 -0.616144 0.404396 0
M  V30 6112 H 568.182 -1.10394 1.54639 0
M  V30 6113 H 566.332 -3.58462 1.4979 0
M  V30 6114 H 568.004 -2.50476 3.87375 0
M  V30 6115 H 566.247 -2.29686 3.68004 0
M  V30 6116 H 566.918 -3.91719 3.88922 0
M  V30 6117 H 569.394 -3.65994 1.97959 0
M  V30 6118 H 568.27 -5.02348 2.21218 0
M  V30 6119 H 568.531 -4.38029 0.598595 0
M  V30 6120 N 567.59 -1.07411 -1.15328 0
M  V30 6121 C 568.52 -0.716472 -2.22236 0
M  V30 6122 C 569.501 0.296373 -1.67498 0
M  V30 6123 O 570.686 0.168989 -1.93463 0
M  V30 6124 C 567.816 -0.114142 -3.47112 0
M  V30 6125 C 566.77 -1.05421 -4.14814 0
M  V30 6126 C 566.096 -0.314604 -5.33774 0
M  V30 6127 C 567.396 -2.38808 -4.64508 0
M  V30 6128 H 569.09 -1.61029 -2.52408 0
M  V30 6129 H 566.636 -0.775702 -1.21321 0
M  V30 6130 H 568.589 0.148001 -4.2114 0
M  V30 6131 H 567.313 0.814755 -3.16274 0
M  V30 6132 H 565.972 -1.30128 -3.42728 0
M  V30 6133 H 565.62 0.617772 -4.99192 0
M  V30 6134 H 565.32 -0.941209 -5.80013 0
M  V30 6135 H 566.844 -0.0602747 -6.1057 0
M  V30 6136 H 568.258 -2.18424 -5.3006 0
M  V30 6137 H 566.655 -2.97069 -5.21412 0
M  V30 6138 H 567.725 -3.01067 -3.80114 0
M  V30 6139 N 569.068 1.32177 -0.85831 0
M  V30 6140 C 570.316 1.96735 -0.462568 0
M  V30 6141 C 570.637 1.6824 0.985911 0
M  V30 6142 O 569.907 0.991564 1.68952 0
M  V30 6143 H 568.487 0.727849 -0.168064 0
M  V30 6144 H 571.149 1.61195 -1.09554 0
M  V30 6145 H 570.245 3.06068 -0.610647 0
M  V30 6146 N 570.547 0.616602 1.45037 0
M  V30 6147 C 571.477 -0.0840787 2.33349 0
M  V30 6148 C 572.458 -0.849641 1.4736 0
M  V30 6149 O 573.643 -0.818407 1.76113 0
M  V30 6150 C 570.773 -1.07604 3.3021 0
M  V30 6151 C 569.727 -0.423096 4.25904 0
M  V30 6152 C 569.053 -1.52394 5.12523 0
M  V30 6153 C 570.353 0.661457 5.18095 0
M  V30 6154 H 572.047 0.653333 2.92185 0
M  V30 6155 H 569.593 0.315634 1.40498 0
M  V30 6156 H 571.546 -1.57485 3.90866 0
M  V30 6157 H 570.27 -1.84416 2.69552 0
M  V30 6158 H 568.929 0.05493 3.66559 0
M  V30 6159 H 568.577 -2.28257 4.48227 0
M  V30 6160 H 568.277 -1.09251 5.77354 0
M  V30 6161 H 569.801 -2.02485 5.76049 0
M  V30 6162 H 571.215 0.246353 5.7277 0
M  V30 6163 H 569.612 1.01517 5.91451 0
M  V30 6164 H 570.682 1.53446 4.59981 0
M  V30 6165 N 572.025 -1.5352 0.356285 0
M  V30 6166 C 573.271 -2.01414 -0.236653 0
M  V30 6167 C 573.604 -1.24339 -1.49176 0
M  V30 6168 O 572.879 -0.334496 -1.91602 0
M  V30 6169 C 573.162 -3.56059 -0.537982 0
M  V30 6170 C 573.015 -4.43835 0.730112 0
M  V30 6171 C 574.334 -4.19127 -1.34239 0
M  V30 6172 H 571.453 -0.732135 -0.0845386 0
M  V30 6173 H 574.095 -1.83854 0.479341 0
M  V30 6174 H 572.245 -3.71153 -1.14795 0
M  V30 6175 H 573.917 -4.40555 1.36782 0
M  V30 6176 H 572.16 -4.1218 1.3524 0
M  V30 6177 H 572.831 -5.49958 0.474358 0
M  V30 6178 H 575.307 -4.07809 -0.826498 0
M  V30 6179 H 574.183 -5.27378 -1.52198 0
M  V30 6180 H 574.444 -3.74581 -2.34822 0
M  V30 6181 N 573.503 -0.0852151 -1.57369 0
M  V30 6182 C 574.466 0.8627 -2.12344 0
M  V30 6183 C 575.466 1.21746 -1.05046 0
M  V30 6184 O 576.656 1.14852 -1.30976 0
M  V30 6185 C 573.788 2.1618 -2.63589 0
M  V30 6186 H 574.981 0.385511 -2.97412 0
M  V30 6187 H 572.534 0.163663 -1.55441 0
M  V30 6188 H 573.269 2.68406 -1.82013 0
M  V30 6189 H 573.054 1.91723 -3.4203 0
M  V30 6190 H 574.544 2.84011 -3.06149 0
M  V30 6191 N 574.981 1.5647 0.188427 0
M  V30 6192 C 575.911 1.98101 1.23606 0
M  V30 6193 C 576.892 0.853961 1.47111 0
M  V30 6194 O 578.077 1.11879 1.58735 0
M  V30 6195 C 575.207 2.32624 2.57882 0
M  V30 6196 C 574.161 3.48129 2.48978 0
M  V30 6197 C 573.487 3.68347 3.87588 0
M  V30 6198 C 574.787 4.82112 2.00911 0
M  V30 6199 H 576.481 2.85864 0.890068 0
M  V30 6200 H 574.027 1.37532 0.426714 0
M  V30 6201 H 575.98 2.60343 3.3136 0
M  V30 6202 H 574.704 1.41751 2.94235 0
M  V30 6203 H 573.363 3.20511 1.77956 0
M  V30 6204 H 573.011 2.74793 4.21305 0
M  V30 6205 H 572.711 4.46055 3.82503 0
M  V30 6206 H 574.235 3.98449 4.62678 0
M  V30 6207 H 575.649 5.08819 2.64151 0
M  V30 6208 H 574.046 5.63337 2.06814 0
M  V30 6209 H 575.116 4.75249 0.96262 0
M  V30 6210 N 576.459 -0.456382 1.50847 0
M  V30 6211 C 577.707 -1.20497 1.62249 0
M  V30 6212 C 578.028 -1.92156 0.331839 0
M  V30 6213 O 577.298 -1.84751 -0.651443 0
M  V30 6214 H 575.878 -0.447775 0.597918 0
M  V30 6215 H 578.54 -0.525099 1.87693 0
M  V30 6216 H 577.636 -1.94492 2.44089 0
M  V30 6217 N 577.937 -1.40673 -0.710563 0
M  V30 6218 C 579.184 -1.39222 -1.47049 0
M  V30 6219 C 579.512 0.0037691 -1.945 0
M  V30 6220 O 578.767 0.989224 -1.68857 0
M  V30 6221 C 579.066 -2.33253 -2.70791 0
M  V30 6222 C 578.732 -3.80406 -2.42079 0
M  V30 6223 C 577.394 -4.20496 -2.33959 0
M  V30 6224 C 579.746 -4.73375 -2.18094 0
M  V30 6225 C 577.074 -5.51584 -1.99929 0
M  V30 6226 C 579.426 -6.04768 -1.85576 0
M  V30 6227 C 578.09 -6.43895 -1.75941 0
M  V30 6228 H 577.36 -0.509449 -0.538092 0
M  V30 6229 H 580.007 -1.73363 -0.81348 0
M  V30 6230 H 578.312 -1.92314 -3.41354 0
M  V30 6231 H 580.009 -2.29412 -3.28894 0
M  V30 6232 H 576.599 -3.48645 -2.49288 0
M  V30 6233 H 580.783 -4.43217 -2.23321 0
M  V30 6234 H 576.039 -5.80797 -1.91011 0
M  V30 6235 H 580.213 -6.76318 -1.66033 0
M  V30 6236 H 577.84 -7.45387 -1.4934 0
M  V30 6237 N 579.415 0.9433 -1.26252 0
M  V30 6238 C 580.643 1.72367 -1.14443 0
M  V30 6239 C 581.058 1.86392 0.300572 0
M  V30 6240 O 580.415 1.36978 1.20596 0
M  V30 6241 C 580.466 3.13155 -1.806 0
M  V30 6242 O 580.187 2.99803 -3.19452 0
M  V30 6243 C 581.688 4.07417 -1.74717 0
M  V30 6244 H 578.908 0.539758 -0.398626 0
M  V30 6245 H 581.452 1.18268 -1.66832 0
M  V30 6246 H 579.607 3.64162 -1.32154 0
M  V30 6247 H 580.021 3.88697 -3.52158 0
M  V30 6248 H 581.495 5.03773 -2.25647 0
M  V30 6249 H 581.972 4.3337 -0.713244 0
M  V30 6250 H 582.578 3.6233 -2.22704 0
M  V30 6251 N 580.893 1.08022 1.14757 0
M  V30 6252 C 581.823 0.728248 2.21853 0
M  V30 6253 C 582.804 -0.287486 1.67653 0
M  V30 6254 O 583.989 -0.158727 1.9355 0
M  V30 6255 C 581.119 0.132549 3.47047 0
M  V30 6256 C 580.073 1.07619 4.14249 0
M  V30 6257 C 579.399 0.342907 5.33599 0
M  V30 6258 C 580.699 2.41268 4.63235 0
M  V30 6259 H 582.393 1.62365 2.51551 0
M  V30 6260 H 579.939 0.782125 1.20908 0
M  V30 6261 H 581.892 -0.125665 4.21213 0
M  V30 6262 H 580.616 -0.797971 3.16702 0
M  V30 6263 H 579.275 1.31944 3.42033 0
M  V30 6264 H 578.923 -0.59129 4.99513 0
M  V30 6265 H 578.623 0.971955 5.79506 0
M  V30 6266 H 580.147 0.0926538 6.1053 0
M  V30 6267 H 581.561 2.21232 5.28894 0
M  V30 6268 H 579.958 2.9983 5.19829 0
M  V30 6269 H 581.028 3.03079 3.78512 0
M  V30 6270 N 582.371 -1.3172 0.865308 0
M  V30 6271 C 583.62 -1.96145 0.470098 0
M  V30 6272 C 583.933 -1.69182 -0.981674 0
M  V30 6273 O 585.139 -2.27431 -1.48281 0
M  V30 6274 C 583.595 -3.51129 0.789732 0
M  V30 6275 C 583.203 -3.86938 2.25795 0
M  V30 6276 C 584.947 -4.2197 0.462765 0
M  V30 6277 C 582.854 -5.35012 2.52024 0
M  V30 6278 H 581.784 -0.734105 0.172065 0
M  V30 6279 H 584.435 -1.49959 1.05757 0
M  V30 6280 H 582.817 -3.95781 0.131571 0
M  V30 6281 H 583.991 -3.5326 2.95879 0
M  V30 6282 H 582.306 -3.29149 2.55049 0
M  V30 6283 H 584.903 -5.30904 0.636019 0
M  V30 6284 H 585.246 -4.12005 -0.59645 0
M  V30 6285 H 585.779 -3.82936 1.07727 0
M  V30 6286 H 582.518 -5.50008 3.56611 0
M  V30 6287 H 582.038 -5.70058 1.8653 0
M  V30 6288 H 583.717 -6.0222 2.36515 0
M  V30 6289 N 583.85 -0.624285 -1.44708 0
M  V30 6290 C 585.075 -0.131171 -2.06985 0
M  V30 6291 C 585.5 1.18234 -1.46295 0
M  V30 6292 O 584.858 1.72375 -0.561842 0
M  V30 6293 C 584.906 -0.0226724 -3.60593 0
M  V30 6294 O 584.01 1.02314 -3.99507 0
M  V30 6295 H 583.351 -0.0816556 -0.65896 0
M  V30 6296 H 585.88 -0.859027 -1.85693 0
M  V30 6297 H 585.891 0.170138 -4.07645 0
M  V30 6298 H 584.566 -0.981685 -4.04148 0
M  V30 6299 H 583.143 0.805452 -3.64097 0
M  V30 6300 N 585.328 1.53329 -0.364422 0
M  V30 6301 C 586.574 2.01537 0.225969 0
M  V30 6302 C 586.907 1.25128 1.48515 0
M  V30 6303 O 586.182 0.344653 1.91422 0
M  V30 6304 C 586.465 3.56339 0.519092 0
M  V30 6305 C 586.318 4.43441 -0.753639 0
M  V30 6306 C 587.637 4.19833 1.32015 0
M  V30 6307 H 584.756 0.732573 0.0806548 0
M  V30 6308 H 587.398 1.83597 -0.489084 0
M  V30 6309 H 585.548 3.71756 1.12825 0
M  V30 6310 H 587.22 4.39823 -1.39116 0
M  V30 6311 H 585.463 4.11457 -1.37424 0
M  V30 6312 H 586.134 5.49699 -0.503517 0
M  V30 6313 H 588.61 4.08242 0.804859 0
M  V30 6314 H 587.486 5.28177 1.49399 0
M  V30 6315 H 587.747 3.75821 2.32832 0
M  V30 6316 N 586.806 0.0935595 1.57322 0
M  V30 6317 C 588.053 -0.570509 1.94297 0
M  V30 6318 C 588.381 -1.68286 0.97519 0
M  V30 6319 O 587.636 -1.95699 -0.00548655 0
M  V30 6320 C 587.935 -1.16692 3.37813 0
M  V30 6321 C 587.601 -0.178509 4.50547 0
M  V30 6322 C 586.263 0.0933475 4.81109 0
M  V30 6323 C 588.615 0.496472 5.1883 0
M  V30 6324 C 585.943 1.0469 5.77284 0
M  V30 6325 C 588.295 1.43849 6.16028 0
M  V30 6326 C 586.959 1.71859 6.44997 0
M  V30 6327 H 586.229 -0.208764 0.710984 0
M  V30 6328 H 588.876 0.169066 1.90752 0
M  V30 6329 H 587.181 -1.98271 3.37929 0
M  V30 6330 H 588.878 -1.6884 3.63722 0
M  V30 6331 H 585.468 -0.400584 4.26724 0
M  V30 6332 H 589.652 0.299584 4.95395 0
M  V30 6333 H 584.908 1.27094 5.98044 0
M  V30 6334 H 589.082 1.96734 6.68034 0
M  V30 6335 H 586.709 2.45906 7.19329 0
M  V30 6336 N 588.284 -1.56567 -0.180126 0
M  V30 6337 C 589.512 -1.85618 -0.913972 0
M  V30 6338 C 589.927 -0.677892 -1.7621 0
M  V30 6339 O 589.284 0.353171 -1.7905 0
M  V30 6340 C 589.335 -3.13619 -1.79793 0
M  V30 6341 O 589.056 -4.26906 -0.98402 0
M  V30 6342 C 590.557 -3.55954 -2.64219 0
M  V30 6343 H 587.777 -0.616043 -0.265954 0
M  V30 6344 H 590.321 -2.03681 -0.182872 0
M  V30 6345 H 588.476 -2.97409 -2.48247 0
M  V30 6346 H 588.89 -4.9989 -1.58776 0
M  V30 6347 H 590.364 -4.48444 -3.21873 0
M  V30 6348 H 590.841 -2.79653 -3.38661 0
M  V30 6349 H 591.447 -3.74746 -2.01111 0
M  V30 6350 N 589.762 0.448376 -1.51087 0
M  V30 6351 C 590.692 1.55102 -1.74544 0
M  V30 6352 C 591.673 1.59357 -0.594932 0
M  V30 6353 O 592.858 1.75261 -0.836491 0
M  V30 6354 C 589.988 2.93268 -1.86041 0
M  V30 6355 C 588.942 3.03877 -3.01402 0
M  V30 6356 C 588.268 4.43914 -2.98068 0
M  V30 6357 C 589.568 2.7898 -4.41551 0
M  V30 6358 H 591.262 1.35724 -2.66869 0
M  V30 6359 H 588.808 0.651498 -1.28419 0
M  V30 6360 H 590.761 3.70356 -2.01034 0
M  V30 6361 H 589.485 3.13853 -0.903548 0
M  V30 6362 H 588.144 2.29227 -2.86096 0
M  V30 6363 H 587.792 4.6145 -2.00182 0
M  V30 6364 H 587.492 4.51944 -3.75527 0
M  V30 6365 H 589.016 5.22991 -3.1514 0
M  V30 6366 H 590.43 3.45805 -4.57265 0
M  V30 6367 H 588.827 2.98431 -5.20633 0
M  V30 6368 H 589.897 1.74663 -4.5235 0
M  V30 6369 N 591.24 1.41047 0.703093 0
M  V30 6370 C 592.465 1.43537 1.49706 0
M  V30 6371 C 592.89 0.0401853 1.88057 0
M  V30 6372 O 592.248 -0.954785 1.54122 0
M  V30 6373 C 592.296 2.3433 2.74084 0
M  V30 6374 O 591.4 1.79515 3.71279 0
M  V30 6375 H 590.741 0.487454 0.450871 0
M  V30 6376 H 593.271 1.85422 0.86486 0
M  V30 6377 H 593.281 2.49947 3.22476 0
M  V30 6378 H 591.956 3.35708 2.45506 0
M  V30 6379 H 590.533 1.7331 3.30179 0
M  V30 6380 N 592.718 -0.936591 1.26751 0
M  V30 6381 C 593.966 -1.67998 1.12343 0
M  V30 6382 C 594.287 -1.92137 -0.332938 0
M  V30 6383 O 593.557 -1.52132 -1.23421 0
M  V30 6384 H 592.137 -0.622609 0.412756 0
M  V30 6385 H 594.799 -1.12509 1.59147 0
M  V30 6386 H 593.895 -2.65185 1.64571 0
M  V30 6387 N 594.196 -1.08629 -1.14182 0
M  V30 6388 C 595.607 -0.838003 -1.66836 0
M  V30 6389 C 595.958 0.634885 -1.85644 0
M  V30 6390 O 595.083 1.49008 -1.56926 0
M  V30 6391 C 595.678 -1.51465 -3.03058 0
M  V30 6392 C 594.237 -1.31355 -3.52736 0
M  V30 6393 C 593.384 -1.57599 -2.28162 0
M  V30 6394 H 596.335 -1.24656 -0.982165 0
M  V30 6395 H 596.356 -0.943134 -3.68626 0
M  V30 6396 H 595.868 -2.58661 -2.89337 0
M  V30 6397 H 593.969 -0.262384 -3.71675 0
M  V30 6398 H 594.082 -2.04275 -4.33369 0
M  V30 6399 H 592.446 -0.997659 -2.34348 0
M  V30 6400 H 593.229 -2.66006 -2.17015 0
M  V30 6401 N 595.674 1.31259 -0.872281 0
M  V30 6402 C 596.922 1.96233 -0.483409 0
M  V30 6403 C 597.243 1.69276 0.968012 0
M  V30 6404 O 596.513 1.00943 1.67891 0
M  V30 6405 H 595.093 0.726025 -0.175774 0
M  V30 6406 H 597.755 1.60024 -1.11258 0
M  V30 6407 H 596.851 3.05403 -0.643075 0
M  V30 6408 N 597.152 0.631951 1.44375 0
M  V30 6409 C 598.563 0.219036 1.85411 0
M  V30 6410 C 598.914 -1.22974 1.52879 0
M  V30 6411 O 598.039 -1.93579 0.967266 0
M  V30 6412 C 598.634 0.39075 3.36539 0
M  V30 6413 C 597.193 0.0323351 3.76386 0
M  V30 6414 C 596.34 0.703744 2.68221 0
M  V30 6415 H 599.291 0.837056 1.3483 0
M  V30 6416 H 599.312 -0.370056 3.78696 0
M  V30 6417 H 598.824 1.44527 3.60185 0
M  V30 6418 H 596.925 -1.02042 3.58355 0
M  V30 6419 H 597.038 0.442969 4.77048 0
M  V30 6420 H 595.402 0.138974 2.54321 0
M  V30 6421 H 596.185 1.76088 2.947 0
M  V30 6422 N 598.631 -1.53133 0.372548 0
M  V30 6423 C 599.561 -2.28876 -0.462412 0
M  V30 6424 C 600.542 -1.31583 -1.07796 0
M  V30 6425 O 601.727 -1.60461 -1.09389 0
M  V30 6426 C 598.857 -3.08317 -1.59868 0
M  V30 6427 C 597.811 -4.13355 -1.11003 0
M  V30 6428 C 597.137 -4.8092 -2.33708 0
M  V30 6429 C 598.437 -5.21955 -0.18983 0
M  V30 6430 H 600.131 -2.9892 0.169511 0
M  V30 6431 H 597.677 -1.43761 0.0829658 0
M  V30 6432 H 599.63 -3.60055 -2.18949 0
M  V30 6433 H 598.354 -2.35976 -2.25794 0
M  V30 6434 H 597.013 -3.62573 -0.541869 0
M  V30 6435 H 596.661 -4.05144 -2.98106 0
M  V30 6436 H 596.361 -5.51904 -2.01682 0
M  V30 6437 H 597.885 -5.35455 -2.93462 0
M  V30 6438 H 599.299 -5.69153 -0.688319 0
M  V30 6439 H 597.696 -6.00087 0.0398887 0
M  V30 6440 H 598.766 -4.78811 0.766057 0
M  V30 6441 N 600.109 -0.101901 -1.5727 0
M  V30 6442 C 601.334 0.571759 -1.99363 0
M  V30 6443 C 601.759 1.60507 -0.980768 0
M  V30 6444 O 601.117 1.81231 0.0498517 0
M  V30 6445 C 601.165 1.18996 -3.404 0
M  V30 6446 O 600.269 2.30572 -3.41922 0
M  V30 6447 H 599.61 0.144449 -0.648098 0
M  V30 6448 H 602.14 -0.185325 -2.03759 0
M  V30 6449 H 602.15 1.52962 -3.78241 0
M  V30 6450 H 600.825 0.432984 -4.1364 0
M  V30 6451 H 599.402 1.98173 -3.15883 0
M  V30 6452 N 601.587 1.56661 0.17182 0
M  V30 6453 C 602.517 1.99401 1.21498 0
M  V30 6454 C 603.498 0.869516 1.46197 0
M  V30 6455 O 604.683 1.13556 1.57539 0
M  V30 6456 C 601.813 2.35346 2.55401 0
M  V30 6457 C 600.767 3.5075 2.45272 0
M  V30 6458 C 600.093 3.72437 3.8366 0
M  V30 6459 C 601.393 4.84216 1.95787 0
M  V30 6460 H 603.087 2.86792 0.859699 0
M  V30 6461 H 600.633 1.37977 0.412103 0
M  V30 6462 H 602.586 2.63843 3.2858 0
M  V30 6463 H 601.31 1.44864 2.92715 0
M  V30 6464 H 599.969 3.2238 1.74547 0
M  V30 6465 H 599.617 2.79246 4.18367 0
M  V30 6466 H 599.317 4.50087 3.77751 0
M  V30 6467 H 600.841 4.03334 4.58426 0
M  V30 6468 H 602.255 5.11592 2.5874 0
M  V30 6469 H 600.652 5.65498 2.00827 0
M  V30 6470 H 601.722 4.76243 0.912159 0
M  V30 6471 N 603.065 -0.440357 1.51323 0
M  V30 6472 C 603.995 -1.54174 1.75364 0
M  V30 6473 C 604.976 -1.59039 0.603375 0
M  V30 6474 O 606.161 -1.74815 0.845774 0
M  V30 6475 C 603.291 -2.92277 1.87593 0
M  V30 6476 C 602.245 -3.02274 3.03009 0
M  V30 6477 C 601.571 -4.42327 3.00418 0
M  V30 6478 C 602.871 -2.76634 4.43024 0
M  V30 6479 H 604.565 -1.34307 2.67585 0
M  V30 6480 H 602.111 -0.644678 1.28763 0
M  V30 6481 H 604.064 -3.69284 2.02995 0
M  V30 6482 H 602.788 -3.13369 0.920179 0
M  V30 6483 H 601.447 -2.27706 2.87307 0
M  V30 6484 H 601.095 -4.60382 2.02626 0
M  V30 6485 H 600.795 -4.49946 3.77918 0
M  V30 6486 H 602.319 -5.21312 3.17909 0
M  V30 6487 H 603.733 -3.43376 4.59093 0
M  V30 6488 H 602.13 -2.95666 5.22208 0
M  V30 6489 H 603.2 -1.72262 4.5327 0
M  V30 6490 N 604.543 -1.41418 -0.695603 0
M  V30 6491 C 605.959 -1.23887 -1.00619 0
M  V30 6492 C 606.159 -0.128206 -2.01092 0
M  V30 6493 O 605.215 0.507408 -2.47349 0
M  V30 6494 C 606.528 -2.58816 -1.53083 0
M  V30 6495 C 608.076 -2.65998 -1.64967 0
M  V30 6496 C 608.551 -4.01244 -2.20833 0
M  V30 6497 N 610.042 -4.0309 -2.28194 0
M  V30 6498 C 610.777 -5.04539 -2.72448 0
M  V30 6499 N 610.273 -6.16378 -3.16306 0
M  V30 6500 N 612.066 -4.91901 -2.72011 0
M  V30 6501 H 604.217 -2.12379 -0.0300061 0
M  V30 6502 H 606.48 -0.944958 -0.0758797 0
M  V30 6503 H 606.186 -3.40842 -0.867147 0
M  V30 6504 H 606.06 -2.81299 -2.51298 0
M  V30 6505 H 608.447 -1.84331 -2.30448 0
M  V30 6506 H 608.528 -2.47325 -0.652982 0
M  V30 6507 H 608.172 -4.83359 -1.55968 0
M  V30 6508 H 608.102 -4.17257 -3.21254 0
M  V30 6509 H 610.593 -3.22341 -1.97242 0
M  V30 6510 H 610.906 -6.89658 -3.487 0
M  V30 6511 H 609.251 -6.19914 -3.14215 0
M  V30 6512 H 612.442 -4.03613 -2.37095 0
M  V30 6513 H 612.615 -5.71102 -3.06181 0
M  V30 6514 N 606.021 0.929856 -1.27246 0
M  V30 6515 C 607.437 1.20542 -1.04603 0
M  V30 6516 C 607.637 2.00276 0.221754 0
M  V30 6517 O 606.693 2.34835 0.927833 0
M  V30 6518 C 608.006 1.95566 -2.28417 0
M  V30 6519 C 609.554 2.08513 -2.33433 0
M  V30 6520 C 610.029 2.86943 -3.5697 0
M  V30 6521 N 611.52 2.94512 -3.57515 0
M  V30 6522 C 612.255 3.55656 -4.49774 0
M  V30 6523 N 611.751 4.18209 -5.52334 0
M  V30 6524 N 613.544 3.53038 -4.37402 0
M  V30 6525 H 605.695 0.397113 -2.08655 0
M  V30 6526 H 607.958 0.238277 -0.917566 0
M  V30 6527 H 607.664 1.44395 -3.20691 0
M  V30 6528 H 607.538 2.9619 -2.33563 0
M  V30 6529 H 609.925 2.58872 -1.41666 0
M  V30 6530 H 610.006 1.07117 -2.32292 0
M  V30 6531 H 609.65 2.37268 -4.49072 0
M  V30 6532 H 609.58 3.8862 -3.55362 0
M  V30 6533 H 612.071 2.50053 -2.83341 0
M  V30 6534 H 612.384 4.62796 -6.18902 0
M  V30 6535 H 610.729 4.16761 -5.56179 0
M  V30 6536 H 613.92 3.0337 -3.56489 0
M  V30 6537 H 614.093 4.004 -5.09493 0
M  V30 6538 N 607.499 1.09233 1.13605 0
M  V30 6539 C 608.431 0.687794 2.18637 0
M  V30 6540 C 609.444 -0.26936 1.60556 0
M  V30 6541 O 610.633 -0.0557162 1.78413 0
M  V30 6542 C 607.733 -0.00751901 3.38899 0
M  V30 6543 C 606.906 0.97067 4.26494 0
M  V30 6544 C 605.965 0.309129 5.25291 0
M  V30 6545 O 604.991 0.956149 5.61112 0
M  V30 6546 N 606.193 -0.937555 5.72879 0
M  V30 6547 H 608.958 1.59141 2.53957 0
M  V30 6548 H 606.519 0.979515 1.28907 0
M  V30 6549 H 608.511 -0.461238 4.02063 0
M  V30 6550 H 607.081 -0.813353 3.01833 0
M  V30 6551 H 606.301 1.603 3.60135 0
M  V30 6552 H 607.589 1.63323 4.81875 0
M  V30 6553 H 606.987 -1.48281 5.4592 0
M  V30 6554 H 605.544 -1.33463 6.3799 0
M  V30 6555 N 608.977 -1.30795 0.87923 0
M  V30 6556 C 610.223 -1.96653 0.495519 0
M  V30 6557 C 610.556 -1.69282 -0.951703 0
M  V30 6558 O 609.831 -0.994374 -1.6716 0
M  V30 6559 C 610.114 -3.51898 0.764174 0
M  V30 6560 C 609.967 -3.88808 2.2616 0
M  V30 6561 C 611.286 -4.39462 0.236825 0
M  V30 6562 H 608.405 -0.7143 0.181507 0
M  V30 6563 H 611.047 -1.54765 1.10217 0
M  V30 6564 H 609.197 -3.87709 0.247841 0
M  V30 6565 H 610.869 -3.63051 2.8459 0
M  V30 6566 H 609.112 -3.37082 2.73053 0
M  V30 6567 H 609.783 -4.97086 2.4002 0
M  V30 6568 H 612.259 -4.10528 0.678683 0
M  V30 6569 H 611.135 -5.47018 0.454176 0
M  V30 6570 H 611.396 -4.33621 -0.861683 0
M  V30 6571 N 610.455 -0.639598 -1.44038 0
M  V30 6572 C 611.403 0.0723409 -2.32487 0
M  V30 6573 C 612.397 0.827129 -1.47834 0
M  V30 6574 O 613.603 0.73907 -1.64127 0
M  V30 6575 H 609.978 0.0421696 -0.750817 0
M  V30 6576 H 611.949 -0.691593 -2.90275 0
M  V30 6577 C 610.698 1.03452 -3.31953 0
M  V30 6578 H 610.021 0.46315 -3.97108 0
M  V30 6579 H 611.461 1.502 -3.96505 0
M  V30 6580 C 609.92 2.12392 -2.61518 0
M  V30 6581 O 610.45 3.2059 -2.42044 0
M  V30 6582 N 608.656 1.88563 -2.21116 0
M  V30 6583 H 608.203 1.00577 -2.37154 0
M  V30 6584 H 608.161 2.61651 -1.74316 0
M  V30 6585 N 611.933 1.52934 -0.380664 0
M  V30 6586 C 612.843 2.29921 0.466192 0
M  V30 6587 C 613.859 1.36488 1.07922 0
M  V30 6588 O 615.035 1.69553 1.0869 0
M  V30 6589 C 612.1 3.08468 1.58266 0
M  V30 6590 C 611.161 4.17595 0.995627 0
M  V30 6591 C 610.394 4.92387 2.05889 0
M  V30 6592 O 610.617 4.67184 3.27254 0
M  V30 6593 O 609.551 5.77949 1.68102 0
M  V30 6594 H 613.377 3.03274 -0.160735 0
M  V30 6595 H 610.962 1.48698 -0.144617 0
M  V30 6596 H 612.844 3.57469 2.23145 0
M  V30 6597 H 611.519 2.37937 2.19471 0
M  V30 6598 H 610.426 3.72811 0.310332 0
M  V30 6599 H 611.759 4.90336 0.427918 0
M  V30 6600 N 613.412 0.11024 1.57214 0
M  V30 6601 C 614.658 -0.550684 1.9518 0
M  V30 6602 C 614.991 -1.66885 0.993122 0
M  V30 6603 O 614.266 -1.94479 0.0287907 0
M  V30 6604 C 614.549 -1.09163 3.43155 0
M  V30 6605 C 614.402 0.0225198 4.49794 0
M  V30 6606 C 615.721 -1.98527 3.92778 0
M  V30 6607 H 612.84 -0.198706 0.709708 0
M  V30 6608 H 615.482 0.184024 1.89107 0
M  V30 6609 H 613.632 -1.71775 3.48462 0
M  V30 6610 H 615.304 0.657443 4.56591 0
M  V30 6611 H 613.547 0.686868 4.28328 0
M  V30 6612 H 614.218 -0.39706 5.5057 0
M  V30 6613 H 616.694 -1.458 3.8972 0
M  V30 6614 H 615.57 -2.33298 4.96853 0
M  V30 6615 H 615.831 -2.90846 3.32958 0
M  V30 6616 N 614.89 -1.56749 -0.16351 0
M  V30 6617 C 615.853 -1.96121 -1.18613 0
M  V30 6618 C 616.853 -0.845765 -1.36761 0
M  V30 6619 O 618.043 -1.11268 -1.34033 0
M  V30 6620 C 615.175 -2.26282 -2.54969 0
M  V30 6621 H 616.368 -2.87639 -0.848764 0
M  V30 6622 H 613.921 -1.50928 -0.406251 0
M  V30 6623 H 614.656 -1.37504 -2.93706 0
M  V30 6624 H 614.441 -3.07595 -2.43162 0
M  V30 6625 H 615.931 -2.57638 -3.28653 0
M  V30 6626 O 616.407 0.308401 -1.58528 0
M  V30 6627 H 617.098 0.955962 -1.68467 0
M  V30 END ATOM
M  V30 BEGIN BOND
M  V30 END BOND
M  V30 END CTAB
M  END
$$$$
