drugbank_target|P02943 Maltoporin (DB02379; DB04173)
 OpenBabel12092120283D

  0  0  0     0  0            999 V3000
M  V30 BEGIN CTAB
M  V30 COUNTS 6793 6887 0 0 0
M  V30 BEGIN ATOM
M  V30 1 H -0.908 1.98254 -0.117106 0
M  V30 2 N 0 1.576 0 0
M  V30 3 C 0.933 2.03868 1.02534 0
M  V30 4 C 1.911 0.928543 1.3348 0
M  V30 5 O 3.095 1.19667 1.45644 0
M  V30 6 C 0.222 2.43627 2.35294 0
M  V30 7 C -0.732 3.65373 2.2001 0
M  V30 8 S 0.101 5.13292 1.52614 0
M  V30 9 C 1.257 5.56322 2.86805 0
M  V30 10 H 1.49 2.90518 0.631377 0
M  V30 11 H -0.977 1.52953 0.210867 0
M  V30 12 H 0.981 2.67203 3.11629 0
M  V30 13 H -0.358 1.57376 2.7183 0
M  V30 14 H -1.165 3.90944 3.18086 0
M  V30 15 H -1.563 3.418 1.51819 0
M  V30 16 H 0.729 5.58782 3.83104 0
M  V30 17 H 1.672 6.56266 2.65933 0
M  V30 18 H 2.08 4.83886 2.90714 0
M  V30 19 N 1.4781 -0.272755 1.55222 0
M  V30 20 C 2.4111 -1.3627 1.83046 0
M  V30 21 C 3.3891 -1.47536 0.683521 0
M  V30 22 O 4.5731 -1.64157 0.926545 0
M  V30 23 C 1.7001 -2.73908 1.99229 0
M  V30 24 C 0.7461 -2.79925 3.21783 0
M  V30 25 S 1.5791 -2.39146 4.79134 0
M  V30 26 C 2.7351 -3.78758 4.9829 0
M  V30 27 H 2.9681 -1.12464 2.75207 0
M  V30 28 H 0.5011 -0.472398 1.46996 0
M  V30 29 H 2.4591 -3.53171 2.09238 0
M  V30 30 H 1.1201 -2.94965 1.07956 0
M  V30 31 H 0.3131 -3.80946 3.29994 0
M  V30 32 H -0.0849 -2.08683 3.10367 0
M  V30 33 H 2.2071 -4.7403 4.84047 0
M  V30 34 H 3.1501 -3.75499 6.00338 0
M  V30 35 H 3.5581 -3.70072 4.26271 0
M  V30 36 N 2.9562 -1.48159 -0.537278 0
M  V30 37 C 4.2052 -1.5506 -1.28993 0
M  V30 38 C 4.5182 -0.226211 -1.94288 0
M  V30 39 O 5.7242 -0.173395 -2.70946 0
M  V30 40 C 4.1802 -2.73429 -2.34018 0
M  V30 41 C 3.7882 -4.1248 -1.74825 0
M  V30 42 C 5.5322 -2.89638 -3.10339 0
M  V30 43 C 3.4392 -5.22121 -2.77747 0
M  V30 44 H 2.3692 -0.577231 -0.485098 0
M  V30 45 H 5.0202 -1.74478 -0.568317 0
M  V30 46 H 3.4022 -2.47431 -3.09182 0
M  V30 47 H 4.5762 -4.48466 -1.05899 0
M  V30 48 H 2.8912 -4.01327 -1.11022 0
M  V30 49 H 5.4882 -3.68718 -3.87235 0
M  V30 50 H 5.8312 -1.9882 -3.65754 0
M  V30 51 H 6.3642 -3.15502 -2.42288 0
M  V30 52 H 3.1032 -6.1488 -2.27161 0
M  V30 53 H 2.6232 -4.90631 -3.45024 0
M  V30 54 H 4.3022 -5.49924 -3.4087 0
M  V30 55 N 4.4343 0.785586 -1.36625 0
M  V30 56 C 5.6623 1.57448 -1.3423 0
M  V30 57 C 6.0773 1.88649 0.0755653 0
M  V30 58 O 5.4343 1.50414 1.03354 0
M  V30 59 C 5.4853 2.89316 -2.16745 0
M  V30 60 O 5.2063 2.59459 -3.53005 0
M  V30 61 C 6.7073 3.83606 -2.22174 0
M  V30 62 H 3.9273 0.488226 -0.4603 0
M  V30 63 H 6.4713 0.974733 -1.79775 0
M  V30 64 H 4.6263 3.4575 -1.74745 0
M  V30 65 H 5.0403 3.43804 -3.96105 0
M  V30 66 H 6.5143 4.73181 -2.8426 0
M  V30 67 H 6.9913 4.21734 -1.22627 0
M  V30 68 H 7.5973 3.33104 -2.64427 0
M  V30 69 N 5.9124 1.20967 1.01018 0
M  V30 70 C 6.8424 0.988272 2.11555 0
M  V30 71 C 7.8234 -0.0849778 1.69888 0
M  V30 72 O 9.0084 0.0738202 1.9406 0
M  V30 73 C 6.1384 0.546528 3.42973 0
M  V30 74 C 5.0924 1.56375 3.9841 0
M  V30 75 C 4.4184 0.97842 5.25672 0
M  V30 76 C 5.7184 2.94922 4.31066 0
M  V30 77 H 7.4124 1.91276 2.30334 0
M  V30 78 H 4.9584 0.921073 1.1069 0
M  V30 79 H 6.9114 0.378839 4.19694 0
M  V30 80 H 5.6354 -0.413598 3.23971 0
M  V30 81 H 4.2944 1.71891 3.23804 0
M  V30 82 H 3.9424 0.0101688 5.02999 0
M  V30 83 H 3.6424 1.65784 5.63728 0
M  V30 84 H 5.1664 0.821939 6.05043 0
M  V30 85 H 6.5804 2.8288 4.9865 0
M  V30 86 H 4.9774 3.5983 4.80253 0
M  V30 87 H 6.0474 3.4616 3.39561 0
M  V30 88 N 7.3905 -1.2043 1.01659 0
M  V30 89 C 8.8065 -1.41852 0.731442 0
M  V30 90 C 9.0065 -1.89358 -0.688898 0
M  V30 91 O 8.0625 -2.06247 -1.45666 0
M  V30 92 C 9.3755 -2.44019 1.75714 0
M  V30 93 C 10.9235 -2.57785 1.77527 0
M  V30 94 C 11.3985 -3.63194 2.79023 0
M  V30 95 N 12.8895 -3.70678 2.77763 0
M  V30 96 C 13.6245 -4.51897 3.52954 0
M  V30 97 N 13.1205 -5.36921 4.37821 0
M  V30 98 N 14.9135 -4.4643 3.41551 0
M  V30 99 H 7.0645 -0.879093 1.93354 0
M  V30 100 H 9.3275 -0.448425 0.835236 0
M  V30 101 H 9.0335 -2.1611 2.77469 0
M  V30 102 H 8.9075 -3.43007 1.56927 0
M  V30 103 H 11.2945 -2.85023 0.764569 0
M  V30 104 H 11.3755 -1.58992 2.00387 0
M  V30 105 H 11.0195 -3.36699 3.80258 0
M  V30 106 H 10.9495 -4.61609 2.53425 0
M  V30 107 H 13.4405 -3.09944 2.16201 0
M  V30 108 H 13.7535 -5.95981 4.91962 0
M  V30 109 H 12.0985 -5.36424 4.41899 0
M  V30 110 H 15.2895 -3.79042 2.74672 0
M  V30 111 H 15.4625 -5.09491 4.00404 0
M  V30 112 N 8.8686 -0.792821 -1.36206 0
M  V30 113 C 9.8156 -0.191653 -2.30003 0
M  V30 114 C 10.7856 0.666453 -1.52143 0
M  V30 115 O 11.9706 0.61442 -1.80636 0
M  V30 116 C 9.1106 0.664848 -3.38635 0
M  V30 117 C 8.2236 -0.212175 -4.31479 0
M  V30 118 C 7.3586 0.651022 -5.27196 0
M  V30 119 C 6.3976 -0.227247 -6.11678 0
M  V30 120 N 5.5346 0.595127 -6.99573 0
M  V30 121 H 10.3746 -0.996978 -2.80828 0
M  V30 122 H 7.9116 -0.503206 -1.38225 0
M  V30 123 H 9.8696 1.17645 -4.00269 0
M  V30 124 H 8.4996 1.43557 -2.89122 0
M  V30 125 H 7.5516 -0.841777 -3.70969 0
M  V30 126 H 8.8636 -0.888751 -4.90818 0
M  V30 127 H 8.0176 1.2283 -5.94136 0
M  V30 128 H 6.7566 1.36121 -4.68319 0
M  V30 129 H 5.7616 -0.816904 -5.43697 0
M  V30 130 H 6.9866 -0.93509 -6.72631 0
M  V30 131 H 4.9326 1.28955 -6.432 0
M  V30 132 H 4.8496 -0.0236952 -7.55996 0
M  V30 133 H 6.1176 1.15613 -7.70879 0
M  V30 134 N 10.3467 1.47872 -0.545128 0
M  V30 135 C 11.2767 2.32661 0.197793 0
M  V30 136 C 12.2577 1.43041 0.920504 0
M  V30 137 O 13.4427 1.71912 0.90333 0
M  V30 138 C 10.5727 3.24569 1.23582 0
M  V30 139 C 9.5267 4.23333 0.630323 0
M  V30 140 C 8.8527 5.0448 1.77211 0
M  V30 141 C 10.1527 5.20704 -0.407974 0
M  V30 142 H 11.8467 2.95024 -0.510045 0
M  V30 143 H 9.3927 1.4187 -0.246731 0
M  V30 144 H 11.3457 3.8272 1.76362 0
M  V30 145 H 10.0697 2.60236 1.97344 0
M  V30 146 H 8.7287 3.6639 0.123922 0
M  V30 147 H 8.3767 4.36561 2.49847 0
M  V30 148 H 8.0767 5.71339 1.37281 0
M  V30 149 H 9.6007 5.65487 2.3034 0
M  V30 150 H 11.0147 5.7329 0.033305 0
M  V30 151 H 9.4117 5.95699 -0.725486 0
M  V30 152 H 10.4817 4.66917 -1.30828 0
M  V30 153 N 11.8248 0.280983 1.55075 0
M  V30 154 C 13.2358 -0.215629 1.85451 0
M  V30 155 C 13.5868 -1.54991 1.203 0
M  V30 156 O 12.7118 -2.10699 0.493435 0
M  V30 157 C 13.3068 -0.398026 3.36454 0
M  V30 158 C 11.8658 -0.838866 3.66933 0
M  V30 159 C 11.0128 0.064458 2.77225 0
M  V30 160 H 13.9638 0.502601 1.50531 0
M  V30 161 H 13.9848 -1.23569 3.59876 0
M  V30 162 H 13.4968 0.573241 3.83843 0
M  V30 163 H 11.5978 -1.8214 3.25048 0
M  V30 164 H 11.7108 -0.672123 4.74362 0
M  V30 165 H 10.0748 -0.452863 2.50642 0
M  V30 166 H 10.8578 1.03172 3.2743 0
M  V30 167 N 13.3029 -1.57598 0.00835791 0
M  V30 168 C 14.2329 -2.1198 -0.979113 0
M  V30 169 C 15.2139 -1.03091 -1.35301 0
M  V30 170 O 16.3989 -1.30818 -1.43528 0
M  V30 171 C 13.5289 -2.62995 -2.26828 0
M  V30 172 C 12.4829 -3.76485 -2.03576 0
M  V30 173 C 11.8089 -4.13846 -3.38579 0
M  V30 174 C 13.1089 -5.0342 -1.39161 0
M  V30 175 H 14.8029 -2.94738 -0.526281 0
M  V30 176 H 12.3489 -1.41783 -0.251704 0
M  V30 177 H 14.3019 -2.99669 -2.96271 0
M  V30 178 H 13.0259 -1.7737 -2.7424 0
M  V30 179 H 11.6849 -3.40217 -1.36557 0
M  V30 180 H 11.3329 -3.25232 -3.83709 0
M  V30 181 H 11.0329 -4.90312 -3.23834 0
M  V30 182 H 12.5569 -4.53086 -4.09323 0
M  V30 183 H 13.9709 -5.37812 -1.98573 0
M  V30 184 H 12.3679 -5.84746 -1.34878 0
M  V30 185 H 13.4379 -4.83548 -0.361868 0
M  V30 186 N 14.781 0.264519 -1.55364 0
M  V30 187 C 15.744 1.31046 -1.88042 0
M  V30 188 C 16.744 1.41943 -0.755569 0
M  V30 189 O 17.934 1.40947 -1.02369 0
M  V30 190 C 15.066 2.69067 -2.09323 0
M  V30 191 H 16.259 1.03297 -2.81549 0
M  V30 192 H 13.812 0.502989 -1.47986 0
M  V30 193 H 14.547 3.01982 -1.18226 0
M  V30 194 H 14.332 2.62542 -2.91229 0
M  V30 195 H 15.822 3.44623 -2.35848 0
M  V30 196 N 16.2591 1.48442 0.529413 0
M  V30 197 C 17.5051 1.5672 1.28711 0
M  V30 198 C 17.8381 0.2406 1.92704 0
M  V30 199 O 17.1131 -0.753454 1.79313 0
M  V30 200 C 17.3961 2.70587 2.37603 0
M  V30 201 C 17.2491 4.12953 1.78297 0
M  V30 202 C 18.5681 2.80212 3.39366 0
M  V30 203 H 15.6871 0.570474 0.466613 0
M  V30 204 H 18.3291 1.80617 0.589706 0
M  V30 205 H 16.4791 2.50342 2.97088 0
M  V30 206 H 18.1511 4.44639 1.22858 0
M  V30 207 H 16.3941 4.19927 1.0883 0
M  V30 208 H 17.0651 4.88448 2.57144 0
M  V30 209 H 19.5411 2.98553 2.89836 0
M  V30 210 H 18.4171 3.61611 4.12951 0
M  V30 211 H 18.6781 1.88393 3.99951 0
M  V30 212 N 17.7372 -0.778329 1.37039 0
M  V30 213 C 18.7002 -1.87301 1.32102 0
M  V30 214 C 19.7002 -1.59198 0.226405 0
M  V30 215 O 20.8902 -1.67403 0.481861 0
M  V30 216 C 18.0222 -3.24309 1.05055 0
M  V30 217 H 19.2152 -1.93093 2.29467 0
M  V30 218 H 16.7682 -0.977358 1.21973 0
M  V30 219 H 17.5032 -3.24196 0.0819373 0
M  V30 220 H 17.2882 -3.46098 1.84279 0
M  V30 221 H 18.7782 -4.04382 1.04234 0
M  V30 222 N 19.2153 -1.21501 -1.00376 0
M  V30 223 C 20.4613 -1.03452 -1.74429 0
M  V30 224 C 20.7943 0.430764 -1.89362 0
M  V30 225 O 20.0693 1.31962 -1.42886 0
M  V30 226 C 20.3523 -1.73375 -3.15615 0
M  V30 227 C 20.2053 -3.27431 -3.08397 0
M  V30 228 C 21.5243 -1.47732 -4.14564 0
M  V30 229 H 18.6433 -0.377226 -0.633143 0
M  V30 230 H 21.2853 -1.49693 -1.17013 0
M  V30 231 H 19.4353 -1.34064 -3.64636 0
M  V30 232 H 21.1073 -3.76119 -2.67081 0
M  V30 233 H 19.3503 -3.5767 -2.45468 0
M  V30 234 H 20.0213 -3.71524 -4.08258 0
M  V30 235 H 22.4973 -1.8186 -3.74254 0
M  V30 236 H 21.3733 -1.99169 -5.11491 0
M  V30 237 H 21.6343 -0.407589 -4.40217 0
M  V30 238 N 20.6934 1.19889 -1.02296 0
M  V30 239 C 21.6564 2.21116 -0.603351 0
M  V30 240 C 22.6564 1.5738 0.329884 0
M  V30 241 O 23.8464 1.73802 0.117702 0
M  V30 242 C 20.9784 3.40696 0.117992 0
M  V30 243 H 22.1714 2.59754 -1.49893 0
M  V30 244 H 19.7244 1.33463 -0.813468 0
M  V30 245 H 20.4594 3.07569 1.0282 0
M  V30 246 H 20.2444 3.88188 -0.552511 0
M  V30 247 H 21.7344 4.15692 0.398696 0
M  V30 248 N 22.1715 0.800033 1.35784 0
M  V30 249 C 23.1345 0.211565 2.28221 0
M  V30 250 C 24.1345 -0.59728 1.49296 0
M  V30 251 O 25.3245 -0.416721 1.69142 0
M  V30 252 C 22.4565 -0.705846 3.33513 0
M  V30 253 H 23.6495 1.02677 2.81776 0
M  V30 254 H 21.2025 0.570211 1.45528 0
M  V30 255 H 21.9375 -1.54498 2.85133 0
M  V30 256 H 21.7225 -0.127655 3.91892 0
M  V30 257 H 23.2125 -1.11211 4.02519 0
M  V30 258 N 23.6496 -1.47581 0.552962 0
M  V30 259 C 24.8976 -2.02082 0.0272703 0
M  V30 260 C 25.2186 -1.4301 -1.32563 0
M  V30 261 O 24.4886 -0.603745 -1.86365 0
M  V30 262 H 23.0686 -0.746966 0.00709182 0
M  V30 263 H 25.7306 -1.81033 0.722008 0
M  V30 264 H 24.8266 -3.12034 -0.0639951 0
M  V30 265 N 25.1277 -0.289203 -1.54924 0
M  V30 266 C 26.3737 0.323998 -2.00195 0
M  V30 267 C 26.7067 1.54441 -1.17735 0
M  V30 268 O 25.9817 1.92875 -0.250878 0
M  V30 269 C 26.2647 0.692276 -3.53383 0
M  V30 270 C 26.1177 -0.536457 -4.46589 0
M  V30 271 C 27.4367 1.52335 -4.12895 0
M  V30 272 H 24.5557 0.116289 -0.727768 0
M  V30 273 H 27.1977 -0.398954 -1.85764 0
M  V30 274 H 25.3477 1.30822 -3.65811 0
M  V30 275 H 27.0197 -1.17499 -4.46085 0
M  V30 276 H 25.2627 -1.17192 -4.1767 0
M  V30 277 H 25.9337 -0.234806 -5.515 0
M  V30 278 H 28.4097 1.00302 -4.0383 0
M  V30 279 H 27.2857 1.74982 -5.20262 0
M  V30 280 H 27.5467 2.50886 -3.64018 0
M  V30 281 N 26.6058 1.57591 -0.0167156 0
M  V30 282 C 27.5388 2.04944 1.00366 0
M  V30 283 C 28.5168 0.942648 1.32487 0
M  V30 284 O 29.7008 1.21205 1.44367 0
M  V30 285 C 26.8278 2.46109 2.32697 0
M  V30 286 C 25.8738 3.67686 2.16123 0
M  V30 287 S 26.7068 5.14882 1.47161 0
M  V30 288 C 27.8628 5.59332 2.80888 0
M  V30 289 H 28.0958 2.91172 0.600528 0
M  V30 290 H 25.6288 1.53168 0.194632 0
M  V30 291 H 27.5868 2.70493 3.08778 0
M  V30 292 H 26.2478 1.6025 2.70146 0
M  V30 293 H 25.4408 3.94296 3.13922 0
M  V30 294 H 25.0428 3.43391 1.48185 0
M  V30 295 H 27.3348 5.62814 3.77156 0
M  V30 296 H 28.2778 6.5905 2.58958 0
M  V30 297 H 28.6858 4.86942 2.85565 0
M  V30 298 N 28.0839 -0.256276 1.55502 0
M  V30 299 C 29.3089 -1.00766 1.81276 0
M  V30 300 C 29.7339 -1.78524 0.59252 0
M  V30 301 O 29.0919 -1.75413 -0.45827 0
M  V30 302 C 29.1399 -1.92869 3.04687 0
M  V30 303 O 28.2439 -3.019 2.80945 0
M  V30 304 H 27.5849 -0.287224 0.598664 0
M  V30 305 H 30.1149 -0.280109 2.02674 0
M  V30 306 H 30.1249 -2.34511 3.33869 0
M  V30 307 H 28.7999 -1.35689 3.93143 0
M  V30 308 H 27.3769 -2.64454 2.62904 0
M  V30 309 N 29.562 -1.4872 -0.521534 0
M  V30 310 C 30.525 -1.63379 -1.60748 0
M  V30 311 C 31.525 -0.50661 -1.52611 0
M  V30 312 O 32.715 -0.772601 -1.5613 0
M  V30 313 C 29.847 -1.61192 -3.00383 0
M  V30 314 H 31.04 -2.60217 -1.49087 0
M  V30 315 H 28.593 -1.37444 -0.744235 0
M  V30 316 H 29.328 -0.65863 -3.17541 0
M  V30 317 H 29.113 -2.43032 -3.07698 0
M  V30 318 H 30.603 -1.7466 -3.7932 0
M  V30 319 N 31.0401 0.771051 -1.3745 0
M  V30 320 C 31.9721 1.89352 -1.29146 0
M  V30 321 C 32.9851 1.61477 -0.207124 0
M  V30 322 O 34.1741 1.72382 -0.463324 0
M  V30 323 C 31.2741 3.24596 -0.974195 0
M  V30 324 C 30.4471 3.80111 -2.16413 0
M  V30 325 C 29.5061 4.93832 -1.81703 0
M  V30 326 O 28.5321 5.09382 -2.54006 0
M  V30 327 N 29.7341 5.75483 -0.761573 0
M  V30 328 H 32.4991 1.96991 -2.25864 0
M  V30 329 H 30.0601 0.950191 -1.31084 0
M  V30 330 H 32.0521 3.98193 -0.722828 0
M  V30 331 H 30.6221 3.12454 -0.0955527 0
M  V30 332 H 29.8421 2.98284 -2.57721 0
M  V30 333 H 31.1301 4.13932 -2.95867 0
M  V30 334 H 30.5281 5.65469 -0.161609 0
M  V30 335 H 29.0851 6.49302 -0.570064 0
M  V30 336 N 32.5182 1.22032 0.997298 0
M  V30 337 C 33.4812 0.987909 2.06816 0
M  V30 338 C 34.4812 -0.0440084 1.6074 0
M  V30 339 O 35.6712 0.194053 1.73116 0
M  V30 340 C 32.8032 0.49132 3.37341 0
M  V30 341 H 33.9962 1.93803 2.28868 0
M  V30 342 H 31.5492 1.03838 1.16822 0
M  V30 343 H 32.2842 -0.463364 3.20973 0
M  V30 344 H 32.0692 1.23575 3.72118 0
M  V30 345 H 33.5592 0.348824 4.16141 0
M  V30 346 N 33.9963 -1.19345 1.0293 0
M  V30 347 C 34.9293 -2.21347 0.555029 0
M  V30 348 C 35.9073 -1.57492 -0.404351 0
M  V30 349 O 37.0913 -1.85741 -0.321352 0
M  V30 350 C 34.2183 -3.38163 -0.19064 0
M  V30 351 C 33.2643 -4.20375 0.720236 0
M  V30 352 S 34.0973 -4.88371 2.19668 0
M  V30 353 C 35.2533 -6.08597 1.46153 0
M  V30 354 H 35.4863 -2.61235 1.41929 0
M  V30 355 H 33.0193 -1.29598 0.839272 0
M  V30 356 H 34.9773 -4.05871 -0.614724 0
M  V30 357 H 33.6383 -2.9671 -1.03063 0
M  V30 358 H 32.8313 -5.03793 0.14455 0
M  V30 359 H 32.4333 -3.57987 1.08266 0
M  V30 360 H 34.7253 -6.73354 0.748357 0
M  V30 361 H 35.6683 -6.7065 2.27233 0
M  V30 362 H 36.0763 -5.56297 0.958842 0
M  V30 363 N 35.4744 -0.807222 -1.35358 0
M  V30 364 C 36.4374 -0.223665 -2.28106 0
M  V30 365 C 37.4374 0.589354 -1.4961 0
M  V30 366 O 38.6274 0.407745 -1.69361 0
M  V30 367 C 35.7594 0.688149 -3.33882 0
M  V30 368 H 36.9524 -1.04169 -2.81227 0
M  V30 369 H 34.5054 -0.577921 -1.45223 0
M  V30 370 H 35.2404 1.52984 -2.85948 0
M  V30 371 H 35.0254 0.10687 -3.91954 0
M  V30 372 H 36.5154 1.09075 -4.03104 0
M  V30 373 N 36.9525 1.47285 -0.560781 0
M  V30 374 C 38.1985 2.02764 -0.0381184 0
M  V30 375 C 38.5315 1.43384 1.30976 0
M  V30 376 O 37.8065 0.590733 1.85312 0
M  V30 377 C 38.0895 3.60064 0.0511427 0
M  V30 378 C 37.9425 4.2987 -1.32408 0
M  V30 379 C 39.2615 4.33439 0.762795 0
M  V30 380 H 36.3805 0.736841 -0.0153264 0
M  V30 381 H 39.0225 1.75675 -0.723759 0
M  V30 382 H 37.1725 3.83274 0.635065 0
M  V30 383 H 38.8445 4.17989 -1.95148 0
M  V30 384 H 37.0875 3.90085 -1.8978 0
M  V30 385 H 37.7585 5.38478 -1.21431 0
M  V30 386 H 40.2345 4.15243 0.266965 0
M  V30 387 H 39.1105 5.43124 0.794221 0
M  V30 388 H 39.3715 4.02915 1.81966 0
M  V30 389 N 38.4306 0.297415 1.54768 0
M  V30 390 C 39.7076 -0.365847 1.92148 0
M  V30 391 C 40.0876 -1.71975 1.22424 0
M  V30 392 O 39.4356 -2.25666 0.358739 0
M  V30 393 C 39.6456 -0.484056 3.45627 0
M  V30 394 C 40.9936 -0.756594 4.17805 0
M  V30 395 O 42.0176 -0.568007 3.51642 0
M  V30 396 O 40.8766 -1.11863 5.34929 0
M  V30 397 H 37.9706 -0.203919 0.801465 0
M  V30 398 H 40.5166 0.34521 1.66152 0
M  V30 399 H 39.2886 0.467865 3.88493 0
M  V30 400 H 38.9116 -1.24372 3.77647 0
M  V30 401 N 39.9087 -1.5758 0.0250728 0
M  V30 402 C 41.1557 -1.91633 -0.654444 0
M  V30 403 C 41.4837 -0.901103 -1.72367 0
M  V30 404 O 40.7387 0.0905647 -1.9549 0
M  V30 405 C 41.0377 -3.32421 -1.31268 0
M  V30 406 C 40.7037 -4.49344 -0.374223 0
M  V30 407 C 39.3657 -4.8106 -0.115911 0
M  V30 408 C 41.7177 -5.20498 0.270432 0
M  V30 409 C 39.0457 -5.8129 0.79493 0
M  V30 410 C 41.3977 -6.21699 1.1693 0
M  V30 411 C 40.0617 -6.51859 1.43655 0
M  V30 412 H 39.3317 -0.701236 -0.239478 0
M  V30 413 H 41.9787 -1.91307 0.0859734 0
M  V30 414 H 40.2837 -3.28989 -2.12775 0
M  V30 415 H 41.9807 -3.56038 -1.84494 0
M  V30 416 H 38.5707 -4.24579 -0.58573 0
M  V30 417 H 42.7547 -4.96229 0.0839194 0
M  V30 418 H 38.0107 -6.03005 1.00973 0
M  V30 419 H 42.1847 -6.75955 1.67504 0
M  V30 420 H 39.8117 -7.2934 2.144 0
M  V30 421 N 41.3868 0.248026 -1.55636 0
M  V30 422 C 42.3368 1.30994 -1.86614 0
M  V30 423 C 43.3208 1.43543 -0.726918 0
M  V30 424 O 44.5128 1.46804 -0.988818 0
M  V30 425 C 41.6418 2.6656 -2.16335 0
M  V30 426 C 40.7278 2.58019 -3.36581 0
M  V30 427 N 41.1188 2.1911 -4.55878 0
M  V30 428 C 39.4168 2.89035 -3.39669 0
M  V30 429 C 40.1178 2.21174 -5.38012 0
M  V30 430 N 39.0938 2.60632 -4.77045 0
M  V30 431 H 42.8958 0.999583 -2.76379 0
M  V30 432 H 40.4098 0.456652 -1.55848 0
M  V30 433 H 42.4068 3.43194 -2.36692 0
M  V30 434 H 41.0668 2.98463 -1.27867 0
M  V30 435 H 42.0778 1.90672 -4.81523 0
M  V30 436 H 38.7548 3.25485 -2.61469 0
M  V30 437 H 40.1448 1.9344 -6.43452 0
M  V30 438 N 42.8649 1.48995 0.513639 0
M  V30 439 C 44.1129 1.57531 1.26604 0
M  V30 440 C 44.4339 0.258236 1.93283 0
M  V30 441 O 43.7039 -0.721502 1.8213 0
M  V30 442 H 42.2839 0.580387 0.470276 0
M  V30 443 H 44.9459 1.85552 0.596373 0
M  V30 444 H 44.0419 2.36486 2.03669 0
M  V30 445 N 44.343 -0.763751 1.37857 0
M  V30 446 C 45.573 -1.55067 1.3652 0
M  V30 447 C 45.981 -1.89135 -0.0494227 0
M  V30 448 O 45.324 -1.52529 -1.02375 0
M  V30 449 C 45.386 -2.8838 2.14656 0
M  V30 450 C 45.05 -2.76905 3.63555 0
M  V30 451 C 46.047 -2.4739 4.57268 0
M  V30 452 C 43.732 -2.94676 4.06781 0
M  V30 453 C 45.726 -2.35786 5.92186 0
M  V30 454 C 43.413 -2.82692 5.41782 0
M  V30 455 C 44.411 -2.53289 6.34298 0
M  V30 456 O 44.099 -2.41345 7.66817 0
M  V30 457 H 43.831 -0.486776 0.469069 0
M  V30 458 H 46.385 -0.953812 1.81911 0
M  V30 459 H 44.615 -3.50217 1.63967 0
M  V30 460 H 46.304 -3.49828 2.05852 0
M  V30 461 H 47.07 -2.33339 4.2518 0
M  V30 462 H 42.949 -3.16563 3.35126 0
M  V30 463 H 46.493 -2.12757 6.64365 0
M  V30 464 H 42.39 -2.96314 5.7347 0
M  V30 465 H 43.158 -2.56634 7.77226 0
M  V30 466 N 45.8211 -1.22559 -0.990812 0
M  V30 467 C 46.7841 -0.998863 -2.0629 0
M  V30 468 C 47.7841 0.0354834 -1.60761 0
M  V30 469 O 48.9741 -0.203231 -1.7301 0
M  V30 470 C 46.1061 -0.509203 -3.37076 0
M  V30 471 H 47.2991 -1.95014 -2.27837 0
M  V30 472 H 44.8521 -1.04456 -1.16269 0
M  V30 473 H 45.5871 0.446335 -3.21214 0
M  V30 474 H 45.3721 -1.25547 -3.71457 0
M  V30 475 H 46.8621 -0.370888 -4.1595 0
M  V30 476 N 47.2992 1.18797 -1.03562 0
M  V30 477 C 48.7152 1.40671 -0.753917 0
M  V30 478 C 48.9152 1.9043 0.658686 0
M  V30 479 O 47.9712 2.08538 1.42366 0
M  V30 480 C 49.2842 2.41192 -1.79574 0
M  V30 481 C 50.8322 2.54928 -1.81606 0
M  V30 482 C 51.3072 3.58709 -2.84766 0
M  V30 483 N 52.7982 3.66212 -2.83625 0
M  V30 484 C 53.5332 4.46225 -3.60098 0
M  V30 485 N 53.0292 5.29888 -4.46308 0
M  V30 486 N 54.8222 4.40939 -3.4861 0
M  V30 487 H 46.9732 0.848221 -1.94728 0
M  V30 488 H 49.2362 0.435081 -0.842264 0
M  V30 489 H 48.9422 2.11669 -2.80872 0
M  V30 490 H 48.8162 3.40467 -1.62365 0
M  V30 491 H 51.2032 2.83771 -0.809817 0
M  V30 492 H 51.2842 1.55784 -2.02891 0
M  V30 493 H 50.9282 3.30607 -3.85566 0
M  V30 494 H 50.8582 4.57519 -2.60737 0
M  V30 495 H 53.3492 3.06466 -2.21105 0
M  V30 496 H 53.6622 5.88078 -5.01382 0
M  V30 497 H 52.0072 5.29326 -4.50377 0
M  V30 498 H 55.1982 3.74624 -2.80668 0
M  V30 499 H 55.3712 5.03056 -4.08459 0
M  V30 500 N 48.7773 0.814389 1.34928 0
M  V30 501 C 50.0023 0.410097 2.03305 0
M  V30 502 C 50.4273 -0.973464 1.60951 0
M  V30 503 O 49.7853 -1.63185 0.789964 0
M  V30 504 C 49.8333 0.51049 3.56968 0
M  V30 505 O 48.9373 -0.473035 4.09678 0
M  V30 506 H 48.2783 0.170088 0.641846 0
M  V30 507 H 50.8083 1.10244 1.72358 0
M  V30 508 H 50.8183 0.383135 4.06197 0
M  V30 509 H 49.4933 1.51963 3.87144 0
M  V30 510 H 48.0703 -0.305272 3.71648 0
M  V30 511 N 50.2554 -1.46986 0.568584 0
M  V30 512 C 51.5034 -2.02041 0.0487022 0
M  V30 513 C 51.8244 -1.44408 -1.31039 0
M  V30 514 O 51.0944 -0.623477 -1.85714 0
M  V30 515 H 49.6744 -0.746849 0.015014 0
M  V30 516 H 52.3364 -1.80257 0.741168 0
M  V30 517 H 51.4324 -3.12085 -0.0308961 0
M  V30 518 N 51.7335 -0.305618 -1.54608 0
M  V30 519 C 52.9825 0.303098 -1.9941 0
M  V30 520 C 53.2955 1.54648 -1.19764 0
M  V30 521 O 54.5015 2.23007 -1.54855 0
M  V30 522 C 52.9575 0.590588 -3.55021 0
M  V30 523 C 52.5655 -0.634719 -4.43481 0
M  V30 524 C 54.3095 1.16025 -4.08336 0
M  V30 525 C 52.2165 -0.320126 -5.90533 0
M  V30 526 H 51.1465 0.117031 -0.744862 0
M  V30 527 H 53.7975 -0.415045 -1.78745 0
M  V30 528 H 52.1795 1.36845 -3.71604 0
M  V30 529 H 53.3535 -1.41079 -4.38672 0
M  V30 530 H 51.6685 -1.12333 -4.00962 0
M  V30 531 H 54.2655 1.40994 -5.15776 0
M  V30 532 H 54.6085 2.10397 -3.5922 0
M  V30 533 H 55.1415 0.443985 -3.95315 0
M  V30 534 H 51.8805 -1.23254 -6.43808 0
M  V30 535 H 51.4005 0.418579 -5.98338 0
M  V30 536 H 53.0795 0.0766241 -6.46955 0
M  V30 537 N 53.2116 1.57565 -0.0334293 0
M  V30 538 C 54.4596 1.91598 0.642999 0
M  V30 539 C 54.7806 0.910847 1.7242 0
M  V30 540 O 54.0506 -0.0469931 1.95844 0
M  V30 541 H 52.6306 0.707228 0.240496 0
M  V30 542 H 55.2926 1.94726 -0.0822488 0
M  V30 543 H 54.3886 2.92336 1.09298 0
M  V30 544 N 54.6897 -0.239769 1.55765 0
M  V30 545 C 55.9357 -0.963942 1.79108 0
M  V30 546 C 56.2907 -1.82689 0.60352 0
M  V30 547 O 55.5837 -1.87313 -0.403033 0
M  V30 548 C 55.7777 -1.852 3.05672 0
M  V30 549 C 55.6067 -1.07651 4.36625 0
M  V30 550 C 54.3767 -0.778738 4.99263 0
M  V30 551 C 56.5747 -0.45062 5.12322 0
M  V30 552 N 54.5567 0.0200708 6.13897 0
M  V30 553 C 55.9277 0.212429 6.19636 0
M  V30 554 C 57.9827 -0.361806 4.96584 0
M  V30 555 C 56.6857 0.955772 7.12922 0
M  V30 556 C 58.7117 0.368023 5.90254 0
M  V30 557 C 58.0737 1.01968 6.96981 0
M  V30 558 H 54.1727 -0.333601 0.707272 0
M  V30 559 H 56.7567 -0.236425 1.93259 0
M  V30 560 H 54.9277 -2.55149 2.92837 0
M  V30 561 H 56.6597 -2.51228 3.1728 0
M  V30 562 H 53.4147 -1.09229 4.60832 0
M  V30 563 H 53.8387 0.407777 6.75771 0
M  V30 564 H 58.4807 -0.851286 4.14141 0
M  V30 565 H 56.1987 1.45683 7.9486 0
M  V30 566 H 59.7847 0.437504 5.80153 0
M  V30 567 H 58.6647 1.5754 7.68213 0
M  V30 568 N 56.1678 -1.49265 -0.50573 0
M  V30 569 C 57.3958 -1.62215 -1.28429 0
M  V30 570 C 57.8108 -0.291697 -1.86533 0
M  V30 571 O 57.1678 0.722233 -1.67601 0
M  V30 572 C 57.2188 -2.68735 -2.41793 0
M  V30 573 O 56.9398 -3.96619 -1.86078 0
M  V30 574 C 58.4408 -2.92346 -3.3324 0
M  V30 575 H 55.6608 -0.546239 -0.389697 0
M  V30 576 H 58.2048 -1.95265 -0.607609 0
M  V30 577 H 56.3598 -2.38476 -3.053 0
M  V30 578 H 56.7738 -4.55256 -2.60465 0
M  V30 579 H 58.2478 -3.70623 -4.09075 0
M  V30 580 H 58.7248 -2.02081 -3.89948 0
M  V30 581 H 59.3308 -3.24003 -2.75503 0
M  V30 582 N 57.6459 0.756429 -1.3826 0
M  V30 583 C 58.8939 1.51248 -1.34047 0
M  V30 584 C 59.2149 1.94875 0.0698372 0
M  V30 585 O 58.4849 1.67436 1.01696 0
M  V30 586 H 57.0649 0.561018 -0.493222 0
M  V30 587 H 59.7269 0.899347 -1.7291 0
M  V30 588 H 58.8229 2.40472 -1.98947 0
M  V30 589 N 59.124 1.23083 0.984299 0
M  V30 590 C 60.349 1.088 1.76571 0
M  V30 591 C 60.774 -0.356657 1.84688 0
M  V30 592 O 60.132 -1.25788 1.30565 0
M  V30 593 C 60.18 1.71371 3.17277 0
M  V30 594 O 59.284 0.973213 4.00752 0
M  V30 595 H 58.625 0.381599 0.543395 0
M  V30 596 H 61.155 1.63057 1.23587 0
M  V30 597 H 61.165 1.76449 3.67872 0
M  V30 598 H 59.84 2.76493 3.10684 0
M  V30 599 H 58.417 0.999078 3.59267 0
M  V30 600 N 60.6021 -1.18246 1.0419 0
M  V30 601 C 61.8501 -1.87886 0.744543 0
M  V30 602 C 62.1711 -1.8082 -0.730006 0
M  V30 603 O 61.4411 -1.22736 -1.52685 0
M  V30 604 H 60.0211 -0.695556 0.272417 0
M  V30 605 H 62.6831 -1.43494 1.31892 0
M  V30 606 H 61.7791 -2.9389 1.05049 0
M  V30 607 N 62.0802 -0.821533 -1.34494 0
M  V30 608 C 63.3282 -0.408139 -1.97936 0
M  V30 609 C 63.6492 1.03193 -1.65457 0
M  V30 610 O 62.9192 1.71622 -0.944595 0
M  V30 611 H 61.4992 -0.147928 -0.732206 0
M  V30 612 H 64.1612 -1.05067 -1.64155 0
M  V30 613 H 63.2572 -0.52601 -3.07635 0
M  V30 614 N 63.5583 1.46682 -0.576371 0
M  V30 615 C 64.4683 2.34032 0.163141 0
M  V30 616 C 65.4843 1.49367 0.892501 0
M  V30 617 O 66.6603 1.82252 0.857106 0
M  V30 618 C 63.7253 3.26435 1.16795 0
M  V30 619 C 62.7863 4.26998 0.443944 0
M  V30 620 C 62.0193 5.14986 1.40088 0
M  V30 621 O 62.2423 5.05785 2.637 0
M  V30 622 O 61.1763 5.94906 0.914917 0
M  V30 623 H 65.0023 2.98607 -0.55388 0
M  V30 624 H 62.5873 1.45554 -0.336821 0
M  V30 625 H 64.4693 3.83459 1.74748 0
M  V30 626 H 63.1443 2.64465 1.86655 0
M  V30 627 H 62.0513 3.7368 -0.177271 0
M  V30 628 H 63.3843 4.91736 -0.213566 0
M  V30 629 N 65.0364 0.313813 1.54444 0
M  V30 630 C 65.9684 -0.590425 2.21465 0
M  V30 631 C 66.9814 -1.08753 1.21147 0
M  V30 632 O 68.1704 -1.00278 1.4767 0
M  V30 633 C 65.2704 -1.82179 2.85769 0
M  V30 634 C 64.4434 -1.46502 4.12136 0
M  V30 635 C 63.5024 -2.55288 4.60124 0
M  V30 636 O 62.5284 -2.19842 5.25032 0
M  V30 637 N 63.7304 -3.86053 4.33525 0
M  V30 638 H 66.4954 -0.0166033 2.99695 0
M  V30 639 H 64.0564 0.136578 1.61323 0
M  V30 640 H 66.0484 -2.54328 3.14801 0
M  V30 641 H 64.6184 -2.30369 2.11303 0
M  V30 642 H 63.8384 -0.575595 3.89975 0
M  V30 643 H 65.1264 -1.20221 4.94393 0
M  V30 644 H 64.5244 -4.17654 3.81552 0
M  V30 645 H 63.0814 -4.54461 4.67235 0
M  V30 646 N 66.5145 -1.57545 0.0417849 0
M  V30 647 C 67.4465 -2.07904 -0.964799 0
M  V30 648 C 68.4595 -1.00497 -1.28079 0
M  V30 649 O 69.6485 -1.28087 -1.24322 0
M  V30 650 C 66.7485 -2.49928 -2.28887 0
M  V30 651 C 65.9215 -3.80562 -2.15619 0
M  V30 652 C 64.9805 -4.08999 -3.31069 0
M  V30 653 O 64.0065 -4.79061 -3.0739 0
M  V30 654 N 65.2085 -3.6017 -4.55256 0
M  V30 655 H 67.9735 -2.94886 -0.535029 0
M  V30 656 H 65.5345 -1.61252 -0.144681 0
M  V30 657 H 67.5265 -2.66034 -3.04972 0
M  V30 658 H 66.0965 -1.68245 -2.63463 0
M  V30 659 H 65.3165 -3.74129 -1.24183 0
M  V30 660 H 66.6045 -4.66126 -2.03971 0
M  V30 661 H 66.0025 -3.03512 -4.77386 0
M  V30 662 H 64.5595 -3.81532 -5.28466 0
M  V30 663 N 67.9926 0.231505 -1.5589 0
M  V30 664 C 69.2326 0.964533 -1.80211 0
M  V30 665 C 69.5966 1.81926 -0.613744 0
M  V30 666 O 70.7976 2.58526 -0.736045 0
M  V30 667 C 69.0686 1.78956 -3.09369 0
M  V30 668 S 70.6276 2.57959 -3.54969 0
M  V30 669 H 67.4456 0.324173 -0.632798 0
M  V30 670 H 70.0476 0.230985 -1.94131 0
M  V30 671 H 68.7516 1.15161 -3.93911 0
M  V30 672 H 68.2826 2.56559 -2.9823 0
M  V30 673 H 70.2976 3.81309 -3.17519 0
M  V30 674 N 69.4707 1.49531 0.497807 0
M  V30 675 C 70.7177 1.59179 1.25173 0
M  V30 676 C 71.0457 0.279932 1.92475 0
M  V30 677 O 70.3007 -0.732383 1.81479 0
M  V30 678 C 70.5997 2.70252 2.33878 0
M  V30 679 C 70.2657 4.11644 1.84012 0
M  V30 680 C 68.9277 4.50121 1.70132 0
M  V30 681 C 71.2797 5.00121 1.46725 0
M  V30 682 C 68.6077 5.74845 1.17348 0
M  V30 683 C 70.9597 6.25366 0.95392 0
M  V30 684 C 69.6237 6.6267 0.801538 0
M  V30 685 H 68.8937 0.582478 0.45804 0
M  V30 686 H 71.5407 1.83373 0.551948 0
M  V30 687 H 69.8457 2.40041 3.09657 0
M  V30 688 H 71.5427 2.74925 2.9192 0
M  V30 689 H 68.1327 3.81274 1.95775 0
M  V30 690 H 72.3167 4.71048 1.56294 0
M  V30 691 H 67.5727 6.02444 1.04264 0
M  V30 692 H 71.7467 6.93301 0.656225 0
M  V30 693 H 69.3737 7.59197 0.390351 0
M  V30 694 N 70.9488 -0.749086 1.3866 0
M  V30 695 C 71.8808 -1.87273 1.32142 0
M  V30 696 C 72.8938 -1.61127 0.232787 0
M  V30 697 O 74.0828 -1.71623 0.49069 0
M  V30 698 C 71.1828 -3.23005 1.02571 0
M  V30 699 C 70.3558 -3.7662 2.22433 0
M  V30 700 C 69.4148 -4.90879 1.89537 0
M  V30 701 O 68.4408 -5.05276 2.62078 0
M  V30 702 N 69.6428 -5.74198 0.853031 0
M  V30 703 H 72.4078 -1.93373 2.28969 0
M  V30 704 H 69.9688 -0.929216 1.32579 0
M  V30 705 H 71.9608 -3.96992 0.786085 0
M  V30 706 H 70.5308 -3.12262 0.145249 0
M  V30 707 H 69.7508 -2.94147 2.62434 0
M  V30 708 H 71.0388 -4.09173 3.02415 0
M  V30 709 H 70.4368 -5.6514 0.25155 0
M  V30 710 H 68.9938 -6.48313 0.67329 0
M  V30 711 N 72.4269 -1.23603 -0.977757 0
M  V30 712 C 73.6549 -1.09646 -1.75458 0
M  V30 713 C 74.0699 0.351859 -1.85492 0
M  V30 714 O 73.4269 1.24327 -1.336 0
M  V30 715 C 73.4779 -1.71895 -3.18016 0
M  V30 716 O 73.1989 -3.11063 -3.08498 0
M  V30 717 C 74.6999 -1.63415 -4.12081 0
M  V30 718 H 71.9199 -0.38359 -0.550545 0
M  V30 719 H 74.4639 -1.63507 -1.22824 0
M  V30 720 H 72.6189 -1.22061 -3.67668 0
M  V30 721 H 73.0329 -3.41305 -3.9826 0
M  V30 722 H 74.5069 -2.11669 -5.09804 0
M  V30 723 H 74.9839 -0.593462 -4.35172 0
M  V30 724 H 75.5899 -2.12628 -3.68334 0
M  V30 725 N 73.905 1.17692 -1.04816 0
M  V30 726 C 75.133 1.91786 -0.776254 0
M  V30 727 C 75.548 1.76604 0.667577 0
M  V30 728 O 74.905 1.10067 1.45573 0
M  V30 729 C 74.956 3.42967 -1.14263 0
M  V30 730 O 74.677 3.57678 -2.52978 0
M  V30 731 C 76.178 4.34144 -0.896311 0
M  V30 732 H 73.398 0.608624 -0.282519 0
M  V30 733 H 75.942 1.49268 -1.39783 0
M  V30 734 H 74.097 3.83245 -0.565874 0
M  V30 735 H 74.511 4.51319 -2.67229 0
M  V30 736 H 75.985 5.38744 -1.20244 0
M  V30 737 H 76.462 4.38876 0.168636 0
M  V30 738 H 77.068 3.99574 -1.45672 0
M  V30 739 N 75.3831 0.828654 1.34056 0
M  V30 740 C 76.6311 0.41863 1.97717 0
M  V30 741 C 76.9521 -1.02314 1.66002 0
M  V30 742 O 76.2221 -1.71119 0.953683 0
M  V30 743 H 74.8021 0.151809 0.731412 0
M  V30 744 H 77.4641 1.05936 1.63596 0
M  V30 745 H 76.5601 0.542318 3.07352 0
M  V30 746 N 76.8612 -1.46375 0.584142 0
M  V30 747 C 77.8242 -2.28784 -0.138108 0
M  V30 748 C 78.8242 -1.38471 -0.817462 0
M  V30 749 O 80.0142 -1.60833 -0.669199 0
M  V30 750 C 77.1462 -3.18892 -1.20503 0
M  V30 751 H 78.3392 -2.94117 0.586127 0
M  V30 752 H 75.8922 -1.52509 0.342171 0
M  V30 753 H 76.6272 -2.58309 -1.96079 0
M  V30 754 H 76.4122 -3.85388 -0.722384 0
M  V30 755 H 77.9022 -3.80914 -1.71155 0
M  V30 756 N 78.3393 -0.321999 -1.54275 0
M  V30 757 C 79.2713 0.578671 -2.21775 0
M  V30 758 C 80.2843 1.08109 -1.21722 0
M  V30 759 O 81.4733 0.994938 -1.482 0
M  V30 760 C 78.5733 1.80661 -2.86731 0
M  V30 761 C 77.7463 1.44314 -4.12907 0
M  V30 762 C 76.8053 2.52845 -4.61472 0
M  V30 763 O 75.8313 2.17054 -5.2619 0
M  V30 764 N 77.0333 3.83748 -4.35566 0
M  V30 765 H 79.7983 0.000709447 -2.997 0
M  V30 766 H 77.3593 -0.145132 -1.61248 0
M  V30 767 H 79.3513 2.52655 -3.16145 0
M  V30 768 H 77.9213 2.29245 -2.12521 0
M  V30 769 H 77.1413 0.554906 -3.90275 0
M  V30 770 H 78.4293 1.17598 -4.95023 0
M  V30 771 H 77.8273 4.15625 -3.83761 0
M  V30 772 H 76.3843 4.51977 -4.69638 0
M  V30 773 N 79.8174 1.5752 -0.0501392 0
M  V30 774 C 81.0424 1.97376 0.636997 0
M  V30 775 C 81.4674 0.927466 1.63645 0
M  V30 776 O 80.8254 -0.10941 1.8097 0
M  V30 777 C 80.8734 3.36304 1.30123 0
M  V30 778 O 79.9774 3.34156 2.41689 0
M  V30 779 H 79.3184 0.642998 0.165679 0
M  V30 780 H 81.8484 2.04258 -0.118233 0
M  V30 781 H 81.8584 3.73008 1.65315 0
M  V30 782 H 80.5334 4.11993 0.568746 0
M  V30 783 H 79.1104 3.09196 2.08451 0
M  V30 784 N 81.2955 -0.223234 1.56011 0
M  V30 785 C 82.2425 -1.27664 1.92277 0
M  V30 786 C 83.2125 -1.46659 0.779763 0
M  V30 787 O 84.3975 -1.60256 1.03551 0
M  V30 788 C 81.5375 -2.62234 2.24338 0
M  V30 789 C 80.6505 -2.51051 3.51564 0
M  V30 790 C 79.7855 -3.78133 3.7308 0
M  V30 791 C 78.8245 -3.61665 4.93827 0
M  V30 792 N 77.9615 -4.80693 5.11741 0
M  V30 793 H 82.8015 -0.960358 2.82101 0
M  V30 794 H 80.3385 -0.462901 1.39627 0
M  V30 795 H 82.2965 -3.40596 2.40936 0
M  V30 796 H 80.9265 -2.91961 1.3769 0
M  V30 797 H 79.9785 -1.64132 3.43169 0
M  V30 798 H 81.2905 -2.34803 4.40079 0
M  V30 799 H 80.4445 -4.64938 3.89766 0
M  V30 800 H 79.1835 -3.97304 2.82844 0
M  V30 801 H 78.1885 -2.73244 4.77093 0
M  V30 802 H 79.4135 -3.43966 5.85546 0
M  V30 803 H 77.3595 -5.00181 4.24446 0
M  V30 804 H 77.2765 -4.67165 5.94384 0
M  V30 805 H 78.5445 -5.6893 5.3286 0
M  V30 806 N 82.7736 -1.49793 -0.48987 0
M  V30 807 C 84.0036 -1.6333 -1.26518 0
M  V30 808 C 84.4116 -0.308392 -1.8667 0
M  V30 809 O 83.7546 0.717512 -1.69108 0
M  V30 810 C 83.8166 -2.6522 -2.4269 0
M  V30 811 C 83.4806 -4.09279 -2.03321 0
M  V30 812 C 84.4776 -4.95738 -1.56652 0
M  V30 813 C 82.1626 -4.55082 -2.12616 0
M  V30 814 C 84.1566 -6.26041 -1.19795 0
M  V30 815 C 81.8436 -5.85396 -1.75371 0
M  V30 816 C 82.8416 -6.707 -1.29036 0
M  V30 817 O 82.5296 -7.98584 -0.92299 0
M  V30 818 H 82.2616 -0.552502 -0.389509 0
M  V30 819 H 84.8156 -1.96642 -0.593381 0
M  V30 820 H 83.0456 -2.27112 -3.12981 0
M  V30 821 H 84.7346 -2.68171 -3.04695 0
M  V30 822 H 85.5006 -4.61575 -1.48908 0
M  V30 823 H 81.3796 -3.88844 -2.47631 0
M  V30 824 H 84.9236 -6.92578 -0.835582 0
M  V30 825 H 80.8206 -6.19085 -1.82768 0
M  V30 826 H 81.5886 -8.11692 -1.05349 0
M  V30 827 N 84.2517 0.741722 -1.39055 0
M  V30 828 C 85.6677 1.04638 -1.20512 0
M  V30 829 C 85.8677 2.01405 -0.0620218 0
M  V30 830 O 84.9237 2.45547 0.588457 0
M  V30 831 C 86.2367 1.6151 -2.53643 0
M  V30 832 C 87.7847 1.73623 -2.6043 0
M  V30 833 C 88.2597 2.33906 -3.93767 0
M  V30 834 N 89.7507 2.41323 -3.9537 0
M  V30 835 C 90.4857 2.88888 -4.95309 0
M  V30 836 N 89.9817 3.36401 -6.05645 0
M  V30 837 N 91.7747 2.88037 -4.82692 0
M  V30 838 H 83.9257 0.0998155 -2.12165 0
M  V30 839 H 86.1887 0.106907 -0.941953 0
M  V30 840 H 85.8947 0.978739 -3.37807 0
M  V30 841 H 85.7687 2.60411 -2.72885 0
M  V30 842 H 88.1557 2.36384 -1.76655 0
M  V30 843 H 88.2367 0.733945 -2.45045 0
M  V30 844 H 87.8807 1.71776 -4.7797 0
M  V30 845 H 87.8107 3.34799 -4.06469 0
M  V30 846 H 90.3017 2.07734 -3.15682 0
M  V30 847 H 90.6147 3.71186 -6.77821 0
M  V30 848 H 88.9597 3.34427 -6.09248 0
M  V30 849 H 92.1507 2.50237 -3.95599 0
M  V30 850 H 92.3237 3.24792 -5.60726 0
M  V30 851 N 85.7298 1.2412 0.971189 0
M  V30 852 C 86.6598 1.05508 2.08304 0
M  V30 853 C 87.6408 -0.0308864 1.70072 0
M  V30 854 O 88.8258 0.135521 1.93727 0
M  V30 855 C 85.9558 0.655365 3.4106 0
M  V30 856 C 84.9098 1.68971 3.93234 0
M  V30 857 C 84.2358 1.14516 5.22293 0
M  V30 858 C 85.5358 3.08487 4.21465 0
M  V30 859 H 87.2298 1.98507 2.24132 0
M  V30 860 H 84.7758 0.955821 1.07704 0
M  V30 861 H 86.7288 0.51217 4.18276 0
M  V30 862 H 85.4528 -0.31032 3.25122 0
M  V30 863 H 84.1118 1.82106 3.18171 0
M  V30 864 H 83.7598 0.170189 5.02712 0
M  V30 865 H 83.4598 1.83635 5.58168 0
M  V30 866 H 84.9838 1.01401 6.02121 0
M  V30 867 H 86.3978 2.98601 4.89398 0
M  V30 868 H 84.7948 3.74926 4.68562 0
M  V30 869 H 85.8648 3.56787 3.28376 0
M  V30 870 N 87.2079 -1.17134 1.05439 0
M  V30 871 C 88.4559 -1.87085 0.764429 0
M  V30 872 C 88.7769 -1.81584 -0.710787 0
M  V30 873 O 88.0469 -1.24349 -1.51374 0
M  V30 874 H 86.6269 -0.692627 0.279779 0
M  V30 875 H 89.2889 -1.42087 1.33406 0
M  V30 876 H 88.3849 -2.92759 1.0816 0
M  V30 877 N 88.686 -0.835752 -1.33615 0
M  V30 878 C 89.634 -0.255238 -2.31195 0
M  V30 879 C 90.628 0.61107 -1.57995 0
M  V30 880 O 91.834 0.500979 -1.72888 0
M  V30 881 H 88.209 -0.0638085 -0.749288 0
M  V30 882 H 90.18 -1.09283 -2.77669 0
M  V30 883 C 88.929 0.55754 -3.43201 0
M  V30 884 H 88.252 -0.0997553 -3.99676 0
M  V30 885 H 89.692 0.929622 -4.13683 0
M  V30 886 C 88.151 1.73515 -2.88781 0
M  V30 887 O 88.681 2.83376 -2.84712 0
M  V30 888 N 86.887 1.55603 -2.4543 0
M  V30 889 H 86.434 0.662354 -2.48939 0
M  V30 890 H 86.392 2.34545 -2.09371 0
M  V30 891 N 90.1641 1.46063 -0.591896 0
M  V30 892 C 91.0741 2.34192 0.13831 0
M  V30 893 C 92.0901 1.50305 0.876608 0
M  V30 894 O 93.2661 1.8315 0.837728 0
M  V30 895 C 90.3311 3.27656 1.13326 0
M  V30 896 C 89.3921 4.27445 0.39863 0
M  V30 897 C 88.6251 5.16443 1.34618 0
M  V30 898 O 88.8481 5.08553 2.58321 0
M  V30 899 O 87.7821 5.95843 0.851768 0
M  V30 900 H 91.6081 2.98002 -0.58552 0
M  V30 901 H 89.1931 1.45188 -0.352239 0
M  V30 902 H 91.0751 3.85291 1.70671 0
M  V30 903 H 89.7501 2.6643 1.83839 0
M  V30 904 H 88.6571 3.73471 -0.216895 0
M  V30 905 H 89.9901 4.91482 -0.265709 0
M  V30 906 N 91.6422 0.330177 1.54103 0
M  V30 907 C 92.8822 -0.270916 2.02597 0
M  V30 908 C 93.2462 -1.48826 1.21304 0
M  V30 909 O 94.4472 -2.16266 1.59633 0
M  V30 910 C 92.7182 -0.590328 3.52491 0
M  V30 911 S 94.2772 -1.17014 4.2291 0
M  V30 912 H 91.0952 -0.0815379 0.706309 0
M  V30 913 H 93.6972 0.464835 1.89893 0
M  V30 914 H 92.4012 0.303691 4.09275 0
M  V30 915 H 91.9322 -1.3561 3.69288 0
M  V30 916 H 93.9472 -2.45662 4.3112 0
M  V30 917 N 93.1203 -1.57491 0.0584922 0
M  V30 918 C 94.0303 -2.15448 -0.928414 0
M  V30 919 C 95.0463 -1.11416 -1.3365 0
M  V30 920 O 96.2223 -1.4362 -1.41193 0
M  V30 921 C 93.2873 -2.69393 -2.18239 0
M  V30 922 C 92.3483 -3.88249 -1.83196 0
M  V30 923 C 91.5813 -4.39613 -3.02616 0
M  V30 924 O 91.8043 -3.90023 -4.16219 0
M  V30 925 O 90.7383 -5.31111 -2.83204 0
M  V30 926 H 94.5643 -3.00112 -0.465483 0
M  V30 927 H 92.1493 -1.48499 -0.163826 0
M  V30 928 H 94.0313 -3.04026 -2.91798 0
M  V30 929 H 92.7063 -1.87796 -2.63656 0
M  V30 930 H 91.6133 -3.58492 -1.06931 0
M  V30 931 H 92.9463 -4.71098 -1.42573 0
M  V30 932 N 94.5984 0.214957 -1.56127 0
M  V30 933 C 95.8264 0.955092 -1.83536 0
M  V30 934 C 96.2414 1.77677 -0.638472 0
M  V30 935 O 95.5984 1.78219 0.392968 0
M  V30 936 C 95.6494 1.86734 -3.09536 0
M  V30 937 O 95.3704 1.07887 -4.24608 0
M  V30 938 C 96.8714 2.72082 -3.4998 0
M  V30 939 H 94.0914 0.279611 -0.609966 0
M  V30 940 H 96.6354 0.228197 -2.03223 0
M  V30 941 H 94.7904 2.5481 -2.91806 0
M  V30 942 H 95.2044 1.69872 -4.9623 0
M  V30 943 H 96.6784 3.31782 -4.41163 0
M  V30 944 H 97.1554 3.44806 -2.7204 0
M  V30 945 H 97.7614 2.09409 -3.70173 0
M  V30 946 N 96.0765 1.50051 0.48192 0
M  V30 947 C 97.3065 1.63999 1.2565 0
M  V30 948 C 97.7145 0.318288 1.86504 0
M  V30 949 O 97.0575 -0.708534 1.69486 0
M  V30 950 C 97.1195 2.66504 2.4128 0
M  V30 951 C 96.7835 4.10352 2.01148 0
M  V30 952 C 97.7805 4.96562 1.54021 0
M  V30 953 C 95.4655 4.56203 2.10199 0
M  V30 954 C 97.4595 6.26668 1.16473 0
M  V30 955 C 95.1465 5.86318 1.72264 0
M  V30 956 C 96.1445 6.71375 1.25477 0
M  V30 957 O 95.8325 7.99062 0.880626 0
M  V30 958 H 95.5645 0.55456 0.386574 0
M  V30 959 H 98.1185 1.96954 0.582944 0
M  V30 960 H 96.3485 2.28769 3.11772 0
M  V30 961 H 98.0375 2.69783 3.03268 0
M  V30 962 H 98.8035 4.62358 1.46458 0
M  V30 963 H 94.6825 3.90152 2.45566 0
M  V30 964 H 98.2265 6.93011 0.798841 0
M  V30 965 H 94.1235 6.20046 1.79482 0
M  V30 966 H 94.8915 8.12239 1.01043 0
M  V30 967 N 97.5546 -0.734337 1.39446 0
M  V30 968 C 98.5176 -1.83004 1.37994 0
M  V30 969 C 99.5176 -1.58397 0.276938 0
M  V30 970 O 100.708 -1.65785 0.534875 0
M  V30 971 C 97.8396 -3.20802 1.1532 0
M  V30 972 H 99.0326 -1.85694 2.35494 0
M  V30 973 H 96.5856 -0.938059 1.25021 0
M  V30 974 H 97.3206 -3.23772 0.185036 0
M  V30 975 H 97.1056 -3.4006 1.95197 0
M  V30 976 H 98.5956 -4.00862 1.17046 0
M  V30 977 N 99.0327 -1.24633 -0.964593 0
M  V30 978 C 99.9427 -1.05859 -2.09359 0
M  V30 979 C 100.959 0.00148855 -1.74 0
M  V30 980 O 102.135 -0.197346 -2.00431 0
M  V30 981 C 99.1997 -0.668879 -3.40187 0
M  V30 982 C 98.2607 -1.80578 -3.89474 0
M  V30 983 C 97.4937 -1.43457 -5.14058 0
M  V30 984 O 97.7167 -0.325775 -5.69469 0
M  V30 985 O 96.6507 -2.2613 -5.57807 0
M  V30 986 H 100.477 -2.00516 -2.28094 0
M  V30 987 H 98.0617 -1.03481 -1.0776 0
M  V30 988 H 99.9437 -0.463211 -4.18846 0
M  V30 989 H 98.6187 0.248536 -3.22744 0
M  V30 990 H 97.5257 -2.06623 -3.11862 0
M  V30 991 H 98.8587 -2.70208 -4.11398 0
M  V30 992 N 100.511 1.16574 -1.06058 0
M  V30 993 C 101.441 2.23057 -0.690488 0
M  V30 994 C 102.422 1.67141 0.315901 0
M  V30 995 O 103.607 1.93253 0.191556 0
M  V30 996 C 100.737 3.47222 -0.073625 0
M  V30 997 C 99.6908 4.16016 -1.00573 0
M  V30 998 C 99.0168 5.34104 -0.252289 0
M  V30 999 C 100.317 4.67264 -2.33371 0
M  V30 1000 H 102.011 2.54271 -1.58072 0
M  V30 1001 H 99.5568 1.22218 -0.76149 0
M  V30 1002 H 101.51 4.20939 0.19714 0
M  V30 1003 H 100.234 3.15302 0.85161 0
M  V30 1004 H 98.8928 3.44223 -1.2612 0
M  V30 1005 H 98.5408 4.98437 0.675988 0
M  V30 1006 H 98.2408 5.81072 -0.873455 0
M  V30 1007 H 99.7648 6.10599 0.0109857 0
M  V30 1008 H 101.179 5.32573 -2.12223 0
M  V30 1009 H 99.5758 5.24843 -2.90963 0
M  V30 1010 H 100.646 3.83602 -2.96611 0
M  V30 1011 N 101.989 0.842826 1.3317 0
M  V30 1012 C 102.936 0.276885 2.29133 0
M  V30 1013 C 103.906 -0.609527 1.54512 0
M  V30 1014 O 105.091 -0.546955 1.82792 0
M  V30 1015 C 102.231 -0.538707 3.40869 0
M  V30 1016 C 101.344 0.372169 4.30394 0
M  V30 1017 C 100.479 -0.454908 5.29249 0
M  V30 1018 C 99.5179 0.45411 6.10413 0
M  V30 1019 N 98.6549 -0.335075 7.013 0
M  V30 1020 H 103.495 1.10052 2.76934 0
M  V30 1021 H 101.032 0.554161 1.36262 0
M  V30 1022 H 102.99 -1.02709 4.0436 0
M  V30 1023 H 101.62 -1.32727 2.9425 0
M  V30 1024 H 100.672 0.97888 3.6759 0
M  V30 1025 H 101.984 1.0703 4.87182 0
M  V30 1026 H 101.138 -1.00695 5.98285 0
M  V30 1027 H 99.8769 -1.18646 4.73048 0
M  V30 1028 H 98.8819 1.01813 5.40291 0
M  V30 1029 H 100.107 1.18409 6.68697 0
M  V30 1030 H 98.0529 -1.04994 6.47543 0
M  V30 1031 H 97.9699 0.304262 7.55387 0
M  V30 1032 H 99.2379 -0.869224 7.74638 0
M  V30 1033 N 103.467 -1.45747 0.599634 0
M  V30 1034 C 104.397 -2.33235 -0.111306 0
M  V30 1035 C 105.378 -1.46359 -0.866781 0
M  V30 1036 O 106.563 -1.75146 -0.838904 0
M  V30 1037 C 103.693 -3.28932 -1.11451 0
M  V30 1038 C 102.647 -4.25381 -0.472772 0
M  V30 1039 C 101.973 -5.1071 -1.58365 0
M  V30 1040 C 103.273 -5.18831 0.600948 0
M  V30 1041 H 104.967 -2.92927 0.61919 0
M  V30 1042 H 102.513 -1.40857 0.299215 0
M  V30 1043 H 104.466 -3.89002 -1.62036 0
M  V30 1044 H 103.19 -2.67381 -1.8755 0
M  V30 1045 H 101.849 -3.66598 0.0121472 0
M  V30 1046 H 101.497 -4.45533 -2.33473 0
M  V30 1047 H 101.197 -5.7604 -1.15982 0
M  V30 1048 H 102.721 -5.73647 -2.09194 0
M  V30 1049 H 104.135 -5.73019 0.179491 0
M  V30 1050 H 102.532 -5.92595 0.946076 0
M  V30 1051 H 103.602 -4.6174 1.48068 0
M  V30 1052 N 104.945 -0.338344 -1.53925 0
M  V30 1053 C 106.193 0.259245 -2.0043 0
M  V30 1054 C 106.514 1.51484 -1.22791 0
M  V30 1055 O 105.784 1.93037 -0.33368 0
M  V30 1056 H 104.364 0.0987845 -0.740439 0
M  V30 1057 H 107.026 -0.458302 -1.89435 0
M  V30 1058 H 106.122 0.505334 -3.07982 0
M  V30 1059 N 106.423 1.57458 -0.0668435 0
M  V30 1060 C 107.355 2.09413 0.931601 0
M  V30 1061 C 108.368 1.02522 1.26464 0
M  V30 1062 O 109.557 1.30049 1.22269 0
M  V30 1063 C 106.657 2.53537 2.24882 0
M  V30 1064 C 105.83 3.83944 2.09537 0
M  V30 1065 C 104.889 4.14214 3.2452 0
M  V30 1066 O 103.915 4.83891 2.9973 0
M  V30 1067 N 105.117 3.67367 4.49469 0
M  V30 1068 H 107.882 2.95699 0.488048 0
M  V30 1069 H 105.443 1.61462 0.119009 0
M  V30 1070 H 107.435 2.70853 3.00701 0
M  V30 1071 H 106.005 1.72415 2.60753 0
M  V30 1072 H 105.225 3.76057 1.18215 0
M  V30 1073 H 106.513 4.69312 1.96529 0
M  V30 1074 H 105.911 3.11068 4.72497 0
M  V30 1075 H 104.468 3.89891 5.2233 0
M  V30 1076 N 107.901 -0.206675 1.56239 0
M  V30 1077 C 108.811 -1.27686 1.96808 0
M  V30 1078 C 109.827 -1.50455 0.874035 0
M  V30 1079 O 111.003 -1.63295 1.17884 0
M  V30 1080 C 108.068 -2.60358 2.28942 0
M  V30 1081 C 107.129 -2.45762 3.51994 0
M  V30 1082 C 106.362 -3.72108 3.82585 0
M  V30 1083 O 106.585 -4.75776 3.14631 0
M  V30 1084 O 105.519 -3.6833 4.76043 0
M  V30 1085 H 109.345 -0.962593 2.88041 0
M  V30 1086 H 106.93 -0.410746 1.43643 0
M  V30 1087 H 108.812 -3.38687 2.50737 0
M  V30 1088 H 107.487 -2.91435 1.4088 0
M  V30 1089 H 106.394 -1.65584 3.35459 0
M  V30 1090 H 107.727 -2.19621 4.40486 0
M  V30 1091 N 109.379 -1.50304 -0.473955 0
M  V30 1092 C 110.625 -1.61389 -1.22806 0
M  V30 1093 C 110.958 -0.311955 -1.91678 0
M  V30 1094 O 110.233 0.686384 -1.81986 0
M  V30 1095 C 110.516 -2.79219 -2.27396 0
M  V30 1096 C 110.369 -4.19286 -1.62848 0
M  V30 1097 C 111.688 -2.92614 -3.28732 0
M  V30 1098 H 108.807 -0.587399 -0.445119 0
M  V30 1099 H 111.449 -1.82681 -0.522265 0
M  V30 1100 H 109.599 -2.61195 -2.87592 0
M  V30 1101 H 111.271 -4.48892 -1.06271 0
M  V30 1102 H 109.514 -4.23677 -0.931693 0
M  V30 1103 H 110.185 -4.97655 -2.38838 0
M  V30 1104 H 112.661 -3.09105 -2.78556 0
M  V30 1105 H 111.537 -3.76688 -3.99246 0
M  V30 1106 H 111.798 -2.03107 -3.92683 0
M  V30 1107 N 110.857 0.726932 -1.39834 0
M  V30 1108 C 112.103 1.48771 -1.38704 0
M  V30 1109 C 112.458 1.92394 0.0146387 0
M  V30 1110 O 111.751 1.64474 0.982797 0
M  V30 1111 C 111.945 2.73495 -2.30077 0
M  V30 1112 C 111.774 2.42068 -3.78989 0
M  V30 1113 C 110.544 2.33966 -4.4787 0
M  V30 1114 C 112.742 2.0708 -4.70768 0
M  V30 1115 N 110.724 1.95095 -5.82075 0
M  V30 1116 C 112.095 1.78719 -5.93683 0
M  V30 1117 C 114.15 1.93618 -4.58712 0
M  V30 1118 C 112.853 1.3825 -7.05889 0
M  V30 1119 C 114.879 1.54553 -5.70848 0
M  V30 1120 C 114.241 1.27082 -6.92842 0
M  V30 1121 H 110.34 0.542919 -0.562817 0
M  V30 1122 H 112.924 0.84408 -1.75452 0
M  V30 1123 H 111.095 3.35625 -1.95474 0
M  V30 1124 H 112.827 3.39755 -2.19883 0
M  V30 1125 H 109.582 2.51331 -4.0141 0
M  V30 1126 H 110.006 1.7823 -6.53118 0
M  V30 1127 H 114.648 2.13522 -3.64922 0
M  V30 1128 H 112.366 1.17088 -7.99572 0
M  V30 1129 H 115.952 1.44731 -5.6351 0
M  V30 1130 H 114.832 0.973069 -7.78139 0
M  V30 1131 N 112.336 1.25143 0.95797 0
M  V30 1132 C 113.283 1.05235 2.05412 0
M  V30 1133 C 114.253 -0.0374561 1.66058 0
M  V30 1134 O 115.438 0.119073 1.90428 0
M  V30 1135 C 112.578 0.673589 3.38462 0
M  V30 1136 C 111.691 1.8379 3.90954 0
M  V30 1137 C 110.826 1.40381 5.12315 0
M  V30 1138 C 109.865 2.53746 5.57027 0
M  V30 1139 N 109.002 2.11136 6.69601 0
M  V30 1140 H 113.842 1.99048 2.21774 0
M  V30 1141 H 111.379 0.991277 1.08683 0
M  V30 1142 H 113.337 0.434964 4.14926 0
M  V30 1143 H 111.967 -0.227554 3.21997 0
M  V30 1144 H 111.019 2.18992 3.11041 0
M  V30 1145 H 112.331 2.68937 4.20089 0
M  V30 1146 H 111.485 1.12464 5.96185 0
M  V30 1147 H 110.224 0.523015 4.84887 0
M  V30 1148 H 109.229 2.82412 4.71724 0
M  V30 1149 H 110.454 3.42398 5.86464 0
M  V30 1150 H 108.4 1.25468 6.4389 0
M  V30 1151 H 108.317 2.89832 6.98236 0
M  V30 1152 H 109.585 1.86385 7.56889 0
M  V30 1153 N 113.814 -1.1601 1.06675 0
M  V30 1154 C 114.724 -2.24156 0.692179 0
M  V30 1155 C 115.74 -1.71507 -0.293513 0
M  V30 1156 O 116.916 -2.009 -0.141861 0
M  V30 1157 C 113.981 -3.46587 0.0884131 0
M  V30 1158 C 113.042 -4.14257 1.12646 0
M  V30 1159 C 112.275 -5.30844 0.551416 0
M  V30 1160 O 112.498 -5.66858 -0.634656 0
M  V30 1161 O 111.432 -5.87848 1.29298 0
M  V30 1162 H 115.258 -2.58513 1.59388 0
M  V30 1163 H 112.843 -1.23599 0.83926 0
M  V30 1164 H 114.725 -4.20679 -0.246361 0
M  V30 1165 H 113.4 -3.13994 -0.786712 0
M  V30 1166 H 112.307 -3.42118 1.51348 0
M  V30 1167 H 113.64 -4.50914 1.97325 0
M  V30 1168 N 115.292 -0.849877 -1.32721 0
M  V30 1169 C 116.54 -0.450032 -1.97026 0
M  V30 1170 C 116.861 0.996604 -1.67609 0
M  V30 1171 O 116.131 1.6958 -0.980786 0
M  V30 1172 H 114.711 -0.163426 -0.728904 0
M  V30 1173 H 117.373 -1.08526 -1.6189 0
M  V30 1174 H 116.469 -0.591146 -3.0645 0
M  V30 1175 N 116.77 1.45427 -0.607355 0
M  V30 1176 C 118.047 1.9557 -0.0344566 0
M  V30 1177 C 118.427 1.54979 1.43334 0
M  V30 1178 O 117.775 0.812241 2.13576 0
M  V30 1179 C 117.985 3.48226 -0.232321 0
M  V30 1180 C 119.333 4.2445 -0.113001 0
M  V30 1181 O 120.357 3.55829 -0.162431 0
M  V30 1182 O 119.216 5.465 0.00209442 0
M  V30 1183 H 116.31 0.826222 0.0358667 0
M  V30 1184 H 118.856 1.55594 -0.6774 0
M  V30 1185 H 117.628 3.70739 -1.25174 0
M  V30 1186 H 117.251 3.95092 0.445896 0
M  V30 1187 N 118.248 0.346503 1.53744 0
M  V30 1188 C 119.195 -0.508914 2.25119 0
M  V30 1189 C 120.165 -1.09315 1.25058 0
M  V30 1190 O 121.35 -1.12921 1.53797 0
M  V30 1191 C 118.49 -1.65246 3.02965 0
M  V30 1192 C 117.603 -1.09525 4.17886 0
M  V30 1193 C 116.738 -2.20634 4.83212 0
M  V30 1194 C 115.777 -1.62279 5.90196 0
M  V30 1195 N 114.914 -2.67143 6.49291 0
M  V30 1196 H 119.754 0.106283 2.9781 0
M  V30 1197 H 117.291 0.0642227 1.4696 0
M  V30 1198 H 119.249 -2.32574 3.4636 0
M  V30 1199 H 117.879 -2.2386 2.32565 0
M  V30 1200 H 116.931 -0.312818 3.79112 0
M  V30 1201 H 118.243 -0.628444 4.94825 0
M  V30 1202 H 117.397 -2.95821 5.29693 0
M  V30 1203 H 116.136 -2.70659 4.05703 0
M  V30 1204 H 115.141 -0.855989 5.43096 0
M  V30 1205 H 116.366 -1.13102 6.69615 0
M  V30 1206 H 114.312 -3.16417 5.74645 0
M  V30 1207 H 114.229 -2.25093 7.21713 0
M  V30 1208 H 115.497 -3.4209 7.00425 0
M  V30 1209 N 119.726 -1.57421 0.075193 0
M  V30 1210 C 120.951 -1.98364 -0.605515 0
M  V30 1211 C 121.376 -0.953383 -1.62149 0
M  V30 1212 O 120.734 0.0806053 -1.81121 0
M  V30 1213 C 120.782 -3.38332 -1.24756 0
M  V30 1214 O 119.886 -3.37959 -2.36342 0
M  V30 1215 H 119.227 -0.645553 -0.155428 0
M  V30 1216 H 121.757 -2.04044 0.150714 0
M  V30 1217 H 121.767 -3.75591 -1.5936 0
M  V30 1218 H 120.442 -4.12846 -0.503129 0
M  V30 1219 H 119.019 -3.12474 -2.03506 0
M  V30 1220 N 121.204 0.198386 -1.56346 0
M  V30 1221 C 122.451 0.919286 -1.80431 0
M  V30 1222 C 122.779 1.83393 -0.647866 0
M  V30 1223 O 122.034 1.92236 0.366556 0
M  V30 1224 C 122.333 1.77031 -3.10475 0
M  V30 1225 C 121.999 1.00693 -4.39513 0
M  V30 1226 C 120.661 0.796145 -4.74568 0
M  V30 1227 C 123.013 0.469559 -5.19081 0
M  V30 1228 C 120.341 0.0364588 -5.86689 0
M  V30 1229 C 122.693 -0.2769 -6.31994 0
M  V30 1230 C 121.357 -0.49873 -6.65634 0
M  V30 1231 H 120.627 0.336391 -0.660244 0
M  V30 1232 H 123.274 0.185872 -1.90596 0
M  V30 1233 H 121.579 2.5723 -2.95533 0
M  V30 1234 H 123.276 2.33065 -3.26315 0
M  V30 1235 H 119.866 1.18122 -4.12001 0
M  V30 1236 H 124.05 0.619816 -4.92414 0
M  V30 1237 H 119.306 -0.145412 -6.11227 0
M  V30 1238 H 123.48 -0.700684 -6.92866 0
M  V30 1239 H 121.107 -1.0893 -7.52355 0
M  V30 1240 N 122.682 1.50554 0.465978 0
M  V30 1241 C 123.912 1.65323 1.23903 0
M  V30 1242 C 124.32 0.338051 1.86155 0
M  V30 1243 O 123.663 -0.690518 1.70228 0
M  V30 1244 C 123.725 2.69048 2.3844 0
M  V30 1245 C 123.389 4.12462 1.96784 0
M  V30 1246 C 124.386 4.98168 1.48745 0
M  V30 1247 C 122.071 4.58407 2.05349 0
M  V30 1248 C 124.065 6.27868 1.0982 0
M  V30 1249 C 121.752 5.88112 1.66035 0
M  V30 1250 C 122.75 6.72668 1.18349 0
M  V30 1251 O 122.438 7.99951 0.795825 0
M  V30 1252 H 122.17 0.558629 0.38067 0
M  V30 1253 H 124.724 1.97561 0.562022 0
M  V30 1254 H 122.954 2.32062 3.09328 0
M  V30 1255 H 124.643 2.72985 3.0039 0
M  V30 1256 H 125.409 4.63885 1.41546 0
M  V30 1257 H 121.288 3.92735 2.41414 0
M  V30 1258 H 124.832 6.93819 0.725293 0
M  V30 1259 H 120.729 6.21914 1.72895 0
M  V30 1260 H 121.497 8.13265 0.924222 0
M  V30 1261 N 124.16 -0.719506 1.40217 0
M  V30 1262 C 125.407 -1.47933 1.38283 0
M  V30 1263 C 125.735 -1.94493 -0.0161536 0
M  V30 1264 O 124.99 -1.68224 -0.999956 0
M  V30 1265 C 125.289 -2.72271 2.31524 0
M  V30 1266 C 124.955 -2.44496 3.78857 0
M  V30 1267 C 123.617 -2.36631 4.18998 0
M  V30 1268 C 125.969 -2.21104 4.71977 0
M  V30 1269 C 123.297 -2.03437 5.503 0
M  V30 1270 C 125.649 -1.89423 6.03574 0
M  V30 1271 C 124.313 -1.80038 6.42762 0
M  V30 1272 H 123.583 -0.541325 0.506012 0
M  V30 1273 H 126.23 -0.824502 1.72842 0
M  V30 1274 H 124.535 -3.42572 1.90137 0
M  V30 1275 H 126.232 -3.30348 2.27313 0
M  V30 1276 H 122.822 -2.51503 3.47051 0
M  V30 1277 H 127.006 -2.26139 4.41786 0
M  V30 1278 H 122.262 -1.94705 5.79569 0
M  V30 1279 H 126.436 -1.70336 6.75247 0
M  V30 1280 H 124.063 -1.54083 7.44421 0
M  V30 1281 N 125.638 -1.25649 -0.95132 0
M  V30 1282 C 126.915 -1.01361 -1.67288 0
M  V30 1283 C 127.295 0.459135 -2.06046 0
M  V30 1284 O 126.643 1.43723 -1.7764 0
M  V30 1285 C 126.853 -1.95256 -2.89268 0
M  V30 1286 C 128.201 -2.23289 -3.61147 0
M  V30 1287 O 129.225 -1.93041 -2.99355 0
M  V30 1288 O 128.084 -2.74741 -4.72419 0
M  V30 1289 H 125.178 -0.38464 -0.732107 0
M  V30 1290 H 127.724 -1.36817 -1.00395 0
M  V30 1291 H 126.496 -2.94685 -2.57442 0
M  V30 1292 H 126.119 -1.60218 -3.6389 0
M  V30 1293 N 127.117 1.15442 -1.07289 0
M  V30 1294 C 128.345 1.90096 -0.81676 0
M  V30 1295 C 128.76 1.7798 0.629966 0
M  V30 1296 O 128.117 1.1313 1.43206 0
M  V30 1297 C 128.168 3.40466 -1.21512 0
M  V30 1298 O 127.889 3.52232 -2.60508 0
M  V30 1299 C 129.39 4.32145 -0.988198 0
M  V30 1300 H 126.61 0.602495 -0.295366 0
M  V30 1301 H 129.154 1.4627 -1.42918 0
M  V30 1302 H 127.309 3.81958 -0.647039 0
M  V30 1303 H 127.723 4.45549 -2.76742 0
M  V30 1304 H 129.197 5.36072 -1.31645 0
M  V30 1305 H 129.674 4.39135 0.0755063 0
M  V30 1306 H 130.28 3.96395 -1.54115 0
M  V30 1307 N 128.595 0.856903 1.32268 0
M  V30 1308 C 129.543 0.291987 2.3076 0
M  V30 1309 C 130.537 -0.585857 1.58947 0
M  V30 1310 O 131.743 -0.47341 1.73663 0
M  V30 1311 H 128.118 0.075721 0.748178 0
M  V30 1312 H 130.089 1.13687 2.75895 0
M  V30 1313 C 128.838 -0.502869 3.44044 0
M  V30 1314 H 128.161 0.163328 3.99466 0
M  V30 1315 H 129.601 -0.863691 4.1511 0
M  V30 1316 C 128.06 -1.68898 2.91505 0
M  V30 1317 O 128.59 -2.78811 2.89184 0
M  V30 1318 N 126.796 -1.51679 2.47875 0
M  V30 1319 H 126.343 -0.622666 2.49961 0
M  V30 1320 H 126.301 -2.31184 2.13076 0
M  V30 1321 N 130.073 -1.45103 0.615059 0
M  V30 1322 C 131.319 -2.02483 0.113347 0
M  V30 1323 C 131.652 -1.48146 -1.25564 0
M  V30 1324 O 130.927 -0.659104 -1.82992 0
M  V30 1325 C 131.21 -3.60005 0.0825278 0
M  V30 1326 C 131.063 -4.2466 1.48271 0
M  V30 1327 C 132.382 -4.35972 -0.601401 0
M  V30 1328 H 129.501 -0.735764 0.0426632 0
M  V30 1329 H 132.143 -1.72868 0.788461 0
M  V30 1330 H 130.293 -3.85367 -0.492378 0
M  V30 1331 H 131.965 -4.10458 2.10527 0
M  V30 1332 H 130.208 -3.82772 2.04127 0
M  V30 1333 H 130.879 -5.336 1.41332 0
M  V30 1334 H 133.355 -4.15947 -0.112666 0
M  V30 1335 H 132.231 -5.45697 -0.592097 0
M  V30 1336 H 132.492 -4.09391 -1.66887 0
M  V30 1337 N 131.551 -0.354651 -1.53558 0
M  V30 1338 C 132.514 0.484566 -2.24019 0
M  V30 1339 C 133.514 1.01861 -1.24422 0
M  V30 1340 O 134.704 0.906097 -1.4878 0
M  V30 1341 C 131.836 1.67615 -2.96847 0
M  V30 1342 H 133.029 -0.131843 -2.9961 0
M  V30 1343 H 130.582 -0.106165 -1.55939 0
M  V30 1344 H 131.317 2.33095 -2.25471 0
M  V30 1345 H 131.102 1.30029 -3.69912 0
M  V30 1346 H 132.592 2.27114 -3.50441 0
M  V30 1347 N 133.029 1.57378 -0.0835403 0
M  V30 1348 C 134.259 1.97975 0.590713 0
M  V30 1349 C 134.667 0.961083 1.62972 0
M  V30 1350 O 134.01 -0.0590879 1.83605 0
M  V30 1351 C 134.072 3.34915 1.3066 0
M  V30 1352 C 133.736 4.55069 0.419698 0
M  V30 1353 C 134.733 5.18868 -0.32749 0
M  V30 1354 C 132.418 5.0114 0.341137 0
M  V30 1355 C 134.412 6.27098 -1.14134 0
M  V30 1356 C 132.099 6.0924 -0.476374 0
M  V30 1357 C 133.097 6.72083 -1.21627 0
M  V30 1358 O 132.785 7.781 -2.02028 0
M  V30 1359 H 132.517 0.655818 0.163947 0
M  V30 1360 H 135.071 2.04807 -0.156021 0
M  V30 1361 H 133.301 3.24733 2.09966 0
M  V30 1362 H 134.99 3.60037 1.87424 0
M  V30 1363 H 135.756 4.84211 -0.276459 0
M  V30 1364 H 131.635 4.51996 0.90668 0
M  V30 1365 H 135.179 6.7608 -1.71935 0
M  V30 1366 H 131.076 6.43329 -0.528927 0
M  V30 1367 H 131.844 7.95034 -1.94586 0
M  V30 1368 N 134.507 -0.190092 1.56449 0
M  V30 1369 C 135.732 -0.929864 1.85387 0
M  V30 1370 C 136.157 -1.7585 0.667704 0
M  V30 1371 O 135.515 -1.77198 -0.383459 0
M  V30 1372 C 135.563 -1.79773 3.12593 0
M  V30 1373 O 134.667 -2.89713 2.93496 0
M  V30 1374 H 134.008 -0.261574 0.610307 0
M  V30 1375 H 136.538 -0.193896 2.03679 0
M  V30 1376 H 136.548 -2.20139 3.43515 0
M  V30 1377 H 135.223 -1.18892 3.98544 0
M  V30 1378 H 133.8 -2.53065 2.73884 0
M  V30 1379 N 135.985 -1.50799 -0.457987 0
M  V30 1380 C 137.231 -1.62683 -1.21088 0
M  V30 1381 C 137.564 -0.332268 -1.91336 0
M  V30 1382 O 136.839 0.667043 -1.82704 0
M  V30 1383 C 137.122 -2.81615 -2.24422 0
M  V30 1384 C 136.975 -4.20989 -1.58392 0
M  V30 1385 C 138.294 -2.96085 -3.2561 0
M  V30 1386 H 135.413 -0.592087 -0.438864 0
M  V30 1387 H 138.055 -1.83225 -0.50286 0
M  V30 1388 H 136.205 -2.64231 -2.84806 0
M  V30 1389 H 137.877 -4.49994 -1.01504 0
M  V30 1390 H 136.12 -4.24641 -0.886704 0
M  V30 1391 H 136.791 -5.0016 -2.33547 0
M  V30 1392 H 139.267 -3.12042 -2.75262 0
M  V30 1393 H 138.143 -3.80902 -3.95228 0
M  V30 1394 H 138.404 -2.0726 -3.90507 0
M  V30 1395 N 137.463 0.71206 -1.40597 0
M  V30 1396 C 138.426 1.80785 -1.40888 0
M  V30 1397 C 139.426 1.57937 -0.302103 0
M  V30 1398 O 140.616 1.64913 -0.561182 0
M  V30 1399 C 137.748 3.18927 -1.20409 0
M  V30 1400 H 138.941 1.81924 -2.38419 0
M  V30 1401 H 136.494 0.91805 -1.26497 0
M  V30 1402 H 137.229 3.23436 -0.236522 0
M  V30 1403 H 137.014 3.36911 -2.00582 0
M  V30 1404 H 138.504 3.98949 -1.23408 0
M  V30 1405 N 138.941 1.26152 0.944643 0
M  V30 1406 C 139.873 1.03199 2.04652 0
M  V30 1407 C 140.886 -0.00642356 1.62799 0
M  V30 1408 O 142.075 0.233263 1.76969 0
M  V30 1409 C 139.175 0.540111 3.34568 0
M  V30 1410 C 138.348 1.64697 4.05208 0
M  V30 1411 C 137.407 1.15374 5.13396 0
M  V30 1412 O 136.433 1.85013 5.38293 0
M  V30 1413 N 137.635 0.00031529 5.805 0
M  V30 1414 H 140.4 1.9808 2.2491 0
M  V30 1415 H 137.961 1.17491 1.11389 0
M  V30 1416 H 139.953 0.194401 4.04233 0
M  V30 1417 H 138.523 -0.315021 3.11009 0
M  V30 1418 H 137.743 2.16379 3.29506 0
M  V30 1419 H 139.031 2.3903 4.49157 0
M  V30 1420 H 138.429 -0.581336 5.62705 0
M  V30 1421 H 136.986 -0.286346 6.51171 0
M  V30 1422 N 140.419 -1.14872 1.07899 0
M  V30 1423 C 141.351 -2.19425 0.662231 0
M  V30 1424 C 142.364 -1.60231 -0.288079 0
M  V30 1425 O 143.553 -1.78336 -0.076534 0
M  V30 1426 C 140.653 -3.38867 -0.0470695 0
M  V30 1427 C 139.826 -4.27597 0.920831 0
M  V30 1428 C 138.885 -5.25616 0.247805 0
M  V30 1429 O 137.911 -5.62189 0.890599 0
M  V30 1430 N 139.113 -5.71746 -1.00435 0
M  V30 1431 H 141.878 -2.55797 1.56166 0
M  V30 1432 H 139.439 -1.30042 0.964404 0
M  V30 1433 H 141.431 -4.01497 -0.50813 0
M  V30 1434 H 140.001 -3.00864 -0.848523 0
M  V30 1435 H 139.221 -3.61982 1.56087 0
M  V30 1436 H 140.509 -4.83748 1.57688 0
M  V30 1437 H 139.907 -5.44153 -1.54642 0
M  V30 1438 H 138.464 -6.36389 -1.40899 0
M  V30 1439 N 141.898 -0.863906 -1.31812 0
M  V30 1440 C 142.846 -0.30422 -2.30602 0
M  V30 1441 C 143.84 0.577419 -1.59255 0
M  V30 1442 O 145.046 0.464194 -1.73912 0
M  V30 1443 H 141.421 -0.0796877 -0.747766 0
M  V30 1444 H 143.392 -1.15148 -2.75288 0
M  V30 1445 C 142.141 0.484617 -3.44306 0
M  V30 1446 H 141.464 -0.18451 -3.99374 0
M  V30 1447 H 142.904 0.841664 -4.15562 0
M  V30 1448 C 141.363 1.6735 -2.92396 0
M  V30 1449 O 141.893 2.77273 -2.90659 0
M  V30 1450 N 140.099 1.50362 -2.48676 0
M  V30 1451 H 139.646 0.609402 -2.50288 0
M  V30 1452 H 139.604 2.30051 -2.14299 0
M  V30 1453 N 143.376 1.44774 -0.622745 0
M  V30 1454 C 144.653 1.95522 -0.0551974 0
M  V30 1455 C 145.033 1.5649 1.41683 0
M  V30 1456 O 144.381 0.834848 2.12703 0
M  V30 1457 C 144.591 3.4796 -0.269242 0
M  V30 1458 C 145.939 4.24306 -0.158014 0
M  V30 1459 O 146.963 3.55637 -0.200162 0
M  V30 1460 O 145.822 5.46471 -0.0558693 0
M  V30 1461 H 142.916 0.826556 0.0271015 0
M  V30 1462 H 145.462 1.54866 -0.693864 0
M  V30 1463 H 144.234 3.6939 -1.29099 0
M  V30 1464 H 143.857 3.95543 0.403966 0
M  V30 1465 N 144.854 0.36279 1.53368 0
M  V30 1466 C 146.1 -0.220702 2.02199 0
M  V30 1467 C 146.455 -1.46649 1.24546 0
M  V30 1468 O 145.748 -1.88737 0.32996 0
M  V30 1469 C 145.942 -0.568417 3.52851 0
M  V30 1470 C 145.771 0.642126 4.45092 0
M  V30 1471 C 144.541 1.15335 4.91961 0
M  V30 1472 C 146.739 1.50649 4.91741 0
M  V30 1473 N 144.721 2.3242 5.68202 0
M  V30 1474 C 146.092 2.52404 5.66297 0
M  V30 1475 C 148.147 1.52969 4.73819 0
M  V30 1476 C 146.85 3.56331 6.24836 0
M  V30 1477 C 148.876 2.55789 5.33222 0
M  V30 1478 C 148.238 3.56268 6.07662 0
M  V30 1479 H 144.337 -0.0435508 0.780786 0
M  V30 1480 H 146.921 0.506704 1.87991 0
M  V30 1481 H 145.092 -1.2649 3.67226 0
M  V30 1482 H 146.824 -1.13676 3.88407 0
M  V30 1483 H 143.579 0.718412 4.68119 0
M  V30 1484 H 144.003 2.91591 6.10986 0
M  V30 1485 H 148.645 0.766418 4.15795 0
M  V30 1486 H 146.363 4.33543 6.81958 0
M  V30 1487 H 149.949 2.58435 5.21251 0
M  V30 1488 H 148.829 4.34524 6.52808 0
M  V30 1489 N 146.332 -1.57332 0.0918853 0
M  V30 1490 C 147.242 -2.17368 -0.882505 0
M  V30 1491 C 148.258 -1.14226 -1.31257 0
M  V30 1492 O 149.434 -1.46582 -1.38115 0
M  V30 1493 C 146.499 -2.73962 -2.12476 0
M  V30 1494 C 145.56 -3.92048 -1.7492 0
M  V30 1495 C 144.793 -4.45933 -2.93223 0
M  V30 1496 O 145.016 -3.98764 -4.07852 0
M  V30 1497 O 143.95 -5.36999 -2.71875 0
M  V30 1498 H 147.776 -3.01031 -0.40172 0
M  V30 1499 H 145.361 -1.48813 -0.132291 0
M  V30 1500 H 147.243 -3.10147 -2.85283 0
M  V30 1501 H 145.918 -1.93347 -2.59613 0
M  V30 1502 H 144.825 -3.6068 -0.993025 0
M  V30 1503 H 146.158 -4.74017 -1.32548 0
M  V30 1504 N 147.81 0.181792 -1.56548 0
M  V30 1505 C 148.773 1.20894 -1.94724 0
M  V30 1506 C 149.773 1.37738 -0.829747 0
M  V30 1507 O 150.963 1.35323 -1.09697 0
M  V30 1508 C 148.095 2.57593 -2.23291 0
M  V30 1509 H 149.288 0.882275 -2.86629 0
M  V30 1510 H 146.841 0.423838 -1.50444 0
M  V30 1511 H 147.576 2.95291 -1.34067 0
M  V30 1512 H 147.361 2.46735 -3.04736 0
M  V30 1513 H 148.851 3.31637 -2.53785 0
M  V30 1514 N 149.288 1.51039 0.449983 0
M  V30 1515 C 150.516 1.66869 1.2232 0
M  V30 1516 C 150.931 0.360727 1.85322 0
M  V30 1517 O 150.288 -0.659531 1.70166 0
M  V30 1518 C 150.339 2.77524 2.31652 0
M  V30 1519 O 150.06 4.03252 1.7123 0
M  V30 1520 C 151.561 3.04512 3.2216 0
M  V30 1521 H 148.781 0.560326 0.369155 0
M  V30 1522 H 151.325 1.97385 0.534719 0
M  V30 1523 H 149.48 2.49642 2.96239 0
M  V30 1524 H 149.894 4.64609 2.43389 0
M  V30 1525 H 151.368 3.85551 3.95038 0
M  V30 1526 H 151.845 2.16415 3.8218 0
M  V30 1527 H 152.451 3.34005 2.63288 0
M  V30 1528 N 150.766 -0.704594 1.40972 0
M  V30 1529 C 152.043 -1.45847 1.30338 0
M  V30 1530 C 152.423 -2.10973 -0.0732344 0
M  V30 1531 O 151.771 -2.00997 -1.08685 0
M  V30 1532 C 151.981 -2.48525 2.45023 0
M  V30 1533 C 153.329 -3.1404 2.8577 0
M  V30 1534 O 154.353 -2.58848 2.44696 0
M  V30 1535 O 153.212 -4.13981 3.56766 0
M  V30 1536 H 150.306 -0.649092 0.512454 0
M  V30 1537 H 152.852 -0.735836 1.52917 0
M  V30 1538 H 151.624 -1.98994 3.36923 0
M  V30 1539 H 151.247 -3.2831 2.24272 0
M  V30 1540 N 152.244 -1.26651 -0.937939 0
M  V30 1541 C 153.655 -1.1125 -1.49934 0
M  V30 1542 C 154.006 0.306077 -1.93798 0
M  V30 1543 O 153.131 1.19792 -1.80219 0
M  V30 1544 C 153.726 -2.01339 -2.72485 0
M  V30 1545 C 152.285 -1.90074 -3.24883 0
M  V30 1546 C 151.432 -1.94498 -1.97651 0
M  V30 1547 H 154.383 -1.39693 -0.753091 0
M  V30 1548 H 154.404 -1.56319 -3.46907 0
M  V30 1549 H 153.916 -3.04577 -2.40529 0
M  V30 1550 H 152.017 -0.897827 -3.61621 0
M  V30 1551 H 152.13 -2.75778 -3.9177 0
M  V30 1552 H 150.494 -1.38591 -2.13693 0
M  V30 1553 H 151.277 -2.99372 -1.68022 0
M  V30 1554 N 153.722 1.14298 -1.08507 0
M  V30 1555 C 154.685 2.17607 -0.719711 0
M  V30 1556 C 155.685 1.58907 0.245997 0
M  V30 1557 O 156.875 1.74181 0.0254081 0
M  V30 1558 C 154.007 3.40842 -0.0627695 0
M  V30 1559 H 155.2 2.51443 -1.63452 0
M  V30 1560 H 152.753 1.28963 -0.88307 0
M  V30 1561 H 153.488 3.12587 0.863716 0
M  V30 1562 H 153.273 3.84713 -0.757504 0
M  V30 1563 H 154.763 4.17221 0.177786 0
M  V30 1564 N 155.201 0.870884 1.31352 0
M  V30 1565 C 156.448 0.482273 1.96673 0
M  V30 1566 C 156.776 -0.965638 1.68836 0
M  V30 1567 O 156.031 -1.69514 0.977937 0
M  V30 1568 C 156.33 0.687157 3.50732 0
M  V30 1569 C 155.996 2.108 3.9859 0
M  V30 1570 C 154.658 2.49656 4.1137 0
M  V30 1571 C 157.01 3.03459 4.23748 0
M  V30 1572 C 154.338 3.80412 4.46659 0
M  V30 1573 C 156.69 4.3373 4.60501 0
M  V30 1574 C 155.354 4.725 4.71487 0
M  V30 1575 H 154.624 0.176476 0.719679 0
M  V30 1576 H 157.271 1.10405 1.56471 0
M  V30 1577 H 155.576 -0.0177476 3.91796 0
M  V30 1578 H 157.273 0.366284 3.99324 0
M  V30 1579 H 153.863 1.79633 3.8914 0
M  V30 1580 H 158.047 2.74665 4.13368 0
M  V30 1581 H 153.303 4.1021 4.53362 0
M  V30 1582 H 157.477 5.05578 4.78919 0
M  V30 1583 H 155.104 5.73859 4.98588 0
M  V30 1584 N 156.679 -1.44442 0.630414 0
M  V30 1585 C 158.095 -1.56832 0.295973 0
M  V30 1586 C 158.295 -1.61806 -1.20088 0
M  V30 1587 O 157.351 -1.5607 -1.9849 0
M  V30 1588 C 158.664 -2.84031 0.987264 0
M  V30 1589 C 160.212 -2.97742 0.96534 0
M  V30 1590 C 160.687 -4.27743 1.63708 0
M  V30 1591 N 162.178 -4.34555 1.60364 0
M  V30 1592 C 162.913 -5.33862 2.09234 0
M  V30 1593 N 162.409 -6.39578 2.66292 0
M  V30 1594 N 164.202 -5.25366 1.99867 0
M  V30 1595 H 156.353 -1.39457 1.60205 0
M  V30 1596 H 158.616 -0.668237 0.672431 0
M  V30 1597 H 158.322 -2.86338 2.04215 0
M  V30 1598 H 158.196 -3.73534 0.524588 0
M  V30 1599 H 160.583 -2.94989 -0.0810639 0
M  V30 1600 H 160.664 -2.09589 1.4665 0
M  V30 1601 H 160.308 -4.31255 2.68293 0
M  V30 1602 H 160.238 -5.14752 1.11076 0
M  V30 1603 H 162.729 -3.58772 1.18705 0
M  V30 1604 H 163.042 -7.11637 3.01317 0
M  V30 1605 H 161.387 -6.40265 2.70343 0
M  V30 1606 H 164.578 -4.41688 1.55013 0
M  V30 1607 H 164.751 -6.02606 2.38265 0
M  V30 1608 N 158.157 -0.370918 -1.53173 0
M  V30 1609 C 159.067 0.480823 -2.2962 0
M  V30 1610 C 160.083 1.08789 -1.35798 0
M  V30 1611 O 161.259 1.09768 -1.68858 0
M  V30 1612 C 158.324 1.60227 -3.07454 0
M  V30 1613 C 157.385 1.0222 -4.16953 0
M  V30 1614 C 156.618 2.0902 -4.91066 0
M  V30 1615 O 156.841 3.30222 -4.65091 0
M  V30 1616 O 155.775 1.71778 -5.76867 0
M  V30 1617 H 159.601 -0.141421 -3.03371 0
M  V30 1618 H 157.186 -0.135146 -1.48787 0
M  V30 1619 H 159.068 2.25417 -3.56041 0
M  V30 1620 H 157.743 2.20982 -2.36535 0
M  V30 1621 H 156.65 0.334064 -3.72605 0
M  V30 1622 H 157.983 0.459131 -4.90054 0
M  V30 1623 N 159.635 1.57281 -0.100228 0
M  V30 1624 C 160.598 2.13158 0.842398 0
M  V30 1625 C 161.598 1.06202 1.20738 0
M  V30 1626 O 162.788 1.32066 1.13597 0
M  V30 1627 C 159.92 2.65639 2.13655 0
M  V30 1628 H 161.113 2.97766 0.357114 0
M  V30 1629 H 158.666 1.5559 0.148823 0
M  V30 1630 H 159.401 1.84566 2.66657 0
M  V30 1631 H 159.186 3.43844 1.88451 0
M  V30 1632 H 160.676 3.08846 2.81077 0
M  V30 1633 N 161.113 -0.173488 1.56642 0
M  V30 1634 C 162.061 -1.23417 1.97157 0
M  V30 1635 C 163.055 -1.45946 0.860013 0
M  V30 1636 O 164.261 -1.46551 1.04512 0
M  V30 1637 H 160.636 -0.414818 0.62724 0
M  V30 1638 H 162.607 -0.865582 2.8557 0
M  V30 1639 C 161.356 -2.5665 2.34576 0
M  V30 1640 H 160.679 -2.40137 3.19647 0
M  V30 1641 H 162.119 -3.2956 2.6677 0
M  V30 1642 C 160.578 -3.15245 1.18836 0
M  V30 1643 O 161.108 -3.98883 0.474869 0
M  V30 1644 N 159.314 -2.74303 0.959497 0
M  V30 1645 H 158.861 -2.0639 1.54146 0
M  V30 1646 H 158.819 -3.13844 0.186932 0
M  V30 1647 N 162.591 -1.51276 -0.441967 0
M  V30 1648 C 163.837 -1.63958 -1.19355 0
M  V30 1649 C 164.17 -0.352543 -1.90973 0
M  V30 1650 O 163.445 0.647627 -1.83401 0
M  V30 1651 C 163.728 -2.83979 -2.21422 0
M  V30 1652 C 163.581 -4.22646 -1.53918 0
M  V30 1653 C 164.9 -2.99521 -3.22451 0
M  V30 1654 H 162.019 -0.596709 -0.432559 0
M  V30 1655 H 164.661 -1.83748 -0.483398 0
M  V30 1656 H 162.811 -2.67237 -2.81987 0
M  V30 1657 H 164.483 -4.51045 -0.967256 0
M  V30 1658 H 162.726 -4.25558 -0.841615 0
M  V30 1659 H 163.397 -5.02609 -2.28229 0
M  V30 1660 H 165.873 -3.14944 -2.71937 0
M  V30 1661 H 164.749 -3.85072 -3.91166 0
M  V30 1662 H 165.01 -2.11391 -3.88287 0
M  V30 1663 N 164.069 0.697108 -1.41344 0
M  V30 1664 C 165.001 1.8224 -1.39001 0
M  V30 1665 C 166.014 1.60152 -0.292428 0
M  V30 1666 O 167.203 1.69684 -0.554048 0
M  V30 1667 C 164.303 3.18976 -1.14489 0
M  V30 1668 C 163.476 3.68105 -2.36258 0
M  V30 1669 C 162.535 4.83506 -2.07625 0
M  V30 1670 O 161.561 4.95201 -2.8065 0
M  V30 1671 N 162.763 5.70637 -1.06555 0
M  V30 1672 H 165.528 1.84742 -2.35988 0
M  V30 1673 H 163.089 0.87937 -1.35936 0
M  V30 1674 H 165.081 3.93801 -0.932885 0
M  V30 1675 H 163.651 3.11508 -0.261043 0
M  V30 1676 H 162.871 2.84204 -2.7317 0
M  V30 1677 H 164.159 3.97667 -3.17393 0
M  V30 1678 H 163.557 5.63817 -0.461125 0
M  V30 1679 H 162.114 6.45368 -0.913444 0
M  V30 1680 N 165.547 1.27147 0.931209 0
M  V30 1681 C 166.795 1.13055 1.6752 0
M  V30 1682 C 167.116 -0.324791 1.92276 0
M  V30 1683 O 166.386 -1.22775 1.52654 0
M  V30 1684 H 164.966 0.415391 0.620854 0
M  V30 1685 H 167.628 1.59623 1.11833 0
M  V30 1686 H 166.724 1.65694 2.64485 0
M  V30 1687 N 167.025 -1.13721 1.09112 0
M  V30 1688 C 167.972 -2.19031 0.727591 0
M  V30 1689 C 168.942 -1.63555 -0.289656 0
M  V30 1690 O 170.127 -1.90023 -0.172026 0
M  V30 1691 C 167.267 -3.4477 0.15082 0
M  V30 1692 C 166.38 -4.14365 1.22172 0
M  V30 1693 C 165.515 -5.27709 0.608042 0
M  V30 1694 C 164.554 -5.89147 1.66047 0
M  V30 1695 N 163.691 -6.93929 1.06806 0
M  V30 1696 H 168.531 -2.49475 1.62991 0
M  V30 1697 H 166.068 -1.22499 0.81439 0
M  V30 1698 H 168.026 -4.16714 -0.201358 0
M  V30 1699 H 166.656 -3.14787 -0.714783 0
M  V30 1700 H 165.708 -3.40737 1.69122 0
M  V30 1701 H 167.02 -4.56114 2.01895 0
M  V30 1702 H 166.174 -6.06355 0.204523 0
M  V30 1703 H 164.913 -4.872 -0.220769 0
M  V30 1704 H 163.918 -5.09198 2.07357 0
M  V30 1705 H 165.143 -6.31729 2.49189 0
M  V30 1706 H 163.089 -6.55483 0.260476 0
M  V30 1707 H 163.006 -7.34202 1.8023 0
M  V30 1708 H 164.274 -7.76434 0.690644 0
M  V30 1709 N 168.503 -0.877838 -1.30888 0
M  V30 1710 C 169.451 -0.328662 -2.30266 0
M  V30 1711 C 170.445 0.560496 -1.59859 0
M  V30 1712 O 171.651 0.445722 -1.74394 0
M  V30 1713 H 168.026 -0.0876142 -0.746879 0
M  V30 1714 H 169.997 -1.18061 -2.74051 0
M  V30 1715 C 168.746 0.448071 -3.44801 0
M  V30 1716 H 168.069 -0.226859 -3.99156 0
M  V30 1717 H 169.509 0.797541 -4.16432 0
M  V30 1718 C 167.968 1.64239 -2.94155 0
M  V30 1719 O 168.498 2.74175 -2.93583 0
M  V30 1720 N 166.704 1.47716 -2.50256 0
M  V30 1721 H 166.251 0.582821 -2.5092 0
M  V30 1722 H 166.209 2.27765 -2.16727 0
M  V30 1723 N 169.982 1.44106 -0.638065 0
M  V30 1724 C 170.912 2.33448 0.0494287 0
M  V30 1725 C 171.893 1.48606 0.827672 0
M  V30 1726 O 173.078 1.77308 0.792173 0
M  V30 1727 C 170.208 3.31771 1.02691 0
M  V30 1728 C 169.162 4.26485 0.359823 0
M  V30 1729 C 168.488 5.14729 1.44769 0
M  V30 1730 C 169.788 5.17056 -0.738296 0
M  V30 1731 H 171.482 2.91183 -0.696636 0
M  V30 1732 H 169.028 1.40014 -0.336456 0
M  V30 1733 H 170.981 3.93161 1.51666 0
M  V30 1734 H 169.705 2.7226 1.80395 0
M  V30 1735 H 168.364 3.66437 -0.10934 0
M  V30 1736 H 168.012 4.51566 2.21578 0
M  V30 1737 H 167.712 5.78913 1.00668 0
M  V30 1738 H 169.236 5.78991 1.93911 0
M  V30 1739 H 170.65 5.72342 -0.331354 0
M  V30 1740 H 169.047 5.89879 -1.10286 0
M  V30 1741 H 170.117 4.57652 -1.60258 0
M  V30 1742 N 171.46 0.379036 1.52974 0
M  V30 1743 C 172.709 -0.207612 2.00629 0
M  V30 1744 C 173.022 -1.48758 1.27006 0
M  V30 1745 O 174.228 -2.15365 1.65318 0
M  V30 1746 C 172.684 -0.42053 3.57435 0
M  V30 1747 C 172.292 0.845587 4.39948 0
M  V30 1748 C 174.036 -0.964102 4.13407 0
M  V30 1749 C 171.943 0.601513 5.88333 0
M  V30 1750 H 170.873 -0.0813591 0.749598 0
M  V30 1751 H 173.524 0.499853 1.76561 0
M  V30 1752 H 171.906 -1.18959 3.7771 0
M  V30 1753 H 173.08 1.61848 4.31442 0
M  V30 1754 H 171.395 1.31336 3.95145 0
M  V30 1755 H 173.992 -1.16225 5.21916 0
M  V30 1756 H 174.335 -1.93019 3.68849 0
M  V30 1757 H 174.868 -0.25487 3.96983 0
M  V30 1758 H 171.607 1.53831 6.37194 0
M  V30 1759 H 171.127 -0.132628 5.99653 0
M  V30 1760 H 172.806 0.232134 6.46583 0
M  V30 1761 N 172.938 -1.57226 0.108567 0
M  V30 1762 C 173.848 -2.18292 -0.859401 0
M  V30 1763 C 174.864 -1.15612 -1.30038 0
M  V30 1764 O 176.04 -1.48039 -1.36552 0
M  V30 1765 C 173.105 -2.762 -2.09558 0
M  V30 1766 C 172.166 -3.93881 -1.70752 0
M  V30 1767 C 171.399 -4.49018 -2.88477 0
M  V30 1768 O 171.622 -4.03068 -4.036 0
M  V30 1769 O 170.556 -5.39852 -2.66164 0
M  V30 1770 H 174.382 -3.01441 -0.369769 0
M  V30 1771 H 171.967 -1.48945 -0.1165 0
M  V30 1772 H 173.849 -3.13156 -2.81978 0
M  V30 1773 H 172.524 -1.96089 -2.57548 0
M  V30 1774 H 171.431 -3.61713 -0.954714 0
M  V30 1775 H 172.764 -4.75396 -1.27513 0
M  V30 1776 N 174.416 0.165178 -1.56732 0
M  V30 1777 C 175.662 0.877389 -1.83503 0
M  V30 1778 C 176.017 1.79602 -0.689996 0
M  V30 1779 O 175.31 1.89023 0.313205 0
M  V30 1780 C 175.504 1.70405 -3.1416 0
M  V30 1781 C 175.333 0.866961 -4.41264 0
M  V30 1782 C 174.103 0.539646 -5.0241 0
M  V30 1783 C 176.301 0.205671 -5.13889 0
M  V30 1784 N 174.283 -0.312946 -6.13102 0
M  V30 1785 C 175.654 -0.507823 -6.17917 0
M  V30 1786 C 177.709 0.124468 -4.97744 0
M  V30 1787 C 176.412 -1.29483 -7.0755 0
M  V30 1788 C 178.438 -0.649222 -5.87826 0
M  V30 1789 C 177.8 -1.35106 -6.91322 0
M  V30 1790 H 173.899 0.299477 -0.722383 0
M  V30 1791 H 176.483 0.143949 -1.94167 0
M  V30 1792 H 174.654 2.40887 -3.04677 0
M  V30 1793 H 176.386 2.35804 -3.28905 0
M  V30 1794 H 173.141 0.871176 -4.65519 0
M  V30 1795 H 173.565 -0.729731 -6.73056 0
M  V30 1796 H 178.207 0.652724 -4.17731 0
M  V30 1797 H 175.925 -1.83441 -7.87004 0
M  V30 1798 H 179.511 -0.713804 -5.77405 0
M  V30 1799 H 178.391 -1.94013 -7.59821 0
M  V30 1800 N 175.894 1.51508 0.433938 0
M  V30 1801 C 176.824 1.76016 1.53429 0
M  V30 1802 C 177.805 0.610112 1.58782 0
M  V30 1803 O 178.99 0.853177 1.74455 0
M  V30 1804 C 176.12 1.88831 2.9148 0
M  V30 1805 C 175.074 3.04288 3.00987 0
M  V30 1806 C 174.4 3.0229 4.4105 0
M  V30 1807 C 175.7 4.44193 2.74754 0
M  V30 1808 H 177.394 2.68152 1.33171 0
M  V30 1809 H 174.94 1.29035 0.639214 0
M  V30 1810 H 176.893 2.04559 3.6842 0
M  V30 1811 H 175.617 0.933455 3.12976 0
M  V30 1812 H 174.276 2.8827 2.26486 0
M  V30 1813 H 173.924 2.04576 4.59519 0
M  V30 1814 H 173.624 3.79822 4.4834 0
M  V30 1815 H 175.148 3.20116 5.1996 0
M  V30 1816 H 176.562 4.60544 3.41426 0
M  V30 1817 H 174.959 5.23457 2.9345 0
M  V30 1818 H 176.029 4.53996 1.70339 0
M  V30 1819 N 177.372 -0.689602 1.41712 0
M  V30 1820 C 178.783 -1.26973 1.36875 0
M  V30 1821 C 179.134 -1.96124 0.054748 0
M  V30 1822 O 178.259 -1.99141 -0.84687 0
M  V30 1823 C 178.854 -2.30912 2.47922 0
M  V30 1824 C 177.413 -2.84486 2.46464 0
M  V30 1825 C 176.56 -1.58603 2.27465 0
M  V30 1826 H 179.511 -0.48396 1.51141 0
M  V30 1827 H 179.532 -3.12331 2.17323 0
M  V30 1828 H 179.044 -1.80554 3.43543 0
M  V30 1829 H 177.145 -3.39005 1.54617 0
M  V30 1830 H 177.258 -3.34511 3.42986 0
M  V30 1831 H 175.622 -1.84632 1.75451 0
M  V30 1832 H 176.405 -1.10233 3.25121 0
M  V30 1833 N 178.85 -1.27639 -0.924453 0
M  V30 1834 C 180.098 -1.13941 -1.66918 0
M  V30 1835 C 180.419 0.314589 -1.92446 0
M  V30 1836 O 179.689 1.21964 -1.53303 0
M  V30 1837 H 178.269 -0.418678 -0.618642 0
M  V30 1838 H 180.931 -1.60213 -1.10985 0
M  V30 1839 H 180.027 -1.67094 -2.63602 0
M  V30 1840 N 180.328 1.1314 -1.09713 0
M  V30 1841 C 181.553 1.88862 -0.857081 0
M  V30 1842 C 181.978 1.78729 0.586304 0
M  V30 1843 O 181.336 1.13692 1.41222 0
M  V30 1844 C 181.384 3.36325 -1.30069 0
M  V30 1845 O 180.488 4.09815 -0.461007 0
M  V30 1846 H 179.829 0.587108 -0.310162 0
M  V30 1847 H 182.359 1.43129 -1.46203 0
M  V30 1848 H 182.369 3.87157 -1.28738 0
M  V30 1849 H 181.044 3.43017 -2.35185 0
M  V30 1850 H 179.621 3.68986 -0.538888 0
M  V30 1851 N 181.806 0.884767 1.30421 0
M  V30 1852 C 183.034 0.518044 2.0031 0
M  V30 1853 C 183.449 -0.893408 1.66324 0
M  V30 1854 O 182.806 -1.5875 0.900262 0
M  V30 1855 C 182.857 0.682997 3.54989 0
M  V30 1856 O 182.578 2.03888 3.87764 0
M  V30 1857 C 184.079 0.31924 4.42149 0
M  V30 1858 H 181.299 0.200265 0.640418 0
M  V30 1859 H 183.843 1.19001 1.6631 0
M  V30 1860 H 181.998 0.0584052 3.87356 0
M  V30 1861 H 182.412 2.05735 4.82466 0
M  V30 1862 H 183.886 0.485555 5.4986 0
M  V30 1863 H 184.363 -0.742717 4.32875 0
M  V30 1864 H 184.969 0.920147 4.15227 0
M  V30 1865 N 183.284 -1.43765 0.645699 0
M  V30 1866 C 184.533 -2.01116 0.153412 0
M  V30 1867 C 184.846 -1.51493 -1.23731 0
M  V30 1868 O 186.052 -2.01067 -1.8244 0
M  V30 1869 C 184.508 -3.59206 0.223473 0
M  V30 1870 C 184.116 -4.17823 1.61642 0
M  V30 1871 C 185.86 -4.23972 -0.211597 0
M  V30 1872 C 183.767 -5.68183 1.64081 0
M  V30 1873 H 182.697 -0.752093 0.0535891 0
M  V30 1874 H 185.348 -1.6482 0.806633 0
M  V30 1875 H 183.73 -3.92867 -0.497118 0
M  V30 1876 H 184.904 -3.95674 2.36176 0
M  V30 1877 H 183.219 -3.65399 1.99681 0
M  V30 1878 H 185.816 -5.34275 -0.213112 0
M  V30 1879 H 186.159 -3.97352 -1.24165 0
M  V30 1880 H 186.692 -3.95166 0.456988 0
M  V30 1881 H 183.431 -5.99559 2.64971 0
M  V30 1882 H 182.951 -5.9241 0.938611 0
M  V30 1883 H 184.63 -6.32085 1.3812 0
M  V30 1884 N 184.763 -0.387143 -1.52771 0
M  V30 1885 C 186.009 0.188506 -2.02525 0
M  V30 1886 C 186.364 1.44649 -1.26864 0
M  V30 1887 O 185.657 1.88189 -0.359945 0
M  V30 1888 C 185.851 0.512209 -3.53711 0
M  V30 1889 C 185.68 -0.712855 -4.44014 0
M  V30 1890 C 184.45 -1.23147 -4.90064 0
M  V30 1891 C 186.648 -1.58453 -4.89282 0
M  V30 1892 N 184.63 -2.41431 -5.64433 0
M  V30 1893 C 186.001 -2.61381 -5.6221 0
M  V30 1894 C 188.056 -1.60488 -4.71326 0
M  V30 1895 C 186.759 -3.66227 -6.19088 0
M  V30 1896 C 188.785 -2.6424 -5.29085 0
M  V30 1897 C 188.147 -3.6589 -6.01917 0
M  V30 1898 H 184.246 0.0311236 -0.78138 0
M  V30 1899 H 186.83 -0.536548 -1.87161 0
M  V30 1900 H 185.001 1.20632 -3.69192 0
M  V30 1901 H 186.733 1.07482 -3.90166 0
M  V30 1902 H 183.488 -0.792795 -4.66917 0
M  V30 1903 H 183.912 -3.01274 -6.0627 0
M  V30 1904 H 188.554 -0.83247 -4.14524 0
M  V30 1905 H 186.272 -4.44337 -6.74974 0
M  V30 1906 H 189.858 -2.66695 -5.17074 0
M  V30 1907 H 188.738 -4.44855 -6.45813 0
M  V30 1908 N 186.241 1.57166 -0.116904 0
M  V30 1909 C 187.204 2.14039 0.819742 0
M  V30 1910 C 188.204 1.07477 1.19605 0
M  V30 1911 O 189.394 1.33263 1.1219 0
M  V30 1912 C 186.526 2.67891 2.10826 0
M  V30 1913 H 187.719 2.98128 0.325511 0
M  V30 1914 H 185.272 1.55739 0.132312 0
M  V30 1915 H 186.007 1.87384 2.64685 0
M  V30 1916 H 185.792 3.45823 1.84793 0
M  V30 1917 H 187.282 3.11809 2.77785 0
M  V30 1918 N 187.719 -0.156864 1.56817 0
M  V30 1919 C 188.967 -0.869404 1.82444 0
M  V30 1920 C 189.288 -1.82147 0.69623 0
M  V30 1921 O 188.558 -1.93847 -0.28287 0
M  V30 1922 H 187.138 -0.324043 0.673056 0
M  V30 1923 H 189.8 -0.153224 1.94297 0
M  V30 1924 H 188.896 -1.43761 2.77019 0
M  V30 1925 N 189.197 -1.51736 -0.425897 0
M  V30 1926 C 190.144 -1.73875 -1.51776 0
M  V30 1927 C 191.114 -0.580702 -1.55618 0
M  V30 1928 O 192.299 -0.81641 -1.72451 0
M  V30 1929 C 189.439 -1.88012 -2.89388 0
M  V30 1930 C 188.552 -3.15606 -2.94986 0
M  V30 1931 C 187.687 -3.20271 -4.23793 0
M  V30 1932 C 186.726 -4.42134 -4.23302 0
M  V30 1933 N 185.863 -4.44284 -5.43651 0
M  V30 1934 H 190.703 -2.67071 -1.32201 0
M  V30 1935 H 188.24 -1.32351 -0.642008 0
M  V30 1936 H 190.198 -1.9419 -3.69251 0
M  V30 1937 H 188.828 -0.98213 -3.07496 0
M  V30 1938 H 187.88 -3.18681 -2.07717 0
M  V30 1939 H 189.192 -4.05486 -2.90486 0
M  V30 1940 H 188.346 -3.25428 -5.12036 0
M  V30 1941 H 187.085 -2.28299 -4.30965 0
M  V30 1942 H 186.09 -4.3714 -3.3345 0
M  V30 1943 H 187.315 -5.35382 -4.17783 0
M  V30 1944 H 185.261 -3.55188 -5.51523 0
M  V30 1945 H 185.178 -5.27988 -5.41078 0
M  V30 1946 H 186.446 -4.53649 -6.33895 0
M  V30 1947 N 190.675 0.682077 -1.42076 0
M  V30 1948 C 192.091 0.994324 -1.24841 0
M  V30 1949 C 192.291 2.0096 -0.147389 0
M  V30 1950 O 191.347 2.47822 0.483782 0
M  V30 1951 C 192.66 1.50607 -2.60265 0
M  V30 1952 C 194.208 1.62421 -2.6756 0
M  V30 1953 C 194.683 2.16994 -4.03333 0
M  V30 1954 N 196.174 2.24337 -4.0525 0
M  V30 1955 C 196.909 2.67621 -5.07116 0
M  V30 1956 N 196.405 3.1041 -6.19368 0
M  V30 1957 N 198.198 2.67305 -4.94474 0
M  V30 1958 H 190.349 0.00973908 -2.12398 0
M  V30 1959 H 192.612 0.0668593 -0.945639 0
M  V30 1960 H 192.318 0.834583 -3.41654 0
M  V30 1961 H 192.192 2.48602 -2.83684 0
M  V30 1962 H 194.579 2.28678 -1.86521 0
M  V30 1963 H 194.66 0.629352 -2.47937 0
M  V30 1964 H 194.304 1.51349 -4.84826 0
M  V30 1965 H 194.234 3.17258 -4.20304 0
M  V30 1966 H 196.725 1.94158 -3.24209 0
M  V30 1967 H 197.038 3.42103 -6.92954 0
M  V30 1968 H 195.383 3.08286 -6.22884 0
M  V30 1969 H 198.574 2.33233 -4.05857 0
M  V30 1970 H 198.747 3.00718 -5.73997 0
M  V30 1971 N 192.153 1.28127 0.917671 0
M  V30 1972 C 193.4 1.15052 1.66641 0
M  V30 1973 C 193.728 -0.301677 1.92146 0
M  V30 1974 O 192.983 -1.23622 1.51711 0
M  V30 1975 C 193.282 1.89018 3.03327 0
M  V30 1976 C 192.948 3.38832 2.97496 0
M  V30 1977 C 191.61 3.79693 2.95613 0
M  V30 1978 C 193.962 4.34378 2.88036 0
M  V30 1979 C 191.29 5.14447 2.82066 0
M  V30 1980 C 193.642 5.69201 2.7603 0
M  V30 1981 C 192.306 6.09343 2.72502 0
M  V30 1982 H 191.576 0.421006 0.609783 0
M  V30 1983 H 194.223 1.58855 1.06945 0
M  V30 1984 H 192.528 1.37752 3.66785 0
M  V30 1985 H 194.225 1.76321 3.60156 0
M  V30 1986 H 190.815 3.06342 2.99754 0
M  V30 1987 H 194.999 4.03775 2.88581 0
M  V30 1988 H 190.255 5.44681 2.77728 0
M  V30 1989 H 194.429 6.42901 2.67678 0
M  V30 1990 H 192.056 7.13712 2.61762 0
M  V30 1991 N 193.631 -1.12557 1.10312 0
M  V30 1992 C 194.861 -1.87592 0.865617 0
M  V30 1993 C 195.269 -1.79851 -0.587389 0
M  V30 1994 O 194.612 -1.16949 -1.41664 0
M  V30 1995 C 194.674 -3.37665 1.23381 0
M  V30 1996 C 194.338 -3.69181 2.69359 0
M  V30 1997 C 195.335 -3.67652 3.67597 0
M  V30 1998 C 193.02 -3.98555 3.05711 0
M  V30 1999 C 195.014 -3.95053 5.00212 0
M  V30 2000 C 192.701 -4.25616 4.38514 0
M  V30 2001 C 193.699 -4.23851 5.35574 0
M  V30 2002 O 193.387 -4.50242 6.65986 0
M  V30 2003 H 193.119 -0.600442 0.310557 0
M  V30 2004 H 195.673 -1.4335 1.47105 0
M  V30 2005 H 193.903 -3.82454 0.571467 0
M  V30 2006 H 195.592 -3.94041 0.973994 0
M  V30 2007 H 196.358 -3.45024 3.40857 0
M  V30 2008 H 192.237 -3.99071 2.30789 0
M  V30 2009 H 195.781 -3.93591 5.75962 0
M  V30 2010 H 191.678 -4.47718 4.64994 0
M  V30 2011 H 192.446 -4.67867 6.71597 0
M  V30 2012 N 195.109 -0.891671 -1.2995 0
M  V30 2013 C 196.041 -0.320695 -2.26945 0
M  V30 2014 C 197.054 0.528497 -1.53983 0
M  V30 2015 O 198.243 0.346959 -1.75096 0
M  V30 2016 C 195.343 0.562066 -3.34207 0
M  V30 2017 C 194.516 -0.259576 -4.36629 0
M  V30 2018 C 193.575 0.554739 -5.23268 0
M  V30 2019 O 192.601 -0.0249311 -5.69195 0
M  V30 2020 N 193.803 1.8625 -5.4981 0
M  V30 2021 H 196.568 -1.15432 -2.76578 0
M  V30 2022 H 194.129 -0.755336 -1.432 0
M  V30 2023 H 196.121 1.11304 -3.89093 0
M  V30 2024 H 194.691 1.29637 -2.84452 0
M  V30 2025 H 193.911 -0.991986 -3.81514 0
M  V30 2026 H 195.199 -0.822564 -5.02107 0
M  V30 2027 H 194.597 2.35628 -5.14292 0
M  V30 2028 H 193.154 2.36078 -6.07545 0
M  V30 2029 N 196.587 1.43421 -0.653314 0
M  V30 2030 C 198.003 1.56341 -0.320886 0
M  V30 2031 C 198.203 1.63696 1.17499 0
M  V30 2032 O 197.259 1.59208 1.95982 0
M  V30 2033 C 198.572 2.82424 -1.03233 0
M  V30 2034 C 200.12 2.96168 -1.01259 0
M  V30 2035 C 200.595 4.25084 -1.70492 0
M  V30 2036 N 202.086 4.31948 -1.67257 0
M  V30 2037 C 202.821 5.30466 -2.17701 0
M  V30 2038 N 202.317 6.35261 -2.76434 0
M  V30 2039 N 204.11 5.2212 -2.082 0
M  V30 2040 H 196.261 1.3689 -1.62403 0
M  V30 2041 H 198.524 0.657455 -0.682977 0
M  V30 2042 H 198.23 2.83053 -2.08744 0
M  V30 2043 H 198.104 3.72653 -0.583948 0
M  V30 2044 H 200.491 2.9508 0.0341235 0
M  V30 2045 H 200.572 2.07229 -1.49966 0
M  V30 2046 H 200.216 4.26932 -2.7512 0
M  V30 2047 H 200.146 5.1292 -1.19251 0
M  V30 2048 H 202.637 3.56838 -1.24398 0
M  V30 2049 H 202.95 7.06754 -3.12601 0
M  V30 2050 H 201.295 6.35884 -2.80495 0
M  V30 2051 H 204.486 4.39166 -1.62021 0
M  V30 2052 H 204.659 5.98739 -2.47822 0
M  V30 2053 N 198.065 0.39524 1.52563 0
M  V30 2054 C 199.015 -0.4541 2.23432 0
M  V30 2055 C 199.999 -1.02482 1.24042 0
M  V30 2056 O 201.191 -0.949938 1.49349 0
M  V30 2057 C 198.32 -1.57769 3.049 0
M  V30 2058 C 197.406 -1.01842 4.1169 0
M  V30 2059 N 197.797 -0.184613 5.05463 0
M  V30 2060 C 196.095 -1.29033 4.26927 0
M  V30 2061 C 196.796 0.125013 5.81566 0
M  V30 2062 N 195.772 -0.480498 5.41472 0
M  V30 2063 H 199.574 0.189413 2.93289 0
M  V30 2064 H 197.088 0.204877 1.61102 0
M  V30 2065 H 199.085 -2.19862 3.54212 0
M  V30 2066 H 197.745 -2.22397 2.36579 0
M  V30 2067 H 198.756 0.178602 5.17592 0
M  V30 2068 H 195.433 -1.93721 3.69836 0
M  V30 2069 H 196.823 0.800962 6.67109 0
M  V30 2070 N 199.544 -1.57102 0.125237 0
M  V30 2071 C 200.821 -1.86953 -0.575142 0
M  V30 2072 C 201.201 -1.02749 -1.84407 0
M  V30 2073 O 200.549 -0.108144 -2.28244 0
M  V30 2074 C 200.759 -3.38198 -0.861583 0
M  V30 2075 C 202.107 -4.06937 -1.21192 0
M  V30 2076 O 203.131 -3.43252 -0.951645 0
M  V30 2077 O 201.99 -5.19364 -1.70068 0
M  V30 2078 H 199.084 -0.774147 -0.290906 0
M  V30 2079 H 201.63 -1.68942 0.160211 0
M  V30 2080 H 200.402 -3.91282 0.0373647 0
M  V30 2081 H 200.025 -3.61661 -1.65188 0
M  V30 2082 N 201.022 0.148545 -1.56898 0
M  V30 2083 C 202.268 0.862694 -1.83536 0
M  V30 2084 C 202.601 1.80889 -0.706604 0
M  V30 2085 O 201.876 1.92328 0.289885 0
M  V30 2086 C 202.159 1.63853 -3.20662 0
M  V30 2087 C 202.012 0.713925 -4.44098 0
M  V30 2088 C 203.331 2.60133 -3.54991 0
M  V30 2089 H 200.45 0.312179 -0.667618 0
M  V30 2090 H 203.092 0.127953 -1.89569 0
M  V30 2091 H 201.242 2.26489 -3.1565 0
M  V30 2092 H 202.914 0.098686 -4.61194 0
M  V30 2093 H 201.157 0.0234019 -4.33794 0
M  V30 2094 H 201.828 1.29278 -5.36648 0
M  V30 2095 H 204.304 2.07616 -3.60603 0
M  V30 2096 H 203.18 3.11468 -4.51972 0
M  V30 2097 H 203.441 3.41417 -2.80868 0
M  V30 2098 N 202.5 1.5196 0.417844 0
M  V30 2099 C 203.45 1.7106 1.5074 0
M  V30 2100 C 204.434 0.564487 1.50673 0
M  V30 2101 O 205.626 0.821206 1.56797 0
M  V30 2102 C 202.755 1.85677 2.88754 0
M  V30 2103 C 201.841 3.06133 2.93502 0
M  V30 2104 N 202.232 4.28987 2.67962 0
M  V30 2105 C 200.53 3.05787 3.24669 0
M  V30 2106 C 201.231 5.10395 2.79055 0
M  V30 2107 N 200.207 4.45455 3.11561 0
M  V30 2108 H 204.009 2.63696 1.29775 0
M  V30 2109 H 201.523 1.49873 0.625436 0
M  V30 2110 H 203.52 1.97475 3.67164 0
M  V30 2111 H 202.18 0.942348 3.10725 0
M  V30 2112 H 203.191 4.57607 2.4252 0
M  V30 2113 H 199.868 2.2405 3.52289 0
M  V30 2114 H 201.258 6.18247 2.63097 0
M  V30 2115 N 203.978 -0.674533 1.42435 0
M  V30 2116 C 204.911 -1.79924 1.40366 0
M  V30 2117 C 205.889 -1.60378 0.267899 0
M  V30 2118 O 207.073 -1.82847 0.458159 0
M  V30 2119 C 204.2 -3.16927 1.19478 0
M  V30 2120 C 203.246 -3.55221 2.36051 0
M  V30 2121 S 204.079 -3.5762 3.98583 0
M  V30 2122 C 205.235 -4.97315 3.80038 0
M  V30 2123 H 205.468 -1.81405 2.35541 0
M  V30 2124 H 203.001 -0.845221 1.29211 0
M  V30 2125 H 204.959 -3.96007 1.08114 0
M  V30 2126 H 203.62 -3.13031 0.258883 0
M  V30 2127 H 202.813 -4.54804 2.17185 0
M  V30 2128 H 202.415 -2.83502 2.43932 0
M  V30 2129 H 204.707 -5.85401 3.41045 0
M  V30 2130 H 205.65 -5.21228 4.79298 0
M  V30 2131 H 206.058 -4.69845 3.12899 0
M  V30 2132 N 205.456 -1.28612 -0.910864 0
M  V30 2133 C 206.705 -1.15311 -1.65488 0
M  V30 2134 C 207.018 0.296999 -1.93332 0
M  V30 2135 O 208.224 0.551168 -2.65847 0
M  V30 2136 C 206.68 -2.01599 -2.98137 0
M  V30 2137 C 206.288 -3.51367 -2.7793 0
M  V30 2138 C 208.032 -1.96993 -3.76024 0
M  V30 2139 C 205.939 -4.29797 -4.06237 0
M  V30 2140 H 204.869 -0.42796 -0.620779 0
M  V30 2141 H 207.52 -1.53166 -1.01057 0
M  V30 2142 H 205.902 -1.56603 -3.63719 0
M  V30 2143 H 207.076 -4.0434 -2.21011 0
M  V30 2144 H 205.391 -3.57529 -2.13452 0
M  V30 2145 H 207.988 -2.52856 -4.71135 0
M  V30 2146 H 208.331 -0.94733 -4.05378 0
M  V30 2147 H 208.864 -2.39973 -3.17266 0
M  V30 2148 H 205.603 -5.32648 -3.82055 0
M  V30 2149 H 205.123 -3.81596 -4.62757 0
M  V30 2150 H 206.802 -4.39869 -4.74473 0
M  V30 2151 N 206.934 1.1197 -1.10907 0
M  V30 2152 C 208.211 1.79959 -0.766432 0
M  V30 2153 C 208.591 1.97466 0.746363 0
M  V30 2154 O 207.939 1.55491 1.67436 0
M  V30 2155 C 208.149 3.14009 -1.52314 0
M  V30 2156 C 209.497 3.89134 -1.69883 0
M  V30 2157 O 210.521 3.2368 -1.48692 0
M  V30 2158 O 209.38 5.06572 -2.05054 0
M  V30 2159 H 206.474 0.779208 -0.277062 0
M  V30 2160 H 209.02 1.18762 -1.21217 0
M  V30 2161 H 207.792 2.96587 -2.55249 0
M  V30 2162 H 207.415 3.82915 -1.07059 0
M  V30 2163 N 208.412 0.89855 1.29475 0
M  V30 2164 C 209.659 0.523882 1.95606 0
M  V30 2165 C 209.987 -0.929608 1.70847 0
M  V30 2166 O 209.242 -1.67401 1.01367 0
M  V30 2167 C 209.541 0.761398 3.49195 0
M  V30 2168 C 209.207 2.19207 3.94029 0
M  V30 2169 C 207.869 2.58326 4.05982 0
M  V30 2170 C 210.221 3.12379 4.17216 0
M  V30 2171 C 207.549 3.898 4.38489 0
M  V30 2172 C 209.901 4.43401 4.51197 0
M  V30 2173 C 208.565 4.82394 4.61359 0
M  V30 2174 H 207.835 0.191702 0.715773 0
M  V30 2175 H 210.482 1.13699 1.54094 0
M  V30 2176 H 208.787 0.0653622 3.91745 0
M  V30 2177 H 210.484 0.450904 3.98457 0
M  V30 2178 H 207.074 1.87846 3.85242 0
M  V30 2179 H 211.258 2.83371 4.07449 0
M  V30 2180 H 206.514 4.19734 4.44559 0
M  V30 2181 H 210.688 5.15623 4.68087 0
M  V30 2182 H 208.315 5.84306 4.86303 0
M  V30 2183 N 209.89 -1.43072 0.660911 0
M  V30 2184 C 211.12 -2.05769 0.185153 0
M  V30 2185 C 211.528 -1.49668 -1.15742 0
M  V30 2186 O 210.871 -0.625649 -1.72717 0
M  V30 2187 C 210.933 -3.59489 0.0278237 0
M  V30 2188 C 210.597 -4.38212 1.2969 0
M  V30 2189 C 211.594 -4.69772 2.22734 0
M  V30 2190 C 209.279 -4.7809 1.54063 0
M  V30 2191 C 211.273 -5.40129 3.38437 0
M  V30 2192 C 208.96 -5.4819 2.70058 0
M  V30 2193 C 209.958 -5.79132 3.62071 0
M  V30 2194 O 209.646 -6.47798 4.76039 0
M  V30 2195 H 209.378 -0.669873 0.0908086 0
M  V30 2196 H 211.932 -1.84436 0.90402 0
M  V30 2197 H 210.162 -3.79426 -0.746489 0
M  V30 2198 H 211.851 -4.03862 -0.406275 0
M  V30 2199 H 212.617 -4.39476 2.05149 0
M  V30 2200 H 208.496 -4.53408 0.833215 0
M  V30 2201 H 212.04 -5.64198 4.10277 0
M  V30 2202 H 207.937 -5.77902 2.87574 0
M  V30 2203 H 208.705 -6.66283 4.75404 0
M  V30 2204 N 211.368 -0.403325 -1.52352 0
M  V30 2205 C 212.598 0.17376 -2.05868 0
M  V30 2206 C 213.006 1.39898 -1.27378 0
M  V30 2207 O 212.349 1.80939 -0.31729 0
M  V30 2208 C 212.411 0.594756 -3.54546 0
M  V30 2209 C 212.075 -0.518926 -4.54044 0
M  V30 2210 C 213.072 -1.3807 -5.01231 0
M  V30 2211 C 210.757 -0.689961 -4.97539 0
M  V30 2212 C 212.751 -2.39852 -5.90551 0
M  V30 2213 C 210.438 -1.71109 -5.86656 0
M  V30 2214 C 211.436 -2.56378 -6.33056 0
M  V30 2215 O 211.124 -3.56743 -7.20409 0
M  V30 2216 H 210.856 0.0264951 -0.675481 0
M  V30 2217 H 213.41 -0.571179 -1.97299 0
M  V30 2218 H 211.64 1.39189 -3.60782 0
M  V30 2219 H 213.329 1.0991 -3.90736 0
M  V30 2220 H 214.095 -1.25994 -4.68349 0
M  V30 2221 H 209.974 -0.035939 -4.60986 0
M  V30 2222 H 213.518 -3.06441 -6.26689 0
M  V30 2223 H 209.415 -1.83218 -6.18952 0
M  V30 2224 H 210.183 -3.52918 -7.38506 0
M  V30 2225 N 212.846 1.57033 -0.133567 0
M  V30 2226 C 214.092 1.96764 0.515326 0
M  V30 2227 C 214.447 1.01653 1.63353 0
M  V30 2228 O 213.74 0.0491374 1.91537 0
M  V30 2229 C 213.934 3.40674 1.08057 0
M  V30 2230 C 213.763 4.49696 0.0186522 0
M  V30 2231 C 212.533 5.03567 -0.418174 0
M  V30 2232 C 214.731 5.08536 -0.767809 0
M  V30 2233 N 212.713 5.9618 -1.46434 0
M  V30 2234 C 214.084 5.97231 -1.6648 0
M  V30 2235 C 216.139 4.9115 -0.817087 0
M  V30 2236 C 214.842 6.70401 -2.60681 0
M  V30 2237 C 216.868 5.65012 -1.74687 0
M  V30 2238 C 216.23 6.53403 -2.63141 0
M  V30 2239 H 212.329 0.765919 0.157771 0
M  V30 2240 H 214.913 1.93395 -0.22506 0
M  V30 2241 H 213.084 3.44662 1.79061 0
M  V30 2242 H 214.816 3.67495 1.69497 0
M  V30 2243 H 211.571 4.73594 -0.0229803 0
M  V30 2244 H 211.995 6.47191 -1.98678 0
M  V30 2245 H 216.637 4.22543 -0.147326 0
M  V30 2246 H 214.355 7.38245 -3.28664 0
M  V30 2247 H 217.941 5.53559 -1.79063 0
M  V30 2248 H 216.821 7.09556 -3.33917 0
M  V30 2249 N 214.325 -0.140222 1.56975 0
M  V30 2250 C 215.602 -0.880769 1.74648 0
M  V30 2251 C 215.982 -1.99036 0.703404 0
M  V30 2252 O 215.33 -2.26821 -0.27648 0
M  V30 2253 C 215.54 -1.417 3.18939 0
M  V30 2254 C 216.888 -1.87774 3.80823 0
M  V30 2255 O 217.912 -1.51427 3.2241 0
M  V30 2256 O 216.771 -2.54827 4.83452 0
M  V30 2257 H 213.865 -0.416713 0.714338 0
M  V30 2258 H 216.411 -0.125618 1.69234 0
M  V30 2259 H 215.183 -0.619902 3.86359 0
M  V30 2260 H 214.806 -2.23546 3.28805 0
M  V30 2261 N 215.803 -1.52179 -0.40978 0
M  V30 2262 C 217.052 -1.65434 -1.15388 0
M  V30 2263 C 217.365 -0.390056 -1.91671 0
M  V30 2264 O 218.571 -0.402399 -2.68501 0
M  V30 2265 C 217.027 -2.92279 -2.10003 0
M  V30 2266 C 216.635 -4.25813 -1.39239 0
M  V30 2267 C 218.379 -3.14897 -2.84675 0
M  V30 2268 C 216.286 -5.43782 -2.32498 0
M  V30 2269 H 215.216 -0.616267 -0.434432 0
M  V30 2270 H 217.867 -1.78666 -0.418401 0
M  V30 2271 H 216.249 -2.72744 -2.871 0
M  V30 2272 H 217.423 -4.55828 -0.675099 0
M  V30 2273 H 215.738 -4.09292 -0.766097 0
M  V30 2274 H 218.335 -4.0021 -3.54593 0
M  V30 2275 H 218.678 -2.29103 -3.47588 0
M  V30 2276 H 219.211 -3.34901 -2.14677 0
M  V30 2277 H 215.95 -6.3192 -1.74233 0
M  V30 2278 H 215.47 -5.18106 -3.02201 0
M  V30 2279 H 217.149 -5.76834 -2.93038 0
M  V30 2280 N 217.281 0.66697 -1.42791 0
M  V30 2281 C 218.506 1.46004 -1.47301 0
M  V30 2282 C 218.931 1.87894 -0.0880317 0
M  V30 2283 O 218.289 1.56502 0.915253 0
M  V30 2284 C 218.337 2.68031 -2.41229 0
M  V30 2285 O 217.441 3.6659 -1.88906 0
M  V30 2286 H 216.782 0.43832 -0.49877 0
M  V30 2287 H 219.312 0.817391 -1.87563 0
M  V30 2288 H 219.322 3.1601 -2.58073 0
M  V30 2289 H 217.997 2.36883 -3.41847 0
M  V30 2290 H 216.574 3.25661 -1.81656 0
M  V30 2291 N 218.759 1.29093 0.90403 0
M  V30 2292 C 220.007 1.16583 1.65085 0
M  V30 2293 C 220.328 -0.283933 1.92922 0
M  V30 2294 O 219.598 -1.19509 1.55224 0
M  V30 2295 H 218.178 0.428467 0.611903 0
M  V30 2296 H 220.84 1.61959 1.08422 0
M  V30 2297 H 219.936 1.71266 2.6091 0
M  V30 2298 N 220.237 -1.11381 1.11499 0
M  V30 2299 C 221.648 -1.6465 0.880191 0
M  V30 2300 C 221.999 -1.87199 -0.587434 0
M  V30 2301 O 221.124 -1.60667 -1.44966 0
M  V30 2302 C 221.719 -2.99105 1.59128 0
M  V30 2303 C 220.278 -3.49279 1.40289 0
M  V30 2304 C 219.425 -2.24077 1.63354 0
M  V30 2305 H 222.376 -0.950123 1.27116 0
M  V30 2306 H 222.397 -3.66107 1.03664 0
M  V30 2307 H 221.909 -2.82661 2.65941 0
M  V30 2308 H 220.01 -3.70887 0.356888 0
M  V30 2309 H 220.123 -4.2803 2.15238 0
M  V30 2310 H 218.487 -2.31733 1.05698 0
M  V30 2311 H 219.27 -2.10175 2.71443 0
M  V30 2312 N 221.715 -0.905404 -1.28997 0
M  V30 2313 C 222.963 -0.533192 -1.9494 0
M  V30 2314 C 223.284 0.924618 -1.71685 0
M  V30 2315 O 222.554 1.65268 -1.05183 0
M  V30 2316 H 221.134 -0.194194 -0.721317 0
M  V30 2317 H 223.796 -1.15294 -1.57141 0
M  V30 2318 H 222.892 -0.72059 -3.03667 0
M  V30 2319 N 223.193 1.4272 -0.668489 0
M  V30 2320 C 224.156 2.292 0.00448567 0
M  V30 2321 C 225.156 1.43001 0.735339 0
M  V30 2322 O 226.346 1.64461 0.57429 0
M  V30 2323 C 223.478 3.25375 1.01705 0
M  V30 2324 H 224.671 2.90199 -0.756608 0
M  V30 2325 H 222.224 1.50254 -0.430506 0
M  V30 2326 H 222.959 2.69301 1.80686 0
M  V30 2327 H 222.744 3.88944 0.496463 0
M  V30 2328 H 224.234 3.90245 1.48655 0
M  V30 2329 N 224.671 0.411399 1.52136 0
M  V30 2330 C 225.919 -0.163322 2.01439 0
M  V30 2331 C 226.24 -1.45453 1.29879 0
M  V30 2332 O 225.51 -1.91225 0.4254 0
M  V30 2333 H 224.09 -0.0633447 0.744309 0
M  V30 2334 H 226.752 0.548161 1.87033 0
M  V30 2335 H 225.848 -0.357817 3.10042 0
M  V30 2336 N 226.149 -1.5696 0.141893 0
M  V30 2337 C 227.079 -2.19516 -0.795936 0
M  V30 2338 C 228.06 -1.14187 -1.26077 0
M  V30 2339 O 229.245 -1.42511 -1.31925 0
M  V30 2340 C 226.375 -2.81272 -2.03723 0
M  V30 2341 C 225.329 -3.92384 -1.70936 0
M  V30 2342 C 224.655 -4.41052 -3.02287 0
M  V30 2343 C 225.955 -5.13403 -0.959954 0
M  V30 2344 H 227.649 -2.98138 -0.274596 0
M  V30 2345 H 225.195 -1.43406 -0.130636 0
M  V30 2346 H 227.148 -3.237 -2.69808 0
M  V30 2347 H 225.872 -1.99973 -2.58221 0
M  V30 2348 H 224.531 -3.50566 -1.07232 0
M  V30 2349 H 224.179 -3.56582 -3.54765 0
M  V30 2350 H 223.879 -5.15993 -2.81114 0
M  V30 2351 H 225.403 -4.86146 -3.69451 0
M  V30 2352 H 226.817 -5.52706 -1.52279 0
M  V30 2353 H 225.214 -5.94073 -0.848357 0
M  V30 2354 H 226.284 -4.84875 0.0492434 0
M  V30 2355 N 227.627 0.131896 -1.57047 0
M  V30 2356 C 228.537 1.1815 -2.02676 0
M  V30 2357 C 229.553 1.46113 -0.944824 0
M  V30 2358 O 230.729 1.57485 -1.25541 0
M  V30 2359 C 227.794 2.49139 -2.41103 0
M  V30 2360 C 226.855 2.28688 -3.63318 0
M  V30 2361 C 226.088 3.53431 -3.99903 0
M  V30 2362 O 226.311 4.60223 -3.36973 0
M  V30 2363 O 225.245 3.45198 -4.93074 0
M  V30 2364 H 229.071 0.824069 -2.92306 0
M  V30 2365 H 226.656 0.341745 -1.45439 0
M  V30 2366 H 228.538 3.26338 -2.66611 0
M  V30 2367 H 227.213 2.84382 -1.54624 0
M  V30 2368 H 226.12 1.4939 -3.42977 0
M  V30 2369 H 227.453 1.98355 -4.50462 0
M  V30 2370 N 229.106 1.52395 0.401703 0
M  V30 2371 C 230.054 1.7689 1.51039 0
M  V30 2372 C 231.048 0.636298 1.56996 0
M  V30 2373 O 232.254 0.818507 1.60314 0
M  V30 2374 H 228.629 0.559502 0.502456 0
M  V30 2375 H 230.6 2.69757 1.27568 0
M  V30 2376 C 229.349 1.94331 2.88324 0
M  V30 2377 H 228.672 2.80905 2.84486 0
M  V30 2378 H 230.112 2.15466 3.65172 0
M  V30 2379 C 228.571 0.712396 3.29282 0
M  V30 2380 O 229.101 -0.116218 4.01532 0
M  V30 2381 N 227.307 0.546154 2.85422 0
M  V30 2382 H 226.854 1.22156 2.26794 0
M  V30 2383 H 226.812 -0.276113 3.13185 0
M  V30 2384 N 230.584 -0.659388 1.43143 0
M  V30 2385 C 231.833 -1.41518 1.43721 0
M  V30 2386 C 232.146 -1.95499 0.0628176 0
M  V30 2387 O 233.352 -2.71446 -0.0539683 0
M  V30 2388 C 231.808 -2.5608 2.52885 0
M  V30 2389 C 231.416 -2.08733 3.96402 0
M  V30 2390 C 233.16 -3.3349 2.62649 0
M  V30 2391 C 231.067 -3.20469 4.97045 0
M  V30 2392 H 229.997 -0.531705 0.534608 0
M  V30 2393 H 232.648 -0.712343 1.69109 0
M  V30 2394 H 231.03 -3.28805 2.20688 0
M  V30 2395 H 232.204 -1.43059 4.3803 0
M  V30 2396 H 230.519 -1.44219 3.90627 0
M  V30 2397 H 233.116 -4.16734 3.35017 0
M  V30 2398 H 233.459 -3.8111 1.67513 0
M  V30 2399 H 233.992 -2.67842 2.94118 0
M  V30 2400 H 230.731 -2.77824 5.93712 0
M  V30 2401 H 230.251 -3.84874 4.60034 0
M  V30 2402 H 231.93 -3.85698 5.19467 0
M  V30 2403 N 232.062 -1.29571 -0.897171 0
M  V30 2404 C 233.339 -1.08365 -1.62839 0
M  V30 2405 C 233.719 0.371331 -2.07808 0
M  V30 2406 O 233.067 1.3606 -1.83576 0
M  V30 2407 C 233.277 -2.0735 -2.80726 0
M  V30 2408 C 234.625 -2.38406 -3.51351 0
M  V30 2409 O 235.649 -2.05564 -2.90898 0
M  V30 2410 O 234.508 -2.9453 -4.60341 0
M  V30 2411 H 231.602 -0.415345 -0.715134 0
M  V30 2412 H 234.148 -1.40952 -0.945018 0
M  V30 2413 H 232.92 -3.05339 -2.44711 0
M  V30 2414 H 232.543 -1.75507 -3.56767 0
M  V30 2415 N 233.54 1.10788 -1.12088 0
M  V30 2416 C 234.786 1.82942 -0.875226 0
M  V30 2417 C 235.119 1.84779 0.597538 0
M  V30 2418 O 234.394 1.30578 1.44152 0
M  V30 2419 C 234.677 3.29789 -1.44606 0
M  V30 2420 C 234.53 3.36307 -2.98693 0
M  V30 2421 C 235.849 4.26064 -1.10261 0
M  V30 2422 H 232.968 0.664195 -0.319397 0
M  V30 2423 H 235.61 1.29867 -1.38689 0
M  V30 2424 H 233.76 3.75118 -1.01089 0
M  V30 2425 H 235.432 2.99487 -3.50864 0
M  V30 2426 H 233.675 2.76318 -3.34411 0
M  V30 2427 H 234.346 4.39694 -3.33726 0
M  V30 2428 H 236.822 3.88951 -1.4784 0
M  V30 2429 H 235.698 5.27183 -1.52869 0
M  V30 2430 H 235.959 4.42098 -0.0142953 0
M  V30 2431 N 235.018 0.912232 1.28515 0
M  V30 2432 C 236.266 0.543523 1.94654 0
M  V30 2433 C 236.587 -0.9155 1.72173 0
M  V30 2434 O 235.857 -1.64708 1.06058 0
M  V30 2435 H 234.437 0.198017 0.720277 0
M  V30 2436 H 237.099 1.16126 1.56527 0
M  V30 2437 H 236.195 0.736684 3.03281 0
M  V30 2438 N 236.496 -1.42363 0.676048 0
M  V30 2439 C 237.743 -2.01522 0.19883 0
M  V30 2440 C 238.071 -1.53456 -1.19505 0
M  V30 2441 O 237.326 -0.727967 -1.81657 0
M  V30 2442 C 237.625 -3.56929 0.183431 0
M  V30 2443 C 237.291 -4.24431 1.52215 0
M  V30 2444 C 235.953 -4.42585 1.8887 0
M  V30 2445 C 238.305 -4.62459 2.40377 0
M  V30 2446 C 235.633 -4.96039 3.13309 0
M  V30 2447 C 237.985 -5.17294 3.64129 0
M  V30 2448 C 236.649 -5.33661 4.00951 0
M  V30 2449 H 235.919 -0.737419 0.0727571 0
M  V30 2450 H 238.566 -1.70531 0.871281 0
M  V30 2451 H 236.871 -3.87594 -0.572532 0
M  V30 2452 H 238.568 -4.00486 -0.203035 0
M  V30 2453 H 235.158 -4.10661 1.22701 0
M  V30 2454 H 239.342 -4.48105 2.13343 0
M  V30 2455 H 234.598 -5.06896 3.41857 0
M  V30 2456 H 238.772 -5.45704 4.32644 0
M  V30 2457 H 236.399 -5.74845 4.9745 0
M  V30 2458 N 237.974 -0.419461 -1.51915 0
M  V30 2459 C 239.222 0.152637 -2.01523 0
M  V30 2460 C 239.543 1.44762 -1.30649 0
M  V30 2461 O 238.813 1.90997 -0.435535 0
M  V30 2462 H 237.393 0.0593966 -0.744635 0
M  V30 2463 H 240.055 -0.558073 -1.86739 0
M  V30 2464 H 239.151 0.341369 -3.10227 0
M  V30 2465 N 239.452 1.56882 -0.150215 0
M  V30 2466 C 240.399 2.16922 0.788244 0
M  V30 2467 C 241.369 1.10303 1.24187 0
M  V30 2468 O 242.554 1.38359 1.31383 0
M  V30 2469 C 239.694 2.79754 2.02068 0
M  V30 2470 C 238.807 4.00775 1.61257 0
M  V30 2471 C 237.942 4.51595 2.79705 0
M  V30 2472 C 236.981 5.65074 2.35282 0
M  V30 2473 N 236.118 6.10499 3.4675 0
M  V30 2474 H 240.958 2.96779 0.269444 0
M  V30 2475 H 238.495 1.46599 0.12128 0
M  V30 2476 H 240.453 3.14329 2.74323 0
M  V30 2477 H 239.083 2.02536 2.51354 0
M  V30 2478 H 238.135 3.72158 0.787553 0
M  V30 2479 H 239.447 4.82978 1.24633 0
M  V30 2480 H 238.601 4.88242 3.60145 0
M  V30 2481 H 237.34 3.68406 3.19576 0
M  V30 2482 H 236.345 5.28 1.53283 0
M  V30 2483 H 237.57 6.50052 1.96493 0
M  V30 2484 H 235.516 5.30243 3.86236 0
M  V30 2485 H 235.433 6.87637 3.14152 0
M  V30 2486 H 236.701 6.51791 4.27537 0
M  V30 2487 N 240.93 -0.123565 1.57115 0
M  V30 2488 C 241.86 -1.15309 2.03042 0
M  V30 2489 C 242.841 -1.43454 0.914061 0
M  V30 2490 O 244.026 -1.53973 1.18347 0
M  V30 2491 C 241.156 -2.48043 2.43089 0
M  V30 2492 C 240.11 -2.3437 3.58127 0
M  V30 2493 C 239.436 -3.72026 3.84059 0
M  V30 2494 C 240.736 -1.80804 4.90007 0
M  V30 2495 H 242.43 -0.771102 2.893 0
M  V30 2496 H 239.976 -0.369479 1.39179 0
M  V30 2497 H 241.929 -3.20311 2.73823 0
M  V30 2498 H 240.653 -2.88122 1.53796 0
M  V30 2499 H 239.312 -1.64551 3.27595 0
M  V30 2500 H 238.96 -4.09582 2.91979 0
M  V30 2501 H 238.66 -3.63732 4.6149 0
M  V30 2502 H 240.184 -4.45806 4.1724 0
M  V30 2503 H 241.598 -2.42886 5.19307 0
M  V30 2504 H 239.995 -1.83343 5.71407 0
M  V30 2505 H 241.065 -0.76528 4.78823 0
M  V30 2506 N 242.408 -1.52605 -0.393616 0
M  V30 2507 C 243.633 -1.71592 -1.16495 0
M  V30 2508 C 244.058 -0.43133 -1.83088 0
M  V30 2509 O 243.416 0.612523 -1.7064 0
M  V30 2510 C 243.464 -2.86318 -2.19213 0
M  V30 2511 O 242.568 -2.52969 -3.257 0
M  V30 2512 H 241.909 -0.570734 -0.33935 0
M  V30 2513 H 244.439 -1.99377 -0.459324 0
M  V30 2514 H 244.449 -3.1168 -2.63286 0
M  V30 2515 H 243.124 -3.79511 -1.7013 0
M  V30 2516 H 241.701 -2.38332 -2.86797 0
M  V30 2517 N 243.887 0.651787 -1.4349 0
M  V30 2518 C 244.817 1.77621 -1.51569 0
M  V30 2519 C 245.798 1.66022 -0.370253 0
M  V30 2520 O 246.983 1.85095 -0.587658 0
M  V30 2521 C 244.113 3.16056 -1.43966 0
M  V30 2522 C 243.067 3.4242 -2.56774 0
M  V30 2523 C 242.393 4.8067 -2.34223 0
M  V30 2524 C 243.693 3.37023 -3.99015 0
M  V30 2525 H 245.387 1.71117 -2.45681 0
M  V30 2526 H 242.933 0.821825 -1.18246 0
M  V30 2527 H 244.886 3.94472 -1.48221 0
M  V30 2528 H 243.61 3.23293 -0.463586 0
M  V30 2529 H 242.269 2.66375 -2.51873 0
M  V30 2530 H 241.917 4.84585 -1.34856 0
M  V30 2531 H 241.617 4.9927 -3.09844 0
M  V30 2532 H 243.141 5.61342 -2.40265 0
M  V30 2533 H 244.555 4.05374 -4.05395 0
M  V30 2534 H 242.952 3.67159 -4.74673 0
M  V30 2535 H 244.022 2.3518 -4.2405 0
M  V30 2536 N 245.365 1.30045 0.890287 0
M  V30 2537 C 246.328 1.15963 1.977 0
M  V30 2538 C 247.328 0.0923777 1.60534 0
M  V30 2539 O 248.518 0.340071 1.70848 0
M  V30 2540 C 245.65 0.775451 3.31963 0
M  V30 2541 H 246.843 2.12502 2.11619 0
M  V30 2542 H 244.396 1.13366 1.07601 0
M  V30 2543 H 245.131 -0.189671 3.23745 0
M  V30 2544 H 244.916 1.54668 3.60306 0
M  V30 2545 H 246.406 0.700251 4.11687 0
M  V30 2546 N 246.843 -1.10192 1.12674 0
M  V30 2547 C 247.806 -2.14786 0.799979 0
M  V30 2548 C 248.806 -1.59711 -0.18685 0
M  V30 2549 O 249.996 -1.74156 0.0392558 0
M  V30 2550 C 247.128 -3.40374 0.189228 0
M  V30 2551 H 248.321 -2.45203 1.72671 0
M  V30 2552 H 245.874 -1.25597 0.930326 0
M  V30 2553 H 246.609 -3.15577 -0.747107 0
M  V30 2554 H 246.394 -3.81637 0.899766 0
M  V30 2555 H 247.884 -4.17594 -0.0228143 0
M  V30 2556 N 248.321 -0.919034 -1.28029 0
M  V30 2557 C 249.549 -0.570971 -1.98866 0
M  V30 2558 C 249.964 0.848996 -1.68634 0
M  V30 2559 O 249.321 1.56307 -0.942036 0
M  V30 2560 C 249.372 -0.776876 -3.53054 0
M  V30 2561 O 249.093 -2.14097 -3.82222 0
M  V30 2562 C 250.594 -0.436356 -4.41147 0
M  V30 2563 H 247.814 -0.217175 -0.634883 0
M  V30 2564 H 250.358 -1.23368 -1.63097 0
M  V30 2565 H 248.513 -0.161085 -3.87065 0
M  V30 2566 H 248.927 -2.18455 -4.76841 0
M  V30 2567 H 250.401 -0.63117 -5.4838 0
M  V30 2568 H 250.878 0.627686 -4.34692 0
M  V30 2569 H 251.484 -1.02991 -4.12641 0
M  V30 2570 N 249.799 1.42003 -0.683588 0
M  V30 2571 C 251.215 1.55625 -0.353976 0
M  V30 2572 C 251.415 1.66151 1.14 0
M  V30 2573 O 250.471 1.63329 1.92561 0
M  V30 2574 C 251.784 2.80171 -1.092 0
M  V30 2575 C 253.332 2.93954 -1.07518 0
M  V30 2576 C 253.807 4.21372 -1.79471 0
M  V30 2577 N 255.298 4.28303 -1.76381 0
M  V30 2578 C 256.033 5.25729 -2.28904 0
M  V30 2579 N 255.529 6.29254 -2.89846 0
M  V30 2580 N 257.322 5.17586 -2.19228 0
M  V30 2581 H 249.473 1.33415 -1.6527 0
M  V30 2582 H 251.736 0.64282 -0.696769 0
M  V30 2583 H 251.442 2.78561 -2.14701 0
M  V30 2584 H 251.316 3.7133 -0.662862 0
M  V30 2585 H 253.703 2.95086 -0.028475 0
M  V30 2586 H 253.784 2.04002 -1.54328 0
M  V30 2587 H 253.428 4.21001 -2.84114 0
M  V30 2588 H 253.358 5.10275 -1.30104 0
M  V30 2589 H 255.849 3.54119 -1.31939 0
M  V30 2590 H 256.162 6.99964 -3.27522 0
M  V30 2591 H 254.507 6.29791 -2.93919 0
M  V30 2592 H 257.698 4.35631 -1.71299 0
M  V30 2593 H 257.871 5.93348 -2.60466 0
M  V30 2594 N 251.277 0.427512 1.51691 0
M  V30 2595 C 252.502 -0.143601 2.06902 0
M  V30 2596 C 252.927 -1.36536 1.29382 0
M  V30 2597 O 252.285 -1.78289 0.329043 0
M  V30 2598 C 252.333 -0.454207 3.57728 0
M  V30 2599 O 251.437 -1.54228 3.82475 0
M  V30 2600 H 250.778 -0.00617128 0.663971 0
M  V30 2601 H 253.308 0.606014 1.95419 0
M  V30 2602 H 253.318 -0.707525 4.01818 0
M  V30 2603 H 251.993 0.438812 4.13579 0
M  V30 2604 H 250.57 -1.2797 3.50254 0
M  V30 2605 N 252.755 -1.56801 0.158532 0
M  V30 2606 C 253.98 -2.01295 -0.499516 0
M  V30 2607 C 254.405 -1.03799 -1.56867 0
M  V30 2608 O 253.763 -0.0155162 -1.81293 0
M  V30 2609 C 253.811 -3.44469 -1.06647 0
M  V30 2610 O 252.915 -3.50012 -2.18095 0
M  V30 2611 H 252.256 -0.652884 -0.12099 0
M  V30 2612 H 254.786 -2.02958 0.258661 0
M  V30 2613 H 254.796 -3.8351 -1.39227 0
M  V30 2614 H 253.471 -4.14932 -0.283581 0
M  V30 2615 H 252.048 -3.22822 -1.86656 0
M  V30 2616 N 254.233 0.115231 -1.57178 0
M  V30 2617 C 255.143 1.15994 -2.03918 0
M  V30 2618 C 256.159 1.45103 -0.960268 0
M  V30 2619 O 257.335 1.56144 -1.27204 0
M  V30 2620 C 254.4 2.46568 -2.43732 0
M  V30 2621 C 253.461 2.24822 -3.65723 0
M  V30 2622 C 252.694 3.4917 -4.03629 0
M  V30 2623 O 252.917 4.56623 -3.41835 0
M  V30 2624 O 251.851 3.39949 -4.96708 0
M  V30 2625 H 255.677 0.793019 -2.93164 0
M  V30 2626 H 253.262 0.3263 -1.45793 0
M  V30 2627 H 255.144 3.23492 -2.70057 0
M  V30 2628 H 253.819 2.82726 -1.57631 0
M  V30 2629 H 252.726 1.45744 -3.44542 0
M  V30 2630 H 254.059 1.93566 -4.52541 0
M  V30 2631 N 255.711 1.52812 0.385517 0
M  V30 2632 C 256.674 1.77188 1.45386 0
M  V30 2633 C 257.674 0.641953 1.4743 0
M  V30 2634 O 258.864 0.910033 1.4854 0
M  V30 2635 C 255.996 1.87582 2.8465 0
M  V30 2636 H 257.189 2.72583 1.25054 0
M  V30 2637 H 254.742 1.43586 0.617467 0
M  V30 2638 H 255.477 0.941849 3.10322 0
M  V30 2639 H 255.262 2.69748 2.84567 0
M  V30 2640 H 256.752 2.08102 3.62054 0
M  V30 2641 N 257.189 -0.644168 1.43834 0
M  V30 2642 C 258.437 -1.40117 1.45642 0
M  V30 2643 C 258.758 -1.94814 0.0852413 0
M  V30 2644 O 258.028 -1.74988 -0.880688 0
M  V30 2645 H 256.608 -0.52005 0.536243 0
M  V30 2646 H 259.27 -0.7591 1.7951 0
M  V30 2647 H 258.366 -2.23902 2.17427 0
M  V30 2648 N 258.668 -1.30515 -0.883378 0
M  V30 2649 C 259.916 -1.19194 -1.63209 0
M  V30 2650 C 260.237 0.253205 -1.93349 0
M  V30 2651 O 259.507 1.17025 -1.57105 0
M  V30 2652 H 258.087 -0.438148 -0.605009 0
M  V30 2653 H 260.749 -1.63663 -1.05832 0
M  V30 2654 H 259.845 -1.75396 -2.58153 0
M  V30 2655 N 260.146 1.09593 -1.13257 0
M  V30 2656 C 261.371 1.8604 -0.916732 0
M  V30 2657 C 261.796 1.80504 0.529146 0
M  V30 2658 O 261.154 1.18127 1.37534 0
M  V30 2659 C 261.202 3.32017 -1.40703 0
M  V30 2660 O 260.306 4.08141 -0.591153 0
M  V30 2661 H 259.647 0.576943 -0.328683 0
M  V30 2662 H 262.177 1.38405 -1.50682 0
M  V30 2663 H 262.187 3.82865 -1.4099 0
M  V30 2664 H 260.862 3.35361 -2.45979 0
M  V30 2665 H 259.439 3.67084 -0.656005 0
M  V30 2666 N 261.624 0.925811 1.2754 0
M  V30 2667 C 262.849 0.580924 1.99098 0
M  V30 2668 C 263.274 -0.833555 1.68622 0
M  V30 2669 O 262.632 -1.55903 0.925422 0
M  V30 2670 C 262.68 0.811186 3.51358 0
M  V30 2671 O 261.784 -0.124129 4.12213 0
M  V30 2672 H 261.125 0.223873 0.625122 0
M  V30 2673 H 263.655 1.24455 1.62395 0
M  V30 2674 H 263.665 0.72601 4.01489 0
M  V30 2675 H 262.34 1.84227 3.72872 0
M  V30 2676 H 260.917 0.0108006 3.72898 0
M  V30 2677 N 263.102 -1.41638 0.69111 0
M  V30 2678 C 264.327 -2.06148 0.227583 0
M  V30 2679 C 264.752 -1.51652 -1.11281 0
M  V30 2680 O 264.11 -0.64164 -1.69566 0
M  V30 2681 C 264.158 -3.60095 0.190858 0
M  V30 2682 O 263.262 -4.03845 -0.835664 0
M  V30 2683 H 262.603 -0.654434 0.112306 0
M  V30 2684 H 265.133 -1.81484 0.944714 0
M  V30 2685 H 265.143 -4.07995 0.020207 0
M  V30 2686 H 263.818 -3.99129 1.16915 0
M  V30 2687 H 262.395 -3.67458 -0.63473 0
M  V30 2688 N 264.58 -0.43555 -1.51462 0
M  V30 2689 C 265.827 0.131514 -2.02072 0
M  V30 2690 C 266.155 1.42868 -1.31981 0
M  V30 2691 O 265.41 1.91076 -0.422883 0
M  V30 2692 C 265.709 0.39942 -3.55161 0
M  V30 2693 C 265.375 -0.81172 -4.43533 0
M  V30 2694 C 264.037 -1.14387 -4.67407 0
M  V30 2695 C 266.389 -1.61976 -4.95392 0
M  V30 2696 C 263.717 -2.28477 -5.40384 0
M  V30 2697 C 266.069 -2.75164 -5.6962 0
M  V30 2698 C 264.733 -3.08835 -5.91758 0
M  V30 2699 H 264.003 0.0481244 -0.739436 0
M  V30 2700 H 266.65 -0.58238 -1.8243 0
M  V30 2701 H 264.955 1.19519 -3.73125 0
M  V30 2702 H 266.652 0.85157 -3.91854 0
M  V30 2703 H 263.242 -0.542898 -4.25148 0
M  V30 2704 H 267.426 -1.37637 -4.76833 0
M  V30 2705 H 262.682 -2.5488 -5.55739 0
M  V30 2706 H 266.856 -3.38147 -6.08793 0
M  V30 2707 H 264.483 -3.97353 -6.48086 0
M  V30 2708 N 266.058 1.56714 -0.166846 0
M  V30 2709 C 267.021 2.16539 0.751232 0
M  V30 2710 C 268.021 1.11228 1.16125 0
M  V30 2711 O 269.211 1.36765 1.07894 0
M  V30 2712 C 266.343 2.74462 2.02196 0
M  V30 2713 H 267.536 2.99013 0.230499 0
M  V30 2714 H 265.089 1.56081 0.0826982 0
M  V30 2715 H 265.824 1.95709 2.58589 0
M  V30 2716 H 265.609 3.51527 1.73698 0
M  V30 2717 H 267.099 3.20489 2.67725 0
M  V30 2718 N 267.536 -0.106894 1.57237 0
M  V30 2719 C 268.761 -0.830287 1.90055 0
M  V30 2720 C 269.186 -1.72064 0.75998 0
M  V30 2721 O 268.544 -1.78982 -0.288991 0
M  V30 2722 C 268.592 -1.6295 3.21683 0
M  V30 2723 O 267.696 -2.73748 3.08441 0
M  V30 2724 H 267.037 -0.228855 0.623315 0
M  V30 2725 H 269.567 -0.085658 2.04421 0
M  V30 2726 H 269.577 -2.01621 3.54701 0
M  V30 2727 H 268.252 -0.975989 4.04286 0
M  V30 2728 H 266.829 -2.38192 2.86913 0
M  V30 2729 N 269.014 -1.53014 -0.377408 0
M  V30 2730 C 269.962 -1.7927 -1.48206 0
M  V30 2731 C 270.956 -0.661195 -1.55963 0
M  V30 2732 O 272.162 -0.843908 -1.58991 0
M  V30 2733 H 268.537 -0.567425 -0.493491 0
M  V30 2734 H 270.508 -2.71753 -1.2326 0
M  V30 2735 C 269.257 -1.98894 -2.85196 0
M  V30 2736 H 268.58 -2.85395 -2.79981 0
M  V30 2737 H 270.02 -2.21249 -3.61698 0
M  V30 2738 C 268.479 -0.764691 -3.28107 0
M  V30 2739 O 269.009 0.0523226 -4.01666 0
M  V30 2740 N 267.215 -0.591493 -2.84517 0
M  V30 2741 H 266.762 -1.25749 -2.24822 0
M  V30 2742 H 266.72 0.226253 -3.13585 0
M  V30 2743 N 270.492 0.636531 -1.44174 0
M  V30 2744 C 271.44 1.76995 -1.50915 0
M  V30 2745 C 272.434 1.65053 -0.381295 0
M  V30 2746 O 273.64 1.71197 -0.55601 0
M  V30 2747 H 270.015 0.584247 -0.473455 0
M  V30 2748 H 271.986 1.68432 -2.4632 0
M  V30 2749 C 270.735 3.15314 -1.46534 0
M  V30 2750 H 270.058 3.25149 -2.32633 0
M  V30 2751 H 271.498 3.9453 -1.55312 0
M  V30 2752 C 269.957 3.3639 -0.185305 0
M  V30 2753 O 270.487 3.94699 0.746688 0
M  V30 2754 N 268.693 2.9046 -0.0901606 0
M  V30 2755 H 268.24 2.43193 -0.849416 0
M  V30 2756 H 268.198 3.04937 0.765553 0
M  V30 2757 N 271.97 1.30982 0.876444 0
M  V30 2758 C 273.219 1.19658 1.62373 0
M  V30 2759 C 273.532 -0.245636 1.94052 0
M  V30 2760 O 274.738 -0.48049 2.67214 0
M  V30 2761 C 273.194 2.09433 2.92687 0
M  V30 2762 C 272.802 3.58613 2.68516 0
M  V30 2763 C 274.546 2.06893 3.70669 0
M  V30 2764 C 272.453 4.40416 3.94699 0
M  V30 2765 H 271.383 0.444268 0.609214 0
M  V30 2766 H 274.034 1.55791 0.969605 0
M  V30 2767 H 272.416 1.66191 3.59439 0
M  V30 2768 H 273.59 4.10058 2.10212 0
M  V30 2769 H 271.905 3.63063 2.03898 0
M  V30 2770 H 274.502 2.65258 4.64265 0
M  V30 2771 H 274.845 1.05448 4.02724 0
M  V30 2772 H 275.378 2.48301 3.10792 0
M  V30 2773 H 272.117 5.42591 3.67798 0
M  V30 2774 H 271.637 3.93731 4.52477 0
M  V30 2775 H 273.316 4.52294 4.62644 0
M  V30 2776 N 273.449 -1.08991 1.13837 0
M  V30 2777 C 274.679 -1.84743 0.924859 0
M  V30 2778 C 275.087 -1.81629 -0.529874 0
M  V30 2779 O 274.43 -1.21397 -1.37872 0
M  V30 2780 C 274.492 -3.33568 1.34061 0
M  V30 2781 C 274.156 -3.60425 2.80968 0
M  V30 2782 C 275.153 -3.55771 3.79108 0
M  V30 2783 C 272.838 -3.88627 3.18236 0
M  V30 2784 C 274.832 -3.78939 5.12527 0
M  V30 2785 C 272.519 -4.11449 4.51833 0
M  V30 2786 C 273.517 -4.06598 5.48787 0
M  V30 2787 O 273.205 -4.28826 6.79973 0
M  V30 2788 H 272.937 -0.590258 0.329502 0
M  V30 2789 H 275.491 -1.38598 1.51591 0
M  V30 2790 H 273.721 -3.80442 0.692853 0
M  V30 2791 H 275.41 -3.90743 1.09886 0
M  V30 2792 H 276.176 -3.34005 3.51661 0
M  V30 2793 H 272.055 -3.91526 2.43369 0
M  V30 2794 H 275.599 -3.75068 5.88192 0
M  V30 2795 H 271.496 -4.32698 4.79002 0
M  V30 2796 H 272.264 -4.46264 6.86142 0
M  V30 2797 N 274.927 -0.932562 -1.27047 0
M  V30 2798 C 276.204 -0.49377 -1.89265 0
M  V30 2799 C 276.584 1.02833 -1.8436 0
M  V30 2800 O 275.932 1.88461 -1.29209 0
M  V30 2801 C 276.142 -1.04536 -3.32976 0
M  V30 2802 C 277.49 -1.10879 -4.09867 0
M  V30 2803 O 278.514 -0.995327 -3.42011 0
M  V30 2804 O 277.373 -1.28417 -5.31198 0
M  V30 2805 H 274.467 -0.159596 -0.811454 0
M  V30 2806 H 277.013 -1.02457 -1.3528 0
M  V30 2807 H 275.785 -2.08913 -3.30864 0
M  V30 2808 H 275.408 -0.496494 -3.94488 0
M  V30 2809 N 276.405 1.4127 -0.698611 0
M  V30 2810 C 277.635 2.05205 -0.239644 0
M  V30 2811 C 278.043 1.52684 1.11733 0
M  V30 2812 O 277.386 0.671222 1.70998 0
M  V30 2813 C 277.448 3.59289 -0.123126 0
M  V30 2814 C 277.112 4.34619 -1.41263 0
M  V30 2815 C 278.109 4.63701 -2.35111 0
M  V30 2816 C 275.794 4.73837 -1.66684 0
M  V30 2817 C 277.788 5.30966 -3.52639 0
M  V30 2818 C 275.475 5.40837 -2.84498 0
M  V30 2819 C 276.473 5.69329 -3.77298 0
M  V30 2820 O 276.161 6.34949 -4.93047 0
M  V30 2821 H 275.893 0.66723 -0.108537 0
M  V30 2822 H 278.447 1.81974 -0.952602 0
M  V30 2823 H 276.677 3.81272 0.645628 0
M  V30 2824 H 278.366 4.04797 0.299056 0
M  V30 2825 H 279.132 4.33882 -2.16729 0
M  V30 2826 H 275.011 4.51039 -0.953135 0
M  V30 2827 H 278.555 5.53121 -4.25091 0
M  V30 2828 H 274.452 5.70075 -3.02795 0
M  V30 2829 H 275.22 6.53445 -4.92902 0
M  V30 2830 N 277.883 0.443576 1.51229 0
M  V30 2831 C 279.111 -0.11929 2.06556 0
M  V30 2832 C 279.526 -1.35921 1.31038 0
M  V30 2833 O 278.883 -1.78675 0.371704 0
M  V30 2834 C 278.934 -0.435228 3.5887 0
M  V30 2835 O 278.655 0.755486 4.31537 0
M  V30 2836 C 280.156 -1.04808 4.30732 0
M  V30 2837 H 277.376 -0.0051584 0.67098 0
M  V30 2838 H 279.92 0.624453 1.94733 0
M  V30 2839 H 278.075 -1.12887 3.70588 0
M  V30 2840 H 278.489 0.483491 5.22267 0
M  V30 2841 H 279.963 -1.2191 5.3837 0
M  V30 2842 H 280.44 -2.03081 3.89429 0
M  V30 2843 H 281.046 -0.393637 4.23474 0
M  V30 2844 N 279.361 -1.56624 0.175154 0
M  V30 2845 C 280.309 -2.19468 -0.770495 0
M  V30 2846 C 281.303 -1.15985 -1.23466 0
M  V30 2847 O 282.509 -1.34176 -1.19987 0
M  V30 2848 H 278.884 -0.703095 -0.266761 0
M  V30 2849 H 280.855 -2.97613 -0.216542 0
M  V30 2850 C 279.604 -2.85264 -1.98796 0
M  V30 2851 H 278.927 -3.64623 -1.63983 0
M  V30 2852 H 280.367 -3.327 -2.62843 0
M  V30 2853 C 278.826 -1.85239 -2.81404 0
M  V30 2854 O 279.356 -1.34024 -3.78682 0
M  V30 2855 N 277.562 -1.53911 -2.46495 0
M  V30 2856 H 277.109 -1.95751 -1.67449 0
M  V30 2857 H 277.067 -0.872382 -3.02054 0
M  V30 2858 N 280.839 0.0985539 -1.57292 0
M  V30 2859 C 281.749 1.13824 -2.05137 0
M  V30 2860 C 282.765 1.44076 -0.975604 0
M  V30 2861 O 283.941 1.54786 -1.28853 0
M  V30 2862 C 281.006 2.43969 -2.46333 0
M  V30 2863 C 280.067 2.2093 -3.68087 0
M  V30 2864 C 279.3 3.44869 -4.0731 0
M  V30 2865 O 279.523 4.52972 -3.46659 0
M  V30 2866 O 278.457 3.34661 -5.00285 0
M  V30 2867 H 282.283 0.761881 -2.93988 0
M  V30 2868 H 279.868 0.310818 -1.46131 0
M  V30 2869 H 281.75 3.20609 -2.73473 0
M  V30 2870 H 280.425 2.81038 -1.60621 0
M  V30 2871 H 279.332 1.42081 -3.46069 0
M  V30 2872 H 280.665 1.88755 -4.54568 0
M  V30 2873 N 282.317 1.53212 0.369288 0
M  V30 2874 C 283.545 1.73119 1.13303 0
M  V30 2875 C 283.96 0.458455 1.83149 0
M  V30 2876 O 283.317 -0.568403 1.73423 0
M  V30 2877 C 283.368 2.89413 2.16616 0
M  V30 2878 O 283.089 4.11761 1.49614 0
M  V30 2879 C 284.59 3.21161 3.05566 0
M  V30 2880 H 281.81 0.579107 0.338934 0
M  V30 2881 H 284.354 1.99942 0.429338 0
M  V30 2882 H 282.509 2.64994 2.82589 0
M  V30 2883 H 282.923 4.76858 2.18419 0
M  V30 2884 H 284.397 4.05949 3.74045 0
M  V30 2885 H 284.874 2.36369 3.70171 0
M  V30 2886 H 285.48 3.47492 2.45213 0
M  V30 2887 N 283.795 -0.628877 1.44509 0
M  V30 2888 C 284.758 -1.72263 1.51188 0
M  V30 2889 C 285.758 -1.55907 0.39367 0
M  V30 2890 O 286.948 -1.61361 0.656377 0
M  V30 2891 C 284.08 -3.11365 1.38798 0
M  V30 2892 H 285.273 -1.67714 2.4862 0
M  V30 2893 H 282.826 -0.842737 1.31634 0
M  V30 2894 H 283.561 -3.21507 0.424693 0
M  V30 2895 H 283.346 -3.24644 2.19884 0
M  V30 2896 H 284.836 -3.91075 1.46458 0
M  V30 2897 N 285.273 -1.31445 -0.869486 0
M  V30 2898 C 286.221 -1.19067 -1.99814 0
M  V30 2899 C 287.215 -0.0988569 -1.69111 0
M  V30 2900 O 288.421 -0.260781 -1.78101 0
M  V30 2901 H 284.796 -0.368677 -0.655425 0
M  V30 2902 H 286.767 -2.14555 -2.07385 0
M  V30 2903 C 285.516 -0.915323 -3.35436 0
M  V30 2904 H 284.839 -1.74759 -3.59582 0
M  V30 2905 H 286.279 -0.868895 -4.15001 0
M  V30 2906 C 284.738 0.381928 -3.34728 0
M  V30 2907 O 285.268 1.39857 -3.76567 0
M  V30 2908 N 283.474 0.398633 -2.87853 0
M  V30 2909 H 283.021 -0.429186 -2.54 0
M  V30 2910 H 282.979 1.26651 -2.87762 0
M  V30 2911 N 286.751 1.08385 -1.14413 0
M  V30 2912 C 288.028 1.77429 -0.823297 0
M  V30 2913 C 288.408 1.9974 0.683163 0
M  V30 2914 O 287.756 1.60739 1.62405 0
M  V30 2915 C 287.966 3.09004 -1.62227 0
M  V30 2916 C 289.314 3.83532 -1.82177 0
M  V30 2917 O 290.338 3.18786 -1.58915 0
M  V30 2918 O 289.197 4.99792 -2.21067 0
M  V30 2919 H 286.291 0.769999 -0.301712 0
M  V30 2920 H 288.837 1.14846 -1.24934 0
M  V30 2921 H 287.609 2.88316 -2.64555 0
M  V30 2922 H 287.232 3.79316 -1.19187 0
M  V30 2923 N 288.23 0.939286 1.26551 0
M  V30 2924 C 289.476 0.586715 1.94128 0
M  V30 2925 C 289.809 -0.8717 1.73537 0
M  V30 2926 O 289.084 -1.62339 1.07127 0
M  V30 2927 C 289.367 0.927497 3.4795 0
M  V30 2928 C 289.22 2.44052 3.77834 0
M  V30 2929 C 290.539 0.441569 4.37879 0
M  V30 2930 H 287.658 0.21463 0.705055 0
M  V30 2931 H 290.3 1.17316 1.49455 0
M  V30 2932 H 288.45 0.428431 3.8613 0
M  V30 2933 H 290.122 3.01216 3.4938 0
M  V30 2934 H 288.365 2.8848 3.23978 0
M  V30 2935 H 289.036 2.62947 4.85348 0
M  V30 2936 H 291.512 0.869448 4.06915 0
M  V30 2937 H 290.388 0.708856 5.44304 0
M  V30 2938 H 290.649 -0.658467 4.37169 0
M  V30 2939 N 289.708 -1.40897 0.706093 0
M  V30 2940 C 290.955 -2.01054 0.241531 0
M  V30 2941 C 291.283 -1.55956 -1.16223 0
M  V30 2942 O 290.538 -0.766336 -1.80072 0
M  V30 2943 C 290.837 -3.5646 0.259099 0
M  V30 2944 C 290.503 -4.21106 1.61184 0
M  V30 2945 C 289.165 -4.38479 1.98216 0
M  V30 2946 C 291.517 -4.57256 2.50132 0
M  V30 2947 C 288.845 -4.89282 3.2376 0
M  V30 2948 C 291.197 -5.09454 3.7502 0
M  V30 2949 C 289.861 -5.25037 4.12181 0
M  V30 2950 H 289.131 -0.73571 0.0883825 0
M  V30 2951 H 291.778 -1.68645 0.907257 0
M  V30 2952 H 290.083 -3.88721 -0.490189 0
M  V30 2953 H 291.78 -4.00826 -0.11804 0
M  V30 2954 H 288.37 -4.07966 1.31384 0
M  V30 2955 H 292.554 -4.43479 2.228 0
M  V30 2956 H 287.81 -4.99531 3.52532 0
M  V30 2957 H 291.984 -5.36404 4.44121 0
M  V30 2958 H 289.611 -5.64164 5.09532 0
M  V30 2959 N 291.186 -0.45159 -1.50991 0
M  V30 2960 C 292.463 0.170707 -1.94854 0
M  V30 2961 C 292.843 1.58788 -1.39103 0
M  V30 2962 O 292.191 2.20913 -0.583921 0
M  V30 2963 C 292.401 0.133929 -3.48743 0
M  V30 2964 C 293.749 0.33248 -4.23296 0
M  V30 2965 O 294.773 0.211403 -3.55572 0
M  V30 2966 O 293.632 0.57486 -5.43468 0
M  V30 2967 H 290.726 0.122264 -0.817912 0
M  V30 2968 H 293.272 -0.510594 -1.61836 0
M  V30 2969 H 292.044 -0.856283 -3.81816 0
M  V30 2970 H 291.667 0.857529 -3.88242 0
M  V30 2971 N 292.664 1.56529 -0.183458 0
M  V30 2972 C 293.91 1.97537 0.459036 0
M  V30 2973 C 294.243 1.06989 1.62071 0
M  V30 2974 O 293.518 0.11948 1.94133 0
M  V30 2975 C 293.801 3.47874 0.930368 0
M  V30 2976 C 293.654 4.492 -0.232317 0
M  V30 2977 C 294.973 4.01612 1.79989 0
M  V30 2978 H 292.092 0.718204 0.165383 0
M  V30 2979 H 294.734 1.88042 -0.272038 0
M  V30 2980 H 292.884 3.56095 1.55333 0
M  V30 2981 H 294.556 4.53027 -0.86972 0
M  V30 2982 H 292.799 4.24657 -0.885928 0
M  V30 2983 H 293.47 5.51823 0.139796 0
M  V30 2984 H 295.946 3.96097 1.27461 0
M  V30 2985 H 294.822 5.07195 2.09867 0
M  V30 2986 H 295.083 3.46163 2.74998 0
M  V30 2987 N 294.142 -0.090211 1.57342 0
M  V30 2988 C 295.558 -0.444547 1.53284 0
M  V30 2989 C 295.758 -1.80238 0.900914 0
M  V30 2990 O 294.814 -2.4759 0.495513 0
M  V30 2991 C 296.127 -0.402543 2.97993 0
M  V30 2992 C 297.675 -0.48405 3.09234 0
M  V30 2993 C 298.15 -0.472144 4.5556 0
M  V30 2994 N 299.641 -0.532757 4.60126 0
M  V30 2995 C 300.376 -0.545462 5.708 0
M  V30 2996 N 299.872 -0.514082 6.9089 0
M  V30 2997 N 301.665 -0.59064 5.58988 0
M  V30 2998 H 293.816 0.799121 1.96794 0
M  V30 2999 H 296.079 0.297965 0.899956 0
M  V30 3000 H 295.785 0.528106 3.47712 0
M  V30 3001 H 295.659 -1.21969 3.56936 0
M  V30 3002 H 298.046 -1.40512 2.595 0
M  V30 3003 H 298.127 0.361328 2.53235 0
M  V30 3004 H 297.771 0.445 5.05947 0
M  V30 3005 H 297.701 -1.3348 5.09402 0
M  V30 3006 H 300.192 -0.562006 3.73698 0
M  V30 3007 H 300.505 -0.527195 7.71 0
M  V30 3008 H 298.85 -0.481054 6.93333 0
M  V30 3009 H 302.041 -0.61272 4.64073 0
M  V30 3010 H 302.214 -0.597073 6.45243 0
M  V30 3011 N 295.62 -1.53406 -0.361157 0
M  V30 3012 C 296.55 -1.83136 -1.44857 0
M  V30 3013 C 297.531 -0.685174 -1.5569 0
M  V30 3014 O 298.716 -0.93544 -1.70186 0
M  V30 3015 C 295.846 -2.02522 -2.82138 0
M  V30 3016 C 294.8 -3.18302 -2.86126 0
M  V30 3017 C 294.126 -3.22989 -4.26125 0
M  V30 3018 C 295.426 -4.56796 -2.53248 0
M  V30 3019 H 297.12 -2.74201 -1.20226 0
M  V30 3020 H 294.666 -1.31938 -0.576922 0
M  V30 3021 H 296.619 -2.21904 -3.58241 0
M  V30 3022 H 295.343 -1.08172 -3.08166 0
M  V30 3023 H 294.002 -2.98747 -2.12475 0
M  V30 3024 H 293.65 -2.26267 -4.49235 0
M  V30 3025 H 293.35 -4.00781 -4.29708 0
M  V30 3026 H 294.874 -3.44559 -5.04094 0
M  V30 3027 H 296.288 -4.7631 -3.19064 0
M  V30 3028 H 294.685 -5.36862 -2.68141 0
M  V30 3029 H 295.755 -4.61606 -1.48484 0
M  V30 3030 N 297.098 0.621204 -1.44841 0
M  V30 3031 C 298.061 1.71459 -1.521 0
M  V30 3032 C 299.061 1.55696 -0.401933 0
M  V30 3033 O 300.251 1.61011 -0.664925 0
M  V30 3034 C 297.383 3.10624 -1.40447 0
M  V30 3035 H 298.576 1.66394 -2.49506 0
M  V30 3036 H 296.129 0.835745 -1.3208 0
M  V30 3037 H 296.864 3.21277 -0.441737 0
M  V30 3038 H 296.649 3.23473 -2.21602 0
M  V30 3039 H 298.139 3.90293 -1.4853 0
M  V30 3040 N 298.576 1.31904 0.862503 0
M  V30 3041 C 299.508 1.16005 1.97675 0
M  V30 3042 C 300.521 0.0971234 1.6251 0
M  V30 3043 O 301.71 0.345337 1.75128 0
M  V30 3044 C 298.81 0.751791 3.30456 0
M  V30 3045 C 297.983 1.90133 3.93914 0
M  V30 3046 C 297.042 1.4779 5.05019 0
M  V30 3047 O 296.068 2.18872 5.25437 0
M  V30 3048 N 297.27 0.369491 5.79323 0
M  V30 3049 H 300.035 2.11982 2.11857 0
M  V30 3050 H 297.596 1.24337 1.03691 0
M  V30 3051 H 299.588 0.451084 4.02178 0
M  V30 3052 H 298.158 -0.116593 3.12382 0
M  V30 3053 H 297.378 2.36896 3.15078 0
M  V30 3054 H 298.666 2.67111 4.33047 0
M  V30 3055 H 298.064 -0.222299 5.65263 0
M  V30 3056 H 296.621 0.128354 6.51674 0
M  V30 3057 N 300.054 -1.07777 1.14986 0
M  V30 3058 C 300.987 -2.14228 0.786243 0
M  V30 3059 C 301.965 -1.60888 -0.235347 0
M  V30 3060 O 303.149 -1.88099 -0.122909 0
M  V30 3061 C 300.276 -3.38281 0.168433 0
M  V30 3062 C 299.322 -4.10387 1.16123 0
M  V30 3063 S 300.155 -4.62371 2.70135 0
M  V30 3064 C 301.311 -5.89704 2.09762 0
M  V30 3065 H 301.544 -2.44741 1.68787 0
M  V30 3066 H 299.077 -1.19984 0.971756 0
M  V30 3067 H 301.035 -4.10098 -0.181588 0
M  V30 3068 H 299.696 -3.05953 -0.710725 0
M  V30 3069 H 298.889 -4.99431 0.677086 0
M  V30 3070 H 298.491 -3.44513 1.45556 0
M  V30 3071 H 300.783 -6.61648 1.45701 0
M  V30 3072 H 301.726 -6.42824 2.96955 0
M  V30 3073 H 302.134 -5.4302 1.54239 0
M  V30 3074 N 301.532 -0.945985 -1.26051 0
M  V30 3075 C 302.442 -0.465633 -2.29933 0
M  V30 3076 C 303.458 0.462761 -1.67733 0
M  V30 3077 O 304.634 0.341118 -1.9849 0
M  V30 3078 C 301.699 0.256994 -3.45746 0
M  V30 3079 C 300.76 -0.708549 -4.23412 0
M  V30 3080 C 299.993 -0.0203135 -5.33696 0
M  V30 3081 O 300.216 1.19571 -5.57726 0
M  V30 3082 O 299.15 -0.701459 -5.97799 0
M  V30 3083 H 302.976 -1.32866 -2.73094 0
M  V30 3084 H 300.561 -0.712071 -1.31339 0
M  V30 3085 H 302.443 0.663852 -4.16138 0
M  V30 3086 H 301.118 1.09533 -3.04605 0
M  V30 3087 H 300.025 -1.16545 -3.55483 0
M  V30 3088 H 301.358 -1.51465 -4.68315 0
M  V30 3089 N 303.011 1.40521 -0.713556 0
M  V30 3090 C 304.26 2.00155 -0.249192 0
M  V30 3091 C 304.573 1.57224 1.16362 0
M  V30 3092 O 305.779 2.09542 1.72639 0
M  V30 3093 C 304.235 3.5773 -0.3946 0
M  V30 3094 C 303.843 4.09635 -1.81392 0
M  V30 3095 C 305.587 4.24499 0.00907364 0
M  V30 3096 C 303.494 5.59707 -1.91003 0
M  V30 3097 H 302.424 0.74868 -0.0894114 0
M  V30 3098 H 305.075 1.60784 -0.884352 0
M  V30 3099 H 303.457 3.94792 0.30911 0
M  V30 3100 H 304.631 3.83955 -2.54785 0
M  V30 3101 H 302.946 3.55456 -2.16888 0
M  V30 3102 H 305.543 5.34683 -0.0420404 0
M  V30 3103 H 305.886 4.02824 1.05065 0
M  V30 3104 H 306.419 3.92536 -0.645007 0
M  V30 3105 H 303.158 5.86234 -2.93275 0
M  V30 3106 H 302.678 5.87258 -1.22019 0
M  V30 3107 H 304.357 6.24776 -1.6812 0
M  V30 3108 N 304.489 0.459591 1.5075 0
M  V30 3109 C 305.437 -0.354678 2.2988 0
M  V30 3110 C 306.431 -1.00086 1.36672 0
M  V30 3111 O 307.637 -0.933277 1.53915 0
M  V30 3112 H 304.012 -0.13321 0.740107 0
M  V30 3113 H 305.983 0.333269 2.96533 0
M  V30 3114 C 304.732 -1.43073 3.169 0
M  V30 3115 H 304.055 -0.942882 3.88523 0
M  V30 3116 H 305.495 -1.97328 3.75284 0
M  V30 3117 C 303.954 -2.42633 2.33732 0
M  V30 3118 O 304.484 -3.47658 2.01238 0
M  V30 3119 N 302.69 -2.14066 1.9653 0
M  V30 3120 H 302.237 -1.28685 2.23155 0
M  V30 3121 H 302.195 -2.80917 1.41185 0
M  V30 3122 N 305.967 -1.56429 0.191757 0
M  V30 3123 C 307.378 -1.83912 -0.321428 0
M  V30 3124 C 307.729 -1.11231 -1.61623 0
M  V30 3125 O 306.854 -0.37202 -2.13178 0
M  V30 3126 C 307.449 -3.33624 -0.589961 0
M  V30 3127 C 306.008 -3.6153 -1.04753 0
M  V30 3128 C 305.155 -2.7714 -0.0943327 0
M  V30 3129 H 308.106 -1.53161 0.415612 0
M  V30 3130 H 308.127 -3.52213 -1.43966 0
M  V30 3131 H 307.639 -3.86495 0.352588 0
M  V30 3132 H 305.74 -3.14089 -2.00447 0
M  V30 3133 H 305.853 -4.69737 -0.942549 0
M  V30 3134 H 304.217 -2.47638 -0.595589 0
M  V30 3135 H 305 -3.32799 0.842601 0
M  V30 3136 N 307.445 0.0818655 -1.57387 0
M  V30 3137 C 308.693 0.781368 -1.86384 0
M  V30 3138 C 309.014 1.78618 -0.782342 0
M  V30 3139 O 308.284 1.94976 0.190061 0
M  V30 3140 H 306.864 0.291562 -0.687751 0
M  V30 3141 H 309.526 0.060348 -1.94807 0
M  V30 3142 H 308.622 1.3038 -2.83562 0
M  V30 3143 N 308.923 1.53595 0.353017 0
M  V30 3144 C 310.171 1.70049 1.09215 0
M  V30 3145 C 310.492 0.461406 1.89463 0
M  V30 3146 O 309.762 -0.524633 1.88744 0
M  V30 3147 H 308.342 0.626912 0.40619 0
M  V30 3148 H 311.004 1.90822 0.396585 0
M  V30 3149 H 310.1 2.56718 1.77488 0
M  V30 3150 N 310.401 -0.613514 1.45168 0
M  V30 3151 C 311.629 -1.39946 1.5239 0
M  V30 3152 C 312.044 -1.88167 0.154531 0
M  V30 3153 O 311.401 -1.61872 -0.842843 0
M  V30 3154 C 311.452 -2.60795 2.50337 0
M  V30 3155 O 311.173 -2.1458 3.81952 0
M  V30 3156 C 312.674 -3.53723 2.67198 0
M  V30 3157 H 309.894 -0.428593 0.516284 0
M  V30 3158 H 312.438 -0.748753 1.903 0
M  V30 3159 H 310.593 -3.21919 2.15515 0
M  V30 3160 H 311.007 -2.93055 4.34993 0
M  V30 3161 H 312.481 -4.35079 3.39721 0
M  V30 3162 H 312.958 -4.0368 1.73029 0
M  V30 3163 H 313.564 -2.98456 3.02992 0
M  V30 3164 N 311.879 -1.3236 -0.855495 0
M  V30 3165 C 312.809 -1.23833 -1.97958 0
M  V30 3166 C 313.79 -0.122361 -1.69659 0
M  V30 3167 O 314.975 -0.30939 -1.9172 0
M  V30 3168 C 312.105 -0.959772 -3.33775 0
M  V30 3169 C 311.059 -2.03689 -3.76424 0
M  V30 3170 C 310.385 -1.61075 -5.09862 0
M  V30 3171 C 311.685 -3.4518 -3.9198 0
M  V30 3172 H 313.379 -2.1788 -2.0535 0
M  V30 3173 H 310.925 -1.04891 -0.986605 0
M  V30 3174 H 312.878 -0.886678 -4.11966 0
M  V30 3175 H 311.602 0.0163404 -3.26596 0
M  V30 3176 H 310.261 -2.10012 -3.00484 0
M  V30 3177 H 309.909 -0.622107 -4.99138 0
M  V30 3178 H 309.609 -2.33143 -5.39368 0
M  V30 3179 H 311.133 -1.55201 -5.90546 0
M  V30 3180 H 312.547 -3.4145 -4.60526 0
M  V30 3181 H 310.944 -4.1559 -4.32903 0
M  V30 3182 H 312.014 -3.84903 -2.94919 0
M  V30 3183 N 313.357 1.07166 -1.15556 0
M  V30 3184 C 314.267 2.17947 -0.868116 0
M  V30 3185 C 315.283 1.73297 0.156297 0
M  V30 3186 O 316.459 2.01392 -0.0182327 0
M  V30 3187 C 313.524 3.44789 -0.36355 0
M  V30 3188 C 312.585 4.03996 -1.45209 0
M  V30 3189 C 311.818 5.24783 -0.971508 0
M  V30 3190 O 312.041 5.70109 0.182194 0
M  V30 3191 O 310.975 5.75715 -1.75603 0
M  V30 3192 H 314.801 2.4503 -1.79427 0
M  V30 3193 H 312.386 1.16539 -0.934824 0
M  V30 3194 H 314.268 4.21307 -0.0887113 0
M  V30 3195 H 312.943 3.19253 0.534708 0
M  V30 3196 H 311.85 3.29009 -1.78056 0
M  V30 3197 H 313.183 4.33808 -2.32533 0
M  V30 3198 N 314.835 0.952656 1.25548 0
M  V30 3199 C 315.765 0.489287 2.28316 0
M  V30 3200 C 316.746 -0.463359 1.63667 0
M  V30 3201 O 317.931 -0.36274 1.90782 0
M  V30 3202 C 315.061 -0.235603 3.465 0
M  V30 3203 C 314.015 0.631593 4.23314 0
M  V30 3204 C 313.341 -0.223923 5.34231 0
M  V30 3205 C 314.641 1.90871 4.86174 0
M  V30 3206 H 316.335 1.34822 2.67326 0
M  V30 3207 H 313.881 0.649728 1.28509 0
M  V30 3208 H 315.834 -0.570882 4.17515 0
M  V30 3209 H 314.558 -1.12877 3.06474 0
M  V30 3210 H 313.217 0.949929 3.54079 0
M  V30 3211 H 312.865 -1.11678 4.90446 0
M  V30 3212 H 312.565 0.35299 5.86539 0
M  V30 3213 H 314.089 -0.554214 6.0808 0
M  V30 3214 H 315.503 1.63997 5.49343 0
M  V30 3215 H 313.9 2.43112 5.4865 0
M  V30 3216 H 314.97 2.61304 4.08471 0
M  V30 3217 N 316.313 -1.40141 0.720998 0
M  V30 3218 C 317.561 -2.0039 0.262323 0
M  V30 3219 C 317.882 -1.57469 -1.15015 0
M  V30 3220 O 317.152 -0.816582 -1.78069 0
M  V30 3221 H 315.732 -0.741063 0.093996 0
M  V30 3222 H 318.394 -1.71398 0.927835 0
M  V30 3223 H 317.49 -3.10658 0.299671 0
M  V30 3224 N 317.792 -0.46758 -1.50504 0
M  V30 3225 C 319.038 0.0887532 -2.02606 0
M  V30 3226 C 319.371 1.39686 -1.34913 0
M  V30 3227 O 318.646 1.88644 -0.473694 0
M  V30 3228 C 318.929 0.276206 -3.59039 0
M  V30 3229 C 318.782 -1.05267 -4.37309 0
M  V30 3230 C 320.101 1.03235 -4.27821 0
M  V30 3231 H 317.22 0.0307814 -0.736357 0
M  V30 3232 H 319.862 -0.612485 -1.79857 0
M  V30 3233 H 318.012 0.8735 -3.78553 0
M  V30 3234 H 319.684 -1.68628 -4.29374 0
M  V30 3235 H 317.927 -1.65015 -4.01189 0
M  V30 3236 H 318.598 -0.875197 -5.45018 0
M  V30 3237 H 321.074 0.526111 -4.12761 0
M  V30 3238 H 319.95 1.1323 -5.37094 0
M  V30 3239 H 320.211 2.06806 -3.90748 0
M  V30 3240 N 319.27 1.56325 -0.20005 0
M  V30 3241 C 320.547 1.89484 0.48529 0
M  V30 3242 C 320.927 1.1143 1.79294 0
M  V30 3243 O 320.275 0.216919 2.27468 0
M  V30 3244 C 320.485 3.41923 0.699243 0
M  V30 3245 C 321.833 4.12256 1.01638 0
M  V30 3246 O 322.857 3.47402 0.786792 0
M  V30 3247 O 321.716 5.26887 1.45095 0
M  V30 3248 H 318.81 0.787144 0.253639 0
M  V30 3249 H 321.356 1.67985 -0.240633 0
M  V30 3250 H 320.128 3.90658 -0.224008 0
M  V30 3251 H 319.751 3.69131 1.47744 0
M  V30 3252 N 320.748 -0.0735177 1.57428 0
M  V30 3253 C 321.978 -0.78483 1.91112 0
M  V30 3254 C 322.386 -1.71729 0.7941 0
M  V30 3255 O 321.729 -1.82105 -0.241542 0
M  V30 3256 C 321.791 -1.63346 3.20247 0
M  V30 3257 C 321.455 -0.870557 4.48632 0
M  V30 3258 C 322.452 -0.19058 5.19551 0
M  V30 3259 C 320.137 -0.838242 4.95256 0
M  V30 3260 C 322.131 0.511503 6.35344 0
M  V30 3261 C 319.818 -0.132386 6.10957 0
M  V30 3262 C 320.816 0.541288 6.80852 0
M  V30 3263 O 320.504 1.23578 7.94345 0
M  V30 3264 H 320.236 -0.228408 0.636244 0
M  V30 3265 H 322.79 -0.0486039 2.05342 0
M  V30 3266 H 321.02 -2.41245 3.02222 0
M  V30 3267 H 322.709 -2.22329 3.39595 0
M  V30 3268 H 323.475 -0.206864 4.84559 0
M  V30 3269 H 319.354 -1.35206 4.40727 0
M  V30 3270 H 322.898 1.03789 6.89836 0
M  V30 3271 H 318.795 -0.114023 6.45399 0
M  V30 3272 H 319.563 1.14487 8.10454 0
M  V30 3273 N 322.226 -1.5378 -0.344866 0
M  V30 3274 C 323.474 -1.70625 -1.08311 0
M  V30 3275 C 323.795 -0.471447 -1.89215 0
M  V30 3276 O 323.065 0.514616 -1.8902 0
M  V30 3277 H 321.645 -0.629058 -0.402859 0
M  V30 3278 H 324.307 -1.9103 -0.386459 0
M  V30 3279 H 323.403 -2.57656 -1.76124 0
M  V30 3280 N 323.704 0.605807 -1.45491 0
M  V30 3281 C 325.12 0.926751 -1.29936 0
M  V30 3282 C 325.32 1.99896 -0.253706 0
M  V30 3283 O 324.376 2.50038 0.351737 0
M  V30 3284 C 325.689 1.36599 -2.67883 0
M  V30 3285 C 327.237 1.4801 -2.75793 0
M  V30 3286 C 327.712 1.95309 -4.14268 0
M  V30 3287 N 329.203 2.0254 -4.16571 0
M  V30 3288 C 329.938 2.40363 -5.20589 0
M  V30 3289 N 329.434 2.77143 -6.34952 0
M  V30 3290 N 331.227 2.40718 -5.07948 0
M  V30 3291 H 323.378 -0.102862 -2.12151 0
M  V30 3292 H 325.641 0.016639 -0.947854 0
M  V30 3293 H 325.347 0.652306 -3.45598 0
M  V30 3294 H 325.221 2.33215 -2.96463 0
M  V30 3295 H 327.608 2.1847 -1.98381 0
M  V30 3296 H 327.689 0.497041 -2.50925 0
M  V30 3297 H 327.333 1.25436 -4.92167 0
M  V30 3298 H 327.263 2.94532 -4.3653 0
M  V30 3299 H 329.754 1.76699 -3.34045 0
M  V30 3300 H 330.067 3.0489 -7.10114 0
M  V30 3301 H 328.412 2.74834 -6.3835 0
M  V30 3302 H 331.603 2.11392 -4.1765 0
M  V30 3303 H 331.776 2.69869 -5.89131 0
M  V30 3304 N 325.182 1.32811 0.848464 0
M  V30 3305 C 326.145 1.22194 1.9391 0
M  V30 3306 C 327.145 0.143404 1.60159 0
M  V30 3307 O 328.335 0.394253 1.6968 0
M  V30 3308 C 325.467 0.88067 3.29328 0
M  V30 3309 H 326.66 2.19127 2.04752 0
M  V30 3310 H 324.213 1.16731 1.0394 0
M  V30 3311 H 324.948 -0.0865776 3.24184 0
M  V30 3312 H 324.733 1.66052 3.55203 0
M  V30 3313 H 326.223 0.830871 4.09251 0
M  V30 3314 N 326.66 -1.06551 1.16123 0
M  V30 3315 C 327.608 -2.16063 0.861371 0
M  V30 3316 C 328.602 -1.6856 -0.168517 0
M  V30 3317 O 329.808 -1.79986 -0.0227579 0
M  V30 3318 H 326.183 -0.705278 0.260934 0
M  V30 3319 H 328.154 -2.38567 1.79244 0
M  V30 3320 C 326.903 -3.45661 0.376018 0
M  V30 3321 H 326.226 -3.82604 1.15992 0
M  V30 3322 H 327.666 -4.23504 0.204951 0
M  V30 3323 C 326.125 -3.24546 -0.903954 0
M  V30 3324 O 326.655 -3.49865 -1.97377 0
M  V30 3325 N 324.861 -2.77992 -0.846679 0
M  V30 3326 H 324.408 -2.57589 0.0241017 0
M  V30 3327 H 324.366 -2.64244 -1.70359 0
M  V30 3328 N 328.138 -0.959301 -1.25041 0
M  V30 3329 C 329.068 -0.501388 -2.28053 0
M  V30 3330 C 330.049 0.454673 -1.63911 0
M  V30 3331 O 331.234 0.352618 -1.90972 0
M  V30 3332 C 328.364 0.217224 -3.4662 0
M  V30 3333 C 327.318 -0.654034 -4.22973 0
M  V30 3334 C 326.644 0.195589 -5.34342 0
M  V30 3335 C 327.944 -1.93447 -4.85155 0
M  V30 3336 H 329.638 -1.36238 -2.66608 0
M  V30 3337 H 327.184 -0.656534 -1.28163 0
M  V30 3338 H 329.137 0.548732 -4.17812 0
M  V30 3339 H 327.861 1.1125 -3.07068 0
M  V30 3340 H 326.52 -0.968693 -3.5357 0
M  V30 3341 H 326.168 1.09076 -4.91031 0
M  V30 3342 H 325.868 -0.384091 -5.86343 0
M  V30 3343 H 327.392 0.521958 -6.08365 0
M  V30 3344 H 328.806 -1.66908 -5.48466 0
M  V30 3345 H 327.203 -2.46018 -5.47353 0
M  V30 3346 H 328.273 -2.63466 -4.07079 0
M  V30 3347 N 329.616 1.39756 -0.72842 0
M  V30 3348 C 331.032 1.5442 -0.403308 0
M  V30 3349 C 331.232 1.69694 1.08656 0
M  V30 3350 O 330.288 1.69373 1.87267 0
M  V30 3351 C 331.601 2.76555 -1.18058 0
M  V30 3352 C 333.149 2.90384 -1.16815 0
M  V30 3353 C 333.624 4.15449 -1.92785 0
M  V30 3354 N 335.115 4.22475 -1.89918 0
M  V30 3355 C 335.85 5.1818 -2.45514 0
M  V30 3356 N 335.346 6.19714 -3.09719 0
M  V30 3357 N 337.139 5.1035 -2.35584 0
M  V30 3358 H 329.29 1.28089 -1.69431 0
M  V30 3359 H 331.553 0.620327 -0.716867 0
M  V30 3360 H 331.259 2.7159 -2.23455 0
M  V30 3361 H 331.133 3.69033 -0.780662 0
M  V30 3362 H 333.52 2.94846 -0.12234 0
M  V30 3363 H 333.601 1.98988 -1.6074 0
M  V30 3364 H 333.245 4.11749 -2.97364 0
M  V30 3365 H 333.175 5.05877 -1.46272 0
M  V30 3366 H 335.666 3.49743 -1.43138 0
M  V30 3367 H 335.979 6.8919 -3.49625 0
M  V30 3368 H 334.324 6.20121 -3.13807 0
M  V30 3369 H 337.515 4.2996 -1.85072 0
M  V30 3370 H 337.688 5.84761 -2.79211 0
M  V30 3371 N 331.094 0.475555 1.50254 0
M  V30 3372 C 332.371 -0.139685 1.95101 0
M  V30 3373 C 332.751 -1.56555 1.41611 0
M  V30 3374 O 332.099 -2.19956 0.618993 0
M  V30 3375 C 332.309 -0.0784298 3.48912 0
M  V30 3376 C 333.657 -0.265095 4.23772 0
M  V30 3377 O 334.681 -0.154808 3.55863 0
M  V30 3378 O 333.54 -0.488327 5.44314 0
M  V30 3379 H 330.634 -0.109236 0.819754 0
M  V30 3380 H 333.18 0.536276 1.61004 0
M  V30 3381 H 331.952 0.916918 3.80405 0
M  V30 3382 H 331.575 -0.795655 3.89558 0
M  V30 3383 N 332.573 -1.56217 0.208337 0
M  V30 3384 C 333.521 -2.21053 -0.723769 0
M  V30 3385 C 334.515 -1.18578 -1.20978 0
M  V30 3386 O 335.721 -1.36691 -1.17114 0
M  V30 3387 H 332.096 -0.708595 -0.251788 0
M  V30 3388 H 334.067 -2.98006 -0.153365 0
M  V30 3389 C 332.816 -2.89417 -1.927 0
M  V30 3390 H 332.139 -3.68019 -1.56212 0
M  V30 3391 H 333.579 -3.38201 -2.55727 0
M  V30 3392 C 332.038 -1.91166 -2.77411 0
M  V30 3393 O 332.568 -1.42026 -3.75754 0
M  V30 3394 N 330.774 -1.59105 -2.43175 0
M  V30 3395 H 330.321 -1.99259 -1.63259 0
M  V30 3396 H 330.279 -0.936255 -3.00136 0
M  V30 3397 N 334.051 0.0651679 -1.57465 0
M  V30 3398 C 335.281 0.774683 -1.91526 0
M  V30 3399 C 335.689 1.71305 -0.803196 0
M  V30 3400 O 335.032 1.82231 0.231881 0
M  V30 3401 C 335.094 1.61645 -3.21109 0
M  V30 3402 C 334.758 0.846753 -4.49087 0
M  V30 3403 C 335.755 0.163024 -5.19644 0
M  V30 3404 C 333.44 0.811966 -4.95694 0
M  V30 3405 C 335.434 -0.54519 -6.35064 0
M  V30 3406 C 333.121 0.0999836 -6.11018 0
M  V30 3407 C 334.119 -0.577388 -6.80555 0
M  V30 3408 O 333.807 -1.27789 -7.93678 0
M  V30 3409 H 333.539 0.225031 -0.637446 0
M  V30 3410 H 336.093 0.0377134 -2.05365 0
M  V30 3411 H 334.323 2.39638 -3.03497 0
M  V30 3412 H 336.012 2.20525 -3.40769 0
M  V30 3413 H 336.778 0.181163 -4.84662 0
M  V30 3414 H 332.657 1.32867 -4.41438 0
M  V30 3415 H 336.201 -1.07446 -6.89276 0
M  V30 3416 H 332.098 0.0797945 -6.45451 0
M  V30 3417 H 332.866 -1.18784 -8.09835 0
M  V30 3418 N 335.529 1.53961 0.336706 0
M  V30 3419 C 336.945 1.44378 0.680241 0
M  V30 3420 C 337.145 0.606034 1.9217 0
M  V30 3421 O 336.201 0.099688 2.52303 0
M  V30 3422 C 337.514 2.87945 0.8665 0
M  V30 3423 C 339.062 2.97763 0.964682 0
M  V30 3424 C 339.537 4.42453 1.18321 0
M  V30 3425 N 341.028 4.46008 1.25025 0
M  V30 3426 C 341.763 5.55102 1.43697 0
M  V30 3427 N 341.259 6.7419 1.59498 0
M  V30 3428 N 343.052 5.42727 1.463 0
M  V30 3429 H 335.203 2.06918 -0.479455 0
M  V30 3430 H 337.466 0.935634 -0.152619 0
M  V30 3431 H 337.172 3.51691 0.0256937 0
M  V30 3432 H 337.046 3.33293 1.76623 0
M  V30 3433 H 339.433 2.34153 1.796 0
M  V30 3434 H 339.514 2.55766 0.041708 0
M  V30 3435 H 339.158 5.06645 0.356788 0
M  V30 3436 H 339.088 4.82048 2.11985 0
M  V30 3437 H 341.579 3.60196 1.14312 0
M  V30 3438 H 341.892 7.53095 1.734 0
M  V30 3439 H 340.237 6.77123 1.56621 0
M  V30 3440 H 343.428 4.48647 1.33543 0
M  V30 3441 H 343.601 6.27806 1.6051 0
M  V30 3442 N 337.007 -0.598083 1.45811 0
M  V30 3443 C 337.937 -1.71873 1.58057 0
M  V30 3444 C 338.918 -1.64533 0.431615 0
M  V30 3445 O 340.103 -1.82787 0.65595 0
M  V30 3446 C 337.233 -3.10495 1.55597 0
M  V30 3447 C 336.187 -3.32654 2.69305 0
M  V30 3448 C 335.513 -4.71646 2.51902 0
M  V30 3449 C 336.813 -3.21981 4.11248 0
M  V30 3450 H 338.507 -1.61881 2.51863 0
M  V30 3451 H 336.053 -0.777372 1.21214 0
M  V30 3452 H 338.006 -3.88699 1.6276 0
M  V30 3453 H 336.73 -3.2135 0.583255 0
M  V30 3454 H 335.389 -2.56843 2.61586 0
M  V30 3455 H 335.037 -4.79246 1.52748 0
M  V30 3456 H 334.737 -4.87426 3.2816 0
M  V30 3457 H 336.261 -5.52038 2.60933 0
M  V30 3458 H 337.675 -3.90049 4.20161 0
M  V30 3459 H 336.072 -3.49289 4.87972 0
M  V30 3460 H 337.142 -2.1928 4.32486 0
M  V30 3461 N 338.485 -1.33259 -0.841409 0
M  V30 3462 C 339.731 -1.24757 -1.59886 0
M  V30 3463 C 340.064 0.186913 -1.93298 0
M  V30 3464 O 339.339 1.12757 -1.5848 0
M  V30 3465 C 339.622 -2.12036 -2.91055 0
M  V30 3466 C 339.475 -3.63929 -2.6434 0
M  V30 3467 C 340.794 -1.9916 -3.92458 0
M  V30 3468 H 337.913 -0.454542 -0.580138 0
M  V30 3469 H 340.555 -1.63335 -0.970647 0
M  V30 3470 H 338.705 -1.79265 -3.44669 0
M  V30 3471 H 340.377 -4.06978 -2.17178 0
M  V30 3472 H 338.62 -3.85935 -1.98082 0
M  V30 3473 H 339.291 -4.20341 -3.57796 0
M  V30 3474 H 341.767 -2.27895 -3.48143 0
M  V30 3475 H 340.643 -2.62484 -4.82072 0
M  V30 3476 H 340.904 -0.963082 -4.31482 0
M  V30 3477 N 339.963 1.05934 -1.16686 0
M  V30 3478 C 341.24 1.75643 -0.860747 0
M  V30 3479 C 341.62 2.01144 0.640641 0
M  V30 3480 O 340.968 1.64147 1.58959 0
M  V30 3481 C 341.178 3.05493 -1.68745 0
M  V30 3482 C 342.526 3.79581 -1.90271 0
M  V30 3483 O 343.55 3.15344 -1.65641 0
M  V30 3484 O 342.409 4.9499 -2.31618 0
M  V30 3485 H 339.503 0.763426 -0.317977 0
M  V30 3486 H 342.049 1.1217 -1.27342 0
M  V30 3487 H 340.821 2.8264 -2.70611 0
M  V30 3488 H 340.444 3.76702 -1.27206 0
M  V30 3489 N 341.441 0.965919 1.2453 0
M  V30 3490 C 342.689 0.625593 1.92174 0
M  V30 3491 C 343.01 -0.841652 1.75901 0
M  V30 3492 O 342.28 -1.60061 1.12948 0
M  V30 3493 H 340.86 0.228388 0.71123 0
M  V30 3494 H 343.522 1.2266 1.51461 0
M  V30 3495 H 342.618 0.864653 2.99884 0
M  V30 3496 N 342.919 -1.39368 0.735821 0
M  V30 3497 C 343.882 -2.2896 0.104874 0
M  V30 3498 C 344.882 -1.46347 -0.666274 0
M  V30 3499 O 346.072 -1.67014 -0.49517 0
M  V30 3500 C 343.204 -3.29857 -0.860656 0
M  V30 3501 H 344.397 -2.86259 0.894205 0
M  V30 3502 H 341.95 -1.48029 0.501704 0
M  V30 3503 H 342.685 -2.77615 -1.67631 0
M  V30 3504 H 342.47 -3.9087 -0.310327 0
M  V30 3505 H 343.96 -3.96893 -1.29867 0
M  V30 3506 N 344.397 -0.483516 -1.5 0
M  V30 3507 C 345.622 0.0667119 -2.07293 0
M  V30 3508 C 346.047 1.3164 -1.3436 0
M  V30 3509 O 345.405 1.76945 -0.394987 0
M  V30 3510 C 345.453 0.321126 -3.59167 0
M  V30 3511 O 344.557 1.39927 -3.87936 0
M  V30 3512 H 343.898 -0.0184758 -0.663743 0
M  V30 3513 H 346.428 -0.678125 -1.93035 0
M  V30 3514 H 346.438 0.557906 -4.04168 0
M  V30 3515 H 345.113 -0.592007 -4.11665 0
M  V30 3516 H 343.69 1.14882 -3.54763 0
M  V30 3517 N 345.875 1.56104 -0.216619 0
M  V30 3518 C 346.822 2.2007 0.695531 0
M  V30 3519 C 347.792 1.15471 1.19397 0
M  V30 3520 O 348.977 1.43807 1.25396 0
M  V30 3521 C 346.117 2.88073 1.90021 0
M  V30 3522 C 345.23 4.07253 1.44113 0
M  V30 3523 C 344.365 4.63052 2.603 0
M  V30 3524 C 343.404 5.74545 2.11103 0
M  V30 3525 N 342.541 6.24656 3.20545 0
M  V30 3526 H 347.381 2.97655 0.143327 0
M  V30 3527 H 344.918 1.46982 0.0589934 0
M  V30 3528 H 346.876 3.25681 2.60745 0
M  V30 3529 H 345.506 2.13015 2.42538 0
M  V30 3530 H 344.558 3.75164 0.628999 0
M  V30 3531 H 345.87 4.8783 1.04036 0
M  V30 3532 H 345.024 5.03078 3.39113 0
M  V30 3533 H 343.763 3.81628 3.03663 0
M  V30 3534 H 342.768 5.34027 1.3075 0
M  V30 3535 H 343.993 6.57801 1.68746 0
M  V30 3536 H 341.939 5.46148 3.63399 0
M  V30 3537 H 341.856 7.00343 2.84704 0
M  V30 3538 H 343.124 6.69338 3.99508 0
M  V30 3539 N 347.353 -0.0568162 1.57498 0
M  V30 3540 C 348.63 -0.786954 1.79071 0
M  V30 3541 C 349.01 -1.95028 0.80792 0
M  V30 3542 O 348.358 -2.27968 -0.155858 0
M  V30 3543 C 348.568 -1.24594 3.26002 0
M  V30 3544 C 349.916 -1.67323 3.90241 0
M  V30 3545 O 350.94 -1.34124 3.29984 0
M  V30 3546 O 349.799 -2.28842 4.9628 0
M  V30 3547 H 346.893 -0.378262 0.735423 0
M  V30 3548 H 349.439 -0.035734 1.69662 0
M  V30 3549 H 348.211 -0.41423 3.89101 0
M  V30 3550 H 347.834 -2.05803 3.40192 0
M  V30 3551 N 348.832 -1.54138 -0.328536 0
M  V30 3552 C 350.08 -1.71765 -1.06496 0
M  V30 3553 C 350.401 -0.49149 -1.88704 0
M  V30 3554 O 349.671 0.494539 -1.89555 0
M  V30 3555 H 348.251 -0.633295 -0.396164 0
M  V30 3556 H 350.913 -1.91429 -0.366176 0
M  V30 3557 H 350.009 -2.5951 -1.73381 0
M  V30 3558 N 350.31 0.590341 -1.46126 0
M  V30 3559 C 351.556 1.34874 -1.52252 0
M  V30 3560 C 351.911 1.91658 -0.168807 0
M  V30 3561 O 351.204 1.73093 0.821556 0
M  V30 3562 C 351.398 2.5032 -2.55097 0
M  V30 3563 C 351.227 2.04843 -4.00337 0
M  V30 3564 C 349.997 1.90213 -4.68132 0
M  V30 3565 C 352.195 1.61267 -4.88362 0
M  V30 3566 N 350.177 1.38727 -5.9802 0
M  V30 3567 C 351.548 1.21319 -6.08015 0
M  V30 3568 C 353.603 1.49015 -4.75078 0
M  V30 3569 C 352.306 0.7034 -7.15852 0
M  V30 3570 C 354.332 0.994401 -5.8298 0
M  V30 3571 C 353.694 0.604659 -7.018 0
M  V30 3572 H 349.793 0.486803 -0.612002 0
M  V30 3573 H 352.377 0.673007 -1.82698 0
M  V30 3574 H 350.548 3.15466 -2.26574 0
M  V30 3575 H 352.28 3.1725 -2.51266 0
M  V30 3576 H 349.035 2.11927 -4.23537 0
M  V30 3577 H 349.459 1.15168 -6.67132 0
M  V30 3578 H 354.101 1.77768 -3.83612 0
M  V30 3579 H 351.819 0.403446 -8.07092 0
M  V30 3580 H 355.405 0.903621 -5.7474 0
M  V30 3581 H 354.285 0.226963 -7.83871 0
M  V30 3582 N 351.788 1.33704 0.83433 0
M  V30 3583 C 352.718 1.26967 1.95963 0
M  V30 3584 C 353.699 0.149337 1.69443 0
M  V30 3585 O 354.884 0.339852 1.91203 0
M  V30 3586 C 352.014 1.01275 3.32206 0
M  V30 3587 C 350.968 2.09652 3.73136 0
M  V30 3588 C 350.294 1.69166 5.07235 0
M  V30 3589 C 351.594 3.51372 3.86439 0
M  V30 3590 H 353.288 2.2112 2.01857 0
M  V30 3591 H 350.834 1.06447 0.969793 0
M  V30 3592 H 352.787 0.952106 4.10503 0
M  V30 3593 H 351.511 0.0356203 3.26581 0
M  V30 3594 H 350.17 2.14766 2.97104 0
M  V30 3595 H 349.818 0.701437 4.98085 0
M  V30 3596 H 349.518 2.41694 5.35591 0
M  V30 3597 H 351.042 1.64576 5.88003 0
M  V30 3598 H 352.456 3.48734 4.55036 0
M  V30 3599 H 350.853 4.22425 4.26236 0
M  V30 3600 H 351.923 3.89546 2.88759 0
M  V30 3601 N 353.266 -1.05314 1.17247 0
M  V30 3602 C 354.513 -1.78293 0.960091 0
M  V30 3603 C 354.841 -1.87658 -0.51136 0
M  V30 3604 O 354.096 -1.3718 -1.39571 0
M  V30 3605 C 354.395 -3.2229 1.54479 0
M  V30 3606 C 354.061 -3.32987 3.04024 0
M  V30 3607 C 352.723 -3.35613 3.44844 0
M  V30 3608 C 355.075 -3.34102 4.00031 0
M  V30 3609 C 352.403 -3.36982 4.8027 0
M  V30 3610 C 354.755 -3.3701 5.35357 0
M  V30 3611 C 353.419 -3.37923 5.75642 0
M  V30 3612 H 352.689 -0.652422 0.351322 0
M  V30 3613 H 355.336 -1.23782 1.46117 0
M  V30 3614 H 353.641 -3.7972 0.965391 0
M  V30 3615 H 355.338 -3.77376 1.35603 0
M  V30 3616 H 351.928 -3.31655 2.71483 0
M  V30 3617 H 356.112 -3.31276 3.69554 0
M  V30 3618 H 351.368 -3.35999 5.10798 0
M  V30 3619 H 355.542 -3.36822 6.09528 0
M  V30 3620 H 353.169 -3.38738 6.80559 0
M  V30 3621 N 354.744 -0.972509 -1.24016 0
M  V30 3622 C 355.972 -0.654803 -1.96265 0
M  V30 3623 C 356.387 0.776708 -1.72083 0
M  V30 3624 O 355.744 1.52171 -1.00748 0
M  V30 3625 C 355.795 -0.92592 -3.49441 0
M  V30 3626 O 355.516 -2.30116 -3.72798 0
M  V30 3627 C 357.017 -0.623068 -4.38899 0
M  V30 3628 H 354.237 -0.243907 -0.6251 0
M  V30 3629 H 356.781 -1.30175 -1.57717 0
M  V30 3630 H 354.936 -0.325108 -3.86033 0
M  V30 3631 H 355.35 -2.38483 -4.67147 0
M  V30 3632 H 356.824 -0.863189 -5.45209 0
M  V30 3633 H 357.301 0.442754 -4.36963 0
M  V30 3634 H 357.907 -1.204 -4.07902 0
M  V30 3635 N 356.222 1.38976 -0.743202 0
M  V30 3636 C 357.185 2.28901 -0.117014 0
M  V30 3637 C 358.185 1.46698 0.658503 0
M  V30 3638 O 359.375 1.67274 0.486305 0
M  V30 3639 C 356.507 3.30309 0.84315 0
M  V30 3640 H 357.7 2.8578 -0.909373 0
M  V30 3641 H 355.253 1.47761 -0.509547 0
M  V30 3642 H 355.988 2.785 1.66157 0
M  V30 3643 H 355.773 3.91029 0.289594 0
M  V30 3644 H 357.263 3.97577 1.2776 0
M  V30 3645 N 357.7 0.491464 1.49741 0
M  V30 3646 C 358.61 -0.296835 2.32715 0
M  V30 3647 C 359.626 -0.976536 1.44013 0
M  V30 3648 O 360.802 -0.960023 1.77047 0
M  V30 3649 C 357.867 -1.35288 3.19215 0
M  V30 3650 C 356.928 -0.687632 4.23757 0
M  V30 3651 C 356.161 -1.69336 5.06123 0
M  V30 3652 O 356.384 -2.92219 4.89861 0
M  V30 3653 O 355.318 -1.25394 5.88693 0
M  V30 3654 H 359.144 0.382048 3.01287 0
M  V30 3655 H 356.729 0.252953 1.47243 0
M  V30 3656 H 358.611 -1.96411 3.72828 0
M  V30 3657 H 357.286 -2.01487 2.53347 0
M  V30 3658 H 356.193 -0.0369159 3.74082 0
M  V30 3659 H 357.526 -0.0682566 4.92153 0
M  V30 3660 N 359.178 -1.55987 0.224894 0
M  V30 3661 C 360.128 -2.17076 -0.697296 0
M  V30 3662 C 361.112 -1.12006 -1.15514 0
M  V30 3663 O 362.304 -1.37985 -1.10857 0
M  V30 3664 C 359.433 -2.85679 -1.90374 0
M  V30 3665 C 358.519 -3.97977 -1.46543 0
M  V30 3666 N 358.91 -5.00359 -0.739909 0
M  V30 3667 C 357.208 -4.10128 -1.75245 0
M  V30 3668 C 357.909 -5.79407 -0.515939 0
M  V30 3669 N 356.885 -5.32892 -1.07364 0
M  V30 3670 H 360.687 -2.93592 -0.134594 0
M  V30 3671 H 358.201 -1.62379 0.0262885 0
M  V30 3672 H 360.198 -3.27857 -2.57518 0
M  V30 3673 H 358.858 -2.1066 -2.47088 0
M  V30 3674 H 359.869 -5.16412 -0.392253 0
M  V30 3675 H 356.546 -3.46263 -2.33255 0
M  V30 3676 H 357.936 -6.71872 0.0617349 0
M  V30 3677 N 360.656 0.0484629 -1.57525 0
M  V30 3678 C 361.884 0.755421 -1.92616 0
M  V30 3679 C 362.299 1.69919 -0.822984 0
M  V30 3680 O 361.656 1.81378 0.202085 0
M  V30 3681 C 361.707 1.52915 -3.27566 0
M  V30 3682 O 361.428 0.62329 -4.33644 0
M  V30 3683 C 362.929 2.33502 -3.76818 0
M  V30 3684 H 360.149 0.213465 -0.63614 0
M  V30 3685 H 362.693 0.0117698 -2.04497 0
M  V30 3686 H 360.848 2.22486 -3.17142 0
M  V30 3687 H 361.262 1.16383 -5.11425 0
M  V30 3688 H 362.736 2.83214 -4.73808 0
M  V30 3689 H 363.213 3.14068 -3.07014 0
M  V30 3690 H 363.819 1.69043 -3.90262 0
M  V30 3691 N 362.134 1.5431 0.320358 0
M  V30 3692 C 363.066 1.80262 1.41556 0
M  V30 3693 C 364.079 0.684723 1.477 0
M  V30 3694 O 365.268 0.961886 1.50366 0
M  V30 3695 C 362.368 1.90825 2.8007 0
M  V30 3696 C 361.541 3.21023 2.97091 0
M  V30 3697 C 360.6 3.22247 4.15985 0
M  V30 3698 O 359.626 3.95871 4.08992 0
M  V30 3699 N 360.828 2.46258 5.25678 0
M  V30 3700 H 363.593 2.74778 1.19655 0
M  V30 3701 H 361.154 1.53646 0.510358 0
M  V30 3702 H 363.146 1.89067 3.57821 0
M  V30 3703 H 361.716 1.03392 2.95006 0
M  V30 3704 H 360.936 3.35715 2.06614 0
M  V30 3705 H 362.224 4.0698 3.05361 0
M  V30 3706 H 361.622 1.86037 5.34235 0
M  V30 3707 H 360.179 2.50275 6.01835 0
M  V30 3708 N 363.613 -0.582584 1.46437 0
M  V30 3709 C 364.838 -1.37168 1.55563 0
M  V30 3710 C 365.263 -1.87061 0.19743 0
M  V30 3711 O 364.621 -1.61572 -0.822451 0
M  V30 3712 C 364.669 -2.53511 2.56446 0
M  V30 3713 O 363.773 -3.54953 2.09958 0
M  V30 3714 H 363.114 -0.408494 0.523477 0
M  V30 3715 H 365.644 -0.706646 1.9201 0
M  V30 3716 H 365.654 -3.00426 2.76058 0
M  V30 3717 H 364.329 -2.16549 3.55076 0
M  V30 3718 H 362.906 -3.14516 2.00334 0
M  V30 3719 N 365.091 -1.34144 -0.827227 0
M  V30 3720 C 366.337 -1.26446 -1.58554 0
M  V30 3721 C 366.67 0.1664 -1.93486 0
M  V30 3722 O 365.945 1.1107 -1.59667 0
M  V30 3723 C 366.228 -2.15111 -2.8879 0
M  V30 3724 C 366.081 -3.66712 -2.60465 0
M  V30 3725 C 367.4 -2.03311 -3.90324 0
M  V30 3726 H 364.519 -0.46067 -0.575284 0
M  V30 3727 H 367.161 -1.64356 -0.953269 0
M  V30 3728 H 365.311 -1.8291 -3.42748 0
M  V30 3729 H 366.983 -4.09259 -2.1285 0
M  V30 3730 H 365.226 -3.88014 -1.93978 0
M  V30 3731 H 365.897 -4.24112 -3.53317 0
M  V30 3732 H 368.373 -2.31574 -3.45706 0
M  V30 3733 H 367.249 -2.67582 -4.79261 0
M  V30 3734 H 367.51 -1.00879 -4.30437 0
M  V30 3735 N 366.569 1.04691 -1.17803 0
M  V30 3736 C 367.499 2.14494 -0.92275 0
M  V30 3737 C 368.48 1.69546 0.137179 0
M  V30 3738 O 369.665 1.94195 -0.0141108 0
M  V30 3739 C 366.795 3.44491 -0.440803 0
M  V30 3740 C 365.749 4.03031 -1.4405 0
M  V30 3741 C 365.075 5.28432 -0.81631 0
M  V30 3742 C 366.375 4.39932 -2.81527 0
M  V30 3743 H 368.069 2.36107 -1.84103 0
M  V30 3744 H 365.615 1.1347 -0.886599 0
M  V30 3745 H 367.568 4.2066 -0.249602 0
M  V30 3746 H 366.292 3.22546 0.513025 0
M  V30 3747 H 364.951 3.28937 -1.61853 0
M  V30 3748 H 364.599 5.02792 0.144511 0
M  V30 3749 H 364.299 5.68559 -1.48371 0
M  V30 3750 H 365.823 6.07284 -0.635496 0
M  V30 3751 H 367.237 5.07113 -2.67412 0
M  V30 3752 H 365.634 4.9109 -3.44892 0
M  V30 3753 H 366.704 3.50045 -3.35554 0
M  V30 3754 N 368.047 0.979072 1.23499 0
M  V30 3755 C 368.994 0.517904 2.24914 0
M  V30 3756 C 369.964 -0.442525 1.60097 0
M  V30 3757 O 371.149 -0.350365 1.87556 0
M  V30 3758 C 368.289 -0.174813 3.44657 0
M  V30 3759 C 367.402 0.825721 4.24035 0
M  V30 3760 C 366.537 0.107946 5.3109 0
M  V30 3761 C 365.576 1.09778 6.02175 0
M  V30 3762 N 364.713 0.40925 7.00906 0
M  V30 3763 H 369.553 1.38751 2.63727 0
M  V30 3764 H 367.09 0.695303 1.2963 0
M  V30 3765 H 369.048 -0.593233 4.12961 0
M  V30 3766 H 367.678 -1.0083 3.06648 0
M  V30 3767 H 366.73 1.36253 3.55161 0
M  V30 3768 H 368.042 1.58005 4.73113 0
M  V30 3769 H 367.196 -0.367904 6.05583 0
M  V30 3770 H 365.935 -0.678994 4.8295 0
M  V30 3771 H 364.94 1.5844 5.26476 0
M  V30 3772 H 366.165 1.88536 6.52404 0
M  V30 3773 H 364.111 -0.358506 6.5502 0
M  V30 3774 H 364.028 1.10226 7.47921 0
M  V30 3775 H 365.296 -0.0442557 7.79487 0
M  V30 3776 N 369.525 -1.3858 0.750561 0
M  V30 3777 C 370.773 -1.99789 0.30477 0
M  V30 3778 C 371.094 -1.59874 -1.11649 0
M  V30 3779 O 370.364 -0.85417 -1.76297 0
M  V30 3780 H 368.944 -0.738902 0.109694 0
M  V30 3781 H 371.606 -1.69391 0.963983 0
M  V30 3782 H 370.702 -3.09952 0.365499 0
M  V30 3783 N 371.003 -0.499398 -1.49478 0
M  V30 3784 C 372.25 0.0456899 -2.02448 0
M  V30 3785 C 372.578 1.37142 -1.37921 0
M  V30 3786 O 371.833 1.89111 -0.503544 0
M  V30 3787 C 372.132 0.248424 -3.56536 0
M  V30 3788 C 371.798 -0.999107 -4.39692 0
M  V30 3789 C 370.46 -1.34108 -4.62135 0
M  V30 3790 C 372.812 -1.82842 -4.88076 0
M  V30 3791 C 370.14 -2.51191 -5.30208 0
M  V30 3792 C 372.492 -2.99076 -5.57437 0
M  V30 3793 C 371.156 -3.33655 -5.78127 0
M  V30 3794 H 370.426 0.0167191 -0.740811 0
M  V30 3795 H 373.073 -0.65923 -1.79795 0
M  V30 3796 H 371.378 1.03586 -3.77859 0
M  V30 3797 H 373.075 0.684605 -3.95113 0
M  V30 3798 H 369.665 -0.722729 -4.22463 0
M  V30 3799 H 373.849 -1.57737 -4.70566 0
M  V30 3800 H 369.105 -2.78221 -5.44429 0
M  V30 3801 H 373.279 -3.63664 -5.93904 0
M  V30 3802 H 370.906 -4.24483 -6.30649 0
M  V30 3803 N 372.481 1.55866 -0.233164 0
M  V30 3804 C 373.429 2.22176 0.68851 0
M  V30 3805 C 374.423 1.20487 1.19076 0
M  V30 3806 O 375.629 1.38536 1.14925 0
M  V30 3807 H 372.004 0.712511 0.240483 0
M  V30 3808 H 373.975 2.98212 0.105935 0
M  V30 3809 C 372.724 2.92446 1.88071 0
M  V30 3810 H 372.047 3.70458 1.50337 0
M  V30 3811 H 373.487 3.42226 2.50314 0
M  V30 3812 C 371.946 1.95555 2.74335 0
M  V30 3813 O 372.476 1.47986 3.73447 0
M  V30 3814 N 370.682 1.62953 2.40613 0
M  V30 3815 H 370.229 2.01831 1.60069 0
M  V30 3816 H 370.187 0.983886 2.98609 0
M  V30 3817 N 373.959 -0.0401083 1.57549 0
M  V30 3818 C 374.906 -1.04413 2.05831 0
M  V30 3819 C 375.876 -1.36585 0.945184 0
M  V30 3820 O 377.061 -1.47112 1.21502 0
M  V30 3821 C 374.201 -2.34336 2.53339 0
M  V30 3822 C 373.314 -2.08419 3.78398 0
M  V30 3823 C 372.449 -3.32133 4.14561 0
M  V30 3824 C 371.488 -3.01721 5.3257 0
M  V30 3825 N 370.625 -4.17855 5.64218 0
M  V30 3826 H 375.465 -0.625442 2.91363 0
M  V30 3827 H 373.002 -0.297218 1.44066 0
M  V30 3828 H 374.96 -3.10234 2.78946 0
M  V30 3829 H 373.59 -2.73948 1.7074 0
M  V30 3830 H 372.642 -1.23069 3.59942 0
M  V30 3831 H 373.954 -1.81978 4.64419 0
M  V30 3832 H 373.108 -4.16406 4.41238 0
M  V30 3833 H 371.847 -3.61678 3.2717 0
M  V30 3834 H 370.852 -2.15849 5.05657 0
M  V30 3835 H 372.077 -2.73466 6.21605 0
M  V30 3836 H 370.023 -4.47372 4.79786 0
M  V30 3837 H 369.94 -3.94798 6.44725 0
M  V30 3838 H 371.208 -5.03033 5.95465 0
M  V30 3839 N 375.437 -1.54477 -0.31217 0
M  V30 3840 C 376.684 -1.73227 -1.04875 0
M  V30 3841 C 377.012 -0.512042 -1.87639 0
M  V30 3842 O 376.267 0.506131 -1.89042 0
M  V30 3843 C 376.566 -2.967 -1.99258 0
M  V30 3844 C 376.232 -4.30974 -1.32559 0
M  V30 3845 C 374.894 -4.67477 -1.141 0
M  V30 3846 C 377.246 -5.14258 -0.847835 0
M  V30 3847 C 374.574 -5.84852 -0.465326 0
M  V30 3848 C 376.926 -6.32327 -0.185931 0
M  V30 3849 C 375.59 -6.67499 0.0107077 0
M  V30 3850 H 374.86 -0.633881 -0.383765 0
M  V30 3851 H 377.507 -1.88727 -0.324731 0
M  V30 3852 H 375.812 -2.75935 -2.7815 0
M  V30 3853 H 377.509 -3.08401 -2.563 0
M  V30 3854 H 374.099 -4.02262 -1.4793 0
M  V30 3855 H 378.283 -4.86565 -0.978192 0
M  V30 3856 H 373.539 -6.10654 -0.301883 0
M  V30 3857 H 377.713 -6.96135 0.192211 0
M  V30 3858 H 375.34 -7.58306 0.536287 0
M  V30 3859 N 376.915 0.57481 -1.46744 0
M  V30 3860 C 378.161 1.3347 -1.52688 0
M  V30 3861 C 378.494 1.93353 -0.181229 0
M  V30 3862 O 377.769 1.76912 0.808237 0
M  V30 3863 C 378.052 2.45811 -2.63152 0
M  V30 3864 C 377.905 1.90912 -4.07275 0
M  V30 3865 C 379.224 3.47822 -2.69644 0
M  V30 3866 H 376.343 0.483935 -0.555856 0
M  V30 3867 H 378.985 0.644968 -1.78718 0
M  V30 3868 H 377.135 3.04646 -2.41088 0
M  V30 3869 H 378.807 1.36473 -4.4065 0
M  V30 3870 H 377.05 1.21691 -4.16382 0
M  V30 3871 H 377.721 2.72042 -4.80309 0
M  V30 3872 H 380.197 2.9888 -2.895 0
M  V30 3873 H 379.073 4.23876 -3.48742 0
M  V30 3874 H 379.334 4.05555 -1.76005 0
M  V30 3875 N 378.394 1.34581 0.820102 0
M  V30 3876 C 379.64 1.27285 1.57881 0
M  V30 3877 C 379.973 -0.156137 1.93571 0
M  V30 3878 O 379.248 -1.10222 1.60254 0
M  V30 3879 C 379.531 2.16639 2.87645 0
M  V30 3880 C 379.384 3.68088 2.58517 0
M  V30 3881 C 380.703 2.05378 3.8924 0
M  V30 3882 H 377.822 0.463714 0.572833 0
M  V30 3883 H 380.464 1.64859 0.944539 0
M  V30 3884 H 378.614 1.84725 3.41773 0
M  V30 3885 H 380.286 4.10382 2.10676 0
M  V30 3886 H 378.529 3.89038 1.91917 0
M  V30 3887 H 379.2 4.2598 3.51063 0
M  V30 3888 H 381.676 2.33404 3.44473 0
M  V30 3889 H 380.552 2.7012 4.77835 0
M  V30 3890 H 380.813 1.0316 4.29896 0
M  V30 3891 N 379.872 -1.04064 1.18357 0
M  V30 3892 C 380.804 -2.12114 0.868358 0
M  V30 3893 C 381.817 -1.62247 -0.134045 0
M  V30 3894 O 383.006 -1.78253 0.0937933 0
M  V30 3895 C 380.106 -3.37773 0.276132 0
M  V30 3896 C 379.279 -4.16874 1.3242 0
M  V30 3897 C 378.338 -5.20861 0.747662 0
M  V30 3898 O 377.364 -5.51141 1.42239 0
M  V30 3899 N 378.566 -5.78715 -0.454823 0
M  V30 3900 H 381.331 -2.39748 1.79836 0
M  V30 3901 H 378.892 -1.20258 1.08396 0
M  V30 3902 H 380.884 -4.04513 -0.123133 0
M  V30 3903 H 379.454 -3.07581 -0.557895 0
M  V30 3904 H 378.674 -3.45456 1.89878 0
M  V30 3905 H 379.962 -4.66516 2.03078 0
M  V30 3906 H 379.36 -5.56415 -1.02073 0
M  V30 3907 H 377.917 -6.46921 -0.79601 0
M  V30 3908 N 381.35 -0.985608 -1.22978 0
M  V30 3909 C 382.58 -0.674603 -1.95276 0
M  V30 3910 C 382.988 0.763483 -1.73111 0
M  V30 3911 O 382.331 1.52601 -1.02268 0
M  V30 3912 C 382.393 -0.891597 -3.48268 0
M  V30 3913 C 382.057 -2.31275 -3.94158 0
M  V30 3914 C 383.054 -3.29179 -4.02415 0
M  V30 3915 C 380.739 -2.64524 -4.27004 0
M  V30 3916 C 382.733 -4.58407 -4.42879 0
M  V30 3917 C 380.42 -3.93974 -4.67149 0
M  V30 3918 C 381.418 -4.90727 -4.75053 0
M  V30 3919 O 381.106 -6.17865 -5.14294 0
M  V30 3920 H 380.838 -0.249251 -0.628371 0
M  V30 3921 H 383.392 -1.32106 -1.5728 0
M  V30 3922 H 381.622 -0.187962 -3.86243 0
M  V30 3923 H 383.311 -0.576957 -4.01779 0
M  V30 3924 H 384.077 -3.04823 -3.77237 0
M  V30 3925 H 379.956 -1.89923 -4.2006 0
M  V30 3926 H 383.5 -5.33926 -4.48964 0
M  V30 3927 H 379.397 -4.18122 -4.91777 0
M  V30 3928 H 380.165 -6.21694 -5.32389 0
M  V30 3929 N 382.828 1.3818 -0.7579 0
M  V30 3930 C 383.791 2.28764 -0.141286 0
M  V30 3931 C 384.791 1.47388 0.642907 0
M  V30 3932 O 385.981 1.67781 0.468536 0
M  V30 3933 C 383.113 3.31184 0.808069 0
M  V30 3934 H 384.306 2.848 -0.939633 0
M  V30 3935 H 381.859 1.47212 -0.525191 0
M  V30 3936 H 382.594 2.80247 1.63193 0
M  V30 3937 H 382.379 3.91314 0.248104 0
M  V30 3938 H 383.869 3.98909 1.23536 0
M  V30 3939 N 384.306 0.507319 1.49211 0
M  V30 3940 C 385.534 -0.0315749 2.06876 0
M  V30 3941 C 385.949 -1.30241 1.36685 0
M  V30 3942 O 385.306 -1.76937 0.447152 0
M  V30 3943 C 385.357 -0.282627 3.60393 0
M  V30 3944 O 385.078 0.937835 4.27944 0
M  V30 3945 C 386.579 -0.864453 4.3479 0
M  V30 3946 H 383.799 0.0233048 0.670595 0
M  V30 3947 H 386.343 0.706484 1.91909 0
M  V30 3948 H 384.498 -0.97068 3.75042 0
M  V30 3949 H 384.912 0.704567 5.19746 0
M  V30 3950 H 386.386 -0.989664 5.43056 0
M  V30 3951 H 386.863 -1.86382 3.97692 0
M  V30 3952 H 387.469 -0.213672 4.24763 0
M  V30 3953 N 385.784 -1.5574 0.241426 0
M  V30 3954 C 387.061 -1.90704 -0.434881 0
M  V30 3955 C 387.441 -1.16145 -1.76277 0
M  V30 3956 O 386.789 -0.277152 -2.26813 0
M  V30 3957 C 386.999 -3.43657 -0.608343 0
M  V30 3958 C 388.347 -4.14806 -0.906725 0
M  V30 3959 O 389.371 -3.49366 -0.694408 0
M  V30 3960 O 388.23 -5.30548 -1.31075 0
M  V30 3961 H 385.324 -0.793592 -0.23268 0
M  V30 3962 H 387.87 -1.67288 0.285086 0
M  V30 3963 H 386.642 -3.89927 0.327505 0
M  V30 3964 H 386.265 -3.72918 -1.37906 0
M  V30 3965 N 387.262 0.0317525 -1.57568 0
M  V30 3966 C 388.487 0.738664 -1.938 0
M  V30 3967 C 388.912 1.68242 -0.841208 0
M  V30 3968 O 388.27 1.80157 0.203267 0
M  V30 3969 C 388.318 1.47417 -3.29091 0
M  V30 3970 O 387.422 2.5872 -3.2115 0
M  V30 3971 H 386.763 0.198856 -0.633524 0
M  V30 3972 H 389.293 -0.0119713 -2.04596 0
M  V30 3973 H 389.303 1.84468 -3.63917 0
M  V30 3974 H 387.978 0.781988 -4.08482 0
M  V30 3975 H 386.555 2.24231 -2.97951 0
M  V30 3976 N 388.74 1.54641 0.303973 0
M  V30 3977 C 389.673 1.80263 1.3993 0
M  V30 3978 C 390.651 0.653657 1.48883 0
M  V30 3979 O 391.835 0.893284 1.6599 0
M  V30 3980 C 388.962 1.9367 2.77866 0
M  V30 3981 C 388.008 3.16078 2.86351 0
M  V30 3982 S 388.841 4.74219 2.4875 0
M  V30 3983 C 389.997 4.90558 3.88721 0
M  V30 3984 H 390.23 2.72886 1.17986 0
M  V30 3985 H 387.763 1.46014 0.501918 0
M  V30 3986 H 389.721 2.0208 3.57315 0
M  V30 3987 H 388.382 1.01991 2.9708 0
M  V30 3988 H 387.575 3.22252 3.87517 0
M  V30 3989 H 387.177 3.06099 2.14893 0
M  V30 3990 H 389.469 4.74398 4.83687 0
M  V30 3991 H 390.412 5.92651 3.87518 0
M  V30 3992 H 390.82 4.18728 3.78585 0
M  V30 3993 N 390.218 -0.567019 1.47046 0
M  V30 3994 C 391.446 -1.35027 1.56765 0
M  V30 3995 C 391.861 -1.8758 0.214316 0
M  V30 3996 O 391.218 -1.64471 -0.790919 0
M  V30 3997 C 391.269 -2.52698 2.58507 0
M  V30 3998 O 390.99 -2.0232 3.88585 0
M  V30 3999 C 392.491 -3.45043 2.78316 0
M  V30 4000 H 389.711 -0.41195 0.529658 0
M  V30 4001 H 392.255 -0.687832 1.92585 0
M  V30 4002 H 390.41 -3.149 2.25648 0
M  V30 4003 H 390.824 -2.79068 4.44096 0
M  V30 4004 H 392.298 -4.2405 3.53391 0
M  V30 4005 H 392.775 -3.97971 1.85784 0
M  V30 4006 H 393.381 -2.88665 3.12334 0
M  V30 4007 N 391.696 -1.35014 -0.812953 0
M  V30 4008 C 392.921 -1.31187 -1.60639 0
M  V30 4009 C 393.346 0.109382 -1.87782 0
M  V30 4010 O 392.704 1.07424 -1.46047 0
M  V30 4011 C 392.752 -2.11809 -2.91838 0
M  V30 4012 O 391.856 -1.49444 -3.8437 0
M  V30 4013 H 391.197 -0.450084 -0.488181 0
M  V30 4014 H 393.727 -1.77963 -1.00947 0
M  V30 4015 H 393.737 -2.23531 -3.41318 0
M  V30 4016 H 392.412 -3.15137 -2.71407 0
M  V30 4017 H 390.989 -1.46524 -3.42907 0
M  V30 4018 N 393.175 1.03435 -1.18907 0
M  V30 4019 C 394.107 2.1165 -0.879595 0
M  V30 4020 C 395.12 1.62316 0.125439 0
M  V30 4021 O 396.309 1.78201 -0.103245 0
M  V30 4022 C 393.409 3.37622 -0.294042 0
M  V30 4023 C 392.582 4.16166 -1.34629 0
M  V30 4024 C 391.641 5.20457 -0.775274 0
M  V30 4025 O 390.667 5.50379 -1.4516 0
M  V30 4026 N 391.869 5.78949 0.424126 0
M  V30 4027 H 394.634 2.38791 -1.81105 0
M  V30 4028 H 392.195 1.19681 -1.09032 0
M  V30 4029 H 394.187 4.04572 0.101679 0
M  V30 4030 H 392.757 3.07873 0.541575 0
M  V30 4031 H 391.977 3.44444 -1.91707 0
M  V30 4032 H 393.265 4.65432 -2.05549 0
M  V30 4033 H 392.663 5.56948 0.991209 0
M  V30 4034 H 391.22 6.47334 0.761691 0
M  V30 4035 N 394.653 0.992116 1.22453 0
M  V30 4036 C 395.901 0.666215 1.90804 0
M  V30 4037 C 396.222 -0.804152 1.77647 0
M  V30 4038 O 395.492 -1.57629 1.16318 0
M  V30 4039 H 394.072 0.243423 0.706225 0
M  V30 4040 H 396.734 1.25845 1.48825 0
M  V30 4041 H 395.83 0.928069 2.97982 0
M  V30 4042 N 396.131 -1.37776 0.765217 0
M  V30 4043 C 397.078 -2.30342 0.145274 0
M  V30 4044 C 398.048 -1.5077 -0.696971 0
M  V30 4045 O 399.233 -1.79362 -0.650689 0
M  V30 4046 C 396.373 -3.37227 -0.732939 0
M  V30 4047 C 395.486 -4.31819 0.125199 0
M  V30 4048 C 394.621 -5.25777 -0.757107 0
M  V30 4049 C 393.66 -6.12012 0.103963 0
M  V30 4050 N 392.797 -6.98232 -0.735953 0
M  V30 4051 H 397.637 -2.8278 0.940195 0
M  V30 4052 H 395.174 -1.39211 0.475255 0
M  V30 4053 H 397.132 -3.97818 -1.25686 0
M  V30 4054 H 395.762 -2.86171 -1.49353 0
M  V30 4055 H 394.814 -3.7259 0.766865 0
M  V30 4056 H 396.126 -4.92509 0.789683 0
M  V30 4057 H 395.28 -5.91541 -1.34776 0
M  V30 4058 H 394.019 -4.65481 -1.45529 0
M  V30 4059 H 393.024 -5.45233 0.707197 0
M  V30 4060 H 394.249 -6.74379 0.799381 0
M  V30 4061 H 392.195 -6.40472 -1.41887 0
M  V30 4062 H 392.112 -7.55891 -0.128624 0
M  V30 4063 H 393.38 -7.68393 -1.31121 0
M  V30 4064 N 397.609 -0.515225 -1.4894 0
M  V30 4065 C 398.857 0.0241671 -2.02086 0
M  V30 4066 C 399.178 1.3616 -1.3959 0
M  V30 4067 O 398.448 1.87841 -0.556121 0
M  V30 4068 H 397.028 0.0119203 -0.746905 0
M  V30 4069 H 399.69 -0.675702 -1.82812 0
M  V30 4070 H 398.786 0.143385 -3.1177 0
M  V30 4071 N 399.087 1.5561 -0.249682 0
M  V30 4072 C 400.017 2.24477 0.642826 0
M  V30 4073 C 400.998 1.22601 1.17911 0
M  V30 4074 O 402.183 1.5126 1.21795 0
M  V30 4075 C 399.313 2.94638 1.83863 0
M  V30 4076 C 398.267 4.03227 1.435 0
M  V30 4077 C 397.593 4.60828 2.71186 0
M  V30 4078 C 398.893 5.18796 0.604002 0
M  V30 4079 H 400.587 2.99321 0.0685625 0
M  V30 4080 H 398.133 1.43965 0.0315363 0
M  V30 4081 H 400.086 3.41517 2.46868 0
M  V30 4082 H 398.81 2.17287 2.43832 0
M  V30 4083 H 397.469 3.57121 0.828275 0
M  V30 4084 H 397.117 3.80174 3.29358 0
M  V30 4085 H 396.817 5.34132 2.44901 0
M  V30 4086 H 398.341 5.10442 3.35084 0
M  V30 4087 H 399.755 5.61883 1.13842 0
M  V30 4088 H 398.152 5.98506 0.437097 0
M  V30 4089 H 399.222 4.83384 -0.383147 0
M  V30 4090 N 400.565 -0.0233959 1.57583 0
M  V30 4091 C 401.79 -0.728376 1.94189 0
M  V30 4092 C 402.215 -1.67793 0.850119 0
M  V30 4093 O 401.573 -1.80262 -0.19371 0
M  V30 4094 C 401.621 -1.45669 3.29868 0
M  V30 4095 O 400.725 -2.57013 3.22518 0
M  V30 4096 H 400.066 -0.195493 0.63457 0
M  V30 4097 H 402.596 0.0228214 2.04587 0
M  V30 4098 H 402.606 -1.82535 3.6489 0
M  V30 4099 H 401.281 -0.760314 4.08891 0
M  V30 4100 H 399.858 -2.22648 2.99136 0
M  V30 4101 N 402.043 -1.548 -0.295768 0
M  V30 4102 C 402.975 -1.82492 -1.3867 0
M  V30 4103 C 403.988 -0.708134 -1.46592 0
M  V30 4104 O 405.177 -0.985686 -1.48817 0
M  V30 4105 C 402.277 -1.95256 -2.76999 0
M  V30 4106 C 401.45 -3.25709 -2.91946 0
M  V30 4107 C 400.509 -3.28824 -4.10806 0
M  V30 4108 O 399.535 -4.02328 -4.02643 0
M  V30 4109 N 400.737 -2.5459 -5.21694 0
M  V30 4110 H 403.502 -2.76646 -1.15269 0
M  V30 4111 H 401.063 -1.54438 -0.485849 0
M  V30 4112 H 403.055 -1.94736 -3.54768 0
M  V30 4113 H 401.625 -1.08072 -2.93324 0
M  V30 4114 H 400.845 -3.38959 -2.01247 0
M  V30 4115 H 402.133 -4.11786 -2.98847 0
M  V30 4116 H 401.531 -1.94512 -5.31208 0
M  V30 4117 H 400.088 -2.59818 -5.97778 0
M  V30 4118 N 403.521 0.559213 -1.47345 0
M  V30 4119 C 404.769 1.31388 -1.53563 0
M  V30 4120 C 405.09 1.93985 -0.198678 0
M  V30 4121 O 404.36 1.79825 0.777167 0
M  V30 4122 H 402.94 0.487901 -0.565652 0
M  V30 4123 H 405.602 0.65315 -1.8363 0
M  V30 4124 H 404.698 2.10844 -2.30111 0
M  V30 4125 N 404.999 1.35443 0.805782 0
M  V30 4126 C 406.224 1.32037 1.59941 0
M  V30 4127 C 406.649 -0.0994215 1.87837 0
M  V30 4128 O 406.007 -1.06648 1.46615 0
M  V30 4129 C 406.055 2.13354 2.90711 0
M  V30 4130 O 405.159 1.5148 3.83572 0
M  V30 4131 H 404.5 0.452666 0.485787 0
M  V30 4132 H 407.03 1.78496 1.00002 0
M  V30 4133 H 407.04 2.25338 3.40128 0
M  V30 4134 H 405.715 3.16572 2.69732 0
M  V30 4135 H 404.292 1.4834 3.42125 0
M  V30 4136 N 406.477 -1.02803 1.19454 0
M  V30 4137 C 407.725 -1.75869 0.995722 0
M  V30 4138 C 408.046 -1.89138 -0.474543 0
M  V30 4139 O 407.316 -1.42558 -1.34366 0
M  V30 4140 H 405.896 -0.651511 0.365435 0
M  V30 4141 H 408.558 -1.24004 1.50363 0
M  V30 4142 H 407.654 -2.76661 1.44447 0
M  V30 4143 N 407.956 -0.998596 -1.21925 0
M  V30 4144 C 409.202 -0.678667 -1.91107 0
M  V30 4145 C 409.535 0.78791 -1.77498 0
M  V30 4146 O 408.81 1.57043 -1.1475 0
M  V30 4147 C 409.093 -1.09245 -3.43129 0
M  V30 4148 C 408.946 -2.61801 -3.6576 0
M  V30 4149 C 410.265 -0.649984 -4.35274 0
M  V30 4150 H 407.384 -0.248025 -0.694012 0
M  V30 4151 H 410.026 -1.24314 -1.43688 0
M  V30 4152 H 408.176 -0.612171 -3.83647 0
M  V30 4153 H 409.848 -3.17543 -3.34611 0
M  V30 4154 H 408.091 -3.03609 -3.09845 0
M  V30 4155 H 408.762 -2.85804 -4.7225 0
M  V30 4156 H 411.238 -1.0626 -4.02303 0
M  V30 4157 H 410.114 -0.967743 -5.40302 0
M  V30 4158 H 410.375 0.449139 -4.39813 0
M  V30 4159 N 409.434 1.37368 -0.772513 0
M  V30 4160 C 410.397 2.28601 -0.165541 0
M  V30 4161 C 411.397 1.48062 0.627238 0
M  V30 4162 O 412.587 1.68268 0.450715 0
M  V30 4163 C 409.719 3.32023 0.772897 0
M  V30 4164 H 410.912 2.83787 -0.969787 0
M  V30 4165 H 408.465 1.46647 -0.540775 0
M  V30 4166 H 409.2 2.81962 1.60212 0
M  V30 4167 H 408.985 3.91555 0.206585 0
M  V30 4168 H 410.475 4.00197 1.19298 0
M  V30 4169 N 410.912 0.523116 1.48665 0
M  V30 4170 C 412.159 -0.0134763 2.02496 0
M  V30 4171 C 412.487 -1.3493 1.40086 0
M  V30 4172 O 411.742 -1.88286 0.533567 0
M  V30 4173 C 412.041 -0.191671 3.56886 0
M  V30 4174 C 411.707 1.06893 4.38046 0
M  V30 4175 C 410.369 1.41443 4.59943 0
M  V30 4176 C 412.721 1.90584 4.85106 0
M  V30 4177 C 410.049 2.59594 5.26144 0
M  V30 4178 C 412.401 3.07907 5.52609 0
M  V30 4179 C 411.065 3.42811 5.72745 0
M  V30 4180 H 410.335 -0.00493133 0.740984 0
M  V30 4181 H 412.982 0.687751 1.78724 0
M  V30 4182 H 411.287 -0.97561 3.79459 0
M  V30 4183 H 412.984 -0.621659 3.96152 0
M  V30 4184 H 409.574 0.789848 4.21259 0
M  V30 4185 H 413.758 1.65203 4.67997 0
M  V30 4186 H 409.014 2.86847 5.39934 0
M  V30 4187 H 413.188 3.73066 5.88043 0
M  V30 4188 H 410.815 4.34462 6.23816 0
M  V30 4189 N 412.39 -1.55475 0.257931 0
M  V30 4190 C 413.667 -1.91155 -0.414629 0
M  V30 4191 C 414.047 -1.18008 -1.75035 0
M  V30 4192 O 413.395 -0.301193 -2.26506 0
M  V30 4193 C 413.605 -3.44283 -0.571859 0
M  V30 4194 C 414.953 -4.15744 -0.862678 0
M  V30 4195 O 415.977 -3.50083 -0.657314 0
M  V30 4196 O 414.836 -5.31909 -1.2544 0
M  V30 4197 H 411.93 -0.796016 -0.22425 0
M  V30 4198 H 414.476 -1.66976 0.302814 0
M  V30 4199 H 413.248 -3.89558 0.368844 0
M  V30 4200 H 412.871 -3.7436 -1.33943 0
M  V30 4201 N 413.868 0.0150385 -1.57593 0
M  V30 4202 C 414.816 1.02958 -2.08572 0
M  V30 4203 C 415.81 1.36554 -1.00246 0
M  V30 4204 O 417.016 1.35295 -1.18724 0
M  V30 4205 H 413.391 0.349619 -0.665786 0
M  V30 4206 H 415.362 0.573932 -2.92829 0
M  V30 4207 C 414.111 2.31752 -2.59203 0
M  V30 4208 H 413.434 2.06765 -3.42182 0
M  V30 4209 H 414.874 3.01053 -2.98568 0
M  V30 4210 C 413.333 3.01692 -1.49945 0
M  V30 4211 O 413.863 3.92083 -0.873704 0
M  V30 4212 N 412.069 2.6326 -1.23056 0
M  V30 4213 H 411.616 1.89838 -1.74125 0
M  V30 4214 H 411.574 3.10372 -0.501685 0
M  V30 4215 N 415.346 1.54954 0.287554 0
M  V30 4216 C 416.256 1.8991 1.37736 0
M  V30 4217 C 417.272 0.794701 1.54792 0
M  V30 4218 O 418.448 1.09243 1.69198 0
M  V30 4219 C 415.513 2.15108 2.71899 0
M  V30 4220 C 414.574 3.38752 2.63715 0
M  V30 4221 C 413.807 3.62739 3.91479 0
M  V30 4222 O 414.03 2.89492 4.91478 0
M  V30 4223 O 412.964 4.56267 3.92561 0
M  V30 4224 H 416.79 2.82652 1.11092 0
M  V30 4225 H 414.375 1.41315 0.484807 0
M  V30 4226 H 416.257 2.32806 3.51254 0
M  V30 4227 H 414.932 1.25551 2.9836 0
M  V30 4228 H 413.839 3.26405 1.82786 0
M  V30 4229 H 415.172 4.28483 2.42205 0
M  V30 4230 N 416.824 -0.551391 1.4764 0
M  V30 4231 C 417.771 -1.65796 1.60563 0
M  V30 4232 C 418.741 -1.59932 0.448428 0
M  V30 4233 O 419.926 -1.78679 0.669222 0
M  V30 4234 C 417.066 -3.04108 1.63133 0
M  V30 4235 C 416.179 -3.20365 2.89811 0
M  V30 4236 C 415.314 -4.49109 2.8368 0
M  V30 4237 C 414.353 -4.58819 4.05156 0
M  V30 4238 N 413.49 -5.78926 3.97227 0
M  V30 4239 H 418.33 -1.54088 2.5507 0
M  V30 4240 H 415.867 -0.75052 1.26513 0
M  V30 4241 H 417.825 -3.84207 1.62606 0
M  V30 4242 H 416.455 -3.14637 0.721341 0
M  V30 4243 H 415.507 -2.33659 3.00179 0
M  V30 4244 H 416.819 -3.23402 3.79753 0
M  V30 4245 H 415.973 -5.37475 2.81434 0
M  V30 4246 H 414.712 -4.4856 1.91431 0
M  V30 4247 H 413.717 -3.68864 4.077 0
M  V30 4248 H 414.942 -4.61124 4.98539 0
M  V30 4249 H 412.888 -5.79314 3.07785 0
M  V30 4250 H 412.805 -5.83367 4.80853 0
M  V30 4251 H 414.073 -6.69637 3.99007 0
M  V30 4252 N 418.302 -1.35869 -0.798587 0
M  V30 4253 C 419.549 -1.29588 -1.55606 0
M  V30 4254 C 419.877 0.127456 -1.94082 0
M  V30 4255 O 419.132 1.09461 -1.62225 0
M  V30 4256 C 419.431 -2.1556 -2.85077 0
M  V30 4257 C 419.097 -3.6424 -2.65781 0
M  V30 4258 C 417.759 -4.04766 -2.60227 0
M  V30 4259 C 420.111 -4.58547 -2.47758 0
M  V30 4260 C 417.439 -5.37753 -2.34603 0
M  V30 4261 C 419.791 -5.91742 -2.23662 0
M  V30 4262 C 418.455 -6.31402 -2.16534 0
M  V30 4263 H 417.725 -0.474197 -0.569402 0
M  V30 4264 H 420.372 -1.67839 -0.922086 0
M  V30 4265 H 418.677 -1.70216 -3.52893 0
M  V30 4266 H 420.374 -2.08031 -3.42818 0
M  V30 4267 H 416.964 -3.32086 -2.70956 0
M  V30 4268 H 421.148 -4.28117 -2.51056 0
M  V30 4269 H 416.404 -5.67474 -2.2756 0
M  V30 4270 H 420.578 -6.6439 -2.08708 0
M  V30 4271 H 418.205 -7.34381 -1.96441 0
M  V30 4272 N 419.78 1.02168 -1.19998 0
M  V30 4273 C 420.743 2.08765 -0.94604 0
M  V30 4274 C 421.743 1.60618 0.0763846 0
M  V30 4275 O 422.933 1.73472 -0.159135 0
M  V30 4276 C 420.065 3.38262 -0.423255 0
M  V30 4277 H 421.258 2.32726 -1.89153 0
M  V30 4278 H 418.811 1.1889 -1.01464 0
M  V30 4279 H 419.546 3.19974 0.527938 0
M  V30 4280 H 419.331 3.74532 -1.16053 0
M  V30 4281 H 420.821 4.16759 -0.264911 0
M  V30 4282 N 421.258 1.00505 1.21394 0
M  V30 4283 C 422.488 0.705584 1.94178 0
M  V30 4284 C 422.896 -0.735846 1.74304 0
M  V30 4285 O 422.239 -1.50954 1.04683 0
M  V30 4286 C 422.301 0.94689 3.46806 0
M  V30 4287 C 421.965 2.37517 3.90429 0
M  V30 4288 C 422.962 3.35539 3.97127 0
M  V30 4289 C 420.647 2.71284 4.22742 0
M  V30 4290 C 422.641 4.65395 4.3553 0
M  V30 4291 C 420.328 4.01356 4.60822 0
M  V30 4292 C 421.326 4.98223 4.67186 0
M  V30 4293 O 421.014 6.25969 5.04399 0
M  V30 4294 H 420.746 0.259216 0.624326 0
M  V30 4295 H 423.3 1.34592 1.55159 0
M  V30 4296 H 421.53 0.249386 3.85895 0
M  V30 4297 H 423.219 0.640804 4.0081 0
M  V30 4298 H 423.985 3.10786 3.7234 0
M  V30 4299 H 419.864 1.96581 4.16985 0
M  V30 4300 H 423.408 5.41002 4.40412 0
M  V30 4301 H 419.305 4.25893 4.85063 0
M  V30 4302 H 420.073 6.30085 5.22431 0
M  V30 4303 N 422.737 -1.36956 0.779787 0
M  V30 4304 C 423.685 -2.32053 0.15942 0
M  V30 4305 C 424.679 -1.55333 -0.675878 0
M  V30 4306 O 425.885 -1.70668 -0.57204 0
M  V30 4307 H 422.26 -0.751286 0.0327707 0
M  V30 4308 H 424.231 -2.8195 0.977078 0
M  V30 4309 C 422.98 -3.40602 -0.698977 0
M  V30 4310 H 422.303 -3.99746 -0.0655966 0
M  V30 4311 H 423.743 -4.09486 -1.09989 0
M  V30 4312 C 422.202 -2.81359 -1.85307 0
M  V30 4313 O 422.732 -2.72751 -2.94906 0
M  V30 4314 N 420.938 -2.38786 -1.65619 0
M  V30 4315 H 420.485 -2.45987 -0.764725 0
M  V30 4316 H 420.443 -1.99493 -2.43002 0
M  V30 4317 N 424.215 -0.530993 -1.48385 0
M  V30 4318 C 425.464 0.00474348 -2.01699 0
M  V30 4319 C 425.777 1.35227 -1.41325 0
M  V30 4320 O 426.983 1.97643 -1.86144 0
M  V30 4321 C 425.439 0.0588473 -3.59852 0
M  V30 4322 C 425.047 -1.28385 -4.2921 0
M  V30 4323 C 426.791 0.543358 -4.21008 0
M  V30 4324 C 424.698 -1.19028 -5.79298 0
M  V30 4325 H 423.628 0.00554317 -0.75398 0
M  V30 4326 H 426.279 -0.674924 -1.70637 0
M  V30 4327 H 424.661 0.803612 -3.8776 0
M  V30 4328 H 425.835 -2.04426 -4.12973 0
M  V30 4329 H 424.15 -1.70418 -3.7993 0
M  V30 4330 H 426.747 0.631351 -5.3096 0
M  V30 4331 H 427.09 1.54937 -3.86394 0
M  V30 4332 H 427.623 -0.145754 -3.97533 0
M  V30 4333 H 424.362 -2.17147 -6.18488 0
M  V30 4334 H 423.882 -0.471246 -5.97946 0
M  V30 4335 H 425.561 -0.881365 -6.40969 0
M  V30 4336 N 425.693 1.55336 -0.266172 0
M  V30 4337 C 426.641 2.23587 0.641228 0
M  V30 4338 C 427.635 1.22986 1.16494 0
M  V30 4339 O 428.841 1.40943 1.1196 0
M  V30 4340 H 425.216 0.717452 0.225315 0
M  V30 4341 H 427.187 2.9837 0.0426561 0
M  V30 4342 C 425.936 2.96369 1.81826 0
M  V30 4343 H 425.259 3.73563 1.42445 0
M  V30 4344 H 426.699 3.47459 2.42998 0
M  V30 4345 C 425.158 2.0133 2.70125 0
M  V30 4346 O 425.688 1.55875 3.70224 0
M  V30 4347 N 423.894 1.6802 2.37102 0
M  V30 4348 H 423.441 2.05181 1.55751 0
M  V30 4349 H 423.399 1.047 2.96454 0
M  V30 4350 N 427.171 -0.0066808 1.57599 0
M  V30 4351 C 428.119 -1.01851 2.09115 0
M  V30 4352 C 429.113 -1.36021 1.00969 0
M  V30 4353 O 430.319 -1.34663 1.19439 0
M  V30 4354 H 426.694 -0.346083 0.667631 0
M  V30 4355 H 428.665 -0.558394 2.93129 0
M  V30 4356 C 427.414 -2.30374 2.60429 0
M  V30 4357 H 426.737 -2.04947 3.43273 0
M  V30 4358 H 428.177 -2.99466 3.00161 0
M  V30 4359 C 426.636 -3.00893 1.51542 0
M  V30 4360 O 427.166 -3.91614 0.894484 0
M  V30 4361 N 425.372 -2.62603 1.2445 0
M  V30 4362 H 424.919 -1.88911 1.75129 0
M  V30 4363 H 424.877 -3.10101 0.518137 0
M  V30 4364 N 428.649 -1.55105 -0.279332 0
M  V30 4365 C 429.597 -1.88333 -1.36505 0
M  V30 4366 C 430.591 -0.759043 -1.51443 0
M  V30 4367 O 431.797 -0.943312 -1.53302 0
M  V30 4368 H 428.172 -0.59766 -0.456406 0
M  V30 4369 H 430.143 -2.79041 -1.05728 0
M  V30 4370 C 428.892 -2.16628 -2.7197 0
M  V30 4371 H 428.215 -3.02624 -2.61264 0
M  V30 4372 H 429.655 -2.43803 -3.46895 0
M  V30 4373 C 428.114 -0.971807 -3.22579 0
M  V30 4374 O 428.644 -0.203228 -4.01186 0
M  V30 4375 N 426.85 -0.771238 -2.80179 0
M  V30 4376 H 426.397 -1.39792 -2.1637 0
M  V30 4377 H 426.355 0.0263667 -3.14389 0
M  V30 4378 N 430.127 0.543554 -1.4793 0
M  V30 4379 C 431.375 1.29752 -1.54948 0
M  V30 4380 C 431.696 1.93764 -0.219242 0
M  V30 4381 O 430.966 1.80639 0.75805 0
M  V30 4382 H 429.546 0.481874 -0.570795 0
M  V30 4383 H 432.208 0.633636 -1.84312 0
M  V30 4384 H 431.304 2.08392 -2.32334 0
M  V30 4385 N 431.605 1.3629 0.791371 0
M  V30 4386 C 432.555 1.26988 1.89362 0
M  V30 4387 C 433.539 0.161795 1.60084 0
M  V30 4388 O 434.731 0.394426 1.72549 0
M  V30 4389 C 431.86 1.05944 3.26544 0
M  V30 4390 C 430.946 2.21211 3.61838 0
M  V30 4391 N 431.337 3.46518 3.68455 0
M  V30 4392 C 429.635 2.12933 3.91887 0
M  V30 4393 C 430.336 4.2241 3.99931 0
M  V30 4394 N 429.312 3.51329 4.14812 0
M  V30 4395 H 433.114 2.21908 1.92702 0
M  V30 4396 H 430.628 1.28982 0.986787 0
M  V30 4397 H 432.625 0.973666 4.05371 0
M  V30 4398 H 431.285 0.119223 3.24481 0
M  V30 4399 H 432.296 3.80677 3.51148 0
M  V30 4400 H 428.973 1.26855 3.97761 0
M  V30 4401 H 430.363 5.30767 4.1199 0
M  V30 4402 N 433.083 -1.0153 1.20538 0
M  V30 4403 C 434.016 -2.09759 0.898695 0
M  V30 4404 C 434.994 -1.61909 -0.149733 0
M  V30 4405 O 436.178 -1.88486 -0.0230293 0
M  V30 4406 C 433.305 -3.36913 0.347512 0
M  V30 4407 C 432.351 -4.03655 1.37713 0
M  V30 4408 S 433.184 -4.47402 2.94265 0
M  V30 4409 C 434.34 -5.77756 2.40726 0
M  V30 4410 H 434.573 -2.3545 1.81523 0
M  V30 4411 H 432.106 -1.14665 1.03399 0
M  V30 4412 H 434.064 -4.10484 0.0360518 0
M  V30 4413 H 432.725 -3.09291 -0.547546 0
M  V30 4414 H 431.918 -4.9514 0.940872 0
M  V30 4415 H 431.52 -3.36313 1.63614 0
M  V30 4416 H 433.812 -6.52994 1.80569 0
M  V30 4417 H 434.755 -6.2618 3.30612 0
M  V30 4418 H 435.163 -5.34081 1.82806 0
M  V30 4419 N 434.561 -1.01147 -1.20859 0
M  V30 4420 C 435.491 -0.597663 -2.25722 0
M  V30 4421 C 436.472 0.384744 -1.65692 0
M  V30 4422 O 437.657 0.271303 -1.92296 0
M  V30 4423 C 434.787 0.0700149 -3.47229 0
M  V30 4424 C 433.741 -0.832843 -4.19819 0
M  V30 4425 C 433.067 -0.0312202 -5.34691 0
M  V30 4426 C 434.367 -2.1385 -4.76514 0
M  V30 4427 H 436.061 -1.47423 -2.60589 0
M  V30 4428 H 433.607 -0.710301 -1.25263 0
M  V30 4429 H 435.56 0.37103 -4.19763 0
M  V30 4430 H 434.284 0.981259 -3.11511 0
M  V30 4431 H 432.943 -1.11778 -3.49144 0
M  V30 4432 H 432.591 0.881515 -4.95215 0
M  V30 4433 H 432.291 -0.632434 -5.84187 0
M  V30 4434 H 433.815 0.26346 -6.10031 0
M  V30 4435 H 435.229 -1.9002 -5.40893 0
M  V30 4436 H 433.626 -2.69012 -5.36426 0
M  V30 4437 H 434.696 -2.80495 -3.95538 0
M  V30 4438 N 436.039 1.36541 -0.78704 0
M  V30 4439 C 437.455 1.52571 -0.46844 0
M  V30 4440 C 437.655 1.7415 1.01361 0
M  V30 4441 O 436.711 1.77163 1.79915 0
M  V30 4442 C 438.024 2.71299 -1.29682 0
M  V30 4443 C 439.572 2.85169 -1.29027 0
M  V30 4444 C 440.047 4.06898 -2.10233 0
M  V30 4445 N 441.538 4.1404 -2.07666 0
M  V30 4446 C 442.273 5.07301 -2.67271 0
M  V30 4447 N 441.769 6.06021 -3.35724 0
M  V30 4448 N 443.562 4.99898 -2.57018 0
M  V30 4449 H 435.713 1.20788 -1.74711 0
M  V30 4450 H 437.976 0.589364 -0.742532 0
M  V30 4451 H 437.682 2.61868 -2.34773 0
M  V30 4452 H 437.556 3.6539 -0.936479 0
M  V30 4453 H 439.943 2.94062 -0.247284 0
M  V30 4454 H 440.024 1.91992 -1.69035 0
M  V30 4455 H 439.668 3.98766 -3.1456 0
M  V30 4456 H 439.598 4.99218 -1.67597 0
M  V30 4457 H 442.089 3.43357 -1.57843 0
M  V30 4458 H 442.402 6.73741 -3.78541 0
M  V30 4459 H 440.747 6.06253 -3.39826 0
M  V30 4460 H 443.938 4.21724 -2.03142 0
M  V30 4461 H 444.111 5.72392 -3.03761 0
M  V30 4462 N 437.518 0.538854 1.48102 0
M  V30 4463 C 438.767 0.0059532 2.01699 0
M  V30 4464 C 439.08 -1.34476 1.42041 0
M  V30 4465 O 440.286 -1.96653 1.87189 0
M  V30 4466 C 438.742 -0.0397627 3.59878 0
M  V30 4467 C 438.35 1.30659 4.28523 0
M  V30 4468 C 440.094 -0.521024 4.2129 0
M  V30 4469 C 438.001 1.22098 5.78659 0
M  V30 4470 H 436.931 -0.00154456 0.753998 0
M  V30 4471 H 439.582 0.683963 1.70277 0
M  V30 4472 H 437.964 -0.783037 3.88181 0
M  V30 4473 H 439.138 2.06613 4.11883 0
M  V30 4474 H 437.453 1.7243 3.79021 0
M  V30 4475 H 440.05 -0.603184 5.31287 0
M  V30 4476 H 440.393 -1.52885 3.8721 0
M  V30 4477 H 440.926 0.166834 3.9745 0
M  V30 4478 H 437.665 2.20424 6.17328 0
M  V30 4479 H 437.185 0.50295 5.97688 0
M  V30 4480 H 438.864 0.915345 6.40492 0
M  V30 4481 N 438.996 -1.55193 0.274407 0
M  V30 4482 C 439.926 -2.25471 -0.607032 0
M  V30 4483 C 440.907 -1.24461 -1.15946 0
M  V30 4484 O 442.092 -1.53179 -1.19373 0
M  V30 4485 C 439.222 -2.97526 -1.79153 0
M  V30 4486 C 438.176 -4.05459 -1.37067 0
M  V30 4487 C 437.502 -4.65084 -2.6382 0
M  V30 4488 C 438.802 -5.19691 -0.521389 0
M  V30 4489 H 440.496 -2.99393 -0.0209343 0
M  V30 4490 H 438.042 -1.43997 -0.00862866 0
M  V30 4491 H 439.995 -3.45402 -2.41404 0
M  V30 4492 H 438.719 -2.21138 -2.40344 0
M  V30 4493 H 437.378 -3.58393 -0.771355 0
M  V30 4494 H 437.026 -3.85365 -3.23268 0
M  V30 4495 H 436.726 -5.37961 -2.36372 0
M  V30 4496 H 438.25 -5.15708 -3.26921 0
M  V30 4497 H 439.664 -5.63623 -1.04889 0
M  V30 4498 H 438.061 -5.99126 -0.341825 0
M  V30 4499 H 439.131 -4.82713 0.46 0
M  V30 4500 N 440.474 -0.00167713 -1.576 0
M  V30 4501 C 441.751 0.719951 -1.81868 0
M  V30 4502 C 442.131 1.91895 -0.879747 0
M  V30 4503 O 441.479 2.28389 0.0711423 0
M  V30 4504 C 441.689 1.12409 -3.30402 0
M  V30 4505 C 443.037 1.52724 -3.96182 0
M  V30 4506 O 444.061 1.21784 -3.34734 0
M  V30 4507 O 442.92 2.10265 -5.04431 0
M  V30 4508 H 440.014 0.350707 -0.748955 0
M  V30 4509 H 442.56 -0.0272597 -1.69678 0
M  V30 4510 H 441.332 0.269532 -3.90371 0
M  V30 4511 H 440.955 1.93035 -3.47596 0
M  V30 4512 N 441.952 1.55251 0.271103 0
M  V30 4513 C 442.902 1.84649 1.33749 0
M  V30 4514 C 443.886 0.705529 1.44607 0
M  V30 4515 O 445.078 0.966916 1.48256 0
M  V30 4516 C 442.207 2.12354 2.69742 0
M  V30 4517 C 441.293 3.32714 2.62988 0
M  V30 4518 N 441.684 4.52575 2.25853 0
M  V30 4519 C 439.982 3.35341 2.94045 0
M  V30 4520 C 440.683 5.34669 2.29136 0
M  V30 4521 N 439.659 4.73123 2.67685 0
M  V30 4522 H 443.461 2.74865 1.0405 0
M  V30 4523 H 440.975 1.55152 0.479738 0
M  V30 4524 H 442.972 2.31572 3.4667 0
M  V30 4525 H 441.632 1.23422 3.00328 0
M  V30 4526 H 442.643 4.78639 1.978 0
M  V30 4527 H 439.32 2.56608 3.2933 0
M  V30 4528 H 440.71 6.40509 2.02971 0
M  V30 4529 N 443.43 -0.535701 1.48216 0
M  V30 4530 C 444.678 -1.28928 1.55634 0
M  V30 4531 C 444.999 -1.93645 0.229514 0
M  V30 4532 O 444.269 -1.81038 -0.74846 0
M  V30 4533 H 442.849 -0.47884 0.573342 0
M  V30 4534 H 445.511 -0.623853 1.84646 0
M  V30 4535 H 444.607 -2.07157 2.33436 0
M  V30 4536 N 444.908 -1.36708 -0.784132 0
M  V30 4537 C 445.871 -1.31307 -1.87859 0
M  V30 4538 C 446.871 -0.219654 -1.59293 0
M  V30 4539 O 448.061 -0.47476 -1.67606 0
M  V30 4540 C 445.193 -1.03679 -3.24751 0
M  V30 4541 H 446.386 -2.28647 -1.94064 0
M  V30 4542 H 443.939 -1.21558 -0.98252 0
M  V30 4543 H 444.674 -0.0681936 -3.24228 0
M  V30 4544 H 444.459 -1.82811 -3.46876 0
M  V30 4545 H 445.949 -1.02518 -4.04821 0
M  V30 4546 N 446.386 1.0089 -1.21074 0
M  V30 4547 C 447.635 1.74019 -1.01981 0
M  V30 4548 C 447.948 1.90408 0.447665 0
M  V30 4549 O 449.154 2.60707 0.757906 0
M  V30 4550 C 447.61 3.13026 -1.77603 0
M  V30 4551 C 447.218 3.04623 -3.28495 0
M  V30 4552 C 448.962 3.90312 -1.66904 0
M  V30 4553 C 446.869 4.38685 -3.96623 0
M  V30 4554 H 445.799 0.652422 -0.377971 0
M  V30 4555 H 448.45 1.12755 -1.44771 0
M  V30 4556 H 446.832 3.74878 -1.27604 0
M  V30 4557 H 448.006 2.52032 -3.85767 0
M  V30 4558 H 446.321 2.40827 -3.39693 0
M  V30 4559 H 448.918 4.8951 -2.15138 0
M  V30 4560 H 449.261 4.11558 -0.62658 0
M  V30 4561 H 449.794 3.35104 -2.14359 0
M  V30 4562 H 446.533 4.22641 -5.01054 0
M  V30 4563 H 446.053 4.91252 -3.4414 0
M  V30 4564 H 447.732 5.075 -4.01314 0
M  V30 4565 N 447.864 1.01787 1.20321 0
M  V30 4566 C 449.089 0.727009 1.9424 0
M  V30 4567 C 449.514 -0.706179 1.74341 0
M  V30 4568 O 448.872 -1.48609 1.03852 0
M  V30 4569 C 448.92 1.06958 3.44372 0
M  V30 4570 O 448.024 0.181983 4.11998 0
M  V30 4571 H 447.365 0.269626 0.606793 0
M  V30 4572 H 449.895 1.36158 1.52716 0
M  V30 4573 H 449.905 1.02182 3.94997 0
M  V30 4574 H 448.58 2.11378 3.58179 0
M  V30 4575 H 447.157 0.287378 3.71791 0
M  V30 4576 N 449.342 -1.36122 0.79427 0
M  V30 4577 C 450.275 -2.27759 0.141845 0
M  V30 4578 C 451.253 -1.47471 -0.684921 0
M  V30 4579 O 452.437 -1.76759 -0.654857 0
M  V30 4580 C 449.564 -3.29008 -0.804446 0
M  V30 4581 C 448.61 -4.26459 -0.0588617 0
M  V30 4582 S 449.443 -5.20253 1.26873 0
M  V30 4583 C 450.599 -6.25048 0.326562 0
M  V30 4584 H 450.832 -2.82746 0.918818 0
M  V30 4585 H 448.365 -1.42736 0.588722 0
M  V30 4586 H 450.323 -3.87842 -1.34495 0
M  V30 4587 H 448.984 -2.72924 -1.5547 0
M  V30 4588 H 448.177 -4.97973 -0.777087 0
M  V30 4589 H 447.779 -3.71731 0.411309 0
M  V30 4590 H 450.071 -6.75705 -0.492795 0
M  V30 4591 H 451.014 -7.00852 1.01053 0
M  V30 4592 H 451.422 -5.64454 -0.0722627 0
M  V30 4593 N 450.82 -0.546701 -1.47814 0
M  V30 4594 C 452.068 -0.0187037 -2.02091 0
M  V30 4595 C 452.389 1.33168 -1.42447 0
M  V30 4596 O 451.659 1.86619 -0.595839 0
M  V30 4597 H 450.239 -0.00392531 -0.74699 0
M  V30 4598 H 452.901 -0.714327 -1.81338 0
M  V30 4599 H 451.997 0.0772219 -3.12004 0
M  V30 4600 N 452.299 1.55045 -0.282633 0
M  V30 4601 C 453.576 1.9179 0.384166 0
M  V30 4602 C 453.956 1.20778 1.73136 0
M  V30 4603 O 453.304 0.33719 2.25998 0
M  V30 4604 C 453.514 3.45149 0.517014 0
M  V30 4605 C 454.862 4.17064 0.796427 0
M  V30 4606 O 455.886 3.51084 0.601535 0
M  V30 4607 O 454.745 5.33837 1.16962 0
M  V30 4608 H 451.839 0.799483 0.211558 0
M  V30 4609 H 454.385 1.66474 -0.32934 0
M  V30 4610 H 453.157 3.88922 -0.430772 0
M  V30 4611 H 452.78 3.76443 1.2797 0
M  V30 4612 N 453.777 0.010035 1.57597 0
M  V30 4613 C 454.725 -0.996272 2.10184 0
M  V30 4614 C 455.719 -1.34942 1.02406 0
M  V30 4615 O 456.925 -1.33389 1.20861 0
M  V30 4616 H 453.3 -0.338982 0.671264 0
M  V30 4617 H 455.271 -0.527272 2.93705 0
M  V30 4618 C 454.02 -2.27599 2.62857 0
M  V30 4619 H 453.343 -2.01295 3.45428 0
M  V30 4620 H 454.783 -2.96265 3.0332 0
M  V30 4621 C 453.242 -2.99269 1.54725 0
M  V30 4622 O 453.772 -3.90644 0.93597 0
M  V30 4623 N 451.978 -2.61269 1.27228 0
M  V30 4624 H 451.525 -1.87043 1.77123 0
M  V30 4625 H 451.483 -3.09534 0.550999 0
M  V30 4626 N 455.255 -1.55392 -0.262866 0
M  V30 4627 C 456.501 -1.77657 -0.990424 0
M  V30 4628 C 456.856 -0.576333 -1.83565 0
M  V30 4629 O 456.149 0.430795 -1.86694 0
M  V30 4630 C 456.343 -3.02889 -1.89718 0
M  V30 4631 C 456.172 -4.34979 -1.14121 0
M  V30 4632 C 454.942 -4.98052 -0.852768 0
M  V30 4633 C 457.14 -5.11597 -0.526625 0
M  V30 4634 N 455.122 -6.13859 -0.0710649 0
M  V30 4635 C 456.493 -6.19883 0.12042 0
M  V30 4636 C 458.548 -4.95992 -0.435485 0
M  V30 4637 C 457.251 -7.14262 0.849833 0
M  V30 4638 C 459.277 -5.90735 0.280359 0
M  V30 4639 C 458.639 -6.98417 0.916103 0
M  V30 4640 H 454.738 -0.702242 -0.344064 0
M  V30 4641 H 457.322 -1.92887 -0.265088 0
M  V30 4642 H 455.493 -2.89017 -2.59468 0
M  V30 4643 H 457.225 -3.13516 -2.5591 0
M  V30 4644 H 453.98 -4.5916 -1.16058 0
M  V30 4645 H 454.404 -6.76302 0.307413 0
M  V30 4646 H 459.046 -4.12832 -0.912671 0
M  V30 4647 H 456.764 -7.96935 1.33867 0
M  V30 4648 H 460.35 -5.80738 0.351332 0
M  V30 4649 H 459.23 -7.70467 1.46119 0
M  V30 4650 N 456.733 0.527833 -1.48498 0
M  V30 4651 C 458.01 1.28905 -1.47115 0
M  V30 4652 C 458.39 2.10297 -0.184007 0
M  V30 4653 O 457.738 2.12728 0.834218 0
M  V30 4654 C 457.948 2.16866 -2.73441 0
M  V30 4655 C 459.296 2.76936 -3.21857 0
M  V30 4656 O 460.32 2.27152 -2.74373 0
M  V30 4657 O 459.179 3.67496 -4.04486 0
M  V30 4658 H 456.273 0.581918 -0.587623 0
M  V30 4659 H 458.819 0.544311 -1.60734 0
M  V30 4660 H 457.591 1.56521 -3.58632 0
M  V30 4661 H 457.214 2.98583 -2.62553 0
M  V30 4662 N 458.211 1.37122 0.776871 0
M  V30 4663 C 459.144 1.26835 1.89705 0
M  V30 4664 C 460.122 0.14992 1.61907 0
M  V30 4665 O 461.306 0.323242 1.85708 0
M  V30 4666 C 458.433 0.95986 3.24814 0
M  V30 4667 C 457.479 2.09447 3.7153 0
M  V30 4668 S 458.312 3.71368 3.85806 0
M  V30 4669 C 459.468 3.42659 5.23771 0
M  V30 4670 H 459.701 2.21647 1.98141 0
M  V30 4671 H 457.234 1.22685 0.937433 0
M  V30 4672 H 459.192 0.788696 4.02852 0
M  V30 4673 H 457.853 0.0293137 3.14086 0
M  V30 4674 H 457.046 1.8335 4.69467 0
M  V30 4675 H 456.648 2.2255 3.00578 0
M  V30 4676 H 458.94 2.9733 6.0877 0
M  V30 4677 H 459.883 4.39905 5.54878 0
M  V30 4678 H 460.291 2.77708 4.91466 0
M  V30 4679 N 459.689 -1.00246 1.21608 0
M  V30 4680 C 460.622 -2.08794 0.920892 0
M  V30 4681 C 461.6 -1.62059 -0.132552 0
M  V30 4682 O 462.784 -1.885 -0.0030366 0
M  V30 4683 C 459.911 -3.36525 0.383226 0
M  V30 4684 C 458.957 -4.02172 1.41987 0
M  V30 4685 S 459.79 -4.44256 2.98994 0
M  V30 4686 C 460.946 -5.7517 2.4684 0
M  V30 4687 H 461.179 -2.33511 1.8401 0
M  V30 4688 H 458.712 -1.13562 1.04609 0
M  V30 4689 H 460.67 -4.10423 0.0795871 0
M  V30 4690 H 459.331 -3.09854 -0.514711 0
M  V30 4691 H 458.524 -4.94114 0.993335 0
M  V30 4692 H 458.126 -3.34559 1.67171 0
M  V30 4693 H 460.418 -6.51042 1.87484 0
M  V30 4694 H 461.361 -6.22638 3.37235 0
M  V30 4695 H 461.769 -5.32112 1.88461 0
M  V30 4696 N 461.167 -1.02423 -1.1978 0
M  V30 4697 C 462.397 -0.736387 -1.93031 0
M  V30 4698 C 462.805 0.708023 -1.75453 0
M  V30 4699 O 462.148 1.4927 -1.07071 0
M  V30 4700 C 462.21 -1.00194 -3.45255 0
M  V30 4701 C 461.874 -2.43698 -3.86601 0
M  V30 4702 C 462.871 -3.41814 -3.91738 0
M  V30 4703 C 460.556 -2.77975 -4.18372 0
M  V30 4704 C 462.55 -4.72265 -4.28071 0
M  V30 4705 C 460.237 -4.08636 -4.54378 0
M  V30 4706 C 461.235 -5.05592 -4.59201 0
M  V30 4707 O 460.923 -6.33914 -4.94376 0
M  V30 4708 H 460.655 -0.269116 -0.620123 0
M  V30 4709 H 463.209 -1.37043 -1.52998 0
M  V30 4710 H 461.439 -0.310747 -3.85449 0
M  V30 4711 H 463.128 -0.704488 -3.9974 0
M  V30 4712 H 463.894 -3.16671 -3.67348 0
M  V30 4713 H 459.773 -2.0319 -4.13805 0
M  V30 4714 H 463.317 -5.4794 -4.3175 0
M  V30 4715 H 459.214 -4.33556 -4.78226 0
M  V30 4716 H 459.982 -6.38317 -5.12341 0
M  V30 4717 N 462.645 1.35699 -0.801477 0
M  V30 4718 C 463.891 1.99208 -0.380022 0
M  V30 4719 C 464.224 1.63445 1.04878 0
M  V30 4720 O 463.499 0.895223 1.72673 0
M  V30 4721 C 463.782 3.55755 -0.557708 0
M  V30 4722 C 463.635 4.01332 -2.03107 0
M  V30 4723 C 464.954 4.40096 0.0197968 0
M  V30 4724 H 462.073 0.723667 -0.139552 0
M  V30 4725 H 464.715 1.60928 -1.01006 0
M  V30 4726 H 462.865 3.88494 -0.0213741 0
M  V30 4727 H 464.537 3.79026 -2.62939 0
M  V30 4728 H 462.78 3.52429 -2.52936 0
M  V30 4729 H 463.451 5.10234 -2.1063 0
M  V30 4730 H 465.927 4.13786 -0.438179 0
M  V30 4731 H 464.803 5.48735 -0.134477 0
M  V30 4732 H 465.064 4.2786 1.11303 0
M  V30 4733 N 464.123 0.554532 1.47522 0
M  V30 4734 C 465.371 0.0294208 2.02079 0
M  V30 4735 C 465.692 -1.32411 1.43151 0
M  V30 4736 O 464.962 -1.863 0.605728 0
M  V30 4737 H 463.542 0.00788672 0.746958 0
M  V30 4738 H 466.204 0.723934 1.80956 0
M  V30 4739 H 465.3 -0.0606745 3.12041 0
M  V30 4740 N 465.601 -1.54893 0.290851 0
M  V30 4741 C 466.534 -2.19289 -0.631489 0
M  V30 4742 C 467.512 -1.15893 -1.14051 0
M  V30 4743 O 468.696 -1.4449 -1.21058 0
M  V30 4744 C 465.823 -2.82866 -1.86291 0
M  V30 4745 C 464.869 -3.997 -1.48801 0
M  V30 4746 S 465.702 -5.32641 -0.552644 0
M  V30 4747 C 466.858 -5.99696 -1.79209 0
M  V30 4748 H 467.091 -2.9718 -0.0843791 0
M  V30 4749 H 464.624 -1.54218 0.075031 0
M  V30 4750 H 466.582 -3.20124 -2.56964 0
M  V30 4751 H 465.243 -2.04839 -2.38117 0
M  V30 4752 H 464.436 -4.42932 -2.40473 0
M  V30 4753 H 464.038 -3.63947 -0.861321 0
M  V30 4754 H 466.33 -6.19886 -2.734 0
M  V30 4755 H 467.273 -6.94071 -1.40251 0
M  V30 4756 H 467.681 -5.29226 -1.96419 0
M  V30 4757 N 467.08 -0.0183926 -1.57589 0
M  V30 4758 C 468.31 0.67207 -1.95363 0
M  V30 4759 C 468.718 1.66807 -0.892872 0
M  V30 4760 O 468.061 1.83204 0.134958 0
M  V30 4761 C 468.123 1.44397 -3.29226 0
M  V30 4762 C 467.787 0.607511 -4.52944 0
M  V30 4763 C 468.784 -0.112657 -5.19778 0
M  V30 4764 C 466.469 0.548068 -4.99301 0
M  V30 4765 C 468.463 -0.881057 -6.31281 0
M  V30 4766 C 466.15 -0.224044 -6.10689 0
M  V30 4767 C 467.148 -0.937323 -6.76538 0
M  V30 4768 O 466.836 -1.6968 -7.85789 0
M  V30 4769 H 466.568 0.190925 -0.648478 0
M  V30 4770 H 469.122 -0.0711994 -2.05277 0
M  V30 4771 H 467.352 2.23214 -3.15773 0
M  V30 4772 H 469.041 2.02152 -3.51979 0
M  V30 4773 H 469.807 -0.0759998 -4.8494 0
M  V30 4774 H 465.686 1.09281 -4.4786 0
M  V30 4775 H 469.23 -1.43832 -6.82611 0
M  V30 4776 H 465.127 -0.262457 -6.44966 0
M  V30 4777 H 465.895 -1.61544 -8.024 0
M  V30 4778 N 468.558 1.5553 0.254621 0
M  V30 4779 C 469.49 1.86104 1.33783 0
M  V30 4780 C 470.503 0.746752 1.44663 0
M  V30 4781 O 471.692 1.0248 1.46151 0
M  V30 4782 C 468.792 2.02532 2.71724 0
M  V30 4783 C 467.965 3.33335 2.83208 0
M  V30 4784 C 467.024 3.396 4.01943 0
M  V30 4785 O 466.05 4.12862 3.91834 0
M  V30 4786 N 467.252 2.68332 5.1476 0
M  V30 4787 H 470.017 2.79605 1.07893 0
M  V30 4788 H 467.578 1.55672 0.444732 0
M  V30 4789 H 469.57 2.04074 3.4948 0
M  V30 4790 H 468.14 1.15811 2.90356 0
M  V30 4791 H 467.36 3.44176 1.92189 0
M  V30 4792 H 468.648 4.19565 2.87824 0
M  V30 4793 H 468.046 2.08528 5.25864 0
M  V30 4794 H 466.603 2.75575 5.90679 0
M  V30 4795 N 470.036 -0.519951 1.48776 0
M  V30 4796 C 471.313 -1.28123 1.47797 0
M  V30 4797 C 471.693 -2.10196 0.195157 0
M  V30 4798 O 471.041 -2.13167 -0.822925 0
M  V30 4799 C 471.251 -2.15413 2.74587 0
M  V30 4800 C 472.599 -2.75225 3.23321 0
M  V30 4801 O 473.623 -2.25694 2.75574 0
M  V30 4802 O 472.482 -3.65346 4.06429 0
M  V30 4803 H 469.576 -0.578793 0.590701 0
M  V30 4804 H 472.122 -0.535779 1.6102 0
M  V30 4805 H 470.894 -1.54617 3.59457 0
M  V30 4806 H 470.517 -2.97186 2.64132 0
M  V30 4807 N 471.514 -1.37532 -0.769588 0
M  V30 4808 C 472.763 -1.32183 -1.5235 0
M  V30 4809 C 473.076 0.0906555 -1.9539 0
M  V30 4810 O 474.282 0.266628 -2.70188 0
M  V30 4811 C 472.738 -2.32029 -2.75119 0
M  V30 4812 C 472.346 -3.78816 -2.3917 0
M  V30 4813 C 474.09 -2.35694 -3.53056 0
M  V30 4814 C 471.997 -4.70388 -3.58453 0
M  V30 4815 H 470.927 -0.491275 -0.571984 0
M  V30 4816 H 473.578 -1.63004 -0.842739 0
M  V30 4817 H 471.96 -1.94229 -3.45096 0
M  V30 4818 H 473.134 -4.25466 -1.76962 0
M  V30 4819 H 471.449 -3.78117 -1.74402 0
M  V30 4820 H 474.046 -3.01312 -4.41718 0
M  V30 4821 H 474.389 -1.37117 -3.93071 0
M  V30 4822 H 474.922 -2.72212 -2.90078 0
M  V30 4823 H 471.661 -5.70102 -3.23518 0
M  V30 4824 H 471.181 -4.28442 -4.19758 0
M  V30 4825 H 472.86 -4.87628 -4.25239 0
M  V30 4826 N 472.992 0.995999 -1.22138 0
M  V30 4827 C 473.94 2.10673 -0.985876 0
M  V30 4828 C 474.934 1.69255 0.0699553 0
M  V30 4829 O 476.14 1.79812 -0.0822176 0
M  V30 4830 H 472.515 0.688865 -0.30161 0
M  V30 4831 H 474.486 2.27711 -1.92848 0
M  V30 4832 C 473.235 3.42881 -0.576909 0
M  V30 4833 H 472.558 3.75191 -1.38101 0
M  V30 4834 H 473.998 4.21589 -0.451518 0
M  V30 4835 C 472.457 3.29265 0.713196 0
M  V30 4836 O 472.987 3.60777 1.76643 0
M  V30 4837 N 471.193 2.82456 0.683162 0
M  V30 4838 H 470.74 2.5701 -0.174242 0
M  V30 4839 H 470.698 2.73727 1.54663 0
M  V30 4840 N 474.47 1.03057 1.19235 0
M  V30 4841 C 475.716 0.738841 1.89506 0
M  V30 4842 C 476.071 -0.724807 1.78225 0
M  V30 4843 O 475.364 -1.52118 1.16494 0
M  V30 4844 C 475.558 1.1268 3.39172 0
M  V30 4845 C 475.387 2.62662 3.65019 0
M  V30 4846 C 474.157 3.29658 3.82954 0
M  V30 4847 C 476.355 3.60873 3.66436 0
M  V30 4848 N 474.337 4.68726 3.96446 0
M  V30 4849 C 475.708 4.85566 3.8552 0
M  V30 4850 C 477.763 3.54647 3.49471 0
M  V30 4851 C 476.466 6.04783 3.89397 0
M  V30 4852 C 478.492 4.73281 3.54625 0
M  V30 4853 C 477.854 5.96789 3.74196 0
M  V30 4854 H 473.953 0.322256 0.712513 0
M  V30 4855 H 476.537 1.31822 1.43287 0
M  V30 4856 H 474.708 0.575612 3.84111 0
M  V30 4857 H 476.44 0.787145 3.96971 0
M  V30 4858 H 473.195 2.8007 3.81913 0
M  V30 4859 H 473.619 5.40971 4.07037 0
M  V30 4860 H 478.261 2.60143 3.33295 0
M  V30 4861 H 475.979 6.99654 4.04364 0
M  V30 4862 H 479.565 4.70094 3.42787 0
M  V30 4863 H 478.445 6.87051 3.78061 0
M  V30 4864 N 475.948 -1.35272 0.808662 0
M  V30 4865 C 477.225 -1.93077 0.313181 0
M  V30 4866 C 477.605 -1.73847 -1.19752 0
M  V30 4867 O 476.953 -1.1087 -1.998 0
M  V30 4868 C 477.163 -3.41347 0.726859 0
M  V30 4869 C 478.511 -4.18493 0.717532 0
M  V30 4870 O 479.535 -3.4987 0.668535 0
M  V30 4871 O 478.394 -5.40937 0.777779 0
M  V30 4872 H 475.488 -0.822885 0.0824018 0
M  V30 4873 H 478.034 -1.44335 0.892499 0
M  V30 4874 H 476.806 -3.49082 1.76797 0
M  V30 4875 H 476.429 -3.97411 0.122461 0
M  V30 4876 N 477.426 -0.562348 -1.47226 0
M  V30 4877 C 478.374 0.195476 -2.31777 0
M  V30 4878 C 479.368 0.90433 -1.43242 0
M  V30 4879 O 480.574 0.825031 -1.59979 0
M  V30 4880 H 476.949 0.0819095 -0.747526 0
M  V30 4881 H 478.92 -0.536753 -2.93533 0
M  V30 4882 C 477.669 1.20902 -3.26003 0
M  V30 4883 H 476.992 0.672997 -3.94095 0
M  V30 4884 H 478.432 1.71006 -3.87986 0
M  V30 4885 C 476.891 2.25955 -2.49891 0
M  V30 4886 O 477.421 3.32969 -2.2471 0
M  V30 4887 N 475.627 2.00019 -2.1081 0
M  V30 4888 H 475.174 1.13006 -2.31489 0
M  V30 4889 H 475.132 2.70523 -1.60201 0
M  V30 4890 N 478.904 1.54736 -0.299062 0
M  V30 4891 C 480.181 1.92187 0.363802 0
M  V30 4892 C 480.561 1.22607 1.71845 0
M  V30 4893 O 479.909 0.361141 2.25628 0
M  V30 4894 C 480.119 3.45678 0.480377 0
M  V30 4895 C 481.467 4.17885 0.752147 0
M  V30 4896 O 482.491 3.51702 0.564264 0
M  V30 4897 O 481.35 5.35048 1.11294 0
M  V30 4898 H 478.444 0.801681 0.203066 0
M  V30 4899 H 480.99 1.66115 -0.346978 0
M  V30 4900 H 479.762 3.88443 -0.471999 0
M  V30 4901 H 479.385 3.77779 1.2397 0
M  V30 4902 N 480.382 0.0267497 1.57577 0
M  V30 4903 C 481.33 -0.973923 2.11229 0
M  V30 4904 C 482.324 -1.33849 1.03831 0
M  V30 4905 O 483.53 -1.321 1.22269 0
M  V30 4906 H 479.905 -0.331844 0.674821 0
M  V30 4907 H 481.876 -0.496092 2.94247 0
M  V30 4908 C 480.625 -2.24798 2.65257 0
M  V30 4909 H 479.948 -1.9762 3.47543 0
M  V30 4910 H 481.388 -2.93031 3.06445 0
M  V30 4911 C 479.847 -2.97611 1.57891 0
M  V30 4912 O 480.377 -3.89629 0.97735 0
M  V30 4913 N 478.583 -2.59905 1.29992 0
M  V30 4914 H 478.13 -1.85154 1.79097 0
M  V30 4915 H 478.088 -3.08932 0.583798 0
M  V30 4916 N 481.861 -1.55662 -0.24637 0
M  V30 4917 C 483.109 -1.77168 -0.972411 0
M  V30 4918 C 483.43 -0.590827 -1.85834 0
M  V30 4919 O 482.7 0.393365 -1.9191 0
M  V30 4920 H 481.28 -0.653405 -0.362038 0
M  V30 4921 H 483.942 -1.93101 -0.264189 0
M  V30 4922 H 483.038 -2.68335 -1.59382 0
M  V30 4923 N 483.339 0.512053 -1.4905 0
M  V30 4924 C 484.567 1.29116 -1.61669 0
M  V30 4925 C 484.982 1.86655 -0.283787 0
M  V30 4926 O 484.339 1.67293 0.729331 0
M  V30 4927 C 484.39 2.4293 -2.67707 0
M  V30 4928 O 484.111 1.87758 -3.95826 0
M  V30 4929 C 485.612 3.34476 -2.90931 0
M  V30 4930 H 482.832 0.392009 -0.544583 0
M  V30 4931 H 485.376 0.615881 -1.95006 0
M  V30 4932 H 483.531 3.06308 -2.37179 0
M  V30 4933 H 483.945 2.62393 -4.54148 0
M  V30 4934 H 485.419 4.10642 -3.68886 0
M  V30 4935 H 485.896 3.90801 -2.00427 0
M  V30 4936 H 486.502 2.76874 -3.22832 0
M  V30 4937 N 484.817 1.37938 0.762283 0
M  V30 4938 C 485.764 1.34467 1.87583 0
M  V30 4939 C 486.734 0.208633 1.64785 0
M  V30 4940 O 487.919 0.399494 1.86571 0
M  V30 4941 C 485.059 1.16692 3.24772 0
M  V30 4942 C 484.172 2.39608 3.59461 0
M  V30 4943 C 483.307 2.14631 4.85908 0
M  V30 4944 C 482.346 3.33364 5.13357 0
M  V30 4945 N 481.483 3.07877 6.30996 0
M  V30 4946 H 486.323 2.29669 1.89885 0
M  V30 4947 H 483.86 1.14116 0.928219 0
M  V30 4948 H 485.818 1.04405 4.03925 0
M  V30 4949 H 484.448 0.251333 3.2182 0
M  V30 4950 H 483.5 2.626 2.75219 0
M  V30 4951 H 484.812 3.28128 3.75678 0
M  V30 4952 H 483.966 1.99429 5.72986 0
M  V30 4953 H 482.705 1.23463 4.71814 0
M  V30 4954 H 481.71 3.49094 4.24751 0
M  V30 4955 H 482.935 4.25395 5.29354 0
M  V30 4956 H 480.881 2.19348 6.18241 0
M  V30 4957 H 480.798 3.89944 6.47673 0
M  V30 4958 H 482.066 2.96313 7.20985 0
M  V30 4959 N 486.295 -0.989507 1.22664 0
M  V30 4960 C 487.541 -1.73298 1.06487 0
M  V30 4961 C 487.896 -1.88292 -0.395438 0
M  V30 4962 O 487.189 -1.41748 -1.28911 0
M  V30 4963 C 487.383 -3.13649 1.71345 0
M  V30 4964 C 487.212 -3.12341 3.23532 0
M  V30 4965 C 485.982 -3.18044 3.92653 0
M  V30 4966 C 488.18 -2.96226 4.20422 0
M  V30 4967 N 486.162 -3.06526 5.31898 0
M  V30 4968 C 487.533 -2.92773 5.4652 0
M  V30 4969 C 489.588 -2.80642 4.11271 0
M  V30 4970 C 488.291 -2.75332 6.64519 0
M  V30 4971 C 490.317 -2.64563 5.28924 0
M  V30 4972 C 489.679 -2.618 6.53942 0
M  V30 4973 H 485.778 -0.643643 0.444126 0
M  V30 4974 H 488.362 -1.17489 1.55256 0
M  V30 4975 H 486.533 -3.67694 1.25122 0
M  V30 4976 H 488.265 -3.76577 1.48229 0
M  V30 4977 H 485.02 -3.25861 3.43673 0
M  V30 4978 H 485.444 -3.04067 6.04874 0
M  V30 4979 H 490.086 -2.81574 3.15398 0
M  V30 4980 H 487.804 -2.73145 7.60538 0
M  V30 4981 H 491.39 -2.53482 5.23677 0
M  V30 4982 H 490.27 -2.49511 7.43447 0
M  V30 4983 N 487.773 -1.03688 -1.18687 0
M  V30 4984 C 489.019 -0.74888 -1.89112 0
M  V30 4985 C 489.374 0.715345 -1.78607 0
M  V30 4986 O 488.667 1.51498 -1.17299 0
M  V30 4987 C 488.861 -1.14477 -3.3857 0
M  V30 4988 C 488.69 -2.64594 -3.63621 0
M  V30 4989 C 487.46 -3.31685 -3.812 0
M  V30 4990 C 489.658 -3.62811 -3.64517 0
M  V30 4991 N 487.64 -4.70822 -3.93955 0
M  V30 4992 C 489.011 -4.87603 -3.8294 0
M  V30 4993 C 491.066 -3.56495 -3.47585 0
M  V30 4994 C 489.769 -6.0684 -3.86184 0
M  V30 4995 C 491.795 -4.75155 -3.52111 0
M  V30 4996 C 491.157 -5.98765 -3.71026 0
M  V30 4997 H 487.256 -0.32603 -0.710794 0
M  V30 4998 H 489.84 -1.3258 -1.42586 0
M  V30 4999 H 488.011 -0.595974 -3.838 0
M  V30 5000 H 489.743 -0.808187 -3.96548 0
M  V30 5001 H 486.498 -2.82091 -3.80423 0
M  V30 5002 H 486.922 -5.43122 -4.04163 0
M  V30 5003 H 491.564 -2.61907 -3.31911 0
M  V30 5004 H 489.282 -7.01788 -4.00648 0
M  V30 5005 H 492.868 -4.71905 -3.40289 0
M  V30 5006 H 491.748 -6.89047 -3.74412 0
M  V30 5007 N 489.251 1.34841 -0.815825 0
M  V30 5008 C 490.479 2.0273 -0.413294 0
M  V30 5009 C 490.894 1.61459 0.978599 0
M  V30 5010 O 490.251 0.816584 1.63212 0
M  V30 5011 C 490.302 3.58058 -0.497676 0
M  V30 5012 O 490.023 3.97832 -1.8347 0
M  V30 5013 C 491.524 4.4321 -0.0891339 0
M  V30 5014 H 488.744 0.649956 -0.166728 0
M  V30 5015 H 491.288 1.72267 -1.10201 0
M  V30 5016 H 489.443 3.87136 0.142886 0
M  V30 5017 H 489.857 4.92501 -1.80396 0
M  V30 5018 H 491.331 5.5164 -0.199274 0
M  V30 5019 H 491.808 4.28432 0.966571 0
M  V30 5020 H 492.414 4.19446 -0.703214 0
M  V30 5021 N 490.729 0.570148 1.46925 0
M  V30 5022 C 491.975 0.0510284 2.02736 0
M  V30 5023 C 492.308 -1.3006 1.44215 0
M  V30 5024 O 491.583 -1.84932 0.602521 0
M  V30 5025 C 491.866 -0.028215 3.60089 0
M  V30 5026 C 491.719 1.35142 4.29018 0
M  V30 5027 C 493.038 -0.735181 4.33916 0
M  V30 5028 H 490.157 0.0200178 0.736728 0
M  V30 5029 H 492.799 0.73493 1.75211 0
M  V30 5030 H 490.949 -0.610648 3.83671 0
M  V30 5031 H 492.621 1.97806 4.16738 0
M  V30 5032 H 490.864 1.9226 3.88868 0
M  V30 5033 H 491.535 1.24857 5.37694 0
M  V30 5034 H 494.011 -0.240519 4.15404 0
M  V30 5035 H 492.887 -0.759622 5.43618 0
M  V30 5036 H 493.148 -1.79397 4.04066 0
M  V30 5037 N 492.207 -1.54576 0.307264 0
M  V30 5038 C 493.455 -1.99867 -0.299574 0
M  V30 5039 C 493.776 -1.19714 -1.53927 0
M  V30 5040 O 493.046 -0.29472 -1.9367 0
M  V30 5041 H 491.626 -0.738299 -0.113683 0
M  V30 5042 H 494.288 -1.9032 0.420042 0
M  V30 5043 H 493.384 -3.06901 -0.567283 0
M  V30 5044 N 493.685 -0.035106 -1.57561 0
M  V30 5045 C 494.934 0.641604 -1.91223 0
M  V30 5046 C 495.247 1.72944 -0.913761 0
M  V30 5047 O 496.453 2.46321 -1.14185 0
M  V30 5048 C 494.909 1.19249 -3.3957 0
M  V30 5049 C 494.517 0.137616 -4.47789 0
M  V30 5050 C 496.261 1.84537 -3.82291 0
M  V30 5051 C 494.168 0.700478 -5.87237 0
M  V30 5052 H 493.098 0.243417 -0.713627 0
M  V30 5053 H 495.749 -0.101382 -1.8322 0
M  V30 5054 H 494.131 1.98728 -3.42525 0
M  V30 5055 H 495.305 -0.635153 -4.56402 0
M  V30 5056 H 493.62 -0.416855 -4.14308 0
M  V30 5057 H 496.217 2.27616 -4.83834 0
M  V30 5058 H 496.56 2.69054 -3.17672 0
M  V30 5059 H 497.093 1.11739 -3.81784 0
M  V30 5060 H 493.832 -0.106693 -6.55413 0
M  V30 5061 H 493.352 1.4416 -5.82218 0
M  V30 5062 H 495.031 1.18837 -6.35993 0
M  V30 5063 N 495.163 1.55791 0.238111 0
M  V30 5064 C 496.579 1.48411 0.587045 0
M  V30 5065 C 496.779 0.72702 1.87927 0
M  V30 5066 O 495.835 0.259942 2.51158 0
M  V30 5067 C 497.148 2.92873 0.681623 0
M  V30 5068 C 498.696 3.03295 0.773363 0
M  V30 5069 C 499.171 4.49082 0.899428 0
M  V30 5070 N 500.662 4.53056 0.964075 0
M  V30 5071 C 501.397 5.63117 1.08104 0
M  V30 5072 N 500.893 6.82969 1.16299 0
M  V30 5073 N 502.686 5.50933 1.11488 0
M  V30 5074 H 494.837 2.0345 -0.610076 0
M  V30 5075 H 497.1 0.924034 -0.211813 0
M  V30 5076 H 496.806 3.51142 -0.19802 0
M  V30 5077 H 496.68 3.43851 1.55069 0
M  V30 5078 H 499.067 2.45101 1.64346 0
M  V30 5079 H 499.148 2.55513 -0.121034 0
M  V30 5080 H 498.792 5.07889 0.0338586 0
M  V30 5081 H 498.722 4.94553 1.809 0
M  V30 5082 H 501.213 3.66737 0.91173 0
M  V30 5083 H 501.526 7.62598 1.25155 0
M  V30 5084 H 499.871 6.85712 1.13241 0
M  V30 5085 H 503.062 4.56231 1.0474 0
M  V30 5086 H 503.235 6.36743 1.20259 0
M  V30 5087 N 496.642 -0.504142 1.49319 0
M  V30 5088 C 498.053 -1.08572 1.51885 0
M  V30 5089 C 498.404 -1.93842 0.303255 0
M  V30 5090 O 497.529 -2.0828 -0.58724 0
M  V30 5091 C 498.124 -1.97574 2.75227 0
M  V30 5092 C 496.683 -2.509 2.80581 0
M  V30 5093 C 495.83 -1.28447 2.45757 0
M  V30 5094 H 498.781 -0.288194 1.56061 0
M  V30 5095 H 498.802 -2.82219 2.55211 0
M  V30 5096 H 498.314 -1.35486 3.63683 0
M  V30 5097 H 496.415 -3.16636 1.96398 0
M  V30 5098 H 496.528 -2.88268 3.82673 0
M  V30 5099 H 494.892 -1.60868 1.97468 0
M  V30 5100 H 495.675 -0.68072 3.36483 0
M  V30 5101 N 498.12 -1.38341 -0.754957 0
M  V30 5102 C 499.053 -1.29837 -1.87663 0
M  V30 5103 C 500.031 -0.175659 -1.61648 0
M  V30 5104 O 501.215 -0.352745 -1.8517 0
M  V30 5105 C 498.342 -1.01141 -3.23246 0
M  V30 5106 C 497.388 -2.15331 -3.6815 0
M  V30 5107 S 498.221 -3.77459 -3.79849 0
M  V30 5108 C 499.377 -3.50948 -5.18253 0
M  V30 5109 H 499.61 -2.24771 -1.9459 0
M  V30 5110 H 497.143 -1.24161 -0.917796 0
M  V30 5111 H 499.101 -0.852687 -4.01546 0
M  V30 5112 H 497.762 -0.0792784 -3.14 0
M  V30 5113 H 496.955 -1.90795 -4.6649 0
M  V30 5114 H 496.557 -2.27304 -2.97 0
M  V30 5115 H 498.849 -3.06977 -6.03963 0
M  V30 5116 H 499.792 -4.48677 -5.47809 0
M  V30 5117 H 500.2 -2.85492 -4.86985 0
M  V30 5118 N 499.598 0.982988 -1.23187 0
M  V30 5119 C 500.828 1.75666 -1.08743 0
M  V30 5120 C 501.236 1.85662 0.364195 0
M  V30 5121 O 500.579 1.33317 1.26382 0
M  V30 5122 C 500.641 3.20144 -1.63549 0
M  V30 5123 C 500.305 3.33665 -3.12277 0
M  V30 5124 C 501.302 3.20194 -4.096 0
M  V30 5125 C 498.987 3.58397 -3.51933 0
M  V30 5126 C 500.981 3.31256 -5.44563 0
M  V30 5127 C 498.668 3.69098 -4.87042 0
M  V30 5128 C 499.666 3.55537 -5.83166 0
M  V30 5129 O 499.354 3.65864 -7.1582 0
M  V30 5130 H 499.086 0.558194 -0.381307 0
M  V30 5131 H 501.64 1.24387 -1.63454 0
M  V30 5132 H 499.87 3.72659 -1.03256 0
M  V30 5133 H 501.559 3.79262 -1.4462 0
M  V30 5134 H 502.325 3.00987 -3.80305 0
M  V30 5135 H 498.204 3.68025 -2.77631 0
M  V30 5136 H 501.748 3.20588 -6.19572 0
M  V30 5137 H 497.645 3.87814 -5.16014 0
M  V30 5138 H 498.413 3.82675 -7.23534 0
M  V30 5139 N 501.076 1.04316 1.18135 0
M  V30 5140 C 502.023 0.636398 2.21853 0
M  V30 5141 C 502.993 -0.357039 1.62217 0
M  V30 5142 O 504.178 -0.250453 1.89149 0
M  V30 5143 C 501.318 0.00812779 3.45099 0
M  V30 5144 C 500.431 1.04933 4.19062 0
M  V30 5145 C 499.566 0.389313 5.29771 0
M  V30 5146 C 498.605 1.41544 5.9551 0
M  V30 5147 N 497.742 0.78021 6.97751 0
M  V30 5148 H 502.582 1.52536 2.56002 0
M  V30 5149 H 500.119 0.76304 1.25762 0
M  V30 5150 H 502.077 -0.373497 4.15525 0
M  V30 5151 H 500.707 -0.844336 3.11562 0
M  V30 5152 H 499.759 1.54888 3.47439 0
M  V30 5153 H 501.071 1.82862 4.64072 0
M  V30 5154 H 500.225 -0.0463805 6.06682 0
M  V30 5155 H 498.964 -0.422038 4.8587 0
M  V30 5156 H 497.969 1.86124 5.17337 0
M  V30 5157 H 499.194 2.22854 6.41493 0
M  V30 5158 H 497.14 -0.0107899 6.55999 0
M  V30 5159 H 497.057 1.49716 7.41027 0
M  V30 5160 H 498.325 0.368996 7.78626 0
M  V30 5161 N 502.554 -1.34406 0.822964 0
M  V30 5162 C 503.8 -1.98999 0.420847 0
M  V30 5163 C 504.155 -1.64067 -1.00498 0
M  V30 5164 O 503.448 -0.902071 -1.69036 0
M  V30 5165 C 503.642 -3.52981 0.560268 0
M  V30 5166 C 503.471 -4.02873 1.99809 0
M  V30 5167 C 502.241 -4.31463 2.62998 0
M  V30 5168 C 504.439 -4.20241 2.96483 0
M  V30 5169 N 502.421 -4.6739 3.9802 0
M  V30 5170 C 503.792 -4.59348 4.16413 0
M  V30 5171 C 505.847 -4.02489 2.93098 0
M  V30 5172 C 504.55 -4.82559 5.33413 0
M  V30 5173 C 506.576 -4.26866 4.09315 0
M  V30 5174 C 505.938 -4.6626 5.27997 0
M  V30 5175 H 502.037 -0.755432 0.202104 0
M  V30 5176 H 504.621 -1.62815 1.06767 0
M  V30 5177 H 502.792 -3.88359 -0.0566596 0
M  V30 5178 H 504.524 -4.04487 0.131146 0
M  V30 5179 H 501.279 -4.22373 2.14238 0
M  V30 5180 H 501.703 -4.89588 4.67582 0
M  V30 5181 H 506.345 -3.71161 2.02483 0
M  V30 5182 H 504.063 -5.12754 6.24587 0
M  V30 5183 H 507.649 -4.14667 4.08096 0
M  V30 5184 H 506.529 -4.84752 6.16429 0
M  V30 5185 N 504.032 -0.577932 -1.46621 0
M  V30 5186 C 505.26 -0.0671642 -2.06791 0
M  V30 5187 C 505.675 1.23571 -1.42743 0
M  V30 5188 O 505.032 1.74602 -0.531062 0
M  V30 5189 C 505.083 0.110357 -3.61332 0
M  V30 5190 O 504.804 -1.14095 -4.22982 0
M  V30 5191 C 506.305 0.656025 -4.38419 0
M  V30 5192 H 503.525 -0.0552732 -0.66872 0
M  V30 5193 H 506.069 -0.797242 -1.8832 0
M  V30 5194 H 504.224 0.790637 -3.79246 0
M  V30 5195 H 504.638 -0.951742 -5.15793 0
M  V30 5196 H 506.112 0.729438 -5.47159 0
M  V30 5197 H 506.589 1.67195 -4.06131 0
M  V30 5198 H 507.195 0.0107692 -4.25299 0
M  V30 5199 N 505.51 1.54411 -0.315457 0
M  V30 5200 C 506.921 1.85885 0.174265 0
M  V30 5201 C 507.272 1.23723 1.52273 0
M  V30 5202 O 506.397 0.540246 2.09548 0
M  V30 5203 C 506.992 3.37257 0.322981 0
M  V30 5204 C 505.551 3.68711 0.756922 0
M  V30 5205 C 504.698 2.77013 -0.126195 0
M  V30 5206 H 507.649 1.49374 -0.536007 0
M  V30 5207 H 507.67 3.62539 1.15522 0
M  V30 5208 H 507.182 3.82471 -0.658602 0
M  V30 5209 H 505.283 3.29024 1.74854 0
M  V30 5210 H 505.396 4.75741 0.566291 0
M  V30 5211 H 503.76 2.51588 0.39692 0
M  V30 5212 H 504.543 3.25051 -1.1044 0
M  V30 5213 N 506.988 0.0434614 1.5754 0
M  V30 5214 C 508.237 -0.631454 1.91561 0
M  V30 5215 C 508.55 -1.72457 0.92292 0
M  V30 5216 O 509.756 -2.45712 1.15489 0
M  V30 5217 C 508.212 -1.17447 3.40197 0
M  V30 5218 C 507.82 -0.113867 4.47855 0
M  V30 5219 C 509.564 -1.82507 3.83264 0
M  V30 5220 C 507.471 -0.669326 5.876 0
M  V30 5221 H 506.401 -0.239629 0.714908 0
M  V30 5222 H 509.052 0.111097 1.83163 0
M  V30 5223 H 507.434 -1.96909 3.43574 0
M  V30 5224 H 508.608 0.659348 4.56058 0
M  V30 5225 H 506.923 0.438821 4.14081 0
M  V30 5226 H 509.52 -2.25047 4.85034 0
M  V30 5227 H 509.863 -2.67365 3.19095 0
M  V30 5228 H 510.396 -1.09712 3.82372 0
M  V30 5229 H 507.135 0.141449 6.55347 0
M  V30 5230 H 506.655 -1.4107 5.82974 0
M  V30 5231 H 508.334 -1.15463 6.36614 0
M  V30 5232 N 508.466 -1.55915 -0.229846 0
M  V30 5233 C 509.399 -1.86734 -1.3117 0
M  V30 5234 C 510.377 -0.723947 -1.45595 0
M  V30 5235 O 511.561 -0.971462 -1.61539 0
M  V30 5236 C 508.688 -2.06707 -2.68309 0
M  V30 5237 C 507.734 -3.2938 -2.70944 0
M  V30 5238 S 508.567 -4.85547 -2.25842 0
M  V30 5239 C 509.723 -5.08546 -3.64873 0
M  V30 5240 H 509.956 -2.78204 -1.04832 0
M  V30 5241 H 507.489 -1.48243 -0.431681 0
M  V30 5242 H 509.447 -2.18898 -3.47267 0
M  V30 5243 H 508.108 -1.16049 -2.91876 0
M  V30 5244 H 507.301 -3.40374 -3.71701 0
M  V30 5245 H 506.903 -3.16004 -2.00044 0
M  V30 5246 H 509.195 -4.96935 -4.60502 0
M  V30 5247 H 510.138 -6.10465 -3.58801 0
M  V30 5248 H 510.546 -4.36314 -3.58176 0
M  V30 5249 N 509.944 0.496216 -1.49584 0
M  V30 5250 C 511.169 1.27865 -1.63295 0
M  V30 5251 C 511.594 1.85592 -0.306156 0
M  V30 5252 O 510.952 1.66092 0.726851 0
M  V30 5253 C 511 2.38128 -2.7079 0
M  V30 5254 O 510.104 3.42108 -2.30296 0
M  V30 5255 H 509.445 0.377279 -0.546403 0
M  V30 5256 H 511.975 0.593497 -1.95803 0
M  V30 5257 H 511.985 2.8382 -2.93104 0
M  V30 5258 H 510.66 1.95479 -3.67098 0
M  V30 5259 H 509.237 3.02301 -2.18331 0
M  V30 5260 N 511.423 1.38739 0.74761 0
M  V30 5261 C 512.651 1.38521 1.53686 0
M  V30 5262 C 513.066 -0.0235129 1.88785 0
M  V30 5263 O 512.423 -0.991662 1.53207 0
M  V30 5264 C 512.474 2.24641 2.83229 0
M  V30 5265 O 512.195 3.60026 2.49625 0
M  V30 5266 C 513.696 2.32669 3.77333 0
M  V30 5267 H 510.916 0.473589 0.475347 0
M  V30 5268 H 513.46 1.82395 0.924786 0
M  V30 5269 H 511.615 1.84213 3.40799 0
M  V30 5270 H 512.029 4.05435 3.3275 0
M  V30 5271 H 513.503 2.97201 4.65162 0
M  V30 5272 H 513.98 1.3421 4.18192 0
M  V30 5273 H 514.586 2.73512 3.25685 0
M  V30 5274 N 512.901 -0.976442 1.23707 0
M  V30 5275 C 514.147 -1.72081 1.07312 0
M  V30 5276 C 514.48 -1.90275 -0.388476 0
M  V30 5277 O 513.755 -1.4579 -1.28746 0
M  V30 5278 C 514.038 -3.11675 1.80363 0
M  V30 5279 C 513.891 -3.01027 3.3422 0
M  V30 5280 C 515.21 -4.1117 1.5693 0
M  V30 5281 H 512.329 -0.624583 0.391236 0
M  V30 5282 H 514.971 -1.13649 1.52263 0
M  V30 5283 H 513.121 -3.61559 1.42153 0
M  V30 5284 H 514.793 -2.58637 3.81975 0
M  V30 5285 H 513.036 -2.3744 3.63049 0
M  V30 5286 H 513.707 -3.9988 3.80525 0
M  V30 5287 H 516.183 -3.7011 1.90151 0
M  V30 5288 H 515.059 -5.06928 2.10513 0
M  V30 5289 H 515.32 -4.392 0.505548 0
M  V30 5290 N 514.379 -1.04941 -1.1758 0
M  V30 5291 C 515.312 -0.592518 -2.20373 0
M  V30 5292 C 516.29 0.377561 -1.58156 0
M  V30 5293 O 517.474 0.28978 -1.86259 0
M  V30 5294 C 514.601 0.133215 -3.38438 0
M  V30 5295 C 513.647 -0.791484 -4.19092 0
M  V30 5296 S 514.48 -2.27925 -4.84572 0
M  V30 5297 C 515.636 -1.56462 -6.06028 0
M  V30 5298 H 515.869 -1.46342 -2.58788 0
M  V30 5299 H 513.402 -0.861148 -1.28155 0
M  V30 5300 H 515.36 0.545746 -4.06856 0
M  V30 5301 H 514.021 0.980124 -2.98416 0
M  V30 5302 H 513.214 -0.230039 -5.03475 0
M  V30 5303 H 512.816 -1.14326 -3.56098 0
M  V30 5304 H 515.108 -0.862539 -6.71987 0
M  V30 5305 H 516.051 -2.38583 -6.66696 0
M  V30 5306 H 516.459 -1.05313 -5.5459 0
M  V30 5307 N 515.857 1.33968 -0.830081 0
M  V30 5308 C 516.767 2.33164 -0.259207 0
M  V30 5309 C 517.783 1.62951 0.610164 0
M  V30 5310 O 518.959 1.94668 0.516369 0
M  V30 5311 C 516.024 3.42088 0.563598 0
M  V30 5312 C 515.085 4.28037 -0.329014 0
M  V30 5313 C 514.318 5.3176 0.454616 0
M  V30 5314 O 514.541 5.44876 1.6872 0
M  V30 5315 O 513.475 6.01669 -0.166794 0
M  V30 5316 H 517.301 2.83832 -1.08041 0
M  V30 5317 H 514.886 1.37154 -0.59239 0
M  V30 5318 H 516.768 4.08581 1.03147 0
M  V30 5319 H 515.443 2.93651 1.36201 0
M  V30 5320 H 514.35 3.64443 -0.844538 0
M  V30 5321 H 515.683 4.79934 -1.09196 0
M  V30 5322 N 517.335 0.585699 1.46312 0
M  V30 5323 C 518.584 0.0701192 2.01578 0
M  V30 5324 C 518.897 -1.29889 1.46247 0
M  V30 5325 O 520.103 -1.90598 1.93351 0
M  V30 5326 C 518.559 0.0747499 3.59822 0
M  V30 5327 C 518.167 1.44226 4.24149 0
M  V30 5328 C 519.911 -0.38673 4.22735 0
M  V30 5329 C 517.818 1.40446 5.74481 0
M  V30 5330 H 516.748 0.0224441 0.753666 0
M  V30 5331 H 519.399 0.737789 1.68015 0
M  V30 5332 H 517.781 -0.659144 3.90476 0
M  V30 5333 H 518.955 2.19612 4.05101 0
M  V30 5334 H 517.27 1.84401 3.73343 0
M  V30 5335 H 519.867 -0.433853 5.32937 0
M  V30 5336 H 520.21 -1.40489 3.91878 0
M  V30 5337 H 520.743 0.293195 3.96718 0
M  V30 5338 H 517.482 2.39952 6.10003 0
M  V30 5339 H 517.002 0.692845 5.95785 0
M  V30 5340 H 518.681 1.11865 6.37256 0
M  V30 5341 N 518.813 -1.54241 0.323641 0
M  V30 5342 C 520.061 -2.00174 -0.278359 0
M  V30 5343 C 520.382 -1.2134 -1.52648 0
M  V30 5344 O 519.652 -0.315244 -1.93347 0
M  V30 5345 H 518.232 -0.739463 -0.105845 0
M  V30 5346 H 520.894 -1.89864 0.440204 0
M  V30 5347 H 519.99 -3.07486 -0.5347 0
M  V30 5348 N 520.291 -0.0518155 -1.57515 0
M  V30 5349 C 521.521 0.63048 -1.96745 0
M  V30 5350 C 521.929 1.64875 -0.928054 0
M  V30 5351 O 521.272 1.83449 0.0960678 0
M  V30 5352 C 521.334 1.37381 -3.32215 0
M  V30 5353 C 520.998 0.511298 -4.54131 0
M  V30 5354 C 521.995 -0.222884 -5.19422 0
M  V30 5355 C 519.68 0.442035 -5.00351 0
M  V30 5356 C 521.674 -1.01476 -6.2927 0
M  V30 5357 C 519.361 -0.35353 -6.10077 0
M  V30 5358 C 520.359 -1.08062 -6.74397 0
M  V30 5359 O 520.047 -1.8631 -7.82013 0
M  V30 5360 H 519.779 0.177126 -0.652382 0
M  V30 5361 H 522.333 -0.114726 -2.05079 0
M  V30 5362 H 520.563 2.16466 -3.20436 0
M  V30 5363 H 522.252 1.9464 -3.56188 0
M  V30 5364 H 523.018 -0.178846 -4.8467 0
M  V30 5365 H 518.897 0.997562 -4.50077 0
M  V30 5366 H 522.441 -1.58279 -6.79407 0
M  V30 5367 H 518.338 -0.399205 -6.44264 0
M  V30 5368 H 519.106 -1.78528 -7.98793 0
M  V30 5369 N 521.769 1.56035 0.221574 0
M  V30 5370 C 523.046 1.69837 0.970301 0
M  V30 5371 C 523.426 0.599065 2.02421 0
M  V30 5372 O 522.774 -0.393929 2.25079 0
M  V30 5373 C 522.984 3.11148 1.58076 0
M  V30 5374 C 524.332 3.70555 2.07302 0
M  V30 5375 O 525.356 3.14109 1.6797 0
M  V30 5376 O 524.215 4.69562 2.79596 0
M  V30 5377 H 521.309 0.691727 0.453257 0
M  V30 5378 H 523.855 1.68353 0.213358 0
M  V30 5379 H 522.627 3.82617 0.819759 0
M  V30 5380 H 522.25 3.16749 2.40324 0
M  V30 5381 N 523.247 -0.488276 1.49845 0
M  V30 5382 C 524.195 -1.60917 1.67954 0
M  V30 5383 C 525.189 -1.6038 0.54539 0
M  V30 5384 O 526.395 -1.64736 0.7254 0
M  V30 5385 H 522.77 -0.533658 0.529824 0
M  V30 5386 H 524.741 -1.428 2.62013 0
M  V30 5387 C 523.49 -2.98975 1.77509 0
M  V30 5388 H 522.813 -3.00099 2.6416 0
M  V30 5389 H 524.253 -3.76906 1.9421 0
M  V30 5390 C 522.712 -3.3282 0.522745 0
M  V30 5391 O 523.242 -4.00208 -0.345866 0
M  V30 5392 N 521.448 -2.8808 0.381882 0
M  V30 5393 H 520.995 -2.33415 1.08974 0
M  V30 5394 H 520.953 -3.11091 -0.454929 0
M  V30 5395 N 524.725 -1.39134 -0.740242 0
M  V30 5396 C 525.971 -1.36273 -1.50192 0
M  V30 5397 C 526.304 0.0430136 -1.94152 0
M  V30 5398 O 525.579 1.00691 -1.66408 0
M  V30 5399 C 525.862 -2.33041 -2.74525 0
M  V30 5400 C 525.715 -3.82535 -2.36617 0
M  V30 5401 C 527.034 -2.27723 -3.76604 0
M  V30 5402 H 524.153 -0.496323 -0.544823 0
M  V30 5403 H 526.795 -1.70085 -0.846815 0
M  V30 5404 H 524.945 -2.04337 -3.30422 0
M  V30 5405 H 526.617 -4.21967 -1.86391 0
M  V30 5406 H 524.86 -3.99565 -1.68909 0
M  V30 5407 H 525.531 -4.45723 -3.2563 0
M  V30 5408 H 528.007 -2.53091 -3.30279 0
M  V30 5409 H 526.883 -2.97519 -4.61274 0
M  V30 5410 H 527.144 -1.28049 -4.2315 0
M  V30 5411 N 526.204 0.969867 -1.24223 0
M  V30 5412 C 527.114 2.09806 -1.0497 0
M  V30 5413 C 528.13 1.73998 0.00886455 0
M  V30 5414 O 529.306 2.00513 -0.188848 0
M  V30 5415 C 526.371 3.40467 -0.654452 0
M  V30 5416 C 525.432 3.90236 -1.78926 0
M  V30 5417 C 524.665 5.14662 -1.41277 0
M  V30 5418 O 524.888 5.69602 -0.301632 0
M  V30 5419 O 523.822 5.58761 -2.23763 0
M  V30 5420 H 527.648 2.28942 -1.99548 0
M  V30 5421 H 525.233 1.08197 -1.03023 0
M  V30 5422 H 527.115 4.19039 -0.445452 0
M  V30 5423 H 525.79 3.22636 0.262216 0
M  V30 5424 H 524.697 3.12735 -2.05299 0
M  V30 5425 H 526.03 4.1254 -2.68462 0
M  V30 5426 N 527.682 1.05563 1.17022 0
M  V30 5427 C 528.907 0.788437 1.91829 0
M  V30 5428 C 529.332 -0.650356 1.76499 0
M  V30 5429 O 528.69 -1.45229 1.08527 0
M  V30 5430 C 528.738 1.1786 3.40795 0
M  V30 5431 O 527.842 0.312965 4.11211 0
M  V30 5432 H 527.183 0.288794 0.597908 0
M  V30 5433 H 529.713 1.40948 1.48307 0
M  V30 5434 H 529.723 1.14697 3.91546 0
M  V30 5435 H 528.398 2.22666 3.51273 0
M  V30 5436 H 526.975 0.405515 3.70689 0
M  V30 5437 N 529.16 -1.33526 0.837174 0
M  V30 5438 C 530.092 -2.28077 0.226579 0
M  V30 5439 C 531.105 -1.51666 -0.591717 0
M  V30 5440 O 532.294 -1.73511 -0.419064 0
M  V30 5441 C 529.394 -3.31597 -0.69978 0
M  V30 5442 C 528.567 -4.37329 0.0788067 0
M  V30 5443 C 527.626 -5.20526 -0.770637 0
M  V30 5444 O 526.652 -5.68811 -0.210453 0
M  V30 5445 N 527.854 -5.41639 -2.08825 0
M  V30 5446 H 530.619 -2.81115 1.03897 0
M  V30 5447 H 528.18 -1.46201 0.695476 0
M  V30 5448 H 530.172 -3.84158 -1.27298 0
M  V30 5449 H 528.742 -2.78848 -1.41288 0
M  V30 5450 H 527.962 -3.8529 0.833381 0
M  V30 5451 H 529.25 -5.05079 0.614238 0
M  V30 5452 H 528.648 -5.04108 -2.56693 0
M  V30 5453 H 527.205 -5.97263 -2.60998 0
M  V30 5454 N 530.638 -0.59345 -1.46 0
M  V30 5455 C 532.054 -0.255965 -1.57534 0
M  V30 5456 C 532.254 1.24167 -1.58697 0
M  V30 5457 O 531.31 2.02398 -1.50968 0
M  V30 5458 C 532.623 -0.91466 -2.86451 0
M  V30 5459 C 534.171 -0.889253 -3.00102 0
M  V30 5460 C 534.646 -1.52769 -4.3177 0
M  V30 5461 N 536.137 -1.49253 -4.38495 0
M  V30 5462 C 536.872 -1.9558 -5.39014 0
M  V30 5463 N 536.368 -2.49929 -6.46148 0
M  V30 5464 N 538.161 -1.86432 -5.30282 0
M  V30 5465 H 530.312 -1.56604 -1.43489 0
M  V30 5466 H 532.575 -0.655207 -0.685133 0
M  V30 5467 H 532.281 -1.96861 -2.91442 0
M  V30 5468 H 532.155 -0.429356 -3.74748 0
M  V30 5469 H 534.542 0.156111 -2.94687 0
M  V30 5470 H 534.623 -1.41268 -2.13253 0
M  V30 5471 H 534.267 -2.57231 -4.37944 0
M  V30 5472 H 534.197 -0.979398 -5.17412 0
M  V30 5473 H 536.688 -1.09536 -3.61677 0
M  V30 5474 H 537.001 -2.83109 -7.19075 0
M  V30 5475 H 535.346 -2.53961 -6.46938 0
M  V30 5476 H 538.537 -1.43722 -4.4549 0
M  V30 5477 H 538.71 -2.22852 -6.08474 0
M  V30 5478 N 532.116 1.54067 -0.331816 0
M  V30 5479 C 533.344 2.05131 0.269996 0
M  V30 5480 C 533.759 1.20749 1.45138 0
M  V30 5481 O 533.116 0.240069 1.80914 0
M  V30 5482 C 533.167 3.54728 0.696456 0
M  V30 5483 O 532.888 4.35906 -0.43794 0
M  V30 5484 C 534.389 4.21916 1.36021 0
M  V30 5485 H 531.609 0.668807 0.0542042 0
M  V30 5486 H 534.153 1.98777 -0.4804 0
M  V30 5487 H 532.308 3.61342 1.39681 0
M  V30 5488 H 532.722 5.24404 -0.100334 0
M  V30 5489 H 534.196 5.28015 1.60947 0
M  V30 5490 H 534.673 3.73538 2.31011 0
M  V30 5491 H 535.279 4.19463 0.702212 0
M  V30 5492 N 533.594 0.0601682 1.57485 0
M  V30 5493 C 534.842 -0.610386 1.92662 0
M  V30 5494 C 535.163 -1.70849 0.939981 0
M  V30 5495 O 534.433 -1.95895 -0.0137455 0
M  V30 5496 H 533.013 -0.228457 0.711208 0
M  V30 5497 H 535.675 0.115288 1.94559 0
M  V30 5498 H 534.771 -1.0432 2.94149 0
M  V30 5499 N 535.072 -1.5615 -0.213296 0
M  V30 5500 C 536.349 -1.70349 -0.961281 0
M  V30 5501 C 536.729 -0.609791 -2.02101 0
M  V30 5502 O 536.077 0.381987 -2.25285 0
M  V30 5503 C 536.287 -3.11982 -1.56424 0
M  V30 5504 C 537.635 -3.71649 -2.05334 0
M  V30 5505 O 538.659 -3.14995 -1.66302 0
M  V30 5506 O 537.518 -4.71038 -2.77102 0
M  V30 5507 H 534.612 -0.694121 -0.449582 0
M  V30 5508 H 537.158 -1.68464 -0.204426 0
M  V30 5509 H 535.93 -3.83046 -0.799457 0
M  V30 5510 H 535.553 -3.18019 -2.38641 0
M  V30 5511 N 536.55 0.480323 -1.50102 0
M  V30 5512 C 537.497 1.57946 -1.6829 0
M  V30 5513 C 538.467 1.57611 -0.524223 0
M  V30 5514 O 539.652 1.75282 -0.753709 0
M  V30 5515 C 536.792 2.95978 -1.77457 0
M  V30 5516 C 535.905 3.06173 -3.04766 0
M  V30 5517 C 535.04 4.35063 -3.04784 0
M  V30 5518 C 534.079 4.38966 -4.26586 0
M  V30 5519 N 533.216 5.59314 -4.24396 0
M  V30 5520 H 538.056 1.41743 -2.62131 0
M  V30 5521 H 535.593 0.689304 -1.2995 0
M  V30 5522 H 537.551 3.76011 -1.80752 0
M  V30 5523 H 536.181 3.10837 -0.870637 0
M  V30 5524 H 535.233 2.19071 -3.10986 0
M  V30 5525 H 536.545 3.04916 -3.9475 0
M  V30 5526 H 535.699 5.23436 -3.06757 0
M  V30 5527 H 534.438 4.38915 -2.12614 0
M  V30 5528 H 533.443 3.48992 -4.24835 0
M  V30 5529 H 534.668 4.36813 -5.19972 0
M  V30 5530 H 532.614 5.63969 -3.35074 0
M  V30 5531 H 532.531 5.5976 -5.08138 0
M  V30 5532 H 533.799 6.49837 -4.30502 0
M  V30 5533 N 538.028 1.39524 0.732853 0
M  V30 5534 C 538.976 1.38563 1.86824 0
M  V30 5535 C 539.97 0.268467 1.67259 0
M  V30 5536 O 541.176 0.438613 1.74574 0
M  V30 5537 H 537.551 0.432737 0.615014 0
M  V30 5538 H 539.522 2.34328 1.84751 0
M  V30 5539 C 538.271 1.2481 3.24527 0
M  V30 5540 H 537.594 2.10044 3.40179 0
M  V30 5541 H 539.034 1.28194 4.04156 0
M  V30 5542 C 537.493 -0.0432825 3.36872 0
M  V30 5543 O 538.023 -1.01268 3.88726 0
M  V30 5544 N 536.229 -0.107055 2.90403 0
M  V30 5545 H 535.776 0.682512 2.48394 0
M  V30 5546 H 535.734 -0.970618 2.99042 0
M  V30 5547 N 539.506 -0.963266 1.24736 0
M  V30 5548 C 540.454 -2.07985 1.04139 0
M  V30 5549 C 541.448 -1.69381 -0.0250556 0
M  V30 5550 O 542.654 -1.79531 0.129863 0
M  V30 5551 H 539.029 -0.680627 0.319768 0
M  V30 5552 H 541 -2.22517 1.98818 0
M  V30 5553 C 539.749 -3.4123 0.667615 0
M  V30 5554 H 539.072 -3.71397 1.48 0
M  V30 5555 H 540.512 -4.20244 0.563136 0
M  V30 5556 C 538.971 -3.3104 -0.625647 0
M  V30 5557 O 539.501 -3.65334 -1.67016 0
M  V30 5558 N 537.707 -2.84168 -0.608033 0
M  V30 5559 H 537.254 -2.56458 0.242323 0
M  V30 5560 H 537.212 -2.77732 -1.47352 0
M  V30 5561 N 540.985 -1.06182 -1.16461 0
M  V30 5562 C 541.917 -0.629584 -2.20383 0
M  V30 5563 C 542.93 0.311834 -1.59786 0
M  V30 5564 O 544.119 0.103 -1.78203 0
M  V30 5565 C 541.219 0.0973695 -3.3876 0
M  V30 5566 C 540.392 -0.857252 -4.28917 0
M  V30 5567 C 539.451 -0.169749 -5.25926 0
M  V30 5568 O 538.477 -0.807044 -5.6345 0
M  V30 5569 N 539.679 1.08911 -5.70192 0
M  V30 5570 H 542.444 -1.52352 -2.58087 0
M  V30 5571 H 540.005 -0.944993 -1.31459 0
M  V30 5572 H 541.997 0.567676 -4.00699 0
M  V30 5573 H 540.567 0.893093 -2.99571 0
M  V30 5574 H 539.787 -1.50696 -3.64259 0
M  V30 5575 H 541.075 -1.50489 -4.86035 0
M  V30 5576 H 540.473 1.62703 -5.41797 0
M  V30 5577 H 539.03 1.50331 -6.34227 0
M  V30 5578 N 542.463 1.3308 -0.844243 0
M  V30 5579 C 543.693 2.01515 -0.455541 0
M  V30 5580 C 544.101 1.63655 0.949406 0
M  V30 5581 O 543.444 0.84848 1.62931 0
M  V30 5582 C 543.506 3.55967 -0.502801 0
M  V30 5583 C 543.17 4.17222 -1.86481 0
M  V30 5584 C 544.167 4.36205 -2.8288 0
M  V30 5585 C 541.852 4.53528 -2.15911 0
M  V30 5586 C 543.846 4.90649 -4.06869 0
M  V30 5587 C 541.533 5.07679 -3.40155 0
M  V30 5588 C 542.531 5.26186 -4.35451 0
M  V30 5589 O 542.219 5.79183 -5.57496 0
M  V30 5590 H 541.951 0.65199 -0.178565 0
M  V30 5591 H 544.505 1.70867 -1.1399 0
M  V30 5592 H 542.735 3.85965 0.23836 0
M  V30 5593 H 544.424 4.05688 -0.131169 0
M  V30 5594 H 545.19 4.085 -2.61444 0
M  V30 5595 H 541.069 4.38414 -1.42528 0
M  V30 5596 H 544.613 5.0501 -4.81259 0
M  V30 5597 H 540.51 5.34815 -3.61446 0
M  V30 5598 H 541.278 5.97591 -5.5931 0
M  V30 5599 N 543.941 0.601185 1.45683 0
M  V30 5600 C 544.888 -0.121396 2.30481 0
M  V30 5601 C 545.858 -0.866232 1.41724 0
M  V30 5602 O 547.043 -0.85324 1.70659 0
M  V30 5603 C 544.183 -1.11704 3.26521 0
M  V30 5604 C 543.296 -0.373741 4.3038 0
M  V30 5605 C 542.431 -1.35854 5.13534 0
M  V30 5606 C 541.47 -0.602689 6.09126 0
M  V30 5607 N 540.607 -1.53645 6.85082 0
M  V30 5608 H 545.447 0.607732 2.91737 0
M  V30 5609 H 542.984 0.311502 1.43764 0
M  V30 5610 H 544.942 -1.70735 3.80664 0
M  V30 5611 H 543.572 -1.81366 2.67032 0
M  V30 5612 H 542.624 0.331962 3.78949 0
M  V30 5613 H 543.936 0.2163 4.98331 0
M  V30 5614 H 543.09 -2.02111 5.72046 0
M  V30 5615 H 541.829 -1.98251 4.45587 0
M  V30 5616 H 540.834 0.0735482 5.49751 0
M  V30 5617 H 542.059 0.0161467 6.79098 0
M  V30 5618 H 540.005 -2.14819 6.1983 0
M  V30 5619 H 539.922 -0.999688 7.49361 0
M  V30 5620 H 541.19 -2.1888 7.48139 0
M  V30 5621 N 545.419 -1.53889 0.339982 0
M  V30 5622 C 546.668 -2.00035 -0.258604 0
M  V30 5623 C 546.981 -1.23179 -1.51942 0
M  V30 5624 O 548.187 -1.59784 -2.19503 0
M  V30 5625 C 546.643 -3.56249 -0.511359 0
M  V30 5626 C 546.251 -4.41957 0.733349 0
M  V30 5627 C 547.995 -4.1082 -1.069 0
M  V30 5628 C 545.902 -5.89673 0.451591 0
M  V30 5629 H 544.832 -0.747284 -0.10041 0
M  V30 5630 H 547.483 -1.77776 0.454758 0
M  V30 5631 H 545.865 -3.7456 -1.28533 0
M  V30 5632 H 547.039 -4.35421 1.50815 0
M  V30 5633 H 545.354 -3.9836 1.21237 0
M  V30 5634 H 547.951 -5.18789 -1.2947 0
M  V30 5635 H 548.294 -3.63817 -2.02343 0
M  V30 5636 H 548.827 -3.96205 -0.355817 0
M  V30 5637 H 545.566 -6.40903 1.37565 0
M  V30 5638 H 545.086 -5.99122 -0.285193 0
M  V30 5639 H 546.765 -6.46965 0.0675067 0
M  V30 5640 N 546.897 -0.0685191 -1.57451 0
M  V30 5641 C 548.125 0.610462 -1.97689 0
M  V30 5642 C 548.54 1.63346 -0.946758 0
M  V30 5643 O 547.897 1.82377 0.0669868 0
M  V30 5644 C 547.948 1.28196 -3.38006 0
M  V30 5645 O 547.669 0.299906 -4.37072 0
M  V30 5646 C 549.17 2.04907 -3.931 0
M  V30 5647 H 546.39 0.165689 -0.650222 0
M  V30 5648 H 548.934 -0.139953 -2.04021 0
M  V30 5649 H 547.089 1.98348 -3.32771 0
M  V30 5650 H 547.503 0.78126 -5.18649 0
M  V30 5651 H 548.977 2.47287 -4.93511 0
M  V30 5652 H 549.454 2.9043 -3.29465 0
M  V30 5653 H 550.06 1.39629 -4.01726 0
M  V30 5654 N 548.375 1.56261 0.205012 0
M  V30 5655 C 549.305 1.96779 1.257 0
M  V30 5656 C 550.286 0.838309 1.48008 0
M  V30 5657 O 551.471 1.10189 1.59913 0
M  V30 5658 C 548.601 2.29876 2.60335 0
M  V30 5659 C 547.555 3.45469 2.52656 0
M  V30 5660 C 546.881 3.64215 3.91473 0
M  V30 5661 C 548.181 4.79954 2.06014 0
M  V30 5662 H 549.875 2.84904 0.920338 0
M  V30 5663 H 547.421 1.37072 0.441277 0
M  V30 5664 H 549.374 2.56814 3.34102 0
M  V30 5665 H 548.098 1.38622 2.95722 0
M  V30 5666 H 546.757 3.18605 1.81345 0
M  V30 5667 H 546.405 2.70309 4.24196 0
M  V30 5668 H 546.105 4.41973 3.87213 0
M  V30 5669 H 547.629 3.93519 4.66878 0
M  V30 5670 H 549.043 5.05989 2.69533 0
M  V30 5671 H 547.44 5.61111 2.12777 0
M  V30 5672 H 548.51 4.74201 1.01297 0
M  V30 5673 N 549.853 -0.472356 1.50355 0
M  V30 5674 C 550.816 -1.5529 1.68576 0
M  V30 5675 C 551.816 -1.50863 0.556511 0
M  V30 5676 O 553.006 -1.53505 0.823516 0
M  V30 5677 C 550.138 -2.94921 1.70981 0
M  V30 5678 H 551.331 -1.40451 2.64978 0
M  V30 5679 H 548.884 -0.698645 1.39816 0
M  V30 5680 H 549.619 -3.15204 0.762675 0
M  V30 5681 H 549.404 -2.99541 2.53017 0
M  V30 5682 H 550.894 -3.73372 1.87037 0
M  V30 5683 N 551.331 -1.39911 -0.725443 0
M  V30 5684 C 552.263 -1.35301 -1.85003 0
M  V30 5685 C 553.276 -0.260102 -1.60709 0
M  V30 5686 O 554.465 -0.519749 -1.70766 0
M  V30 5687 C 551.565 -1.08039 -3.21218 0
M  V30 5688 C 550.738 -2.28793 -3.7279 0
M  V30 5689 C 549.797 -1.97841 -4.87591 0
M  V30 5690 O 548.823 -2.70616 -5.00755 0
M  V30 5691 N 550.025 -0.950367 -5.72668 0
M  V30 5692 H 552.79 -2.32218 -1.89459 0
M  V30 5693 H 550.351 -1.34137 -0.90658 0
M  V30 5694 H 552.343 -0.853354 -3.95601 0
M  V30 5695 H 550.913 -0.198229 -3.11971 0
M  V30 5696 H 550.133 -2.67388 -2.8965 0
M  V30 5697 H 551.421 -3.09317 -4.03981 0
M  V30 5698 H 550.819 -0.347436 -5.64632 0
M  V30 5699 H 549.376 -0.783232 -6.47077 0
M  V30 5700 N 552.809 0.956637 -1.25245 0
M  V30 5701 C 553.741 2.05628 -1.01242 0
M  V30 5702 C 554.754 1.62785 0.0219579 0
M  V30 5703 O 555.943 1.77184 -0.216365 0
M  V30 5704 C 553.043 3.35069 -0.508161 0
M  V30 5705 C 552.216 4.06761 -1.60823 0
M  V30 5706 C 551.275 5.14473 -1.1047 0
M  V30 5707 O 550.301 5.40033 -1.79868 0
M  V30 5708 N 551.503 5.80474 0.0550773 0
M  V30 5709 H 554.268 2.2679 -1.95925 0
M  V30 5710 H 551.829 1.12505 -1.16423 0
M  V30 5711 H 553.821 4.044 -0.155819 0
M  V30 5712 H 552.391 3.10694 0.344683 0
M  V30 5713 H 551.611 3.31555 -2.13224 0
M  V30 5714 H 552.899 4.51418 -2.34733 0
M  V30 5715 H 552.297 5.62125 0.635004 0
M  V30 5716 H 550.854 6.50868 0.348469 0
M  V30 5717 N 554.287 1.06798 1.15896 0
M  V30 5718 C 555.533 0.798757 1.8706 0
M  V30 5719 C 555.888 -0.667739 1.80441 0
M  V30 5720 O 555.181 -1.48334 1.21274 0
M  V30 5721 C 555.375 1.23414 3.35416 0
M  V30 5722 C 555.204 2.74142 3.56478 0
M  V30 5723 C 553.974 3.41675 3.72272 0
M  V30 5724 C 556.172 3.72348 3.5477 0
M  V30 5725 N 554.154 4.81101 3.81333 0
M  V30 5726 C 555.525 4.97585 3.69877 0
M  V30 5727 C 557.58 3.65585 3.38011 0
M  V30 5728 C 556.283 6.16866 3.69959 0
M  V30 5729 C 558.309 4.84323 3.39389 0
M  V30 5730 C 557.671 6.08391 3.5502 0
M  V30 5731 H 553.77 0.344761 0.7019 0
M  V30 5732 H 556.354 1.36314 1.3902 0
M  V30 5733 H 554.525 0.697522 3.82085 0
M  V30 5734 H 556.257 0.91304 3.94266 0
M  V30 5735 H 553.012 2.92078 3.7281 0
M  V30 5736 H 553.436 5.53647 3.8962 0
M  V30 5737 H 558.078 2.70615 3.2485 0
M  V30 5738 H 555.796 7.12164 3.819 0
M  V30 5739 H 559.382 4.80762 3.27658 0
M  V30 5740 H 558.262 6.98731 3.56012 0
M  V30 5741 N 555.766 -1.3263 0.851289 0
M  V30 5742 C 556.698 -2.27824 0.250757 0
M  V30 5743 C 557.711 -1.52285 -0.575598 0
M  V30 5744 O 558.9 -1.73946 -0.400638 0
M  V30 5745 C 556 -3.3232 -0.664571 0
M  V30 5746 C 555.173 -4.37221 0.125187 0
M  V30 5747 C 554.232 -5.21314 -0.715385 0
M  V30 5748 O 553.258 -5.69002 -0.150111 0
M  V30 5749 N 554.46 -5.43823 -2.03069 0
M  V30 5750 H 557.225 -2.79997 1.06873 0
M  V30 5751 H 554.786 -1.45455 0.710943 0
M  V30 5752 H 556.778 -3.85486 -1.23216 0
M  V30 5753 H 555.348 -2.80331 -1.38323 0
M  V30 5754 H 554.568 -3.84384 0.874199 0
M  V30 5755 H 555.856 -5.04399 0.667774 0
M  V30 5756 H 555.254 -5.06803 -2.51332 0
M  V30 5757 H 553.811 -5.99998 -2.54648 0
M  V30 5758 N 557.244 -0.608902 -1.45362 0
M  V30 5759 C 558.207 0.0992563 -2.28985 0
M  V30 5760 C 559.207 0.793841 -1.39838 0
M  V30 5761 O 560.397 0.641804 -1.61946 0
M  V30 5762 C 557.529 1.15073 -3.20891 0
M  V30 5763 H 558.722 -0.635964 -2.93079 0
M  V30 5764 H 556.275 -0.368007 -1.51906 0
M  V30 5765 H 557.01 1.91667 -2.616 0
M  V30 5766 H 556.795 0.656867 -3.86559 0
M  V30 5767 H 558.285 1.64665 -3.83765 0
M  V30 5768 N 558.722 1.53707 -0.348139 0
M  V30 5769 C 559.97 2.00591 0.246478 0
M  V30 5770 C 560.291 1.23753 1.50699 0
M  V30 5771 O 559.561 0.345964 1.92821 0
M  V30 5772 H 558.141 0.741053 0.0940679 0
M  V30 5773 H 560.803 1.89139 -0.470354 0
M  V30 5774 H 559.899 3.08297 0.485714 0
M  V30 5775 N 560.2 0.0768682 1.57412 0
M  V30 5776 C 561.477 -0.632359 1.85096 0
M  V30 5777 C 561.857 -1.87479 0.9703 0
M  V30 5778 O 561.205 -2.28469 0.0379062 0
M  V30 5779 C 561.415 -0.965174 3.35388 0
M  V30 5780 C 562.763 -1.33648 4.03018 0
M  V30 5781 O 563.787 -1.05675 3.40164 0
M  V30 5782 O 562.646 -1.85959 5.13889 0
M  V30 5783 H 559.74 -0.314574 0.764835 0
M  V30 5784 H 562.286 0.108184 1.69355 0
M  V30 5785 H 561.058 -0.0829745 3.91212 0
M  V30 5786 H 560.681 -1.76231 3.5641 0
M  V30 5787 N 561.678 -1.56367 -0.196722 0
M  V30 5788 C 562.903 -1.84991 -0.937714 0
M  V30 5789 C 563.328 -0.660244 -1.76132 0
M  V30 5790 O 562.686 0.390967 -1.77034 0
M  V30 5791 C 562.734 -3.11828 -1.81096 0
M  V30 5792 O 561.838 -2.92266 -2.90955 0
M  V30 5793 H 561.179 -0.609193 -0.264159 0
M  V30 5794 H 563.709 -2.03595 -0.202529 0
M  V30 5795 H 563.719 -3.42579 -2.21594 0
M  V30 5796 H 562.394 -3.98037 -1.2058 0
M  V30 5797 H 560.971 -2.72809 -2.54224 0
M  V30 5798 N 563.156 0.464375 -1.50603 0
M  V30 5799 C 564.405 1.21277 -1.61167 0
M  V30 5800 C 564.718 1.92953 -0.320704 0
M  V30 5801 O 565.924 2.69778 -0.30534 0
M  V30 5802 C 564.38 2.20403 -2.84518 0
M  V30 5803 C 563.988 1.54499 -4.20516 0
M  V30 5804 C 565.732 2.95843 -3.0443 0
M  V30 5805 C 563.639 2.51951 -5.35047 0
M  V30 5806 H 562.569 0.456367 -0.600204 0
M  V30 5807 H 565.22 0.48254 -1.77042 0
M  V30 5808 H 563.602 2.96746 -2.62217 0
M  V30 5809 H 564.776 0.83899 -4.53098 0
M  V30 5810 H 563.091 0.913152 -4.06264 0
M  V30 5811 H 565.688 3.6879 -3.87167 0
M  V30 5812 H 566.031 3.55622 -2.16423 0
M  V30 5813 H 566.564 2.26611 -3.26944 0
M  V30 5814 H 563.303 1.96901 -6.25228 0
M  V30 5815 H 562.823 3.20683 -5.06875 0
M  V30 5816 H 564.502 3.13643 -5.65895 0
M  V30 5817 N 564.634 1.40294 0.718013 0
M  V30 5818 C 565.88 1.39648 1.47885 0
M  V30 5819 C 566.235 -0.0023879 1.924 0
M  V30 5820 O 565.528 -0.972304 1.65096 0
M  V30 5821 C 565.722 2.31814 2.72024 0
M  V30 5822 C 565.551 3.80523 2.3965 0
M  V30 5823 C 564.321 4.49351 2.3111 0
M  V30 5824 C 566.519 4.72077 2.04079 0
M  V30 5825 N 564.501 5.83305 1.91385 0
M  V30 5826 C 565.872 5.94809 1.74935 0
M  V30 5827 C 567.927 4.59935 1.90694 0
M  V30 5828 C 566.63 7.06755 1.33753 0
M  V30 5829 C 568.656 5.7182 1.50915 0
M  V30 5830 C 568.018 6.93637 1.22668 0
M  V30 5831 H 564.117 0.566263 0.539324 0
M  V30 5832 H 566.701 1.75986 0.832891 0
M  V30 5833 H 564.872 1.97607 3.34374 0
M  V30 5834 H 566.604 2.22042 3.38348 0
M  V30 5835 H 563.359 4.03002 2.4877 0
M  V30 5836 H 563.783 6.54239 1.74068 0
M  V30 5837 H 568.425 3.66274 2.11194 0
M  V30 5838 H 566.143 8.00302 1.11995 0
M  V30 5839 H 569.729 5.64421 1.4114 0
M  V30 5840 H 568.609 7.78743 0.923502 0
M  V30 5841 N 566.112 -0.949982 1.2575 0
M  V30 5842 C 567.337 -1.73503 1.13628 0
M  V30 5843 C 567.762 -1.85601 -0.30559 0
M  V30 5844 O 567.12 -1.33984 -1.22139 0
M  V30 5845 C 567.168 -3.1243 1.80055 0
M  V30 5846 O 566.272 -3.97916 1.08336 0
M  V30 5847 H 565.613 -0.532665 0.396439 0
M  V30 5848 H 568.143 -1.19043 1.66403 0
M  V30 5849 H 568.153 -3.62866 1.86527 0
M  V30 5850 H 566.828 -3.02941 2.84956 0
M  V30 5851 H 565.405 -3.56375 1.09777 0
M  V30 5852 N 567.59 -1.07411 -1.15328 0
M  V30 5853 C 569.006 -0.799759 -1.38116 0
M  V30 5854 C 569.206 0.59572 -1.92493 0
M  V30 5855 O 568.262 1.35433 -2.13106 0
M  V30 5856 C 569.575 -1.87407 -2.35158 0
M  V30 5857 C 571.123 -1.89889 -2.48819 0
M  V30 5858 C 571.598 -2.96406 -3.49153 0
M  V30 5859 N 573.089 -2.95512 -3.56689 0
M  V30 5860 C 573.824 -3.74575 -4.34144 0
M  V30 5861 N 573.32 -4.63488 -5.14928 0
M  V30 5862 N 575.113 -3.62919 -4.29239 0
M  V30 5863 H 567.264 -1.97411 -0.78374 0
M  V30 5864 H 569.527 -0.856113 -0.407154 0
M  V30 5865 H 569.233 -2.8768 -2.0232 0
M  V30 5866 H 569.107 -1.73471 -3.34944 0
M  V30 5867 H 571.494 -0.902677 -2.80955 0
M  V30 5868 H 571.575 -2.07904 -1.49029 0
M  V30 5869 H 571.219 -3.96227 -3.17752 0
M  V30 5870 H 571.149 -2.75638 -4.48699 0
M  V30 5871 H 573.64 -2.31061 -2.99031 0
M  V30 5872 H 573.953 -5.20445 -5.71276 0
M  V30 5873 H 572.298 -4.67537 -5.14232 0
M  V30 5874 H 575.489 -2.92833 -3.65194 0
M  V30 5875 H 575.662 -4.24777 -4.89355 0
M  V30 5876 N 569.068 1.32177 -0.85831 0
M  V30 5877 C 570.479 1.79381 -0.517621 0
M  V30 5878 C 570.83 1.70841 0.964769 0
M  V30 5879 O 569.955 1.26917 1.75274 0
M  V30 5880 C 570.55 3.25706 -0.932801 0
M  V30 5881 C 569.109 3.70851 -0.643953 0
M  V30 5882 C 568.256 2.53208 -1.13054 0
M  V30 5883 H 571.207 1.19424 -1.04516 0
M  V30 5884 H 571.228 3.79673 -0.250674 0
M  V30 5885 H 570.74 3.31889 -2.01174 0
M  V30 5886 H 568.841 3.70178 0.424112 0
M  V30 5887 H 568.954 4.63495 -1.21281 0
M  V30 5888 H 567.318 2.48676 -0.550679 0
M  V30 5889 H 568.101 2.62143 -2.21666 0
M  V30 5890 N 570.547 0.616602 1.45037 0
M  V30 5891 C 571.51 -0.0871112 2.29034 0
M  V30 5892 C 572.51 -0.786414 1.40258 0
M  V30 5893 O 573.7 -0.633207 1.62284 0
M  V30 5894 C 570.832 -1.13369 3.21497 0
M  V30 5895 H 572.025 0.651497 2.92738 0
M  V30 5896 H 569.578 0.376058 1.51709 0
M  V30 5897 H 570.313 -1.90277 2.62612 0
M  V30 5898 H 570.098 -0.636358 3.86902 0
M  V30 5899 H 571.588 -1.62627 3.84633 0
M  V30 5900 N 572.025 -1.5352 0.356285 0
M  V30 5901 C 573.274 -2.00298 -0.237373 0
M  V30 5902 C 573.587 -1.24784 -1.50627 0
M  V30 5903 O 574.793 -1.62103 -2.17795 0
M  V30 5904 C 573.249 -3.56771 -0.473545 0
M  V30 5905 C 572.857 -4.41154 0.780183 0
M  V30 5906 C 574.601 -4.1193 -1.02537 0
M  V30 5907 C 572.508 -5.89161 0.514108 0
M  V30 5908 H 571.438 -0.748307 -0.092478 0
M  V30 5909 H 574.089 -1.77283 0.473588 0
M  V30 5910 H 572.471 -3.75902 -1.24553 0
M  V30 5911 H 573.645 -4.33797 1.55425 0
M  V30 5912 H 571.96 -3.97052 1.25455 0
M  V30 5913 H 574.557 -5.20133 -1.2396 0
M  V30 5914 H 574.9 -3.65943 -1.98473 0
M  V30 5915 H 575.433 -3.96561 -0.313775 0
M  V30 5916 H 572.172 -6.39408 1.44355 0
M  V30 5917 H 571.692 -5.9939 -0.221632 0
M  V30 5918 H 573.371 -6.46857 0.136122 0
M  V30 5919 N 573.503 -0.0852151 -1.57369 0
M  V30 5920 C 574.919 0.271436 -1.57275 0
M  V30 5921 C 575.119 1.69109 -1.09565 0
M  V30 5922 O 574.175 2.40549 -0.767611 0
M  V30 5923 C 575.488 0.0688638 -3.00621 0
M  V30 5924 C 577.036 0.137373 -3.12698 0
M  V30 5925 C 577.511 -0.0370832 -4.57985 0
M  V30 5926 N 579.002 0.0180794 -4.63196 0
M  V30 5927 C 579.737 -0.0922953 -5.73326 0
M  V30 5928 N 579.233 -0.256948 -6.92323 0
M  V30 5929 N 581.026 -0.0342702 -5.6209 0
M  V30 5930 H 573.177 -1.01288 -1.86693 0
M  V30 5931 H 575.44 -0.396138 -0.861266 0
M  V30 5932 H 575.146 -0.911277 -3.39689 0
M  V30 5933 H 575.02 0.815442 -3.6828 0
M  V30 5934 H 577.407 1.10801 -2.73509 0
M  V30 5935 H 577.488 -0.640532 -2.47651 0
M  V30 5936 H 577.132 -1.00455 -4.97867 0
M  V30 5937 H 577.062 0.760392 -5.21081 0
M  V30 5938 H 579.553 0.143202 -3.77629 0
M  V30 5939 H 579.866 -0.332949 -7.72082 0
M  V30 5940 H 578.211 -0.292487 -6.94384 0
M  V30 5941 H 581.402 0.0931605 -4.68007 0
M  V30 5942 H 581.575 -0.12374 -6.47882 0
M  V30 5943 N 574.981 1.5647 0.188427 0
M  V30 5944 C 576.227 1.81281 0.909124 0
M  V30 5945 C 576.56 0.66034 1.82628 0
M  V30 5946 O 575.835 -0.338737 1.91528 0
M  V30 5947 C 576.118 3.16388 1.7196 0
M  V30 5948 C 575.971 4.42137 0.826714 0
M  V30 5949 C 577.29 3.48256 2.69083 0
M  V30 5950 H 574.409 0.659457 0.329068 0
M  V30 5951 H 577.051 1.89182 0.176156 0
M  V30 5952 H 575.201 3.09784 2.34448 0
M  V30 5953 H 576.873 4.60794 0.216025 0
M  V30 5954 H 575.116 4.33594 0.133792 0
M  V30 5955 H 575.787 5.33184 1.42893 0
M  V30 5956 H 578.263 3.55203 2.16726 0
M  V30 5957 H 577.139 4.43899 3.2287 0
M  V30 5958 H 577.4 2.72088 3.48455 0
M  V30 5959 N 576.459 -0.456382 1.50847 0
M  V30 5960 C 577.706 -1.20736 1.62571 0
M  V30 5961 C 578.034 -1.9163 0.332904 0
M  V30 5962 O 577.289 -1.8343 -0.682058 0
M  V30 5963 C 577.588 -2.26336 2.76599 0
M  V30 5964 C 577.254 -1.7259 4.16562 0
M  V30 5965 C 575.916 -1.57654 4.54641 0
M  V30 5966 C 578.268 -1.32877 5.03977 0
M  V30 5967 C 575.596 -1.0145 5.77862 0
M  V30 5968 C 577.948 -0.7811 6.27759 0
M  V30 5969 C 576.612 -0.618488 6.64628 0
M  V30 5970 H 575.882 -0.441803 0.594888 0
M  V30 5971 H 578.529 -0.501169 1.84826 0
M  V30 5972 H 576.834 -3.0292 2.48489 0
M  V30 5973 H 578.531 -2.84227 2.82871 0
M  V30 5974 H 575.121 -1.85187 3.86528 0
M  V30 5975 H 579.305 -1.43245 4.75179 0
M  V30 5976 H 574.561 -0.876109 6.0509 0
M  V30 5977 H 578.735 -0.464783 6.94847 0
M  V30 5978 H 576.362 -0.180838 7.59985 0
M  V30 5979 N 577.937 -1.40673 -0.710563 0
M  V30 5980 C 578.9 -1.4108 -1.80635 0
M  V30 5981 C 579.9 -0.303783 -1.57904 0
M  V30 5982 O 581.09 -0.562937 -1.64853 0
M  V30 5983 C 578.222 -1.20748 -3.18799 0
M  V30 5984 H 579.415 -2.38612 -1.81671 0
M  V30 5985 H 576.968 -1.26595 -0.916704 0
M  V30 5986 H 577.703 -0.239964 -3.23411 0
M  V30 5987 H 577.488 -2.00941 -3.36698 0
M  V30 5988 H 578.978 -1.23833 -3.98817 0
M  V30 5989 N 579.415 0.9433 -1.26252 0
M  V30 5990 C 580.643 1.72367 -1.14443 0
M  V30 5991 C 581.058 1.86392 0.300572 0
M  V30 5992 O 580.415 1.36978 1.20596 0
M  V30 5993 C 580.466 3.13155 -1.806 0
M  V30 5994 O 580.187 2.99803 -3.19452 0
M  V30 5995 C 581.688 4.07417 -1.74717 0
M  V30 5996 H 578.908 0.539758 -0.398626 0
M  V30 5997 H 581.452 1.18268 -1.66832 0
M  V30 5998 H 579.607 3.64162 -1.32154 0
M  V30 5999 H 580.021 3.88697 -3.52158 0
M  V30 6000 H 581.495 5.03773 -2.25647 0
M  V30 6001 H 581.972 4.3337 -0.713244 0
M  V30 6002 H 582.578 3.6233 -2.22704 0
M  V30 6003 N 580.893 1.08022 1.14757 0
M  V30 6004 C 582.123 0.827646 1.89298 0
M  V30 6005 C 582.531 -0.623506 1.78631 0
M  V30 6006 O 581.874 -1.43991 1.14071 0
M  V30 6007 C 581.936 1.16553 3.40082 0
M  V30 6008 C 581.6 2.61866 3.74533 0
M  V30 6009 C 582.597 3.60116 3.74984 0
M  V30 6010 C 580.282 2.97619 4.04633 0
M  V30 6011 C 582.276 4.92151 4.05051 0
M  V30 6012 C 579.963 4.2985 4.34364 0
M  V30 6013 C 580.961 5.26926 4.34555 0
M  V30 6014 O 580.649 6.5678 4.63568 0
M  V30 6015 H 580.381 0.298396 0.606577 0
M  V30 6016 H 582.935 1.44187 1.46285 0
M  V30 6017 H 581.165 0.494296 3.83528 0
M  V30 6018 H 582.854 0.894407 3.95923 0
M  V30 6019 H 583.62 3.33837 3.51821 0
M  V30 6020 H 579.499 2.22702 4.03639 0
M  V30 6021 H 583.043 5.67915 4.05115 0
M  V30 6022 H 578.94 4.55879 4.56995 0
M  V30 6023 H 579.708 6.62035 4.81303 0
M  V30 6024 N 582.371 -1.3172 0.865308 0
M  V30 6025 C 583.334 -2.26918 0.322627 0
M  V30 6026 C 584.334 -1.52031 -0.523751 0
M  V30 6027 O 585.524 -1.70973 -0.333727 0
M  V30 6028 C 582.656 -3.36558 -0.542338 0
M  V30 6029 H 583.849 -2.76432 1.16298 0
M  V30 6030 H 581.402 -1.42573 0.640512 0
M  V30 6031 H 582.137 -2.92329 -1.40407 0
M  V30 6032 H 581.922 -3.92048 0.0636395 0
M  V30 6033 H 583.412 -4.07465 -0.91446 0
M  V30 6034 N 583.85 -0.624285 -1.44708 0
M  V30 6035 C 584.797 0.0847135 -2.30644 0
M  V30 6036 C 585.767 0.843575 -1.43084 0
M  V30 6037 O 586.952 0.825982 -1.71995 0
M  V30 6038 C 584.091 1.06495 -3.28257 0
M  V30 6039 C 583.205 0.305224 -4.3092 0
M  V30 6040 C 582.34 1.27667 -5.1563 0
M  V30 6041 C 581.379 0.505706 -6.10007 0
M  V30 6042 N 580.516 1.42727 -6.8744 0
M  V30 6043 H 585.356 -0.654068 -2.90733 0
M  V30 6044 H 582.893 -0.334334 -1.4325 0
M  V30 6045 H 584.851 1.64658 -3.83332 0
M  V30 6046 H 583.481 1.77094 -2.69884 0
M  V30 6047 H 582.533 -0.392207 -3.78373 0
M  V30 6048 H 583.845 -0.295553 -4.97924 0
M  V30 6049 H 582.999 1.92984 -5.75189 0
M  V30 6050 H 581.738 1.91137 -4.48685 0
M  V30 6051 H 580.743 -0.160999 -5.49564 0
M  V30 6052 H 581.968 -0.124183 -6.78986 0
M  V30 6053 H 579.913 2.04931 -6.23169 0
M  V30 6054 H 579.831 0.880345 -7.50857 0
M  V30 6055 H 581.099 2.0695 -7.51526 0
M  V30 6056 N 585.328 1.53329 -0.364422 0
M  V30 6057 C 586.574 2.02222 0.21855 0
M  V30 6058 C 586.929 1.24702 1.46517 0
M  V30 6059 O 586.222 0.331969 1.88702 0
M  V30 6060 C 586.416 3.52911 0.564661 0
M  V30 6061 C 586.245 4.45023 -0.646862 0
M  V30 6062 C 585.015 4.91838 -1.15858 0
M  V30 6063 C 587.213 4.91581 -1.51172 0
M  V30 6064 N 585.195 5.67955 -2.33025 0
M  V30 6065 C 586.566 5.66028 -2.53006 0
M  V30 6066 C 588.621 4.73656 -1.53473 0
M  V30 6067 C 587.324 6.24457 -3.56996 0
M  V30 6068 C 589.35 5.3295 -2.56356 0
M  V30 6069 C 588.712 6.07282 -3.56914 0
M  V30 6070 H 584.811 0.780832 0.0427199 0
M  V30 6071 H 587.395 1.87937 -0.508704 0
M  V30 6072 H 585.566 3.6736 1.26099 0
M  V30 6073 H 587.298 3.88528 1.13262 0
M  V30 6074 H 584.053 4.68043 -0.723393 0
M  V30 6075 H 584.477 6.10675 -2.92241 0
M  V30 6076 H 589.119 4.15714 -0.770842 0
M  V30 6077 H 586.837 6.81496 -4.34268 0
M  V30 6078 H 590.423 5.20976 -2.58989 0
M  V30 6079 H 589.303 6.52345 -4.35218 0
M  V30 6080 N 586.806 0.0935595 1.57322 0
M  V30 6081 C 588.083 -0.612692 1.85756 0
M  V30 6082 C 588.463 -1.86439 0.99013 0
M  V30 6083 O 587.811 -2.28416 0.0621362 0
M  V30 6084 C 588.021 -0.929547 3.36393 0
M  V30 6085 C 589.369 -1.29366 4.04413 0
M  V30 6086 O 590.393 -1.02061 3.41265 0
M  V30 6087 O 589.252 -1.80498 5.15832 0
M  V30 6088 H 586.346 -0.306444 0.768128 0
M  V30 6089 H 588.892 0.126141 1.69231 0
M  V30 6090 H 587.664 -0.0414766 3.91278 0
M  V30 6091 H 587.287 -1.72441 3.5826 0
M  V30 6092 N 588.284 -1.56567 -0.180126 0
M  V30 6093 C 589.194 -1.98947 -1.24327 0
M  V30 6094 C 590.21 -0.899446 -1.4895 0
M  V30 6095 O 591.386 -1.20639 -1.61271 0
M  V30 6096 C 588.451 -2.33328 -2.56435 0
M  V30 6097 C 587.512 -3.56114 -2.39752 0
M  V30 6098 C 586.745 -3.88845 -3.65561 0
M  V30 6099 O 586.968 -3.22662 -4.70368 0
M  V30 6100 O 585.902 -4.82226 -3.60197 0
M  V30 6101 H 589.728 -2.89634 -0.913565 0
M  V30 6102 H 587.313 -1.44319 -0.386306 0
M  V30 6103 H 589.195 -2.5645 -3.34382 0
M  V30 6104 H 587.87 -1.45806 -2.89002 0
M  V30 6105 H 586.777 -3.38221 -1.59866 0
M  V30 6106 H 588.11 -4.4415 -2.12113 0
M  V30 6107 N 589.762 0.448376 -1.51087 0
M  V30 6108 C 590.709 1.54341 -1.71603 0
M  V30 6109 C 591.679 1.56463 -0.557536 0
M  V30 6110 O 592.864 1.73644 -0.79072 0
M  V30 6111 C 590.004 2.92148 -1.83695 0
M  V30 6112 C 589.117 2.99639 -3.11192 0
M  V30 6113 C 588.252 4.285 -3.13944 0
M  V30 6114 C 587.291 4.29819 -4.35801 0
M  V30 6115 N 586.428 5.50186 -4.36164 0
M  V30 6116 H 591.268 1.36151 -2.65079 0
M  V30 6117 H 588.805 0.661585 -1.31383 0
M  V30 6118 H 590.763 3.72093 -1.88687 0
M  V30 6119 H 589.393 3.0892 -0.936374 0
M  V30 6120 H 588.445 2.12425 -3.15562 0
M  V30 6121 H 589.757 2.96474 -4.01129 0
M  V30 6122 H 588.911 5.16811 -3.17791 0
M  V30 6123 H 587.65 4.34307 -2.21876 0
M  V30 6124 H 586.655 3.39902 -4.32142 0
M  V30 6125 H 587.88 4.25685 -5.29121 0
M  V30 6126 H 585.826 5.56735 -3.46961 0
M  V30 6127 H 585.743 5.48856 -5.19897 0
M  V30 6128 H 587.011 6.40559 -4.44189 0
M  V30 6129 N 591.24 1.41047 0.703093 0
M  V30 6130 C 592.486 1.41209 1.46396 0
M  V30 6131 C 592.841 0.0180188 1.92392 0
M  V30 6132 O 592.134 -0.954739 1.66118 0
M  V30 6133 C 592.328 2.34686 2.6955 0
M  V30 6134 C 592.157 3.83044 2.35601 0
M  V30 6135 C 590.927 4.51777 2.26331 0
M  V30 6136 C 593.125 4.74215 1.9906 0
M  V30 6137 N 591.107 5.85302 1.85188 0
M  V30 6138 C 592.478 5.96631 1.68616 0
M  V30 6139 C 594.533 4.61932 1.85805 0
M  V30 6140 C 593.236 7.08134 1.26249 0
M  V30 6141 C 595.262 5.73389 1.44842 0
M  V30 6142 C 594.624 6.94899 1.15304 0
M  V30 6143 H 590.723 0.571951 0.533288 0
M  V30 6144 H 593.307 1.76859 0.814179 0
M  V30 6145 H 591.478 2.01143 3.32259 0
M  V30 6146 H 593.21 2.25618 3.35974 0
M  V30 6147 H 589.965 4.05618 2.44482 0
M  V30 6148 H 590.389 6.56049 1.67119 0
M  V30 6149 H 595.031 3.68494 2.07298 0
M  V30 6150 H 592.749 8.01445 1.035 0
M  V30 6151 H 596.335 5.65886 1.35146 0
M  V30 6152 H 595.215 7.79679 0.840854 0
M  V30 6153 N 592.718 -0.936591 1.26751 0
M  V30 6154 C 593.966 -1.67998 1.12343 0
M  V30 6155 C 594.287 -1.92137 -0.332938 0
M  V30 6156 O 593.557 -1.52132 -1.23421 0
M  V30 6157 H 592.137 -0.622609 0.412756 0
M  V30 6158 H 594.799 -1.12509 1.59147 0
M  V30 6159 H 593.895 -2.65185 1.64571 0
M  V30 6160 N 594.196 -1.08629 -1.14182 0
M  V30 6161 C 595.426 -0.837673 -1.88856 0
M  V30 6162 C 595.834 0.614024 -1.78959 0
M  V30 6163 O 595.177 1.43384 -1.14833 0
M  V30 6164 C 595.239 -1.18355 -3.39459 0
M  V30 6165 C 594.903 -2.63848 -3.73139 0
M  V30 6166 C 595.9 -3.62099 -3.73069 0
M  V30 6167 C 593.585 -2.99761 -4.03049 0
M  V30 6168 C 595.579 -4.94292 -4.02435 0
M  V30 6169 C 593.266 -4.32147 -4.32078 0
M  V30 6170 C 594.264 -5.29223 -4.31755 0
M  V30 6171 O 593.952 -6.59229 -4.60079 0
M  V30 6172 H 593.684 -0.301609 -0.604986 0
M  V30 6173 H 596.238 -1.44961 -1.45518 0
M  V30 6174 H 594.468 -0.514628 -3.8326 0
M  V30 6175 H 596.157 -0.915391 -3.95443 0
M  V30 6176 H 596.923 -3.35698 -3.50046 0
M  V30 6177 H 592.802 -2.2484 -4.02453 0
M  V30 6178 H 596.346 -5.70055 -4.02098 0
M  V30 6179 H 592.243 -4.58296 -4.54571 0
M  V30 6180 H 593.011 -6.64578 -4.77785 0
M  V30 6181 N 595.674 1.31259 -0.872281 0
M  V30 6182 C 596.951 1.91362 -0.404943 0
M  V30 6183 C 597.331 1.79362 1.11321 0
M  V30 6184 O 596.679 1.20277 1.94283 0
M  V30 6185 C 596.889 3.3749 -0.888893 0
M  V30 6186 C 598.237 4.14593 -0.916384 0
M  V30 6187 O 599.261 3.46282 -0.834701 0
M  V30 6188 O 598.12 5.3661 -1.03498 0
M  V30 6189 H 595.214 0.818016 -0.121569 0
M  V30 6190 H 597.76 1.39912 -0.960346 0
M  V30 6191 H 596.532 3.40249 -1.93251 0
M  V30 6192 H 596.155 3.96375 -0.311932 0
M  V30 6193 N 597.152 0.631951 1.44375 0
M  V30 6194 C 598.382 0.143658 2.061 0
M  V30 6195 C 598.79 -1.18733 1.47306 0
M  V30 6196 O 598.133 -1.73943 0.590724 0
M  V30 6197 C 598.195 -0.0446102 3.59472 0
M  V30 6198 C 597.859 1.20835 4.40736 0
M  V30 6199 C 598.856 2.13224 4.74164 0
M  V30 6200 C 596.541 1.44399 4.81097 0
M  V30 6201 C 598.535 3.27487 5.46838 0
M  V30 6202 C 596.222 2.58959 5.53519 0
M  V30 6203 C 597.22 3.50329 5.86309 0
M  V30 6204 O 596.908 4.62891 6.57257 0
M  V30 6205 H 596.64 0.0772939 0.671567 0
M  V30 6206 H 599.194 0.866677 1.8622 0
M  V30 6207 H 597.424 -0.822783 3.77845 0
M  V30 6208 H 599.113 -0.487561 4.02961 0
M  V30 6209 H 599.879 1.96253 4.4352 0
M  V30 6210 H 595.758 0.741696 4.54994 0
M  V30 6211 H 599.302 3.98826 5.72349 0
M  V30 6212 H 595.199 2.75873 5.83579 0
M  V30 6213 H 595.967 4.61883 6.75726 0
M  V30 6214 N 598.631 -1.53133 0.372548 0
M  V30 6215 C 599.859 -2.05774 -0.215515 0
M  V30 6216 C 600.274 -1.24555 -1.41886 0
M  V30 6217 O 599.631 -0.287951 -1.80214 0
M  V30 6218 C 599.682 -3.5645 -0.602161 0
M  V30 6219 O 599.403 -4.34591 0.553359 0
M  V30 6220 C 600.904 -4.25374 -1.24787 0
M  V30 6221 H 598.124 -0.670009 -0.0364529 0
M  V30 6222 H 600.668 -1.97434 0.532934 0
M  V30 6223 H 598.823 -3.64918 -1.30052 0
M  V30 6224 H 599.237 -5.23954 0.239336 0
M  V30 6225 H 600.711 -5.32097 -1.46891 0
M  V30 6226 H 601.188 -3.79531 -2.21026 0
M  V30 6227 H 601.794 -4.21177 -0.590752 0
M  V30 6228 N 600.109 -0.101901 -1.5727 0
M  V30 6229 C 601.357 0.559091 -1.94213 0
M  V30 6230 C 601.678 1.68297 -0.984948 0
M  V30 6231 O 600.948 1.95863 -0.0381975 0
M  V30 6232 H 599.528 0.20952 -0.717015 0
M  V30 6233 H 602.19 -0.166831 -1.94185 0
M  V30 6234 H 601.286 0.96485 -2.96811 0
M  V30 6235 N 601.587 1.56661 0.17182 0
M  V30 6236 C 602.535 1.97289 1.23207 0
M  V30 6237 C 603.529 0.861566 1.45854 0
M  V30 6238 O 604.735 1.04668 1.4644 0
M  V30 6239 H 601.11 0.627681 0.41415 0
M  V30 6240 H 603.081 2.85662 0.862542 0
M  V30 6241 C 601.83 2.34849 2.564 0
M  V30 6242 H 601.153 3.19903 2.39797 0
M  V30 6243 H 602.593 2.67121 3.29276 0
M  V30 6244 C 601.052 1.19172 3.15119 0
M  V30 6245 O 601.582 0.479113 3.98833 0
M  V30 6246 N 599.788 0.962415 2.74201 0
M  V30 6247 H 599.335 1.54365 2.06226 0
M  V30 6248 H 599.293 0.190272 3.13824 0
M  V30 6249 N 603.065 -0.440357 1.51323 0
M  V30 6250 C 604.028 -1.51679 1.71832 0
M  V30 6251 C 605.028 -1.49648 0.588386 0
M  V30 6252 O 606.218 -1.51724 0.855891 0
M  V30 6253 C 603.35 -2.91228 1.77199 0
M  V30 6254 H 604.543 -1.34799 2.67898 0
M  V30 6255 H 602.096 -0.66883 1.41267 0
M  V30 6256 H 602.831 -3.13516 0.829363 0
M  V30 6257 H 602.616 -2.94107 2.59314 0
M  V30 6258 H 604.106 -3.69321 1.94915 0
M  V30 6259 N 604.543 -1.41418 -0.695603 0
M  V30 6260 C 605.82 -1.31264 -1.45014 0
M  V30 6261 C 606.2 0.0597994 -2.11015 0
M  V30 6262 O 605.548 1.07403 -2.01685 0
M  V30 6263 C 605.758 -2.466 -2.4696 0
M  V30 6264 C 607.106 -2.87763 -3.12214 0
M  V30 6265 O 608.13 -2.46339 -2.57285 0
M  V30 6266 O 606.989 -3.59395 -4.11701 0
M  V30 6267 H 604.083 -0.516576 -0.645816 0
M  V30 6268 H 606.629 -1.53382 -0.726084 0
M  V30 6269 H 605.401 -3.38183 -1.96845 0
M  V30 6270 H 605.024 -2.26358 -3.26876 0
M  V30 6271 N 606.021 0.929856 -1.27246 0
M  V30 6272 C 606.969 2.05151 -1.09616 0
M  V30 6273 C 607.963 1.69388 -0.0198617 0
M  V30 6274 O 609.169 1.79124 -0.177417 0
M  V30 6275 H 605.544 0.671909 -0.337701 0
M  V30 6276 H 607.515 2.17168 -2.04648 0
M  V30 6277 C 606.264 3.3934 -0.757851 0
M  V30 6278 H 605.587 3.67343 -1.57795 0
M  V30 6279 H 607.027 4.18603 -0.674358 0
M  V30 6280 C 605.486 3.32582 0.537658 0
M  V30 6281 O 606.016 3.69633 1.57271 0
M  V30 6282 N 604.222 2.8568 0.532478 0
M  V30 6283 H 603.769 2.55725 -0.310233 0
M  V30 6284 H 603.727 2.81541 1.39936 0
M  V30 6285 N 607.499 1.09233 1.13605 0
M  V30 6286 C 608.447 0.724572 2.21027 0
M  V30 6287 C 609.441 -0.273595 1.67176 0
M  V30 6288 O 610.647 -0.135266 1.79491 0
M  V30 6289 H 607.022 0.216319 0.720215 0
M  V30 6290 H 608.993 1.63975 2.49309 0
M  V30 6291 C 607.742 0.159126 3.47336 0
M  V30 6292 H 607.065 0.918387 3.89109 0
M  V30 6293 H 608.505 -0.0602851 4.23957 0
M  V30 6294 C 606.964 -1.10514 3.18258 0
M  V30 6295 O 607.494 -2.18869 3.36837 0
M  V30 6296 N 605.7 -1.01886 2.72154 0
M  V30 6297 H 605.247 -0.137027 2.57235 0
M  V30 6298 H 605.205 -1.8655 2.53074 0
M  V30 6299 N 608.977 -1.30795 0.87923 0
M  V30 6300 C 609.94 -2.26563 0.346676 0
M  V30 6301 C 610.94 -1.52578 -0.507597 0
M  V30 6302 O 612.13 -1.71318 -0.315575 0
M  V30 6303 C 609.262 -3.37115 -0.506611 0
M  V30 6304 H 610.455 -2.75183 1.19223 0
M  V30 6305 H 608.008 -1.41886 0.655598 0
M  V30 6306 H 608.743 -2.93802 -1.37299 0
M  V30 6307 H 608.528 -3.91959 0.105218 0
M  V30 6308 H 610.018 -4.08412 -0.871192 0
M  V30 6309 N 610.455 -0.639598 -1.44038 0
M  V30 6310 C 611.403 0.0723409 -2.32487 0
M  V30 6311 C 612.397 0.827129 -1.47834 0
M  V30 6312 O 613.603 0.73907 -1.64127 0
M  V30 6313 H 609.978 0.0421696 -0.750817 0
M  V30 6314 H 611.949 -0.691593 -2.90275 0
M  V30 6315 C 610.698 1.03452 -3.31953 0
M  V30 6316 H 610.021 0.46315 -3.97108 0
M  V30 6317 H 611.461 1.502 -3.96505 0
M  V30 6318 C 609.92 2.12392 -2.61518 0
M  V30 6319 O 610.45 3.2059 -2.42044 0
M  V30 6320 N 608.656 1.88563 -2.21116 0
M  V30 6321 H 608.203 1.00577 -2.37154 0
M  V30 6322 H 608.161 2.61651 -1.74316 0
M  V30 6323 N 611.933 1.52934 -0.380664 0
M  V30 6324 C 613.18 2.01467 0.204278 0
M  V30 6325 C 613.508 1.26744 1.47533 0
M  V30 6326 O 612.763 0.353723 1.92477 0
M  V30 6327 C 613.062 3.5349 0.527199 0
M  V30 6328 C 612.728 4.46171 -0.651295 0
M  V30 6329 C 611.39 4.71227 -0.974619 0
M  V30 6330 C 613.742 5.00909 -1.44012 0
M  V30 6331 C 611.07 5.4827 -2.08847 0
M  V30 6332 C 613.422 5.7917 -2.5445 0
M  V30 6333 C 612.086 6.02507 -2.87301 0
M  V30 6334 H 611.356 0.73722 0.0747504 0
M  V30 6335 H 614.003 1.84411 -0.516234 0
M  V30 6336 H 612.308 3.68574 1.32892 0
M  V30 6337 H 614.005 3.88529 0.992283 0
M  V30 6338 H 610.595 4.26829 -0.389276 0
M  V30 6339 H 614.779 4.81485 -1.20357 0
M  V30 6340 H 610.035 5.64567 -2.34679 0
M  V30 6341 H 614.209 6.20588 -3.1598 0
M  V30 6342 H 611.836 6.61989 -3.7373 0
M  V30 6343 N 613.412 0.11024 1.57214 0
M  V30 6344 C 614.66 -0.548783 1.94506 0
M  V30 6345 C 614.981 -1.67772 0.99386 0
M  V30 6346 O 614.251 -1.9584 0.0485841 0
M  V30 6347 H 612.831 -0.205715 0.718116 0
M  V30 6348 H 615.493 0.177127 1.94093 0
M  V30 6349 H 614.589 -0.949096 2.97319 0
M  V30 6350 N 614.89 -1.56749 -0.16351 0
M  V30 6351 C 615.837 -1.97011 -1.2023 0
M  V30 6352 C 616.807 -0.835186 -1.43575 0
M  V30 6353 O 617.992 -1.09594 -1.56185 0
M  V30 6354 C 615.132 -2.34186 -2.53478 0
M  V30 6355 C 614.245 -3.60893 -2.37446 0
M  V30 6356 C 613.38 -3.87245 -3.63614 0
M  V30 6357 C 612.419 -5.07274 -3.42548 0
M  V30 6358 N 611.556 -5.29719 -4.60806 0
M  V30 6359 H 616.396 -2.85562 -0.851958 0
M  V30 6360 H 613.933 -1.41292 -0.409257 0
M  V30 6361 H 615.891 -2.53764 -3.31149 0
M  V30 6362 H 614.521 -1.48736 -2.86492 0
M  V30 6363 H 613.573 -3.49185 -1.50911 0
M  V30 6364 H 614.885 -4.48722 -2.1783 0
M  V30 6365 H 614.039 -4.07232 -4.49719 0
M  V30 6366 H 612.778 -2.97806 -3.86216 0
M  V30 6367 H 611.783 -4.87177 -2.5483 0
M  V30 6368 H 613.008 -5.98251 -3.2136 0
M  V30 6369 H 610.954 -4.43233 -4.83612 0
M  V30 6370 H 610.871 -6.11786 -4.44132 0
M  V30 6371 H 612.139 -5.54192 -5.48171 0
M  V30 6372 N 616.368 0.432326 -1.51554 0
M  V30 6373 C 617.331 1.50765 -1.72634 0
M  V30 6374 C 618.331 1.49334 -0.596314 0
M  V30 6375 O 619.521 1.51268 -0.863925 0
M  V30 6376 C 616.653 2.90284 -1.7874 0
M  V30 6377 H 617.846 1.33377 -2.68609 0
M  V30 6378 H 615.399 0.661329 -1.4162 0
M  V30 6379 H 616.134 3.13071 -0.845977 0
M  V30 6380 H 615.919 2.92727 -2.6087 0
M  V30 6381 H 617.409 3.68282 -1.96871 0
M  V30 6382 N 617.846 1.41785 0.688094 0
M  V30 6383 C 619.092 1.41753 1.4503 0
M  V30 6384 C 619.425 0.0290745 1.94178 0
M  V30 6385 O 618.7 -0.944456 1.7003 0
M  V30 6386 C 618.983 2.43069 2.65686 0
M  V30 6387 C 618.836 3.91053 2.22256 0
M  V30 6388 C 620.155 2.41543 3.67893 0
M  V30 6389 H 617.274 0.516202 0.526027 0
M  V30 6390 H 619.916 1.73111 0.783105 0
M  V30 6391 H 618.066 2.1646 3.2261 0
M  V30 6392 H 619.738 4.28594 1.70602 0
M  V30 6393 H 617.981 4.05559 1.53963 0
M  V30 6394 H 618.652 4.57501 3.08863 0
M  V30 6395 H 621.128 2.65175 3.20658 0
M  V30 6396 H 620.004 3.14434 4.49914 0
M  V30 6397 H 620.265 1.43666 4.18106 0
M  V30 6398 N 619.324 -0.923095 1.27737 0
M  V30 6399 C 620.735 -1.48626 1.12993 0
M  V30 6400 C 621.086 -1.94142 -0.283439 0
M  V30 6401 O 620.211 -1.81605 -1.17681 0
M  V30 6402 C 620.806 -2.70117 2.04505 0
M  V30 6403 C 619.365 -3.22642 1.93853 0
M  V30 6404 C 618.512 -1.95368 1.96791 0
M  V30 6405 H 621.463 -0.736737 1.40563 0
M  V30 6406 H 621.484 -3.4506 1.60356 0
M  V30 6407 H 620.996 -2.36959 3.07363 0
M  V30 6408 H 619.097 -3.60549 0.939968 0
M  V30 6409 H 619.21 -3.88525 2.80331 0
M  V30 6410 H 617.574 -2.12061 1.41076 0
M  V30 6411 H 618.357 -1.64517 3.01312 0
M  V30 6412 N 620.802 -1.09834 -1.13024 0
M  V30 6413 C 621.765 -0.745058 -2.16752 0
M  V30 6414 C 622.765 0.227435 -1.59183 0
M  V30 6415 O 623.955 0.0050786 -1.74199 0
M  V30 6416 C 621.087 -0.102543 -3.40746 0
M  V30 6417 H 622.28 -1.66375 -2.49518 0
M  V30 6418 H 619.833 -0.898061 -1.27924 0
M  V30 6419 H 620.568 0.827177 -3.13573 0
M  V30 6420 H 620.353 -0.80235 -3.83803 0
M  V30 6421 H 621.843 0.129082 -4.174 0
M  V30 6422 N 622.28 1.30327 -0.886154 0
M  V30 6423 C 623.557 1.90922 -0.425217 0
M  V30 6424 C 623.937 1.80533 1.09413 0
M  V30 6425 O 623.285 1.2233 1.92996 0
M  V30 6426 C 623.495 3.36529 -0.924638 0
M  V30 6427 C 624.843 4.13598 -0.960305 0
M  V30 6428 O 625.867 3.45377 -0.871382 0
M  V30 6429 O 624.726 5.35482 -1.09184 0
M  V30 6430 H 621.82 0.81668 -0.130238 0
M  V30 6431 H 624.366 1.38886 -0.975132 0
M  V30 6432 H 623.138 3.38181 -1.96849 0
M  V30 6433 H 622.761 3.96021 -0.353955 0
M  V30 6434 N 623.758 0.647228 1.43697 0
M  V30 6435 C 625.005 0.158188 2.01881 0
M  V30 6436 C 625.333 -1.22573 1.51017 0
M  V30 6437 O 624.588 -1.83086 0.69122 0
M  V30 6438 C 624.887 0.111481 3.57226 0
M  V30 6439 C 624.553 1.43633 4.27411 0
M  V30 6440 C 623.215 1.79915 4.463 0
M  V30 6441 C 625.567 2.31011 4.67208 0
M  V30 6442 C 622.895 3.03251 5.02251 0
M  V30 6443 C 625.247 3.53633 5.24525 0
M  V30 6444 C 623.911 3.90118 5.41631 0
M  V30 6445 H 623.181 0.0578851 0.738736 0
M  V30 6446 H 625.828 0.836746 1.72252 0
M  V30 6447 H 624.133 -0.650507 3.86362 0
M  V30 6448 H 625.83 -0.283682 3.99995 0
M  V30 6449 H 622.42 1.14403 4.1305 0
M  V30 6450 H 626.604 2.04272 4.52313 0
M  V30 6451 H 621.86 3.31575 5.13681 0
M  V30 6452 H 626.034 4.21561 5.5431 0
M  V30 6453 H 623.661 4.85768 5.84751 0
M  V30 6454 N 625.236 -1.5273 0.388769 0
M  V30 6455 C 626.184 -2.27975 -0.461527 0
M  V30 6456 C 627.178 -1.31854 -1.06352 0
M  V30 6457 O 628.384 -1.49394 -1.00406 0
M  V30 6458 H 624.759 -0.733088 -0.16759 0
M  V30 6459 H 626.73 -2.97765 0.194579 0
M  V30 6460 C 625.479 -3.09881 -1.577 0
M  V30 6461 H 624.802 -3.83701 -1.12309 0
M  V30 6462 H 626.242 -3.6567 -2.14619 0
M  V30 6463 C 624.701 -2.22159 -2.53272 0
M  V30 6464 O 625.231 -1.84802 -3.56667 0
M  V30 6465 N 623.437 -1.8633 -2.23001 0
M  V30 6466 H 622.984 -2.16909 -1.38954 0
M  V30 6467 H 622.942 -1.27927 -2.87197 0
M  V30 6468 N 626.714 -0.118576 -1.57153 0
M  V30 6469 C 627.962 0.538461 -1.94795 0
M  V30 6470 C 628.283 1.67243 -1.00274 0
M  V30 6471 O 627.553 1.95811 -0.0589692 0
M  V30 6472 H 626.133 0.201904 -0.719197 0
M  V30 6473 H 628.795 -0.187418 -1.93997 0
M  V30 6474 H 627.891 0.933315 -2.97818 0
M  V30 6475 N 628.193 1.56834 0.155195 0
M  V30 6476 C 629.441 1.82536 0.867462 0
M  V30 6477 C 629.762 0.698168 1.82073 0
M  V30 6478 O 629.032 -0.280807 1.93877 0
M  V30 6479 H 627.612 0.673401 0.323327 0
M  V30 6480 H 630.274 1.94313 0.151156 0
M  V30 6481 H 629.37 2.77171 1.43466 0
M  V30 6482 N 629.671 -0.424282 1.51781 0
M  V30 6483 C 630.896 -1.19928 1.6921 0
M  V30 6484 C 631.321 -1.8392 0.394355 0
M  V30 6485 O 630.679 -1.69371 -0.646778 0
M  V30 6486 C 630.727 -2.24937 2.81843 0
M  V30 6487 O 629.831 -3.3073 2.46356 0
M  V30 6488 H 629.172 -0.35078 0.563781 0
M  V30 6489 H 631.702 -0.499401 1.98412 0
M  V30 6490 H 631.712 -2.69512 3.06312 0
M  V30 6491 H 630.387 -1.77742 3.76006 0
M  V30 6492 H 628.964 -2.9154 2.32505 0
M  V30 6493 N 631.149 -1.42148 -0.680565 0
M  V30 6494 C 632.396 -1.4231 -1.44063 0
M  V30 6495 C 632.724 -0.037488 -1.94464 0
M  V30 6496 O 631.979 0.953184 -1.70918 0
M  V30 6497 C 632.278 -2.38945 -2.65782 0
M  V30 6498 C 631.944 -3.85455 -2.33956 0
M  V30 6499 C 630.606 -4.25364 -2.24987 0
M  V30 6500 C 632.958 -4.77895 -2.08004 0
M  V30 6501 C 630.286 -5.55701 -1.88184 0
M  V30 6502 C 632.638 -6.08568 -1.72706 0
M  V30 6503 C 631.302 -6.47482 -1.62244 0
M  V30 6504 H 630.572 -0.520748 -0.527164 0
M  V30 6505 H 633.219 -1.7505 -0.776524 0
M  V30 6506 H 631.524 -1.99511 -3.37198 0
M  V30 6507 H 633.221 -2.36336 -3.23954 0
M  V30 6508 H 629.811 -3.53855 -2.41836 0
M  V30 6509 H 633.995 -4.47854 -2.1387 0
M  V30 6510 H 629.251 -5.84718 -1.78648 0
M  V30 6511 H 633.425 -6.79688 -1.5165 0
M  V30 6512 H 631.052 -7.48387 -1.33496 0
M  V30 6513 N 632.627 0.916307 -1.28225 0
M  V30 6514 C 633.875 1.6619 -1.15002 0
M  V30 6515 C 634.196 1.92642 0.302329 0
M  V30 6516 O 633.466 1.54076 1.20985 0
M  V30 6517 H 632.046 0.615964 -0.422608 0
M  V30 6518 H 634.708 1.09963 -1.60917 0
M  V30 6519 H 633.804 2.62533 -1.68769 0
M  V30 6520 N 634.105 1.10431 1.1244 0
M  V30 6521 C 635.521 0.836096 1.35947 0
M  V30 6522 C 635.721 -0.544475 1.94004 0
M  V30 6523 O 634.777 -1.29735 2.16622 0
M  V30 6524 C 636.09 1.93575 2.30107 0
M  V30 6525 C 637.638 1.9642 2.43697 0
M  V30 6526 C 638.113 3.05559 3.41171 0
M  V30 6527 N 639.604 3.04865 3.48728 0
M  V30 6528 C 640.339 3.85954 4.24061 0
M  V30 6529 N 639.835 4.76977 5.02458 0
M  V30 6530 N 641.628 3.74172 4.19466 0
M  V30 6531 H 633.779 1.9942 0.731124 0
M  V30 6532 H 636.042 0.866607 0.384312 0
M  V30 6533 H 635.748 2.92943 1.94621 0
M  V30 6534 H 635.622 1.8229 3.30227 0
M  V30 6535 H 638.009 0.97685 2.78463 0
M  V30 6536 H 638.09 2.11782 1.43465 0
M  V30 6537 H 637.734 4.04513 3.07135 0
M  V30 6538 H 637.664 2.87438 4.41234 0
M  V30 6539 H 640.155 2.38908 2.92799 0
M  V30 6540 H 640.468 5.35409 5.57277 0
M  V30 6541 H 638.813 4.81006 5.01655 0
M  V30 6542 H 642.004 3.02412 3.57302 0
M  V30 6543 H 642.177 4.37602 4.77921 0
M  V30 6544 N 635.583 -1.29855 0.893053 0
M  V30 6545 C 636.831 -1.9544 0.514566 0
M  V30 6546 C 637.152 -1.70795 -0.940959 0
M  V30 6547 O 636.422 -1.03601 -1.66264 0
M  V30 6548 H 635.002 -0.723137 0.187302 0
M  V30 6549 H 637.664 -1.58234 1.13789 0
M  V30 6550 H 636.76 -3.04341 0.691581 0
M  V30 6551 N 637.061 -0.65484 -1.43351 0
M  V30 6552 C 638.338 -0.0987371 -1.95351 0
M  V30 6553 C 638.718 1.38161 -1.59608 0
M  V30 6554 O 638.066 2.10791 -0.882021 0
M  V30 6555 C 638.276 -0.346684 -3.47274 0
M  V30 6556 C 639.624 -0.25249 -4.23849 0
M  V30 6557 O 640.648 -0.279332 -3.55103 0
M  V30 6558 O 639.507 -0.177584 -5.46211 0
M  V30 6559 H 636.601 0.0086829 -0.826954 0
M  V30 6560 H 639.147 -0.728189 -1.53282 0
M  V30 6561 H 637.919 -1.37296 -3.66423 0
M  V30 6562 H 637.542 0.315757 -3.96344 0
M  V30 6563 N 638.539 1.52521 -0.396863 0
M  V30 6564 C 639.764 2.06571 0.185258 0
M  V30 6565 C 640.189 1.26605 1.39115 0
M  V30 6566 O 639.547 0.293055 1.78916 0
M  V30 6567 C 639.595 3.5674 0.526189 0
M  V30 6568 O 638.699 3.7929 1.61903 0
M  V30 6569 H 638.04 0.663712 0.0195474 0
M  V30 6570 H 640.57 1.966 -0.566519 0
M  V30 6571 H 640.58 4.00311 0.788338 0
M  V30 6572 H 639.255 4.14379 -0.355397 0
M  V30 6573 H 637.832 3.47605 1.35 0
M  V30 6574 N 640.017 0.126909 1.57088 0
M  V30 6575 C 641.294 -0.573152 1.87014 0
M  V30 6576 C 641.674 -1.84297 1.02945 0
M  V30 6577 O 641.022 -2.28232 0.110573 0
M  V30 6578 C 641.232 -0.857984 3.38289 0
M  V30 6579 C 642.58 -1.20759 4.07066 0
M  V30 6580 O 643.604 -0.947992 3.43353 0
M  V30 6581 O 642.463 -1.69516 5.19545 0
M  V30 6582 H 639.557 -0.290082 0.774456 0
M  V30 6583 H 642.103 0.162008 1.68925 0
M  V30 6584 H 640.875 0.0415286 3.91278 0
M  V30 6585 H 640.498 -1.64803 3.61837 0
M  V30 6586 N 641.495 -1.56914 -0.146875 0
M  V30 6587 C 642.405 -2.0154 -1.20079 0
M  V30 6588 C 643.421 -0.930838 -1.47008 0
M  V30 6589 O 644.597 -1.24032 -1.58676 0
M  V30 6590 C 641.662 -2.38715 -2.51428 0
M  V30 6591 C 640.723 -3.6112 -2.32145 0
M  V30 6592 C 639.956 -3.96512 -3.57231 0
M  V30 6593 O 640.179 -3.32566 -4.63418 0
M  V30 6594 O 639.113 -4.89758 -3.49887 0
M  V30 6595 H 642.939 -2.91506 -0.851924 0
M  V30 6596 H 640.524 -1.45106 -0.355607 0
M  V30 6597 H 642.406 -2.63485 -3.28867 0
M  V30 6598 H 641.081 -1.51903 -2.85845 0
M  V30 6599 H 639.988 -3.41536 -1.52656 0
M  V30 6600 H 641.321 -4.48549 -2.02644 0
M  V30 6601 N 642.974 0.416227 -1.52004 0
M  V30 6602 C 644.22 1.16233 -1.66917 0
M  V30 6603 C 644.575 1.8839 -0.390763 0
M  V30 6604 O 643.868 1.81479 0.614478 0
M  V30 6605 C 644.062 2.18923 -2.82502 0
M  V30 6606 C 643.891 1.56849 -4.2146 0
M  V30 6607 C 642.661 1.34426 -4.87091 0
M  V30 6608 C 644.859 1.03322 -5.03815 0
M  V30 6609 N 642.841 0.681703 -6.10103 0
M  V30 6610 C 644.212 0.497165 -6.18003 0
M  V30 6611 C 646.267 0.926997 -4.89194 0
M  V30 6612 C 644.97 -0.134687 -7.19174 0
M  V30 6613 C 646.996 0.309009 -5.90592 0
M  V30 6614 C 646.358 -0.216399 -7.04068 0
M  V30 6615 H 642.457 0.412252 -0.664509 0
M  V30 6616 H 645.041 0.455758 -1.89291 0
M  V30 6617 H 643.212 2.86946 -2.61756 0
M  V30 6618 H 644.944 2.85844 -2.86488 0
M  V30 6619 H 641.699 1.61183 -4.45328 0
M  V30 6620 H 642.123 0.367256 -6.76003 0
M  V30 6621 H 646.765 1.31904 -4.01698 0
M  V30 6622 H 644.483 -0.538811 -8.06302 0
M  V30 6623 H 648.069 0.228438 -5.81351 0
M  V30 6624 H 646.949 -0.687064 -7.81184 0
M  V30 6625 N 644.452 1.42507 0.673017 0
M  V30 6626 C 645.68 1.46473 1.46128 0
M  V30 6627 C 646.095 0.0765912 1.88645 0
M  V30 6628 O 645.452 -0.909057 1.58248 0
M  V30 6629 C 645.503 2.39339 2.70923 0
M  V30 6630 O 645.224 3.72752 2.3019 0
M  V30 6631 C 646.725 2.52343 3.64469 0
M  V30 6632 H 643.945 0.49812 0.449575 0
M  V30 6633 H 646.489 1.87041 0.826802 0
M  V30 6634 H 644.644 2.02019 3.30556 0
M  V30 6635 H 645.058 4.22503 3.10791 0
M  V30 6636 H 646.532 3.2144 4.48754 0
M  V30 6637 H 647.009 1.56189 4.1049 0
M  V30 6638 H 647.615 2.90392 3.10729 0
M  V30 6639 N 645.93 -0.909495 1.28709 0
M  V30 6640 C 647.177 -1.65905 1.16111 0
M  V30 6641 C 647.505 -1.92334 -0.289436 0
M  V30 6642 O 646.76 -1.52495 -1.22653 0
M  V30 6643 C 647.059 -3.02117 1.90945 0
M  V30 6644 C 646.725 -2.95332 3.40719 0
M  V30 6645 C 645.387 -2.93189 3.81567 0
M  V30 6646 C 647.739 -2.85264 4.36204 0
M  V30 6647 C 645.067 -2.78784 5.16233 0
M  V30 6648 C 647.419 -2.724 5.70948 0
M  V30 6649 C 646.083 -2.68617 6.11066 0
M  V30 6650 H 645.353 -0.60709 0.42488 0
M  V30 6651 H 648 -1.05932 1.59533 0
M  V30 6652 H 646.305 -3.65901 1.40085 0
M  V30 6653 H 648.002 -3.59026 1.7861 0
M  V30 6654 H 644.592 -2.97797 3.08245 0
M  V30 6655 H 648.776 -2.86005 4.05605 0
M  V30 6656 H 644.032 -2.74254 5.46438 0
M  V30 6657 H 648.206 -2.63579 6.44592 0
M  V30 6658 H 645.833 -2.57213 7.15364 0
M  V30 6659 N 647.408 -1.11026 -1.11852 0
M  V30 6660 C 648.656 -0.854769 -1.83134 0
M  V30 6661 C 648.977 0.621375 -1.84835 0
M  V30 6662 O 648.247 1.45129 -1.31584 0
M  V30 6663 H 646.827 -0.313229 -0.678157 0
M  V30 6664 H 649.489 -1.40178 -1.35411 0
M  V30 6665 H 648.585 -1.22311 -2.87135 0
M  V30 6666 N 648.886 1.2938 -0.899927 0
M  V30 6667 C 649.849 2.25983 -0.382677 0
M  V30 6668 C 650.849 1.53366 0.483259 0
M  V30 6669 O 652.039 1.71798 0.28828 0
M  V30 6670 C 649.171 3.37878 0.452915 0
M  V30 6671 H 650.364 2.73252 -1.23586 0
M  V30 6672 H 647.917 1.40825 -0.678088 0
M  V30 6673 H 648.652 2.95949 1.32608 0
M  V30 6674 H 648.437 3.91742 -0.167562 0
M  V30 6675 H 649.927 4.09746 0.806107 0
M  V30 6676 N 650.364 0.662433 1.43002 0
M  V30 6677 C 651.296 -0.062326 2.29115 0
M  V30 6678 C 652.309 -0.777926 1.43011 0
M  V30 6679 O 653.498 -0.634146 1.66856 0
M  V30 6680 C 650.598 -1.11163 3.2015 0
M  V30 6681 C 649.771 -0.472327 4.34842 0
M  V30 6682 C 648.83 -1.41974 5.06685 0
M  V30 6683 O 647.856 -0.924795 5.61637 0
M  V30 6684 N 649.058 -2.75345 5.11043 0
M  V30 6685 H 651.823 0.676838 2.91957 0
M  V30 6686 H 649.384 0.505907 1.53793 0
M  V30 6687 H 651.376 -1.74643 3.65078 0
M  V30 6688 H 649.946 -1.75266 2.58845 0
M  V30 6689 H 649.166 0.341751 3.92716 0
M  V30 6690 H 650.454 -0.0264381 5.08793 0
M  V30 6691 H 649.852 -3.18108 4.67786 0
M  V30 6692 H 648.409 -3.34105 5.59658 0
M  V30 6693 N 651.842 -1.52309 0.404946 0
M  V30 6694 C 652.775 -2.23369 -0.467087 0
M  V30 6695 C 653.753 -1.24034 -1.0514 0
M  V30 6696 O 654.937 -1.53071 -1.10006 0
M  V30 6697 C 652.064 -2.95906 -1.64795 0
M  V30 6698 C 651.11 -4.09637 -1.18743 0
M  V30 6699 S 651.943 -5.35273 -0.156022 0
M  V30 6700 C 653.099 -6.11337 -1.34231 0
M  V30 6701 H 653.332 -2.96987 0.136294 0
M  V30 6702 H 650.865 -1.53236 0.189219 0
M  V30 6703 H 652.823 -3.38304 -2.3251 0
M  V30 6704 H 651.484 -2.21937 -2.22267 0
M  V30 6705 H 650.677 -4.59549 -2.06955 0
M  V30 6706 H 650.279 -3.69333 -0.588981 0
M  V30 6707 H 652.571 -6.38458 -2.26665 0
M  V30 6708 H 653.514 -7.02563 -0.883804 0
M  V30 6709 H 653.922 -5.42338 -1.56621 0
M  V30 6710 N 653.32 -0.135238 -1.57019 0
M  V30 6711 C 654.23 0.822226 -2.19719 0
M  V30 6712 C 655.246 1.28057 -1.17802 0
M  V30 6713 O 656.422 1.3402 -1.50335 0
M  V30 6714 C 653.487 2.0484 -2.79717 0
M  V30 6715 C 652.548 1.64042 -3.96723 0
M  V30 6716 C 651.781 2.80814 -4.53849 0
M  V30 6717 O 652.004 3.967 -4.0986 0
M  V30 6718 O 650.938 2.56963 -5.44292 0
M  V30 6719 H 654.764 0.318552 -3.02025 0
M  V30 6720 H 652.349 0.0912021 -1.49121 0
M  V30 6721 H 654.231 2.76622 -3.17897 0
M  V30 6722 H 652.906 2.54182 -2.00432 0
M  V30 6723 H 651.813 0.893182 -3.63281 0
M  V30 6724 H 653.146 1.19426 -4.77492 0
M  V30 6725 N 654.798 1.5699 0.138552 0
M  V30 6726 C 656.047 1.82998 0.848205 0
M  V30 6727 C 656.36 0.717829 1.81952 0
M  V30 6728 O 657.566 0.863756 2.57394 0
M  V30 6729 C 656.022 3.24379 1.55904 0
M  V30 6730 C 655.63 4.43552 0.62971 0
M  V30 6731 C 657.374 3.59654 2.25498 0
M  V30 6732 C 655.281 5.75957 1.34266 0
M  V30 6733 H 654.211 0.682495 0.320495 0
M  V30 6734 H 656.862 1.83222 0.100924 0
M  V30 6735 H 655.244 3.18567 2.35226 0
M  V30 6736 H 656.418 4.6062 -0.128882 0
M  V30 6737 H 654.733 4.16379 0.0417526 0
M  V30 6738 H 657.33 4.55837 2.79493 0
M  V30 6739 H 657.673 2.86124 3.02388 0
M  V30 6740 H 658.206 3.67164 1.53087 0
M  V30 6741 H 654.945 6.52604 0.615441 0
M  V30 6742 H 654.465 5.62811 2.07375 0
M  V30 6743 H 656.144 6.19046 1.88126 0
M  V30 6744 N 656.276 -0.40816 1.52223 0
M  V30 6745 C 657.522 -1.15347 1.67531 0
M  V30 6746 C 657.877 -1.8818 0.400748 0
M  V30 6747 O 657.17 -1.81803 -0.604845 0
M  V30 6748 C 657.364 -2.17422 2.83659 0
M  V30 6749 C 657.193 -1.54611 4.22286 0
M  V30 6750 C 655.963 -1.31841 4.87797 0
M  V30 6751 C 658.161 -1.00648 5.04355 0
M  V30 6752 N 656.143 -0.649338 6.10456 0
M  V30 6753 C 657.514 -0.464384 6.18258 0
M  V30 6754 C 659.569 -0.901041 4.89679 0
M  V30 6755 C 658.272 0.172825 7.19092 0
M  V30 6756 C 660.298 -0.277684 5.90748 0
M  V30 6757 C 659.66 0.253734 7.03943 0
M  V30 6758 H 655.759 -0.408722 0.666686 0
M  V30 6759 H 658.343 -0.445713 1.8953 0
M  V30 6760 H 656.514 -2.85554 2.63274 0
M  V30 6761 H 658.246 -2.84321 2.87999 0
M  V30 6762 H 655.001 -1.58819 4.46176 0
M  V30 6763 H 655.425 -0.3314 6.76188 0
M  V30 6764 H 660.067 -1.29772 4.02392 0
M  V30 6765 H 657.785 0.581564 8.06005 0
M  V30 6766 H 661.371 -0.197605 5.81464 0
M  V30 6767 H 660.251 0.728482 7.80809 0
M  V30 6768 N 657.755 -1.42862 -0.66545 0
M  V30 6769 C 659.001 -1.4504 -1.426 0
M  V30 6770 C 659.356 -0.0690217 -1.92276 0
M  V30 6771 O 658.649 0.91036 -1.68591 0
M  V30 6772 C 658.843 -2.4175 -2.63233 0
M  V30 6773 C 658.672 -3.89155 -2.25362 0
M  V30 6774 C 657.442 -4.57619 -2.14273 0
M  V30 6775 C 659.64 -4.79326 -1.86417 0
M  V30 6776 N 657.622 -5.90006 -1.69604 0
M  V30 6777 C 658.993 -6.00892 -1.52738 0
M  V30 6778 C 661.048 -4.66696 -1.73492 0
M  V30 6779 C 659.751 -7.11232 -1.0743 0
M  V30 6780 C 661.777 -5.77027 -1.29589 0
M  V30 6781 C 661.139 -6.97712 -0.968393 0
M  V30 6782 H 657.238 -0.585889 -0.517936 0
M  V30 6783 H 659.822 -1.78956 -0.767002 0
M  V30 6784 H 657.993 -2.09881 -3.26809 0
M  V30 6785 H 659.725 -2.34447 -3.29874 0
M  V30 6786 H 656.48 -4.11957 -2.33641 0
M  V30 6787 H 656.904 -6.60249 -1.49666 0
M  V30 6788 H 661.546 -3.7386 -1.97455 0
M  V30 6789 H 659.264 -8.03907 -0.822147 0
M  V30 6790 H 662.85 -5.6927 -1.20095 0
M  V30 6791 H 661.73 -7.81634 -0.63384 0
M  V30 6792 O 659.272 0.808226 -1.39821 0
M  V30 6793 H 659.963 1.45282 -1.28112 0
M  V30 END ATOM
M  V30 BEGIN BOND
M  V30 END BOND
M  V30 END CTAB
M  END
$$$$
