drugbank_target|P02931 Outer membrane protein F (DB04233; DB07084)
 OpenBabel12092119563D

  0  0  0     0  0            999 V3000
M  V30 BEGIN CTAB
M  V30 COUNTS 5407 5464 0 0 0
M  V30 BEGIN ATOM
M  V30 1 H -0.908 1.98254 -0.117106 0
M  V30 2 N 0 1.576 0 0
M  V30 3 C 0.933 2.03868 1.02534 0
M  V30 4 C 1.911 0.928543 1.3348 0
M  V30 5 O 3.095 1.19667 1.45644 0
M  V30 6 C 0.222 2.43627 2.35294 0
M  V30 7 C -0.732 3.65373 2.2001 0
M  V30 8 S 0.101 5.13292 1.52614 0
M  V30 9 C 1.257 5.56322 2.86805 0
M  V30 10 H 1.49 2.90518 0.631377 0
M  V30 11 H -0.977 1.52953 0.210867 0
M  V30 12 H 0.981 2.67203 3.11629 0
M  V30 13 H -0.358 1.57376 2.7183 0
M  V30 14 H -1.165 3.90944 3.18086 0
M  V30 15 H -1.563 3.418 1.51819 0
M  V30 16 H 0.729 5.58782 3.83104 0
M  V30 17 H 1.672 6.56266 2.65933 0
M  V30 18 H 2.08 4.83886 2.90714 0
M  V30 19 N 1.4781 -0.272755 1.55222 0
M  V30 20 C 2.4111 -1.3627 1.83046 0
M  V30 21 C 3.3891 -1.47536 0.683521 0
M  V30 22 O 4.5731 -1.64157 0.926545 0
M  V30 23 C 1.7001 -2.73908 1.99229 0
M  V30 24 C 0.7461 -2.79925 3.21783 0
M  V30 25 S 1.5791 -2.39146 4.79134 0
M  V30 26 C 2.7351 -3.78758 4.9829 0
M  V30 27 H 2.9681 -1.12464 2.75207 0
M  V30 28 H 0.5011 -0.472398 1.46996 0
M  V30 29 H 2.4591 -3.53171 2.09238 0
M  V30 30 H 1.1201 -2.94965 1.07956 0
M  V30 31 H 0.3131 -3.80946 3.29994 0
M  V30 32 H -0.0849 -2.08683 3.10367 0
M  V30 33 H 2.2071 -4.7403 4.84047 0
M  V30 34 H 3.1501 -3.75499 6.00338 0
M  V30 35 H 3.5581 -3.70072 4.26271 0
M  V30 36 N 2.9562 -1.48159 -0.537278 0
M  V30 37 C 3.9032 -1.62138 -1.64256 0
M  V30 38 C 4.8732 -0.463668 -1.59497 0
M  V30 39 O 6.0582 -0.686241 -1.78032 0
M  V30 40 C 3.1982 -1.66028 -3.02537 0
M  V30 41 C 2.3112 -2.92855 -3.17585 0
M  V30 42 C 1.4462 -2.87952 -4.46382 0
M  V30 43 C 0.4852 -4.09516 -4.54932 0
M  V30 44 N -0.3778 -4.02733 -5.75109 0
M  V30 45 H 4.4622 -2.56529 -1.51647 0
M  V30 46 H 1.9992 -1.27224 -0.738414 0
M  V30 47 H 3.9572 -1.66265 -3.82638 0
M  V30 48 H 2.5872 -0.751331 -3.13934 0
M  V30 49 H 1.6392 -3.02395 -2.30784 0
M  V30 50 H 2.9512 -3.82822 -3.19764 0
M  V30 51 H 2.1052 -2.8655 -5.34765 0
M  V30 52 H 0.8442 -1.95702 -4.46712 0
M  V30 53 H -0.1508 -4.11201 -3.64957 0
M  V30 54 H 1.0742 -5.02917 -4.56346 0
M  V30 55 H -0.9798 -3.13299 -5.76351 0
M  V30 56 H -1.0628 -4.86397 -5.78752 0
M  V30 57 H 0.2052 -4.05379 -6.65799 0
M  V30 58 N 4.4343 0.785586 -1.36625 0
M  V30 59 C 5.8503 1.08419 -1.17122 0
M  V30 60 C 6.0503 2.015 0.00208491 0
M  V30 61 O 5.1063 2.43551 0.666278 0
M  V30 62 C 6.4193 1.69498 -2.48377 0
M  V30 63 C 7.9673 1.81821 -2.54775 0
M  V30 64 C 8.4423 2.46315 -3.86126 0
M  V30 65 N 9.9333 2.53779 -3.87492 0
M  V30 66 C 10.6683 3.045 -4.85868 0
M  V30 67 N 10.1643 3.55499 -5.94637 0
M  V30 68 N 11.9573 3.03247 -4.73284 0
M  V30 69 H 4.1083 0.167264 -2.1174 0
M  V30 70 H 6.3713 0.13682 -0.938075 0
M  V30 71 H 6.0773 1.08571 -3.34522 0
M  V30 72 H 5.9513 2.6896 -2.64462 0
M  V30 73 H 8.3383 2.41884 -1.69045 0
M  V30 74 H 8.4193 0.811532 -2.42586 0
M  V30 75 H 8.0633 1.86895 -4.72263 0
M  V30 76 H 7.9933 3.47561 -3.95612 0
M  V30 77 H 10.4843 2.17672 -3.08913 0
M  V30 78 H 10.7973 3.92562 -6.65669 0
M  V30 79 H 9.1423 3.5364 -5.98301 0
M  V30 80 H 12.3333 2.62696 -3.87438 0
M  V30 81 H 12.5063 3.42467 -5.50109 0
M  V30 82 N 5.9124 1.20967 1.01018 0
M  V30 83 C 6.8604 0.961223 2.1181 0
M  V30 84 C 7.8544 -0.0897034 1.69162 0
M  V30 85 O 9.0604 0.0612271 1.79896 0
M  V30 86 H 5.4354 0.29355 0.692338 0
M  V30 87 H 7.4064 1.90178 2.29946 0
M  V30 88 C 6.1554 0.536854 3.4353 0
M  V30 89 H 5.4784 1.33713 3.76777 0
M  V30 90 H 6.9184 0.402286 4.22087 0
M  V30 91 C 5.3774 -0.751574 3.2841 0
M  V30 92 O 5.9074 -1.80841 3.58691 0
M  V30 93 N 4.1134 -0.716079 2.81639 0
M  V30 94 H 3.6604 0.144236 2.57196 0
M  V30 95 H 3.6184 -1.57847 2.71904 0
M  V30 96 N 7.3905 -1.2043 1.01659 0
M  V30 97 C 8.6395 -1.89118 0.701237 0
M  V30 98 C 8.9525 -1.79705 -0.772358 0
M  V30 99 O 10.1585 -2.43528 -1.20026 0
M  V30 100 C 8.6145 -3.39168 1.20388 0
M  V30 101 C 8.2225 -3.57166 2.70438 0
M  V30 102 C 9.9665 -4.1341 0.963953 0
M  V30 103 C 7.8735 -5.01042 3.14183 0
M  V30 104 H 6.8035 -0.708267 0.2586 0
M  V30 105 H 9.4545 -1.36239 1.22927 0
M  V30 106 H 7.8365 -3.91369 0.603824 0
M  V30 107 H 9.0105 -3.15351 3.35992 0
M  V30 108 H 7.3255 -2.96294 2.92572 0
M  V30 109 H 9.9225 -5.19491 1.26621 0
M  V30 110 H 10.2655 -4.16181 -0.099578 0
M  V30 111 H 10.7985 -3.67309 1.52738 0
M  V30 112 H 7.5375 -5.03426 4.19812 0
M  V30 113 H 7.0575 -5.43668 2.53348 0
M  V30 114 H 8.7365 -5.69623 3.0682 0
M  V30 115 N 8.8686 -0.792821 -1.36206 0
M  V30 116 C 9.7986 -0.207853 -2.32573 0
M  V30 117 C 10.7796 0.659055 -1.56813 0
M  V30 118 O 11.9646 0.592176 -1.84951 0
M  V30 119 C 9.0946 0.655449 -3.41059 0
M  V30 120 C 8.0486 -0.111842 -4.27854 0
M  V30 121 C 7.3746 0.872274 -5.27537 0
M  V30 122 C 8.6746 -1.30299 -5.05786 0
M  V30 123 H 10.3686 -1.01294 -2.81744 0
M  V30 124 H 7.9146 -0.48854 -1.3546 0
M  V30 125 H 9.8676 1.07464 -4.07467 0
M  V30 126 H 8.5916 1.49328 -2.90463 0
M  V30 127 H 7.2506 -0.512053 -3.63006 0
M  V30 128 H 6.8986 1.70523 -4.73214 0
M  V30 129 H 6.5986 0.363291 -5.86476 0
M  V30 130 H 8.1226 1.28996 -5.96818 0
M  V30 131 H 9.5366 -0.959379 -5.65216 0
M  V30 132 H 7.9336 -1.7455 -5.74154 0
M  V30 133 H 9.0036 -2.09663 -4.37229 0
M  V30 134 N 10.3467 1.47872 -0.545128 0
M  V30 135 C 11.3097 2.28337 0.198717 0
M  V30 136 C 12.3097 1.36255 0.853888 0
M  V30 137 O 13.4997 1.59003 0.711606 0
M  V30 138 C 10.6317 3.15585 1.28915 0
M  V30 139 H 11.8247 2.95567 -0.507941 0
M  V30 140 H 9.3777 1.53362 -0.301616 0
M  V30 141 H 10.1127 2.53019 2.02859 0
M  V30 142 H 9.8977 3.83337 0.824309 0
M  V30 143 H 11.3877 3.76243 1.81194 0
M  V30 144 N 11.8248 0.280983 1.55075 0
M  V30 145 C 13.0708 -0.33461 2.00021 0
M  V30 146 C 13.4038 -1.55063 1.16915 0
M  V30 147 O 12.6788 -1.93006 0.240646 0
M  V30 148 C 12.9618 -0.711007 3.53011 0
M  V30 149 C 12.8148 0.512766 4.46868 0
M  V30 150 C 14.1338 -1.54522 4.12081 0
M  V30 151 H 11.2528 -0.120147 0.727141 0
M  V30 152 H 13.8948 0.389097 1.85973 0
M  V30 153 H 12.0448 -1.32761 3.65112 0
M  V30 154 H 13.7168 1.15131 4.46702 0
M  V30 155 H 11.9598 1.14975 4.18286 0
M  V30 156 H 12.6308 0.205556 5.51617 0
M  V30 157 H 15.1068 -1.02442 4.03293 0
M  V30 158 H 13.9828 -1.77739 5.19327 0
M  V30 159 H 14.2438 -2.52813 3.62682 0
M  V30 160 N 13.3029 -1.57598 0.00835791 0
M  V30 161 C 14.5519 -1.90107 -0.673968 0
M  V30 162 C 14.8649 -0.884275 -1.7447 0
M  V30 163 O 16.0709 -1.09987 -2.48224 0
M  V30 164 C 14.5269 -3.37497 -1.24995 0
M  V30 165 C 14.1349 -4.47491 -0.2136 0
M  V30 166 C 15.8789 -3.79104 -1.90999 0
M  V30 167 C 13.7859 -5.85963 -0.80005 0
M  V30 168 H 12.7159 -0.709393 -0.255495 0
M  V30 169 H 15.3669 -1.83365 0.0702693 0
M  V30 170 H 13.7489 -3.39102 -2.04513 0
M  V30 171 H 14.9229 -4.57414 0.557596 0
M  V30 172 H 13.2379 -4.14956 0.346474 0
M  V30 173 H 15.8349 -4.79901 -2.35795 0
M  V30 174 H 16.1779 -3.1306 -2.74407 0
M  V30 175 H 16.7109 -3.79833 -1.18203 0
M  V30 176 H 13.4499 -6.555 -0.00456708 0
M  V30 177 H 12.9699 -5.79687 -1.54021 0
M  V30 178 H 14.6489 -6.33884 -1.29615 0
M  V30 179 N 14.781 0.264519 -1.55364 0
M  V30 180 C 16.027 0.99646 -1.76631 0
M  V30 181 C 16.36 1.85632 -0.570478 0
M  V30 182 O 15.635 1.89647 0.43175 0
M  V30 183 C 15.918 1.87187 -3.07625 0
M  V30 184 C 15.771 1.04138 -4.37579 0
M  V30 185 C 17.09 2.85749 -3.34717 0
M  V30 186 H 14.209 0.360841 -0.642622 0
M  V30 187 H 16.851 0.268218 -1.88097 0
M  V30 188 H 15.001 2.49279 -2.9798 0
M  V30 189 H 16.673 0.440517 -4.59192 0
M  V30 190 H 14.916 0.345115 -4.32425 0
M  V30 191 H 15.587 1.68729 -5.2558 0
M  V30 192 H 18.063 2.33793 -3.4421 0
M  V30 193 H 16.939 3.44136 -4.27623 0
M  V30 194 H 17.2 3.61311 -2.54768 0
M  V30 195 N 16.2591 1.48442 0.529413 0
M  V30 196 C 17.6701 1.5002 1.11134 0
M  V30 197 C 18.0211 0.27031 1.94329 0
M  V30 198 O 17.1461 -0.622507 2.07253 0
M  V30 199 C 17.7411 2.71834 2.02217 0
M  V30 200 C 16.3001 2.76283 2.55627 0
M  V30 201 C 15.4471 2.43542 1.326 0
M  V30 202 H 18.3981 1.5555 0.314641 0
M  V30 203 H 18.4191 2.50384 2.8651 0
M  V30 204 H 17.9311 3.61331 1.41639 0
M  V30 205 H 16.0321 1.90995 3.19924 0
M  V30 206 H 16.1451 3.77725 2.94721 0
M  V30 207 H 14.5091 1.94709 1.64196 0
M  V30 208 H 15.2921 3.3528 0.737734 0
M  V30 209 N 17.7372 -0.778329 1.37039 0
M  V30 210 C 18.7002 -1.87301 1.32102 0
M  V30 211 C 19.7002 -1.59198 0.226405 0
M  V30 212 O 20.8902 -1.67403 0.481861 0
M  V30 213 C 18.0222 -3.24309 1.05055 0
M  V30 214 H 19.2152 -1.93093 2.29467 0
M  V30 215 H 16.7682 -0.977358 1.21973 0
M  V30 216 H 17.5032 -3.24196 0.0819373 0
M  V30 217 H 17.2882 -3.46098 1.84279 0
M  V30 218 H 18.7782 -4.04382 1.04234 0
M  V30 219 N 19.2153 -1.21501 -1.00376 0
M  V30 220 C 20.1453 -0.999478 -2.11028 0
M  V30 221 C 21.1263 0.0759671 -1.6993 0
M  V30 222 O 22.3113 -0.0841106 -1.94018 0
M  V30 223 C 19.4413 -0.564709 -3.42678 0
M  V30 224 C 18.3953 -1.58486 -3.97576 0
M  V30 225 C 17.7213 -1.00628 -5.25146 0
M  V30 226 C 19.0213 -2.97204 -4.29496 0
M  V30 227 H 20.7153 -1.92495 -2.29317 0
M  V30 228 H 18.2613 -0.92693 -1.102 0
M  V30 229 H 20.2143 -0.401091 -4.19487 0
M  V30 230 H 18.9383 0.396411 -3.24185 0
M  V30 231 H 17.5973 -1.73606 -3.22888 0
M  V30 232 H 17.2453 -0.0368439 -5.02987 0
M  V30 233 H 16.9453 -1.68771 -5.62841 0
M  V30 234 H 18.4693 -0.854015 -6.04598 0
M  V30 235 H 19.8833 -2.8552 -4.97143 0
M  V30 236 H 18.2803 -3.62372 -4.78338 0
M  V30 237 H 19.3503 -3.47956 -3.3772 0
M  V30 238 N 20.6934 1.19889 -1.02296 0
M  V30 239 C 21.6234 2.25141 -0.619174 0
M  V30 240 C 22.6044 1.66051 0.368915 0
M  V30 241 O 23.7894 1.92546 0.252941 0
M  V30 242 C 20.9194 3.4728 0.0368783 0
M  V30 243 C 19.8734 4.19005 -0.872865 0
M  V30 244 C 19.1994 5.34637 -0.0822402 0
M  V30 245 C 20.4994 4.74452 -2.18387 0
M  V30 246 H 22.1934 2.59171 -1.49903 0
M  V30 247 H 19.7394 1.24579 -0.722222 0
M  V30 248 H 21.6924 4.20098 0.330958 0
M  V30 249 H 20.4164 3.12433 0.95149 0
M  V30 250 H 19.0754 3.48061 -1.15105 0
M  V30 251 H 18.7234 4.96034 0.83422 0
M  V30 252 H 18.4234 5.83557 -0.688149 0
M  V30 253 H 19.9474 6.10255 0.205238 0
M  V30 254 H 21.3614 5.39055 -1.95172 0
M  V30 255 H 19.7584 5.33834 -2.74119 0
M  V30 256 H 20.8284 3.92844 -2.84257 0
M  V30 257 N 22.1715 0.800033 1.35784 0
M  V30 258 C 23.4175 0.377901 1.99248 0
M  V30 259 C 23.7505 -1.05052 1.63333 0
M  V30 260 O 23.0255 -1.72768 0.893385 0
M  V30 261 C 23.3085 0.553922 3.55814 0
M  V30 262 C 23.1615 2.0268 4.01548 0
M  V30 263 C 24.4805 -0.0244802 4.40093 0
M  V30 264 H 21.5995 0.138782 0.723815 0
M  V30 265 H 24.2415 1.00835 1.61035 0
M  V30 266 H 22.3915 0.0172398 3.88496 0
M  V30 267 H 24.0635 2.62536 3.79305 0
M  V30 268 H 22.3065 2.5256 3.52698 0
M  V30 269 H 22.9775 2.10087 5.10458 0
M  V30 270 H 25.4535 0.433775 4.13833 0
M  V30 271 H 24.3295 0.128637 5.48749 0
M  V30 272 H 24.5905 -1.11758 4.27741 0
M  V30 273 N 23.6496 -1.47581 0.552962 0
M  V30 274 C 24.6126 -2.28439 -0.186605 0
M  V30 275 C 25.6126 -1.36706 -0.84665 0
M  V30 276 O 26.8026 -1.59378 -0.703164 0
M  V30 277 C 23.9346 -3.16264 -1.2724 0
M  V30 278 H 25.1276 -2.95294 0.523609 0
M  V30 279 H 22.6806 -1.532 0.309745 0
M  V30 280 H 23.4156 -2.54091 -2.01514 0
M  V30 281 H 23.2006 -3.83769 -0.803968 0
M  V30 282 H 24.6906 -3.77198 -1.79196 0
M  V30 283 N 25.1277 -0.289203 -1.54924 0
M  V30 284 C 26.3757 0.322879 -1.99504 0
M  V30 285 C 26.6967 1.55313 -1.1791 0
M  V30 286 O 25.9667 1.94001 -0.272097 0
M  V30 287 H 24.5467 0.122291 -0.736922 0
M  V30 288 H 27.2087 -0.397802 -1.90797 0
M  V30 289 H 26.3047 0.603061 -3.06218 0
M  V30 290 N 26.6058 1.57591 -0.0167156 0
M  V30 291 C 27.8338 1.95575 0.675128 0
M  V30 292 C 28.2488 0.892542 1.6637 0
M  V30 293 O 27.6058 -0.126912 1.82058 0
M  V30 294 C 27.6568 3.33608 1.39239 0
M  V30 295 O 27.3778 4.3585 0.443444 0
M  V30 296 C 28.8788 3.86151 2.17721 0
M  V30 297 H 26.0988 0.644423 0.186978 0
M  V30 298 H 28.6428 2.0437 -0.0728 0
M  V30 299 H 26.7978 3.2607 2.09182 0
M  V30 300 H 27.2118 5.158 0.951358 0
M  V30 301 H 28.6858 4.85114 2.63379 0
M  V30 302 H 29.1628 3.19738 3.01105 0
M  V30 303 H 29.7688 3.96918 1.52761 0
M  V30 304 N 28.0839 -0.256276 1.55502 0
M  V30 305 C 29.0469 -1.30047 1.88734 0
M  V30 306 C 30.0469 -1.4154 0.763086 0
M  V30 307 O 31.2369 -1.40403 1.03115 0
M  V30 308 C 28.3689 -2.67953 2.10747 0
M  V30 309 H 29.5619 -1.01802 2.82093 0
M  V30 310 H 27.1149 -0.495134 1.4825 0
M  V30 311 H 27.8499 -3.01351 1.19825 0
M  V30 312 H 27.6349 -2.60993 2.92617 0
M  V30 313 H 29.1249 -3.43368 2.37673 0
M  V30 314 N 29.562 -1.4872 -0.521534 0
M  V30 315 C 30.51 -1.64328 -1.64618 0
M  V30 316 C 31.504 -0.50953 -1.61555 0
M  V30 317 O 32.71 -0.688525 -1.66311 0
M  V30 318 H 29.085 -0.517805 -0.545328 0
M  V30 319 H 31.056 -2.58767 -1.48601 0
M  V30 320 C 29.805 -1.70805 -3.02855 0
M  V30 321 H 29.128 -2.5741 -3.05909 0
M  V30 322 H 30.568 -1.85766 -3.81139 0
M  V30 323 C 29.027 -0.448479 -3.33902 0
M  V30 324 O 29.557 0.434928 -3.99339 0
M  V30 325 N 27.763 -0.317616 -2.88859 0
M  V30 326 H 27.31 -1.03748 -2.35784 0
M  V30 327 H 27.268 0.524113 -3.10001 0
M  V30 328 N 31.0401 0.771051 -1.3745 0
M  V30 329 C 32.0031 1.86598 -1.33093 0
M  V30 330 C 33.0031 1.59076 -0.234845 0
M  V30 331 O 34.1931 1.67145 -0.490732 0
M  V30 332 C 31.3251 3.23747 -1.06773 0
M  V30 333 H 32.5181 1.91873 -2.30488 0
M  V30 334 H 30.0711 0.970876 -1.2249 0
M  V30 335 H 30.8061 3.24148 -0.099129 0
M  V30 336 H 30.5911 3.45115 -1.86112 0
M  V30 337 H 32.0811 4.03824 -1.06377 0
M  V30 338 N 32.5182 1.22032 0.997298 0
M  V30 339 C 33.4812 0.987909 2.06816 0
M  V30 340 C 34.4812 -0.0440084 1.6074 0
M  V30 341 O 35.6712 0.194053 1.73116 0
M  V30 342 C 32.8032 0.49132 3.37341 0
M  V30 343 H 33.9962 1.93803 2.28868 0
M  V30 344 H 31.5492 1.03838 1.16822 0
M  V30 345 H 32.2842 -0.463364 3.20973 0
M  V30 346 H 32.0692 1.23575 3.72118 0
M  V30 347 H 33.5592 0.348824 4.16141 0
M  V30 348 N 33.9963 -1.19345 1.0293 0
M  V30 349 C 34.9063 -2.26245 0.620515 0
M  V30 350 C 35.9223 -1.70486 -0.347928 0
M  V30 351 O 37.0983 -2.00347 -0.205704 0
M  V30 352 C 34.1633 -3.46693 -0.0218957 0
M  V30 353 C 33.2243 -4.17632 0.994102 0
M  V30 354 C 32.4573 -5.32329 0.382253 0
M  V30 355 O 32.6803 -5.64552 -0.814676 0
M  V30 356 O 31.6143 -5.91664 1.10531 0
M  V30 357 H 35.4403 -2.63453 1.51083 0
M  V30 358 H 33.0253 -1.26207 0.799513 0
M  V30 359 H 34.9073 -4.19683 -0.380072 0
M  V30 360 H 33.5823 -3.11333 -0.886209 0
M  V30 361 H 32.4893 -3.4676 1.40387 0
M  V30 362 H 33.8223 -4.56964 1.8288 0
M  V30 363 N 35.4744 -0.807222 -1.35358 0
M  V30 364 C 36.7234 -0.384376 -1.98004 0
M  V30 365 C 37.0364 1.0543 -1.64754 0
M  V30 366 O 38.2424 1.58029 -2.20769 0
M  V30 367 C 36.6984 -0.636326 -3.5423 0
M  V30 368 C 36.3064 -2.08759 -3.96388 0
M  V30 369 C 38.0504 -0.278869 -4.23583 0
M  V30 370 C 35.9574 -2.28525 -5.45463 0
M  V30 371 H 34.8874 -0.139986 -0.740891 0
M  V30 372 H 37.5384 -0.991369 -1.54415 0
M  V30 373 H 35.9204 0.0406256 -3.95979 0
M  V30 374 H 37.0944 -2.8024 -3.6579 0
M  V30 375 H 35.4094 -2.40497 -3.39926 0
M  V30 376 H 38.0064 -0.404599 -5.33167 0
M  V30 377 H 38.3494 0.775012 -4.09022 0
M  V30 378 H 38.8824 -0.909764 -3.87257 0
M  V30 379 H 35.6214 -3.32361 -5.64992 0
M  V30 380 H 35.1414 -1.61569 -5.77629 0
M  V30 381 H 36.8204 -2.10109 -6.11934 0
M  V30 382 N 36.9525 1.47285 -0.560781 0
M  V30 383 C 38.1825 2.06555 -0.0429638 0
M  V30 384 C 38.5905 1.41339 1.25777 0
M  V30 385 O 37.9335 0.505182 1.76617 0
M  V30 386 C 37.9955 3.58827 0.219887 0
M  V30 387 C 37.6595 4.46105 -0.991944 0
M  V30 388 C 38.6565 4.84 -1.89843 0
M  V30 389 C 36.3415 4.87567 -1.20762 0
M  V30 390 C 38.3355 5.6216 -3.00425 0
M  V30 391 C 36.0225 5.65491 -2.31653 0
M  V30 392 C 37.0205 6.02699 -3.21315 0
M  V30 393 O 36.7085 6.79052 -4.30283 0
M  V30 394 H 36.4405 0.674537 -0.0444468 0
M  V30 395 H 38.9945 1.90225 -0.774818 0
M  V30 396 H 37.2245 3.73383 1.00609 0
M  V30 397 H 38.9135 4.00103 0.683522 0
M  V30 398 H 39.6795 4.52564 -1.74387 0
M  V30 399 H 35.5585 4.5807 -0.518893 0
M  V30 400 H 39.1025 5.9112 -3.70436 0
M  V30 401 H 34.9995 5.9634 -2.47081 0
M  V30 402 H 35.7675 6.9745 -4.28376 0
M  V30 403 N 38.4306 0.297415 1.54768 0
M  V30 404 C 39.3786 -0.596051 2.24833 0
M  V30 405 C 40.3726 -1.13992 1.25308 0
M  V30 406 O 41.5786 -1.09098 1.4317 0
M  V30 407 H 37.9536 -0.210814 0.721846 0
M  V30 408 H 39.9246 0.0174667 2.98395 0
M  V30 409 C 38.6736 -1.75818 2.99972 0
M  V30 410 H 37.9966 -1.3489 3.76357 0
M  V30 411 H 39.4366 -2.35949 3.52284 0
M  V30 412 C 37.8956 -2.66014 2.06732 0
M  V30 413 O 38.4256 -3.67009 1.63302 0
M  V30 414 N 36.6316 -2.33669 1.72763 0
M  V30 415 H 36.1786 -1.51586 2.08277 0
M  V30 416 H 36.1366 -2.94285 1.10652 0
M  V30 417 N 39.9087 -1.5758 0.0250728 0
M  V30 418 C 40.8557 -2.09973 -0.958129 0
M  V30 419 C 41.8257 -1.00085 -1.3256 0
M  V30 420 O 43.0107 -1.27481 -1.41962 0
M  V30 421 C 40.1507 -2.62812 -2.2366 0
M  V30 422 C 39.2637 -3.86693 -1.92594 0
M  V30 423 C 38.3987 -4.27941 -3.14707 0
M  V30 424 C 37.4377 -5.44591 -2.79442 0
M  V30 425 N 36.5747 -5.81014 -3.94167 0
M  V30 426 H 41.4147 -2.937 -0.504428 0
M  V30 427 H 38.9517 -1.45172 -0.237392 0
M  V30 428 H 40.9097 -2.91536 -2.98434 0
M  V30 429 H 39.5397 -1.81922 -2.66654 0
M  V30 430 H 38.5917 -3.64723 -1.0808 0
M  V30 431 H 39.9037 -4.71547 -1.62619 0
M  V30 432 H 39.0577 -4.58079 -3.97804 0
M  V30 433 H 37.7967 -3.41845 -3.4784 0
M  V30 434 H 36.8017 -5.1415 -1.94755 0
M  V30 435 H 38.0267 -6.32382 -2.47528 0
M  V30 436 H 35.9727 -4.97874 -4.2715 0
M  V30 437 H 35.8897 -6.60498 -3.67801 0
M  V30 438 H 37.1577 -6.15756 -4.7798 0
M  V30 439 N 41.3868 0.248026 -1.55636 0
M  V30 440 C 42.6638 0.998988 -1.68165 0
M  V30 441 C 43.0438 2.03409 -0.564621 0
M  V30 442 O 42.3918 2.24378 0.432076 0
M  V30 443 C 42.6018 1.63334 -3.0842 0
M  V30 444 C 43.9498 2.13562 -3.66983 0
M  V30 445 O 44.9738 1.73277 -3.11213 0
M  V30 446 O 43.8328 2.87526 -4.64749 0
M  V30 447 H 40.9268 0.464933 -0.683935 0
M  V30 448 H 43.4728 0.241902 -1.67967 0
M  V30 449 H 42.2448 0.884583 -3.8117 0
M  V30 450 H 41.8678 2.45666 -3.12624 0
M  V30 451 N 42.8649 1.48995 0.513639 0
M  V30 452 C 44.1129 1.57531 1.26604 0
M  V30 453 C 44.4339 0.258236 1.93283 0
M  V30 454 O 43.7039 -0.721502 1.8213 0
M  V30 455 H 42.2839 0.580387 0.470276 0
M  V30 456 H 44.9459 1.85552 0.596373 0
M  V30 457 H 44.0419 2.36486 2.03669 0
M  V30 458 N 44.343 -0.763751 1.37857 0
M  V30 459 C 45.291 -1.89864 1.34367 0
M  V30 460 C 46.285 -1.67816 0.231143 0
M  V30 461 O 47.491 -1.75508 0.399617 0
M  V30 462 H 43.866 -0.624501 0.41893 0
M  V30 463 H 45.837 -1.89925 2.30155 0
M  V30 464 C 44.586 -3.27227 1.1755 0
M  V30 465 H 43.909 -3.44773 2.02414 0
M  V30 466 H 45.349 -4.06911 1.1916 0
M  V30 467 C 43.808 -3.36692 -0.118311 0
M  V30 468 O 44.338 -3.86374 -1.09902 0
M  V30 469 N 42.544 -2.90092 -0.171717 0
M  V30 470 H 42.091 -2.49853 0.627012 0
M  V30 471 H 42.049 -2.96806 -1.03699 0
M  V30 472 N 45.8211 -1.22559 -0.990812 0
M  V30 473 C 46.7681 -0.997519 -2.0813 0
M  V30 474 C 47.7381 0.0814702 -1.659 0
M  V30 475 O 48.9231 -0.0685424 -1.90677 0
M  V30 476 C 46.0631 -0.583615 -3.40129 0
M  V30 477 C 45.1761 -1.7336 -3.9569 0
M  V30 478 C 44.3111 -1.26748 -5.15857 0
M  V30 479 C 43.3501 -2.38888 -5.63559 0
M  V30 480 N 42.4871 -1.93308 -6.74964 0
M  V30 481 H 47.3271 -1.93099 -2.26973 0
M  V30 482 H 44.8641 -0.962114 -1.11273 0
M  V30 483 H 46.8221 -0.324801 -4.15934 0
M  V30 484 H 45.4521 0.312845 -3.2128 0
M  V30 485 H 44.5041 -2.10669 -3.16738 0
M  V30 486 H 45.8161 -2.57704 -4.27071 0
M  V30 487 H 44.9701 -0.966173 -5.98957 0
M  V30 488 H 43.7091 -0.394272 -4.86104 0
M  V30 489 H 42.7141 -2.69805 -4.79046 0
M  V30 490 H 43.9391 -3.26728 -5.95336 0
M  V30 491 H 41.8851 -1.08352 -6.4699 0
M  V30 492 H 41.8021 -2.71217 -7.05675 0
M  V30 493 H 43.0701 -1.66252 -7.61564 0
M  V30 494 N 47.2992 1.18797 -1.03562 0
M  V30 495 C 48.5452 1.8893 -0.737113 0
M  V30 496 C 48.8782 1.79837 0.732956 0
M  V30 497 O 48.1532 1.19525 1.5344 0
M  V30 498 C 48.4362 3.39607 -1.19745 0
M  V30 499 C 48.2892 3.57537 -2.72924 0
M  V30 500 C 49.6082 4.33069 -0.783526 0
M  V30 501 H 46.7272 0.686057 -0.269249 0
M  V30 502 H 49.3692 1.39797 -1.28673 0
M  V30 503 H 47.5192 3.81583 -0.729855 0
M  V30 504 H 49.1912 3.24688 -3.27682 0
M  V30 505 H 47.4342 3.00363 -3.12993 0
M  V30 506 H 48.1052 4.63238 -3.00191 0
M  V30 507 H 50.5812 3.98846 -1.18581 0
M  V30 508 H 49.4572 5.3707 -1.13343 0
M  V30 509 H 49.7182 4.40986 0.313681 0
M  V30 510 N 48.7773 0.814389 1.34928 0
M  V30 511 C 50.0543 0.321363 1.92942 0
M  V30 512 C 50.4343 -1.19014 1.74353 0
M  V30 513 O 49.7823 -1.99328 1.11716 0
M  V30 514 C 49.9923 0.741323 3.41036 0
M  V30 515 C 51.3403 0.735266 4.18185 0
M  V30 516 O 52.3643 0.68336 3.49584 0
M  V30 517 O 51.2233 0.800703 5.40602 0
M  V30 518 H 48.3173 0.0858893 0.822528 0
M  V30 519 H 50.8633 0.898609 1.43955 0
M  V30 520 H 49.6353 1.78276 3.4833 0
M  V30 521 H 49.2583 0.139307 3.97356 0
M  V30 522 N 50.2554 -1.46986 0.568584 0
M  V30 523 C 51.1854 -2.32946 -0.160753 0
M  V30 524 C 52.1664 -1.44487 -0.897631 0
M  V30 525 O 53.3514 -1.73327 -0.875867 0
M  V30 526 C 50.4814 -3.26494 -1.18403 0
M  V30 527 C 49.4354 -4.24282 -0.562895 0
M  V30 528 C 48.7614 -5.07236 -1.69163 0
M  V30 529 C 50.0614 -5.19989 0.490761 0
M  V30 530 H 51.7554 -2.94175 0.556916 0
M  V30 531 H 49.3014 -1.4146 0.26927 0
M  V30 532 H 51.2544 -3.85477 -1.70251 0
M  V30 533 H 49.9784 -2.63343 -1.93179 0
M  V30 534 H 48.6374 -3.66541 -0.0656164 0
M  V30 535 H 48.2854 -4.4048 -2.42871 0
M  V30 536 H 47.9854 -5.7345 -1.28174 0
M  V30 537 H 49.5094 -5.6908 -2.21314 0
M  V30 538 H 50.9234 -5.73271 0.0579047 0
M  V30 539 H 49.3204 -5.94469 0.820165 0
M  V30 540 H 50.3904 -4.64777 1.3824 0
M  V30 541 N 51.7335 -0.305618 -1.54608 0
M  V30 542 C 52.9635 0.304333 -2.04346 0
M  V30 543 C 53.3715 1.47715 -1.18224 0
M  V30 544 O 52.7145 1.82591 -0.201577 0
M  V30 545 C 52.7765 0.819031 -3.50046 0
M  V30 546 C 52.4405 -0.22912 -4.56425 0
M  V30 547 C 53.4375 -1.05914 -5.08997 0
M  V30 548 C 51.1225 -0.372148 -5.0092 0
M  V30 549 C 53.1165 -2.01809 -6.04609 0
M  V30 550 C 50.8035 -1.33454 -5.9635 0
M  V30 551 C 51.8015 -2.15599 -6.48079 0
M  V30 552 O 51.4895 -3.10205 -7.41639 0
M  V30 553 H 51.2215 0.0693996 -0.672428 0
M  V30 554 H 53.7755 -0.444548 -2.00532 0
M  V30 555 H 52.0055 1.61852 -3.51199 0
M  V30 556 H 53.6945 1.34537 -3.82955 0
M  V30 557 H 54.4605 -0.959538 -4.75413 0
M  V30 558 H 50.3395 0.257304 -4.60281 0
M  V30 559 H 53.8835 -2.65966 -6.44909 0
M  V30 560 H 49.7805 -1.43485 -6.29351 0
M  V30 561 H 50.5485 -3.05237 -7.59455 0
M  V30 562 N 53.2116 1.57565 -0.0334293 0
M  V30 563 C 54.4596 1.91598 0.642999 0
M  V30 564 C 54.7806 0.910847 1.7242 0
M  V30 565 O 54.0506 -0.0469931 1.95844 0
M  V30 566 H 52.6306 0.707228 0.240496 0
M  V30 567 H 55.2926 1.94726 -0.0822488 0
M  V30 568 H 54.3886 2.92336 1.09298 0
M  V30 569 N 54.6897 -0.239769 1.55765 0
M  V30 570 C 55.6367 -1.29696 1.90913 0
M  V30 571 C 56.6067 -1.47478 0.764164 0
M  V30 572 O 57.7917 -1.61345 1.01845 0
M  V30 573 C 54.9317 -2.64598 2.21544 0
M  V30 574 C 54.0447 -2.54765 3.48882 0
M  V30 575 C 53.1797 -3.82069 3.69049 0
M  V30 576 C 52.2187 -3.66883 4.89963 0
M  V30 577 N 51.3557 -4.86094 5.06614 0
M  V30 578 H 56.1957 -0.990224 2.81067 0
M  V30 579 H 53.7327 -0.477684 1.39128 0
M  V30 580 H 55.6907 -3.43132 2.3731 0
M  V30 581 H 54.3207 -2.93405 1.34585 0
M  V30 582 H 53.3727 -1.67763 3.41409 0
M  V30 583 H 54.6847 -2.39457 4.37563 0
M  V30 584 H 53.8387 -4.69046 3.84812 0
M  V30 585 H 52.5777 -4.00282 2.78614 0
M  V30 586 H 51.5827 -2.78289 4.74168 0
M  V30 587 H 52.8077 -3.50157 5.81865 0
M  V30 588 H 50.7537 -5.04655 4.19117 0
M  V30 589 H 50.6707 -4.73443 5.89396 0
M  V30 590 H 51.9387 -5.74549 5.26795 0
M  V30 591 N 56.1678 -1.49265 -0.50573 0
M  V30 592 C 57.1308 -1.65075 -1.59006 0
M  V30 593 C 58.1308 -0.522768 -1.52065 0
M  V30 594 O 59.3208 -0.789117 -1.55302 0
M  V30 595 C 56.4528 -1.64369 -2.98656 0
M  V30 596 H 57.6458 -2.61784 -1.46319 0
M  V30 597 H 55.1988 -1.38226 -0.729616 0
M  V30 598 H 55.9338 -0.692272 -3.16825 0
M  V30 599 H 55.7188 -2.46282 -3.05103 0
M  V30 600 H 57.2088 -1.78674 -3.77446 0
M  V30 601 N 57.6459 0.756429 -1.3826 0
M  V30 602 C 58.8919 1.51772 -1.34511 0
M  V30 603 C 59.2249 1.94089 0.0656691 0
M  V30 604 O 58.4999 1.65221 1.02626 0
M  V30 605 C 58.7829 2.77226 -2.29821 0
M  V30 606 C 58.6359 2.41065 -3.79747 0
M  V30 607 C 59.9549 3.79236 -2.23312 0
M  V30 608 H 57.0739 0.550578 -0.489931 0
M  V30 609 H 59.7159 0.866607 -1.69086 0
M  V30 610 H 57.8659 3.32784 -2.00467 0
M  V30 611 H 59.5379 1.91303 -4.19763 0
M  V30 612 H 57.7809 1.7356 -3.97567 0
M  V30 613 H 58.4519 3.3081 -4.41892 0
M  V30 614 H 60.9279 3.3321 -2.49219 0
M  V30 615 H 59.8039 4.64714 -2.92116 0
M  V30 616 H 60.0649 4.24615 -1.23102 0
M  V30 617 N 59.124 1.23083 0.984299 0
M  V30 618 C 60.372 1.05848 1.72165 0
M  V30 619 C 60.693 -0.406049 1.90726 0
M  V30 620 O 59.963 -1.29139 1.47309 0
M  V30 621 H 58.543 0.388685 0.637913 0
M  V30 622 H 61.205 1.54736 1.18503 0
M  V30 623 H 60.301 1.54327 2.71274 0
M  V30 624 N 60.6021 -1.18246 1.0419 0
M  V30 625 C 61.5321 -2.24127 0.654914 0
M  V30 626 C 62.5131 -1.66617 -0.342451 0
M  V30 627 O 63.6981 -1.92924 -0.222277 0
M  V30 628 C 60.8281 -3.47295 0.0183757 0
M  V30 629 C 59.7821 -4.17563 0.939414 0
M  V30 630 C 59.1081 -5.34438 0.167286 0
M  V30 631 C 60.4081 -4.70917 2.25908 0
M  V30 632 H 62.1021 -2.56753 1.54007 0
M  V30 633 H 59.6481 -1.23414 0.74195 0
M  V30 634 H 61.6011 -4.20572 -0.264082 0
M  V30 635 H 60.3251 -3.13907 -0.901664 0
M  V30 636 H 58.9841 -3.46186 1.20628 0
M  V30 637 H 58.6321 -4.97298 -0.7552 0
M  V30 638 H 58.3321 -5.82388 0.780901 0
M  V30 639 H 59.8561 -6.10504 -0.108125 0
M  V30 640 H 61.2701 -5.35882 2.03724 0
M  V30 641 H 59.6671 -5.29406 2.82577 0
M  V30 642 H 60.7371 -3.88272 2.9047 0
M  V30 643 N 62.0802 -0.821533 -1.34494 0
M  V30 644 C 63.0302 -0.214793 -2.26986 0
M  V30 645 C 64.0142 0.620125 -1.4847 0
M  V30 646 O 65.2062 0.474933 -1.70509 0
M  V30 647 C 62.3352 0.623566 -3.37589 0
M  V30 648 C 61.4212 -0.221904 -4.23519 0
M  V30 649 N 61.8122 -1.29223 -4.89014 0
M  V30 650 C 60.1102 -0.00600922 -4.46 0
M  V30 651 C 60.8112 -1.80965 -5.52835 0
M  V30 652 N 59.7872 -1.11376 -5.32068 0
M  V30 653 H 63.5892 -1.03354 -2.75128 0
M  V30 654 H 61.1032 -0.6642 -1.48196 0
M  V30 655 H 63.1002 1.0744 -4.02818 0
M  V30 656 H 61.7602 1.44049 -2.90998 0
M  V30 657 H 62.7712 -1.67502 -4.90065 0
M  V30 658 H 59.4482 0.77886 -4.10171 0
M  V30 659 H 60.8382 -2.70502 -6.15043 0
M  V30 660 N 63.5583 1.46682 -0.576371 0
M  V30 661 C 64.7883 2.06498 -0.0648694 0
M  V30 662 C 65.1963 1.42665 1.24271 0
M  V30 663 O 64.5393 0.523886 1.76071 0
M  V30 664 C 64.6013 3.5904 0.181816 0
M  V30 665 C 64.2653 4.45028 -1.0392 0
M  V30 666 C 65.2623 4.81959 -1.94966 0
M  V30 667 C 62.9473 4.86259 -1.25927 0
M  V30 668 C 64.9413 5.58942 -3.06371 0
M  V30 669 C 62.6283 5.63002 -2.37638 0
M  V30 670 C 63.6263 5.99257 -3.2769 0
M  V30 671 O 63.3143 6.7445 -4.37461 0
M  V30 672 H 63.0463 0.674028 -0.0515987 0
M  V30 673 H 65.6003 1.89393 -0.794951 0
M  V30 674 H 63.8303 3.74429 0.966436 0
M  V30 675 H 65.5193 4.00806 0.641047 0
M  V30 676 H 66.2853 4.50689 -1.79177 0
M  V30 677 H 62.1643 4.57494 -0.567448 0
M  V30 678 H 65.7083 5.87158 -3.76684 0
M  V30 679 H 61.6053 5.93686 -2.53392 0
M  V30 680 H 62.3733 6.92867 -4.35749 0
M  V30 681 N 65.0364 0.313813 1.54444 0
M  V30 682 C 66.2834 -0.291675 2.00388 0
M  V30 683 C 66.6114 -1.52904 1.2021 0
M  V30 684 O 65.8664 -1.93833 0.269707 0
M  V30 685 C 66.1654 -0.680386 3.50864 0
M  V30 686 C 65.8314 0.456699 4.48581 0
M  V30 687 C 64.4934 0.768824 4.75018 0
M  V30 688 C 66.8454 1.22098 5.06697 0
M  V30 689 C 64.1734 1.84812 5.56831 0
M  V30 690 C 66.5254 2.29029 5.89685 0
M  V30 691 C 65.1894 2.60834 6.14428 0
M  V30 692 H 64.4594 -0.106732 0.733273 0
M  V30 693 H 67.1064 0.43557 1.86481 0
M  V30 694 H 65.4114 -1.48791 3.62448 0
M  V30 695 H 67.1084 -1.16026 3.83847 0
M  V30 696 H 63.6984 0.203337 4.28117 0
M  V30 697 H 67.8824 0.993096 4.86263 0
M  V30 698 H 63.1384 2.09912 5.74236 0
M  V30 699 H 67.3124 2.887 6.33739 0
M  V30 700 H 64.9394 3.44596 6.77612 0
M  V30 701 N 66.5145 -1.57545 0.0417849 0
M  V30 702 C 67.7395 -1.97035 -0.647455 0
M  V30 703 C 68.1645 -0.918775 -1.64135 0
M  V30 704 O 67.5225 0.119006 -1.80909 0
M  V30 705 C 67.5705 -3.35609 -1.31905 0
M  V30 706 O 66.6745 -3.3287 -2.43457 0
M  V30 707 H 66.0155 -0.64211 -0.169086 0
M  V30 708 H 68.5455 -2.04318 0.107399 0
M  V30 709 H 68.5555 -3.72126 -1.67291 0
M  V30 710 H 67.2305 -4.11685 -0.590586 0
M  V30 711 H 65.8075 -3.08087 -2.10088 0
M  V30 712 N 67.9926 0.231505 -1.5589 0
M  V30 713 C 68.9396 1.28682 -1.91598 0
M  V30 714 C 69.9096 1.47071 -0.771974 0
M  V30 715 O 71.0946 1.60802 -1.027 0
M  V30 716 C 68.2346 2.6342 -2.22944 0
M  V30 717 C 67.3476 2.52912 -3.50228 0
M  V30 718 C 66.4826 3.80106 -3.7107 0
M  V30 719 C 65.5216 3.64279 -4.91902 0
M  V30 720 N 64.6586 4.834 -5.09184 0
M  V30 721 H 69.4986 0.975305 -2.81588 0
M  V30 722 H 67.0356 0.470299 -1.39379 0
M  V30 723 H 68.9936 3.41869 -2.39126 0
M  V30 724 H 67.6236 2.92687 -1.36139 0
M  V30 725 H 66.6756 1.6595 -3.42294 0
M  V30 726 H 67.9876 2.37133 -4.38827 0
M  V30 727 H 67.1416 4.66999 -3.87295 0
M  V30 728 H 65.8806 3.98799 -2.80733 0
M  V30 729 H 64.8856 2.7577 -4.75637 0
M  V30 730 H 66.1106 3.47067 -5.83714 0
M  V30 731 H 64.0566 5.02425 -4.21788 0
M  V30 732 H 63.9736 4.70311 -5.91898 0
M  V30 733 H 65.2416 5.71747 -5.29835 0
M  V30 734 N 69.4707 1.49531 0.497807 0
M  V30 735 C 70.7187 1.58865 1.24926 0
M  V30 736 C 71.0397 0.278721 1.92998 0
M  V30 737 O 70.3097 -0.702144 1.82885 0
M  V30 738 H 68.8897 0.585343 0.464094 0
M  V30 739 H 71.5517 1.86174 0.57666 0
M  V30 740 H 70.6477 2.38633 2.01149 0
M  V30 741 N 70.9488 -0.749086 1.3866 0
M  V30 742 C 71.8968 -1.88428 1.36373 0
M  V30 743 C 72.8908 -1.67561 0.248929 0
M  V30 744 O 74.0968 -1.75074 0.41821 0
M  V30 745 H 70.4718 -0.620023 0.42553 0
M  V30 746 H 72.4428 -1.87473 2.32156 0
M  V30 747 C 71.1918 -3.25961 1.21014 0
M  V30 748 H 70.5148 -3.42607 2.06059 0
M  V30 749 H 71.9548 -4.05625 1.23469 0
M  V30 750 C 70.4138 -3.36799 -0.0825941 0
M  V30 751 O 70.9438 -3.87517 -1.05797 0
M  V30 752 N 69.1498 -2.90258 -0.140939 0
M  V30 753 H 68.6968 -2.49174 0.653477 0
M  V30 754 H 68.6548 -2.97889 -1.00545 0
M  V30 755 N 72.4269 -1.23603 -0.977757 0
M  V30 756 C 73.6749 -1.06759 -1.71601 0
M  V30 757 C 73.9959 0.395929 -1.90938 0
M  V30 758 O 73.2659 1.28356 -1.47992 0
M  V30 759 H 71.8459 -0.392062 -0.635843 0
M  V30 760 H 74.5079 -1.55362 -1.1768 0
M  V30 761 H 73.6039 -1.55763 -2.70452 0
M  V30 762 N 73.905 1.17692 -1.04816 0
M  V30 763 C 74.815 2.25229 -0.65643 0
M  V30 764 C 75.831 1.71018 0.320761 0
M  V30 765 O 77.007 2.00649 0.173805 0
M  V30 766 C 74.072 3.46684 -0.0332629 0
M  V30 767 C 73.133 4.15997 -1.06042 0
M  V30 768 C 72.366 5.31654 -0.466893 0
M  V30 769 O 72.589 5.65777 0.724758 0
M  V30 770 O 71.523 5.89831 -1.1993 0
M  V30 771 H 75.349 2.61016 -1.55255 0
M  V30 772 H 72.934 1.24919 -0.81949 0
M  V30 773 H 74.816 4.20234 0.313256 0
M  V30 774 H 73.491 3.12703 0.836566 0
M  V30 775 H 72.398 3.44482 -1.45886 0
M  V30 776 H 73.731 4.53996 -1.90127 0
M  V30 777 N 75.3831 0.828654 1.34056 0
M  V30 778 C 76.3311 0.242973 2.31327 0
M  V30 779 C 77.3251 -0.61944 1.57668 0
M  V30 780 O 78.5311 -0.51014 1.7262 0
M  V30 781 H 74.9061 0.059834 0.749616 0
M  V30 782 H 76.8771 1.07809 2.78244 0
M  V30 783 C 75.6261 -0.575733 3.429 0
M  V30 784 H 74.9491 0.0785582 3.99723 0
M  V30 785 H 76.3891 -0.951547 4.13185 0
M  V30 786 C 74.8481 -1.75044 2.87856 0
M  V30 787 O 75.3781 -2.84882 2.83205 0
M  V30 788 N 73.5841 -1.56903 2.44602 0
M  V30 789 H 73.1311 -0.675547 2.48584 0
M  V30 790 H 73.0891 -2.35652 2.08124 0
M  V30 791 N 76.8612 -1.46375 0.584142 0
M  V30 792 C 78.0862 -2.07268 0.0740405 0
M  V30 793 C 78.5112 -1.42979 -1.22223 0
M  V30 794 O 77.8692 -0.514092 -1.73859 0
M  V30 795 C 77.9172 -3.60518 -0.0767769 0
M  V30 796 O 77.0212 -3.96533 -1.13292 0
M  V30 797 H 76.3622 -0.660961 0.0634524 0
M  V30 798 H 78.8922 -1.87991 0.807492 0
M  V30 799 H 78.9022 -4.07021 -0.282489 0
M  V30 800 H 77.5772 -4.06702 0.86986 0
M  V30 801 H 76.1542 -3.61738 -0.905553 0
M  V30 802 N 78.3393 -0.321999 -1.54275 0
M  V30 803 C 79.5693 0.282642 -2.04658 0
M  V30 804 C 79.9773 1.46453 -1.19784 0
M  V30 805 O 79.3203 1.82367 -0.220932 0
M  V30 806 C 79.3823 0.781857 -3.50895 0
M  V30 807 C 79.0463 -0.277517 -4.56157 0
M  V30 808 C 80.0433 -1.11307 -5.07845 0
M  V30 809 C 77.7283 -0.425256 -5.00497 0
M  V30 810 C 79.7223 -2.08211 -6.02434 0
M  V30 811 C 77.4093 -1.39771 -5.94901 0
M  V30 812 C 78.4073 -2.2246 -6.45756 0
M  V30 813 O 78.0953 -3.18054 -7.38307 0
M  V30 814 H 77.8273 0.0622636 -0.673126 0
M  V30 815 H 80.3813 -0.465792 -2.00049 0
M  V30 816 H 78.6113 1.58118 -3.52896 0
M  V30 817 H 80.3003 1.30467 -3.84361 0
M  V30 818 H 81.0663 -1.00991 -4.74369 0
M  V30 819 H 76.9453 0.20847 -4.60528 0
M  V30 820 H 80.4893 -2.72791 -6.42052 0
M  V30 821 H 76.3863 -1.50152 -6.27794 0
M  V30 822 H 77.1543 -3.13275 -7.56175 0
M  V30 823 N 79.8174 1.5752 -0.0501392 0
M  V30 824 C 81.0654 1.9227 0.622642 0
M  V30 825 C 81.3864 0.929083 1.71444 0
M  V30 826 O 80.6564 -0.0262186 1.95882 0
M  V30 827 H 79.2364 0.709739 0.232981 0
M  V30 828 H 81.8984 1.94628 -0.102898 0
M  V30 829 H 80.9944 2.93479 1.06191 0
M  V30 830 N 81.2955 -0.223234 1.56011 0
M  V30 831 C 82.5435 -0.946003 1.78592 0
M  V30 832 C 82.8645 -1.84936 0.618349 0
M  V30 833 O 82.1345 -1.92473 -0.364833 0
M  V30 834 H 80.7145 -0.352298 0.658707 0
M  V30 835 H 83.3765 -0.235494 1.93472 0
M  V30 836 H 82.4725 -1.55381 2.70672 0
M  V30 837 N 82.7736 -1.49793 -0.48987 0
M  V30 838 C 83.7216 -1.67783 -1.61095 0
M  V30 839 C 84.7156 -0.543683 -1.60438 0
M  V30 840 O 85.9216 -0.723647 -1.64813 0
M  V30 841 H 82.2966 -0.529255 -0.534222 0
M  V30 842 H 84.2676 -2.61861 -1.43078 0
M  V30 843 C 83.0166 -1.77191 -2.99164 0
M  V30 844 H 82.3396 -2.63841 -3.0038 0
M  V30 845 H 83.7796 -1.93809 -3.77113 0
M  V30 846 C 82.2386 -0.519203 -3.32875 0
M  V30 847 O 82.7686 0.350124 -4.00171 0
M  V30 848 N 80.9746 -0.378816 -2.8812 0
M  V30 849 H 80.5216 -1.08725 -2.33531 0
M  V30 850 H 80.4796 0.458239 -3.11043 0
M  V30 851 N 84.2517 0.741722 -1.39055 0
M  V30 852 C 85.4997 1.49818 -1.35643 0
M  V30 853 C 85.8207 1.94938 0.0491642 0
M  V30 854 O 85.0907 1.68505 0.999141 0
M  V30 855 H 83.6707 0.555755 -0.499144 0
M  V30 856 H 86.3327 0.880957 -1.73854 0
M  V30 857 H 85.4287 2.38348 -2.01486 0
M  V30 858 N 85.7298 1.2412 0.971189 0
M  V30 859 C 87.0068 0.986867 1.6888 0
M  V30 860 C 87.3868 -0.491857 2.0529 0
M  V30 861 O 86.7348 -1.46531 1.75331 0
M  V30 862 C 86.9448 1.9063 2.92338 0
M  V30 863 C 88.2928 2.17515 3.64654 0
M  V30 864 O 89.3168 1.88254 3.02388 0
M  V30 865 O 88.1758 2.6719 4.7673 0
M  V30 866 H 85.2698 0.372944 0.738134 0
M  V30 867 H 87.8158 1.35203 1.02559 0
M  V30 868 H 86.5878 2.90552 2.62097 0
M  V30 869 H 86.2108 1.54408 3.66393 0
M  V30 870 N 87.2079 -1.17134 1.05439 0
M  V30 871 C 88.1409 -2.2012 0.601855 0
M  V30 872 C 89.1189 -1.58314 -0.370854 0
M  V30 873 O 90.3029 -1.8638 -0.281882 0
M  V30 874 C 87.4299 -3.38491 -0.118868 0
M  V30 875 C 86.4759 -4.18752 0.809242 0
M  V30 876 S 87.3089 -4.83602 2.29977 0
M  V30 877 C 88.4649 -6.0536 1.59029 0
M  V30 878 H 88.6979 -2.58165 1.47438 0
M  V30 879 H 86.2309 -1.27788 0.866573 0
M  V30 880 H 88.1889 -4.07084 -0.528495 0
M  V30 881 H 86.8499 -2.98829 -0.967465 0
M  V30 882 H 86.0429 -5.03373 0.251379 0
M  V30 883 H 85.6449 -3.5561 1.15835 0
M  V30 884 H 87.9369 -6.71615 0.891017 0
M  V30 885 H 88.8799 -6.65679 2.41407 0
M  V30 886 H 89.2879 -5.54138 1.07663 0
M  V30 887 N 88.686 -0.835752 -1.33615 0
M  V30 888 C 89.914 -0.443344 -2.02094 0
M  V30 889 C 90.329 0.954522 -1.62894 0
M  V30 890 O 89.686 1.61982 -0.840723 0
M  V30 891 C 89.737 -0.550775 -3.5728 0
M  V30 892 O 89.458 -1.89356 -3.95065 0
M  V30 893 C 90.959 -0.154919 -4.43029 0
M  V30 894 H 88.179 -0.176359 -0.647409 0
M  V30 895 H 90.723 -1.12746 -1.70612 0
M  V30 896 H 88.878 0.0853997 -3.87306 0
M  V30 897 H 89.292 -1.87687 -4.89769 0
M  V30 898 H 90.766 -0.281144 -5.51284 0
M  V30 899 H 91.243 0.902863 -4.2982 0
M  V30 900 H 91.849 -0.765404 -4.18356 0
M  V30 901 N 90.1641 1.46063 -0.591896 0
M  V30 902 C 91.3941 2.06418 -0.0867676 0
M  V30 903 C 91.8021 1.43975 1.22751 0
M  V30 904 O 91.1451 0.542531 1.75506 0
M  V30 905 C 91.2071 3.59213 0.143725 0
M  V30 906 C 90.8711 4.439 -1.08635 0
M  V30 907 C 91.8681 4.79864 -2.00067 0
M  V30 908 C 89.5531 4.84896 -1.31077 0
M  V30 909 C 91.5471 5.55661 -3.12282 0
M  V30 910 C 89.2341 5.6045 -2.43596 0
M  V30 911 C 90.2321 5.95747 -3.34027 0
M  V30 912 O 89.9201 6.69772 -4.4459 0
M  V30 913 H 89.6521 0.673443 -0.0587447 0
M  V30 914 H 92.2061 1.88539 -0.814994 0
M  V30 915 H 90.4361 3.75433 0.926668 0
M  V30 916 H 92.1251 4.01463 0.5985 0
M  V30 917 H 92.8911 4.48763 -1.83947 0
M  V30 918 H 88.7701 4.56867 -0.61594 0
M  V30 919 H 92.3141 5.8313 -3.82891 0
M  V30 920 H 88.2111 5.90965 -2.59674 0
M  V30 921 H 88.9791 6.88207 -4.43073 0
M  V30 922 N 91.6422 0.330177 1.54103 0
M  V30 923 C 92.6052 -0.520144 2.2322 0
M  V30 924 C 93.6052 -1.03828 1.22786 0
M  V30 925 O 94.7952 -0.929652 1.4732 0
M  V30 926 C 91.9272 -1.72317 2.94142 0
M  V30 927 H 93.1202 0.0841605 2.99782 0
M  V30 928 H 90.6732 0.0813433 1.56088 0
M  V30 929 H 91.4082 -2.36653 2.21734 0
M  V30 930 H 91.1932 -1.35898 3.67796 0
M  V30 931 H 92.6832 -2.3266 3.46784 0
M  V30 932 N 93.1203 -1.57491 0.0584922 0
M  V30 933 C 94.5363 -1.56792 -0.298091 0
M  V30 934 C 94.7363 -1.06679 -1.70944 0
M  V30 935 O 93.7923 -0.726672 -2.41818 0
M  V30 936 C 95.1053 -3.00461 -0.119879 0
M  V30 937 C 96.6533 -3.1242 -0.190428 0
M  V30 938 C 97.1283 -4.57982 -0.0406567 0
M  V30 939 N 98.6193 -4.63099 -0.0966958 0
M  V30 940 C 99.3543 -5.734 -0.00502943 0
M  V30 941 N 98.8503 -6.9266 0.139402 0
M  V30 942 N 100.643 -5.62067 -0.0611391 0
M  V30 943 H 92.7943 -1.88386 0.98105 0
M  V30 944 H 95.0573 -0.867865 0.381463 0
M  V30 945 H 94.7633 -3.41187 0.85349 0
M  V30 946 H 94.6373 -3.66843 -0.877833 0
M  V30 947 H 97.0243 -2.71589 -1.15427 0
M  V30 948 H 97.1053 -2.48702 0.598405 0
M  V30 949 H 96.7493 -4.995 0.919897 0
M  V30 950 H 96.6793 -5.19715 -0.848727 0
M  V30 951 H 99.1703 -3.77331 -0.207277 0
M  V30 952 H 99.4833 -7.72536 0.201855 0
M  V30 953 H 97.8283 -6.94781 0.174586 0
M  V30 954 H 101.019 -4.67782 -0.172583 0
M  V30 955 H 101.192 -6.47999 0.0137562 0
M  V30 956 N 94.5984 0.214957 -1.56127 0
M  V30 957 C 95.5284 1.2695 -1.95974 0
M  V30 958 C 96.5094 1.48539 -0.828868 0
M  V30 959 O 97.6944 1.60611 -1.09168 0
M  V30 960 C 94.8244 2.61794 -2.28214 0
M  V30 961 C 93.7784 2.54851 -3.43853 0
M  V30 962 C 93.1044 3.93785 -3.61715 0
M  V30 963 C 94.4044 2.09065 -4.78632 0
M  V30 964 H 96.0984 0.93846 -2.84312 0
M  V30 965 H 93.6444 0.449996 -1.36788 0
M  V30 966 H 95.5974 3.35731 -2.54682 0
M  V30 967 H 94.3214 2.96599 -1.36736 0
M  V30 968 H 92.9804 1.8337 -3.17444 0
M  V30 969 H 92.6284 4.25908 -2.67602 0
M  V30 970 H 92.3284 3.90019 -4.39498 0
M  V30 971 H 93.8524 4.69374 -3.90539 0
M  V30 972 H 95.2664 2.7275 -5.04262 0
M  V30 973 H 93.6634 2.16346 -5.59745 0
M  V30 974 H 94.7334 1.04315 -4.73547 0
M  V30 975 N 96.0765 1.50051 0.48192 0
M  V30 976 C 97.3245 1.60181 1.23234 0
M  V30 977 C 97.6455 0.299176 1.92691 0
M  V30 978 O 96.9155 -0.682708 1.83619 0
M  V30 979 H 95.4955 0.590232 0.457859 0
M  V30 980 H 98.1575 1.86775 0.556881 0
M  V30 981 H 97.2535 2.40753 1.98607 0
M  V30 982 N 97.5546 -0.734337 1.39446 0
M  V30 983 C 98.8016 -1.49391 1.36706 0
M  V30 984 C 99.1296 -1.94465 -0.0367813 0
M  V30 985 O 98.3846 -1.67154 -1.01774 0
M  V30 986 C 98.6836 -2.74711 2.28623 0
M  V30 987 C 98.3496 -2.48501 3.76242 0
M  V30 988 C 97.0116 -2.41062 4.16464 0
M  V30 989 C 99.3636 -2.26098 4.69606 0
M  V30 990 C 96.6916 -2.09262 5.48112 0
M  V30 991 C 99.0436 -1.95814 6.01531 0
M  V30 992 C 97.7076 -1.86845 6.40816 0
M  V30 993 H 96.9776 -0.546661 0.500243 0
M  V30 994 H 99.6246 -0.842788 1.71957 0
M  V30 995 H 97.9296 -3.44569 1.86492 0
M  V30 996 H 99.6266 -3.32741 2.23796 0
M  V30 997 H 96.2166 -2.55169 3.44364 0
M  V30 998 H 100.401 -2.30812 4.39363 0
M  V30 999 H 95.6566 -2.00841 5.77471 0
M  V30 1000 H 99.8306 -1.77488 6.73403 0
M  V30 1001 H 97.4576 -1.6197 7.42745 0
M  V30 1002 N 99.0327 -1.24633 -0.964593 0
M  V30 1003 C 99.9797 -1.04144 -2.05968 0
M  V30 1004 C 100.95 0.046262 -1.66036 0
M  V30 1005 O 102.135 -0.108972 -1.90489 0
M  V30 1006 C 99.2747 -0.65563 -3.38815 0
M  V30 1007 C 98.3877 -1.81714 -3.91923 0
M  V30 1008 C 97.5227 -1.37662 -5.13052 0
M  V30 1009 C 96.5617 -2.50788 -5.58365 0
M  V30 1010 N 95.6987 -2.07582 -6.70712 0
M  V30 1011 H 100.539 -1.9787 -2.22827 0
M  V30 1012 H 98.0757 -0.9855 -1.09208 0
M  V30 1013 H 100.034 -0.412954 -4.15151 0
M  V30 1014 H 98.6637 0.244627 -3.21872 0
M  V30 1015 H 97.7157 -2.1734 -3.12198 0
M  V30 1016 H 99.0277 -2.66705 -4.21509 0
M  V30 1017 H 98.1817 -1.093 -5.96773 0
M  V30 1018 H 96.9207 -0.497293 -4.85158 0
M  V30 1019 H 95.9257 -2.79906 -4.73215 0
M  V30 1020 H 97.1507 -3.39283 -5.88272 0
M  V30 1021 H 95.0967 -1.22051 -6.44546 0
M  V30 1022 H 95.0137 -2.86125 -6.99763 0
M  V30 1023 H 96.2817 -1.82369 -7.57867 0
M  V30 1024 N 100.511 1.16574 -1.06058 0
M  V30 1025 C 101.759 1.86677 -0.77434 0
M  V30 1026 C 102.08 1.81959 0.701147 0
M  V30 1027 O 101.35 1.2515 1.50713 0
M  V30 1028 H 99.9298 0.691134 -0.283449 0
M  V30 1029 H 102.592 1.41378 -1.34158 0
M  V30 1030 H 101.688 2.92181 -1.09711 0
M  V30 1031 N 101.989 0.842826 1.3317 0
M  V30 1032 C 102.899 0.281444 2.32906 0
M  V30 1033 C 103.915 -0.594587 1.63526 0
M  V30 1034 O 105.091 -0.49777 1.95152 0
M  V30 1035 C 102.156 -0.530929 3.42611 0
M  V30 1036 C 101.217 0.369843 4.27704 0
M  V30 1037 C 100.45 -0.403853 5.3217 0
M  V30 1038 O 100.673 -1.63513 5.46461 0
M  V30 1039 O 99.6069 0.224199 6.01482 0
M  V30 1040 H 103.433 1.10744 2.82789 0
M  V30 1041 H 101.018 0.60545 1.36582 0
M  V30 1042 H 102.9 -0.992437 4.09547 0
M  V30 1043 H 101.575 -1.33392 2.94938 0
M  V30 1044 H 100.482 0.879275 3.6362 0
M  V30 1045 H 101.815 1.13771 4.78871 0
M  V30 1046 N 103.467 -1.45747 0.599634 0
M  V30 1047 C 104.695 -2.06668 0.0978551 0
M  V30 1048 C 105.11 -1.44562 -1.21439 0
M  V30 1049 O 104.467 -0.556923 -1.73795 0
M  V30 1050 C 104.518 -3.61456 -0.0567044 0
M  V30 1051 O 104.239 -4.21242 1.20361 0
M  V30 1052 C 105.74 -4.39345 -0.590869 0
M  V30 1053 H 102.96 -0.667825 0.0651943 0
M  V30 1054 H 105.504 -1.87115 0.82511 0
M  V30 1055 H 103.659 -3.80378 -0.734251 0
M  V30 1056 H 104.073 -5.14323 1.02821 0
M  V30 1057 H 105.547 -5.48182 -0.648131 0
M  V30 1058 H 106.024 -4.08568 -1.61147 0
M  V30 1059 H 106.63 -4.25268 0.0523679 0
M  V30 1060 N 104.945 -0.338344 -1.53925 0
M  V30 1061 C 105.877 0.555117 -2.22376 0
M  V30 1062 C 106.89 1.06812 -1.22862 0
M  V30 1063 O 108.079 0.979163 -1.49247 0
M  V30 1064 C 105.179 1.77609 -2.88631 0
M  V30 1065 C 104.352 1.39927 -4.14414 0
M  V30 1066 C 103.411 2.47936 -4.64127 0
M  V30 1067 O 102.437 2.11461 -5.28463 0
M  V30 1068 N 103.639 3.79107 -4.39612 0
M  V30 1069 H 106.404 -0.0310778 -2.99684 0
M  V30 1070 H 103.965 -0.162226 -1.61085 0
M  V30 1071 H 105.957 2.49287 -3.18807 0
M  V30 1072 H 104.527 2.26978 -2.14941 0
M  V30 1073 H 103.747 0.513481 -3.90841 0
M  V30 1074 H 105.035 1.12341 -4.96243 0
M  V30 1075 H 104.433 4.11531 -3.88148 0
M  V30 1076 H 102.99 4.4697 -4.74406 0
M  V30 1077 N 106.423 1.57458 -0.0668435 0
M  V30 1078 C 107.672 1.92477 0.602947 0
M  V30 1079 C 107.985 0.948419 1.71068 0
M  V30 1080 O 109.191 1.19124 2.43971 0
M  V30 1081 C 107.647 3.41903 1.12383 0
M  V30 1082 C 107.255 4.47975 0.04737 0
M  V30 1083 C 108.999 3.85931 1.76797 0
M  V30 1084 C 106.906 5.88529 0.582022 0
M  V30 1085 H 105.836 0.718387 0.22899 0
M  V30 1086 H 108.487 1.82978 -0.138276 0
M  V30 1087 H 106.869 3.46459 1.91787 0
M  V30 1088 H 108.043 4.55029 -0.726978 0
M  V30 1089 H 106.358 4.13384 -0.500243 0
M  V30 1090 H 108.955 4.88322 2.17821 0
M  V30 1091 H 109.298 3.23029 2.62599 0
M  V30 1092 H 109.831 3.83958 1.04024 0
M  V30 1093 H 106.57 6.55065 -0.238721 0
M  V30 1094 H 106.09 5.85004 1.324 0
M  V30 1095 H 107.769 6.38258 1.05999 0
M  V30 1096 N 107.901 -0.206675 1.56239 0
M  V30 1097 C 108.849 -1.27571 1.94495 0
M  V30 1098 C 109.843 -1.47737 0.828862 0
M  V30 1099 O 111.049 -1.48735 1.0138 0
M  V30 1100 H 107.424 -0.428029 0.6183 0
M  V30 1101 H 109.395 -0.925961 2.8367 0
M  V30 1102 C 108.144 -2.61568 2.29079 0
M  V30 1103 H 107.467 -2.46863 3.14482 0
M  V30 1104 H 108.907 -3.35144 2.5972 0
M  V30 1105 C 107.366 -3.17695 1.12123 0
M  V30 1106 O 107.896 -3.99801 0.390153 0
M  V30 1107 N 106.102 -2.76276 0.901097 0
M  V30 1108 H 105.649 -2.09613 1.49733 0
M  V30 1109 H 105.607 -3.1417 0.120319 0
M  V30 1110 N 109.379 -1.50304 -0.473955 0
M  V30 1111 C 110.604 -1.65175 -1.25427 0
M  V30 1112 C 111.029 -0.333673 -1.85117 0
M  V30 1113 O 110.387 0.702114 -1.67153 0
M  V30 1114 C 110.435 -2.74295 -2.34082 0
M  V30 1115 O 109.539 -2.35349 -3.38651 0
M  V30 1116 H 108.88 -0.551944 -0.369126 0
M  V30 1117 H 111.41 -1.96662 -0.564364 0
M  V30 1118 H 111.42 -2.97285 -2.79438 0
M  V30 1119 H 110.095 -3.69959 -1.90008 0
M  V30 1120 H 108.672 -2.22794 -2.99027 0
M  V30 1121 N 110.857 0.726932 -1.39834 0
M  V30 1122 C 112.134 1.47902 -1.28001 0
M  V30 1123 C 112.514 2.1083 0.106789 0
M  V30 1124 O 111.862 1.99242 1.11869 0
M  V30 1125 C 112.072 2.52392 -2.41038 0
M  V30 1126 C 113.42 3.18546 -2.80737 0
M  V30 1127 O 114.444 2.62708 -2.40547 0
M  V30 1128 O 113.303 4.19604 -3.50135 0
M  V30 1129 H 110.397 0.657163 -0.502062 0
M  V30 1130 H 112.943 0.760071 -1.51727 0
M  V30 1131 H 111.715 2.04329 -3.33715 0
M  V30 1132 H 111.338 3.31837 -2.19021 0
M  V30 1133 N 112.336 1.25143 0.95797 0
M  V30 1134 C 113.266 1.07711 2.07173 0
M  V30 1135 C 114.247 -0.0128462 1.70095 0
M  V30 1136 O 115.432 0.156061 1.93572 0
M  V30 1137 C 112.562 0.691503 3.40346 0
M  V30 1138 C 111.516 1.73132 3.9142 0
M  V30 1139 C 110.842 1.20049 5.21049 0
M  V30 1140 C 112.142 3.1294 4.1817 0
M  V30 1141 H 113.836 2.00873 2.22014 0
M  V30 1142 H 111.382 0.967191 1.06684 0
M  V30 1143 H 113.335 0.556505 4.17709 0
M  V30 1144 H 112.059 -0.275819 3.25433 0
M  V30 1145 H 110.718 1.8547 3.16222 0
M  V30 1146 H 110.366 0.223499 5.02503 0
M  V30 1147 H 110.066 1.89545 5.56189 0
M  V30 1148 H 111.59 1.07782 6.01012 0
M  V30 1149 H 113.004 3.03775 4.86203 0
M  V30 1150 H 111.401 3.79875 4.64559 0
M  V30 1151 H 112.471 3.6025 3.24573 0
M  V30 1152 N 113.814 -1.1601 1.06675 0
M  V30 1153 C 115.042 -1.90527 0.806667 0
M  V30 1154 C 115.457 -1.77643 -0.639396 0
M  V30 1155 O 114.814 -1.12369 -1.43803 0
M  V30 1156 C 114.865 -3.41106 1.19705 0
M  V30 1157 O 114.586 -3.53608 2.58636 0
M  V30 1158 C 116.087 -4.32663 0.965266 0
M  V30 1159 H 113.307 -0.604053 0.292166 0
M  V30 1160 H 115.851 -1.47026 1.4214 0
M  V30 1161 H 114.006 -3.82296 0.626774 0
M  V30 1162 H 114.42 -4.47011 2.74375 0
M  V30 1163 H 115.894 -5.36763 1.288 0
M  V30 1164 H 116.371 -4.39089 -0.0987936 0
M  V30 1165 H 116.977 -3.97206 1.52011 0
M  V30 1166 N 115.292 -0.849877 -1.32721 0
M  V30 1167 C 116.54 -0.450032 -1.97026 0
M  V30 1168 C 116.861 0.996604 -1.67609 0
M  V30 1169 O 116.131 1.6958 -0.980786 0
M  V30 1170 H 114.711 -0.163426 -0.728904 0
M  V30 1171 H 117.373 -1.08526 -1.6189 0
M  V30 1172 H 116.469 -0.591146 -3.0645 0
M  V30 1173 N 116.77 1.45427 -0.607355 0
M  V30 1174 C 118 2.06314 -0.108656 0
M  V30 1175 C 118.408 1.45269 1.21217 0
M  V30 1176 O 117.751 0.561115 1.74921 0
M  V30 1177 C 117.813 3.59345 0.105618 0
M  V30 1178 C 117.477 4.42723 -1.13337 0
M  V30 1179 C 118.474 4.77715 -2.05145 0
M  V30 1180 C 116.159 4.83478 -1.36213 0
M  V30 1181 C 118.153 5.52317 -3.18158 0
M  V30 1182 C 115.84 5.57835 -2.49527 0
M  V30 1183 C 116.838 5.92171 -3.40327 0
M  V30 1184 O 116.526 6.65019 -4.51669 0
M  V30 1185 H 116.258 0.672782 -0.0658842 0
M  V30 1186 H 118.812 1.87664 -0.834945 0
M  V30 1187 H 117.042 3.76394 0.886796 0
M  V30 1188 H 118.731 4.02076 0.555886 0
M  V30 1189 H 119.497 4.46787 -1.88697 0
M  V30 1190 H 115.376 4.56188 -0.664362 0
M  V30 1191 H 118.92 5.79036 -3.89054 0
M  V30 1192 H 114.817 5.88177 -2.65928 0
M  V30 1193 H 115.585 6.83469 -4.50348 0
M  V30 1194 N 118.248 0.346503 1.53744 0
M  V30 1195 C 119.496 -0.248612 2.00565 0
M  V30 1196 C 119.817 -1.5083 1.23593 0
M  V30 1197 O 119.087 -1.92858 0.343912 0
M  V30 1198 H 117.667 -0.0948564 0.740953 0
M  V30 1199 H 120.329 0.468341 1.89189 0
M  V30 1200 H 119.425 -0.488994 3.08245 0
M  V30 1201 N 119.726 -1.57421 0.075193 0
M  V30 1202 C 120.658 -2.09904 -0.920483 0
M  V30 1203 C 121.671 -1.03191 -1.25918 0
M  V30 1204 O 122.86 -1.30695 -1.21577 0
M  V30 1205 C 119.96 -2.54726 -2.23534 0
M  V30 1206 C 119.133 -3.8505 -2.07498 0
M  V30 1207 C 118.192 -4.15929 -3.22319 0
M  V30 1208 O 117.218 -4.85474 -2.9716 0
M  V30 1209 N 118.42 -3.69745 -4.47514 0
M  V30 1210 H 121.185 -2.95954 -0.472359 0
M  V30 1211 H 118.746 -1.61523 -0.110444 0
M  V30 1212 H 120.738 -2.72443 -2.9926 0
M  V30 1213 H 119.308 -1.73795 -2.59835 0
M  V30 1214 H 118.528 -3.76679 -1.16219 0
M  V30 1215 H 119.816 -4.70348 -1.94038 0
M  V30 1216 H 119.214 -3.13569 -4.7084 0
M  V30 1217 H 117.771 -3.92655 -5.20255 0
M  V30 1218 N 121.204 0.198386 -1.56346 0
M  V30 1219 C 122.45 0.916115 -1.81601 0
M  V30 1220 C 122.805 1.81025 -0.651744 0
M  V30 1221 O 122.098 1.88316 0.353229 0
M  V30 1222 C 122.292 1.77031 -3.10475 0
M  V30 1223 C 122.121 0.960365 -4.39326 0
M  V30 1224 C 120.891 0.646093 -5.01152 0
M  V30 1225 C 123.089 0.314628 -5.13337 0
M  V30 1226 N 121.071 -0.182828 -6.13628 0
M  V30 1227 C 122.442 -0.37664 -6.18855 0
M  V30 1228 C 124.497 0.230019 -4.97368 0
M  V30 1229 C 123.2 -1.14445 -7.10137 0
M  V30 1230 C 125.226 -0.524389 -5.89071 0
M  V30 1231 C 124.588 -1.20412 -6.94032 0
M  V30 1232 H 120.687 0.314732 -0.715868 0
M  V30 1233 H 123.271 0.185102 -1.93818 0
M  V30 1234 H 121.442 2.47295 -2.99499 0
M  V30 1235 H 123.174 2.42727 -3.2383 0
M  V30 1236 H 119.929 0.969724 -4.63566 0
M  V30 1237 H 120.353 -0.586802 -6.74452 0
M  V30 1238 H 124.995 0.741184 -4.16253 0
M  V30 1239 H 122.713 -1.66706 -7.90718 0
M  V30 1240 H 126.299 -0.591167 -5.78789 0
M  V30 1241 H 125.179 -1.77853 -7.63766 0
M  V30 1242 N 122.682 1.50554 0.465978 0
M  V30 1243 C 123.592 1.72585 1.58907 0
M  V30 1244 C 124.608 0.60911 1.6299 0
M  V30 1245 O 125.784 0.88804 1.80765 0
M  V30 1246 C 122.849 1.81995 2.95091 0
M  V30 1247 C 121.91 3.05751 3.01355 0
M  V30 1248 C 121.143 3.14702 4.31043 0
M  V30 1249 O 121.366 2.30313 5.21835 0
M  V30 1250 O 120.3 4.07468 4.43005 0
M  V30 1251 H 124.126 2.67799 1.43239 0
M  V30 1252 H 121.711 1.34711 0.646013 0
M  V30 1253 H 123.593 1.90335 3.75966 0
M  V30 1254 H 122.268 0.899659 3.10947 0
M  V30 1255 H 121.175 3.02908 2.19539 0
M  V30 1256 H 122.508 3.97375 2.90437 0
M  V30 1257 N 124.16 -0.719506 1.40217 0
M  V30 1258 C 125.39 -1.50646 1.41384 0
M  V30 1259 C 125.798 -1.89197 0.0107743 0
M  V30 1260 O 125.141 -1.55709 -0.974708 0
M  V30 1261 C 125.203 -2.81405 2.23722 0
M  V30 1262 C 124.867 -2.65199 3.72181 0
M  V30 1263 C 125.864 -2.32717 4.64907 0
M  V30 1264 C 123.549 -2.81586 4.1595 0
M  V30 1265 C 125.543 -2.16827 5.99387 0
M  V30 1266 C 123.23 -2.65313 5.50502 0
M  V30 1267 C 124.228 -2.32981 6.42035 0
M  V30 1268 O 123.916 -2.16827 7.74107 0
M  V30 1269 H 123.648 -0.471606 0.484318 0
M  V30 1270 H 126.202 -0.895456 1.84853 0
M  V30 1271 H 124.432 -3.44823 1.75026 0
M  V30 1272 H 126.121 -3.43102 2.16878 0
M  V30 1273 H 126.887 -2.19694 4.32388 0
M  V30 1274 H 122.766 -3.0574 3.45027 0
M  V30 1275 H 126.31 -1.91513 6.70797 0
M  V30 1276 H 122.207 -2.7792 5.82607 0
M  V30 1277 H 122.975 -2.31778 7.84998 0
M  V30 1278 N 125.638 -1.25649 -0.95132 0
M  V30 1279 C 126.586 -1.06118 -2.06982 0
M  V30 1280 C 127.58 0.00889169 -1.69398 0
M  V30 1281 O 128.786 -0.146988 -1.79399 0
M  V30 1282 H 125.161 -0.326248 -0.677544 0
M  V30 1283 H 127.132 -2.00932 -2.2061 0
M  V30 1284 C 125.881 -0.700145 -3.40578 0
M  V30 1285 H 125.204 -1.51537 -3.69968 0
M  V30 1286 H 126.644 -0.603211 -4.19687 0
M  V30 1287 C 125.103 0.59403 -3.31622 0
M  V30 1288 O 125.633 1.63522 -3.66911 0
M  V30 1289 N 123.839 0.58089 -2.84735 0
M  V30 1290 H 123.386 -0.266783 -2.56215 0
M  V30 1291 H 123.344 1.44695 -2.79125 0
M  V30 1292 N 127.117 1.15442 -1.07289 0
M  V30 1293 C 128.364 1.86213 -0.795668 0
M  V30 1294 C 128.692 1.82291 0.678238 0
M  V30 1295 O 127.947 1.24057 1.51355 0
M  V30 1296 C 128.246 3.3489 -1.24834 0
M  V30 1297 C 127.912 3.59007 -2.72809 0
M  V30 1298 C 126.574 3.65298 -3.13227 0
M  V30 1299 C 128.926 3.68762 -3.68326 0
M  V30 1300 C 126.254 3.78854 -4.4798 0
M  V30 1301 C 128.606 3.83842 -5.0284 0
M  V30 1302 C 127.27 3.88378 -5.4288 0
M  V30 1303 H 126.54 0.681403 -0.291155 0
M  V30 1304 H 129.187 1.36435 -1.34379 0
M  V30 1305 H 127.492 3.8687 -0.619595 0
M  V30 1306 H 129.189 3.88052 -1.01076 0
M  V30 1307 H 125.779 3.5475 -2.40521 0
M  V30 1308 H 129.963 3.63202 -3.38227 0
M  V30 1309 H 125.219 3.80623 -4.78472 0
M  V30 1310 H 129.393 3.90332 -5.76727 0
M  V30 1311 H 127.02 3.98635 -6.47298 0
M  V30 1312 N 128.595 0.856903 1.32268 0
M  V30 1313 C 129.527 0.260412 2.27716 0
M  V30 1314 C 130.54 -0.569137 1.52528 0
M  V30 1315 O 131.729 -0.39326 1.74114 0
M  V30 1316 C 128.829 -0.650477 3.32599 0
M  V30 1317 C 128.002 0.14372 4.37164 0
M  V30 1318 C 127.061 -0.69328 5.21613 0
M  V30 1319 O 126.087 -0.12599 5.69061 0
M  V30 1320 N 127.289 -2.00761 5.44679 0
M  V30 1321 H 130.054 1.08059 2.79541 0
M  V30 1322 H 127.615 0.717103 1.45152 0
M  V30 1323 H 129.607 -1.21581 3.86005 0
M  V30 1324 H 128.177 -1.37133 2.80915 0
M  V30 1325 H 127.397 0.890486 3.8401 0
M  V30 1326 H 128.685 0.68915 5.04111 0
M  V30 1327 H 128.083 -2.49181 5.07863 0
M  V30 1328 H 126.64 -2.52103 6.01072 0
M  V30 1329 N 130.073 -1.45103 0.615059 0
M  V30 1330 C 131.321 -2.01784 0.112955 0
M  V30 1331 C 131.642 -1.48504 -1.26378 0
M  V30 1332 O 130.912 -0.682245 -1.83636 0
M  V30 1333 H 129.492 -0.745993 0.0387668 0
M  V30 1334 H 132.154 -1.77808 0.798141 0
M  V30 1335 H 131.25 -3.12025 0.0684069 0
M  V30 1336 N 131.551 -0.354651 -1.53558 0
M  V30 1337 C 132.499 0.512195 -2.26891 0
M  V30 1338 C 133.493 1.09263 -1.29452 0
M  V30 1339 O 134.699 1.03709 -1.47121 0
M  V30 1340 H 131.074 0.183878 -0.729173 0
M  V30 1341 H 133.045 -0.128202 -2.98124 0
M  V30 1342 C 131.794 1.64563 -3.06291 0
M  V30 1343 H 131.117 1.20829 -3.81104 0
M  V30 1344 H 132.557 2.22711 -3.60799 0
M  V30 1345 C 131.016 2.58158 -2.16462 0
M  V30 1346 O 131.546 3.60695 -1.76811 0
M  V30 1347 N 129.752 2.27096 -1.81317 0
M  V30 1348 H 129.299 1.43751 -2.1376 0
M  V30 1349 H 129.257 2.89975 -1.21498 0
M  V30 1350 N 133.029 1.57378 -0.0835403 0
M  V30 1351 C 133.977 2.14602 0.89714 0
M  V30 1352 C 134.971 1.08589 1.30018 0
M  V30 1353 O 136.177 1.26952 1.27606 0
M  V30 1354 H 132.552 0.686346 0.3073 0
M  V30 1355 H 134.523 2.95845 0.38969 0
M  V30 1356 C 133.272 2.73188 2.15089 0
M  V30 1357 H 132.595 3.54442 1.84962 0
M  V30 1358 H 134.035 3.1681 2.81793 0
M  V30 1359 C 132.494 1.68517 2.91725 0
M  V30 1360 O 133.024 1.11718 3.85852 0
M  V30 1361 N 131.23 1.39277 2.55049 0
M  V30 1362 H 130.777 1.85655 1.78577 0
M  V30 1363 H 130.735 0.694791 3.06627 0
M  V30 1364 N 134.507 -0.190092 1.56449 0
M  V30 1365 C 135.732 -0.929864 1.85387 0
M  V30 1366 C 136.157 -1.7585 0.667704 0
M  V30 1367 O 135.515 -1.77198 -0.383459 0
M  V30 1368 C 135.563 -1.79773 3.12593 0
M  V30 1369 O 134.667 -2.89713 2.93496 0
M  V30 1370 H 134.008 -0.261574 0.610307 0
M  V30 1371 H 136.538 -0.193896 2.03679 0
M  V30 1372 H 136.548 -2.20139 3.43515 0
M  V30 1373 H 135.223 -1.18892 3.98544 0
M  V30 1374 H 133.8 -2.53065 2.73884 0
M  V30 1375 N 135.985 -1.50799 -0.457987 0
M  V30 1376 C 136.895 -1.73426 -1.57989 0
M  V30 1377 C 137.911 -0.617745 -1.62665 0
M  V30 1378 O 139.087 -0.897614 -1.80291 0
M  V30 1379 C 136.152 -1.83557 -2.94122 0
M  V30 1380 C 135.213 -3.07345 -2.99729 0
M  V30 1381 C 134.446 -3.16983 -4.29368 0
M  V30 1382 O 134.669 -2.33077 -5.20607 0
M  V30 1383 O 133.603 -4.09812 -4.40837 0
M  V30 1384 H 137.429 -2.68555 -1.41817 0
M  V30 1385 H 135.014 -1.35052 -0.638859 0
M  V30 1386 H 136.896 -1.92326 -3.74952 0
M  V30 1387 H 135.571 -0.916137 -3.10465 0
M  V30 1388 H 134.478 -3.04068 -2.1793 0
M  V30 1389 H 135.811 -3.9891 -2.88326 0
M  V30 1390 N 137.463 0.71206 -1.40597 0
M  V30 1391 C 138.711 1.46907 -1.38791 0
M  V30 1392 C 139.032 1.94998 0.00780391 0
M  V30 1393 O 138.302 1.70587 0.963174 0
M  V30 1394 H 136.882 0.545043 -0.51082 0
M  V30 1395 H 139.544 0.843882 -1.75683 0
M  V30 1396 H 138.64 2.34021 -2.06496 0
M  V30 1397 N 138.941 1.26152 0.944643 0
M  V30 1398 C 139.904 1.07474 2.0244 0
M  V30 1399 C 140.904 0.0242064 1.60782 0
M  V30 1400 O 142.094 0.267302 1.72137 0
M  V30 1401 C 139.226 0.633956 3.34953 0
M  V30 1402 H 140.419 2.03336 2.20442 0
M  V30 1403 H 137.972 1.087 1.12312 0
M  V30 1404 H 138.707 -0.326811 3.22649 0
M  V30 1405 H 138.492 1.39247 3.66542 0
M  V30 1406 H 139.982 0.52501 4.14287 0
M  V30 1407 N 140.419 -1.14872 1.07899 0
M  V30 1408 C 141.696 -1.81928 0.71845 0
M  V30 1409 C 142.076 -1.95417 -0.798455 0
M  V30 1410 O 141.424 -1.50997 -1.715 0
M  V30 1411 C 141.634 -3.17937 1.43935 0
M  V30 1412 C 142.982 -3.93501 1.59506 0
M  V30 1413 O 144.006 -3.27509 1.40058 0
M  V30 1414 O 142.865 -5.1183 1.91551 0
M  V30 1415 H 139.959 -0.78628 0.256305 0
M  V30 1416 H 142.505 -1.21934 1.18026 0
M  V30 1417 H 141.277 -3.0325 2.47295 0
M  V30 1418 H 140.9 -3.85619 0.968687 0
M  V30 1419 N 141.898 -0.863906 -1.31812 0
M  V30 1420 C 142.861 -0.320212 -2.26952 0
M  V30 1421 C 143.861 0.525369 -1.51975 0
M  V30 1422 O 145.051 0.335547 -1.70938 0
M  V30 1423 C 142.183 0.545919 -3.365 0
M  V30 1424 H 143.376 -1.16004 -2.76556 0
M  V30 1425 H 140.929 -0.638995 -1.42641 0
M  V30 1426 H 141.664 1.40718 -2.92179 0
M  V30 1427 H 141.449 -0.0594674 -3.92055 0
M  V30 1428 H 142.939 0.918796 -4.07367 0
M  V30 1429 N 143.376 1.44774 -0.622745 0
M  V30 1430 C 144.308 2.28856 0.125485 0
M  V30 1431 C 145.321 1.40811 0.817069 0
M  V30 1432 O 146.51 1.65044 0.679918 0
M  V30 1433 C 143.61 3.16963 1.19949 0
M  V30 1434 C 142.783 4.33374 0.592064 0
M  V30 1435 C 141.842 5.02577 1.55893 0
M  V30 1436 O 140.868 5.58873 1.07933 0
M  V30 1437 N 142.07 5.03256 2.89334 0
M  V30 1438 H 144.835 2.93713 -0.596068 0
M  V30 1439 H 142.396 1.55129 -0.463303 0
M  V30 1440 H 144.388 3.60123 1.84644 0
M  V30 1441 H 142.958 2.53913 1.82337 0
M  V30 1442 H 142.178 3.93509 -0.233322 0
M  V30 1443 H 143.466 5.08527 0.166738 0
M  V30 1444 H 142.864 4.58836 3.30887 0
M  V30 1445 H 141.421 5.50232 3.49412 0
M  V30 1446 N 144.854 0.36279 1.53368 0
M  V30 1447 C 146.082 -0.228613 2.05633 0
M  V30 1448 C 146.497 -1.42676 1.23649 0
M  V30 1449 O 145.854 -1.80394 0.27647 0
M  V30 1450 C 145.905 -0.624845 3.56059 0
M  V30 1451 O 145.626 0.525675 4.34935 0
M  V30 1452 C 147.127 -1.27493 4.24571 0
M  V30 1453 H 144.347 -0.0407183 0.669763 0
M  V30 1454 H 146.891 0.520352 1.97769 0
M  V30 1455 H 145.046 -1.32373 3.64083 0
M  V30 1456 H 145.46 0.205969 5.24095 0
M  V30 1457 H 146.934 -1.50277 5.31151 0
M  V30 1458 H 147.411 -2.23439 3.78116 0
M  V30 1459 H 148.017 -0.617558 4.20792 0
M  V30 1460 N 146.332 -1.57332 0.0918853 0
M  V30 1461 C 147.58 -1.93853 -0.571446 0
M  V30 1462 C 147.901 -0.974212 -1.6892 0
M  V30 1463 O 147.171 -0.0257254 -1.95883 0
M  V30 1464 H 145.751 -0.715666 -0.214082 0
M  V30 1465 H 148.413 -1.94287 0.154464 0
M  V30 1466 H 147.509 -2.96191 -0.983729 0
M  V30 1467 N 147.81 0.181792 -1.56548 0
M  V30 1468 C 148.758 1.24461 -1.965 0
M  V30 1469 C 149.752 1.464 -0.852261 0
M  V30 1470 O 150.958 1.47103 -1.03733 0
M  V30 1471 H 147.333 0.418138 -0.625031 0
M  V30 1472 H 149.304 0.880714 -2.85107 0
M  V30 1473 C 148.053 2.57891 -2.33212 0
M  V30 1474 H 147.376 2.41829 -3.18369 0
M  V30 1475 H 148.816 3.3097 -2.65019 0
M  V30 1476 C 147.275 3.15871 -1.17163 0
M  V30 1477 O 147.805 3.9913 -0.453708 0
M  V30 1478 N 146.011 2.74808 -0.944936 0
M  V30 1479 H 145.558 2.07205 -1.53049 0
M  V30 1480 H 145.516 3.13939 -0.170286 0
M  V30 1481 N 149.288 1.51039 0.449983 0
M  V30 1482 C 150.235 1.71439 1.54523 0
M  V30 1483 C 151.205 0.555871 1.56522 0
M  V30 1484 O 152.39 0.788871 1.73728 0
M  V30 1485 C 149.53 1.83384 2.92343 0
M  V30 1486 C 148.643 3.10873 2.9997 0
M  V30 1487 C 147.778 3.13488 4.28834 0
M  V30 1488 C 146.817 4.35343 4.30282 0
M  V30 1489 N 145.954 4.35579 5.5065 0
M  V30 1490 H 150.794 2.64934 1.36433 0
M  V30 1491 H 148.331 1.31312 0.662982 0
M  V30 1492 H 150.289 1.88291 3.72293 0
M  V30 1493 H 148.919 0.933086 3.0902 0
M  V30 1494 H 147.971 3.15336 2.12761 0
M  V30 1495 H 149.283 4.00814 2.96901 0
M  V30 1496 H 148.437 3.17241 5.17149 0
M  V30 1497 H 147.176 2.21414 4.34543 0
M  V30 1498 H 146.181 4.3178 3.40362 0
M  V30 1499 H 147.406 5.28668 4.26248 0
M  V30 1500 H 145.352 3.46369 5.57104 0
M  V30 1501 H 145.269 5.19313 5.49409 0
M  V30 1502 H 146.537 4.43507 6.41032 0
M  V30 1503 N 150.766 -0.704594 1.40972 0
M  V30 1504 C 151.994 -1.49354 1.43182 0
M  V30 1505 C 152.409 -1.88768 0.0345508 0
M  V30 1506 O 151.766 -1.56184 -0.944081 0
M  V30 1507 C 151.817 -2.76187 2.33244 0
M  V30 1508 O 151.538 -2.38436 3.67532 0
M  V30 1509 C 153.039 -3.7 2.44162 0
M  V30 1510 H 150.259 -0.460559 0.487982 0
M  V30 1511 H 152.803 -0.868261 1.85153 0
M  V30 1512 H 150.958 -3.34974 1.94606 0
M  V30 1513 H 151.372 -3.20126 4.15475 0
M  V30 1514 H 152.846 -4.55803 3.11364 0
M  V30 1515 H 153.323 -4.13867 1.47006 0
M  V30 1516 H 153.929 -3.17121 2.83398 0
M  V30 1517 N 152.244 -1.26651 -0.937939 0
M  V30 1518 C 153.66 -1.03834 -1.21205 0
M  V30 1519 C 153.86 0.234502 -2.00131 0
M  V30 1520 O 152.916 0.942767 -2.3424 0
M  V30 1521 C 154.229 -2.27167 -1.97017 0
M  V30 1522 C 155.777 -2.32101 -2.09996 0
M  V30 1523 C 156.252 -3.55136 -2.8921 0
M  V30 1524 N 157.743 -3.55632 -2.96783 0
M  V30 1525 C 158.478 -4.475 -3.58512 0
M  V30 1526 N 157.974 -5.4966 -4.21717 0
M  V30 1527 N 159.767 -4.35145 -3.55816 0
M  V30 1528 H 151.918 -2.08398 -0.410391 0
M  V30 1529 H 154.181 -0.916031 -0.244114 0
M  V30 1530 H 153.887 -3.19765 -1.46434 0
M  V30 1531 H 153.761 -2.31672 -2.97671 0
M  V30 1532 H 156.148 -1.40015 -2.59769 0
M  V30 1533 H 156.229 -2.31605 -1.08594 0
M  V30 1534 H 155.873 -4.47553 -2.40123 0
M  V30 1535 H 155.803 -3.5288 -3.90875 0
M  V30 1536 H 158.294 -2.81743 -2.51852 0
M  V30 1537 H 158.607 -6.15943 -4.66727 0
M  V30 1538 H 156.952 -5.53514 -4.20294 0
M  V30 1539 H 160.143 -3.5455 -3.05634 0
M  V30 1540 H 160.316 -5.06934 -4.03636 0
M  V30 1541 N 153.722 1.14298 -1.08507 0
M  V30 1542 C 154.652 2.21542 -0.737646 0
M  V30 1543 C 155.633 1.67773 0.280377 0
M  V30 1544 O 156.818 1.93616 0.150521 0
M  V30 1545 C 153.948 3.46988 -0.147259 0
M  V30 1546 C 152.902 4.13789 -1.09374 0
M  V30 1547 C 152.228 5.33449 -0.365524 0
M  V30 1548 C 153.528 4.62208 -2.4323 0
M  V30 1549 H 155.222 2.5086 -1.6343 0
M  V30 1550 H 152.768 1.20576 -0.787243 0
M  V30 1551 H 154.721 4.21262 0.107808 0
M  V30 1552 H 153.445 3.17037 0.784538 0
M  V30 1553 H 152.104 3.4147 -1.33393 0
M  V30 1554 H 151.752 4.99759 0.57011 0
M  V30 1555 H 151.452 5.79088 -0.996512 0
M  V30 1556 H 152.976 6.10485 -0.118534 0
M  V30 1557 H 154.39 5.27952 -2.23472 0
M  V30 1558 H 152.787 5.18553 -3.02031 0
M  V30 1559 H 153.857 3.77224 -3.04681 0
M  V30 1560 N 155.201 0.870884 1.31352 0
M  V30 1561 C 156.164 0.332243 2.26779 0
M  V30 1562 C 157.164 -0.517302 1.52252 0
M  V30 1563 O 158.354 -0.326477 1.71113 0
M  V30 1564 C 155.486 -0.528066 3.36785 0
M  V30 1565 H 156.679 1.17469 2.75937 0
M  V30 1566 H 154.232 0.64655 1.423 0
M  V30 1567 H 154.967 -1.39167 2.92922 0
M  V30 1568 H 154.752 0.0802582 3.92018 0
M  V30 1569 H 156.242 -0.897179 4.07849 0
M  V30 1570 N 156.679 -1.44442 0.630414 0
M  V30 1571 C 157.926 -2.02052 0.134617 0
M  V30 1572 C 158.254 -1.49576 -1.24327 0
M  V30 1573 O 157.509 -0.669806 -1.83881 0
M  V30 1574 C 157.808 -3.57332 0.0697835 0
M  V30 1575 C 157.474 -4.29058 1.38635 0
M  V30 1576 C 156.136 -4.4837 1.74694 0
M  V30 1577 C 158.488 -4.69872 2.25543 0
M  V30 1578 C 155.816 -5.05756 2.97369 0
M  V30 1579 C 158.168 -5.28616 3.47487 0
M  V30 1580 C 156.832 -5.46147 3.8377 0
M  V30 1581 H 156.102 -0.739361 0.0492598 0
M  V30 1582 H 158.749 -1.73217 0.816586 0
M  V30 1583 H 157.054 -3.85577 -0.695553 0
M  V30 1584 H 158.751 -3.99637 -0.330344 0
M  V30 1585 H 155.341 -4.14357 1.09574 0
M  V30 1586 H 159.525 -4.54666 1.98979 0
M  V30 1587 H 154.781 -5.17515 3.25558 0
M  V30 1588 H 158.955 -5.59192 4.15063 0
M  V30 1589 H 156.582 -5.9038 4.7891 0
M  V30 1590 N 158.157 -0.370918 -1.53173 0
M  V30 1591 C 159.12 0.460778 -2.24521 0
M  V30 1592 C 160.12 1.00536 -1.25496 0
M  V30 1593 O 161.31 0.890266 -1.49733 0
M  V30 1594 C 158.442 1.64457 -2.98608 0
M  V30 1595 H 159.635 -0.163613 -2.99453 0
M  V30 1596 H 157.188 -0.122699 -1.55818 0
M  V30 1597 H 157.923 2.30691 -2.2793 0
M  V30 1598 H 157.708 1.26099 -3.7127 0
M  V30 1599 H 159.198 2.23384 -3.5283 0
M  V30 1600 N 159.635 1.57281 -0.100228 0
M  V30 1601 C 160.883 1.94153 0.561157 0
M  V30 1602 C 161.204 0.983157 1.68401 0
M  V30 1603 O 160.474 0.0361132 1.95867 0
M  V30 1604 H 159.054 0.716791 0.210283 0
M  V30 1605 H 161.716 1.94202 -0.164765 0
M  V30 1606 H 160.812 2.96709 0.968008 0
M  V30 1607 N 161.113 -0.173488 1.56642 0
M  V30 1608 C 162.043 -1.2171 1.99271 0
M  V30 1609 C 163.024 -1.46289 0.867959 0
M  V30 1610 O 164.209 -1.5766 1.13388 0
M  V30 1611 C 161.339 -2.55651 2.35074 0
M  V30 1612 C 160.293 -2.45645 3.50489 0
M  V30 1613 C 159.619 -3.84056 3.72028 0
M  V30 1614 C 160.919 -1.96302 4.84007 0
M  V30 1615 H 162.613 -0.86275 2.867 0
M  V30 1616 H 160.159 -0.413571 1.37933 0
M  V30 1617 H 162.112 -3.2886 2.63494 0
M  V30 1618 H 160.836 -2.92869 1.44552 0
M  V30 1619 H 159.495 -1.7489 3.22194 0
M  V30 1620 H 159.143 -4.18664 2.788 0
M  V30 1621 H 158.843 -3.7823 4.49684 0
M  V30 1622 H 160.367 -4.58854 4.02846 0
M  V30 1623 H 161.781 -2.59284 5.11317 0
M  V30 1624 H 160.178 -2.01429 5.65284 0
M  V30 1625 H 161.248 -0.917226 4.76146 0
M  V30 1626 N 162.591 -1.51276 -0.441967 0
M  V30 1627 C 163.538 -1.72256 -1.53612 0
M  V30 1628 C 164.508 -0.564164 -1.56225 0
M  V30 1629 O 165.693 -0.798074 -1.73307 0
M  V30 1630 C 162.833 -1.84932 -2.91366 0
M  V30 1631 C 161.946 -3.12459 -2.98317 0
M  V30 1632 C 161.081 -3.15758 -4.27166 0
M  V30 1633 C 160.12 -4.37619 -4.27967 0
M  V30 1634 N 159.257 -4.38493 -5.48333 0
M  V30 1635 H 164.097 -2.65654 -1.35026 0
M  V30 1636 H 161.634 -1.31662 -0.656009 0
M  V30 1637 H 163.592 -1.90263 -3.7129 0
M  V30 1638 H 162.222 -0.949461 -3.08521 0
M  V30 1639 H 161.274 -3.1646 -2.11086 0
M  V30 1640 H 162.586 -4.02382 -2.94771 0
M  V30 1641 H 161.74 -3.19979 -5.15459 0
M  V30 1642 H 160.479 -2.23715 -4.33362 0
M  V30 1643 H 159.484 -4.33579 -3.38067 0
M  V30 1644 H 160.709 -5.30921 -4.23438 0
M  V30 1645 H 158.655 -3.49318 -5.55259 0
M  V30 1646 H 158.572 -5.22219 -5.46647 0
M  V30 1647 H 159.84 -4.469 -6.38671 0
M  V30 1648 N 164.069 0.697108 -1.41344 0
M  V30 1649 C 165.299 1.48377 -1.43763 0
M  V30 1650 C 165.707 1.89156 -0.0408726 0
M  V30 1651 O 165.05 1.57239 0.949812 0
M  V30 1652 C 165.112 2.7781 -2.2817 0
M  V30 1653 C 164.776 2.59244 -3.76353 0
M  V30 1654 C 165.773 2.25292 -4.68551 0
M  V30 1655 C 163.458 2.74933 -4.20378 0
M  V30 1656 C 165.452 2.07264 -6.02761 0
M  V30 1657 C 163.139 2.56521 -5.54653 0
M  V30 1658 C 164.137 2.22737 -6.4566 0
M  V30 1659 O 163.825 2.04485 -7.77458 0
M  V30 1660 H 163.557 0.463842 -0.491759 0
M  V30 1661 H 166.111 0.865934 -1.86255 0
M  V30 1662 H 164.341 3.41995 -1.8049 0
M  V30 1663 H 166.03 3.39608 -2.22309 0
M  V30 1664 H 166.796 2.12787 -4.35829 0
M  V30 1665 H 162.675 3.00213 -3.49848 0
M  V30 1666 H 166.219 1.80817 -6.73759 0
M  V30 1667 H 162.116 2.68616 -5.86955 0
M  V30 1668 H 162.884 2.1926 -7.88586 0
M  V30 1669 N 165.547 1.27147 0.931209 0
M  V30 1670 C 166.51 1.09615 2.01289 0
M  V30 1671 C 167.51 0.0412581 1.60747 0
M  V30 1672 O 168.7 0.285545 1.71844 0
M  V30 1673 C 165.832 0.669447 3.34262 0
M  V30 1674 H 167.025 2.05662 2.18273 0
M  V30 1675 H 164.578 1.09885 1.11153 0
M  V30 1676 H 165.313 -0.292572 3.22978 0
M  V30 1677 H 165.098 1.43127 3.65044 0
M  V30 1678 H 166.588 0.568921 4.13706 0
M  V30 1679 N 167.025 -1.13721 1.09112 0
M  V30 1680 C 168.302 -1.81155 0.737706 0
M  V30 1681 C 168.682 -1.96253 -0.777683 0
M  V30 1682 O 168.03 -1.52807 -1.69889 0
M  V30 1683 C 168.24 -3.16392 1.47299 0
M  V30 1684 C 169.588 -3.91787 1.63671 0
M  V30 1685 O 170.612 -3.26005 1.43524 0
M  V30 1686 O 169.471 -5.0977 1.96969 0
M  V30 1687 H 166.565 -0.783518 0.26463 0
M  V30 1688 H 169.111 -1.20676 1.19312 0
M  V30 1689 H 167.883 -3.0061 2.50498 0
M  V30 1690 H 167.506 -3.8457 1.00953 0
M  V30 1691 N 168.503 -0.877838 -1.30888 0
M  V30 1692 C 169.749 -0.493426 -1.96706 0
M  V30 1693 C 170.082 0.953504 -1.6918 0
M  V30 1694 O 169.357 1.67266 -0.992594 0
M  V30 1695 C 169.64 -0.760429 -3.51979 0
M  V30 1696 C 169.493 -2.25747 -3.89048 0
M  V30 1697 C 170.812 -0.232148 -4.39487 0
M  V30 1698 H 167.931 -0.180746 -0.714493 0
M  V30 1699 H 170.573 -1.10052 -1.54882 0
M  V30 1700 H 168.723 -0.243715 -3.87735 0
M  V30 1701 H 170.395 -2.84204 -3.63354 0
M  V30 1702 H 168.638 -2.72694 -3.37373 0
M  V30 1703 H 169.309 -2.39491 -4.97341 0
M  V30 1704 H 171.785 -0.674314 -4.106 0
M  V30 1705 H 170.661 -0.448355 -5.47066 0
M  V30 1706 H 170.922 0.866297 -4.33529 0
M  V30 1707 N 169.982 1.44106 -0.638065 0
M  V30 1708 C 171.23 2.01579 -0.145043 0
M  V30 1709 C 171.551 1.50496 1.24 0
M  V30 1710 O 170.821 0.711374 1.82527 0
M  V30 1711 H 169.401 0.745282 -0.05063 0
M  V30 1712 H 172.063 1.76516 -0.826327 0
M  V30 1713 H 171.159 3.11877 -0.118039 0
M  V30 1714 N 171.46 0.379036 1.52974 0
M  V30 1715 C 172.685 -0.209353 2.06341 0
M  V30 1716 C 173.11 -1.40583 1.24972 0
M  V30 1717 O 172.468 -1.79246 0.272155 0
M  V30 1718 C 172.516 -0.567786 3.56102 0
M  V30 1719 O 171.62 -1.66318 3.77375 0
M  V30 1720 H 170.961 -0.0272919 0.663439 0
M  V30 1721 H 173.491 0.543536 1.97248 0
M  V30 1722 H 173.501 -0.835003 3.99364 0
M  V30 1723 H 172.176 0.307013 4.14765 0
M  V30 1724 H 170.753 -1.39048 3.46006 0
M  V30 1725 N 172.938 -1.57226 0.108567 0
M  V30 1726 C 174.185 -1.94833 -0.551943 0
M  V30 1727 C 174.513 -0.991204 -1.67348 0
M  V30 1728 O 173.768 -0.0131878 -1.95696 0
M  V30 1729 C 174.067 -3.38911 -1.13463 0
M  V30 1730 C 173.733 -4.50696 -0.135509 0
M  V30 1731 C 172.395 -4.80998 0.139252 0
M  V30 1732 C 174.747 -5.18333 0.545957 0
M  V30 1733 C 172.075 -5.76259 1.10194 0
M  V30 1734 C 174.427 -6.14627 1.49721 0
M  V30 1735 C 173.091 -6.43327 1.78006 0
M  V30 1736 H 172.361 -0.712944 -0.20197 0
M  V30 1737 H 175.008 -1.90582 0.18726 0
M  V30 1738 H 173.313 -3.39805 -1.95037 0
M  V30 1739 H 175.01 -3.65317 -1.65362 0
M  V30 1740 H 171.6 -4.27087 -0.359846 0
M  V30 1741 H 175.784 -4.95087 0.346842 0
M  V30 1742 H 171.04 -5.96804 1.32795 0
M  V30 1743 H 175.214 -6.66126 2.03099 0
M  V30 1744 H 172.841 -7.1695 2.52759 0
M  V30 1745 N 174.416 0.165178 -1.56732 0
M  V30 1746 C 175.693 0.908443 -1.73224 0
M  V30 1747 C 176.073 2.0013 -0.67165 0
M  V30 1748 O 175.421 2.26353 0.31253 0
M  V30 1749 C 175.631 1.46756 -3.16644 0
M  V30 1750 C 176.979 1.93809 -3.77787 0
M  V30 1751 O 178.003 1.56537 -3.1996 0
M  V30 1752 O 176.862 2.62486 -4.79336 0
M  V30 1753 H 173.956 0.428025 -0.707618 0
M  V30 1754 H 176.502 0.152526 -1.69013 0
M  V30 1755 H 175.274 0.68129 -3.85323 0
M  V30 1756 H 174.897 2.28749 -3.25207 0
M  V30 1757 N 175.894 1.51508 0.433938 0
M  V30 1758 C 177.124 1.67914 1.20369 0
M  V30 1759 C 177.532 0.377461 1.85397 0
M  V30 1760 O 176.875 -0.654255 1.71654 0
M  V30 1761 C 176.937 2.74045 2.32679 0
M  V30 1762 C 176.601 4.16543 1.87991 0
M  V30 1763 C 177.598 5.01211 1.38145 0
M  V30 1764 C 175.283 4.6266 1.95579 0
M  V30 1765 C 177.277 6.30056 0.964774 0
M  V30 1766 C 174.964 5.91501 1.53523 0
M  V30 1767 C 175.962 6.75027 1.04055 0
M  V30 1768 O 175.65 8.01459 0.625964 0
M  V30 1769 H 175.382 0.566578 0.368735 0
M  V30 1770 H 177.936 1.98709 0.51999 0
M  V30 1771 H 176.166 2.38572 3.04336 0
M  V30 1772 H 177.855 2.79295 2.94532 0
M  V30 1773 H 178.621 4.66783 1.31675 0
M  V30 1774 H 174.5 3.97767 2.33029 0
M  V30 1775 H 178.044 6.95202 0.57796 0
M  V30 1776 H 173.941 6.25442 1.59665 0
M  V30 1777 H 174.709 8.15043 0.751509 0
M  V30 1778 N 177.372 -0.689602 1.41712 0
M  V30 1779 C 178.62 -1.4468 1.4111 0
M  V30 1780 C 178.941 -1.94986 0.0232196 0
M  V30 1781 O 178.211 -1.72097 -0.935913 0
M  V30 1782 H 176.791 -0.536847 0.519427 0
M  V30 1783 H 179.453 -0.815825 1.77004 0
M  V30 1784 H 178.549 -2.30706 2.10193 0
M  V30 1785 N 178.85 -1.27639 -0.924453 0
M  V30 1786 C 180.266 -1.05113 -1.20097 0
M  V30 1787 C 180.466 0.213262 -2.00368 0
M  V30 1788 O 179.522 0.91787 -2.35226 0
M  V30 1789 C 180.835 -2.29244 -1.94596 0
M  V30 1790 C 182.383 -2.34315 -2.07522 0
M  V30 1791 C 182.858 -3.58183 -2.85427 0
M  V30 1792 N 184.349 -3.5876 -2.92994 0
M  V30 1793 C 185.084 -4.51277 -3.53746 0
M  V30 1794 N 184.58 -5.54102 -4.15863 0
M  V30 1795 N 186.373 -4.38894 -3.51181 0
M  V30 1796 H 178.524 -2.08821 -0.388264 0
M  V30 1797 H 180.787 -0.918568 -0.234385 0
M  V30 1798 H 180.493 -3.21301 -1.43034 0
M  V30 1799 H 180.367 -2.34816 -2.95197 0
M  V30 1800 H 182.754 -1.42762 -2.58269 0
M  V30 1801 H 182.835 -2.32744 -1.06131 0
M  V30 1802 H 182.479 -4.50074 -2.35363 0
M  V30 1803 H 182.409 -3.57006 -3.8711 0
M  V30 1804 H 184.9 -2.84398 -2.4885 0
M  V30 1805 H 185.213 -6.20859 -4.60168 0
M  V30 1806 H 183.558 -5.57941 -4.144 0
M  V30 1807 H 186.749 -3.57772 -3.01856 0
M  V30 1808 H 186.922 -5.11186 -3.98237 0
M  V30 1809 N 180.328 1.1314 -1.09713 0
M  V30 1810 C 181.276 2.20717 -0.733934 0
M  V30 1811 C 182.27 1.6729 0.266506 0
M  V30 1812 O 183.476 1.79547 0.127656 0
M  V30 1813 H 179.851 0.719292 -0.21937 0
M  V30 1814 H 181.822 2.48611 -1.6503 0
M  V30 1815 C 180.571 3.47265 -0.173849 0
M  V30 1816 H 179.894 3.88716 -0.934873 0
M  V30 1817 H 181.334 4.23979 0.0423126 0
M  V30 1818 C 179.793 3.18724 1.09164 0
M  V30 1819 O 180.323 3.37762 2.17439 0
M  V30 1820 N 178.529 2.72583 1.00732 0
M  V30 1821 H 178.076 2.57291 0.126121 0
M  V30 1822 H 178.034 2.53862 1.85476 0
M  V30 1823 N 181.806 0.884767 1.30421 0
M  V30 1824 C 183.036 0.517293 2.00019 0
M  V30 1825 C 183.444 -0.898632 1.66497 0
M  V30 1826 O 182.787 -1.60245 0.898181 0
M  V30 1827 C 182.849 0.612025 3.54252 0
M  V30 1828 C 182.513 1.99222 4.1129 0
M  V30 1829 C 183.51 2.9616 4.273 0
M  V30 1830 C 181.195 2.29755 4.46674 0
M  V30 1831 C 183.189 4.21764 4.77906 0
M  V30 1832 C 180.876 3.55606 4.96979 0
M  V30 1833 C 181.874 4.51425 5.12547 0
M  V30 1834 O 181.562 5.75043 5.61766 0
M  V30 1835 H 181.294 0.198529 0.64619 0
M  V30 1836 H 183.848 1.1919 1.67281 0
M  V30 1837 H 182.078 -0.119561 3.86515 0
M  V30 1838 H 183.767 0.255859 4.05093 0
M  V30 1839 H 184.533 2.73882 4.00267 0
M  V30 1840 H 180.412 1.55942 4.33824 0
M  V30 1841 H 183.956 4.96561 4.89972 0
M  V30 1842 H 179.853 3.7772 5.23448 0
M  V30 1843 H 180.621 5.77422 5.80109 0
M  V30 1844 N 183.284 -1.43765 0.645699 0
M  V30 1845 C 184.532 -2.01499 0.155731 0
M  V30 1846 C 184.853 -1.51151 -1.232 0
M  V30 1847 O 184.123 -0.721044 -1.82148 0
M  V30 1848 H 182.703 -0.745003 0.0545817 0
M  V30 1849 H 185.365 -1.76075 0.835677 0
M  V30 1850 H 184.461 -3.1181 0.134577 0
M  V30 1851 N 184.763 -0.387143 -1.52771 0
M  V30 1852 C 186.009 0.196025 -2.0185 0
M  V30 1853 C 186.342 1.46641 -1.27319 0
M  V30 1854 O 185.617 1.90889 -0.373032 0
M  V30 1855 C 185.9 0.466136 -3.5707 0
M  V30 1856 C 185.753 -0.819385 -4.42274 0
M  V30 1857 C 187.072 1.25768 -4.21747 0
M  V30 1858 H 184.191 0.0697708 -0.73369 0
M  V30 1859 H 186.833 -0.516286 -1.82851 0
M  V30 1860 H 184.983 1.07293 -3.7339 0
M  V30 1861 H 186.655 -1.4563 -4.37709 0
M  V30 1862 H 184.898 -1.43517 -4.09372 0
M  V30 1863 H 185.569 -0.585065 -5.48891 0
M  V30 1864 H 188.045 0.744167 -4.09391 0
M  V30 1865 H 186.921 1.41541 -5.30337 0
M  V30 1866 H 187.182 2.27228 -3.79236 0
M  V30 1867 N 186.241 1.57166 -0.116904 0
M  V30 1868 C 187.487 1.95412 0.542405 0
M  V30 1869 C 187.82 1.00019 1.66463 0
M  V30 1870 O 187.095 0.0370346 1.94465 0
M  V30 1871 C 187.378 3.43615 1.07708 0
M  V30 1872 C 187.231 4.49781 -0.0415868 0
M  V30 1873 C 188.55 3.93616 1.96861 0
M  V30 1874 H 185.669 0.710543 0.195696 0
M  V30 1875 H 188.311 1.89027 -0.192038 0
M  V30 1876 H 186.461 3.49187 1.70296 0
M  V30 1877 H 188.133 4.56308 -0.676793 0
M  V30 1878 H 186.376 4.28033 -0.705019 0
M  V30 1879 H 187.047 5.50733 0.373717 0
M  V30 1880 H 189.523 3.90335 1.44146 0
M  V30 1881 H 188.399 4.97838 2.3119 0
M  V30 1882 H 188.66 3.34188 2.89432 0
M  V30 1883 N 187.719 -0.156864 1.56817 0
M  V30 1884 C 188.949 -0.885031 1.86684 0
M  V30 1885 C 189.357 -1.75696 0.701954 0
M  V30 1886 O 188.7 -1.80569 -0.337732 0
M  V30 1887 C 188.762 -1.80092 3.11138 0
M  V30 1888 C 188.426 -1.10714 4.43386 0
M  V30 1889 C 189.423 -0.465714 5.1781 0
M  V30 1890 C 187.108 -1.09959 4.90117 0
M  V30 1891 C 189.102 0.174002 6.37162 0
M  V30 1892 C 186.789 -0.456055 6.09396 0
M  V30 1893 C 187.787 0.179622 6.82764 0
M  V30 1894 O 187.475 0.812975 7.99779 0
M  V30 1895 H 187.207 -0.261813 0.623242 0
M  V30 1896 H 189.761 -0.157383 2.04796 0
M  V30 1897 H 187.991 -2.56926 2.89009 0
M  V30 1898 H 189.68 -2.40018 3.27332 0
M  V30 1899 H 190.446 -0.463427 4.82781 0
M  V30 1900 H 186.325 -1.58378 4.3294 0
M  V30 1901 H 189.869 0.670765 6.94368 0
M  V30 1902 H 185.766 -0.455975 6.43888 0
M  V30 1903 H 186.534 0.71366 8.15383 0
M  V30 1904 N 189.197 -1.51736 -0.425897 0
M  V30 1905 C 190.474 -1.55519 -1.1863 0
M  V30 1906 C 190.854 -0.326219 -2.08564 0
M  V30 1907 O 190.202 0.688012 -2.17896 0
M  V30 1908 C 190.412 -2.87521 -1.9782 0
M  V30 1909 C 191.76 -3.39899 -2.54468 0
M  V30 1910 O 192.784 -2.89148 -2.08019 0
M  V30 1911 O 191.643 -4.2848 -3.39215 0
M  V30 1912 H 188.737 -0.625739 -0.540721 0
M  V30 1913 H 191.283 -1.64055 -0.434038 0
M  V30 1914 H 190.055 -3.68422 -1.31836 0
M  V30 1915 H 189.678 -2.822 -2.80088 0
M  V30 1916 N 190.675 0.682077 -1.42076 0
M  V30 1917 C 191.638 1.77756 -1.44691 0
M  V30 1918 C 192.638 1.5726 -0.335535 0
M  V30 1919 O 193.828 1.63686 -0.596037 0
M  V30 1920 C 190.96 3.16301 -1.27146 0
M  V30 1921 H 192.153 1.76826 -2.42224 0
M  V30 1922 H 189.706 0.891012 -1.28416 0
M  V30 1923 H 190.441 3.22862 -0.305075 0
M  V30 1924 H 190.226 3.32581 -2.07683 0
M  V30 1925 H 191.716 3.96241 -1.31843 0
M  V30 1926 N 192.153 1.28127 0.917671 0
M  V30 1927 C 193.083 1.14248 2.03641 0
M  V30 1928 C 194.064 0.0412748 1.7005 0
M  V30 1929 O 195.249 0.217566 1.92977 0
M  V30 1930 C 192.379 0.799431 3.37974 0
M  V30 1931 C 191.333 1.85497 3.85713 0
M  V30 1932 C 190.659 1.36565 5.16966 0
M  V30 1933 C 191.959 3.26085 4.08002 0
M  V30 1934 H 193.653 2.07835 2.15511 0
M  V30 1935 H 191.199 1.00064 1.03553 0
M  V30 1936 H 193.152 0.689114 4.15727 0
M  V30 1937 H 191.876 -0.172145 3.26146 0
M  V30 1938 H 190.535 1.95437 3.10161 0
M  V30 1939 H 190.183 0.383253 5.01538 0
M  V30 1940 H 189.883 2.07143 5.49878 0
M  V30 1941 H 191.407 1.26848 5.97279 0
M  V30 1942 H 192.821 3.19089 4.76293 0
M  V30 1943 H 191.218 3.94462 4.52238 0
M  V30 1944 H 192.288 3.70394 3.12948 0
M  V30 1945 N 193.631 -1.12557 1.10312 0
M  V30 1946 C 194.879 -1.83675 0.843091 0
M  V30 1947 C 195.2 -1.84435 -0.633131 0
M  V30 1948 O 194.47 -1.30657 -1.45964 0
M  V30 1949 H 193.05 -0.680138 0.308904 0
M  V30 1950 H 195.712 -1.36301 1.39313 0
M  V30 1951 H 194.808 -2.87908 1.2048 0
M  V30 1952 N 195.109 -0.891671 -1.2995 0
M  V30 1953 C 196.339 -0.527893 -1.99742 0
M  V30 1954 C 196.747 0.88979 -1.66971 0
M  V30 1955 O 196.09 1.59766 -0.906667 0
M  V30 1956 C 196.152 -0.630804 -3.53922 0
M  V30 1957 C 195.816 -2.01401 -4.10228 0
M  V30 1958 C 196.813 -2.98422 -4.25724 0
M  V30 1959 C 194.498 -2.32121 -4.45449 0
M  V30 1960 C 196.492 -4.24293 -4.75662 0
M  V30 1961 C 194.179 -3.58237 -4.95086 0
M  V30 1962 C 195.177 -4.54137 -5.10146 0
M  V30 1963 O 194.865 -5.78014 -5.58708 0
M  V30 1964 H 194.597 -0.201953 -0.645129 0
M  V30 1965 H 197.151 -1.20076 -1.66646 0
M  V30 1966 H 195.381 0.0990616 -3.86573 0
M  V30 1967 H 197.07 -0.277338 -4.04951 0
M  V30 1968 H 197.836 -2.76001 -3.98809 0
M  V30 1969 H 193.715 -1.5824 -4.32991 0
M  V30 1970 H 197.259 -4.99153 -4.87332 0
M  V30 1971 H 193.156 -3.80491 -5.21437 0
M  V30 1972 H 193.924 -5.8049 -5.77039 0
M  V30 1973 N 196.587 1.43421 -0.653314 0
M  V30 1974 C 197.815 2.06163 -0.174491 0
M  V30 1975 C 198.23 1.48969 1.1599 0
M  V30 1976 O 197.587 0.621042 1.71608 0
M  V30 1977 C 197.638 3.61417 -0.0774865 0
M  V30 1978 O 197.359 4.16485 -1.35912 0
M  V30 1979 C 198.86 4.41235 0.427402 0
M  V30 1980 H 196.08 0.664946 -0.0899353 0
M  V30 1981 H 198.624 1.83924 -0.893988 0
M  V30 1982 H 196.779 3.82841 0.59257 0
M  V30 1983 H 197.193 5.10153 -1.21839 0
M  V30 1984 H 198.667 5.5021 0.44423 0
M  V30 1985 H 199.144 4.14268 1.45873 0
M  V30 1986 H 199.75 4.2478 -0.210167 0
M  V30 1987 N 198.065 0.39524 1.52563 0
M  V30 1988 C 199.342 -0.242908 1.94086 0
M  V30 1989 C 199.722 -1.63841 1.33114 0
M  V30 1990 O 199.07 -2.22928 0.501529 0
M  V30 1991 C 199.28 -0.26327 3.48006 0
M  V30 1992 C 200.628 -0.489354 4.21771 0
M  V30 1993 O 201.652 -0.343226 3.54543 0
M  V30 1994 O 200.511 -0.776169 5.4096 0
M  V30 1995 H 197.605 -0.152536 0.812811 0
M  V30 1996 H 200.151 0.450178 1.6362 0
M  V30 1997 H 198.923 0.713985 3.84731 0
M  V30 1998 H 198.546 -1.00103 3.84792 0
M  V30 1999 N 199.544 -1.57102 0.125237 0
M  V30 2000 C 200.477 -2.11371 -0.860094 0
M  V30 2001 C 201.455 -1.03168 -1.25679 0
M  V30 2002 O 202.639 -1.30862 -1.35674 0
M  V30 2003 C 199.766 -2.61555 -2.1519 0
M  V30 2004 C 198.812 -3.81701 -1.9028 0
M  V30 2005 S 199.645 -5.23797 -1.11343 0
M  V30 2006 C 200.801 -5.77353 -2.41689 0
M  V30 2007 H 201.034 -2.94617 -0.39852 0
M  V30 2008 H 198.567 -1.54145 -0.0886555 0
M  V30 2009 H 200.525 -2.91122 -2.89411 0
M  V30 2010 H 199.186 -1.78479 -2.58465 0
M  V30 2011 H 198.379 -4.14985 -2.86014 0
M  V30 2012 H 197.981 -3.52783 -1.24178 0
M  V30 2013 H 200.273 -5.87458 -3.37489 0
M  V30 2014 H 201.216 -6.75323 -2.12942 0
M  V30 2015 H 201.624 -5.05457 -2.51342 0
M  V30 2016 N 201.022 0.148545 -1.56898 0
M  V30 2017 C 201.952 1.18524 -2.01182 0
M  V30 2018 C 202.933 1.4489 -0.891123 0
M  V30 2019 O 204.118 1.55836 -1.15882 0
M  V30 2020 C 201.248 2.51879 -2.39112 0
M  V30 2021 C 200.202 2.40038 -3.54353 0
M  V30 2022 C 199.528 3.78089 -3.78091 0
M  V30 2023 C 200.828 1.88577 -4.87069 0
M  V30 2024 H 202.522 0.817029 -2.88036 0
M  V30 2025 H 200.068 0.391575 -1.38574 0
M  V30 2026 H 202.021 3.24627 -2.68692 0
M  V30 2027 H 200.745 2.90532 -1.49193 0
M  V30 2028 H 199.404 1.69742 -3.24936 0
M  V30 2029 H 199.052 4.14175 -2.85426 0
M  V30 2030 H 198.752 3.71028 -4.55645 0
M  V30 2031 H 200.276 4.52387 -4.10095 0
M  V30 2032 H 201.69 2.51117 -5.15377 0
M  V30 2033 H 200.087 1.9241 -5.68417 0
M  V30 2034 H 201.157 0.84136 -4.77545 0
M  V30 2035 N 202.5 1.5196 0.417844 0
M  V30 2036 C 203.911 1.57851 0.997 0
M  V30 2037 C 204.262 0.413714 1.91789 0
M  V30 2038 O 203.387 -0.467057 2.113 0
M  V30 2039 C 203.982 2.86085 1.81496 0
M  V30 2040 C 202.541 2.94483 2.34428 0
M  V30 2041 C 201.688 2.52707 1.14169 0
M  V30 2042 H 204.639 1.57455 0.198392 0
M  V30 2043 H 204.66 2.70947 2.67148 0
M  V30 2044 H 204.172 3.70842 1.14446 0
M  V30 2045 H 202.273 2.142 3.04875 0
M  V30 2046 H 202.386 3.98546 2.65891 0
M  V30 2047 H 200.75 2.06353 1.49301 0
M  V30 2048 H 201.533 3.39828 0.486999 0
M  V30 2049 N 203.978 -0.674533 1.42435 0
M  V30 2050 C 204.888 -1.81751 1.48337 0
M  V30 2051 C 205.904 -1.69975 0.372099 0
M  V30 2052 O 207.08 -1.91521 0.62304 0
M  V30 2053 C 204.145 -3.17895 1.38361 0
M  V30 2054 C 203.206 -3.41625 2.59982 0
M  V30 2055 C 202.439 -4.71274 2.50473 0
M  V30 2056 O 202.662 -5.49197 1.54075 0
M  V30 2057 O 201.596 -4.96254 3.4061 0
M  V30 2058 H 205.422 -1.79728 2.44809 0
M  V30 2059 H 203.007 -0.830312 1.24202 0
M  V30 2060 H 204.889 -3.99136 1.35161 0
M  V30 2061 H 203.564 -3.20555 0.450144 0
M  V30 2062 H 202.471 -2.60231 2.68757 0
M  V30 2063 H 203.804 -3.43796 3.52229 0
M  V30 2064 N 205.456 -1.28612 -0.910864 0
M  V30 2065 C 206.703 -1.15934 -1.66029 0
M  V30 2066 C 207.031 0.291483 -1.92303 0
M  V30 2067 O 206.286 1.22816 -1.52364 0
M  V30 2068 C 206.585 -1.90624 -3.0232 0
M  V30 2069 C 206.251 -3.40405 -2.95695 0
M  V30 2070 C 204.913 -3.81255 -2.93595 0
M  V30 2071 C 207.265 -4.359 -2.85728 0
M  V30 2072 C 204.593 -5.15936 -2.79334 0
M  V30 2073 C 206.945 -5.70657 -2.73007 0
M  V30 2074 C 205.609 -6.10779 -2.69267 0
M  V30 2075 H 204.879 -0.424234 -0.607541 0
M  V30 2076 H 207.526 -1.5942 -1.06101 0
M  V30 2077 H 205.831 -1.39696 -3.6605 0
M  V30 2078 H 207.528 -1.78228 -3.59215 0
M  V30 2079 H 204.118 -3.07927 -2.98125 0
M  V30 2080 H 208.302 -4.053 -2.86436 0
M  V30 2081 H 203.558 -5.46146 -2.74835 0
M  V30 2082 H 207.732 -6.44311 -2.64264 0
M  V30 2083 H 205.359 -7.1509 -2.57974 0
M  V30 2084 N 206.934 1.1197 -1.10907 0
M  V30 2085 C 208.182 1.83225 -0.852819 0
M  V30 2086 C 208.503 1.84769 0.623341 0
M  V30 2087 O 207.773 1.3143 1.45269 0
M  V30 2088 H 206.353 0.67849 -0.312507 0
M  V30 2089 H 209.015 1.3556 -1.40033 0
M  V30 2090 H 208.111 2.87265 -1.22005 0
M  V30 2091 N 208.412 0.89855 1.29475 0
M  V30 2092 C 209.66 0.522847 1.9522 0
M  V30 2093 C 209.981 -0.93371 1.71192 0
M  V30 2094 O 209.251 -1.65823 1.04305 0
M  V30 2095 H 207.831 0.190366 0.722336 0
M  V30 2096 H 210.493 1.14459 1.5775 0
M  V30 2097 H 209.589 0.704476 3.04045 0
M  V30 2098 N 209.89 -1.43072 0.660911 0
M  V30 2099 C 211.167 -1.95307 0.107017 0
M  V30 2100 C 211.547 -1.60192 -1.37484 0
M  V30 2101 O 210.895 -0.890949 -2.10415 0
M  V30 2102 C 211.105 -3.47124 0.361402 0
M  V30 2103 C 212.453 -4.23738 0.270455 0
M  V30 2104 O 213.477 -3.54981 0.294382 0
M  V30 2105 O 212.336 -5.46131 0.200737 0
M  V30 2106 H 209.43 -0.826984 -0.00517729 0
M  V30 2107 H 211.976 -1.52972 0.734681 0
M  V30 2108 H 210.748 -3.65837 1.38848 0
M  V30 2109 H 210.371 -3.96475 -0.298953 0
M  V30 2110 N 211.368 -0.403325 -1.52352 0
M  V30 2111 C 212.596 0.174012 -2.06167 0
M  V30 2112 C 213.011 1.39347 -1.27388 0
M  V30 2113 O 212.368 1.79597 -0.324201 0
M  V30 2114 C 212.419 0.530223 -3.5759 0
M  V30 2115 O 212.14 -0.640806 -4.33388 0
M  V30 2116 C 213.641 1.16192 -4.27802 0
M  V30 2117 H 210.861 0.0229464 -0.670608 0
M  V30 2118 H 213.405 -0.572604 -1.9632 0
M  V30 2119 H 211.56 1.22673 -3.67464 0
M  V30 2120 H 211.974 -0.344851 -5.23365 0
M  V30 2121 H 213.448 1.36141 -5.34948 0
M  V30 2122 H 213.925 2.13335 -3.83907 0
M  V30 2123 H 214.531 0.505775 -4.22282 0
M  V30 2124 N 212.846 1.57033 -0.133567 0
M  V30 2125 C 213.809 2.14897 0.796995 0
M  V30 2126 C 214.809 1.0874 1.18458 0
M  V30 2127 O 215.999 1.34446 1.1077 0
M  V30 2128 C 213.131 2.70112 2.07973 0
M  V30 2129 H 214.324 2.98457 0.293873 0
M  V30 2130 H 211.877 1.55871 0.115787 0
M  V30 2131 H 212.612 1.9018 2.62682 0
M  V30 2132 H 212.397 3.47764 1.81115 0
M  V30 2133 H 213.887 3.14738 2.74462 0
M  V30 2134 N 214.325 -0.140222 1.56975 0
M  V30 2135 C 215.555 -0.865181 1.87612 0
M  V30 2136 C 215.963 -1.74942 0.72055 0
M  V30 2137 O 215.306 -1.80917 -0.318561 0
M  V30 2138 C 215.368 -1.76782 3.13031 0
M  V30 2139 C 215.032 -1.06005 4.44536 0
M  V30 2140 C 216.029 -0.410768 5.18275 0
M  V30 2141 C 213.714 -1.04754 4.91255 0
M  V30 2142 C 215.708 0.241572 6.36942 0
M  V30 2143 C 213.395 -0.391394 6.09845 0
M  V30 2144 C 214.393 0.252029 6.82535 0
M  V30 2145 O 214.081 0.897757 7.98871 0
M  V30 2146 H 213.813 -0.255188 0.625983 0
M  V30 2147 H 216.367 -0.135653 2.04952 0
M  V30 2148 H 214.597 -2.53846 2.91718 0
M  V30 2149 H 216.286 -2.36533 3.29859 0
M  V30 2150 H 217.052 -0.412195 4.83245 0
M  V30 2151 H 212.931 -1.53777 4.34596 0
M  V30 2152 H 216.475 0.744375 6.93617 0
M  V30 2153 H 212.372 -0.387656 6.44335 0
M  V30 2154 H 213.14 0.800102 8.1458 0
M  V30 2155 N 215.803 -1.52179 -0.40978 0
M  V30 2156 C 217.028 -1.70347 -1.18308 0
M  V30 2157 C 217.453 -0.411887 -1.83535 0
M  V30 2158 O 216.811 0.630587 -1.6998 0
M  V30 2159 C 216.859 -2.83977 -2.22238 0
M  V30 2160 O 215.963 -2.495 -3.28365 0
M  V30 2161 H 215.304 -0.567103 -0.345384 0
M  V30 2162 H 217.834 -1.98879 -0.480445 0
M  V30 2163 H 217.844 -3.0887 -2.66577 0
M  V30 2164 H 216.519 -3.77685 -1.74146 0
M  V30 2165 H 215.096 -2.35277 -2.89308 0
M  V30 2166 N 217.281 0.66697 -1.42791 0
M  V30 2167 C 218.558 1.4234 -1.34159 0
M  V30 2168 C 218.938 2.11093 0.0172729 0
M  V30 2169 O 218.286 2.03808 1.03318 0
M  V30 2170 C 218.496 2.41942 -2.51526 0
M  V30 2171 C 219.844 3.06353 -2.93995 0
M  V30 2172 O 220.868 2.52269 -2.51473 0
M  V30 2173 O 219.727 4.04376 -3.67617 0
M  V30 2174 H 216.821 0.635277 -0.529483 0
M  V30 2175 H 219.367 0.695034 -1.54814 0
M  V30 2176 H 218.139 1.89991 -3.42081 0
M  V30 2177 H 217.762 3.22249 -2.32898 0
M  V30 2178 N 218.759 1.29093 0.90403 0
M  V30 2179 C 220.036 1.075 1.63411 0
M  V30 2180 C 220.416 -0.382346 2.07609 0
M  V30 2181 O 219.764 -1.37031 1.82851 0
M  V30 2182 C 219.974 2.05858 2.81822 0
M  V30 2183 C 221.322 2.36539 3.52611 0
M  V30 2184 O 222.346 2.04019 2.91984 0
M  V30 2185 O 221.205 2.92085 4.61897 0
M  V30 2186 H 218.299 0.411547 0.717327 0
M  V30 2187 H 220.845 1.40449 0.952479 0
M  V30 2188 H 219.617 3.04037 2.46327 0
M  V30 2189 H 219.24 1.73613 3.57693 0
M  V30 2190 N 220.237 -1.11381 1.11499 0
M  V30 2191 C 221.484 -1.83132 0.864231 0
M  V30 2192 C 221.812 -1.84683 -0.610114 0
M  V30 2193 O 221.067 -1.29589 -1.46646 0
M  V30 2194 C 221.366 -3.30026 1.37177 0
M  V30 2195 C 221.032 -3.48634 2.85946 0
M  V30 2196 C 219.694 -3.53421 3.26569 0
M  V30 2197 C 222.046 -3.54837 3.81759 0
M  V30 2198 C 219.374 -3.61967 4.61733 0
M  V30 2199 C 221.726 -3.64915 5.1674 0
M  V30 2200 C 220.39 -3.67962 5.5692 0
M  V30 2201 H 219.66 -0.670127 0.316245 0
M  V30 2202 H 222.307 -1.31354 1.3935 0
M  V30 2203 H 220.612 -3.84304 0.762753 0
M  V30 2204 H 222.309 -3.84034 1.15408 0
M  V30 2205 H 218.899 -3.45579 2.53521 0
M  V30 2206 H 223.083 -3.50399 3.51474 0
M  V30 2207 H 218.339 -3.62603 4.92269 0
M  V30 2208 H 222.513 -3.68658 5.90816 0
M  V30 2209 H 220.14 -3.74336 6.61647 0
M  V30 2210 N 221.715 -0.905404 -1.28997 0
M  V30 2211 C 222.962 -0.534248 -1.95325 0
M  V30 2212 C 223.29 0.920535 -1.71337 0
M  V30 2213 O 222.545 1.66861 -1.02254 0
M  V30 2214 C 222.844 -0.779906 -3.48787 0
M  V30 2215 C 222.51 -2.21293 -3.92861 0
M  V30 2216 C 221.172 -2.60475 -4.04606 0
M  V30 2217 C 223.524 -3.14587 -4.15553 0
M  V30 2218 C 220.852 -3.9212 -4.36416 0
M  V30 2219 C 223.204 -4.45787 -4.48839 0
M  V30 2220 C 221.868 -4.84834 -4.58794 0
M  V30 2221 H 221.138 -0.195495 -0.714747 0
M  V30 2222 H 223.785 -1.14514 -1.53488 0
M  V30 2223 H 222.09 -0.0861365 -3.91705 0
M  V30 2224 H 223.787 -0.472029 -3.98212 0
M  V30 2225 H 220.377 -1.89887 -3.84241 0
M  V30 2226 H 224.561 -2.85528 -4.0594 0
M  V30 2227 H 219.817 -4.22086 -4.42327 0
M  V30 2228 H 223.991 -5.18098 -4.65346 0
M  V30 2229 H 221.618 -5.86877 -4.83197 0
M  V30 2230 N 223.193 1.4272 -0.668489 0
M  V30 2231 C 224.439 2.01923 -0.188419 0
M  V30 2232 C 224.772 1.52704 1.19979 0
M  V30 2233 O 224.047 0.726566 1.8042 0
M  V30 2234 C 224.33 3.59451 -0.216085 0
M  V30 2235 C 224.183 4.18864 -1.6393 0
M  V30 2236 C 225.502 4.37903 0.439179 0
M  V30 2237 H 222.621 0.733674 -0.0699412 0
M  V30 2238 H 225.263 1.69822 -0.852076 0
M  V30 2239 H 223.413 3.86929 0.349012 0
M  V30 2240 H 225.085 4.02362 -2.25616 0
M  V30 2241 H 223.328 3.74933 -2.18193 0
M  V30 2242 H 223.999 5.27987 -1.61039 0
M  V30 2243 H 226.475 4.16079 -0.0417878 0
M  V30 2244 H 225.351 5.47519 0.389157 0
M  V30 2245 H 225.612 4.15303 1.51577 0
M  V30 2246 N 224.671 0.411399 1.52136 0
M  V30 2247 C 225.919 -0.163322 2.01439 0
M  V30 2248 C 226.24 -1.45453 1.29879 0
M  V30 2249 O 225.51 -1.91225 0.4254 0
M  V30 2250 H 224.09 -0.0633447 0.744309 0
M  V30 2251 H 226.752 0.548161 1.87033 0
M  V30 2252 H 225.848 -0.357817 3.10042 0
M  V30 2253 N 226.149 -1.5696 0.141893 0
M  V30 2254 C 227.565 -1.58151 -0.21456 0
M  V30 2255 C 227.765 -1.1559 -1.65049 0
M  V30 2256 O 226.821 -0.853832 -2.37626 0
M  V30 2257 C 228.134 -3.00674 0.0395576 0
M  V30 2258 C 229.682 -3.1299 -0.0245529 0
M  V30 2259 C 230.157 -4.57554 0.202167 0
M  V30 2260 N 231.648 -4.62961 0.148919 0
M  V30 2261 C 232.383 -5.7262 0.298924 0
M  V30 2262 N 231.879 -6.90947 0.50637 0
M  V30 2263 N 233.672 -5.61601 0.236886 0
M  V30 2264 H 225.823 -1.8292 1.07953 0
M  V30 2265 H 228.086 -0.846425 0.42693 0
M  V30 2266 H 227.792 -3.36183 1.03315 0
M  V30 2267 H 227.666 -3.70981 -0.682143 0
M  V30 2268 H 230.053 -2.77326 -1.00869 0
M  V30 2269 H 230.134 -2.4518 0.729396 0
M  V30 2270 H 229.778 -4.93922 1.18338 0
M  V30 2271 H 229.708 -5.23484 -0.572044 0
M  V30 2272 H 232.199 -3.77899 -0.00697015 0
M  V30 2273 H 232.512 -7.7038 0.611076 0
M  V30 2274 H 230.857 -6.92878 0.542628 0
M  V30 2275 H 234.048 -4.68039 0.0756209 0
M  V30 2276 H 234.221 -6.47015 0.357227 0
M  V30 2277 N 227.627 0.131896 -1.57047 0
M  V30 2278 C 228.873 0.843179 -1.84441 0
M  V30 2279 C 229.206 1.80129 -0.725749 0
M  V30 2280 O 228.481 1.92624 0.269469 0
M  V30 2281 C 228.764 1.60442 -3.22382 0
M  V30 2282 C 228.617 0.666782 -4.4483 0
M  V30 2283 C 229.936 2.56354 -3.5773 0
M  V30 2284 H 227.055 0.305081 -0.670891 0
M  V30 2285 H 229.697 0.107839 -1.89694 0
M  V30 2286 H 227.847 2.23128 -3.18035 0
M  V30 2287 H 229.519 0.0497646 -4.61273 0
M  V30 2288 H 227.762 -0.022609 -4.33794 0
M  V30 2289 H 228.433 1.23579 -5.37989 0
M  V30 2290 H 230.909 2.0378 -3.62785 0
M  V30 2291 H 229.785 3.06657 -4.5525 0
M  V30 2292 H 230.046 3.38419 -2.84473 0
M  V30 2293 N 229.106 1.52395 0.401703 0
M  V30 2294 C 230.354 1.66488 1.14569 0
M  V30 2295 C 230.675 0.400897 1.90835 0
M  V30 2296 O 229.945 -0.584415 1.8698 0
M  V30 2297 H 228.525 0.613672 0.425929 0
M  V30 2298 H 231.187 1.89464 0.457093 0
M  V30 2299 H 230.283 2.50942 1.85566 0
M  V30 2300 N 230.584 -0.659388 1.43143 0
M  V30 2301 C 231.832 -1.41654 1.44147 0
M  V30 2302 C 232.153 -1.94893 0.0645739 0
M  V30 2303 O 231.423 -1.74044 -0.899198 0
M  V30 2304 H 230.003 -0.525708 0.530697 0
M  V30 2305 H 232.665 -0.778097 1.78694 0
M  V30 2306 H 231.761 -2.26195 2.1504 0
M  V30 2307 N 232.062 -1.29571 -0.897171 0
M  V30 2308 C 233.308 -1.17863 -1.65034 0
M  V30 2309 C 233.641 0.268729 -1.92332 0
M  V30 2310 O 232.916 1.19378 -1.53555 0
M  V30 2311 C 233.199 -1.995 -2.99786 0
M  V30 2312 C 233.052 -3.5239 -2.79538 0
M  V30 2313 C 234.371 -1.82335 -4.00552 0
M  V30 2314 H 231.49 -0.429528 -0.598895 0
M  V30 2315 H 234.132 -1.59072 -1.03905 0
M  V30 2316 H 232.282 -1.64485 -3.51962 0
M  V30 2317 H 233.954 -3.97401 -2.34244 0
M  V30 2318 H 232.197 -3.77187 -2.14273 0
M  V30 2319 H 232.868 -4.04787 -3.75302 0
M  V30 2320 H 235.344 -2.12924 -3.57495 0
M  V30 2321 H 234.22 -2.41801 -4.92771 0
M  V30 2322 H 234.481 -0.779209 -4.35179 0
M  V30 2323 N 233.54 1.10788 -1.12088 0
M  V30 2324 C 234.503 2.15207 -0.788577 0
M  V30 2325 C 235.503 1.59609 0.195317 0
M  V30 2326 O 236.693 1.74174 -0.0300193 0
M  V30 2327 C 233.825 3.4047 -0.171174 0
M  V30 2328 H 235.018 2.46116 -1.71368 0
M  V30 2329 H 232.571 1.26089 -0.923652 0
M  V30 2330 H 233.306 3.15176 0.763832 0
M  V30 2331 H 233.091 3.82109 -0.879514 0
M  V30 2332 H 234.581 4.17576 0.04496 0
M  V30 2333 N 235.018 0.912232 1.28515 0
M  V30 2334 C 236.246 0.560416 1.99166 0
M  V30 2335 C 236.661 -0.857927 1.68182 0
M  V30 2336 O 236.018 -1.56805 0.933733 0
M  V30 2337 C 236.069 0.758142 3.53461 0
M  V30 2338 O 235.79 2.12067 3.83352 0
M  V30 2339 C 237.291 0.412954 4.41372 0
M  V30 2340 H 234.511 0.213805 0.636026 0
M  V30 2341 H 237.055 1.22502 1.63749 0
M  V30 2342 H 235.21 0.140556 3.87145 0
M  V30 2343 H 235.624 2.15923 4.77993 0
M  V30 2344 H 237.098 0.60208 5.48707 0
M  V30 2345 H 237.575 -0.65073 4.34353 0
M  V30 2346 H 238.181 1.00802 4.13182 0
M  V30 2347 N 236.496 -1.42363 0.676048 0
M  V30 2348 C 237.726 -2.05561 0.206967 0
M  V30 2349 C 238.134 -1.50887 -1.14148 0
M  V30 2350 O 237.477 -0.643933 -1.72044 0
M  V30 2351 C 237.539 -3.5944 0.0659508 0
M  V30 2352 C 237.203 -4.36812 1.34331 0
M  V30 2353 C 238.2 -4.67383 2.27704 0
M  V30 2354 C 235.885 -4.76429 1.59125 0
M  V30 2355 C 237.879 -5.36509 3.44147 0
M  V30 2356 C 235.566 -5.45294 2.75857 0
M  V30 2357 C 236.564 -5.75259 3.68193 0
M  V30 2358 O 236.252 -6.42712 4.82883 0
M  V30 2359 H 235.984 -0.668872 0.0979084 0
M  V30 2360 H 238.538 -1.83467 0.923531 0
M  V30 2361 H 236.768 -3.80197 -0.706204 0
M  V30 2362 H 238.457 -4.0427 -0.363418 0
M  V30 2363 H 239.223 -4.37275 2.09799 0
M  V30 2364 H 235.102 -4.52498 0.881258 0
M  V30 2365 H 238.646 -5.59814 4.16238 0
M  V30 2366 H 234.543 -5.7482 2.93688 0
M  V30 2367 H 235.311 -6.61204 4.82444 0
M  V30 2368 N 237.974 -0.419461 -1.51915 0
M  V30 2369 C 239.39 -0.0708431 -1.59443 0
M  V30 2370 C 239.59 1.41796 -1.43164 0
M  V30 2371 O 238.646 2.18596 -1.26381 0
M  V30 2372 C 239.959 -0.574991 -2.95151 0
M  V30 2373 C 241.507 -0.533867 -3.08413 0
M  V30 2374 C 241.982 -1.01469 -4.46618 0
M  V30 2375 N 243.473 -0.971939 -4.52888 0
M  V30 2376 C 244.208 -1.31505 -5.58116 0
M  V30 2377 N 243.704 -1.73014 -6.70849 0
M  V30 2378 N 245.497 -1.23436 -5.48379 0
M  V30 2379 H 237.648 -1.38836 -1.60743 0
M  V30 2380 H 239.911 -0.570998 -0.756747 0
M  V30 2381 H 239.617 -1.61597 -3.12377 0
M  V30 2382 H 239.491 0.00979777 -3.77199 0
M  V30 2383 H 241.878 0.498086 -2.90866 0
M  V30 2384 H 241.959 -1.15484 -2.28248 0
M  V30 2385 H 241.603 -2.04502 -4.6491 0
M  V30 2386 H 241.533 -0.370433 -5.25295 0
M  V30 2387 H 244.024 -0.666893 -3.71969 0
M  V30 2388 H 244.337 -1.97479 -7.47143 0
M  V30 2389 H 242.682 -1.76926 -6.72103 0
M  V30 2390 H 245.873 -0.908869 -4.59192 0
M  V30 2391 H 246.046 -1.50506 -6.30279 0
M  V30 2392 N 239.452 1.56882 -0.150215 0
M  V30 2393 C 240.4 2.18214 0.805313 0
M  V30 2394 C 241.394 1.14006 1.25296 0
M  V30 2395 O 242.6 1.3225 1.22107 0
M  V30 2396 H 238.975 0.698762 0.277913 0
M  V30 2397 H 240.946 2.97231 0.263862 0
M  V30 2398 C 239.695 2.82065 2.03309 0
M  V30 2399 H 239.018 3.61968 1.69763 0
M  V30 2400 H 240.458 3.28477 2.68103 0
M  V30 2401 C 238.917 1.80739 2.84315 0
M  V30 2402 O 239.447 1.27983 3.80767 0
M  V30 2403 N 237.653 1.4997 2.48913 0
M  V30 2404 H 237.2 1.93062 1.70542 0
M  V30 2405 H 237.158 0.824217 3.03404 0
M  V30 2406 N 240.93 -0.123565 1.57115 0
M  V30 2407 C 242.155 -0.850398 1.89164 0
M  V30 2408 C 242.58 -1.7286 0.741688 0
M  V30 2409 O 241.938 -1.78665 -0.307958 0
M  V30 2410 C 241.986 -1.66353 3.19936 0
M  V30 2411 O 241.09 -2.77004 3.0552 0
M  V30 2412 H 240.431 -0.235454 0.620852 0
M  V30 2413 H 242.961 -0.107335 2.04318 0
M  V30 2414 H 242.971 -2.05372 3.52543 0
M  V30 2415 H 241.646 -1.01881 4.03228 0
M  V30 2416 H 240.223 -2.41221 2.84371 0
M  V30 2417 N 242.408 -1.52605 -0.393616 0
M  V30 2418 C 243.356 -1.77688 -1.50099 0
M  V30 2419 C 244.35 -0.644615 -1.56656 0
M  V30 2420 O 245.556 -0.826997 -1.59877 0
M  V30 2421 H 241.931 -0.562159 -0.499481 0
M  V30 2422 H 243.902 -2.7043 -1.26135 0
M  V30 2423 C 242.651 -1.95858 -2.87289 0
M  V30 2424 H 241.974 -2.8241 -2.82992 0
M  V30 2425 H 243.414 -2.174 -3.64024 0
M  V30 2426 C 241.873 -0.729848 -3.28899 0
M  V30 2427 O 242.403 0.0949217 -4.01588 0
M  V30 2428 N 240.609 -0.561283 -2.85128 0
M  V30 2429 H 240.156 -1.23357 -2.26143 0
M  V30 2430 H 240.114 0.2595 -3.13327 0
M  V30 2431 N 243.887 0.651787 -1.4349 0
M  V30 2432 C 245.134 1.41167 -1.45183 0
M  V30 2433 C 245.462 1.94349 -0.0766601 0
M  V30 2434 O 244.717 1.72804 0.918555 0
M  V30 2435 C 245.016 2.60914 -2.44251 0
M  V30 2436 C 244.682 2.26142 -3.9009 0
M  V30 2437 C 243.344 2.16371 -4.2981 0
M  V30 2438 C 245.696 1.98334 -4.81989 0
M  V30 2439 C 243.024 1.7695 -5.5938 0
M  V30 2440 C 245.376 1.6041 -6.11924 0
M  V30 2441 C 244.04 1.49166 -6.5062 0
M  V30 2442 H 243.31 0.516566 -0.531263 0
M  V30 2443 H 245.957 0.741099 -1.76579 0
M  V30 2444 H 244.262 3.3311 -2.06265 0
M  V30 2445 H 245.959 3.19127 -2.42815 0
M  V30 2446 H 242.549 2.34658 -3.58655 0
M  V30 2447 H 246.733 2.04803 -4.52072 0
M  V30 2448 H 241.989 1.66831 -5.88198 0
M  V30 2449 H 246.163 1.37925 -6.82605 0
M  V30 2450 H 243.79 1.1839 -7.50925 0
M  V30 2451 N 245.365 1.30045 0.890287 0
M  V30 2452 C 246.612 1.18561 1.64163 0
M  V30 2453 C 246.94 -0.260852 1.92743 0
M  V30 2454 O 246.195 -1.20376 1.54299 0
M  V30 2455 C 246.494 1.95409 2.99249 0
M  V30 2456 C 246.16 3.45066 2.90242 0
M  V30 2457 C 244.822 3.85878 2.87492 0
M  V30 2458 C 247.174 4.4039 2.78758 0
M  V30 2459 C 244.502 5.20314 2.7109 0
M  V30 2460 C 246.854 5.74928 2.63894 0
M  V30 2461 C 245.518 6.14986 2.59516 0
M  V30 2462 H 244.788 0.433846 0.600715 0
M  V30 2463 H 247.435 1.61088 1.03552 0
M  V30 2464 H 245.74 1.45501 3.63781 0
M  V30 2465 H 247.437 1.8392 3.56334 0
M  V30 2466 H 244.027 3.12631 2.93189 0
M  V30 2467 H 248.211 4.09806 2.79952 0
M  V30 2468 H 243.467 5.50449 2.66112 0
M  V30 2469 H 247.641 6.48434 2.53981 0
M  V30 2470 H 245.268 7.19104 2.46565 0
M  V30 2471 N 246.843 -1.10192 1.12674 0
M  V30 2472 C 248.091 -1.81845 0.881861 0
M  V30 2473 C 248.412 -1.85737 -0.593867 0
M  V30 2474 O 247.682 -1.33724 -1.4316 0
M  V30 2475 H 246.262 -0.673432 0.323261 0
M  V30 2476 H 248.924 -1.33316 1.42172 0
M  V30 2477 H 248.02 -2.85288 1.2656 0
M  V30 2478 N 248.321 -0.919034 -1.28029 0
M  V30 2479 C 249.251 -0.428581 -2.29533 0
M  V30 2480 C 250.232 0.50659 -1.62381 0
M  V30 2481 O 251.417 0.413195 -1.89753 0
M  V30 2482 C 248.547 0.327388 -3.45753 0
M  V30 2483 C 247.501 -0.519137 -4.2484 0
M  V30 2484 C 246.827 0.365486 -5.33449 0
M  V30 2485 C 248.127 -1.77914 -4.91064 0
M  V30 2486 H 249.821 -1.27687 -2.70807 0
M  V30 2487 H 247.367 -0.615428 -1.30186 0
M  V30 2488 H 249.32 0.681378 -4.15855 0
M  V30 2489 H 248.044 1.20963 -3.03374 0
M  V30 2490 H 246.703 -0.855717 -3.56473 0
M  V30 2491 H 246.351 1.24642 -4.87312 0
M  V30 2492 H 246.051 -0.197356 -5.87268 0
M  V30 2493 H 247.575 0.715241 -6.06396 0
M  V30 2494 H 248.989 -1.49374 -5.53498 0
M  V30 2495 H 247.386 -2.2848 -5.54903 0
M  V30 2496 H 248.456 -2.50382 -4.15255 0
M  V30 2497 N 249.799 1.42003 -0.683588 0
M  V30 2498 C 251.045 2.01712 -0.209825 0
M  V30 2499 C 251.378 1.53968 1.18353 0
M  V30 2500 O 250.653 0.745661 1.79639 0
M  V30 2501 C 250.936 3.59202 -0.254197 0
M  V30 2502 C 250.789 4.17102 -1.68363 0
M  V30 2503 C 252.108 4.38344 0.392709 0
M  V30 2504 H 249.227 0.732891 -0.0777189 0
M  V30 2505 H 251.869 1.68909 -0.87004 0
M  V30 2506 H 250.019 3.87278 0.307954 0
M  V30 2507 H 251.691 3.99946 -2.29871 0
M  V30 2508 H 249.934 3.72597 -2.22157 0
M  V30 2509 H 250.605 5.26249 -1.6663 0
M  V30 2510 H 253.081 4.16011 -0.0859162 0
M  V30 2511 H 251.957 5.47901 0.331063 0
M  V30 2512 H 252.218 4.16887 1.47164 0
M  V30 2513 N 251.277 0.427512 1.51691 0
M  V30 2514 C 252.554 -0.201684 1.94557 0
M  V30 2515 C 252.934 -1.60981 1.36559 0
M  V30 2516 O 252.282 -2.21814 0.548702 0
M  V30 2517 C 252.492 -0.189394 3.48486 0
M  V30 2518 C 253.84 -0.39978 4.22714 0
M  V30 2519 O 254.864 -0.267945 3.55191 0
M  V30 2520 O 253.723 -0.661249 5.42485 0
M  V30 2521 H 250.817 -0.135261 0.815864 0
M  V30 2522 H 253.363 0.484782 1.62628 0
M  V30 2523 H 252.135 0.795431 3.8313 0
M  V30 2524 H 251.758 -0.919187 3.86829 0
M  V30 2525 N 252.755 -1.56801 0.158532 0
M  V30 2526 C 254.003 -1.96102 -0.488712 0
M  V30 2527 C 254.324 -1.04498 -1.64636 0
M  V30 2528 O 253.594 -0.108783 -1.95598 0
M  V30 2529 H 252.174 -0.724102 -0.183535 0
M  V30 2530 H 254.836 -1.93457 0.236728 0
M  V30 2531 H 253.932 -3.00097 -0.857219 0
M  V30 2532 N 254.233 0.115231 -1.57178 0
M  V30 2533 C 255.163 1.1423 -2.03651 0
M  V30 2534 C 256.144 1.42967 -0.921655 0
M  V30 2535 O 257.329 1.53343 -1.19162 0
M  V30 2536 C 254.459 2.4675 -2.44401 0
M  V30 2537 C 253.413 2.32467 -3.59365 0
M  V30 2538 C 252.739 3.69984 -3.86026 0
M  V30 2539 C 254.039 1.78203 -4.90959 0
M  V30 2540 H 255.733 0.755749 -2.89705 0
M  V30 2541 H 253.279 0.362093 -1.39373 0
M  V30 2542 H 255.232 3.18854 -2.75517 0
M  V30 2543 H 253.956 2.87302 -1.55322 0
M  V30 2544 H 252.615 1.62811 -3.28463 0
M  V30 2545 H 252.263 4.08028 -2.94147 0
M  V30 2546 H 251.963 3.61279 -4.63412 0
M  V30 2547 H 253.487 4.43587 -4.19599 0
M  V30 2548 H 254.901 2.40128 -5.20587 0
M  V30 2549 H 253.298 1.8031 -5.72371 0
M  V30 2550 H 254.368 0.739876 -4.79222 0
M  V30 2551 N 255.711 1.52812 0.385517 0
M  V30 2552 C 256.659 1.78482 1.49155 0
M  V30 2553 C 257.653 0.652914 1.56312 0
M  V30 2554 O 258.859 0.835464 1.59436 0
M  V30 2555 H 255.234 0.5648 0.496493 0
M  V30 2556 H 257.205 2.71095 1.24699 0
M  V30 2557 C 255.954 1.97378 2.86247 0
M  V30 2558 H 255.277 2.83907 2.81491 0
M  V30 2559 H 256.717 2.19327 3.62866 0
M  V30 2560 C 255.176 0.74728 3.28508 0
M  V30 2561 O 255.706 -0.0736232 4.01633 0
M  V30 2562 N 253.912 0.576396 2.84826 0
M  V30 2563 H 253.459 1.24555 2.25486 0
M  V30 2564 H 253.417 -0.24288 3.1346 0
M  V30 2565 N 257.189 -0.644168 1.43834 0
M  V30 2566 C 258.436 -1.40395 1.4593 0
M  V30 2567 C 258.764 -1.94305 0.0869658 0
M  V30 2568 O 258.019 -1.73288 -0.909378 0
M  V30 2569 C 258.318 -2.59615 2.45631 0
M  V30 2570 C 257.984 -2.2407 3.91284 0
M  V30 2571 C 256.646 -2.14089 4.30952 0
M  V30 2572 C 258.998 -1.95775 4.83034 0
M  V30 2573 C 256.326 -1.73981 5.6031 0
M  V30 2574 C 258.678 -1.57163 6.12766 0
M  V30 2575 C 257.342 -1.45713 6.51402 0
M  V30 2576 H 256.612 -0.513741 0.533995 0
M  V30 2577 H 259.259 -0.731724 1.76969 0
M  V30 2578 H 257.564 -3.32011 2.08028 0
M  V30 2579 H 259.261 -3.17834 2.44504 0
M  V30 2580 H 255.851 -2.32753 3.59895 0
M  V30 2581 H 260.035 -2.02403 4.53152 0
M  V30 2582 H 255.291 -1.63709 5.89075 0
M  V30 2583 H 259.465 -1.34303 6.83327 0
M  V30 2584 H 257.092 -1.14406 7.51542 0
M  V30 2585 N 258.668 -1.30515 -0.883378 0
M  V30 2586 C 259.631 -1.1701 -1.97082 0
M  V30 2587 C 260.631 -0.10089 -1.60483 0
M  V30 2588 O 261.821 -0.349127 -1.70666 0
M  V30 2589 C 258.953 -0.793045 -3.31547 0
M  V30 2590 H 260.146 -2.13622 -2.10489 0
M  V30 2591 H 257.699 -1.13935 -1.06998 0
M  V30 2592 H 258.434 0.172499 -3.23841 0
M  V30 2593 H 258.219 -1.56576 -3.5948 0
M  V30 2594 H 259.709 -0.722073 -4.1131 0
M  V30 2595 N 260.146 1.09593 -1.13257 0
M  V30 2596 C 261.392 1.82003 -0.89458 0
M  V30 2597 C 261.725 1.85402 0.577906 0
M  V30 2598 O 261 1.32099 1.42759 0
M  V30 2599 C 261.283 3.28237 -1.48096 0
M  V30 2600 C 261.136 3.3312 -3.02244 0
M  V30 2601 C 262.455 4.24871 -1.14774 0
M  V30 2602 H 259.574 0.66077 -0.326424 0
M  V30 2603 H 262.216 1.28389 -1.40058 0
M  V30 2604 H 260.366 3.74024 -1.05062 0
M  V30 2605 H 262.038 2.95748 -3.54021 0
M  V30 2606 H 260.281 2.72756 -3.37323 0
M  V30 2607 H 260.952 4.3613 -3.38371 0
M  V30 2608 H 263.428 3.87361 -1.51957 0
M  V30 2609 H 262.304 5.25532 -1.58452 0
M  V30 2610 H 262.565 4.42058 -0.0611849 0
M  V30 2611 N 261.624 0.925811 1.2754 0
M  V30 2612 C 262.556 0.380753 2.26015 0
M  V30 2613 C 263.569 -0.487485 1.5533 0
M  V30 2614 O 264.758 -0.300413 1.75954 0
M  V30 2615 C 261.858 -0.473259 3.35579 0
M  V30 2616 C 261.031 0.375249 4.35787 0
M  V30 2617 C 260.09 -0.415809 5.24555 0
M  V30 2618 O 259.116 0.175834 5.68928 0
M  V30 2619 N 260.318 -1.71607 5.54555 0
M  V30 2620 H 263.083 1.22725 2.73421 0
M  V30 2621 H 260.644 0.793037 1.41147 0
M  V30 2622 H 262.636 -1.00949 3.91907 0
M  V30 2623 H 261.206 -1.2205 2.87789 0
M  V30 2624 H 260.426 1.09279 3.7875 0
M  V30 2625 H 261.714 0.955399 4.99749 0
M  V30 2626 H 261.112 -2.2191 5.20358 0
M  V30 2627 H 259.669 -2.19887 6.1359 0
M  V30 2628 N 263.102 -1.41638 0.69111 0
M  V30 2629 C 264.332 -2.0533 0.228758 0
M  V30 2630 C 264.74 -1.52089 -1.12541 0
M  V30 2631 O 264.083 -0.662145 -1.71351 0
M  V30 2632 C 264.145 -3.59349 0.10407 0
M  V30 2633 C 263.809 -4.35362 1.38956 0
M  V30 2634 C 264.806 -4.64942 2.32648 0
M  V30 2635 C 262.491 -4.74714 1.64169 0
M  V30 2636 C 264.485 -5.32828 3.49818 0
M  V30 2637 C 262.172 -5.42338 2.81625 0
M  V30 2638 C 263.17 -5.71322 3.74273 0
M  V30 2639 O 262.858 -6.37554 4.89673 0
M  V30 2640 H 262.59 -0.667796 0.104997 0
M  V30 2641 H 265.144 -1.82477 0.942938 0
M  V30 2642 H 263.374 -3.80924 -0.665839 0
M  V30 2643 H 265.063 -4.04633 -0.320519 0
M  V30 2644 H 265.829 -4.35025 2.14425 0
M  V30 2645 H 261.708 -4.51538 0.929202 0
M  V30 2646 H 265.252 -5.55368 4.22152 0
M  V30 2647 H 261.149 -5.71673 2.99768 0
M  V30 2648 H 261.917 -6.56049 4.8943 0
M  V30 2649 N 264.58 -0.43555 -1.51462 0
M  V30 2650 C 265.51 0.367376 -2.30592 0
M  V30 2651 C 266.491 1.02263 -1.35928 0
M  V30 2652 O 267.676 1.02661 -1.64847 0
M  V30 2653 C 264.806 1.46983 -3.14664 0
M  V30 2654 C 263.76 0.938161 -4.17591 0
M  V30 2655 C 263.086 2.13622 -4.90173 0
M  V30 2656 C 264.386 -0.0261621 -5.22293 0
M  V30 2657 H 266.08 -0.292969 -2.97963 0
M  V30 2658 H 263.626 -0.14234 -1.43295 0
M  V30 2659 H 265.579 2.03873 -3.688 0
M  V30 2660 H 264.303 2.15843 -2.4511 0
M  V30 2661 H 262.962 0.391481 -3.64504 0
M  V30 2662 H 262.61 2.81098 -4.17124 0
M  V30 2663 H 262.31 1.78688 -5.59772 0
M  V30 2664 H 263.834 2.7107 -5.47132 0
M  V30 2665 H 265.248 0.452384 -5.71512 0
M  V30 2666 H 263.645 -0.287992 -5.99409 0
M  V30 2667 H 264.715 -0.963391 -4.75233 0
M  V30 2668 N 266.058 1.56714 -0.166846 0
M  V30 2669 C 267.306 1.96358 0.478305 0
M  V30 2670 C 267.627 1.0537 1.6408 0
M  V30 2671 O 266.897 0.119154 1.95537 0
M  V30 2672 H 265.477 0.725065 0.179692 0
M  V30 2673 H 268.139 1.93329 -0.246985 0
M  V30 2674 H 267.235 3.00547 0.841292 0
M  V30 2675 N 267.536 -0.106894 1.57237 0
M  V30 2676 C 268.483 -1.13049 2.01217 0
M  V30 2677 C 269.453 -1.40471 0.886403 0
M  V30 2678 O 270.638 -1.52133 1.15153 0
M  V30 2679 C 267.778 -2.4487 2.43172 0
M  V30 2680 C 266.891 -2.24281 3.69218 0
M  V30 2681 C 266.026 -3.49417 4.00101 0
M  V30 2682 C 265.065 -3.24038 5.19294 0
M  V30 2683 N 264.202 -4.41409 5.45988 0
M  V30 2684 H 269.042 -0.748456 2.88448 0
M  V30 2685 H 266.579 -0.358054 1.42676 0
M  V30 2686 H 268.537 -3.21786 2.65537 0
M  V30 2687 H 267.167 -2.80944 1.58967 0
M  V30 2688 H 266.219 -1.38224 3.54398 0
M  V30 2689 H 267.531 -2.01512 4.56283 0
M  V30 2690 H 266.685 -4.34746 4.2318 0
M  V30 2691 H 265.424 -3.75229 3.11535 0
M  V30 2692 H 264.429 -2.37102 4.96047 0
M  V30 2693 H 265.654 -2.99584 6.09447 0
M  V30 2694 H 263.6 -4.67319 4.60379 0
M  V30 2695 H 263.517 -4.21788 6.274 0
M  V30 2696 H 264.785 -5.27836 5.73593 0
M  V30 2697 N 269.014 -1.53014 -0.377408 0
M  V30 2698 C 269.962 -1.7927 -1.48206 0
M  V30 2699 C 270.956 -0.661195 -1.55963 0
M  V30 2700 O 272.162 -0.843908 -1.58991 0
M  V30 2701 H 268.537 -0.567425 -0.493491 0
M  V30 2702 H 270.508 -2.71753 -1.2326 0
M  V30 2703 C 269.257 -1.98894 -2.85196 0
M  V30 2704 H 268.58 -2.85395 -2.79981 0
M  V30 2705 H 270.02 -2.21249 -3.61698 0
M  V30 2706 C 268.479 -0.764691 -3.28107 0
M  V30 2707 O 269.009 0.0523226 -4.01666 0
M  V30 2708 N 267.215 -0.591493 -2.84517 0
M  V30 2709 H 266.762 -1.25749 -2.24822 0
M  V30 2710 H 266.72 0.226253 -3.13585 0
M  V30 2711 N 270.492 0.636531 -1.44174 0
M  V30 2712 C 271.402 1.77754 -1.53103 0
M  V30 2713 C 272.418 1.68928 -0.417034 0
M  V30 2714 O 273.594 1.89801 -0.6736 0
M  V30 2715 C 270.659 3.14115 -1.46741 0
M  V30 2716 C 269.72 3.34612 -2.68948 0
M  V30 2717 C 268.953 4.64467 -2.6288 0
M  V30 2718 O 269.176 5.44919 -1.68581 0
M  V30 2719 O 268.11 4.87049 -3.53648 0
M  V30 2720 H 271.936 1.73174 -2.49489 0
M  V30 2721 H 269.521 0.79709 -1.2636 0
M  V30 2722 H 271.403 3.95412 -1.45696 0
M  V30 2723 H 270.078 3.19249 -0.534975 0
M  V30 2724 H 268.985 2.53014 -2.75562 0
M  V30 2725 H 270.318 3.34336 -3.61221 0
M  V30 2726 N 271.97 1.30982 0.876444 0
M  V30 2727 C 273.386 1.09498 1.16113 0
M  V30 2728 C 273.586 -0.13875 2.01022 0
M  V30 2729 O 272.642 -0.829935 2.38471 0
M  V30 2730 C 273.955 2.36308 1.85954 0
M  V30 2731 C 275.503 2.41856 1.98683 0
M  V30 2732 C 275.978 3.6853 2.71937 0
M  V30 2733 N 277.469 3.69387 2.79477 0
M  V30 2734 C 278.204 4.64096 3.36753 0
M  V30 2735 N 277.7 5.69155 3.95012 0
M  V30 2736 N 279.493 4.51626 3.3465 0
M  V30 2737 H 271.644 2.10118 0.310494 0
M  V30 2738 H 273.907 0.926634 0.200131 0
M  V30 2739 H 273.613 3.26388 1.31011 0
M  V30 2740 H 273.487 2.4561 2.86278 0
M  V30 2741 H 275.874 1.52249 2.52793 0
M  V30 2742 H 275.955 2.36523 0.9742 0
M  V30 2743 H 275.599 4.58499 2.18496 0
M  V30 2744 H 275.529 3.71127 3.73593 0
M  V30 2745 H 278.02 2.93438 2.38123 0
M  V30 2746 H 278.333 6.3751 4.36808 0
M  V30 2747 H 276.678 5.72937 3.93406 0
M  V30 2748 H 279.869 3.68728 2.8837 0
M  V30 2749 H 280.042 5.25614 3.7899 0
M  V30 2750 N 273.449 -1.08991 1.13837 0
M  V30 2751 C 274.726 -1.77863 0.813876 0
M  V30 2752 C 275.106 -1.99375 -0.693746 0
M  V30 2753 O 274.454 -1.59875 -1.63255 0
M  V30 2754 C 274.664 -3.0986 1.60586 0
M  V30 2755 C 276.012 -3.84493 1.8014 0
M  V30 2756 O 277.036 -3.19624 1.57222 0
M  V30 2757 O 275.895 -5.00957 2.18413 0
M  V30 2758 H 272.989 -0.771589 0.297624 0
M  V30 2759 H 275.535 -1.15507 1.24323 0
M  V30 2760 H 274.307 -2.89715 2.63022 0
M  V30 2761 H 273.93 -3.79942 1.17173 0
M  V30 2762 N 274.927 -0.932562 -1.27047 0
M  V30 2763 C 276.155 -0.592031 -1.98249 0
M  V30 2764 C 276.57 0.831062 -1.69525 0
M  V30 2765 O 275.927 1.55299 -0.958561 0
M  V30 2766 C 275.978 -0.814279 -3.5221 0
M  V30 2767 O 275.699 -2.18139 -3.7993 0
M  V30 2768 C 277.2 -0.483121 -4.4066 0
M  V30 2769 H 274.42 -0.223896 -0.632544 0
M  V30 2770 H 276.964 -1.25091 -1.61779 0
M  V30 2771 H 275.119 -0.20213 -3.86872 0
M  V30 2772 H 275.533 -2.235 -4.74498 0
M  V30 2773 H 277.007 -0.689298 -5.47679 0
M  V30 2774 H 277.484 0.581546 -4.35333 0
M  V30 2775 H 278.09 -1.07362 -4.11526 0
M  V30 2776 N 276.405 1.4127 -0.698611 0
M  V30 2777 C 277.368 2.29158 -0.044132 0
M  V30 2778 C 278.368 1.44529 0.704841 0
M  V30 2779 O 279.558 1.65643 0.539276 0
M  V30 2780 C 276.69 3.27459 0.947809 0
M  V30 2781 H 277.883 2.88529 -0.817994 0
M  V30 2782 H 275.436 1.49307 -0.46228 0
M  V30 2783 H 276.171 2.73073 1.74933 0
M  V30 2784 H 275.956 3.8991 0.41385 0
M  V30 2785 H 277.446 3.93311 1.40344 0
M  V30 2786 N 277.883 0.443576 1.51229 0
M  V30 2787 C 279.299 0.0962001 1.5931 0
M  V30 2788 C 279.499 -1.39501 1.45402 0
M  V30 2789 O 278.555 -2.16557 1.29843 0
M  V30 2790 C 279.868 0.621875 2.94199 0
M  V30 2791 C 281.416 0.582865 3.07525 0
M  V30 2792 C 281.891 1.08562 4.44948 0
M  V30 2793 N 283.382 1.04387 4.51284 0
M  V30 2794 C 284.117 1.40368 5.55954 0
M  V30 2795 N 283.613 1.83664 6.68011 0
M  V30 2796 N 285.406 1.32145 5.46346 0
M  V30 2797 H 277.557 1.41376 1.58514 0
M  V30 2798 H 279.82 0.582965 0.747567 0
M  V30 2799 H 279.526 1.66546 3.09767 0
M  V30 2800 H 279.4 0.0502125 3.77167 0
M  V30 2801 H 281.787 -0.451749 2.91622 0
M  V30 2802 H 281.868 1.191 2.26382 0
M  V30 2803 H 281.512 2.11873 4.61598 0
M  V30 2804 H 281.442 0.453956 5.2464 0
M  V30 2805 H 283.933 0.725986 3.70861 0
M  V30 2806 H 284.246 2.0934 7.43906 0
M  V30 2807 H 282.591 1.87596 6.69203 0
M  V30 2808 H 285.782 0.981808 4.57688 0
M  V30 2809 H 285.955 1.60514 6.27805 0
M  V30 2810 N 279.361 -1.56624 0.175154 0
M  V30 2811 C 280.777 -1.58571 -0.180966 0
M  V30 2812 C 280.977 -1.19065 -1.6256 0
M  V30 2813 O 280.033 -0.904044 -2.35761 0
M  V30 2814 C 281.346 -3.00522 0.103326 0
M  V30 2815 C 282.894 -3.12972 0.0418426 0
M  V30 2816 C 283.369 -4.57022 0.299175 0
M  V30 2817 N 284.86 -4.62541 0.247086 0
M  V30 2818 C 285.595 -5.71857 0.420318 0
M  V30 2819 N 285.091 -6.89717 0.652816 0
M  V30 2820 N 286.884 -5.60972 0.355957 0
M  V30 2821 H 279.035 -1.80589 1.11809 0
M  V30 2822 H 281.298 -0.837178 0.444788 0
M  V30 2823 H 281.004 -3.33916 1.10422 0
M  V30 2824 H 280.878 -3.72344 -0.603299 0
M  V30 2825 H 283.265 -2.79403 -0.949636 0
M  V30 2826 H 283.346 -2.43578 0.781238 0
M  V30 2827 H 282.99 -4.913 1.28788 0
M  V30 2828 H 282.92 -5.24579 -0.460876 0
M  V30 2829 H 285.411 -3.77829 0.0731895 0
M  V30 2830 H 285.724 -7.68911 0.774347 0
M  V30 2831 H 284.069 -6.91572 0.689476 0
M  V30 2832 H 287.26 -4.67773 0.174882 0
M  V30 2833 H 287.433 -6.46111 0.494388 0
M  V30 2834 N 280.839 0.0985539 -1.57292 0
M  V30 2835 C 282.064 0.820196 -1.90493 0
M  V30 2836 C 282.489 1.71658 -0.769094 0
M  V30 2837 O 281.847 1.79133 0.279495 0
M  V30 2838 C 281.895 1.61242 -3.22542 0
M  V30 2839 O 280.999 2.72108 -3.09888 0
M  V30 2840 H 280.34 0.225547 -0.62452 0
M  V30 2841 H 282.87 0.0748159 -2.04463 0
M  V30 2842 H 282.88 1.99737 -3.55766 0
M  V30 2843 H 281.555 0.954535 -4.04798 0
M  V30 2844 H 280.132 2.36667 -2.88172 0
M  V30 2845 N 282.317 1.53212 0.369288 0
M  V30 2846 C 283.265 1.80054 1.47253 0
M  V30 2847 C 284.259 0.669456 1.55611 0
M  V30 2848 O 285.465 0.852328 1.58541 0
M  V30 2849 H 281.84 0.570034 0.490475 0
M  V30 2850 H 283.811 2.72403 1.21817 0
M  V30 2851 C 282.56 2.00403 2.84137 0
M  V30 2852 H 281.883 2.86876 2.78464 0
M  V30 2853 H 283.323 2.23164 3.60519 0
M  V30 2854 C 281.782 0.782081 3.27697 0
M  V30 2855 O 282.312 -0.0310205 4.01688 0
M  V30 2856 N 280.518 0.606573 2.84199 0
M  V30 2857 H 280.065 1.26939 2.24152 0
M  V30 2858 H 280.023 -0.20962 3.137 0
M  V30 2859 N 283.795 -0.628877 1.44509 0
M  V30 2860 C 285.043 -1.38565 1.4712 0
M  V30 2861 C 285.364 -1.94712 0.105899 0
M  V30 2862 O 284.634 -1.75912 -0.862079 0
M  V30 2863 H 283.214 -0.514333 0.541729 0
M  V30 2864 H 285.876 -0.740018 1.80305 0
M  V30 2865 H 284.972 -2.21583 2.19789 0
M  V30 2866 N 285.273 -1.31445 -0.869486 0
M  V30 2867 C 286.55 -1.11795 -1.60503 0
M  V30 2868 C 286.93 0.327168 -2.08549 0
M  V30 2869 O 286.278 1.32135 -1.8642 0
M  V30 2870 C 286.488 -2.13258 -2.76265 0
M  V30 2871 C 287.836 -2.45805 -3.46215 0
M  V30 2872 O 288.86 -2.11688 -2.86473 0
M  V30 2873 O 287.719 -3.04228 -4.5399 0
M  V30 2874 H 284.813 -0.430421 -0.706163 0
M  V30 2875 H 287.359 -1.42925 -0.914907 0
M  V30 2876 H 286.131 -3.10461 -2.3818 0
M  V30 2877 H 285.754 -1.83035 -3.52964 0
M  V30 2878 N 286.751 1.08385 -1.14413 0
M  V30 2879 C 287.999 1.80419 -0.910679 0
M  V30 2880 C 288.32 1.86658 0.564243 0
M  V30 2881 O 287.59 1.35985 1.41014 0
M  V30 2882 H 286.17 0.668204 -0.333934 0
M  V30 2883 H 288.832 1.31037 -1.44275 0
M  V30 2884 H 287.928 2.83238 -1.31082 0
M  V30 2885 N 288.23 0.939286 1.26551 0
M  V30 2886 C 289.476 0.586715 1.94128 0
M  V30 2887 C 289.809 -0.8717 1.73537 0
M  V30 2888 O 289.084 -1.62339 1.07127 0
M  V30 2889 C 289.367 0.927497 3.4795 0
M  V30 2890 C 289.22 2.44052 3.77834 0
M  V30 2891 C 290.539 0.441569 4.37879 0
M  V30 2892 H 287.658 0.21463 0.705055 0
M  V30 2893 H 290.3 1.17316 1.49455 0
M  V30 2894 H 288.45 0.428431 3.8613 0
M  V30 2895 H 290.122 3.01216 3.4938 0
M  V30 2896 H 288.365 2.8848 3.23978 0
M  V30 2897 H 289.036 2.62947 4.85348 0
M  V30 2898 H 291.512 0.869448 4.06915 0
M  V30 2899 H 290.388 0.708856 5.44304 0
M  V30 2900 H 290.649 -0.658467 4.37169 0
M  V30 2901 N 289.708 -1.40897 0.706093 0
M  V30 2902 C 290.956 -2.00657 0.241054 0
M  V30 2903 C 291.277 -1.56241 -1.16678 0
M  V30 2904 O 290.547 -0.79765 -1.78926 0
M  V30 2905 H 289.127 -0.742018 0.0861308 0
M  V30 2906 H 291.789 -1.72372 0.909604 0
M  V30 2907 H 290.885 -3.10958 0.266705 0
M  V30 2908 N 291.186 -0.45159 -1.50991 0
M  V30 2909 C 292.434 0.109857 -2.01801 0
M  V30 2910 C 292.755 1.41958 -1.3369 0
M  V30 2911 O 292.025 1.9003 -0.475951 0
M  V30 2912 H 290.605 0.0435884 -0.745727 0
M  V30 2913 H 293.267 -0.597557 -1.85514 0
M  V30 2914 H 292.363 0.275489 -3.10882 0
M  V30 2915 N 292.664 1.56529 -0.183458 0
M  V30 2916 C 293.889 2.02064 0.467428 0
M  V30 2917 C 294.314 1.06282 1.55196 0
M  V30 2918 O 293.672 0.0443565 1.81246 0
M  V30 2919 C 293.72 3.46122 1.01153 0
M  V30 2920 O 292.824 3.53437 2.12499 0
M  V30 2921 H 292.165 0.654726 0.110588 0
M  V30 2922 H 294.695 2.02521 -0.290917 0
M  V30 2923 H 294.705 3.85676 1.33108 0
M  V30 2924 H 293.38 4.15331 0.217533 0
M  V30 2925 H 291.957 3.2575 1.81497 0
M  V30 2926 N 294.142 -0.090211 1.57342 0
M  V30 2927 C 295.391 -0.791531 1.8552 0
M  V30 2928 C 295.704 -1.79659 0.773441 0
M  V30 2929 O 296.91 -2.54616 0.942497 0
M  V30 2930 C 295.366 -1.45856 3.2902 0
M  V30 2931 C 294.974 -0.493017 4.45279 0
M  V30 2932 C 296.718 -2.14332 3.66418 0
M  V30 2933 C 294.625 -1.16491 5.79814 0
M  V30 2934 H 293.555 -0.299356 0.692027 0
M  V30 2935 H 296.206 -0.0445343 1.83446 0
M  V30 2936 H 294.588 -2.25318 3.2565 0
M  V30 2937 H 295.762 0.270464 4.60006 0
M  V30 2938 H 294.077 0.0863061 4.16311 0
M  V30 2939 H 296.674 -2.65344 4.64216 0
M  V30 2940 H 297.017 -2.93447 2.95287 0
M  V30 2941 H 297.55 -1.41724 3.71698 0
M  V30 2942 H 294.289 -0.41447 6.54188 0
M  V30 2943 H 293.809 -1.8997 5.68921 0
M  V30 2944 H 295.488 -1.69001 6.24538 0
M  V30 2945 N 295.62 -1.53406 -0.361157 0
M  V30 2946 C 296.845 -1.74024 -1.12829 0
M  V30 2947 C 297.27 -0.470069 -1.82132 0
M  V30 2948 O 296.628 0.57619 -1.719 0
M  V30 2949 C 296.676 -2.90903 -2.13091 0
M  V30 2950 O 295.78 -2.59821 -3.20261 0
M  V30 2951 H 295.121 -0.577804 -0.327168 0
M  V30 2952 H 297.651 -2.00307 -0.41693 0
M  V30 2953 H 297.661 -3.17194 -2.56616 0
M  V30 2954 H 296.336 -3.83034 -1.62042 0
M  V30 2955 H 294.913 -2.44362 -2.81677 0
M  V30 2956 N 297.098 0.621204 -1.44841 0
M  V30 2957 C 298.328 1.40548 -1.51426 0
M  V30 2958 C 298.736 1.88673 -0.141083 0
M  V30 2959 O 298.079 1.62053 0.865128 0
M  V30 2960 C 298.141 2.65325 -2.42576 0
M  V30 2961 C 297.805 2.3893 -3.89566 0
M  V30 2962 C 298.802 2.00138 -4.79834 0
M  V30 2963 C 296.487 2.52263 -4.3436 0
M  V30 2964 C 298.481 1.75021 -6.129 0
M  V30 2965 C 296.168 2.2676 -5.67471 0
M  V30 2966 C 297.166 1.88199 -6.56559 0
M  V30 2967 O 296.854 1.62986 -7.87204 0
M  V30 2968 H 296.586 0.437122 -0.515655 0
M  V30 2969 H 299.14 0.765987 -1.90583 0
M  V30 2970 H 297.37 3.31947 -1.98364 0
M  V30 2971 H 299.059 3.27347 -2.39998 0
M  V30 2972 H 299.825 1.89386 -4.46495 0
M  V30 2973 H 295.704 2.81246 -3.65269 0
M  V30 2974 H 299.248 1.44848 -6.82396 0
M  V30 2975 H 295.145 2.37125 -6.00368 0
M  V30 2976 H 295.913 1.7715 -7.991 0
M  V30 2977 N 298.576 1.31904 0.862503 0
M  V30 2978 C 299.486 1.22161 2.00285 0
M  V30 2979 C 300.502 0.136785 1.73462 0
M  V30 2980 O 301.678 0.355994 1.98229 0
M  V30 2981 C 298.743 0.937093 3.33796 0
M  V30 2982 C 297.804 2.10957 3.73893 0
M  V30 2983 C 297.037 1.83853 5.01033 0
M  V30 2984 O 297.26 0.777274 5.65079 0
M  V30 2985 O 296.194 2.69741 5.38074 0
M  V30 2986 H 300.02 2.18008 2.11439 0
M  V30 2987 H 297.605 1.11716 0.991957 0
M  V30 2988 H 299.487 0.794583 4.13841 0
M  V30 2989 H 298.162 0.00871894 3.23699 0
M  V30 2990 H 297.069 2.30752 2.94456 0
M  V30 2991 H 298.402 3.02046 3.88625 0
M  V30 2992 N 300.054 -1.07777 1.14986 0
M  V30 2993 C 301.284 -1.83752 0.944402 0
M  V30 2994 C 301.692 -1.8218 -0.51058 0
M  V30 2995 O 301.035 -1.22852 -1.36576 0
M  V30 2996 C 301.097 -3.32128 1.37592 0
M  V30 2997 C 300.761 -3.57425 2.84775 0
M  V30 2998 C 301.758 -3.5173 3.8286 0
M  V30 2999 C 299.443 -3.8523 3.2234 0
M  V30 3000 C 301.437 -3.73482 5.16517 0
M  V30 3001 C 299.124 -4.06634 4.56171 0
M  V30 3002 C 300.122 -4.00754 5.53069 0
M  V30 3003 O 299.81 -4.2159 6.84483 0
M  V30 3004 H 299.542 -0.58673 0.335744 0
M  V30 3005 H 302.096 -1.36982 1.53052 0
M  V30 3006 H 300.326 -3.79686 0.733165 0
M  V30 3007 H 302.015 -3.89555 1.14024 0
M  V30 3008 H 302.781 -3.30256 3.55184 0
M  V30 3009 H 298.66 -3.88923 2.47508 0
M  V30 3010 H 302.204 -3.68808 5.92137 0
M  V30 3011 H 298.101 -4.27593 4.83564 0
M  V30 3012 H 298.869 -4.38961 6.90837 0
M  V30 3013 N 301.532 -0.945985 -1.26051 0
M  V30 3014 C 302.442 -0.465633 -2.29933 0
M  V30 3015 C 303.458 0.462761 -1.67733 0
M  V30 3016 O 304.634 0.341118 -1.9849 0
M  V30 3017 C 301.699 0.256994 -3.45746 0
M  V30 3018 C 300.76 -0.708549 -4.23412 0
M  V30 3019 C 299.993 -0.0203135 -5.33696 0
M  V30 3020 O 300.216 1.19571 -5.57726 0
M  V30 3021 O 299.15 -0.701459 -5.97799 0
M  V30 3022 H 302.976 -1.32866 -2.73094 0
M  V30 3023 H 300.561 -0.712071 -1.31339 0
M  V30 3024 H 302.443 0.663852 -4.16138 0
M  V30 3025 H 301.118 1.09533 -3.04605 0
M  V30 3026 H 300.025 -1.16545 -3.55483 0
M  V30 3027 H 301.358 -1.51465 -4.68315 0
M  V30 3028 N 303.011 1.40521 -0.713556 0
M  V30 3029 C 304.259 2.00527 -0.251692 0
M  V30 3030 C 304.58 1.56857 1.15848 0
M  V30 3031 O 303.85 0.807127 1.785 0
M  V30 3032 H 302.43 0.741551 -0.0900646 0
M  V30 3033 H 305.092 1.71887 -0.918733 0
M  V30 3034 H 304.188 3.10813 -0.283192 0
M  V30 3035 N 304.489 0.459591 1.5075 0
M  V30 3036 C 305.736 -0.0993495 2.02256 0
M  V30 3037 C 306.064 -1.40751 1.34237 0
M  V30 3038 O 305.319 -1.90379 0.453228 0
M  V30 3039 C 305.618 -0.342866 3.55752 0
M  V30 3040 C 305.284 0.88218 4.42186 0
M  V30 3041 C 303.946 1.21808 4.65528 0
M  V30 3042 C 306.298 1.69837 4.92752 0
M  V30 3043 C 303.626 2.37045 5.36681 0
M  V30 3044 C 305.978 2.84192 5.65171 0
M  V30 3045 C 304.642 3.1821 5.8677 0
M  V30 3046 H 303.912 -0.0363545 0.740108 0
M  V30 3047 H 306.559 0.611329 1.8148 0
M  V30 3048 H 304.864 -1.13567 3.7498 0
M  V30 3049 H 306.561 -0.789121 3.93159 0
M  V30 3050 H 303.151 0.610467 4.2423 0
M  V30 3051 H 307.335 1.45205 4.74583 0
M  V30 3052 H 302.591 2.63689 5.51614 0
M  V30 3053 H 306.765 3.4779 6.03337 0
M  V30 3054 H 304.392 4.07613 6.41682 0
M  V30 3055 N 305.967 -1.56429 0.191757 0
M  V30 3056 C 307.215 -1.97095 -0.447006 0
M  V30 3057 C 307.536 -1.07967 -1.62383 0
M  V30 3058 O 306.806 -0.150248 -1.95323 0
M  V30 3059 H 305.386 -0.727832 -0.168135 0
M  V30 3060 H 308.048 -1.92911 0.27771 0
M  V30 3061 H 307.144 -3.01848 -0.793371 0
M  V30 3062 N 307.445 0.0818655 -1.57387 0
M  V30 3063 C 308.694 0.781681 -1.85937 0
M  V30 3064 C 309.007 1.79246 -0.782957 0
M  V30 3065 O 310.213 2.54112 -0.955987 0
M  V30 3066 C 308.669 1.44109 -3.29789 0
M  V30 3067 C 308.277 0.469396 -4.45534 0
M  V30 3068 C 310.021 2.12386 -3.67549 0
M  V30 3069 C 307.928 1.13415 -5.80423 0
M  V30 3070 H 306.858 0.295682 -0.693605 0
M  V30 3071 H 309.509 0.0348051 -1.83467 0
M  V30 3072 H 307.891 2.23588 -3.2684 0
M  V30 3073 H 309.065 -0.294856 -4.59856 0
M  V30 3074 H 307.38 -0.108383 -4.16259 0
M  V30 3075 H 309.977 2.62878 -4.65617 0
M  V30 3076 H 310.32 2.91877 -2.96839 0
M  V30 3077 H 310.853 1.39751 -3.72444 0
M  V30 3078 H 307.592 0.379771 -6.54399 0
M  V30 3079 H 307.112 1.8695 -5.69921 0
M  V30 3080 H 308.791 1.65686 -6.25426 0
M  V30 3081 N 308.923 1.53595 0.353017 0
M  V30 3082 C 310.169 1.70638 1.09593 0
M  V30 3083 C 310.502 0.463286 1.88593 0
M  V30 3084 O 309.777 -0.539597 1.86865 0
M  V30 3085 C 310.06 2.96406 2.04489 0
M  V30 3086 C 309.913 4.30901 1.29014 0
M  V30 3087 C 311.232 3.17812 3.0444 0
M  V30 3088 H 308.351 0.620913 0.397034 0
M  V30 3089 H 310.993 1.86254 0.375446 0
M  V30 3090 H 309.143 2.83223 2.65927 0
M  V30 3091 H 310.815 4.55917 0.702638 0
M  V30 3092 H 309.058 4.29741 0.592071 0
M  V30 3093 H 309.729 5.1506 1.98537 0
M  V30 3094 H 312.205 3.30263 2.53112 0
M  V30 3095 H 311.081 4.07223 3.6805 0
M  V30 3096 H 311.342 2.33669 3.75301 0
M  V30 3097 N 310.401 -0.613514 1.45168 0
M  V30 3098 C 311.649 -1.36997 1.48581 0
M  V30 3099 C 311.97 -1.94589 0.126545 0
M  V30 3100 O 311.24 -1.76816 -0.843372 0
M  V30 3101 H 309.82 -0.508558 0.547154 0
M  V30 3102 H 312.482 -0.720853 1.81079 0
M  V30 3103 H 311.578 -2.1924 2.22127 0
M  V30 3104 N 311.879 -1.3236 -0.855495 0
M  V30 3105 C 312.842 -1.21164 -1.94556 0
M  V30 3106 C 313.842 -0.134908 -1.60233 0
M  V30 3107 O 315.032 -0.385249 -1.69887 0
M  V30 3108 C 312.164 -0.863192 -3.29791 0
M  V30 3109 H 313.357 -2.18038 -2.05911 0
M  V30 3110 H 310.91 -1.16179 -1.04557 0
M  V30 3111 H 311.645 0.103769 -3.24134 0
M  V30 3112 H 311.43 -1.64166 -3.56078 0
M  V30 3113 H 312.92 -0.809156 -4.09686 0
M  V30 3114 N 313.357 1.07166 -1.15556 0
M  V30 3115 C 314.587 1.83248 -0.954133 0
M  V30 3116 C 314.995 1.82449 0.500911 0
M  V30 3117 O 314.338 1.23575 1.35923 0
M  V30 3118 C 314.4 3.31393 -1.39351 0
M  V30 3119 C 314.064 3.5591 -2.86666 0
M  V30 3120 C 315.061 3.49695 -3.8472 0
M  V30 3121 C 312.746 3.83515 -3.24379 0
M  V30 3122 C 314.74 3.70737 -5.18491 0
M  V30 3123 C 312.427 4.04209 -4.58321 0
M  V30 3124 C 313.425 3.97815 -5.55186 0
M  V30 3125 O 313.113 4.17954 -6.86709 0
M  V30 3126 H 312.845 0.584941 -0.338851 0
M  V30 3127 H 315.399 1.36169 -1.53777 0
M  V30 3128 H 313.629 3.79292 -0.75329 0
M  V30 3129 H 315.318 3.88945 -1.16089 0
M  V30 3130 H 316.084 3.28368 -3.56931 0
M  V30 3131 H 311.963 3.87605 -2.49567 0
M  V30 3132 H 315.507 3.65663 -5.94085 0
M  V30 3133 H 311.404 4.25023 -4.85825 0
M  V30 3134 H 312.172 4.35291 -6.93155 0
M  V30 3135 N 314.835 0.952656 1.25548 0
M  V30 3136 C 316.083 0.605176 1.92826 0
M  V30 3137 C 316.404 -0.860261 1.74999 0
M  V30 3138 O 315.674 -1.6125 1.11244 0
M  V30 3139 H 314.254 0.220832 0.713612 0
M  V30 3140 H 316.916 1.21047 1.52754 0
M  V30 3141 H 316.012 0.832798 3.00784 0
M  V30 3142 N 316.313 -1.40141 0.720998 0
M  V30 3143 C 317.276 -2.29058 0.0805834 0
M  V30 3144 C 318.276 -1.45632 -0.681758 0
M  V30 3145 O 319.466 -1.6648 -0.512856 0
M  V30 3146 C 316.598 -3.28925 -0.895593 0
M  V30 3147 H 317.791 -2.87191 0.863793 0
M  V30 3148 H 315.344 -1.48553 0.485975 0
M  V30 3149 H 316.079 -2.75822 -1.70566 0
M  V30 3150 H 315.864 -3.90519 -0.351766 0
M  V30 3151 H 317.354 -3.95494 -1.34069 0
M  V30 3152 N 317.792 -0.46758 -1.50504 0
M  V30 3153 C 318.755 0.317059 -2.26996 0
M  V30 3154 C 319.755 0.923513 -1.31635 0
M  V30 3155 O 320.945 0.793239 -1.55091 0
M  V30 3156 C 318.077 1.45134 -3.08462 0
M  V30 3157 H 319.27 -0.353723 -2.97807 0
M  V30 3158 H 316.823 -0.221545 -1.54722 0
M  V30 3159 H 317.558 2.15728 -2.4214 0
M  V30 3160 H 317.343 1.02232 -3.78538 0
M  V30 3161 H 318.833 2.00493 -3.66323 0
M  V30 3162 N 319.27 1.56325 -0.20005 0
M  V30 3163 C 320.547 1.89484 0.48529 0
M  V30 3164 C 320.927 1.1143 1.79294 0
M  V30 3165 O 320.275 0.216919 2.27468 0
M  V30 3166 C 320.485 3.41923 0.699243 0
M  V30 3167 C 321.833 4.12256 1.01638 0
M  V30 3168 O 322.857 3.47402 0.786792 0
M  V30 3169 O 321.716 5.26887 1.45095 0
M  V30 3170 H 318.81 0.787144 0.253639 0
M  V30 3171 H 321.356 1.67985 -0.240633 0
M  V30 3172 H 320.128 3.90658 -0.224008 0
M  V30 3173 H 319.751 3.69131 1.47744 0
M  V30 3174 N 320.748 -0.0735177 1.57428 0
M  V30 3175 C 322.164 -0.428264 1.53747 0
M  V30 3176 C 322.364 -1.79272 0.91998 0
M  V30 3177 O 321.42 -2.47051 0.521745 0
M  V30 3178 C 322.733 -0.370914 2.98404 0
M  V30 3179 C 324.281 -0.451224 3.0973 0
M  V30 3180 C 324.756 -0.4238 4.56035 0
M  V30 3181 N 326.247 -0.483925 4.60665 0
M  V30 3182 C 326.982 -0.484891 5.71346 0
M  V30 3183 N 326.478 -0.440775 6.91396 0
M  V30 3184 N 328.271 -0.531319 5.59583 0
M  V30 3185 H 320.422 0.819949 1.95935 0
M  V30 3186 H 322.685 0.307493 0.896745 0
M  V30 3187 H 322.391 0.564956 3.47133 0
M  V30 3188 H 322.265 -1.18176 3.5821 0
M  V30 3189 H 324.652 -1.37752 2.60976 0
M  V30 3190 H 324.733 0.388167 2.52838 0
M  V30 3191 H 324.377 0.498638 5.05446 0
M  V30 3192 H 324.307 -1.2807 5.10789 0
M  V30 3193 H 326.798 -0.522338 3.74273 0
M  V30 3194 H 327.111 -0.44539 7.71515 0
M  V30 3195 H 325.456 -0.40749 6.93804 0
M  V30 3196 H 328.647 -0.563464 4.64696 0
M  V30 3197 H 328.82 -0.528603 6.4584 0
M  V30 3198 N 322.226 -1.5378 -0.344866 0
M  V30 3199 C 323.454 -1.74899 -1.10534 0
M  V30 3200 C 323.869 -0.487534 -1.82397 0
M  V30 3201 O 323.226 0.540741 -1.74305 0
M  V30 3202 C 323.277 -2.92822 -2.11984 0
M  V30 3203 O 322.998 -4.14089 -1.43044 0
M  V30 3204 C 324.499 -3.25982 -3.00417 0
M  V30 3205 H 321.719 -0.584426 -0.329678 0
M  V30 3206 H 324.263 -2.006 -0.397474 0
M  V30 3207 H 322.418 -2.69457 -2.78338 0
M  V30 3208 H 322.832 -4.80272 -2.10805 0
M  V30 3209 H 324.306 -4.11848 -3.67539 0
M  V30 3210 H 324.783 -2.42228 -3.66363 0
M  V30 3211 H 325.389 -3.51349 -2.39654 0
M  V30 3212 N 323.704 0.605807 -1.45491 0
M  V30 3213 C 324.652 1.73754 -1.54636 0
M  V30 3214 C 325.646 1.64207 -0.416219 0
M  V30 3215 O 326.852 1.69979 -0.592199 0
M  V30 3216 H 323.227 0.574073 -0.485741 0
M  V30 3217 H 325.198 1.63169 -2.49837 0
M  V30 3218 C 323.947 3.12135 -1.53189 0
M  V30 3219 H 323.27 3.20141 -2.39478 0
M  V30 3220 H 324.71 3.91147 -1.63645 0
M  V30 3221 C 323.169 3.35921 -0.256616 0
M  V30 3222 O 323.699 3.96194 0.662798 0
M  V30 3223 N 321.905 2.90204 -0.151751 0
M  V30 3224 H 321.452 2.41336 -0.90081 0
M  V30 3225 H 321.41 3.06492 0.700699 0
M  V30 3226 N 325.182 1.32811 0.848464 0
M  V30 3227 C 326.112 1.24882 1.97299 0
M  V30 3228 C 327.093 0.131357 1.69592 0
M  V30 3229 O 328.278 0.319553 1.91553 0
M  V30 3230 C 325.408 0.97746 3.33261 0
M  V30 3231 C 324.362 2.05682 3.75338 0
M  V30 3232 C 323.688 1.63777 5.09 0
M  V30 3233 C 324.988 3.47254 3.90144 0
M  V30 3234 H 326.682 2.18966 2.04191 0
M  V30 3235 H 324.228 1.05413 0.981029 0
M  V30 3236 H 326.181 0.908513 4.1149 0
M  V30 3237 H 324.905 0.000980011 3.266 0
M  V30 3238 H 323.564 2.11603 2.99366 0
M  V30 3239 H 323.212 0.648569 4.98801 0
M  V30 3240 H 322.912 2.36 5.38124 0
M  V30 3241 H 324.436 1.5833 5.89715 0
M  V30 3242 H 325.85 3.43888 4.58709 0
M  V30 3243 H 324.247 4.1788 4.30693 0
M  V30 3244 H 325.317 3.86462 2.92874 0
M  V30 3245 N 326.66 -1.06551 1.16123 0
M  V30 3246 C 327.592 -2.13908 0.823171 0
M  V30 3247 C 328.605 -1.61926 -0.16843 0
M  V30 3248 O 329.794 -1.78412 0.055962 0
M  V30 3249 C 326.894 -3.38283 0.204424 0
M  V30 3250 C 326.067 -4.19589 1.23548 0
M  V30 3251 C 325.126 -5.2233 0.637011 0
M  V30 3252 O 324.152 -5.54034 1.30516 0
M  V30 3253 N 325.354 -5.77621 -0.577474 0
M  V30 3254 H 328.119 -2.43508 1.74711 0
M  V30 3255 H 325.68 -1.2253 1.05821 0
M  V30 3256 H 327.672 -4.0416 -0.208909 0
M  V30 3257 H 326.242 -3.06329 -0.623012 0
M  V30 3258 H 325.462 -3.49406 1.82507 0
M  V30 3259 H 326.75 -4.70718 1.93137 0
M  V30 3260 H 326.148 -5.54125 -1.13853 0
M  V30 3261 H 324.705 -6.45087 -0.933053 0
M  V30 3262 N 328.138 -0.959301 -1.25041 0
M  V30 3263 C 329.048 -0.489994 -2.29426 0
M  V30 3264 C 330.064 0.444944 -1.68215 0
M  V30 3265 O 331.24 0.320046 -1.98841 0
M  V30 3266 C 328.305 0.220309 -3.45999 0
M  V30 3267 C 327.366 -0.753418 -4.22637 0
M  V30 3268 C 326.599 -0.076918 -5.33645 0
M  V30 3269 O 326.822 1.13649 -5.58963 0
M  V30 3270 O 325.756 -0.764824 -5.97021 0
M  V30 3271 H 329.582 -1.35755 -2.71669 0
M  V30 3272 H 327.167 -0.725961 -1.30576 0
M  V30 3273 H 329.049 0.619677 -4.16819 0
M  V30 3274 H 327.724 1.06296 -3.0575 0
M  V30 3275 H 326.631 -1.20308 -3.54227 0
M  V30 3276 H 327.964 -1.56423 -4.66683 0
M  V30 3277 N 329.616 1.39756 -0.72842 0
M  V30 3278 C 330.579 2.29012 -0.0927297 0
M  V30 3279 C 331.579 1.45992 0.674025 0
M  V30 3280 O 332.769 1.66749 0.50402 0
M  V30 3281 C 329.901 3.29396 0.878137 0
M  V30 3282 H 331.094 2.86729 -0.879011 0
M  V30 3283 H 328.647 1.48293 -0.493847 0
M  V30 3284 H 329.382 2.76722 1.69101 0
M  V30 3285 H 329.167 3.907 0.331051 0
M  V30 3286 H 330.657 3.96199 1.3197 0
M  V30 3287 N 331.094 0.475555 1.50254 0
M  V30 3288 C 332.026 -0.352649 2.26471 0
M  V30 3289 C 333.039 -0.953165 1.3198 0
M  V30 3290 O 334.228 -0.840815 1.57457 0
M  V30 3291 C 331.328 -1.50902 3.0345 0
M  V30 3292 C 330.501 -1.02047 4.25329 0
M  V30 3293 C 329.56 -2.05142 4.84565 0
M  V30 3294 O 328.586 -1.63023 5.45355 0
M  V30 3295 N 329.788 -3.37987 4.71959 0
M  V30 3296 H 332.553 0.300767 2.98187 0
M  V30 3297 H 330.114 0.306598 1.5897 0
M  V30 3298 H 332.106 -2.19572 3.39956 0
M  V30 3299 H 330.676 -2.06705 2.34504 0
M  V30 3300 H 329.896 -0.159507 3.93877 0
M  V30 3301 H 331.184 -0.672061 5.04342 0
M  V30 3302 H 330.582 -3.74913 4.23623 0
M  V30 3303 H 329.139 -4.02443 5.12721 0
M  V30 3304 N 332.573 -1.56217 0.208337 0
M  V30 3305 C 333.984 -1.84243 -0.301904 0
M  V30 3306 C 334.335 -1.12939 -1.60434 0
M  V30 3307 O 333.46 -0.39461 -2.12772 0
M  V30 3308 C 334.055 -3.34231 -0.554543 0
M  V30 3309 C 332.614 -3.62621 -1.00912 0
M  V30 3310 C 331.761 -2.77224 -0.064933 0
M  V30 3311 H 334.712 -1.52712 0.431833 0
M  V30 3312 H 334.733 -3.5372 -1.40223 0
M  V30 3313 H 334.245 -3.86099 0.393561 0
M  V30 3314 H 332.346 -3.16197 -1.97104 0
M  V30 3315 H 332.459 -4.7071 -0.892674 0
M  V30 3316 H 330.823 -2.48256 -0.56929 0
M  V30 3317 H 331.606 -3.31887 0.877851 0
M  V30 3318 N 334.051 0.0651679 -1.57465 0
M  V30 3319 C 334.981 1.07693 -2.07182 0
M  V30 3320 C 335.962 1.39962 -0.966673 0
M  V30 3321 O 337.147 1.49475 -1.2398 0
M  V30 3322 C 334.277 2.3885 -2.52127 0
M  V30 3323 C 333.231 2.20917 -3.66579 0
M  V30 3324 C 332.557 3.57515 -3.97601 0
M  V30 3325 C 333.857 1.62493 -4.9638 0
M  V30 3326 H 335.551 0.663199 -2.91962 0
M  V30 3327 H 333.097 0.317569 -1.40455 0
M  V30 3328 H 335.05 3.09928 -2.85522 0
M  V30 3329 H 333.774 2.82215 -1.64384 0
M  V30 3330 H 332.433 1.52279 -3.33477 0
M  V30 3331 H 332.081 3.98463 -3.06979 0
M  V30 3332 H 331.781 3.46353 -4.74672 0
M  V30 3333 H 333.305 4.30013 -4.33499 0
M  V30 3334 H 334.719 2.23445 -5.27963 0
M  V30 3335 H 333.116 1.62009 -5.77818 0
M  V30 3336 H 334.186 0.587041 -4.81333 0
M  V30 3337 N 335.529 1.53961 0.336706 0
M  V30 3338 C 336.777 1.71197 1.07405 0
M  V30 3339 C 337.098 0.481475 1.88962 0
M  V30 3340 O 336.368 -0.504585 1.8929 0
M  V30 3341 H 334.948 0.631185 0.399517 0
M  V30 3342 H 337.61 1.91232 0.376323 0
M  V30 3343 H 336.706 2.58587 1.74755 0
M  V30 3344 N 337.007 -0.598083 1.45811 0
M  V30 3345 C 337.955 -1.72932 1.55555 0
M  V30 3346 C 338.949 -1.63984 0.424921 0
M  V30 3347 O 340.155 -1.69663 0.601205 0
M  V30 3348 H 336.53 -0.571489 0.488779 0
M  V30 3349 H 338.501 -1.61842 2.50699 0
M  V30 3350 C 337.25 -3.11318 1.54843 0
M  V30 3351 H 336.573 -3.18867 2.41172 0
M  V30 3352 H 338.013 -3.90274 1.65717 0
M  V30 3353 C 336.472 -3.3578 0.274427 0
M  V30 3354 O 337.002 -3.9654 -0.641778 0
M  V30 3355 N 335.208 -2.90119 0.167139 0
M  V30 3356 H 334.755 -2.40855 0.913596 0
M  V30 3357 H 334.713 -3.0686 -0.684435 0
M  V30 3358 N 338.485 -1.33259 -0.841409 0
M  V30 3359 C 339.733 -1.24326 -1.59334 0
M  V30 3360 C 340.054 0.191564 -1.94057 0
M  V30 3361 O 339.324 1.11967 -1.60749 0
M  V30 3362 H 337.904 -0.457174 -0.590763 0
M  V30 3363 H 340.566 -1.66947 -1.00571 0
M  V30 3364 H 339.662 -1.8352 -2.52442 0
M  V30 3365 N 339.963 1.05934 -1.16686 0
M  V30 3366 C 340.91 2.13499 -0.876748 0
M  V30 3367 C 341.88 1.65162 0.176299 0
M  V30 3368 O 343.065 1.90757 0.0407143 0
M  V30 3369 C 340.205 3.42912 -0.387967 0
M  V30 3370 C 339.318 4.04964 -1.50426 0
M  V30 3371 C 338.453 5.22266 -0.970125 0
M  V30 3372 C 337.492 5.76309 -2.06238 0
M  V30 3373 N 336.629 6.84922 -1.54356 0
M  V30 3374 H 341.469 2.37654 -1.7979 0
M  V30 3375 H 339.006 1.16598 -0.896843 0
M  V30 3376 H 340.964 4.17111 -0.086186 0
M  V30 3377 H 339.594 3.18963 0.496235 0
M  V30 3378 H 338.646 3.28277 -1.92193 0
M  V30 3379 H 339.958 4.41122 -2.32836 0
M  V30 3380 H 339.112 6.03506 -0.621743 0
M  V30 3381 H 337.851 4.87564 -0.115377 0
M  V30 3382 H 336.856 4.93704 -2.41942 0
M  V30 3383 H 338.081 6.13062 -2.92115 0
M  V30 3384 H 336.027 6.52131 -0.711406 0
M  V30 3385 H 335.944 7.20043 -2.30379 0
M  V30 3386 H 337.212 7.69832 -1.22387 0
M  V30 3387 N 341.441 0.965919 1.2453 0
M  V30 3388 C 342.388 0.49402 2.25451 0
M  V30 3389 C 343.358 -0.45948 1.59618 0
M  V30 3390 O 344.543 -0.370238 1.87173 0
M  V30 3391 C 341.683 -0.211359 3.44452 0
M  V30 3392 C 340.796 0.7807 4.24887 0
M  V30 3393 C 339.931 0.0516105 5.31175 0
M  V30 3394 C 338.97 1.03385 6.03306 0
M  V30 3395 N 338.107 0.334887 7.01301 0
M  V30 3396 H 342.947 1.35946 2.65184 0
M  V30 3397 H 340.484 0.681515 1.3036 0
M  V30 3398 H 342.442 -0.637 4.12308 0
M  V30 3399 H 341.072 -1.04077 3.05562 0
M  V30 3400 H 340.124 1.32479 3.56586 0
M  V30 3401 H 341.436 1.52978 4.74762 0
M  V30 3402 H 340.59 -0.432114 6.05159 0
M  V30 3403 H 339.329 -0.730179 4.82203 0
M  V30 3404 H 338.334 1.52847 5.28127 0
M  V30 3405 H 339.559 1.81606 6.54367 0
M  V30 3406 H 337.505 -0.427959 6.54603 0
M  V30 3407 H 337.422 1.02287 7.49048 0
M  V30 3408 H 338.69 -0.126928 7.79397 0
M  V30 3409 N 342.919 -1.39368 0.735821 0
M  V30 3410 C 343.882 -2.2896 0.104874 0
M  V30 3411 C 344.882 -1.46347 -0.666274 0
M  V30 3412 O 346.072 -1.67014 -0.49517 0
M  V30 3413 C 343.204 -3.29857 -0.860656 0
M  V30 3414 H 344.397 -2.86259 0.894205 0
M  V30 3415 H 341.95 -1.48029 0.501704 0
M  V30 3416 H 342.685 -2.77615 -1.67631 0
M  V30 3417 H 342.47 -3.9087 -0.310327 0
M  V30 3418 H 343.96 -3.96893 -1.29867 0
M  V30 3419 N 344.397 -0.483516 -1.5 0
M  V30 3420 C 345.307 0.309172 -2.32554 0
M  V30 3421 C 346.323 0.984159 -1.43493 0
M  V30 3422 O 347.499 0.969399 -1.76535 0
M  V30 3423 C 344.564 1.36979 -3.18493 0
M  V30 3424 C 343.625 0.710095 -4.23387 0
M  V30 3425 C 342.858 1.72018 -5.05218 0
M  V30 3426 O 343.081 2.94813 -4.88305 0
M  V30 3427 O 342.015 1.28515 -5.8802 0
M  V30 3428 H 345.841 -0.366064 -3.01486 0
M  V30 3429 H 343.426 -0.24514 -1.47375 0
M  V30 3430 H 345.308 1.98385 -3.71781 0
M  V30 3431 H 343.983 2.02828 -2.52275 0
M  V30 3432 H 342.89 0.0567539 -3.74057 0
M  V30 3433 H 344.223 0.0943557 -4.9211 0
M  V30 3434 N 345.875 1.56104 -0.216619 0
M  V30 3435 C 346.807 2.17339 0.72776 0
M  V30 3436 C 347.82 1.14109 1.16116 0
M  V30 3437 O 349.009 1.4111 1.09317 0
M  V30 3438 C 346.109 2.73818 1.99693 0
M  V30 3439 C 345.282 4.02168 1.71988 0
M  V30 3440 C 344.341 4.43259 2.83562 0
M  V30 3441 O 343.367 5.10257 2.52244 0
M  V30 3442 N 344.569 4.08535 4.12407 0
M  V30 3443 H 347.334 2.99005 0.203983 0
M  V30 3444 H 344.895 1.61861 -0.0354289 0
M  V30 3445 H 346.887 2.9828 2.73516 0
M  V30 3446 H 345.457 1.96483 2.43132 0
M  V30 3447 H 344.677 3.85612 0.818337 0
M  V30 3448 H 345.965 4.85907 1.50903 0
M  V30 3449 H 345.363 3.54687 4.40696 0
M  V30 3450 H 343.92 4.37901 4.8279 0
M  V30 3451 N 347.353 -0.0568162 1.57498 0
M  V30 3452 C 348.599 -0.748893 1.89111 0
M  V30 3453 C 348.954 -1.74422 0.81208 0
M  V30 3454 O 348.247 -1.90731 -0.182247 0
M  V30 3455 C 348.441 -1.48359 3.25153 0
M  V30 3456 C 348.27 -0.560924 4.46188 0
M  V30 3457 C 347.04 -0.192264 5.04934 0
M  V30 3458 C 349.238 0.148824 5.14085 0
M  V30 3459 N 347.22 0.734555 6.0949 0
M  V30 3460 C 348.591 0.932286 6.12951 0
M  V30 3461 C 350.646 0.218713 4.97419 0
M  V30 3462 C 349.349 1.77917 6.96949 0
M  V30 3463 C 351.375 1.05262 5.81957 0
M  V30 3464 C 350.737 1.82409 6.80372 0
M  V30 3465 H 346.836 -0.249002 0.741298 0
M  V30 3466 H 349.42 -0.00984926 1.94698 0
M  V30 3467 H 347.591 -2.19326 3.20547 0
M  V30 3468 H 349.323 -2.12586 3.44368 0
M  V30 3469 H 346.078 -0.548421 4.70414 0
M  V30 3470 H 346.502 1.19165 6.6643 0
M  V30 3471 H 351.144 -0.363407 4.21235 0
M  V30 3472 H 348.862 2.3722 7.72497 0
M  V30 3473 H 352.448 1.10987 5.71116 0
M  V30 3474 H 351.328 2.45895 7.44651 0
M  V30 3475 N 348.832 -1.54138 -0.328536 0
M  V30 3476 C 349.795 -1.82462 -1.38709 0
M  V30 3477 C 350.795 -0.696229 -1.44946 0
M  V30 3478 O 351.985 -0.964535 -1.4506 0
M  V30 3479 C 349.117 -1.98018 -2.77492 0
M  V30 3480 H 350.31 -2.77037 -1.14851 0
M  V30 3481 H 347.863 -1.45779 -0.563751 0
M  V30 3482 H 348.598 -1.05637 -3.06613 0
M  V30 3483 H 348.383 -2.80124 -2.74359 0
M  V30 3484 H 349.873 -2.21396 -3.54081 0
M  V30 3485 N 350.31 0.590341 -1.46126 0
M  V30 3486 C 351.538 1.37504 -1.54597 0
M  V30 3487 C 351.953 1.87897 -0.184447 0
M  V30 3488 O 351.31 1.63192 0.816984 0
M  V30 3489 C 351.361 2.56779 -2.54454 0
M  V30 3490 O 351.082 2.08476 -3.85317 0
M  V30 3491 C 352.583 3.49427 -2.72792 0
M  V30 3492 H 349.803 0.420325 -0.523037 0
M  V30 3493 H 352.347 0.718383 -1.91467 0
M  V30 3494 H 350.502 3.1845 -2.20609 0
M  V30 3495 H 350.916 2.86097 -4.396 0
M  V30 3496 H 352.39 4.29619 -3.466 0
M  V30 3497 H 352.867 4.00876 -1.79429 0
M  V30 3498 H 353.473 2.93598 -3.07702 0
M  V30 3499 N 351.788 1.33704 0.83433 0
M  V30 3500 C 353.036 1.25169 1.58673 0
M  V30 3501 C 353.357 -0.18127 1.94156 0
M  V30 3502 O 352.627 -1.11113 1.6134 0
M  V30 3503 H 351.207 0.4603 0.58833 0
M  V30 3504 H 353.869 1.67478 0.996847 0
M  V30 3505 H 352.965 1.84856 2.51465 0
M  V30 3506 N 353.266 -1.05314 1.17247 0
M  V30 3507 C 354.196 -2.1498 0.911362 0
M  V30 3508 C 355.177 -1.69471 -0.146169 0
M  V30 3509 O 356.362 -1.942 0.003812 0
M  V30 3510 C 353.492 -3.4472 0.422528 0
M  V30 3511 C 352.446 -4.03789 1.4191 0
M  V30 3512 C 351.772 -5.28858 0.788274 0
M  V30 3513 C 353.072 -4.41418 2.7919 0
M  V30 3514 H 354.766 -2.3708 1.82848 0
M  V30 3515 H 352.312 -1.13938 0.880569 0
M  V30 3516 H 354.265 -4.20787 0.227289 0
M  V30 3517 H 352.989 -3.22269 -0.530123 0
M  V30 3518 H 351.648 -3.2979 1.60106 0
M  V30 3519 H 351.296 -5.02709 -0.171173 0
M  V30 3520 H 350.996 -5.69338 1.45353 0
M  V30 3521 H 352.52 -6.07612 0.603282 0
M  V30 3522 H 353.934 -5.08524 2.64719 0
M  V30 3523 H 352.331 -4.92913 3.42282 0
M  V30 3524 H 353.401 -3.51819 3.33693 0
M  V30 3525 N 354.744 -0.972509 -1.24016 0
M  V30 3526 C 355.691 -0.505969 -2.25186 0
M  V30 3527 C 356.661 0.451009 -1.5986 0
M  V30 3528 O 357.846 0.360307 -1.87367 0
M  V30 3529 C 354.986 0.193089 -3.44559 0
M  V30 3530 C 354.099 -0.803222 -4.24467 0
M  V30 3531 C 353.234 -0.0797793 -5.3114 0
M  V30 3532 C 352.273 -1.06583 -6.02749 0
M  V30 3533 N 351.41 -0.372074 -7.01113 0
M  V30 3534 H 356.25 -1.37351 -2.64459 0
M  V30 3535 H 353.787 -0.688419 -1.29997 0
M  V30 3536 H 355.745 0.615125 -4.1264 0
M  V30 3537 H 354.375 1.02455 -3.06109 0
M  V30 3538 H 353.427 -1.34368 -3.55878 0
M  V30 3539 H 354.739 -1.55494 -4.73944 0
M  V30 3540 H 353.893 0.400015 -6.0538 0
M  V30 3541 H 352.632 0.704597 -4.82583 0
M  V30 3542 H 351.637 -1.55645 -5.27309 0
M  V30 3543 H 352.862 -1.85074 -6.53395 0
M  V30 3544 H 350.808 0.393238 -6.5482 0
M  V30 3545 H 350.725 -1.06258 -7.48495 0
M  V30 3546 H 351.993 0.0855932 -7.79453 0
M  V30 3547 N 356.222 1.38976 -0.743202 0
M  V30 3548 C 357.452 2.04339 -0.304807 0
M  V30 3549 C 357.86 1.56162 1.06819 0
M  V30 3550 O 357.203 0.725284 1.68776 0
M  V30 3551 C 357.265 3.58716 -0.237369 0
M  V30 3552 C 356.929 4.29905 -1.55018 0
M  V30 3553 C 357.926 4.55987 -2.49744 0
M  V30 3554 C 355.611 4.68294 -1.81675 0
M  V30 3555 C 357.605 5.19478 -3.69353 0
M  V30 3556 C 355.292 5.31512 -3.0156 0
M  V30 3557 C 356.29 5.57037 -3.9522 0
M  V30 3558 O 355.978 6.18941 -5.12998 0
M  V30 3559 H 355.71 0.663439 -0.12971 0
M  V30 3560 H 358.264 1.78852 -1.01001 0
M  V30 3561 H 356.494 3.83133 0.524003 0
M  V30 3562 H 358.183 4.05543 0.170121 0
M  V30 3563 H 358.949 4.26767 -2.30423 0
M  V30 3564 H 354.828 4.47779 -1.09615 0
M  V30 3565 H 358.372 5.39318 -4.42473 0
M  V30 3566 H 354.269 5.60153 -3.20778 0
M  V30 3567 H 355.037 6.37433 -5.13441 0
M  V30 3568 N 357.7 0.491464 1.49741 0
M  V30 3569 C 358.977 -0.118984 1.95238 0
M  V30 3570 C 359.357 -1.55044 1.43264 0
M  V30 3571 O 358.705 -2.19287 0.642287 0
M  V30 3572 C 358.915 -0.0414187 3.48975 0
M  V30 3573 C 360.263 -0.220133 4.24029 0
M  V30 3574 O 361.287 -0.117055 3.56008 0
M  V30 3575 O 360.146 -0.430567 5.44801 0
M  V30 3576 H 357.24 -0.100536 0.820866 0
M  V30 3577 H 359.786 0.553322 1.60426 0
M  V30 3578 H 358.558 0.957214 3.79412 0
M  V30 3579 H 358.181 -0.754292 3.9038 0
M  V30 3580 N 359.178 -1.55987 0.224894 0
M  V30 3581 C 360.141 -2.19178 -0.670348 0
M  V30 3582 C 361.141 -1.15461 -1.11917 0
M  V30 3583 O 362.331 -1.40675 -1.02743 0
M  V30 3584 C 359.463 -2.81777 -1.9187 0
M  V30 3585 H 360.656 -2.99662 -0.119364 0
M  V30 3586 H 358.209 -1.5628 -0.0247128 0
M  V30 3587 H 358.944 -2.05172 -2.51147 0
M  V30 3588 H 358.729 -3.57732 -1.60531 0
M  V30 3589 H 360.219 -3.30205 -2.55645 0
M  V30 3590 N 360.656 0.0484629 -1.57525 0
M  V30 3591 C 361.604 1.07359 -2.06341 0
M  V30 3592 C 362.598 1.3865 -0.973269 0
M  V30 3593 O 363.804 1.37783 -1.15827 0
M  V30 3594 H 360.179 0.363662 -0.65822 0
M  V30 3595 H 362.15 0.635916 -2.91545 0
M  V30 3596 C 360.899 2.37198 -2.54229 0
M  V30 3597 H 360.222 2.13977 -3.37719 0
M  V30 3598 H 361.662 3.07319 -2.92115 0
M  V30 3599 C 360.121 3.04805 -1.43511 0
M  V30 3600 O 360.651 3.93848 -0.79034 0
M  V30 3601 N 358.857 2.65811 -1.17444 0
M  V30 3602 H 358.404 1.93488 -1.70059 0
M  V30 3603 H 358.362 3.11366 -0.435737 0
M  V30 3604 N 362.134 1.5431 0.320358 0
M  V30 3605 C 363.082 1.84647 1.4145 0
M  V30 3606 C 364.076 0.718624 1.53402 0
M  V30 3607 O 365.282 0.902335 1.5575 0
M  V30 3608 H 361.657 0.585349 0.472091 0
M  V30 3609 H 363.628 2.7614 1.13089 0
M  V30 3610 C 362.377 2.09341 2.77617 0
M  V30 3611 H 361.7 2.9559 2.69196 0
M  V30 3612 H 363.14 2.3452 3.53237 0
M  V30 3613 C 361.599 0.885939 3.25043 0
M  V30 3614 O 362.129 0.0967891 4.01583 0
M  V30 3615 N 360.335 0.696682 2.82125 0
M  V30 3616 H 359.882 1.34006 2.2 0
M  V30 3617 H 359.84 -0.109712 3.14209 0
M  V30 3618 N 363.613 -0.582584 1.46437 0
M  V30 3619 C 364.862 -1.337 1.5102 0
M  V30 3620 C 365.175 -1.94891 0.166359 0
M  V30 3621 O 366.381 -2.71351 0.0899954 0
M  V30 3622 C 364.837 -2.42315 2.66104 0
M  V30 3623 C 364.445 -1.87427 4.06909 0
M  V30 3624 C 366.189 -3.19099 2.79958 0
M  V30 3625 C 364.096 -2.93672 5.13333 0
M  V30 3626 H 363.026 -0.502619 0.562041 0
M  V30 3627 H 365.677 -0.621701 1.72647 0
M  V30 3628 H 364.059 -3.16645 2.37807 0
M  V30 3629 H 365.233 -1.19639 4.44998 0
M  V30 3630 H 363.548 -1.2331 3.97723 0
M  V30 3631 H 366.145 -3.9839 3.56636 0
M  V30 3632 H 366.488 -3.71695 1.87479 0
M  V30 3633 H 367.021 -2.51875 3.07902 0
M  V30 3634 H 363.76 -2.45962 6.07604 0
M  V30 3635 H 363.28 -3.59948 4.79789 0
M  V30 3636 H 364.959 -3.5762 5.39182 0
M  V30 3637 N 365.091 -1.34144 -0.827227 0
M  V30 3638 C 366.321 -1.29138 -1.61267 0
M  V30 3639 C 366.729 0.137597 -1.88699 0
M  V30 3640 O 366.072 1.09379 -1.47587 0
M  V30 3641 C 366.134 -2.0097 -2.9808 0
M  V30 3642 C 365.798 -3.50242 -2.93563 0
M  V30 3643 C 366.795 -4.4523 -2.68452 0
M  V30 3644 C 364.48 -3.92592 -3.13331 0
M  V30 3645 C 366.474 -5.80542 -2.63154 0
M  V30 3646 C 364.161 -5.28005 -3.07658 0
M  V30 3647 C 365.159 -6.21792 -2.82602 0
M  V30 3648 O 364.847 -7.54723 -2.76853 0
M  V30 3649 H 364.579 -0.445851 -0.508127 0
M  V30 3650 H 367.133 -1.77263 -1.03763 0
M  V30 3651 H 365.363 -1.47451 -3.57484 0
M  V30 3652 H 367.052 -1.89309 -3.5905 0
M  V30 3653 H 367.818 -4.13832 -2.52919 0
M  V30 3654 H 363.697 -3.19994 -3.31851 0
M  V30 3655 H 367.241 -6.53717 -2.43516 0
M  V30 3656 H 363.138 -5.59023 -3.22743 0
M  V30 3657 H 363.906 -7.64409 -2.92611 0
M  V30 3658 N 366.569 1.04691 -1.17803 0
M  V30 3659 C 367.499 2.14494 -0.92275 0
M  V30 3660 C 368.48 1.69546 0.137179 0
M  V30 3661 O 369.665 1.94195 -0.0141108 0
M  V30 3662 C 366.795 3.44491 -0.440803 0
M  V30 3663 C 365.749 4.03031 -1.4405 0
M  V30 3664 C 365.075 5.28432 -0.81631 0
M  V30 3665 C 366.375 4.39932 -2.81527 0
M  V30 3666 H 368.069 2.36107 -1.84103 0
M  V30 3667 H 365.615 1.1347 -0.886599 0
M  V30 3668 H 367.568 4.2066 -0.249602 0
M  V30 3669 H 366.292 3.22546 0.513025 0
M  V30 3670 H 364.951 3.28937 -1.61853 0
M  V30 3671 H 364.599 5.02792 0.144511 0
M  V30 3672 H 364.299 5.68559 -1.48371 0
M  V30 3673 H 365.823 6.07284 -0.635496 0
M  V30 3674 H 367.237 5.07113 -2.67412 0
M  V30 3675 H 365.634 4.9109 -3.44892 0
M  V30 3676 H 366.704 3.50045 -3.35554 0
M  V30 3677 N 368.047 0.979072 1.23499 0
M  V30 3678 C 369.01 0.523244 2.23147 0
M  V30 3679 C 370.01 -0.386406 1.56088 0
M  V30 3680 O 371.2 -0.180283 1.73265 0
M  V30 3681 C 368.332 -0.240739 3.40049 0
M  V30 3682 H 369.525 1.40432 2.64989 0
M  V30 3683 H 367.078 0.764824 1.36309 0
M  V30 3684 H 367.813 -1.13841 3.03662 0
M  V30 3685 H 367.598 0.412207 3.89927 0
M  V30 3686 H 369.088 -0.548297 4.13985 0
M  V30 3687 N 369.525 -1.3858 0.750561 0
M  V30 3688 C 370.488 -2.28836 0.129152 0
M  V30 3689 C 371.488 -1.47045 -0.650714 0
M  V30 3690 O 372.678 -1.6753 -0.477428 0
M  V30 3691 C 369.81 -3.30751 -0.825622 0
M  V30 3692 H 371.003 -2.85294 0.924516 0
M  V30 3693 H 368.556 -1.47489 0.517376 0
M  V30 3694 H 369.291 -2.79378 -1.64677 0
M  V30 3695 H 369.076 -3.91177 -0.268852 0
M  V30 3696 H 370.566 -3.98249 -1.2565 0
M  V30 3697 N 371.003 -0.499398 -1.49478 0
M  V30 3698 C 371.951 0.293604 -2.3074 0
M  V30 3699 C 372.945 0.96427 -1.39277 0
M  V30 3700 O 374.151 0.892141 -1.56336 0
M  V30 3701 H 370.526 0.113541 -0.743379 0
M  V30 3702 H 372.497 -0.411772 -2.95545 0
M  V30 3703 C 371.246 1.3462 -3.20582 0
M  V30 3704 H 370.569 0.83954 -3.90886 0
M  V30 3705 H 372.009 1.87308 -3.80384 0
M  V30 3706 C 370.468 2.36351 -2.40083 0
M  V30 3707 O 370.998 3.422 -2.10385 0
M  V30 3708 N 369.204 2.0878 -2.02137 0
M  V30 3709 H 368.751 1.22723 -2.26488 0
M  V30 3710 H 368.709 2.77075 -1.48583 0
M  V30 3711 N 372.481 1.55866 -0.233164 0
M  V30 3712 C 373.711 2.02704 0.399325 0
M  V30 3713 C 374.119 1.11204 1.53069 0
M  V30 3714 O 373.462 0.116182 1.83332 0
M  V30 3715 C 373.524 3.45844 0.981429 0
M  V30 3716 C 373.188 4.56997 -0.0159561 0
M  V30 3717 C 374.185 5.13384 -0.820552 0
M  V30 3718 C 371.87 5.0211 -0.138072 0
M  V30 3719 C 373.864 6.13365 -1.73386 0
M  V30 3720 C 371.551 6.01926 -1.0549 0
M  V30 3721 C 372.549 6.57431 -1.85132 0
M  V30 3722 O 372.237 7.55302 -2.75272 0
M  V30 3723 H 371.969 0.668459 0.100692 0
M  V30 3724 H 374.523 2.02387 -0.35052 0
M  V30 3725 H 372.753 3.43267 1.78058 0
M  V30 3726 H 374.442 3.76262 1.52255 0
M  V30 3727 H 375.208 4.79372 -0.736721 0
M  V30 3728 H 371.087 4.5858 0.471737 0
M  V30 3729 H 374.631 6.56614 -2.35592 0
M  V30 3730 H 370.528 6.35359 -1.1397 0
M  V30 3731 H 371.296 7.72867 -2.69477 0
M  V30 3732 N 373.959 -0.0401083 1.57549 0
M  V30 3733 C 375.207 -0.731677 1.8839 0
M  V30 3734 C 375.528 -1.76481 0.829425 0
M  V30 3735 O 374.798 -1.95411 -0.1383 0
M  V30 3736 H 373.378 -0.273225 0.695239 0
M  V30 3737 H 376.04 -0.00867725 1.94898 0
M  V30 3738 H 375.136 -1.22816 2.86919 0
M  V30 3739 N 375.437 -1.54477 -0.31217 0
M  V30 3740 C 376.347 -1.87695 -1.4074 0
M  V30 3741 C 377.363 -0.769975 -1.56036 0
M  V30 3742 O 378.539 -1.06537 -1.70915 0
M  V30 3743 C 375.604 -2.10755 -2.75287 0
M  V30 3744 C 374.665 -3.34514 -2.69071 0
M  V30 3745 C 373.898 -3.56465 -3.97201 0
M  V30 3746 O 374.121 -2.81637 -4.96021 0
M  V30 3747 O 373.055 -4.49964 -3.9977 0
M  V30 3748 H 376.881 -2.80849 -1.15574 0
M  V30 3749 H 374.466 -1.40526 -0.507228 0
M  V30 3750 H 376.348 -2.27188 -3.54913 0
M  V30 3751 H 375.023 -1.20788 -3.0032 0
M  V30 3752 H 373.93 -3.23456 -1.87955 0
M  V30 3753 H 375.263 -4.24575 -2.48992 0
M  V30 3754 N 376.915 0.57481 -1.46744 0
M  V30 3755 C 378.143 1.35856 -1.56047 0
M  V30 3756 C 378.558 1.87691 -0.204365 0
M  V30 3757 O 377.915 1.64049 0.79963 0
M  V30 3758 C 377.966 2.54066 -2.57163 0
M  V30 3759 O 377.687 2.04377 -3.87507 0
M  V30 3760 C 379.188 3.46514 -2.76483 0
M  V30 3761 H 376.408 0.414754 -0.527466 0
M  V30 3762 H 378.952 0.698035 -1.92218 0
M  V30 3763 H 377.107 3.16092 -2.23974 0
M  V30 3764 H 377.521 2.81419 -4.4261 0
M  V30 3765 H 378.995 4.25919 -3.51137 0
M  V30 3766 H 379.472 3.98951 -1.83671 0
M  V30 3767 H 380.078 2.90318 -3.10799 0
M  V30 3768 N 378.394 1.34581 0.820102 0
M  V30 3769 C 379.81 1.14325 1.11364 0
M  V30 3770 C 380.01 -0.0533648 2.01429 0
M  V30 3771 O 379.066 -0.728044 2.41776 0
M  V30 3772 C 380.379 2.43983 1.75764 0
M  V30 3773 C 381.927 2.50065 1.88246 0
M  V30 3774 C 382.402 3.79732 2.56061 0
M  V30 3775 N 383.893 3.80908 2.63558 0
M  V30 3776 C 384.628 4.77961 3.16766 0
M  V30 3777 N 384.124 5.85397 3.70517 0
M  V30 3778 N 385.917 4.65413 3.15194 0
M  V30 3779 H 378.068 2.11246 0.221096 0
M  V30 3780 H 380.331 0.934289 0.160649 0
M  V30 3781 H 380.037 3.31651 1.1705 0
M  V30 3782 H 379.911 2.57531 2.75604 0
M  V30 3783 H 382.298 1.62834 2.46108 0
M  V30 3784 H 382.379 2.40442 0.873006 0
M  V30 3785 H 382.023 4.67354 1.98853 0
M  V30 3786 H 381.953 3.86639 3.57516 0
M  V30 3787 H 384.444 3.03274 2.25463 0
M  V30 3788 H 384.757 6.55463 4.09376 0
M  V30 3789 H 383.102 5.89107 3.68752 0
M  V30 3790 H 386.293 3.80627 2.72471 0
M  V30 3791 H 386.466 5.41216 3.56356 0
M  V30 3792 N 379.872 -1.04064 1.18357 0
M  V30 3793 C 380.82 -2.14187 0.907007 0
M  V30 3794 C 381.814 -1.68879 -0.132725 0
M  V30 3795 O 383.02 -1.79993 0.0154248 0
M  V30 3796 H 379.395 -0.699585 0.275835 0
M  V30 3797 H 381.366 -2.34711 1.84264 0
M  V30 3798 C 380.115 -3.44785 0.449254 0
M  V30 3799 H 379.438 -3.80058 1.24081 0
M  V30 3800 H 380.878 -4.22974 0.294737 0
M  V30 3801 C 379.337 -3.26391 -0.834909 0
M  V30 3802 O 379.867 -3.53973 -1.89911 0
M  V30 3803 N 378.073 -2.79726 -0.787523 0
M  V30 3804 H 377.62 -2.5748 0.0787347 0
M  V30 3805 H 377.578 -2.67798 -1.64716 0
M  V30 3806 N 381.35 -0.985608 -1.22978 0
M  V30 3807 C 382.313 -0.535071 -2.22867 0
M  V30 3808 C 383.313 0.378123 -1.56291 0
M  V30 3809 O 384.503 0.171092 -1.73358 0
M  V30 3810 C 381.635 0.222702 -3.40172 0
M  V30 3811 H 382.828 -1.41835 -2.6424 0
M  V30 3812 H 380.381 -0.772042 -1.35901 0
M  V30 3813 H 381.116 1.12229 -3.04262 0
M  V30 3814 H 380.901 -0.43288 -3.89703 0
M  V30 3815 H 382.391 0.526335 -4.1427 0
M  V30 3816 N 382.828 1.3818 -0.7579 0
M  V30 3817 C 384.056 2.04301 -0.326937 0
M  V30 3818 C 384.471 1.57163 1.0462 0
M  V30 3819 O 383.828 0.746626 1.66529 0
M  V30 3820 C 383.879 3.59846 -0.345363 0
M  V30 3821 O 383.6 4.05256 -1.66432 0
M  V30 3822 C 385.101 4.4319 0.098927 0
M  V30 3823 H 382.321 0.656443 -0.139012 0
M  V30 3824 H 384.865 1.76786 -1.02796 0
M  V30 3825 H 383.02 3.86182 0.306955 0
M  V30 3826 H 383.434 4.99709 -1.59345 0
M  V30 3827 H 384.908 5.51989 0.0348745 0
M  V30 3828 H 385.385 4.23947 1.14741 0
M  V30 3829 H 385.991 4.22051 -0.52468 0
M  V30 3830 N 384.306 0.507319 1.49211 0
M  V30 3831 C 385.717 0.0611118 1.866 0
M  V30 3832 C 386.068 -1.35488 1.41907 0
M  V30 3833 O 385.193 -2.0108 0.799726 0
M  V30 3834 C 385.788 0.104125 3.3864 0
M  V30 3835 C 384.347 -0.28677 3.75306 0
M  V30 3836 C 383.494 0.473893 2.73221 0
M  V30 3837 H 386.445 0.719775 1.41439 0
M  V30 3838 H 386.466 -0.689672 3.74198 0
M  V30 3839 H 385.978 1.13482 3.71138 0
M  V30 3840 H 384.079 -1.32046 3.48417 0
M  V30 3841 H 384.192 0.0370745 4.79086 0
M  V30 3842 H 382.556 -0.0770644 2.54583 0
M  V30 3843 H 383.339 1.50478 3.08563 0
M  V30 3844 N 385.784 -1.5574 0.241426 0
M  V30 3845 C 387.033 -1.97986 -0.385295 0
M  V30 3846 C 387.346 -1.13267 -1.59468 0
M  V30 3847 O 388.552 -1.45501 -2.2922 0
M  V30 3848 C 387.008 -3.52275 -0.736884 0
M  V30 3849 C 386.616 -4.45726 0.450796 0
M  V30 3850 C 388.36 -4.03189 -1.3281 0
M  V30 3851 C 386.267 -5.91352 0.0756662 0
M  V30 3852 H 385.197 -0.739386 -0.147731 0
M  V30 3853 H 387.848 -1.80308 0.340779 0
M  V30 3854 H 386.23 -3.65628 -1.52094 0
M  V30 3855 H 387.404 -4.44131 1.22819 0
M  V30 3856 H 385.719 -4.05264 0.956573 0
M  V30 3857 H 388.316 -5.09505 -1.62201 0
M  V30 3858 H 388.659 -3.50212 -2.25071 0
M  V30 3859 H 389.192 -3.93141 -0.607069 0
M  V30 3860 H 385.931 -6.48354 0.965272 0
M  V30 3861 H 385.451 -5.96095 -0.665635 0
M  V30 3862 H 387.13 -6.46084 -0.344075 0
M  V30 3863 N 387.262 0.0317525 -1.57568 0
M  V30 3864 C 388.49 0.734949 -1.93407 0
M  V30 3865 C 388.905 1.69036 -0.84096 0
M  V30 3866 O 388.262 1.81582 0.182836 0
M  V30 3867 C 388.313 1.49432 -3.29169 0
M  V30 3868 O 388.034 0.577261 -4.3428 0
M  V30 3869 C 389.535 2.29492 -3.79273 0
M  V30 3870 H 386.755 0.206706 -0.638368 0
M  V30 3871 H 389.299 -0.00992046 -2.04498 0
M  V30 3872 H 387.454 2.1911 -3.19483 0
M  V30 3873 H 387.868 1.10952 -5.1263 0
M  V30 3874 H 389.342 2.78172 -4.76785 0
M  V30 3875 H 389.819 3.10794 -3.10328 0
M  V30 3876 H 390.425 1.64894 -3.92033 0
M  V30 3877 N 388.74 1.54641 0.303973 0
M  V30 3878 C 389.688 1.86137 1.39484 0
M  V30 3879 C 390.682 0.734854 1.52631 0
M  V30 3880 O 391.888 0.918803 1.54784 0
M  V30 3881 H 388.263 0.590324 0.465856 0
M  V30 3882 H 390.234 2.77324 1.10154 0
M  V30 3883 C 388.983 2.12274 2.75382 0
M  V30 3884 H 388.306 2.98429 2.66046 0
M  V30 3885 H 389.746 2.38254 3.5073 0
M  V30 3886 C 388.205 0.920365 3.24085 0
M  V30 3887 O 388.735 0.139377 4.01458 0
M  V30 3888 N 386.941 0.726566 2.81371 0
M  V30 3889 H 386.488 1.36332 2.18567 0
M  V30 3890 H 386.446 -0.0763799 3.14307 0
M  V30 3891 N 390.218 -0.567019 1.47046 0
M  V30 3892 C 391.165 -1.67489 1.58796 0
M  V30 3893 C 392.135 -1.60399 0.43144 0
M  V30 3894 O 393.32 -1.79378 0.650233 0
M  V30 3895 C 390.46 -3.05821 1.59899 0
M  V30 3896 C 389.573 -3.2342 2.86397 0
M  V30 3897 C 388.708 -4.52093 2.789 0
M  V30 3898 C 387.747 -4.6309 4.00267 0
M  V30 3899 N 386.884 -5.83106 3.91064 0
M  V30 3900 H 391.724 -1.56785 2.53422 0
M  V30 3901 H 389.261 -0.763896 1.2571 0
M  V30 3902 H 391.219 -3.8591 1.58522 0
M  V30 3903 H 389.849 -3.15384 0.687929 0
M  V30 3904 H 388.901 -2.3683 2.97684 0
M  V30 3905 H 390.213 -3.27412 3.76301 0
M  V30 3906 H 389.367 -5.4043 2.75718 0
M  V30 3907 H 388.106 -4.50565 1.86662 0
M  V30 3908 H 387.111 -3.73168 4.03765 0
M  V30 3909 H 388.336 -4.66386 4.93621 0
M  V30 3910 H 386.282 -5.82546 3.01623 0
M  V30 3911 H 386.199 -5.88434 4.74638 0
M  V30 3912 H 387.467 -6.73831 3.91882 0
M  V30 3913 N 391.696 -1.35014 -0.812953 0
M  V30 3914 C 392.943 -1.27931 -1.56971 0
M  V30 3915 C 393.271 0.148034 -1.93936 0
M  V30 3916 O 392.526 1.11175 -1.61054 0
M  V30 3917 C 392.825 -2.12524 -2.87347 0
M  V30 3918 C 392.491 -3.61401 -2.6963 0
M  V30 3919 C 391.153 -4.01983 -2.64506 0
M  V30 3920 C 393.505 -4.55894 -2.52607 0
M  V30 3921 C 390.833 -5.35235 -2.40293 0
M  V30 3922 C 393.185 -5.89336 -2.29925 0
M  V30 3923 C 391.849 -6.2907 -2.23219 0
M  V30 3924 H 391.119 -0.468131 -0.574399 0
M  V30 3925 H 393.766 -1.66851 -0.939836 0
M  V30 3926 H 392.071 -1.66463 -3.54679 0
M  V30 3927 H 393.768 -2.04383 -3.45005 0
M  V30 3928 H 390.358 -3.29193 -2.74463 0
M  V30 3929 H 394.542 -4.25431 -2.55583 0
M  V30 3930 H 389.798 -5.65028 -2.33566 0
M  V30 3931 H 393.972 -6.62139 -2.15743 0
M  V30 3932 H 391.599 -7.32256 -2.04219 0
M  V30 3933 N 393.175 1.03435 -1.18907 0
M  V30 3934 C 394.403 1.80381 -1.01342 0
M  V30 3935 C 394.818 1.83649 0.438005 0
M  V30 3936 O 394.175 1.27655 1.30424 0
M  V30 3937 C 394.226 3.25689 -1.56873 0
M  V30 3938 O 393.947 3.22673 -2.96334 0
M  V30 3939 C 395.448 4.19255 -1.44014 0
M  V30 3940 H 392.668 0.56784 -0.35749 0
M  V30 3941 H 395.212 1.30317 -1.576 0
M  V30 3942 H 393.367 3.72962 -1.04777 0
M  V30 3943 H 393.781 4.13748 -3.22355 0
M  V30 3944 H 395.255 5.19123 -1.87657 0
M  V30 3945 H 395.732 4.37467 -0.389815 0
M  V30 3946 H 396.338 3.77851 -1.95214 0
M  V30 3947 N 394.653 0.992116 1.22453 0
M  V30 3948 C 395.601 0.534644 2.26372 0
M  V30 3949 C 396.595 -0.414293 1.64256 0
M  V30 3950 O 397.801 -0.286899 1.77699 0
M  V30 3951 H 394.176 0.154502 0.735957 0
M  V30 3952 H 396.147 1.42256 2.62309 0
M  V30 3953 C 394.896 -0.135815 3.47435 0
M  V30 3954 H 394.219 0.585311 3.95492 0
M  V30 3955 H 395.659 -0.419374 4.21921 0
M  V30 3956 C 394.118 -1.37089 3.07747 0
M  V30 3957 O 394.648 -2.46629 3.17076 0
M  V30 3958 N 392.854 -1.24585 2.62539 0
M  V30 3959 H 392.401 -0.354542 2.55149 0
M  V30 3960 H 392.359 -2.07327 2.36353 0
M  V30 3961 N 396.131 -1.37776 0.765217 0
M  V30 3962 C 397.359 -2.04124 0.337767 0
M  V30 3963 C 397.774 -1.57715 -1.03785 0
M  V30 3964 O 397.131 -0.755447 -1.6613 0
M  V30 3965 C 397.182 -3.59658 0.364442 0
M  V30 3966 O 396.903 -4.04367 1.68579 0
M  V30 3967 C 398.404 -4.43236 -0.0754221 0
M  V30 3968 H 395.624 -0.655696 0.142491 0
M  V30 3969 H 398.168 -1.76238 1.03732 0
M  V30 3970 H 396.323 -3.86339 -0.286471 0
M  V30 3971 H 396.737 -4.98857 1.61993 0
M  V30 3972 H 398.211 -5.52 -0.00560067 0
M  V30 3973 H 398.688 -4.2455 -1.12491 0
M  V30 3974 H 399.294 -4.21767 0.547055 0
M  V30 3975 N 397.609 -0.515225 -1.4894 0
M  V30 3976 C 398.834 0.022727 -2.07388 0
M  V30 3977 C 399.259 1.2876 -1.37122 0
M  V30 3978 O 398.617 1.76067 -0.432431 0
M  V30 3979 C 398.665 0.244869 -3.59768 0
M  V30 3980 O 397.769 1.31667 -3.90817 0
M  V30 3981 H 397.11 -0.0325506 -0.663202 0
M  V30 3982 H 399.64 -0.718918 -1.91553 0
M  V30 3983 H 399.65 0.47205 -4.0526 0
M  V30 3984 H 398.325 -0.679194 -4.10317 0
M  V30 3985 H 396.902 1.07331 -3.5712 0
M  V30 3986 N 399.087 1.5561 -0.249682 0
M  V30 3987 C 400.335 1.98618 0.373548 0
M  V30 3988 C 400.656 1.13919 1.58264 0
M  V30 3989 O 399.926 0.222637 1.94631 0
M  V30 3990 H 398.506 0.733571 0.141006 0
M  V30 3991 H 401.168 1.91748 -0.349117 0
M  V30 3992 H 400.264 3.04584 0.680796 0
M  V30 3993 N 400.565 -0.0233959 1.57583 0
M  V30 3994 C 401.812 -0.713063 1.8953 0
M  V30 3995 C 402.14 -1.75056 0.847673 0
M  V30 3996 O 401.395 -1.95119 -0.150636 0
M  V30 3997 C 401.694 -1.41428 3.28227 0
M  V30 3998 C 401.36 -0.512222 4.47981 0
M  V30 3999 C 400.022 -0.263785 4.80476 0
M  V30 4000 C 402.374 0.110248 5.21083 0
M  V30 4001 C 399.702 0.615804 5.83459 0
M  V30 4002 C 402.054 0.977573 6.25001 0
M  V30 4003 C 400.718 1.23542 6.55968 0
M  V30 4004 H 399.988 -0.260928 0.69354 0
M  V30 4005 H 402.635 0.0271047 1.91481 0
M  V30 4006 H 400.94 -2.22791 3.22291 0
M  V30 4007 H 402.637 -1.95355 3.50196 0
M  V30 4008 H 399.227 -0.716013 4.22577 0
M  V30 4009 H 403.411 -0.0687137 4.96252 0
M  V30 4010 H 398.667 0.82382 6.05824 0
M  V30 4011 H 402.841 1.46638 6.80786 0
M  V30 4012 H 400.468 1.91871 7.35588 0
M  V30 4013 N 402.043 -1.548 -0.295768 0
M  V30 4014 C 403.006 -1.85363 -1.34808 0
M  V30 4015 C 404.006 -0.726817 -1.43436 0
M  V30 4016 O 405.196 -0.995088 -1.42981 0
M  V30 4017 C 402.328 -2.03859 -2.73229 0
M  V30 4018 H 403.521 -2.7941 -1.08949 0
M  V30 4019 H 401.074 -1.46942 -0.532702 0
M  V30 4020 H 401.809 -1.12117 -3.04303 0
M  V30 4021 H 401.594 -2.8588 -2.68356 0
M  V30 4022 H 403.084 -2.28857 -3.49305 0
M  V30 4023 N 403.521 0.559213 -1.47345 0
M  V30 4024 C 404.469 1.68747 -1.60085 0
M  V30 4025 C 405.463 1.628 -0.46825 0
M  V30 4026 O 406.669 1.68009 -0.645977 0
M  V30 4027 H 403.044 0.558329 -0.503759 0
M  V30 4028 H 405.015 1.55138 -2.54902 0
M  V30 4029 C 403.764 3.07103 -1.63042 0
M  V30 4030 H 403.087 3.12361 -2.49541 0
M  V30 4031 H 404.527 3.85743 -1.76006 0
M  V30 4032 C 402.986 3.34935 -0.363357 0
M  V30 4033 O 403.516 3.98102 0.536416 0
M  V30 4034 N 401.722 2.89574 -0.244 0
M  V30 4035 H 401.269 2.38348 -0.977133 0
M  V30 4036 H 401.227 3.08566 0.602836 0
M  V30 4037 N 404.999 1.35443 0.805782 0
M  V30 4038 C 405.946 1.28431 1.91766 0
M  V30 4039 C 406.916 0.156102 1.65365 0
M  V30 4040 O 408.101 0.339936 1.87747 0
M  V30 4041 C 405.241 1.06301 3.2832 0
M  V30 4042 C 404.354 2.2805 3.66902 0
M  V30 4043 C 403.489 1.99064 4.92491 0
M  V30 4044 C 402.528 3.16863 5.23703 0
M  V30 4045 N 401.665 2.87647 6.40471 0
M  V30 4046 H 406.505 2.23511 1.97096 0
M  V30 4047 H 404.042 1.11105 0.964054 0
M  V30 4048 H 406 0.915012 4.07042 0
M  V30 4049 H 404.63 0.148822 3.22457 0
M  V30 4050 H 403.682 2.53711 2.83434 0
M  V30 4051 H 404.994 3.1601 3.85927 0
M  V30 4052 H 404.148 1.81099 5.7904 0
M  V30 4053 H 402.887 1.0839 4.75503 0
M  V30 4054 H 401.892 3.35404 4.35642 0
M  V30 4055 H 403.117 4.08339 5.4262 0
M  V30 4056 H 401.063 1.99568 6.24907 0
M  V30 4057 H 400.98 3.69141 6.59751 0
M  V30 4058 H 402.248 2.73226 7.30047 0
M  V30 4059 N 406.477 -1.02803 1.19454 0
M  V30 4060 C 407.705 -1.79841 1.02297 0
M  V30 4061 C 408.12 -1.83879 -0.428259 0
M  V30 4062 O 407.477 -1.28345 -1.29745 0
M  V30 4063 C 407.528 -3.24852 1.58598 0
M  V30 4064 O 407.249 -3.21097 2.98041 0
M  V30 4065 C 408.75 -4.18485 1.46236 0
M  V30 4066 H 405.97 -0.565936 0.360496 0
M  V30 4067 H 408.514 -1.2948 1.58288 0
M  V30 4068 H 406.669 -3.72401 1.06753 0
M  V30 4069 H 407.083 -4.12033 3.24545 0
M  V30 4070 H 408.557 -5.18121 1.90407 0
M  V30 4071 H 409.034 -4.37254 0.41301 0
M  V30 4072 H 409.64 -3.76811 1.97215 0
M  V30 4073 N 407.956 -0.998596 -1.21925 0
M  V30 4074 C 408.888 -0.511879 -2.23411 0
M  V30 4075 C 409.901 0.396094 -1.57908 0
M  V30 4076 O 411.09 0.197316 -1.77406 0
M  V30 4077 C 408.19 0.276802 -3.37768 0
M  V30 4078 C 407.363 -0.628687 -4.32858 0
M  V30 4079 C 406.422 0.109272 -5.26087 0
M  V30 4080 O 405.448 -0.507237 -5.66935 0
M  V30 4081 N 406.65 1.38983 -5.63617 0
M  V30 4082 H 409.415 -1.38457 -2.658 0
M  V30 4083 H 406.976 -0.873981 -1.36283 0
M  V30 4084 H 408.968 0.77928 -3.97126 0
M  V30 4085 H 407.538 1.05063 -2.94415 0
M  V30 4086 H 406.758 -1.31175 -3.71735 0
M  V30 4087 H 408.046 -1.24514 -4.93329 0
M  V30 4088 H 407.444 1.91194 -5.32411 0
M  V30 4089 H 406.001 1.83739 -6.25367 0
M  V30 4090 N 409.434 1.37368 -0.772513 0
M  V30 4091 C 410.711 1.93839 -0.26188 0
M  V30 4092 C 411.091 1.7061 1.24319 0
M  V30 4093 O 410.439 1.05534 2.02669 0
M  V30 4094 C 410.649 3.43154 -0.636102 0
M  V30 4095 C 411.997 4.20249 -0.606324 0
M  V30 4096 O 413.021 3.5152 -0.575538 0
M  V30 4097 O 411.88 5.42809 -0.634086 0
M  V30 4098 H 408.974 0.82478 -0.0605555 0
M  V30 4099 H 411.52 1.4665 -0.853917 0
M  V30 4100 H 410.292 3.53647 -1.6748 0
M  V30 4101 H 409.915 3.97596 -0.0170516 0
M  V30 4102 N 410.912 0.523116 1.48665 0
M  V30 4103 C 412.158 -0.0134963 2.02796 0
M  V30 4104 C 412.491 -1.34582 1.40004 0
M  V30 4105 O 411.766 -1.86756 0.543381 0
M  V30 4106 C 412.049 -0.14276 3.59817 0
M  V30 4107 C 411.902 1.21425 4.331 0
M  V30 4108 C 413.221 -0.872856 4.31357 0
M  V30 4109 H 410.34 -0.00343074 0.736992 0
M  V30 4110 H 412.982 0.678816 1.7746 0
M  V30 4111 H 411.132 -0.732401 3.81534 0
M  V30 4112 H 412.804 1.84447 4.2282 0
M  V30 4113 H 411.047 1.79791 3.94788 0
M  V30 4114 H 411.718 1.07687 5.41394 0
M  V30 4115 H 414.194 -0.372555 4.14429 0
M  V30 4116 H 413.07 -0.932185 5.40927 0
M  V30 4117 H 413.331 -1.92161 3.98154 0
M  V30 4118 N 412.39 -1.55475 0.257931 0
M  V30 4119 C 413.32 -2.24815 -0.630912 0
M  V30 4120 C 414.301 -1.23224 -1.17259 0
M  V30 4121 O 415.486 -1.51904 -1.20991 0
M  V30 4122 C 412.616 -2.95609 -1.82298 0
M  V30 4123 C 411.57 -4.03982 -1.41359 0
M  V30 4124 C 410.896 -4.6226 -2.68738 0
M  V30 4125 C 412.196 -5.19109 -0.57648 0
M  V30 4126 H 413.89 -2.99354 -0.0526878 0
M  V30 4127 H 411.436 -1.4398 -0.023901 0
M  V30 4128 H 413.389 -3.42822 -2.45054 0
M  V30 4129 H 412.113 -2.18577 -2.42676 0
M  V30 4130 H 410.772 -3.57555 -0.809324 0
M  V30 4131 H 410.42 -3.81915 -3.27338 0
M  V30 4132 H 410.12 -5.35424 -2.42065 0
M  V30 4133 H 411.644 -5.12212 -3.32372 0
M  V30 4134 H 413.058 -5.62479 -1.10861 0
M  V30 4135 H 411.455 -5.98729 -0.405351 0
M  V30 4136 H 412.525 -4.83174 0.408776 0
M  V30 4137 N 413.868 0.0150385 -1.57593 0
M  V30 4138 C 414.798 1.01047 -2.10503 0
M  V30 4139 C 415.779 1.36816 -1.01071 0
M  V30 4140 O 416.964 1.45455 -1.28672 0
M  V30 4141 C 414.094 2.30708 -2.59598 0
M  V30 4142 C 413.048 2.09142 -3.73421 0
M  V30 4143 C 412.374 3.44685 -4.08774 0
M  V30 4144 C 413.674 1.46619 -5.01298 0
M  V30 4145 H 415.368 0.569978 -2.93925 0
M  V30 4146 H 412.914 0.272724 -1.41394 0
M  V30 4147 H 414.867 3.00687 -2.95238 0
M  V30 4148 H 413.591 2.76843 -1.73279 0
M  V30 4149 H 412.25 1.41592 -3.38153 0
M  V30 4150 H 411.898 3.88495 -3.195 0
M  V30 4151 H 411.598 3.31077 -4.8545 0
M  V30 4152 H 413.122 4.16004 -4.4696 0
M  V30 4153 H 414.536 2.06535 -5.34805 0
M  V30 4154 H 412.933 1.43544 -5.82679 0
M  V30 4155 H 414.003 0.433611 -4.82957 0
M  V30 4156 N 415.346 1.54954 0.287554 0
M  V30 4157 C 416.592 1.75132 1.02257 0
M  V30 4158 C 416.925 0.542858 1.86458 0
M  V30 4159 O 416.2 -0.459856 1.88986 0
M  V30 4160 C 416.483 3.04812 1.91733 0
M  V30 4161 C 416.336 4.35985 1.10622 0
M  V30 4162 C 417.655 3.30438 2.90687 0
M  V30 4163 H 414.774 0.637194 0.370341 0
M  V30 4164 H 417.416 1.87678 0.296111 0
M  V30 4165 H 415.566 2.94247 2.53675 0
M  V30 4166 H 417.238 4.58487 0.508636 0
M  V30 4167 H 415.481 4.31865 0.409271 0
M  V30 4168 H 416.152 5.23017 1.76513 0
M  V30 4169 H 418.628 3.40701 2.38877 0
M  V30 4170 H 417.504 4.22467 3.50447 0
M  V30 4171 H 417.765 2.49377 3.65053 0
M  V30 4172 N 416.824 -0.551391 1.4764 0
M  V30 4173 C 417.787 -1.64007 1.60107 0
M  V30 4174 C 418.787 -1.53601 0.47576 0
M  V30 4175 O 419.977 -1.57655 0.740988 0
M  V30 4176 C 417.109 -3.03569 1.55108 0
M  V30 4177 H 418.302 -1.543 2.57161 0
M  V30 4178 H 415.855 -0.771776 1.35917 0
M  V30 4179 H 416.59 -3.18804 0.594519 0
M  V30 4180 H 416.375 -3.12532 2.36783 0
M  V30 4181 H 417.865 -3.82762 1.66982 0
M  V30 4182 N 418.302 -1.35869 -0.798587 0
M  V30 4183 C 419.234 -1.25305 -1.91915 0
M  V30 4184 C 420.247 -0.174548 -1.61862 0
M  V30 4185 O 421.436 -0.428499 -1.73281 0
M  V30 4186 C 418.536 -0.9086 -3.26493 0
M  V30 4187 C 417.709 -2.08711 -3.84394 0
M  V30 4188 C 416.768 -1.71717 -4.97393 0
M  V30 4189 O 415.794 -2.43692 -5.14396 0
M  V30 4190 N 416.996 -0.645473 -5.769 0
M  V30 4191 H 419.761 -2.21849 -2.01502 0
M  V30 4192 H 417.322 -1.29143 -0.976408 0
M  V30 4193 H 419.314 -0.642455 -3.99568 0
M  V30 4194 H 417.884 -0.0325815 -3.12583 0
M  V30 4195 H 417.104 -2.51659 -3.03416 0
M  V30 4196 H 418.392 -2.87468 -4.19809 0
M  V30 4197 H 417.79 -0.047648 -5.6568 0
M  V30 4198 H 416.347 -0.43913 -6.50319 0
M  V30 4199 N 419.78 1.02168 -1.19998 0
M  V30 4200 C 421.01 1.79036 -1.031 0
M  V30 4201 C 421.418 1.84409 0.423078 0
M  V30 4202 O 420.761 1.29228 1.30559 0
M  V30 4203 C 420.823 3.25185 -1.53281 0
M  V30 4204 C 420.487 3.43431 -3.01503 0
M  V30 4205 C 421.484 3.33063 -3.99206 0
M  V30 4206 C 419.169 3.69412 -3.40353 0
M  V30 4207 C 421.163 3.48413 -5.33748 0
M  V30 4208 C 418.85 3.84406 -4.75053 0
M  V30 4209 C 419.848 3.7391 -5.71559 0
M  V30 4210 O 419.536 3.88452 -7.03818 0
M  V30 4211 H 419.268 0.570043 -0.363355 0
M  V30 4212 H 421.822 1.29524 -1.59414 0
M  V30 4213 H 420.052 3.75756 -0.913483 0
M  V30 4214 H 421.741 3.83671 -1.32481 0
M  V30 4215 H 422.507 3.12934 -3.70537 0
M  V30 4216 H 418.386 3.76671 -2.65782 0
M  V30 4217 H 421.93 3.40137 -6.09059 0
M  V30 4218 H 417.827 4.04035 -5.03415 0
M  V30 4219 H 418.595 4.055 -7.10993 0
M  V30 4220 N 421.258 1.00505 1.21394 0
M  V30 4221 C 422.19 0.52372 2.23136 0
M  V30 4222 C 423.203 -0.387714 1.58116 0
M  V30 4223 O 424.392 -0.187905 1.77508 0
M  V30 4224 C 421.492 -0.258885 3.3791 0
M  V30 4225 C 420.665 0.651634 4.32519 0
M  V30 4226 C 419.724 -0.0813705 5.26137 0
M  V30 4227 O 418.75 0.537295 5.66658 0
M  V30 4228 N 419.952 -1.35992 5.64346 0
M  V30 4229 H 422.717 1.39865 2.65062 0
M  V30 4230 H 420.278 0.881196 1.35818 0
M  V30 4231 H 422.27 -0.758208 3.97534 0
M  V30 4232 H 420.84 -1.035 2.94968 0
M  V30 4233 H 420.06 1.33145 3.71034 0
M  V30 4234 H 421.348 1.27129 4.92662 0
M  V30 4235 H 420.746 -1.88368 5.33417 0
M  V30 4236 H 419.303 -1.8042 6.26332 0
M  V30 4237 N 422.737 -1.36956 0.779787 0
M  V30 4238 C 423.984 -1.99491 0.347766 0
M  V30 4239 C 424.312 -1.61898 -1.07793 0
M  V30 4240 O 423.567 -0.86071 -1.75756 0
M  V30 4241 C 423.866 -3.54585 0.447686 0
M  V30 4242 C 423.532 -4.1197 1.83279 0
M  V30 4243 C 422.194 -4.27356 2.2118 0
M  V30 4244 C 424.546 -4.43354 2.74019 0
M  V30 4245 C 421.874 -4.71432 3.4924 0
M  V30 4246 C 424.226 -4.88858 4.01497 0
M  V30 4247 C 422.89 -5.0245 4.39432 0
M  V30 4248 H 422.16 -0.729991 0.127257 0
M  V30 4249 H 424.807 -1.63599 0.995376 0
M  V30 4250 H 423.112 -3.90773 -0.283447 0
M  V30 4251 H 424.809 -4.00888 0.0945948 0
M  V30 4252 H 421.399 -4.00428 1.52825 0
M  V30 4253 H 425.583 -4.31045 2.45995 0
M  V30 4254 H 420.839 -4.80141 3.78516 0
M  V30 4255 H 425.013 -5.12108 4.71931 0
M  V30 4256 H 422.64 -5.36362 5.38721 0
M  V30 4257 N 424.215 -0.530993 -1.48385 0
M  V30 4258 C 425.492 0.0671788 -1.95485 0
M  V30 4259 C 425.872 1.51191 -1.47324 0
M  V30 4260 O 425.22 2.17507 -0.700202 0
M  V30 4261 C 425.43 -0.0511206 -3.48963 0
M  V30 4262 C 426.778 0.107632 -4.24464 0
M  V30 4263 O 427.802 0.0226248 -3.56193 0
M  V30 4264 O 426.661 0.285972 -5.45751 0
M  V30 4265 H 423.755 0.0787365 -0.823243 0
M  V30 4266 H 426.301 -0.595662 -1.58902 0
M  V30 4267 H 425.073 -1.05747 -3.7674 0
M  V30 4268 H 424.696 0.650525 -3.92242 0
M  V30 4269 N 425.693 1.55336 -0.266172 0
M  V30 4270 C 426.94 1.99397 0.353158 0
M  V30 4271 C 427.268 1.15451 1.56529 0
M  V30 4272 O 426.523 0.209974 1.9457 0
M  V30 4273 C 426.822 3.48606 0.787957 0
M  V30 4274 C 426.488 4.49773 -0.318541 0
M  V30 4275 C 425.15 4.77158 -0.62239 0
M  V30 4276 C 427.502 5.10212 -1.06459 0
M  V30 4277 C 424.83 5.62251 -1.67602 0
M  V30 4278 C 427.182 5.96449 -2.10788 0
M  V30 4279 C 425.846 6.22158 -2.41817 0
M  V30 4280 H 425.116 0.729644 0.12923 0
M  V30 4281 H 427.763 1.87732 -0.37802 0
M  V30 4282 H 426.068 3.57701 1.59866 0
M  V30 4283 H 427.765 3.80098 1.27775 0
M  V30 4284 H 424.355 4.2854 -0.0715925 0
M  V30 4285 H 428.539 4.89086 -0.843098 0
M  V30 4286 H 423.795 5.80419 -1.92155 0
M  V30 4287 H 427.969 6.42317 -2.69076 0
M  V30 4288 H 425.596 6.87888 -3.23596 0
M  V30 4289 N 427.171 -0.0066808 1.57599 0
M  V30 4290 C 428.419 -0.691552 1.899 0
M  V30 4291 C 428.74 -1.74682 0.866672 0
M  V30 4292 O 428.01 -1.95661 -0.0968189 0
M  V30 4293 H 426.59 -0.258416 0.700878 0
M  V30 4294 H 429.252 0.0326655 1.94873 0
M  V30 4295 H 428.348 -1.16702 2.8946 0
M  V30 4296 N 428.649 -1.55105 -0.279332 0
M  V30 4297 C 429.579 -1.90557 -1.34945 0
M  V30 4298 C 430.56 -0.766738 -1.51839 0
M  V30 4299 O 431.745 -1.02434 -1.64988 0
M  V30 4300 C 428.875 -2.17193 -2.71006 0
M  V30 4301 C 427.829 -3.33021 -2.68851 0
M  V30 4302 C 427.155 -3.45123 -4.08405 0
M  V30 4303 C 428.455 -4.69578 -2.28678 0
M  V30 4304 H 430.149 -2.80188 -1.05522 0
M  V30 4305 H 427.695 -1.34811 -0.506173 0
M  V30 4306 H 429.648 -2.40581 -3.45975 0
M  V30 4307 H 428.372 -1.24355 -3.01999 0
M  V30 4308 H 427.031 -3.0959 -1.9634 0
M  V30 4309 H 426.679 -2.49762 -4.3661 0
M  V30 4310 H 426.379 -4.22995 -4.07859 0
M  V30 4311 H 427.903 -3.70796 -4.85121 0
M  V30 4312 H 429.317 -4.92553 -2.93368 0
M  V30 4313 H 427.714 -5.5032 -2.39306 0
M  V30 4314 H 428.784 -4.68828 -1.23807 0
M  V30 4315 N 430.127 0.543554 -1.4793 0
M  V30 4316 C 431.543 0.870806 -1.3375 0
M  V30 4317 C 431.743 1.9864 -0.338261 0
M  V30 4318 O 430.799 2.51305 0.245371 0
M  V30 4319 C 432.112 1.25114 -2.73435 0
M  V30 4320 C 433.66 1.3618 -2.81823 0
M  V30 4321 C 434.135 1.77563 -4.22179 0
M  V30 4322 N 435.626 1.8469 -4.24787 0
M  V30 4323 C 436.361 2.18067 -5.30315 0
M  V30 4324 N 435.857 2.49963 -6.46135 0
M  V30 4325 N 437.65 2.18958 -5.17701 0
M  V30 4326 H 429.801 -0.19275 -2.11524 0
M  V30 4327 H 432.064 -0.0235777 -0.947707 0
M  V30 4328 H 431.77 0.50514 -3.48053 0
M  V30 4329 H 431.644 2.20431 -3.06088 0
M  V30 4330 H 434.031 2.09859 -2.07468 0
M  V30 4331 H 434.112 0.390169 -2.52807 0
M  V30 4332 H 433.756 1.04449 -4.97044 0
M  V30 4333 H 433.686 2.75753 -4.48629 0
M  V30 4334 H 436.177 1.62372 -3.41239 0
M  V30 4335 H 436.49 2.74497 -7.22406 0
M  V30 4336 H 434.835 2.47513 -6.49432 0
M  V30 4337 H 438.026 1.93488 -4.2624 0
M  V30 4338 H 438.199 2.44639 -6.00047 0
M  V30 4339 N 431.605 1.3629 0.791371 0
M  V30 4340 C 433.016 1.27225 1.36641 0
M  V30 4341 C 433.367 -0.0887968 1.95999 0
M  V30 4342 O 432.492 -0.990207 1.92416 0
M  V30 4343 C 433.087 2.30375 2.48421 0
M  V30 4344 C 431.646 2.25004 3.01746 0
M  V30 4345 C 430.793 2.15259 1.7481 0
M  V30 4346 H 433.744 1.47198 0.593173 0
M  V30 4347 H 433.765 1.93905 3.27385 0
M  V30 4348 H 433.277 3.29422 2.05189 0
M  V30 4349 H 431.378 1.29417 3.49403 0
M  V30 4350 H 431.491 3.1761 3.58693 0
M  V30 4351 H 429.855 1.61482 1.96966 0
M  V30 4352 H 430.638 3.16191 1.33709 0
M  V30 4353 N 433.083 -1.0153 1.20538 0
M  V30 4354 C 434.308 -1.79283 1.04271 0
M  V30 4355 C 434.733 -1.8372 -0.403544 0
M  V30 4356 O 434.091 -1.27321 -1.2907 0
M  V30 4357 C 434.139 -3.21535 1.63241 0
M  V30 4358 O 433.243 -4.03099 0.870908 0
M  V30 4359 H 432.584 -0.55293 0.367647 0
M  V30 4360 H 435.114 -1.27696 1.59859 0
M  V30 4361 H 435.124 -3.72243 1.6703 0
M  V30 4362 H 433.799 -3.1762 2.68497 0
M  V30 4363 H 432.376 -3.61693 0.907323 0
M  V30 4364 N 434.561 -1.01147 -1.20859 0
M  V30 4365 C 435.81 -0.693214 -1.89413 0
M  V30 4366 C 436.123 0.779969 -1.79376 0
M  V30 4367 O 437.329 1.21057 -2.43017 0
M  V30 4368 C 435.785 -1.18949 -3.39675 0
M  V30 4369 C 435.393 -2.68921 -3.58309 0
M  V30 4370 C 437.137 -0.94642 -4.13815 0
M  V30 4371 C 435.044 -3.12056 -5.0237 0
M  V30 4372 H 433.974 -0.255595 -0.709357 0
M  V30 4373 H 436.625 -1.22349 -1.36759 0
M  V30 4374 H 435.007 -0.587228 -3.91622 0
M  V30 4375 H 436.181 -3.34652 -3.16772 0
M  V30 4376 H 434.496 -2.91314 -2.97532 0
M  V30 4377 H 437.093 -1.24417 -5.20023 0
M  V30 4378 H 437.436 0.117219 -4.16135 0
M  V30 4379 H 437.969 -1.5118 -3.67953 0
M  V30 4380 H 434.708 -4.17674 -5.05202 0
M  V30 4381 H 434.228 -2.51041 -5.44737 0
M  V30 4382 H 435.907 -3.04403 -5.70918 0
M  V30 4383 N 436.039 1.36541 -0.78704 0
M  V30 4384 C 437.002 2.28413 -0.189778 0
M  V30 4385 C 438.002 1.48719 0.611499 0
M  V30 4386 O 439.192 1.68737 0.432842 0
M  V30 4387 C 436.324 3.32824 0.737638 0
M  V30 4388 H 437.517 2.82743 -0.999831 0
M  V30 4389 H 435.07 1.46065 -0.556298 0
M  V30 4390 H 435.805 2.83646 1.57212 0
M  V30 4391 H 435.59 3.91752 0.165044 0
M  V30 4392 H 437.08 4.0144 1.15047 0
M  V30 4393 N 437.518 0.538854 1.48102 0
M  V30 4394 C 438.748 0.0122958 2.06596 0
M  V30 4395 C 439.156 -1.27861 1.39457 0
M  V30 4396 O 438.499 -1.77348 0.478907 0
M  V30 4397 C 438.561 -0.273131 3.58461 0
M  V30 4398 C 438.225 0.92561 4.47528 0
M  V30 4399 C 439.222 1.82637 4.86765 0
M  V30 4400 C 436.907 1.13511 4.89306 0
M  V30 4401 C 438.901 2.92047 5.66558 0
M  V30 4402 C 436.588 2.23233 5.68868 0
M  V30 4403 C 437.586 3.12333 6.07402 0
M  V30 4404 O 437.274 4.20155 6.85365 0
M  V30 4405 H 437.006 0.0344283 0.675123 0
M  V30 4406 H 439.56 0.746494 1.91355 0
M  V30 4407 H 437.79 -1.06141 3.71848 0
M  V30 4408 H 439.479 -0.742842 3.99045 0
M  V30 4409 H 440.245 1.67649 4.55103 0
M  V30 4410 H 436.124 0.450835 4.5879 0
M  V30 4411 H 439.668 3.6162 5.96554 0
M  V30 4412 H 435.565 2.38201 5.99942 0
M  V30 4413 H 436.333 4.17975 7.03732 0
M  V30 4414 N 438.996 -1.55193 0.274407 0
M  V30 4415 C 440.224 -2.03987 -0.345943 0
M  V30 4416 C 440.639 -1.15279 -1.4952 0
M  V30 4417 O 439.996 -0.172759 -1.8168 0
M  V30 4418 C 440.047 -3.51898 -0.827631 0
M  V30 4419 O 439.768 -4.37231 0.275855 0
M  V30 4420 C 441.269 -4.16577 -1.51587 0
M  V30 4421 H 438.489 -0.666335 -0.0789892 0
M  V30 4422 H 441.033 -2.00423 0.406294 0
M  V30 4423 H 439.188 -3.55909 -1.52996 0
M  V30 4424 H 439.602 -5.24415 -0.0943638 0
M  V30 4425 H 441.076 -5.21678 -1.80433 0
M  V30 4426 H 441.553 -3.64707 -2.44716 0
M  V30 4427 H 442.159 -4.16568 -0.857409 0
M  V30 4428 N 440.474 -0.00167713 -1.576 0
M  V30 4429 C 441.421 0.989195 -2.08527 0
M  V30 4430 C 442.391 1.34031 -0.981065 0
M  V30 4431 O 443.576 1.43839 -1.2536 0
M  V30 4432 C 440.716 2.27537 -2.59463 0
M  V30 4433 C 439.829 1.98314 -3.83791 0
M  V30 4434 C 438.964 3.21025 -4.23222 0
M  V30 4435 C 438.003 2.87495 -5.40382 0
M  V30 4436 N 437.14 4.02749 -5.75098 0
M  V30 4437 H 441.98 0.547973 -2.92919 0
M  V30 4438 H 439.517 0.258917 -1.44803 0
M  V30 4439 H 441.475 3.02729 -2.87073 0
M  V30 4440 H 440.105 2.69325 -1.77943 0
M  V30 4441 H 439.157 1.13482 -3.63078 0
M  V30 4442 H 440.469 1.69601 -4.69081 0
M  V30 4443 H 439.623 4.04561 -4.52123 0
M  V30 4444 H 438.362 3.52877 -3.36644 0
M  V30 4445 H 437.367 2.02367 -5.11202 0
M  V30 4446 H 438.592 2.56889 -6.28637 0
M  V30 4447 H 436.538 4.34494 -4.91478 0
M  V30 4448 H 436.455 3.77566 -6.54966 0
M  V30 4449 H 437.723 4.87068 -6.08592 0
M  V30 4450 N 441.952 1.55251 0.271103 0
M  V30 4451 C 443.177 1.80306 1.02491 0
M  V30 4452 C 443.602 0.575457 1.79081 0
M  V30 4453 O 442.96 -0.474987 1.74967 0
M  V30 4454 C 443.008 3.02832 1.95768 0
M  V30 4455 O 442.112 2.78051 3.04568 0
M  V30 4456 H 441.453 0.595896 0.292923 0
M  V30 4457 H 443.983 2.02397 0.299436 0
M  V30 4458 H 443.993 3.31616 2.37686 0
M  V30 4459 H 442.668 3.9183 1.39434 0
M  V30 4460 H 441.245 2.60369 2.66951 0
M  V30 4461 N 443.43 -0.535701 1.48216 0
M  V30 4462 C 444.377 -1.64083 1.62312 0
M  V30 4463 C 445.347 -1.59448 0.465365 0
M  V30 4464 O 446.532 -1.77959 0.688135 0
M  V30 4465 C 443.672 -3.0236 1.66349 0
M  V30 4466 C 442.785 -3.17273 2.93193 0
M  V30 4467 C 441.92 -4.46075 2.88427 0
M  V30 4468 C 440.959 -4.54496 4.1 0
M  V30 4469 N 440.096 -5.7468 4.03345 0
M  V30 4470 H 444.936 -1.51374 2.5669 0
M  V30 4471 H 442.473 -0.737059 1.27302 0
M  V30 4472 H 444.431 -3.82461 1.66672 0
M  V30 4473 H 443.061 -3.13854 0.754672 0
M  V30 4474 H 442.113 -2.30462 3.02641 0
M  V30 4475 H 443.425 -3.19357 3.83162 0
M  V30 4476 H 442.579 -5.3446 2.87119 0
M  V30 4477 H 441.318 -4.46504 1.96177 0
M  V30 4478 H 440.323 -3.64519 4.11589 0
M  V30 4479 H 441.548 -4.5581 5.03402 0
M  V30 4480 H 439.494 -5.76017 3.13912 0
M  V30 4481 H 439.411 -5.78234 4.87013 0
M  V30 4482 H 440.679 -6.65367 4.06087 0
M  V30 4483 N 444.908 -1.36708 -0.784132 0
M  V30 4484 C 445.871 -1.31307 -1.87859 0
M  V30 4485 C 446.871 -0.219654 -1.59293 0
M  V30 4486 O 448.061 -0.47476 -1.67606 0
M  V30 4487 C 445.193 -1.03679 -3.24751 0
M  V30 4488 H 446.386 -2.28647 -1.94064 0
M  V30 4489 H 443.939 -1.21558 -0.98252 0
M  V30 4490 H 444.674 -0.0681936 -3.24228 0
M  V30 4491 H 444.459 -1.82811 -3.46876 0
M  V30 4492 H 445.949 -1.02518 -4.04821 0
M  V30 4493 N 446.386 1.0089 -1.21074 0
M  V30 4494 C 447.333 2.09588 -0.966512 0
M  V30 4495 C 448.303 1.65761 0.106089 0
M  V30 4496 O 449.488 1.90758 -0.0402287 0
M  V30 4497 C 446.628 3.40958 -0.533058 0
M  V30 4498 C 445.741 3.9822 -1.67467 0
M  V30 4499 C 444.876 5.17682 -1.19076 0
M  V30 4500 C 443.915 5.67043 -2.30496 0
M  V30 4501 N 443.052 6.77759 -1.83267 0
M  V30 4502 H 447.892 2.29815 -1.89708 0
M  V30 4503 H 445.429 1.12689 -0.945489 0
M  V30 4504 H 447.387 4.1637 -0.263019 0
M  V30 4505 H 446.017 3.20781 0.360505 0
M  V30 4506 H 445.069 3.1983 -2.05944 0
M  V30 4507 H 446.381 4.3085 -2.51336 0
M  V30 4508 H 445.535 6.00326 -0.877151 0
M  V30 4509 H 444.274 4.86635 -0.322066 0
M  V30 4510 H 443.279 4.82999 -2.62664 0
M  V30 4511 H 444.504 6.00121 -3.17855 0
M  V30 4512 H 442.45 6.48527 -0.987356 0
M  V30 4513 H 442.367 7.09624 -2.60711 0
M  V30 4514 H 443.635 7.63949 -1.54928 0
M  V30 4515 N 447.864 1.01787 1.20321 0
M  V30 4516 C 449.141 0.622978 1.85414 0
M  V30 4517 C 449.521 -0.898887 1.91006 0
M  V30 4518 O 448.869 -1.79112 1.41884 0
M  V30 4519 C 449.079 1.27226 3.24984 0
M  V30 4520 C 450.427 1.3885 4.01255 0
M  V30 4521 O 451.451 1.22857 3.34342 0
M  V30 4522 O 450.31 1.64705 5.2109 0
M  V30 4523 H 447.404 0.215116 0.798533 0
M  V30 4524 H 449.95 1.11533 1.27901 0
M  V30 4525 H 448.722 2.31209 3.15687 0
M  V30 4526 H 448.345 0.767069 3.90131 0
M  V30 4527 N 449.342 -1.36122 0.79427 0
M  V30 4528 C 450.588 -1.99406 0.369452 0
M  V30 4529 C 450.921 -1.62886 -1.05743 0
M  V30 4530 O 450.196 -0.886053 -1.73145 0
M  V30 4531 C 450.479 -3.56046 0.538833 0
M  V30 4532 C 450.332 -4.02404 2.00976 0
M  V30 4533 C 451.651 -4.40079 -0.0431359 0
M  V30 4534 H 448.77 -0.724397 0.135712 0
M  V30 4535 H 451.412 -1.61461 1.00151 0
M  V30 4536 H 449.562 -3.885 0.000771004 0
M  V30 4537 H 451.234 -3.80415 2.60926 0
M  V30 4538 H 449.477 -3.53765 2.51063 0
M  V30 4539 H 450.148 -5.11344 2.07922 0
M  V30 4540 H 452.624 -4.14013 0.416228 0
M  V30 4541 H 451.5 -5.48799 0.105374 0
M  V30 4542 H 451.761 -4.27264 -1.13571 0
M  V30 4543 N 450.82 -0.546701 -1.47814 0
M  V30 4544 C 451.73 0.21026 -2.33656 0
M  V30 4545 C 452.746 0.922413 -1.47538 0
M  V30 4546 O 453.922 0.893652 -1.80488 0
M  V30 4547 C 450.987 1.23348 -3.24016 0
M  V30 4548 C 450.048 0.529883 -4.26017 0
M  V30 4549 C 449.281 1.50435 -5.12059 0
M  V30 4550 O 449.504 2.73837 -5.00369 0
M  V30 4551 O 448.438 1.03459 -5.92942 0
M  V30 4552 H 452.264 -0.493605 -2.99662 0
M  V30 4553 H 449.849 -0.307427 -1.46203 0
M  V30 4554 H 451.731 1.82438 -3.79861 0
M  V30 4555 H 450.406 1.91945 -2.60651 0
M  V30 4556 H 449.313 -0.101948 -3.73961 0
M  V30 4557 H 450.646 -0.11445 -4.92067 0
M  V30 4558 N 452.299 1.55045 -0.282633 0
M  V30 4559 C 453.547 1.99365 0.331334 0
M  V30 4560 C 453.868 1.1725 1.55812 0
M  V30 4561 O 453.138 0.263871 1.94115 0
M  V30 4562 H 451.718 0.736397 0.125414 0
M  V30 4563 H 454.38 1.90964 -0.389711 0
M  V30 4564 H 453.476 3.0596 0.616036 0
M  V30 4565 N 453.777 0.010035 1.57597 0
M  V30 4566 C 455.026 -0.671945 1.90178 0
M  V30 4567 C 455.339 -1.74376 0.886131 0
M  V30 4568 O 456.545 -2.48107 1.10252 0
M  V30 4569 C 455.001 -1.24636 3.3763 0
M  V30 4570 C 454.609 -0.208838 4.47513 0
M  V30 4571 C 456.353 -1.90595 3.79307 0
M  V30 4572 C 454.26 -0.793814 5.86048 0
M  V30 4573 H 453.19 -0.25474 0.709665 0
M  V30 4574 H 455.841 0.0722206 1.83358 0
M  V30 4575 H 454.223 -2.04152 3.3932 0
M  V30 4576 H 455.397 0.562463 4.57354 0
M  V30 4577 H 453.712 0.350889 4.14919 0
M  V30 4578 H 456.309 -2.35284 4.80151 0
M  V30 4579 H 456.652 -2.74074 3.13352 0
M  V30 4580 H 457.185 -1.17798 3.79958 0
M  V30 4581 H 453.924 0.00240855 6.555 0
M  V30 4582 H 453.444 -1.53404 5.79851 0
M  V30 4583 H 455.123 -1.2894 6.34022 0
M  V30 4584 N 455.255 -1.55392 -0.262866 0
M  V30 4585 C 456.503 -1.76127 -0.991147 0
M  V30 4586 C 456.824 -0.571083 -1.8645 0
M  V30 4587 O 456.094 0.413698 -1.91482 0
M  V30 4588 H 454.674 -0.649528 -0.368948 0
M  V30 4589 H 457.336 -1.9281 -0.284655 0
M  V30 4590 H 456.432 -2.6663 -1.62219 0
M  V30 4591 N 456.733 0.527833 -1.48498 0
M  V30 4592 C 458.01 1.28905 -1.47115 0
M  V30 4593 C 458.39 2.10297 -0.184007 0
M  V30 4594 O 457.738 2.12728 0.834218 0
M  V30 4595 C 457.948 2.16866 -2.73441 0
M  V30 4596 C 459.296 2.76936 -3.21857 0
M  V30 4597 O 460.32 2.27152 -2.74373 0
M  V30 4598 O 459.179 3.67496 -4.04486 0
M  V30 4599 H 456.273 0.581918 -0.587623 0
M  V30 4600 H 458.819 0.544311 -1.60734 0
M  V30 4601 H 457.591 1.56521 -3.58632 0
M  V30 4602 H 457.214 2.98583 -2.62553 0
M  V30 4603 N 458.211 1.37122 0.776871 0
M  V30 4604 C 459.457 1.32243 1.53752 0
M  V30 4605 C 459.79 -0.0944745 1.9397 0
M  V30 4606 O 459.065 -1.05068 1.6368 0
M  V30 4607 C 459.348 2.25681 2.80607 0
M  V30 4608 C 459.201 3.76127 2.46676 0
M  V30 4609 C 460.52 2.17657 3.82509 0
M  V30 4610 H 457.639 0.481704 0.557791 0
M  V30 4611 H 460.281 1.6778 0.891612 0
M  V30 4612 H 458.431 1.95505 3.35723 0
M  V30 4613 H 460.103 4.16877 1.97513 0
M  V30 4614 H 458.346 3.94946 1.79443 0
M  V30 4615 H 459.017 4.36933 3.37333 0
M  V30 4616 H 461.493 2.44245 3.36873 0
M  V30 4617 H 460.369 2.85185 4.69 0
M  V30 4618 H 460.63 1.16785 4.26396 0
M  V30 4619 N 459.689 -1.00246 1.21608 0
M  V30 4620 C 460.966 -1.71336 0.943568 0
M  V30 4621 C 461.346 -2.03972 -0.543943 0
M  V30 4622 O 460.694 -1.71545 -1.50946 0
M  V30 4623 C 460.904 -2.97094 1.83128 0
M  V30 4624 C 462.252 -3.70071 2.08165 0
M  V30 4625 O 463.276 -3.07081 1.80498 0
M  V30 4626 O 462.135 -4.83376 2.54971 0
M  V30 4627 H 459.229 -0.747386 0.354039 0
M  V30 4628 H 461.775 -1.05967 1.32549 0
M  V30 4629 H 460.547 -2.69407 2.83788 0
M  V30 4630 H 460.17 -3.70204 1.45034 0
M  V30 4631 N 461.167 -1.02423 -1.1978 0
M  V30 4632 C 462.097 -0.62157 -2.25075 0
M  V30 4633 C 463.078 0.367148 -1.6609 0
M  V30 4634 O 464.263 0.250892 -1.92573 0
M  V30 4635 C 461.393 0.0331826 -3.47284 0
M  V30 4636 C 460.347 -0.877323 -4.18912 0
M  V30 4637 C 459.673 -0.0879296 -5.34628 0
M  V30 4638 C 460.973 -2.18892 -4.74219 0
M  V30 4639 H 462.667 -1.50179 -2.59011 0
M  V30 4640 H 460.213 -0.723547 -1.24502 0
M  V30 4641 H 462.166 0.326488 -4.20133 0
M  V30 4642 H 460.89 0.948164 -3.12534 0
M  V30 4643 H 459.549 -1.15475 -3.47938 0
M  V30 4644 H 459.197 0.828941 -4.96123 0
M  V30 4645 H 458.897 -0.694359 -5.83483 0
M  V30 4646 H 460.421 0.198743 -6.10276 0
M  V30 4647 H 461.835 -1.95746 -5.38847 0
M  V30 4648 H 460.232 -2.74686 -5.33542 0
M  V30 4649 H 461.302 -2.84674 -3.92541 0
M  V30 4650 N 462.645 1.35699 -0.801477 0
M  V30 4651 C 463.891 1.99208 -0.380022 0
M  V30 4652 C 464.224 1.63445 1.04878 0
M  V30 4653 O 463.499 0.895223 1.72673 0
M  V30 4654 C 463.782 3.55755 -0.557708 0
M  V30 4655 C 463.635 4.01332 -2.03107 0
M  V30 4656 C 464.954 4.40096 0.0197968 0
M  V30 4657 H 462.073 0.723667 -0.139552 0
M  V30 4658 H 464.715 1.60928 -1.01006 0
M  V30 4659 H 462.865 3.88494 -0.0213741 0
M  V30 4660 H 464.537 3.79026 -2.62939 0
M  V30 4661 H 462.78 3.52429 -2.52936 0
M  V30 4662 H 463.451 5.10234 -2.1063 0
M  V30 4663 H 465.927 4.13786 -0.438179 0
M  V30 4664 H 464.803 5.48735 -0.134477 0
M  V30 4665 H 465.064 4.2786 1.11303 0
M  V30 4666 N 464.123 0.554532 1.47522 0
M  V30 4667 C 465.071 -0.207765 2.3167 0
M  V30 4668 C 466.065 -0.911914 1.4276 0
M  V30 4669 O 467.271 -0.833504 1.59539 0
M  V30 4670 H 463.646 -0.0858726 0.747081 0
M  V30 4671 H 465.617 0.521178 2.93813 0
M  V30 4672 C 464.366 -1.2263 3.25357 0
M  V30 4673 H 463.689 -0.693887 3.93732 0
M  V30 4674 H 465.129 -1.73062 3.87073 0
M  V30 4675 C 463.588 -2.27278 2.4869 0
M  V30 4676 O 464.118 -3.34156 2.22941 0
M  V30 4677 N 462.324 -2.01134 2.09746 0
M  V30 4678 H 461.871 -1.14232 2.30887 0
M  V30 4679 H 461.829 -2.71369 1.58765 0
M  V30 4680 N 465.601 -1.54893 0.290851 0
M  V30 4681 C 466.831 -2.04047 -0.323818 0
M  V30 4682 C 467.239 -1.16809 -1.48837 0
M  V30 4683 O 466.582 -0.184145 -1.82775 0
M  V30 4684 C 466.644 -3.49248 -0.852395 0
M  V30 4685 C 466.308 -4.56623 0.185557 0
M  V30 4686 C 467.305 -5.09985 1.01053 0
M  V30 4687 C 464.99 -5.01252 0.324332 0
M  V30 4688 C 466.984 -6.06507 1.96031 0
M  V30 4689 C 464.671 -5.97596 1.27757 0
M  V30 4690 C 465.669 -6.50107 2.09405 0
M  V30 4691 O 465.357 -7.44565 3.03114 0
M  V30 4692 H 465.089 -0.671735 -0.0758129 0
M  V30 4693 H 467.643 -2.00947 0.425393 0
M  V30 4694 H 465.873 -3.49639 -1.65195 0
M  V30 4695 H 467.562 -3.81654 -1.38185 0
M  V30 4696 H 468.328 -4.76307 0.914129 0
M  V30 4697 H 464.207 -4.60015 -0.301213 0
M  V30 4698 H 467.751 -6.47418 2.598 0
M  V30 4699 H 463.648 -6.30691 1.37473 0
M  V30 4700 H 464.416 -7.62334 2.97976 0
M  V30 4701 N 467.08 -0.0183926 -1.57589 0
M  V30 4702 C 468.327 0.662562 -1.91354 0
M  V30 4703 C 468.655 1.72747 -0.893788 0
M  V30 4704 O 467.91 1.9545 0.0988509 0
M  V30 4705 C 468.209 1.32676 -3.31861 0
M  V30 4706 C 467.875 0.393267 -4.49182 0
M  V30 4707 C 466.537 0.136302 -4.81007 0
M  V30 4708 C 468.889 -0.248366 -5.20608 0
M  V30 4709 C 466.217 -0.770282 -5.81621 0
M  V30 4710 C 468.569 -1.14294 -6.22189 0
M  V30 4711 C 467.233 -1.4089 -6.52462 0
M  V30 4712 H 466.503 0.242448 -0.700214 0
M  V30 4713 H 469.15 -0.0778629 -1.91342 0
M  V30 4714 H 467.455 2.14168 -3.28084 0
M  V30 4715 H 469.152 1.86001 -3.55253 0
M  V30 4716 H 465.742 0.603723 -4.24327 0
M  V30 4717 H 469.926 -0.062883 -4.9626 0
M  V30 4718 H 465.182 -0.984154 -6.03427 0
M  V30 4719 H 469.356 -1.64637 -6.76659 0
M  V30 4720 H 466.983 -2.11306 -7.30242 0
M  V30 4721 N 468.558 1.5553 0.254621 0
M  V30 4722 C 469.468 1.92789 1.33677 0
M  V30 4723 C 470.484 0.827356 1.53071 0
M  V30 4724 O 471.66 1.12807 1.66843 0
M  V30 4725 C 468.725 2.20827 2.67275 0
M  V30 4726 C 467.786 3.4427 2.5647 0
M  V30 4727 C 467.019 3.70961 3.83697 0
M  V30 4728 O 467.242 2.99852 4.85227 0
M  V30 4729 O 466.176 4.64491 3.82794 0
M  V30 4730 H 470.002 2.84945 1.05071 0
M  V30 4731 H 467.587 1.42312 0.454723 0
M  V30 4732 H 469.469 2.40204 3.46237 0
M  V30 4733 H 468.144 1.31851 2.9563 0
M  V30 4734 H 467.051 3.30209 1.75821 0
M  V30 4735 H 468.384 4.33524 2.33062 0
M  V30 4736 N 470.036 -0.519951 1.48776 0
M  V30 4737 C 471.282 -1.27711 1.57536 0
M  V30 4738 C 471.615 -1.92547 0.252866 0
M  V30 4739 O 470.89 -1.7979 -0.742021 0
M  V30 4740 C 471.173 -2.35875 2.72094 0
M  V30 4741 C 471.026 -1.75664 4.1408 0
M  V30 4742 C 472.345 -3.37575 2.82367 0
M  V30 4743 H 469.464 -0.462971 0.573434 0
M  V30 4744 H 472.106 -0.578194 1.80989 0
M  V30 4745 H 470.256 -2.95488 2.52228 0
M  V30 4746 H 471.928 -1.20025 4.45412 0
M  V30 4747 H 470.171 -1.06154 4.20611 0
M  V30 4748 H 470.842 -2.54029 4.90075 0
M  V30 4749 H 473.318 -2.87929 3.00393 0
M  V30 4750 H 472.194 -4.1064 3.64233 0
M  V30 4751 H 472.455 -3.98743 1.90936 0
M  V30 4752 N 471.514 -1.37532 -0.769588 0
M  V30 4753 C 472.762 -1.32597 -1.5252 0
M  V30 4754 C 473.083 0.0884294 -1.94799 0
M  V30 4755 O 472.353 1.03289 -1.66458 0
M  V30 4756 H 470.933 -0.487846 -0.565699 0
M  V30 4757 H 473.595 -1.72044 -0.915806 0
M  V30 4758 H 472.691 -1.96643 -2.42359 0
M  V30 4759 N 472.992 0.995999 -1.22138 0
M  V30 4760 C 473.955 2.06711 -0.990109 0
M  V30 4761 C 474.955 1.60744 0.0422978 0
M  V30 4762 O 476.145 1.73095 -0.195895 0
M  V30 4763 C 473.277 3.37288 -0.49491 0
M  V30 4764 H 474.47 2.28661 -1.94047 0
M  V30 4765 H 472.023 1.16711 -1.03963 0
M  V30 4766 H 472.758 3.21022 0.459948 0
M  V30 4767 H 472.543 3.71986 -1.23971 0
M  V30 4768 H 474.033 4.16103 -0.353253 0
M  V30 4769 N 474.47 1.03057 1.19235 0
M  V30 4770 C 475.698 0.747697 1.92917 0
M  V30 4771 C 476.113 -0.69372 1.75593 0
M  V30 4772 O 475.47 -1.47191 1.07894 0
M  V30 4773 C 475.521 1.09159 3.44625 0
M  V30 4774 O 475.242 2.47641 3.61394 0
M  V30 4775 C 476.743 0.831763 4.35427 0
M  V30 4776 H 473.963 0.273453 0.612751 0
M  V30 4777 H 476.507 1.37552 1.51327 0
M  V30 4778 H 474.662 0.508919 3.84043 0
M  V30 4779 H 475.076 2.60499 4.55237 0
M  V30 4780 H 476.55 1.12233 5.4047 0
M  V30 4781 H 477.027 -0.233769 4.38577 0
M  V30 4782 H 477.633 1.39725 4.01693 0
M  V30 4783 N 475.948 -1.35272 0.808662 0
M  V30 4784 C 477.178 -2.02652 0.401953 0
M  V30 4785 C 477.586 -1.6108 -0.992462 0
M  V30 4786 O 476.929 -0.804984 -1.65123 0
M  V30 4787 C 476.991 -3.57174 0.408246 0
M  V30 4788 C 476.655 -4.22019 1.75353 0
M  V30 4789 C 477.652 -4.43552 2.71215 0
M  V30 4790 C 475.337 -4.59093 2.03811 0
M  V30 4791 C 477.331 -5.01264 3.93717 0
M  V30 4792 C 475.018 -5.16519 3.26576 0
M  V30 4793 C 476.016 -5.37546 4.21347 0
M  V30 4794 O 475.704 -5.93761 5.41944 0
M  V30 4795 H 475.436 -0.656495 0.161216 0
M  V30 4796 H 477.99 -1.73829 1.0942 0
M  V30 4797 H 476.22 -3.85197 -0.340608 0
M  V30 4798 H 477.909 -4.05893 0.0235623 0
M  V30 4799 H 478.675 -4.15288 2.50522 0
M  V30 4800 H 474.554 -4.42039 1.30854 0
M  V30 4801 H 478.098 -5.17592 4.67701 0
M  V30 4802 H 473.995 -5.4421 3.47139 0
M  V30 4803 H 474.763 -6.1221 5.43269 0
M  V30 4804 N 477.426 -0.562348 -1.47226 0
M  V30 4805 C 478.656 -0.0451619 -2.06551 0
M  V30 4806 C 479.064 1.25626 -1.41473 0
M  V30 4807 O 478.407 1.76563 -0.507061 0
M  V30 4808 C 478.469 0.216068 -3.5885 0
M  V30 4809 C 478.133 -0.996691 -4.45999 0
M  V30 4810 C 479.13 -1.90358 -4.83797 0
M  V30 4811 C 476.815 -1.21281 -4.87438 0
M  V30 4812 C 478.809 -3.01023 -5.6184 0
M  V30 4813 C 476.496 -2.32255 -5.65244 0
M  V30 4814 C 477.494 -3.21956 -6.02356 0
M  V30 4815 O 477.182 -4.31005 -6.78594 0
M  V30 4816 H 476.914 -0.0451646 -0.67449 0
M  V30 4817 H 479.468 -0.776842 -1.90143 0
M  V30 4818 H 477.698 1.00212 -3.7349 0
M  V30 4819 H 479.387 0.679264 -4.00176 0
M  V30 4820 H 480.153 -1.74868 -4.52378 0
M  V30 4821 H 476.032 -0.523767 -4.58015 0
M  V30 4822 H 479.576 -3.71064 -5.90726 0
M  V30 4823 H 475.473 -2.47715 -5.96077 0
M  V30 4824 H 476.241 -4.29118 -6.96994 0
M  V30 4825 N 478.904 1.54736 -0.299062 0
M  V30 4826 C 480.151 2.00101 0.310784 0
M  V30 4827 C 480.479 1.18746 1.54045 0
M  V30 4828 O 479.734 0.251198 1.94081 0
M  V30 4829 C 480.033 3.50199 0.713835 0
M  V30 4830 C 479.699 4.48997 -0.413873 0
M  V30 4831 C 478.361 4.7573 -0.723462 0
M  V30 4832 C 480.713 5.07839 -1.17257 0
M  V30 4833 C 478.041 5.5857 -1.79491 0
M  V30 4834 C 480.393 5.91844 -2.23392 0
M  V30 4835 C 479.057 6.16889 -2.54959 0
M  V30 4836 H 478.327 0.732221 0.113724 0
M  V30 4837 H 480.974 1.86888 -0.417756 0
M  V30 4838 H 479.279 3.61012 1.52243 0
M  V30 4839 H 480.976 3.82723 1.19684 0
M  V30 4840 H 477.566 4.28292 -0.162476 0
M  V30 4841 H 481.75 4.87188 -0.946651 0
M  V30 4842 H 477.006 5.76213 -2.04423 0
M  V30 4843 H 481.18 6.36465 -2.8264 0
M  V30 4844 H 478.807 6.80869 -3.38114 0
M  V30 4845 N 480.382 0.0267497 1.57577 0
M  V30 4846 C 481.33 -0.973923 2.11229 0
M  V30 4847 C 482.324 -1.33849 1.03831 0
M  V30 4848 O 483.53 -1.321 1.22269 0
M  V30 4849 H 479.905 -0.331844 0.674821 0
M  V30 4850 H 481.876 -0.496092 2.94247 0
M  V30 4851 C 480.625 -2.24798 2.65257 0
M  V30 4852 H 479.948 -1.9762 3.47543 0
M  V30 4853 H 481.388 -2.93031 3.06445 0
M  V30 4854 C 479.847 -2.97611 1.57891 0
M  V30 4855 O 480.377 -3.89629 0.97735 0
M  V30 4856 N 478.583 -2.59905 1.29992 0
M  V30 4857 H 478.13 -1.85154 1.79097 0
M  V30 4858 H 478.088 -3.08932 0.583798 0
M  V30 4859 N 481.861 -1.55662 -0.24637 0
M  V30 4860 C 482.808 -1.90361 -1.30504 0
M  V30 4861 C 483.778 -0.757905 -1.47801 0
M  V30 4862 O 484.963 -1.01161 -1.61775 0
M  V30 4863 C 482.103 -2.2042 -2.65535 0
M  V30 4864 C 481.216 -3.47799 -2.56242 0
M  V30 4865 C 480.351 -3.67426 -3.8363 0
M  V30 4866 C 479.39 -4.88403 -3.68956 0
M  V30 4867 N 478.527 -5.04548 -4.88237 0
M  V30 4868 H 483.367 -2.80645 -1.00213 0
M  V30 4869 H 480.904 -1.38924 -0.483577 0
M  V30 4870 H 482.862 -2.35853 -3.44135 0
M  V30 4871 H 481.492 -1.3334 -2.93973 0
M  V30 4872 H 480.544 -3.40694 -1.69208 0
M  V30 4873 H 481.856 -4.36544 -2.4131 0
M  V30 4874 H 481.01 -3.82821 -4.70673 0
M  V30 4875 H 479.749 -2.76914 -4.01459 0
M  V30 4876 H 478.754 -4.72984 -2.80296 0
M  V30 4877 H 479.979 -5.80375 -3.52621 0
M  V30 4878 H 477.925 -4.16974 -5.06427 0
M  V30 4879 H 477.842 -5.87384 -4.75937 0
M  V30 4880 H 479.11 -5.24355 -5.76777 0
M  V30 4881 N 483.339 0.512053 -1.4905 0
M  V30 4882 C 484.287 1.63568 -1.65373 0
M  V30 4883 C 485.281 1.61228 -0.519806 0
M  V30 4884 O 486.487 1.65869 -0.699101 0
M  V30 4885 H 482.862 0.542019 -0.521267 0
M  V30 4886 H 484.833 1.4695 -2.59708 0
M  V30 4887 C 483.582 3.01761 -1.7273 0
M  V30 4888 H 482.905 3.04263 -2.59353 0
M  V30 4889 H 484.345 3.79948 -1.8819 0
M  V30 4890 C 482.804 3.33609 -0.46973 0
M  V30 4891 O 483.334 3.99607 0.409492 0
M  V30 4892 N 481.54 2.88651 -0.336003 0
M  V30 4893 H 481.087 2.35119 -1.05247 0
M  V30 4894 H 481.045 3.10328 0.504363 0
M  V30 4895 N 484.817 1.37938 0.762283 0
M  V30 4896 C 485.75 1.2884 1.88349 0
M  V30 4897 C 486.728 0.167084 1.61739 0
M  V30 4898 O 487.912 0.34292 1.85355 0
M  V30 4899 C 485.039 0.994257 3.23778 0
M  V30 4900 C 484.085 2.13376 3.69287 0
M  V30 4901 S 484.918 3.75439 3.81845 0
M  V30 4902 C 486.074 3.48195 5.20107 0
M  V30 4903 H 486.307 2.23736 1.95779 0
M  V30 4904 H 483.84 1.23672 0.924368 0
M  V30 4905 H 485.798 0.83138 4.01993 0
M  V30 4906 H 484.459 0.0626251 3.14038 0
M  V30 4907 H 483.652 1.88319 4.67495 0
M  V30 4908 H 483.254 2.25726 2.98201 0
M  V30 4909 H 485.546 3.0377 6.05583 0
M  V30 4910 H 486.489 4.45765 5.50181 0
M  V30 4911 H 486.897 2.82905 4.88493 0
M  V30 4912 N 486.295 -0.989507 1.22664 0
M  V30 4913 C 487.52 -1.77031 1.08051 0
M  V30 4914 C 487.945 -1.84535 -0.364483 0
M  V30 4915 O 487.303 -1.3003 -1.2634 0
M  V30 4916 C 487.351 -3.18 1.70024 0
M  V30 4917 O 486.455 -4.01161 0.956216 0
M  V30 4918 H 485.796 -0.545008 0.379292 0
M  V30 4919 H 488.326 -1.24277 1.62531 0
M  V30 4920 H 488.336 -3.68616 1.74888 0
M  V30 4921 H 487.011 -3.11853 2.75174 0
M  V30 4922 H 485.588 -3.59687 0.98384 0
M  V30 4923 N 487.773 -1.03688 -1.18687 0
M  V30 4924 C 489.001 -0.757918 -1.92518 0
M  V30 4925 C 489.416 0.684398 -1.75959 0
M  V30 4926 O 488.773 1.46617 -1.08673 0
M  V30 4927 C 488.824 -1.10985 -3.44042 0
M  V30 4928 O 488.545 -2.49554 -3.60076 0
M  V30 4929 C 490.046 -0.854844 -4.3498 0
M  V30 4930 H 487.266 -0.276699 -0.611293 0
M  V30 4931 H 489.81 -1.38352 -1.50595 0
M  V30 4932 H 487.965 -0.529279 -3.83767 0
M  V30 4933 H 488.379 -2.6291 -4.53849 0
M  V30 4934 H 489.853 -1.15098 -5.39867 0
M  V30 4935 H 490.33 0.210507 -4.38695 0
M  V30 4936 H 490.936 -1.41853 -4.00946 0
M  V30 4937 N 489.251 1.34841 -0.815825 0
M  V30 4938 C 490.481 2.02436 -0.412695 0
M  V30 4939 C 490.889 1.61604 0.983906 0
M  V30 4940 O 490.232 0.813729 1.64694 0
M  V30 4941 C 490.294 3.56953 -0.427182 0
M  V30 4942 C 489.958 4.21083 -1.77589 0
M  V30 4943 C 490.955 4.42107 -2.73564 0
M  V30 4944 C 488.64 4.58006 -2.06243 0
M  V30 4945 C 490.634 4.99169 -3.9637 0
M  V30 4946 C 488.321 5.1478 -3.2931 0
M  V30 4947 C 489.319 5.35304 -4.24191 0
M  V30 4948 O 489.007 5.90878 -5.45086 0
M  V30 4949 H 488.739 0.655631 -0.164695 0
M  V30 4950 H 491.293 1.73246 -1.1034 0
M  V30 4951 H 489.523 3.85372 0.320175 0
M  V30 4952 H 491.212 4.05875 -0.0450875 0
M  V30 4953 H 491.978 4.13953 -2.52721 0
M  V30 4954 H 487.857 4.41339 -1.33196 0
M  V30 4955 H 491.401 5.15105 -4.70439 0
M  V30 4956 H 487.298 5.42362 -3.5002 0
M  V30 4957 H 488.066 6.0932 -5.46508 0
M  V30 4958 N 490.729 0.570148 1.46925 0
M  V30 4959 C 491.975 0.0510284 2.02736 0
M  V30 4960 C 492.308 -1.3006 1.44215 0
M  V30 4961 O 491.583 -1.84932 0.602521 0
M  V30 4962 C 491.866 -0.028215 3.60089 0
M  V30 4963 C 491.719 1.35142 4.29018 0
M  V30 4964 C 493.038 -0.735181 4.33916 0
M  V30 4965 H 490.157 0.0200178 0.736728 0
M  V30 4966 H 492.799 0.73493 1.75211 0
M  V30 4967 H 490.949 -0.610648 3.83671 0
M  V30 4968 H 492.621 1.97806 4.16738 0
M  V30 4969 H 490.864 1.9226 3.88868 0
M  V30 4970 H 491.535 1.24857 5.37694 0
M  V30 4971 H 494.011 -0.240519 4.15404 0
M  V30 4972 H 492.887 -0.759622 5.43618 0
M  V30 4973 H 493.148 -1.79397 4.04066 0
M  V30 4974 N 492.207 -1.54576 0.307264 0
M  V30 4975 C 493.484 -1.92377 -0.353605 0
M  V30 4976 C 493.864 -1.23517 -1.71192 0
M  V30 4977 O 493.212 -0.373101 -2.25433 0
M  V30 4978 C 493.422 -3.45928 -0.462039 0
M  V30 4979 C 494.77 -4.18278 -0.729975 0
M  V30 4980 O 495.794 -3.51997 -0.545605 0
M  V30 4981 O 494.653 -5.3563 -1.08454 0
M  V30 4982 H 491.747 -0.802747 -0.198812 0
M  V30 4983 H 494.293 -1.65929 0.355783 0
M  V30 4984 H 493.065 -3.88187 0.492592 0
M  V30 4985 H 492.688 -3.78431 -1.21965 0
M  V30 4986 N 493.685 -0.035106 -1.57561 0
M  V30 4987 C 494.915 0.651312 -1.96065 0
M  V30 4988 C 495.323 1.6585 -0.910514 0
M  V30 4989 O 494.666 1.83336 0.11552 0
M  V30 4990 C 494.728 1.40897 -3.30739 0
M  V30 4991 C 494.392 0.559436 -4.53563 0
M  V30 4992 C 495.389 -0.16778 -5.19629 0
M  V30 4993 C 493.074 0.495079 -4.99854 0
M  V30 4994 C 495.068 -0.947963 -6.30311 0
M  V30 4995 C 492.755 -0.288804 -6.10417 0
M  V30 4996 C 493.753 -1.00903 -6.75505 0
M  V30 4997 O 493.441 -1.78005 -7.83945 0
M  V30 4998 H 493.173 0.184036 -0.650467 0
M  V30 4999 H 495.727 -0.0929677 -2.05189 0
M  V30 5000 H 493.957 2.19852 -3.18123 0
M  V30 5001 H 495.646 1.98407 -3.54104 0
M  V30 5002 H 496.412 -0.12743 -4.84833 0
M  V30 5003 H 492.291 1.04524 -4.48994 0
M  V30 5004 H 495.835 -1.51064 -6.81047 0
M  V30 5005 H 491.732 -0.33085 -6.44652 0
M  V30 5006 H 492.5 -1.70046 -8.00641 0
M  V30 5007 N 495.163 1.55791 0.238111 0
M  V30 5008 C 496.412 1.77234 0.962868 0
M  V30 5009 C 496.725 0.600661 1.86149 0
M  V30 5010 O 497.931 0.698315 2.62366 0
M  V30 5011 C 496.387 3.13808 1.76218 0
M  V30 5012 C 495.995 4.3865 0.910518 0
M  V30 5013 C 497.739 3.44585 2.47914 0
M  V30 5014 C 495.646 5.66252 1.70623 0
M  V30 5015 H 494.576 0.660731 0.36325 0
M  V30 5016 H 497.227 1.8221 0.217242 0
M  V30 5017 H 495.609 3.02963 2.55009 0
M  V30 5018 H 496.783 4.60507 0.164316 0
M  V30 5019 H 495.098 4.15271 0.30647 0
M  V30 5020 H 497.695 4.3714 3.07917 0
M  V30 5021 H 498.038 2.66314 3.19973 0
M  V30 5022 H 498.571 3.56685 1.76127 0
M  V30 5023 H 495.31 6.47369 1.02923 0
M  V30 5024 H 494.83 5.48483 2.42748 0
M  V30 5025 H 496.509 6.05829 2.27114 0
M  V30 5026 N 496.642 -0.504142 1.49319 0
M  V30 5027 C 497.891 -1.25507 1.57895 0
M  V30 5028 C 498.204 -1.93735 0.269433 0
M  V30 5029 O 499.41 -2.70492 0.233706 0
M  V30 5030 C 497.866 -2.27869 2.78574 0
M  V30 5031 C 497.474 -1.65594 4.16272 0
M  V30 5032 C 499.218 -3.0381 2.96479 0
M  V30 5033 C 497.125 -2.66048 5.28178 0
M  V30 5034 H 496.055 -0.47212 0.587894 0
M  V30 5035 H 498.706 -0.52931 1.757 0
M  V30 5036 H 497.088 -3.03594 2.54257 0
M  V30 5037 H 498.262 -0.958826 4.50714 0
M  V30 5038 H 496.577 -1.02055 4.037 0
M  V30 5039 H 499.174 -3.78925 3.77253 0
M  V30 5040 H 499.517 -3.61235 2.06918 0
M  V30 5041 H 500.05 -2.352 3.20821 0
M  V30 5042 H 496.789 -2.13408 6.19788 0
M  V30 5043 H 496.309 -3.34009 4.98195 0
M  V30 5044 H 497.988 -3.28536 5.57381 0
M  V30 5045 N 498.12 -1.38341 -0.754957 0
M  V30 5046 C 499.068 -1.35573 -1.89005 0
M  V30 5047 C 500.062 -0.241824 -1.67665 0
M  V30 5048 O 501.268 -0.410785 -1.7525 0
M  V30 5049 H 497.643 -0.422898 -0.621821 0
M  V30 5050 H 499.614 -2.31359 -1.88455 0
M  V30 5051 C 498.363 -1.19631 -3.26471 0
M  V30 5052 H 497.686 -2.04605 -3.43477 0
M  V30 5053 H 499.126 -1.21748 -4.06144 0
M  V30 5054 C 497.585 0.0968705 -3.36761 0
M  V30 5055 O 498.115 1.07439 -3.87066 0
M  V30 5056 N 496.321 0.153242 -2.90196 0
M  V30 5057 H 495.868 -0.642908 -2.49448 0
M  V30 5058 H 495.826 1.01807 -2.9746 0
M  V30 5059 N 499.598 0.982988 -1.23187 0
M  V30 5060 C 500.53 2.07729 -0.968572 0
M  V30 5061 C 501.543 1.62702 0.0564821 0
M  V30 5062 O 502.732 1.77603 -0.178733 0
M  V30 5063 C 499.832 3.36071 -0.436974 0
M  V30 5064 C 499.005 4.10081 -1.52159 0
M  V30 5065 C 498.064 5.16701 -0.99532 0
M  V30 5066 O 497.09 5.43727 -1.68373 0
M  V30 5067 N 498.292 5.80226 0.178192 0
M  V30 5068 H 501.057 2.30894 -1.9107 0
M  V30 5069 H 498.618 1.14949 -1.1401 0
M  V30 5070 H 500.61 4.04639 -0.0700051 0
M  V30 5071 H 499.18 3.09893 0.410509 0
M  V30 5072 H 498.4 3.36004 -2.06144 0
M  V30 5073 H 499.688 4.56295 -2.25105 0
M  V30 5074 H 499.086 5.60651 0.754096 0
M  V30 5075 H 497.643 6.49982 0.486449 0
M  V30 5076 N 501.076 1.04316 1.18135 0
M  V30 5077 C 502.325 0.74319 1.87509 0
M  V30 5078 C 502.638 -0.732136 1.81381 0
M  V30 5079 O 503.844 -1.14572 2.46141 0
M  V30 5080 C 502.3 1.27913 3.36402 0
M  V30 5081 C 501.908 2.78326 3.51053 0
M  V30 5082 C 503.652 1.0558 4.11161 0
M  V30 5083 C 501.559 3.25266 4.93919 0
M  V30 5084 H 500.489 0.274313 0.702331 0
M  V30 5085 H 503.14 1.25931 1.33467 0
M  V30 5086 H 501.522 0.690853 3.89927 0
M  V30 5087 H 502.696 3.42933 3.07788 0
M  V30 5088 H 501.011 2.991 2.89704 0
M  V30 5089 H 503.608 1.38161 5.16542 0
M  V30 5090 H 503.951 -0.00684729 4.16299 0
M  V30 5091 H 504.484 1.60882 3.63816 0
M  V30 5092 H 501.223 4.30922 4.9395 0
M  V30 5093 H 500.743 2.65396 5.3789 0
M  V30 5094 H 502.422 3.19433 5.62647 0
M  V30 5095 N 502.554 -1.34406 0.822964 0
M  V30 5096 C 503.831 -1.92733 0.333641 0
M  V30 5097 C 504.211 -1.75107 -1.17901 0
M  V30 5098 O 503.559 -1.12983 -1.98613 0
M  V30 5099 C 503.769 -3.40557 0.763023 0
M  V30 5100 C 505.117 -4.17709 0.761879 0
M  V30 5101 O 506.141 -3.49141 0.705606 0
M  V30 5102 O 505 -5.40082 0.835109 0
M  V30 5103 H 502.094 -0.821964 0.0911249 0
M  V30 5104 H 504.64 -1.4338 0.907757 0
M  V30 5105 H 503.412 -3.47187 1.8049 0
M  V30 5106 H 503.035 -3.97259 0.164605 0
M  V30 5107 N 504.032 -0.577932 -1.46621 0
M  V30 5108 C 505.257 -0.0652536 -2.07297 0
M  V30 5109 C 505.682 1.22828 -1.4246 0
M  V30 5110 O 505.04 1.74075 -0.506718 0
M  V30 5111 C 505.088 0.0920589 -3.60482 0
M  V30 5112 O 504.192 1.14972 -3.96049 0
M  V30 5113 H 503.533 -0.06065 -0.661224 0
M  V30 5114 H 506.063 -0.799515 -1.88332 0
M  V30 5115 H 506.073 0.299741 -4.06897 0
M  V30 5116 H 504.748 -0.852612 -4.07067 0
M  V30 5117 H 503.325 0.920879 -3.61351 0
M  V30 5118 N 505.51 1.54411 -0.315457 0
M  V30 5119 C 506.787 1.92562 0.343398 0
M  V30 5120 C 507.167 1.24423 1.70535 0
M  V30 5121 O 506.515 0.385051 2.25232 0
M  V30 5122 C 506.725 3.46168 0.443687 0
M  V30 5123 C 508.073 4.18659 0.707783 0
M  V30 5124 O 509.097 3.52281 0.52693 0
M  V30 5125 O 507.956 5.36198 1.05612 0
M  V30 5126 H 505.05 0.80379 0.194552 0
M  V30 5127 H 507.596 1.65738 -0.364577 0
M  V30 5128 H 506.368 3.8792 -0.513172 0
M  V30 5129 H 505.991 3.79073 1.19956 0
M  V30 5130 N 506.988 0.0434614 1.5754 0
M  V30 5131 C 507.936 -0.951465 2.1225 0
M  V30 5132 C 508.93 -1.3274 1.05245 0
M  V30 5133 O 510.136 -1.30795 1.23663 0
M  V30 5134 H 506.511 -0.324667 0.678303 0
M  V30 5135 H 508.482 -0.464855 2.94757 0
M  V30 5136 C 507.231 -2.21972 2.67626 0
M  V30 5137 H 506.554 -1.93923 3.4962 0
M  V30 5138 H 507.994 -2.89765 3.09536 0
M  V30 5139 C 506.453 -2.95919 1.61038 0
M  V30 5140 O 506.983 -3.8857 1.01862 0
M  V30 5141 N 505.189 -2.58511 1.32741 0
M  V30 5142 H 504.736 -1.83244 1.81051 0
M  V30 5143 H 504.694 -3.08296 0.616531 0
M  V30 5144 N 508.466 -1.55915 -0.229846 0
M  V30 5145 C 509.413 -1.91734 -1.28478 0
M  V30 5146 C 510.383 -0.773539 -1.46988 0
M  V30 5147 O 511.568 -1.02871 -1.60693 0
M  V30 5148 C 508.708 -2.23224 -2.63182 0
M  V30 5149 C 507.821 -3.50497 -2.52539 0
M  V30 5150 C 506.956 -3.71474 -3.79711 0
M  V30 5151 C 505.995 -4.92289 -3.63755 0
M  V30 5152 N 505.132 -5.09698 -4.82858 0
M  V30 5153 H 509.972 -2.81692 -0.972308 0
M  V30 5154 H 507.509 -1.39429 -0.468815 0
M  V30 5155 H 509.467 -2.3949 -3.41614 0
M  V30 5156 H 508.097 -1.36451 -2.92542 0
M  V30 5157 H 507.149 -3.4247 -1.65585 0
M  V30 5158 H 508.461 -4.39079 -2.36666 0
M  V30 5159 H 507.615 -3.87791 -4.66586 0
M  V30 5160 H 506.354 -2.81157 -3.985 0
M  V30 5161 H 505.359 -4.7593 -2.75264 0
M  V30 5162 H 506.584 -5.84083 -3.46445 0
M  V30 5163 H 504.53 -4.22322 -5.01976 0
M  V30 5164 H 504.447 -5.92399 -4.69681 0
M  V30 5165 H 505.715 -5.30443 -5.71183 0
M  V30 5166 N 509.944 0.496216 -1.49584 0
M  V30 5167 C 510.874 1.60576 -1.69521 0
M  V30 5168 C 511.855 1.61169 -0.543933 0
M  V30 5169 O 513.04 1.77834 -0.78031 0
M  V30 5170 C 510.17 2.99038 -1.76616 0
M  V30 5171 C 509.124 3.13312 -2.91581 0
M  V30 5172 C 508.45 4.53172 -2.83794 0
M  V30 5173 C 509.75 2.92886 -4.32452 0
M  V30 5174 H 511.444 1.44146 -2.62416 0
M  V30 5175 H 508.99 0.692024 -1.26282 0
M  V30 5176 H 510.943 3.76564 -1.8915 0
M  V30 5177 H 509.667 3.16568 -0.80324 0
M  V30 5178 H 508.326 2.38213 -2.78658 0
M  V30 5179 H 507.974 4.67585 -1.854 0
M  V30 5180 H 507.674 4.63662 -3.60958 0
M  V30 5181 H 509.198 5.32752 -2.98342 0
M  V30 5182 H 510.612 3.60178 -4.46032 0
M  V30 5183 H 509.009 3.14844 -5.10875 0
M  V30 5184 H 510.079 1.88966 -4.46565 0
M  V30 5185 N 511.423 1.38739 0.74761 0
M  V30 5186 C 512.671 1.35007 1.50391 0
M  V30 5187 C 512.992 -0.0574274 1.94915 0
M  V30 5188 O 512.262 -1.00628 1.6808 0
M  V30 5189 H 510.842 0.496784 0.557866 0
M  V30 5190 H 513.504 1.73479 0.888319 0
M  V30 5191 H 512.6 2.00474 2.392 0
M  V30 5192 N 512.901 -0.976442 1.23707 0
M  V30 5193 C 514.147 -1.72081 1.07312 0
M  V30 5194 C 514.48 -1.90275 -0.388476 0
M  V30 5195 O 513.755 -1.4579 -1.28746 0
M  V30 5196 C 514.038 -3.11675 1.80363 0
M  V30 5197 C 513.891 -3.01027 3.3422 0
M  V30 5198 C 515.21 -4.1117 1.5693 0
M  V30 5199 H 512.329 -0.624583 0.391236 0
M  V30 5200 H 514.971 -1.13649 1.52263 0
M  V30 5201 H 513.121 -3.61559 1.42153 0
M  V30 5202 H 514.793 -2.58637 3.81975 0
M  V30 5203 H 513.036 -2.3744 3.63049 0
M  V30 5204 H 513.707 -3.9988 3.80525 0
M  V30 5205 H 516.183 -3.7011 1.90151 0
M  V30 5206 H 515.059 -5.06928 2.10513 0
M  V30 5207 H 515.32 -4.392 0.505548 0
M  V30 5208 N 514.379 -1.04941 -1.1758 0
M  V30 5209 C 515.627 -0.756492 -1.87408 0
M  V30 5210 C 515.948 0.718478 -1.81281 0
M  V30 5211 O 515.218 1.519 -1.23706 0
M  V30 5212 H 513.798 -0.276841 -0.693807 0
M  V30 5213 H 516.46 -1.32803 -1.42652 0
M  V30 5214 H 515.556 -1.06918 -2.93215 0
M  V30 5215 N 515.857 1.33968 -0.830081 0
M  V30 5216 C 517.082 2.02813 -0.433796 0
M  V30 5217 C 517.507 1.62076 0.954614 0
M  V30 5218 O 516.865 0.808955 1.62252 0
M  V30 5219 C 516.913 3.56348 -0.552115 0
M  V30 5220 O 516.017 4.10202 0.425191 0
M  V30 5221 H 515.358 0.639817 -0.177567 0
M  V30 5222 H 517.888 1.7106 -1.12248 0
M  V30 5223 H 517.898 4.05722 -0.430513 0
M  V30 5224 H 516.573 3.85344 -1.56471 0
M  V30 5225 H 515.15 3.71979 0.261878 0
M  V30 5226 N 517.335 0.585699 1.46312 0
M  V30 5227 C 518.612 0.00542031 1.95599 0
M  V30 5228 C 518.992 -1.45619 1.52834 0
M  V30 5229 O 518.34 -2.14759 0.780446 0
M  V30 5230 C 518.55 0.180601 3.48532 0
M  V30 5231 C 519.898 0.049979 4.24571 0
M  V30 5232 O 520.922 0.109589 3.56031 0
M  V30 5233 O 519.781 -0.0832226 5.46437 0
M  V30 5234 H 516.875 -0.0481281 0.825598 0
M  V30 5235 H 519.421 0.654227 1.56582 0
M  V30 5236 H 518.193 1.19657 3.72556 0
M  V30 5237 H 517.816 -0.504498 3.94386 0
M  V30 5238 N 518.813 -1.54241 0.323641 0
M  V30 5239 C 520.09 -1.92741 -0.333181 0
M  V30 5240 C 520.47 -1.25326 -1.69872 0
M  V30 5241 O 519.818 -0.396991 -2.25025 0
M  V30 5242 C 520.028 -3.46399 -0.425322 0
M  V30 5243 C 521.376 -4.19029 -0.68557 0
M  V30 5244 O 522.4 -3.52555 -0.50824 0
M  V30 5245 O 521.259 -5.36751 -1.02767 0
M  V30 5246 H 518.353 -0.804811 -0.190286 0
M  V30 5247 H 520.899 -1.65542 0.373361 0
M  V30 5248 H 519.671 -3.87643 0.533737 0
M  V30 5249 H 519.294 -3.79704 -1.17944 0
M  V30 5250 N 520.291 -0.0518155 -1.57515 0
M  V30 5251 C 521.519 0.631395 -1.9703 0
M  V30 5252 C 521.934 1.64341 -0.92938 0
M  V30 5253 O 521.291 1.82296 0.0863266 0
M  V30 5254 C 521.342 1.31774 -3.36627 0
M  V30 5255 O 521.063 0.346247 -4.3673 0
M  V30 5256 C 522.564 2.09065 -3.90905 0
M  V30 5257 H 519.784 0.172576 -0.648428 0
M  V30 5258 H 522.328 -0.118306 -2.04158 0
M  V30 5259 H 520.483 2.01867 -3.30649 0
M  V30 5260 H 520.897 0.836226 -5.17791 0
M  V30 5261 H 522.371 2.52508 -4.9086 0
M  V30 5262 H 522.848 2.93908 -3.26366 0
M  V30 5263 H 523.454 1.43882 -4.00223 0
M  V30 5264 N 521.769 1.56035 0.221574 0
M  V30 5265 C 523.015 1.79312 0.947372 0
M  V30 5266 C 523.348 0.621453 1.83988 0
M  V30 5267 O 522.623 -0.379287 1.90766 0
M  V30 5268 C 522.906 3.1267 1.78633 0
M  V30 5269 C 522.759 4.40284 0.920312 0
M  V30 5270 C 524.078 3.4247 2.7641 0
M  V30 5271 H 521.197 0.652328 0.342982 0
M  V30 5272 H 523.839 1.88765 0.216244 0
M  V30 5273 H 521.989 3.04741 2.40967 0
M  V30 5274 H 523.661 4.60232 0.313718 0
M  V30 5275 H 521.904 4.33212 0.225734 0
M  V30 5276 H 522.575 5.30033 1.54171 0
M  V30 5277 H 525.051 3.50526 2.24211 0
M  V30 5278 H 523.927 4.3695 3.32213 0
M  V30 5279 H 524.188 2.64635 3.54148 0
M  V30 5280 N 523.247 -0.488276 1.49845 0
M  V30 5281 C 524.21 -1.57069 1.66919 0
M  V30 5282 C 525.21 -1.51445 0.540479 0
M  V30 5283 O 526.4 -1.5437 0.807188 0
M  V30 5284 C 523.532 -2.96718 1.67844 0
M  V30 5285 H 524.725 -1.43254 2.63474 0
M  V30 5286 H 522.278 -0.713435 1.39068 0
M  V30 5287 H 523.013 -3.15996 0.7292 0
M  V30 5288 H 522.798 -3.02208 2.49826 0
M  V30 5289 H 524.288 -3.75335 1.83066 0
M  V30 5290 N 524.725 -1.39134 -0.740242 0
M  V30 5291 C 525.971 -1.36273 -1.50192 0
M  V30 5292 C 526.304 0.0430136 -1.94152 0
M  V30 5293 O 525.579 1.00691 -1.66408 0
M  V30 5294 C 525.862 -2.33041 -2.74525 0
M  V30 5295 C 525.715 -3.82535 -2.36617 0
M  V30 5296 C 527.034 -2.27723 -3.76604 0
M  V30 5297 H 524.153 -0.496323 -0.544823 0
M  V30 5298 H 526.795 -1.70085 -0.846815 0
M  V30 5299 H 524.945 -2.04337 -3.30422 0
M  V30 5300 H 526.617 -4.21967 -1.86391 0
M  V30 5301 H 524.86 -3.99565 -1.68909 0
M  V30 5302 H 525.531 -4.45723 -3.2563 0
M  V30 5303 H 528.007 -2.53091 -3.30279 0
M  V30 5304 H 526.883 -2.97519 -4.61274 0
M  V30 5305 H 527.144 -1.28049 -4.2315 0
M  V30 5306 N 526.204 0.969867 -1.24223 0
M  V30 5307 C 527.452 1.70918 -1.0785 0
M  V30 5308 C 527.773 1.91186 0.383763 0
M  V30 5309 O 527.043 1.48806 1.27411 0
M  V30 5310 H 525.623 0.633334 -0.396103 0
M  V30 5311 H 528.285 1.16689 -1.56108 0
M  V30 5312 H 527.381 2.69455 -1.57482 0
M  V30 5313 N 527.682 1.05563 1.17022 0
M  V30 5314 C 528.931 0.763036 1.8671 0
M  V30 5315 C 529.244 -0.712857 1.82147 0
M  V30 5316 O 530.45 -1.11955 2.47343 0
M  V30 5317 C 528.906 1.31474 3.35026 0
M  V30 5318 C 528.514 2.82034 3.48081 0
M  V30 5319 C 530.258 1.09935 4.10018 0
M  V30 5320 C 528.165 3.30486 4.90442 0
M  V30 5321 H 527.095 0.281747 0.699382 0
M  V30 5322 H 529.746 1.2734 1.32124 0
M  V30 5323 H 528.128 0.732171 3.89173 0
M  V30 5324 H 529.302 3.46178 3.04133 0
M  V30 5325 H 527.617 3.02156 2.86515 0
M  V30 5326 H 530.214 1.43632 5.15048 0
M  V30 5327 H 530.557 0.0373072 4.16283 0
M  V30 5328 H 531.09 1.64732 3.62089 0
M  V30 5329 H 527.829 4.36137 4.89352 0
M  V30 5330 H 527.349 2.71086 5.35044 0
M  V30 5331 H 529.028 3.25382 5.59227 0
M  V30 5332 N 529.16 -1.33526 0.837174 0
M  V30 5333 C 530.406 -1.9813 0.432704 0
M  V30 5334 C 530.739 -1.66168 -1.00508 0
M  V30 5335 O 530.014 -0.94069 -1.70239 0
M  V30 5336 C 530.297 -3.54151 0.651834 0
M  V30 5337 C 530.15 -3.95806 2.13676 0
M  V30 5338 C 531.469 -4.39993 0.0968937 0
M  V30 5339 H 528.588 -0.719713 0.15869 0
M  V30 5340 H 531.23 -1.58193 1.05237 0
M  V30 5341 H 529.38 -3.88301 0.124369 0
M  V30 5342 H 531.052 -3.71921 2.72896 0
M  V30 5343 H 529.295 -3.45599 2.62191 0
M  V30 5344 H 529.966 -5.0447 2.24084 0
M  V30 5345 H 532.442 -4.12479 0.547733 0
M  V30 5346 H 531.318 -5.48186 0.279917 0
M  V30 5347 H 531.579 -4.3066 -0.9992 0
M  V30 5348 N 530.638 -0.59345 -1.46 0
M  V30 5349 C 531.868 -0.0889642 -2.06408 0
M  V30 5350 C 532.276 1.22597 -1.44106 0
M  V30 5351 O 531.619 1.75448 -0.544398 0
M  V30 5352 C 531.681 0.139902 -3.59228 0
M  V30 5353 C 531.345 -1.09107 -4.43784 0
M  V30 5354 C 532.342 -2.00577 -4.79651 0
M  V30 5355 C 530.027 -1.31593 -4.84756 0
M  V30 5356 C 532.021 -3.12873 -5.55328 0
M  V30 5357 C 529.708 -2.44192 -5.60191 0
M  V30 5358 C 530.706 -3.34661 -5.95392 0
M  V30 5359 O 530.394 -4.45302 -6.69299 0
M  V30 5360 H 530.126 -0.0594613 -0.67338 0
M  V30 5361 H 532.68 -0.817 -1.88452 0
M  V30 5362 H 530.91 0.922672 -3.75531 0
M  V30 5363 H 532.599 0.594228 -4.01527 0
M  V30 5364 H 533.365 -1.84425 -4.48567 0
M  V30 5365 H 529.244 -0.620801 -4.56801 0
M  V30 5366 H 532.788 -3.83511 -5.82722 0
M  V30 5367 H 528.685 -2.60303 -5.90688 0
M  V30 5368 H 529.453 -4.43805 -6.87735 0
M  V30 5369 N 532.116 1.54067 -0.331816 0
M  V30 5370 C 533.048 2.22139 0.564538 0
M  V30 5371 C 534.061 1.22408 1.07332 0
M  V30 5372 O 535.25 1.4883 0.985481 0
M  V30 5373 C 532.35 2.87876 1.78831 0
M  V30 5374 C 531.523 4.13817 1.41682 0
M  V30 5375 C 530.582 4.63072 2.49901 0
M  V30 5376 O 529.608 5.27562 2.13699 0
M  V30 5377 N 530.81 4.38001 3.80967 0
M  V30 5378 H 533.575 2.99694 -0.0183736 0
M  V30 5379 H 531.136 1.61153 -0.155396 0
M  V30 5380 H 533.128 3.17747 2.50637 0
M  V30 5381 H 531.698 2.13977 2.27887 0
M  V30 5382 H 530.918 3.9062 0.530044 0
M  V30 5383 H 532.206 4.95762 1.14443 0
M  V30 5384 H 531.604 3.864 4.13173 0
M  V30 5385 H 530.161 4.72507 4.48977 0
M  V30 5386 N 533.594 0.0601682 1.57485 0
M  V30 5387 C 534.841 -0.611594 1.93043 0
M  V30 5388 C 535.169 -1.70317 0.939274 0
M  V30 5389 O 534.424 -1.95644 -0.046996 0
M  V30 5390 C 534.723 -1.23831 3.35262 0
M  V30 5391 C 534.389 -0.274037 4.50066 0
M  V30 5392 C 533.051 -0.00872394 4.81199 0
M  V30 5393 C 535.403 0.386308 5.19766 0
M  V30 5394 C 532.731 0.924218 5.79375 0
M  V30 5395 C 535.083 1.3075 6.1894 0
M  V30 5396 C 533.747 1.58139 6.48497 0
M  V30 5397 H 533.017 -0.223798 0.706396 0
M  V30 5398 H 535.664 0.128566 1.91068 0
M  V30 5399 H 533.969 -2.05394 3.33647 0
M  V30 5400 H 535.666 -1.76517 3.60059 0
M  V30 5401 H 532.256 -0.491008 4.25778 0
M  V30 5402 H 536.44 0.194436 4.95919 0
M  V30 5403 H 531.696 1.1438 6.00606 0
M  V30 5404 H 535.87 1.82519 6.72056 0
M  V30 5405 H 533.497 2.30593 7.24383 0
M  V30 5406 O 535.111 -1.61298 -0.0807432 0
M  V30 5407 H 535.802 -1.80309 -0.707697 0
M  V30 END ATOM
M  V30 BEGIN BOND
M  V30 END BOND
M  V30 END CTAB
M  END
$$$$
