drugbank_target|P02930 Outer membrane protein TolC (DB03350)
 OpenBabel12092120023D

  0  0  0     0  0            999 V3000
M  V30 BEGIN CTAB
M  V30 COUNTS 7513 7565 0 0 0
M  V30 BEGIN ATOM
M  V30 1 H -0.908 1.98254 -0.117106 0
M  V30 2 N 0 1.576 0 0
M  V30 3 C 0.933 2.03868 1.02534 0
M  V30 4 C 1.911 0.928543 1.3348 0
M  V30 5 O 3.095 1.19667 1.45644 0
M  V30 6 C 0.222 2.43627 2.35294 0
M  V30 7 C -0.732 3.65373 2.2001 0
M  V30 8 S 0.101 5.13292 1.52614 0
M  V30 9 C 1.257 5.56322 2.86805 0
M  V30 10 H 1.49 2.90518 0.631377 0
M  V30 11 H -0.977 1.52953 0.210867 0
M  V30 12 H 0.981 2.67203 3.11629 0
M  V30 13 H -0.358 1.57376 2.7183 0
M  V30 14 H -1.165 3.90944 3.18086 0
M  V30 15 H -1.563 3.418 1.51819 0
M  V30 16 H 0.729 5.58782 3.83104 0
M  V30 17 H 1.672 6.56266 2.65933 0
M  V30 18 H 2.08 4.83886 2.90714 0
M  V30 19 N 1.4781 -0.272755 1.55222 0
M  V30 20 C 2.4251 -1.33716 1.88119 0
M  V30 21 C 3.3951 -1.49066 0.73271 0
M  V30 22 O 4.5801 -1.63469 0.984002 0
M  V30 23 C 1.7201 -2.69238 2.15882 0
M  V30 24 C 0.8331 -2.62108 3.43399 0
M  V30 25 C -0.0319 -3.89811 3.60861 0
M  V30 26 C -0.9929 -3.77193 4.8207 0
M  V30 27 N -1.8559 -4.9673 4.96189 0
M  V30 28 H 2.9841 -1.04962 2.78903 0
M  V30 29 H 0.5211 -0.507088 1.38083 0
M  V30 30 H 2.4791 -3.48089 2.29978 0
M  V30 31 H 1.1091 -2.96194 1.28331 0
M  V30 32 H 0.1611 -1.74967 3.37773 0
M  V30 33 H 1.4731 -2.48685 4.32386 0
M  V30 34 H 0.6271 -4.77103 3.74777 0
M  V30 35 H -0.6339 -4.06102 2.7006 0
M  V30 36 H -1.6289 -2.88284 4.68159 0
M  V30 37 H -0.4039 -3.62421 5.74307 0
M  V30 38 H -2.4579 -5.13431 4.08319 0
M  V30 39 H -2.5409 -4.85839 5.79221 0
M  V30 40 H -1.2729 -5.85594 5.1449 0
M  V30 41 N 2.9562 -1.48159 -0.537278 0
M  V30 42 C 3.9032 -1.62138 -1.64256 0
M  V30 43 C 4.8732 -0.463668 -1.59497 0
M  V30 44 O 6.0582 -0.686241 -1.78032 0
M  V30 45 C 3.1982 -1.66028 -3.02537 0
M  V30 46 C 2.3112 -2.92855 -3.17585 0
M  V30 47 C 1.4462 -2.87952 -4.46382 0
M  V30 48 C 0.4852 -4.09516 -4.54932 0
M  V30 49 N -0.3778 -4.02733 -5.75109 0
M  V30 50 H 4.4622 -2.56529 -1.51647 0
M  V30 51 H 1.9992 -1.27224 -0.738414 0
M  V30 52 H 3.9572 -1.66265 -3.82638 0
M  V30 53 H 2.5872 -0.751331 -3.13934 0
M  V30 54 H 1.6392 -3.02395 -2.30784 0
M  V30 55 H 2.9512 -3.82822 -3.19764 0
M  V30 56 H 2.1052 -2.8655 -5.34765 0
M  V30 57 H 0.8442 -1.95702 -4.46712 0
M  V30 58 H -0.1508 -4.11201 -3.64957 0
M  V30 59 H 1.0742 -5.02917 -4.56346 0
M  V30 60 H -0.9798 -3.13299 -5.76351 0
M  V30 61 H -1.0628 -4.86397 -5.78752 0
M  V30 62 H 0.2052 -4.05379 -6.65799 0
M  V30 63 N 4.4343 0.785586 -1.36625 0
M  V30 64 C 5.3643 1.91259 -1.33949 0
M  V30 65 C 6.3453 1.68795 -0.210325 0
M  V30 66 O 7.5303 1.89854 -0.408561 0
M  V30 67 C 4.6603 3.28339 -1.13186 0
M  V30 68 C 3.6143 3.65335 -2.22967 0
M  V30 69 C 2.9403 5.00806 -1.87342 0
M  V30 70 C 4.2403 3.7352 -3.65075 0
M  V30 71 H 5.9343 1.93755 -2.28253 0
M  V30 72 H 3.4803 0.930788 -1.09874 0
M  V30 73 H 5.4333 4.06804 -1.09948 0
M  V30 74 H 4.1573 3.2624 -0.153332 0
M  V30 75 H 2.8163 2.89169 -2.25337 0
M  V30 76 H 2.4643 4.95233 -0.880545 0
M  V30 77 H 2.1643 5.26529 -2.60846 0
M  V30 78 H 3.6883 5.81687 -1.85667 0
M  V30 79 H 5.1023 4.42168 -3.64911 0
M  V30 80 H 3.4993 4.10731 -4.37516 0
M  V30 81 H 4.5693 2.74527 -3.99703 0
M  V30 82 N 5.9124 1.20967 1.01018 0
M  V30 83 C 6.8424 0.988272 2.11555 0
M  V30 84 C 7.8234 -0.0849778 1.69888 0
M  V30 85 O 9.0084 0.0738202 1.9406 0
M  V30 86 C 6.1384 0.546528 3.42973 0
M  V30 87 C 5.0924 1.56375 3.9841 0
M  V30 88 C 4.4184 0.97842 5.25672 0
M  V30 89 C 5.7184 2.94922 4.31066 0
M  V30 90 H 7.4124 1.91276 2.30334 0
M  V30 91 H 4.9584 0.921073 1.1069 0
M  V30 92 H 6.9114 0.378839 4.19694 0
M  V30 93 H 5.6354 -0.413598 3.23971 0
M  V30 94 H 4.2944 1.71891 3.23804 0
M  V30 95 H 3.9424 0.0101688 5.02999 0
M  V30 96 H 3.6424 1.65784 5.63728 0
M  V30 97 H 5.1664 0.821939 6.05043 0
M  V30 98 H 6.5804 2.8288 4.9865 0
M  V30 99 H 4.9774 3.5983 4.80253 0
M  V30 100 H 6.0474 3.4616 3.39561 0
M  V30 101 N 7.3905 -1.2043 1.01659 0
M  V30 102 C 8.8015 -1.71517 0.737482 0
M  V30 103 C 9.1525 -1.81547 -0.743973 0
M  V30 104 O 8.2775 -1.47803 -1.58061 0
M  V30 105 C 8.8725 -3.11515 1.33206 0
M  V30 106 C 7.4315 -3.59912 1.10183 0
M  V30 107 C 6.5785 -2.37116 1.43776 0
M  V30 108 H 9.5295 -1.05444 1.18606 0
M  V30 109 H 9.5505 -3.73575 0.722636 0
M  V30 110 H 9.0625 -3.04182 2.41028 0
M  V30 111 H 7.1635 -3.72577 0.0412756 0
M  V30 112 H 7.2765 -4.44731 1.78188 0
M  V30 113 H 5.6405 -2.39857 0.856778 0
M  V30 114 H 6.4235 -2.32424 2.52654 0
M  V30 115 N 8.8686 -0.792821 -1.36206 0
M  V30 116 C 10.1176 -0.363353 -1.984 0
M  V30 117 C 10.4306 1.07172 -1.63626 0
M  V30 118 O 11.6366 1.60362 -2.19081 0
M  V30 119 C 10.0926 -0.59872 -3.54885 0
M  V30 120 C 9.7006 -2.04543 -3.9858 0
M  V30 121 C 11.4446 -0.233926 -4.23855 0
M  V30 122 C 9.3516 -2.22727 -5.47856 0
M  V30 123 H 8.2816 -0.13212 -0.742334 0
M  V30 124 H 10.9326 -0.974935 -1.55458 0
M  V30 125 H 9.3146 0.0826222 -3.95914 0
M  V30 126 H 10.4886 -2.76345 -3.68741 0
M  V30 127 H 8.8036 -2.36879 -3.42458 0
M  V30 128 H 11.4006 -0.348027 -5.33566 0
M  V30 129 H 11.7436 0.818351 -4.08177 0
M  V30 130 H 12.2766 -0.868639 -3.882 0
M  V30 131 H 9.0156 -3.2635 -5.68486 0
M  V30 132 H 8.5356 -1.55434 -5.7931 0
M  V30 133 H 10.2146 -2.03607 -6.14128 0
M  V30 134 N 10.3467 1.47872 -0.545128 0
M  V30 135 C 11.2767 2.32661 0.197793 0
M  V30 136 C 12.2577 1.43041 0.920504 0
M  V30 137 O 13.4427 1.71912 0.90333 0
M  V30 138 C 10.5727 3.24569 1.23582 0
M  V30 139 C 9.5267 4.23333 0.630323 0
M  V30 140 C 8.8527 5.0448 1.77211 0
M  V30 141 C 10.1527 5.20704 -0.407974 0
M  V30 142 H 11.8467 2.95024 -0.510045 0
M  V30 143 H 9.3927 1.4187 -0.246731 0
M  V30 144 H 11.3457 3.8272 1.76362 0
M  V30 145 H 10.0697 2.60236 1.97344 0
M  V30 146 H 8.7287 3.6639 0.123922 0
M  V30 147 H 8.3767 4.36561 2.49847 0
M  V30 148 H 8.0767 5.71339 1.37281 0
M  V30 149 H 9.6007 5.65487 2.3034 0
M  V30 150 H 11.0147 5.7329 0.033305 0
M  V30 151 H 9.4117 5.95699 -0.725486 0
M  V30 152 H 10.4817 4.66917 -1.30828 0
M  V30 153 N 11.8248 0.280983 1.55075 0
M  V30 154 C 13.0738 -0.334784 1.98902 0
M  V30 155 C 13.3868 -1.56534 1.17288 0
M  V30 156 O 14.5928 -2.25443 1.51287 0
M  V30 157 C 13.0488 -0.646994 3.54037 0
M  V30 158 C 12.6568 0.564085 4.44435 0
M  V30 159 C 14.4008 -1.22506 4.06439 0
M  V30 160 C 12.3078 0.226137 5.90967 0
M  V30 161 H 11.2378 -0.128866 0.742906 0
M  V30 162 H 13.8888 0.386556 1.79382 0
M  V30 163 H 12.2708 -1.42739 3.6938 0
M  V30 164 H 13.4448 1.34082 4.40861 0
M  V30 165 H 11.7598 1.0594 4.02698 0
M  V30 166 H 14.3568 -1.49182 5.13468 0
M  V30 167 H 14.6998 -2.16085 3.55827 0
M  V30 168 H 15.2328 -0.50682 3.94558 0
M  V30 169 H 11.9718 1.12996 6.45687 0
M  V30 170 H 11.4918 -0.513717 5.97596 0
M  V30 171 H 13.1708 -0.179539 6.46751 0
M  V30 172 N 13.3029 -1.57598 0.00835791 0
M  V30 173 C 14.5509 -1.90551 -0.6734 0
M  V30 174 C 14.8719 -0.883301 -1.73847 0
M  V30 175 O 14.1419 0.0781442 -1.95744 0
M  V30 176 H 12.7219 -0.703312 -0.251717 0
M  V30 177 H 15.3839 -1.94833 0.0512592 0
M  V30 178 H 14.4799 -2.9056 -1.13935 0
M  V30 179 N 14.781 0.264519 -1.55364 0
M  V30 180 C 15.711 1.33121 -1.91836 0
M  V30 181 C 16.692 1.51101 -0.781192 0
M  V30 182 O 17.877 1.64003 -1.04003 0
M  V30 183 C 15.007 2.68921 -2.19769 0
M  V30 184 C 13.961 2.65661 -3.35571 0
M  V30 185 C 13.287 4.05093 -3.49004 0
M  V30 186 C 14.587 2.24187 -4.71739 0
M  V30 187 H 16.281 1.02844 -2.81182 0
M  V30 188 H 13.827 0.493286 -1.35287 0
M  V30 189 H 15.78 3.43663 -2.43872 0
M  V30 190 H 14.504 3.00799 -1.27231 0
M  V30 191 H 13.163 1.93377 -3.1145 0
M  V30 192 H 12.811 4.34206 -2.53917 0
M  V30 193 H 12.511 4.03804 -4.26868 0
M  V30 194 H 14.035 4.81561 -3.75408 0
M  V30 195 H 15.449 2.88654 -4.9533 0
M  V30 196 H 13.846 2.34044 -5.52579 0
M  V30 197 H 14.916 1.19327 -4.69988 0
M  V30 198 N 16.2591 1.48442 0.529413 0
M  V30 199 C 17.4841 1.60406 1.31471 0
M  V30 200 C 17.9091 0.264738 1.86228 0
M  V30 201 O 17.2671 -0.763668 1.64432 0
M  V30 202 C 17.3151 2.65419 2.44101 0
M  V30 203 O 16.4191 2.22618 3.47153 0
M  V30 204 H 15.7601 0.537863 0.389357 0
M  V30 205 H 18.2901 1.94432 0.636965 0
M  V30 206 H 18.3001 2.86709 2.90279 0
M  V30 207 H 16.9751 3.62652 2.03608 0
M  V30 208 H 15.5521 2.11543 3.0709 0
M  V30 209 N 17.7372 -0.778329 1.37039 0
M  V30 210 C 18.6672 -1.90546 1.34962 0
M  V30 211 C 19.6482 -1.68681 0.219274 0
M  V30 212 O 20.8332 -1.89634 0.418624 0
M  V30 213 C 17.9632 -3.27734 1.14925 0
M  V30 214 C 16.9172 -3.64147 2.24902 0
M  V30 215 C 16.2432 -4.99806 1.89996 0
M  V30 216 C 17.5432 -3.71579 3.67051 0
M  V30 217 H 19.2372 -1.92541 2.29277 0
M  V30 218 H 16.7832 -0.924948 1.10366 0
M  V30 219 H 18.7362 -4.06215 1.12104 0
M  V30 220 H 17.4602 -3.26154 0.170631 0
M  V30 221 H 16.1192 -2.8797 2.26868 0
M  V30 222 H 15.7672 -4.94759 0.906796 0
M  V30 223 H 15.4672 -5.25139 2.63634 0
M  V30 224 H 16.9912 -5.80694 1.88749 0
M  V30 225 H 18.4052 -4.40227 3.67251 0
M  V30 226 H 16.8022 -4.08405 4.39688 0
M  V30 227 H 17.8722 -2.72404 4.01154 0
M  V30 228 N 19.2153 -1.21501 -1.00376 0
M  V30 229 C 20.4403 -1.05977 -1.78279 0
M  V30 230 C 20.8653 0.385994 -1.84097 0
M  V30 231 O 20.2233 1.27849 -1.28547 0
M  V30 232 C 20.2713 -1.66302 -3.19963 0
M  V30 233 O 19.3753 -0.909333 -4.0225 0
M  V30 234 H 18.7163 -0.372906 -0.549397 0
M  V30 235 H 21.2463 -1.6107 -1.26165 0
M  V30 236 H 21.2563 -1.70574 -3.70632 0
M  V30 237 H 19.9313 -2.71515 -3.15043 0
M  V30 238 H 18.5083 -0.941795 -3.60811 0
M  V30 239 N 20.6934 1.19889 -1.02296 0
M  V30 240 C 21.9414 1.89046 -0.714558 0
M  V30 241 C 22.2624 1.79636 0.758681 0
M  V30 242 O 21.5324 1.20292 1.54618 0
M  V30 243 H 20.1124 0.699802 -0.261317 0
M  V30 244 H 22.7744 1.45574 -1.29592 0
M  V30 245 H 21.8704 2.95524 -1.0036 0
M  V30 246 N 22.1715 0.800033 1.35784 0
M  V30 247 C 23.4185 0.377342 1.98953 0
M  V30 248 C 23.7465 -1.05378 1.6348 0
M  V30 249 O 23.0015 -1.74459 0.886707 0
M  V30 250 C 23.3005 0.500276 3.53881 0
M  V30 251 C 22.9665 1.89375 4.09204 0
M  V30 252 C 21.6285 2.27499 4.24025 0
M  V30 253 C 23.9805 2.8057 4.39238 0
M  V30 254 C 21.3085 3.562 4.66195 0
M  V30 255 C 23.6605 4.0871 4.82844 0
M  V30 256 C 22.3245 4.46843 4.95871 0
M  V30 257 H 21.5945 0.138079 0.728021 0
M  V30 258 H 24.2415 1.01955 1.62103 0
M  V30 259 H 22.5465 -0.225405 3.91151 0
M  V30 260 H 24.2435 0.154097 4.00704 0
M  V30 261 H 20.8335 1.58753 3.98115 0
M  V30 262 H 25.0175 2.52367 4.27346 0
M  V30 263 H 20.2735 3.85602 4.74469 0
M  V30 264 H 24.4475 4.79481 5.05046 0
M  V30 265 H 22.0745 5.46623 5.28306 0
M  V30 266 N 23.6496 -1.47581 0.552962 0
M  V30 267 C 24.8746 -2.07378 0.0300593 0
M  V30 268 C 25.2996 -1.40355 -1.25229 0
M  V30 269 O 24.6576 -0.477099 -1.7491 0
M  V30 270 C 24.7056 -3.60274 -0.153231 0
M  V30 271 O 23.8096 -3.94041 -1.21678 0
M  V30 272 H 23.1506 -0.662158 0.0494182 0
M  V30 273 H 25.6806 -1.89662 0.767434 0
M  V30 274 H 25.6906 -4.0633 -0.368761 0
M  V30 275 H 24.3656 -4.08455 0.783397 0
M  V30 276 H 22.9426 -3.59735 -0.982079 0
M  V30 277 N 25.1277 -0.289203 -1.54924 0
M  V30 278 C 26.3527 0.329299 -2.04769 0
M  V30 279 C 26.7777 1.4763 -1.16564 0
M  V30 280 O 26.1357 1.80527 -0.167186 0
M  V30 281 C 26.1837 0.774438 -3.52186 0
M  V30 282 O 25.2877 1.88038 -3.67036 0
M  V30 283 H 24.6287 0.0659259 -0.660719 0
M  V30 284 H 27.1587 -0.42761 -2.00082 0
M  V30 285 H 27.1687 1.06642 -3.93816 0
M  V30 286 H 25.8437 -0.0646707 -4.1585 0
M  V30 287 H 24.4207 1.58985 -3.3731 0
M  V30 288 N 26.6058 1.57591 -0.0167156 0
M  V30 289 C 27.5358 2.12496 0.967858 0
M  V30 290 C 28.5168 1.03807 1.34752 0
M  V30 291 O 29.7018 1.31577 1.42833 0
M  V30 292 C 26.8318 2.64194 2.25431 0
M  V30 293 C 25.7858 3.77559 2.01576 0
M  V30 294 C 25.1118 4.15636 3.36379 0
M  V30 295 C 26.4118 5.04151 1.36489 0
M  V30 296 H 28.1058 2.95013 0.510643 0
M  V30 297 H 25.6518 1.41915 0.244181 0
M  V30 298 H 27.6048 3.01236 2.94678 0
M  V30 299 H 26.3288 1.78821 2.73296 0
M  V30 300 H 24.9878 3.40937 1.34751 0
M  V30 301 H 24.6358 3.27263 3.81979 0
M  V30 302 H 24.3358 4.92022 3.21229 0
M  V30 303 H 25.8598 4.5525 4.06915 0
M  V30 304 H 27.2738 5.38857 1.95718 0
M  V30 305 H 25.6708 5.85453 1.31776 0
M  V30 306 H 26.7408 4.83733 0.336219 0
M  V30 307 N 28.0839 -0.256276 1.55502 0
M  V30 308 C 29.3089 -1.00766 1.81276 0
M  V30 309 C 29.7339 -1.78524 0.59252 0
M  V30 310 O 29.0919 -1.75413 -0.45827 0
M  V30 311 C 29.1399 -1.92869 3.04687 0
M  V30 312 O 28.2439 -3.019 2.80945 0
M  V30 313 H 27.5849 -0.287224 0.598664 0
M  V30 314 H 30.1149 -0.280109 2.02674 0
M  V30 315 H 30.1249 -2.34511 3.33869 0
M  V30 316 H 28.7999 -1.35689 3.93143 0
M  V30 317 H 27.3769 -2.64454 2.62904 0
M  V30 318 N 29.562 -1.4872 -0.521534 0
M  V30 319 C 30.494 -1.59968 -1.64143 0
M  V30 320 C 31.507 -0.483463 -1.55456 0
M  V30 321 O 32.696 -0.75467 -1.61762 0
M  V30 322 C 29.796 -1.52127 -3.02838 0
M  V30 323 C 28.969 -2.78932 -3.36921 0
M  V30 324 C 28.028 -2.64428 -4.54933 0
M  V30 325 O 27.054 -3.38331 -4.57735 0
M  V30 326 N 28.256 -1.74606 -5.53618 0
M  V30 327 H 31.021 -2.56548 -1.54929 0
M  V30 328 H 28.582 -1.45551 -0.708988 0
M  V30 329 H 30.574 -1.40106 -3.79674 0
M  V30 330 H 29.144 -0.634868 -3.06085 0
M  V30 331 H 28.364 -3.05455 -2.4918 0
M  V30 332 H 29.652 -3.63041 -3.56481 0
M  V30 333 H 29.05 -1.13782 -5.54139 0
M  V30 334 H 27.607 -1.6852 -6.29638 0
M  V30 335 N 31.0401 0.771051 -1.3745 0
M  V30 336 C 32.0031 1.86598 -1.33093 0
M  V30 337 C 33.0031 1.59076 -0.234845 0
M  V30 338 O 34.1931 1.67145 -0.490732 0
M  V30 339 C 31.3251 3.23747 -1.06773 0
M  V30 340 H 32.5181 1.91873 -2.30488 0
M  V30 341 H 30.0711 0.970876 -1.2249 0
M  V30 342 H 30.8061 3.24148 -0.099129 0
M  V30 343 H 30.5911 3.45115 -1.86112 0
M  V30 344 H 32.0811 4.03824 -1.06377 0
M  V30 345 N 32.5182 1.22032 0.997298 0
M  V30 346 C 33.4282 1.00271 2.12092 0
M  V30 347 C 34.4442 -0.047621 1.73935 0
M  V30 348 O 35.6202 0.144136 2.00884 0
M  V30 349 C 32.6852 0.578449 3.4184 0
M  V30 350 C 31.7462 1.70189 3.94125 0
M  V30 351 C 30.9792 1.29778 5.17681 0
M  V30 352 O 31.2022 0.174676 5.70132 0
M  V30 353 O 30.1362 2.11261 5.63607 0
M  V30 354 H 33.9622 1.94398 2.3333 0
M  V30 355 H 31.5472 1.00587 1.10465 0
M  V30 356 H 33.4292 0.351998 4.19927 0
M  V30 357 H 32.1042 -0.334019 3.21972 0
M  V30 358 H 31.0112 1.98282 3.1723 0
M  V30 359 H 32.3442 2.59206 4.18417 0
M  V30 360 N 33.9963 -1.19345 1.0293 0
M  V30 361 C 34.9443 -2.24621 0.604001 0
M  V30 362 C 35.9383 -1.65452 -0.363587 0
M  V30 363 O 37.1443 -1.78497 -0.23212 0
M  V30 364 H 33.5193 -0.730858 0.177061 0
M  V30 365 H 35.4903 -2.5781 1.50255 0
M  V30 366 C 34.2393 -3.47688 -0.0289127 0
M  V30 367 H 33.5623 -3.93505 0.706651 0
M  V30 368 H 35.0023 -4.23011 -0.289432 0
M  V30 369 C 33.4613 -3.11817 -1.2756 0
M  V30 370 O 33.9913 -3.2451 -2.36762 0
M  V30 371 N 32.1973 -2.66246 -1.16453 0
M  V30 372 H 31.7443 -2.56118 -0.275914 0
M  V30 373 H 31.7023 -2.42617 -1.99961 0
M  V30 374 N 35.4744 -0.807222 -1.35358 0
M  V30 375 C 36.4044 -0.232509 -2.3234 0
M  V30 376 C 37.3854 0.642386 -1.57504 0
M  V30 377 O 38.5704 0.572526 -1.85569 0
M  V30 378 C 35.7004 0.619238 -3.41735 0
M  V30 379 C 34.6544 -0.157215 -4.27711 0
M  V30 380 C 33.9804 0.816273 -5.28433 0
M  V30 381 C 35.2804 -1.35656 -5.04376 0
M  V30 382 H 36.9744 -1.04276 -2.80654 0
M  V30 383 H 34.5204 -0.50288 -1.34934 0
M  V30 384 H 36.4734 1.03137 -4.08584 0
M  V30 385 H 35.1974 1.46239 -2.92031 0
M  V30 386 H 33.8564 -0.550525 -3.62443 0
M  V30 387 H 33.5044 1.65494 -4.74996 0
M  V30 388 H 33.2044 0.301067 -5.86828 0
M  V30 389 H 34.7284 1.22659 -5.98153 0
M  V30 390 H 36.1424 -1.01927 -5.64166 0
M  V30 391 H 34.5394 -1.8063 -5.7227 0
M  V30 392 H 35.6094 -2.14288 -4.34981 0
M  V30 393 N 36.9525 1.47285 -0.560781 0
M  V30 394 C 37.8855 2.27009 0.232821 0
M  V30 395 C 38.8635 1.34273 0.917039 0
M  V30 396 O 40.0475 1.63659 0.935315 0
M  V30 397 C 37.1745 3.11406 1.33206 0
M  V30 398 C 36.2205 4.19746 0.756019 0
M  V30 399 S 37.0535 5.34003 -0.400165 0
M  V30 400 C 38.2095 6.21964 0.700805 0
M  V30 401 H 38.4425 2.93971 -0.443683 0
M  V30 402 H 35.9755 1.50446 -0.347181 0
M  V30 403 H 37.9335 3.60601 1.96156 0
M  V30 404 H 36.5945 2.438 1.98041 0
M  V30 405 H 35.7875 4.78541 1.5816 0
M  V30 406 H 35.3895 3.73451 0.202619 0
M  V30 407 H 37.6815 6.58529 1.59202 0
M  V30 408 H 38.6245 7.07941 0.150126 0
M  V30 409 H 39.0325 5.5566 0.995083 0
M  V30 410 N 38.4306 0.297415 1.54768 0
M  V30 411 C 39.3626 -0.613881 2.20826 0
M  V30 412 C 40.3756 -1.10032 1.19987 0
M  V30 413 O 41.5646 -1.01839 1.46598 0
M  V30 414 C 38.6646 -1.852 2.83821 0
M  V30 415 C 37.8376 -1.50865 4.10559 0
M  V30 416 C 36.8966 -2.60154 4.57391 0
M  V30 417 O 35.9226 -2.25398 5.2267 0
M  V30 418 N 37.1246 -3.90629 4.29406 0
M  V30 419 H 39.8896 -0.048389 2.99661 0
M  V30 420 H 37.4506 0.11946 1.61459 0
M  V30 421 H 39.4426 -2.57652 3.12086 0
M  V30 422 H 38.0126 -2.32597 2.08847 0
M  V30 423 H 37.2326 -0.616925 3.89343 0
M  V30 424 H 38.5206 -1.25458 4.9309 0
M  V30 425 H 37.9186 -4.21677 3.77101 0
M  V30 426 H 36.4756 -4.59391 4.62388 0
M  V30 427 N 39.9087 -1.5758 0.0250728 0
M  V30 428 C 41.1547 -1.91917 -0.655413 0
M  V30 429 C 41.4877 -0.901433 -1.72011 0
M  V30 430 O 40.7627 0.0764069 -1.9435 0
M  V30 431 C 41.0457 -3.36751 -1.27558 0
M  V30 432 C 40.8987 -4.49258 -0.220719 0
M  V30 433 C 42.2177 -3.81469 -2.19475 0
M  V30 434 H 39.3367 -0.697925 -0.23679 0
M  V30 435 H 41.9787 -1.89825 0.0815036 0
M  V30 436 H 40.1287 -3.38664 -1.90365 0
M  V30 437 H 41.8007 -4.59478 0.409601 0
M  V30 438 H 40.0437 -4.31415 0.454264 0
M  V30 439 H 40.7147 -5.47618 -0.694175 0
M  V30 440 H 43.1907 -3.81266 -1.66659 0
M  V30 441 H 42.0667 -4.83512 -2.59822 0
M  V30 442 H 42.3277 -3.16744 -3.08424 0
M  V30 443 N 41.3868 0.248026 -1.55636 0
M  V30 444 C 42.6168 0.992367 -1.81206 0
M  V30 445 C 43.0248 1.7949 -0.598324 0
M  V30 446 O 42.3678 1.78292 0.442434 0
M  V30 447 C 42.4298 1.97926 -3.00109 0
M  V30 448 C 42.0938 1.36377 -4.36177 0
M  V30 449 C 43.0908 0.76682 -5.14214 0
M  V30 450 C 40.7758 1.38347 -4.82872 0
M  V30 451 C 42.7698 0.197778 -6.37093 0
M  V30 452 C 40.4568 0.810574 -6.057 0
M  V30 453 C 41.4548 0.218754 -6.8265 0
M  V30 454 O 41.1428 -0.345298 -8.03158 0
M  V30 455 H 40.8748 0.297704 -0.606917 0
M  V30 456 H 43.4288 0.276517 -2.0353 0
M  V30 457 H 41.6588 2.73339 -2.73538 0
M  V30 458 H 43.3478 2.58694 -3.12781 0
M  V30 459 H 44.1138 0.744114 -4.79258 0
M  V30 460 H 39.9928 1.8335 -4.2297 0
M  V30 461 H 43.5368 -0.264788 -6.97097 0
M  V30 462 H 39.4338 0.830604 -6.40134 0
M  V30 463 H 40.2018 -0.237055 -8.18157 0
M  V30 464 N 42.8649 1.48995 0.513639 0
M  V30 465 C 43.7969 1.60836 1.63293 0
M  V30 466 C 44.8099 0.491701 1.55197 0
M  V30 467 O 45.9989 0.763238 1.6136 0
M  V30 468 C 43.0989 1.53731 3.02027 0
M  V30 469 C 42.2719 2.80715 3.35437 0
M  V30 470 C 41.3309 2.66837 4.53525 0
M  V30 471 O 40.3569 3.40753 4.55934 0
M  V30 472 N 41.5589 1.77539 5.52684 0
M  V30 473 H 44.3239 2.57366 1.53566 0
M  V30 474 H 41.8849 1.45925 0.701259 0
M  V30 475 H 43.8769 1.42118 3.78926 0
M  V30 476 H 42.4469 0.651092 3.05744 0
M  V30 477 H 41.6669 3.06772 2.47557 0
M  V30 478 H 42.9549 3.64927 3.54551 0
M  V30 479 H 42.3529 1.16719 5.53528 0
M  V30 480 H 40.9099 1.71856 6.28736 0
M  V30 481 N 44.343 -0.763751 1.37857 0
M  V30 482 C 45.275 -1.88664 1.30148 0
M  V30 483 C 46.288 -1.61365 0.215685 0
M  V30 484 O 47.477 -1.72134 0.472459 0
M  V30 485 C 44.577 -3.24075 0.991396 0
M  V30 486 C 43.75 -3.78958 2.18426 0
M  V30 487 C 42.809 -4.92862 1.8432 0
M  V30 488 O 41.835 -5.08027 2.56704 0
M  V30 489 N 43.037 -5.75071 0.792081 0
M  V30 490 H 45.802 -1.95791 2.26905 0
M  V30 491 H 43.363 -0.943226 1.31586 0
M  V30 492 H 45.355 -3.97804 0.743935 0
M  V30 493 H 43.925 -3.12399 0.112122 0
M  V30 494 H 43.145 -2.96913 2.59299 0
M  V30 495 H 44.433 -4.12357 2.98058 0
M  V30 496 H 43.831 -5.65375 0.191595 0
M  V30 497 H 42.388 -6.48991 0.60449 0
M  V30 498 N 45.8211 -1.22559 -0.990812 0
M  V30 499 C 46.7841 -0.998863 -2.0629 0
M  V30 500 C 47.7841 0.0354834 -1.60761 0
M  V30 501 O 48.9741 -0.203231 -1.7301 0
M  V30 502 C 46.1061 -0.509203 -3.37076 0
M  V30 503 H 47.2991 -1.95014 -2.27837 0
M  V30 504 H 44.8521 -1.04456 -1.16269 0
M  V30 505 H 45.5871 0.446335 -3.21214 0
M  V30 506 H 45.3721 -1.25547 -3.71457 0
M  V30 507 H 46.8621 -0.370888 -4.1595 0
M  V30 508 N 47.2992 1.18797 -1.03562 0
M  V30 509 C 48.7152 1.40671 -0.753917 0
M  V30 510 C 48.9152 1.9043 0.658686 0
M  V30 511 O 47.9712 2.08538 1.42366 0
M  V30 512 C 49.2842 2.41192 -1.79574 0
M  V30 513 C 50.8322 2.54928 -1.81606 0
M  V30 514 C 51.3072 3.58709 -2.84766 0
M  V30 515 N 52.7982 3.66212 -2.83625 0
M  V30 516 C 53.5332 4.46225 -3.60098 0
M  V30 517 N 53.0292 5.29888 -4.46308 0
M  V30 518 N 54.8222 4.40939 -3.4861 0
M  V30 519 H 46.9732 0.848221 -1.94728 0
M  V30 520 H 49.2362 0.435081 -0.842264 0
M  V30 521 H 48.9422 2.11669 -2.80872 0
M  V30 522 H 48.8162 3.40467 -1.62365 0
M  V30 523 H 51.2032 2.83771 -0.809817 0
M  V30 524 H 51.2842 1.55784 -2.02891 0
M  V30 525 H 50.9282 3.30607 -3.85566 0
M  V30 526 H 50.8582 4.57519 -2.60737 0
M  V30 527 H 53.3492 3.06466 -2.21105 0
M  V30 528 H 53.6622 5.88078 -5.01382 0
M  V30 529 H 52.0072 5.29326 -4.50377 0
M  V30 530 H 55.1982 3.74624 -2.80668 0
M  V30 531 H 55.3712 5.03056 -4.08459 0
M  V30 532 N 48.7773 0.814389 1.34928 0
M  V30 533 C 49.7073 0.244827 2.32213 0
M  V30 534 C 50.6883 -0.634024 1.57842 0
M  V30 535 O 51.8733 -0.562676 1.8587 0
M  V30 536 C 49.0033 -0.601106 3.42058 0
M  V30 537 C 47.9573 0.179896 4.27622 0
M  V30 538 C 47.2833 -0.788237 5.28858 0
M  V30 539 C 48.5833 1.38329 5.03649 0
M  V30 540 H 50.2773 1.05763 2.80097 0
M  V30 541 H 47.8233 0.510029 1.34665 0
M  V30 542 H 49.7763 -1.00968 4.09125 0
M  V30 543 H 48.5003 -1.44688 2.92802 0
M  V30 544 H 47.1593 0.569739 3.62146 0
M  V30 545 H 46.8073 -1.62973 4.75866 0
M  V30 546 H 46.5073 -0.269942 5.8698 0
M  V30 547 H 48.0313 -1.19485 5.98795 0
M  V30 548 H 49.4453 1.04918 5.63618 0
M  V30 549 H 47.8423 1.83662 5.71304 0
M  V30 550 H 48.9123 2.16592 4.33839 0
M  V30 551 N 50.2554 -1.46986 0.568584 0
M  V30 552 C 51.4804 -2.07335 0.0520528 0
M  V30 553 C 51.9054 -1.41675 -1.23733 0
M  V30 554 O 51.2634 -0.495623 -1.74394 0
M  V30 555 C 51.3114 -3.60417 -0.11501 0
M  V30 556 O 50.4154 -3.95309 -1.17492 0
M  V30 557 H 49.7564 -0.661597 0.0564385 0
M  V30 558 H 52.2864 -1.88837 0.787507 0
M  V30 559 H 52.2964 -4.06698 -0.325644 0
M  V30 560 H 50.9714 -4.07601 0.826675 0
M  V30 561 H 49.5484 -3.60757 -0.943869 0
M  V30 562 N 51.7335 -0.305618 -1.54608 0
M  V30 563 C 52.6815 0.584119 -2.25146 0
M  V30 564 C 53.6755 1.13326 -1.25911 0
M  V30 565 O 54.8815 1.08337 -1.43747 0
M  V30 566 H 51.2565 0.206983 -0.722954 0
M  V30 567 H 53.2275 -0.033291 -2.98381 0
M  V30 568 C 51.9765 1.74225 -3.009 0
M  V30 569 H 51.2995 1.32892 -3.77067 0
M  V30 570 H 52.7395 2.34077 -3.53531 0
M  V30 571 C 51.1985 2.64914 -2.0814 0
M  V30 572 O 51.7285 3.66137 -1.65246 0
M  V30 573 N 49.9345 2.3275 -1.74 0
M  V30 574 H 49.4815 1.50479 -2.09078 0
M  V30 575 H 49.4395 2.93694 -1.12211 0
M  V30 576 N 53.2116 1.57565 -0.0334293 0
M  V30 577 C 54.6226 1.79746 0.504798 0
M  V30 578 C 54.9736 0.944091 1.71992 0
M  V30 579 O 54.0986 0.155694 2.15839 0
M  V30 580 C 54.6936 3.25997 0.922567 0
M  V30 581 C 53.2526 3.49159 1.40588 0
M  V30 582 C 52.3996 2.74785 0.372633 0
M  V30 583 H 55.3506 1.56565 -0.259436 0
M  V30 584 H 55.3716 3.35945 1.78666 0
M  V30 585 H 54.8836 3.88081 0.0379825 0
M  V30 586 H 52.9846 2.92332 2.31025 0
M  V30 587 H 53.0976 4.57873 1.41028 0
M  V30 588 H 51.4616 2.40391 0.841672 0
M  V30 589 H 52.2446 3.39587 -0.503559 0
M  V30 590 N 54.6897 -0.239769 1.55765 0
M  V30 591 C 55.5997 -1.31831 1.94056 0
M  V30 592 C 56.6157 -1.52275 0.841925 0
M  V30 593 O 57.7917 -1.65759 1.14394 0
M  V30 594 C 54.8567 -2.65156 2.23368 0
M  V30 595 C 53.9177 -2.53173 3.46701 0
M  V30 596 C 53.1507 -3.8014 3.74606 0
M  V30 597 O 53.3737 -4.82343 3.04469 0
M  V30 598 O 52.3077 -3.78344 4.68123 0
M  V30 599 H 56.1337 -1.02347 2.85935 0
M  V30 600 H 53.7187 -0.441123 1.42739 0
M  V30 601 H 55.6007 -3.43929 2.43497 0
M  V30 602 H 54.2757 -2.94358 1.34666 0
M  V30 603 H 53.1827 -1.72662 3.31871 0
M  V30 604 H 54.5157 -2.28915 4.35728 0
M  V30 605 N 56.1678 -1.49265 -0.50573 0
M  V30 606 C 57.0978 -1.68495 -1.61653 0
M  V30 607 C 58.0788 -0.53366 -1.61512 0
M  V30 608 O 59.2638 -0.76897 -1.78327 0
M  V30 609 C 56.3938 -1.74709 -3.00157 0
M  V30 610 C 55.3478 -2.89581 -3.15162 0
M  V30 611 C 54.6738 -2.80903 -4.5497 0
M  V30 612 C 55.9738 -4.30578 -2.95634 0
M  V30 613 H 57.6678 -2.61493 -1.45814 0
M  V30 614 H 55.2138 -1.25838 -0.70005 0
M  V30 615 H 57.1668 -1.86748 -3.77761 0
M  V30 616 H 55.8908 -0.783067 -3.17074 0
M  V30 617 H 54.5498 -2.77136 -2.39982 0
M  V30 618 H 54.1978 -1.82419 -4.68756 0
M  V30 619 H 53.8978 -3.57999 -4.65951 0
M  V30 620 H 55.4218 -2.94944 -5.34641 0
M  V30 621 H 56.8358 -4.4373 -3.63011 0
M  V30 622 H 55.2328 -5.0886 -3.18091 0
M  V30 623 H 56.3028 -4.45352 -1.91806 0
M  V30 624 N 57.6459 0.756429 -1.3826 0
M  V30 625 C 59.0619 1.0591 -1.19395 0
M  V30 626 C 59.2619 2.01459 -0.0406567 0
M  V30 627 O 58.3179 2.44909 0.614467 0
M  V30 628 C 59.6309 1.64191 -2.51916 0
M  V30 629 C 61.1789 1.76376 -2.58574 0
M  V30 630 C 61.6539 2.38069 -3.91264 0
M  V30 631 N 63.1449 2.45503 -3.92788 0
M  V30 632 C 63.8799 2.94126 -4.92217 0
M  V30 633 N 63.3759 3.42805 -6.02043 0
M  V30 634 N 65.1689 2.9314 -4.7961 0
M  V30 635 H 57.3199 0.122313 -2.12048 0
M  V30 636 H 59.5829 0.116892 -0.940766 0
M  V30 637 H 59.2889 1.01451 -3.3675 0
M  V30 638 H 59.1629 2.6329 -2.70108 0
M  V30 639 H 61.5499 2.38244 -1.74137 0
M  V30 640 H 61.6309 0.759894 -2.44252 0
M  V30 641 H 61.2749 1.76835 -4.76121 0
M  V30 642 H 61.2049 3.39091 -4.02895 0
M  V30 643 H 63.6959 2.1107 -3.13461 0
M  V30 644 H 64.0089 3.78354 -6.73846 0
M  V30 645 H 62.3539 3.4087 -6.05667 0
M  V30 646 H 65.5449 2.54419 -3.92923 0
M  V30 647 H 65.7179 3.30721 -5.5725 0
M  V30 648 N 59.124 1.23083 0.984299 0
M  V30 649 C 60.071 1.00854 2.07598 0
M  V30 650 C 61.041 -0.0726709 1.65941 0
M  V30 651 O 62.226 0.0786535 1.90638 0
M  V30 652 C 59.366 0.601645 3.39815 0
M  V30 653 C 58.479 1.75456 3.94765 0
M  V30 654 C 57.614 1.29482 5.15177 0
M  V30 655 C 56.653 2.41873 5.62284 0
M  V30 656 N 55.79 1.96885 6.73929 0
M  V30 657 H 60.63 1.943 2.25946 0
M  V30 658 H 58.167 0.968001 1.10762 0
M  V30 659 H 60.125 0.346854 4.15756 0
M  V30 660 H 58.755 -0.295803 3.21442 0
M  V30 661 H 57.807 2.12346 3.15616 0
M  V30 662 H 59.119 2.59965 4.25699 0
M  V30 663 H 58.273 0.997923 5.98437 0
M  V30 664 H 57.012 0.420046 4.85888 0
M  V30 665 H 56.017 2.72342 4.77608 0
M  V30 666 H 57.242 3.29881 5.93595 0
M  V30 667 H 55.188 1.11782 6.46406 0
M  V30 668 H 55.105 2.74956 7.04227 0
M  V30 669 H 56.373 1.70289 7.60672 0
M  V30 670 N 60.6021 -1.18246 1.0419 0
M  V30 671 C 61.8271 -1.92736 0.765996 0
M  V30 672 C 62.2521 -1.75728 -0.67091 0
M  V30 673 O 61.6101 -1.06825 -1.46486 0
M  V30 674 C 61.6581 -3.42148 1.13875 0
M  V30 675 O 60.7621 -4.11548 0.264954 0
M  V30 676 H 60.1031 -0.601238 0.281797 0
M  V30 677 H 62.6331 -1.49942 1.39207 0
M  V30 678 H 62.6431 -3.92858 1.1012 0
M  V30 679 H 61.3181 -3.53848 2.18551 0
M  V30 680 H 59.8951 -3.71137 0.362226 0
M  V30 681 N 62.0802 -0.821533 -1.34494 0
M  V30 682 C 63.0432 -0.247847 -2.27856 0
M  V30 683 C 64.0432 0.573453 -1.50227 0
M  V30 684 O 65.2332 0.389759 -1.69784 0
M  V30 685 C 62.3652 0.652698 -3.34593 0
M  V30 686 H 63.5582 -1.07146 -2.80107 0
M  V30 687 H 61.1112 -0.593291 -1.44602 0
M  V30 688 H 61.8462 1.49943 -2.87555 0
M  V30 689 H 61.6312 0.065292 -3.92046 0
M  V30 690 H 63.1212 1.04793 -4.04238 0
M  V30 691 N 63.5583 1.46682 -0.576371 0
M  V30 692 C 64.5213 2.28707 0.150239 0
M  V30 693 C 65.5213 1.38035 0.824794 0
M  V30 694 O 66.7113 1.60476 0.677719 0
M  V30 695 C 63.8433 3.18248 1.22192 0
M  V30 696 H 65.0363 2.94423 -0.570521 0
M  V30 697 H 62.5893 1.52688 -0.334078 0
M  V30 698 H 63.3243 2.57265 1.97447 0
M  V30 699 H 63.1093 3.85 0.742812 0
M  V30 700 H 64.5993 3.80001 1.73172 0
M  V30 701 N 65.0364 0.313813 1.54444 0
M  V30 702 C 66.3134 -0.345447 1.92525 0
M  V30 703 C 66.6934 -1.70667 1.24242 0
M  V30 704 O 66.0414 -2.25273 0.382654 0
M  V30 705 C 66.2514 -0.44737 3.46121 0
M  V30 706 C 67.5994 -0.712238 4.18584 0
M  V30 707 O 68.6234 -0.530678 3.52225 0
M  V30 708 O 67.4824 -1.06183 5.36085 0
M  V30 709 H 64.5764 -0.195407 0.803583 0
M  V30 710 H 67.1224 0.362813 1.65776 0
M  V30 711 H 65.8944 0.509043 3.87975 0
M  V30 712 H 65.5174 -1.20359 3.78945 0
M  V30 713 N 66.5145 -1.57545 0.0417849 0
M  V30 714 C 67.9305 -1.56467 -0.314704 0
M  V30 715 C 68.1305 -1.04859 -1.72066 0
M  V30 716 O 67.1865 -0.700983 -2.42575 0
M  V30 717 C 68.4995 -3.00317 -0.15174 0
M  V30 718 C 70.0475 -3.12201 -0.223553 0
M  V30 719 C 70.5225 -4.57913 -0.0892295 0
M  V30 720 N 72.0135 -4.6297 -0.145808 0
M  V30 721 C 72.7485 -5.73362 -0.0658459 0
M  V30 722 N 72.2445 -6.92769 0.0659282 0
M  V30 723 N 74.0375 -5.6197 -0.12075 0
M  V30 724 H 66.1885 -1.89416 0.961014 0
M  V30 725 H 68.4515 -0.871862 0.372237 0
M  V30 726 H 68.1575 -3.42073 0.817254 0
M  V30 727 H 68.0315 -3.65892 -0.916692 0
M  V30 728 H 70.4185 -2.70349 -1.18301 0
M  V30 729 H 70.4995 -2.49323 0.571994 0
M  V30 730 H 70.1435 -5.00448 0.866867 0
M  V30 731 H 70.0735 -5.18786 -0.903802 0
M  V30 732 H 72.5645 -3.7709 -0.247286 0
M  V30 733 H 72.8775 -7.72707 0.119905 0
M  V30 734 H 71.2225 -6.94927 0.100885 0
M  V30 735 H 74.4135 -4.67572 -0.222187 0
M  V30 736 H 74.5865 -6.47977 -0.0549735 0
M  V30 737 N 67.9926 0.231505 -1.5589 0
M  V30 738 C 69.2696 0.981096 -1.69215 0
M  V30 739 C 69.6496 2.02799 -0.586164 0
M  V30 740 O 68.9976 2.24823 0.408253 0
M  V30 741 C 69.2076 1.60054 -3.10135 0
M  V30 742 C 70.5556 2.09658 -3.69227 0
M  V30 743 O 71.5796 1.69967 -3.13033 0
M  V30 744 O 70.4386 2.8258 -4.67772 0
M  V30 745 H 67.5326 0.457653 -0.688827 0
M  V30 746 H 70.0786 0.224073 -1.68214 0
M  V30 747 H 68.8506 0.844105 -3.82087 0
M  V30 748 H 68.4736 2.42336 -3.15212 0
M  V30 749 N 69.4707 1.49531 0.497807 0
M  V30 750 C 70.4337 1.65916 1.58128 0
M  V30 751 C 71.4337 0.530825 1.51786 0
M  V30 752 O 72.6237 0.797342 1.54881 0
M  V30 753 C 69.7557 1.65951 2.9778 0
M  V30 754 H 70.9487 2.62556 1.44929 0
M  V30 755 H 68.5017 1.38611 0.722275 0
M  V30 756 H 69.2367 0.709065 3.16453 0
M  V30 757 H 69.0217 2.47897 3.03792 0
M  V30 758 H 70.5117 1.80673 3.76493 0
M  V30 759 N 70.9488 -0.749086 1.3866 0
M  V30 760 C 71.9118 -1.84457 1.36045 0
M  V30 761 C 72.9118 -1.58682 0.260122 0
M  V30 762 O 74.1018 -1.66343 0.517261 0
M  V30 763 C 71.2338 -3.22008 1.11911 0
M  V30 764 H 72.4268 -1.88182 2.33512 0
M  V30 765 H 69.9798 -0.951266 1.24019 0
M  V30 766 H 70.7148 -3.2395 0.150686 0
M  V30 767 H 70.4998 -3.42111 1.91579 0
M  V30 768 H 71.9898 -4.0208 1.12788 0
M  V30 769 N 72.4269 -1.23603 -0.977757 0
M  V30 770 C 73.6739 -1.06971 -1.71941 0
M  V30 771 C 74.0019 0.393009 -1.90488 0
M  V30 772 O 73.2569 1.30719 -1.4564 0
M  V30 773 C 73.5559 -1.7433 -3.11999 0
M  V30 774 C 73.2219 -3.24252 -3.13323 0
M  V30 775 C 71.8839 -3.65156 -3.13392 0
M  V30 776 C 74.2359 -4.20141 -3.08433 0
M  V30 777 C 71.5639 -5.00403 -3.0629 0
M  V30 778 C 73.9159 -5.55384 -3.02873 0
M  V30 779 C 72.5799 -5.95647 -3.01265 0
M  V30 780 H 71.8499 -0.391433 -0.629175 0
M  V30 781 H 74.4969 -1.53572 -1.14403 0
M  V30 782 H 72.8019 -1.20096 -3.7294 0
M  V30 783 H 74.4989 -1.58936 -3.68158 0
M  V30 784 H 71.0889 -2.91692 -3.14029 0
M  V30 785 H 75.2729 -3.89547 -3.07517 0
M  V30 786 H 70.5289 -5.3081 -3.03399 0
M  V30 787 H 74.7029 -6.29398 -2.98046 0
M  V30 788 H 72.3299 -7.0041 -2.95516 0
M  V30 789 N 73.905 1.17692 -1.04816 0
M  V30 790 C 74.815 2.25229 -0.65643 0
M  V30 791 C 75.831 1.71018 0.320761 0
M  V30 792 O 77.007 2.00649 0.173805 0
M  V30 793 C 74.072 3.46684 -0.0332629 0
M  V30 794 C 73.133 4.15997 -1.06042 0
M  V30 795 C 72.366 5.31654 -0.466893 0
M  V30 796 O 72.589 5.65777 0.724758 0
M  V30 797 O 71.523 5.89831 -1.1993 0
M  V30 798 H 75.349 2.61016 -1.55255 0
M  V30 799 H 72.934 1.24919 -0.81949 0
M  V30 800 H 74.816 4.20234 0.313256 0
M  V30 801 H 73.491 3.12703 0.836566 0
M  V30 802 H 72.398 3.44482 -1.45886 0
M  V30 803 H 73.731 4.53996 -1.90127 0
M  V30 804 N 75.3831 0.828654 1.34056 0
M  V30 805 C 76.3301 0.252567 2.29414 0
M  V30 806 C 77.3001 -0.62588 1.53857 0
M  V30 807 O 78.4851 -0.566312 1.82202 0
M  V30 808 C 75.6251 -0.574831 3.40279 0
M  V30 809 C 74.7381 0.326499 4.30764 0
M  V30 810 C 73.8731 -0.511016 5.28736 0
M  V30 811 C 72.9121 0.389342 6.1086 0
M  V30 812 N 72.0491 -0.409439 7.00905 0
M  V30 813 H 76.8891 1.07108 2.78086 0
M  V30 814 H 74.4261 0.539677 1.36843 0
M  V30 815 H 76.3841 -1.06992 4.03248 0
M  V30 816 H 75.0141 -1.35841 2.92826 0
M  V30 817 H 74.0661 0.939837 3.68607 0
M  V30 818 H 75.3781 1.01857 4.88289 0
M  V30 819 H 74.5321 -1.07035 5.97184 0
M  V30 820 H 73.2711 -1.23657 4.71763 0
M  V30 821 H 72.2761 0.960769 5.4134 0
M  V30 822 H 73.5011 1.1131 6.69916 0
M  V30 823 H 71.4471 -1.11856 6.46393 0
M  V30 824 H 71.3641 0.224126 7.55668 0
M  V30 825 H 72.6321 -0.951336 7.73673 0
M  V30 826 N 76.8612 -1.46375 0.584142 0
M  V30 827 C 78.1102 -2.01585 0.0679741 0
M  V30 828 C 78.4232 -1.46109 -1.30045 0
M  V30 829 O 79.6292 -1.93148 -1.90804 0
M  V30 830 C 78.0852 -3.5983 0.0709207 0
M  V30 831 C 77.6932 -4.24303 1.43775 0
M  V30 832 C 79.4372 -4.22693 -0.391228 0
M  V30 833 C 77.3442 -5.74631 1.39834 0
M  V30 834 H 76.2742 -0.753689 0.0216421 0
M  V30 835 H 78.9252 -1.68093 0.736001 0
M  V30 836 H 77.3072 -3.90405 -0.663299 0
M  V30 837 H 78.4812 -4.05335 2.19181 0
M  V30 838 H 76.7962 -3.73539 1.84004 0
M  V30 839 H 79.3932 -5.3289 -0.439524 0
M  V30 840 H 79.7362 -3.91728 -1.40906 0
M  V30 841 H 80.2692 -3.96749 0.288974 0
M  V30 842 H 77.0082 -6.10258 2.39303 0
M  V30 843 H 76.5282 -5.95858 0.686505 0
M  V30 844 H 78.2072 -6.37375 1.11187 0
M  V30 845 N 78.3393 -0.321999 -1.54275 0
M  V30 846 C 79.2873 0.560206 -2.25753 0
M  V30 847 C 80.2813 1.11984 -1.27106 0
M  V30 848 O 81.4873 1.06806 -1.44888 0
M  V30 849 H 77.8623 0.199304 -0.725108 0
M  V30 850 H 79.8333 -0.0649365 -2.98329 0
M  V30 851 C 78.5823 1.71023 -3.02731 0
M  V30 852 H 77.9053 1.28885 -3.78456 0
M  V30 853 H 79.3453 2.30314 -3.55993 0
M  V30 854 C 77.8043 2.62692 -2.10938 0
M  V30 855 O 78.3343 3.64364 -1.6912 0
M  V30 856 N 76.5403 2.30891 -1.76459 0
M  V30 857 H 76.0873 1.48253 -2.10663 0
M  V30 858 H 76.0453 2.92487 -1.1532 0
M  V30 859 N 79.8174 1.5752 -0.0501392 0
M  V30 860 C 80.7274 2.14952 0.939827 0
M  V30 861 C 81.7434 1.10706 1.34239 0
M  V30 862 O 82.9194 1.42869 1.41952 0
M  V30 863 C 79.9844 2.68232 2.19665 0
M  V30 864 C 79.0454 3.87272 1.85253 0
M  V30 865 C 78.2784 4.38002 3.04943 0
M  V30 866 O 78.5014 3.87811 4.18281 0
M  V30 867 O 77.4354 5.29602 2.86017 0
M  V30 868 H 81.2614 2.9986 0.481392 0
M  V30 869 H 78.8464 1.4841 0.171699 0
M  V30 870 H 80.7284 3.02475 2.93406 0
M  V30 871 H 79.4034 1.86395 2.64648 0
M  V30 872 H 78.3104 3.5792 1.0883 0
M  V30 873 H 79.6434 4.70336 1.4507 0
M  V30 874 N 81.2955 -0.223234 1.56011 0
M  V30 875 C 82.2585 -1.26014 1.9145 0
M  V30 876 C 83.2585 -1.3989 0.792937 0
M  V30 877 O 84.4485 -1.38184 1.0607 0
M  V30 878 C 81.5805 -2.63422 2.16383 0
M  V30 879 H 82.7735 -0.95796 2.84189 0
M  V30 880 H 80.3265 -0.463576 1.49267 0
M  V30 881 H 81.0615 -2.98741 1.2619 0
M  V30 882 H 80.8465 -2.54728 2.98088 0
M  V30 883 H 82.3365 -3.38249 2.44903 0
M  V30 884 N 82.7736 -1.49793 -0.48987 0
M  V30 885 C 84.1896 -1.36803 -0.822022 0
M  V30 886 C 84.3896 -0.409652 -1.97292 0
M  V30 887 O 83.4456 0.154614 -2.52026 0
M  V30 888 C 84.7586 -2.77768 -1.15175 0
M  V30 889 C 86.3066 -2.86549 -1.25931 0
M  V30 890 C 86.7816 -4.28306 -1.62228 0
M  V30 891 N 88.2726 -4.31169 -1.69256 0
M  V30 892 C 89.0076 -5.37832 -1.98807 0
M  V30 893 N 88.5036 -6.54726 -2.26507 0
M  V30 894 N 90.2966 -5.25258 -2.00152 0
M  V30 895 H 82.4476 -2.10691 0.268881 0
M  V30 896 H 84.7106 -0.946241 0.057728 0
M  V30 897 H 84.4166 -3.49648 -0.379335 0
M  V30 898 H 84.2906 -3.13836 -2.09253 0
M  V30 899 H 86.6776 -2.14899 -2.02243 0
M  V30 900 H 86.7586 -2.54049 -0.298776 0
M  V30 901 H 86.4026 -5.00486 -0.864622 0
M  V30 902 H 86.3326 -4.58279 -2.594 0
M  V30 903 H 88.8236 -3.4687 -1.49965 0
M  V30 904 H 89.1366 -7.31833 -2.48276 0
M  V30 905 H 87.4816 -6.57933 -2.23939 0
M  V30 906 H 90.6726 -4.32938 -1.77996 0
M  V30 907 H 90.8456 -6.08476 -2.22848 0
M  V30 908 N 84.2517 0.741722 -1.39055 0
M  V30 909 C 85.4767 1.53607 -1.39354 0
M  V30 910 C 85.9017 1.88096 0.0116905 0
M  V30 911 O 85.2597 1.5143 0.996924 0
M  V30 912 C 85.3077 2.80441 -2.26682 0
M  V30 913 O 84.4117 3.76088 -1.69208 0
M  V30 914 H 83.7527 0.464142 -0.474835 0
M  V30 915 H 86.2827 0.915665 -1.82967 0
M  V30 916 H 86.2927 3.29246 -2.40959 0
M  V30 917 H 84.9677 2.5467 -3.2881 0
M  V30 918 H 83.5447 3.34833 -1.64138 0
M  V30 919 N 85.7298 1.2412 0.971189 0
M  V30 920 C 87.1408 1.07236 1.52831 0
M  V30 921 C 87.4918 -0.357352 1.92918 0
M  V30 922 O 86.6168 -1.24528 1.76979 0
M  V30 923 C 87.2118 1.94043 2.77728 0
M  V30 924 C 85.7708 1.81394 3.29808 0
M  V30 925 C 84.9178 1.89189 2.02738 0
M  V30 926 H 87.8688 1.37648 0.789864 0
M  V30 927 H 87.8898 1.47066 3.5093 0
M  V30 928 H 87.4018 2.98093 2.4852 0
M  V30 929 H 85.5028 0.801634 3.63874 0
M  V30 930 H 85.6158 2.65294 3.98944 0
M  V30 931 H 83.9798 1.32877 2.17292 0
M  V30 932 H 84.7628 2.94812 1.759 0
M  V30 933 N 87.2079 -1.17134 1.05439 0
M  V30 934 C 88.1379 -2.2342 0.678649 0
M  V30 935 C 89.1189 -1.66971 -0.32476 0
M  V30 936 O 90.3039 -1.93149 -0.201802 0
M  V30 937 C 87.4339 -3.47256 0.0552099 0
M  V30 938 C 86.3879 -4.16543 0.98365 0
M  V30 939 C 85.7139 -5.34231 0.223961 0
M  V30 940 C 87.0139 -4.68495 2.3089 0
M  V30 941 H 88.7079 -2.55105 1.56722 0
M  V30 942 H 86.2539 -1.2262 0.754998 0
M  V30 943 H 88.2069 -4.20828 -0.21946 0
M  V30 944 H 86.9309 -3.14846 -0.868319 0
M  V30 945 H 85.5899 -3.44887 1.24293 0
M  V30 946 H 85.2379 -4.98071 -0.702412 0
M  V30 947 H 84.9379 -5.81527 0.842627 0
M  V30 948 H 86.4619 -6.10585 -0.0433671 0
M  V30 949 H 87.8759 -5.33691 2.09396 0
M  V30 950 H 86.2729 -5.26379 2.88176 0
M  V30 951 H 87.3429 -3.85169 2.94572 0
M  V30 952 N 88.686 -0.835752 -1.33615 0
M  V30 953 C 89.616 -0.281739 -2.31794 0
M  V30 954 C 90.597 0.608833 -1.58831 0
M  V30 955 O 91.782 0.533035 -1.86741 0
M  V30 956 C 88.912 0.546612 -3.42971 0
M  V30 957 C 87.866 -0.247904 -4.27281 0
M  V30 958 C 87.192 0.704001 -5.30045 0
M  V30 959 C 88.492 -1.46324 -5.01385 0
M  V30 960 H 90.186 -1.10206 -2.78379 0
M  V30 961 H 87.732 -0.531388 -1.33837 0
M  V30 962 H 89.685 0.944467 -4.1068 0
M  V30 963 H 88.409 1.40011 -2.95067 0
M  V30 964 H 87.068 -0.627281 -3.61194 0
M  V30 965 H 86.716 1.55381 -4.78399 0
M  V30 966 H 86.416 0.176524 -5.87335 0
M  V30 967 H 87.94 1.09944 -6.0062 0
M  V30 968 H 89.354 -1.13871 -5.61877 0
M  V30 969 H 87.751 -1.92728 -5.6831 0
M  V30 970 H 88.821 -2.23467 -4.30338 0
M  V30 971 N 90.1641 1.46063 -0.591896 0
M  V30 972 C 91.5751 1.85944 -0.167822 0
M  V30 973 C 91.9261 1.49429 1.27143 0
M  V30 974 O 91.0511 0.913515 1.96173 0
M  V30 975 C 91.6461 3.37489 -0.297794 0
M  V30 976 C 90.2051 3.76332 0.0714732 0
M  V30 977 C 89.3521 2.7006 -0.629509 0
M  V30 978 H 92.3031 1.37087 -0.799555 0
M  V30 979 H 92.3241 3.77532 0.474349 0
M  V30 980 H 91.8361 3.64034 -1.3454 0
M  V30 981 H 89.9371 3.55405 1.11886 0
M  V30 982 H 90.0501 4.78088 -0.311245 0
M  V30 983 H 88.4141 2.54607 -0.0687867 0
M  V30 984 H 89.1971 2.99444 -1.67894 0
M  V30 985 N 91.6422 0.330177 1.54103 0
M  V30 986 C 92.5742 -0.566902 2.22079 0
M  V30 987 C 93.5872 -1.07462 1.22294 0
M  V30 988 O 94.7762 -0.987065 1.48726 0
M  V30 989 C 91.8762 -1.79138 2.87685 0
M  V30 990 C 91.0492 -1.42123 4.13666 0
M  V30 991 C 90.1082 -2.50394 4.62806 0
M  V30 992 O 89.1342 -2.14261 5.27334 0
M  V30 993 N 90.3362 -3.81433 4.37595 0
M  V30 994 H 93.1012 0.0151844 2.99696 0
M  V30 995 H 90.6622 0.153681 1.61169 0
M  V30 996 H 92.6542 -2.50975 3.1748 0
M  V30 997 H 91.2242 -2.28115 2.13734 0
M  V30 998 H 90.4442 -0.534201 3.90564 0
M  V30 999 H 91.7322 -1.14971 4.9564 0
M  V30 1000 H 91.1302 -4.13584 3.8596 0
M  V30 1001 H 89.6872 -4.4948 4.72029 0
M  V30 1002 N 93.1203 -1.57491 0.0584922 0
M  V30 1003 C 94.0503 -2.14988 -0.911178 0
M  V30 1004 C 95.0313 -1.07343 -1.31952 0
M  V30 1005 O 96.2163 -1.35318 -1.39294 0
M  V30 1006 C 93.3463 -2.70078 -2.18347 0
M  V30 1007 C 92.3003 -3.82771 -1.91495 0
M  V30 1008 C 91.6263 -4.24408 -3.25241 0
M  V30 1009 C 92.9263 -5.07592 -1.23075 0
M  V30 1010 H 94.6203 -2.96263 -0.432246 0
M  V30 1011 H 92.1663 -1.42512 -0.206469 0
M  V30 1012 H 94.1193 -3.08943 -2.86587 0
M  V30 1013 H 92.8433 -1.86005 -2.68458 0
M  V30 1014 H 91.5023 -3.44389 -1.25664 0
M  V30 1015 H 91.1503 -3.37275 -3.73168 0
M  V30 1016 H 90.8503 -5.00366 -3.08071 0
M  V30 1017 H 92.3743 -4.65879 -3.94701 0
M  V30 1018 H 93.7883 -5.43857 -1.81362 0
M  V30 1019 H 92.1853 -5.88741 -1.16207 0
M  V30 1020 H 93.2553 -4.84454 -0.207847 0
M  V30 1021 N 94.5984 0.214957 -1.56127 0
M  V30 1022 C 95.8464 0.936518 -1.79091 0
M  V30 1023 C 96.1674 1.84606 -0.628148 0
M  V30 1024 O 95.4374 1.92664 0.35462 0
M  V30 1025 H 94.0174 0.3488 -0.660566 0
M  V30 1026 H 96.6794 0.22523 -1.93594 0
M  V30 1027 H 95.7754 1.53943 -2.71492 0
M  V30 1028 N 96.0765 1.50051 0.48192 0
M  V30 1029 C 97.0065 1.71046 1.58951 0
M  V30 1030 C 97.9875 0.559288 1.60642 0
M  V30 1031 O 99.1725 0.797243 1.77081 0
M  V30 1032 C 96.3025 1.79462 2.97339 0
M  V30 1033 C 95.2565 2.94558 3.10515 0
M  V30 1034 C 94.5825 2.88105 4.50444 0
M  V30 1035 C 95.8825 4.35227 2.88747 0
M  V30 1036 H 97.5765 2.6378 1.41635 0
M  V30 1037 H 95.1225 1.26936 0.679942 0
M  V30 1038 H 97.0755 1.92734 3.74742 0
M  V30 1039 H 95.7995 0.833412 3.15788 0
M  V30 1040 H 94.4585 2.80918 2.35543 0
M  V30 1041 H 94.1065 1.89853 4.65795 0
M  V30 1042 H 93.8065 3.65366 4.60197 0
M  V30 1043 H 95.3305 3.03412 5.29881 0
M  V30 1044 H 96.7445 4.49449 3.55905 0
M  V30 1045 H 95.1415 5.13856 3.09955 0
M  V30 1046 H 96.2115 4.48347 1.84696 0
M  V30 1047 N 97.5546 -0.734337 1.39446 0
M  V30 1048 C 98.8026 -1.49096 1.36436 0
M  V30 1049 C 99.1236 -1.94961 -0.0388255 0
M  V30 1050 O 98.3936 -1.69033 -0.990191 0
M  V30 1051 H 96.9736 -0.5531 0.502085 0
M  V30 1052 H 99.6356 -0.871725 1.74319 0
M  V30 1053 H 98.7316 -2.37276 2.02747 0
M  V30 1054 N 99.0327 -1.24633 -0.964593 0
M  V30 1055 C 99.9957 -1.0424 -2.04124 0
M  V30 1056 C 100.996 0.00137563 -1.608 0
M  V30 1057 O 102.186 -0.239883 -1.7254 0
M  V30 1058 C 99.3177 -0.580588 -3.3592 0
M  V30 1059 H 100.511 -1.99803 -2.23649 0
M  V30 1060 H 98.0637 -1.06899 -1.14027 0
M  V30 1061 H 98.7987 0.3781 -3.22088 0
M  V30 1062 H 98.5837 -1.33398 -3.6871 0
M  V30 1063 H 100.074 -0.459034 -4.15069 0
M  V30 1064 N 100.511 1.16574 -1.06058 0
M  V30 1065 C 101.788 1.83048 -0.689416 0
M  V30 1066 C 102.168 1.94122 0.829443 0
M  V30 1067 O 101.516 1.48249 1.7388 0
M  V30 1068 C 101.726 3.20186 -1.38859 0
M  V30 1069 C 103.074 3.95989 -1.53226 0
M  V30 1070 O 104.098 3.29696 -1.3483 0
M  V30 1071 O 102.957 5.14813 -1.83384 0
M  V30 1072 H 100.051 0.790258 -0.243764 0
M  V30 1073 H 102.597 1.23797 -1.16071 0
M  V30 1074 H 101.369 3.07146 -2.4244 0
M  V30 1075 H 100.992 3.87112 -0.907216 0
M  V30 1076 N 101.989 0.842826 1.3317 0
M  V30 1077 C 103.219 0.453397 2.01564 0
M  V30 1078 C 103.627 -0.951147 1.63554 0
M  V30 1079 O 102.97 -1.63021 0.846746 0
M  V30 1080 C 103.032 0.499013 3.5602 0
M  V30 1081 C 102.696 1.86037 4.1742 0
M  V30 1082 C 103.693 2.82416 4.36506 0
M  V30 1083 C 101.378 2.15428 4.53757 0
M  V30 1084 C 103.372 4.06346 4.91082 0
M  V30 1085 C 101.059 3.39615 5.0804 0
M  V30 1086 C 102.057 4.3489 5.26649 0
M  V30 1087 O 101.745 5.5688 5.79776 0
M  V30 1088 H 101.477 0.177871 0.652179 0
M  V30 1089 H 104.031 1.13808 1.70988 0
M  V30 1090 H 102.261 -0.242467 3.85939 0
M  V30 1091 H 103.95 0.126852 4.05702 0
M  V30 1092 H 104.716 2.6101 4.08777 0
M  V30 1093 H 100.595 1.42061 4.38565 0
M  V30 1094 H 104.139 4.80722 5.05522 0
M  V30 1095 H 100.036 3.60876 5.352 0
M  V30 1096 H 100.804 5.58674 5.98185 0
M  V30 1097 N 103.467 -1.45747 0.599634 0
M  V30 1098 C 104.695 -2.06668 0.0978551 0
M  V30 1099 C 105.11 -1.44562 -1.21439 0
M  V30 1100 O 104.467 -0.556923 -1.73795 0
M  V30 1101 C 104.518 -3.61456 -0.0567044 0
M  V30 1102 O 104.239 -4.21242 1.20361 0
M  V30 1103 C 105.74 -4.39345 -0.590869 0
M  V30 1104 H 102.96 -0.667825 0.0651943 0
M  V30 1105 H 105.504 -1.87115 0.82511 0
M  V30 1106 H 103.659 -3.80378 -0.734251 0
M  V30 1107 H 104.073 -5.14323 1.02821 0
M  V30 1108 H 105.547 -5.48182 -0.648131 0
M  V30 1109 H 106.024 -4.08568 -1.61147 0
M  V30 1110 H 106.63 -4.25268 0.0523679 0
M  V30 1111 N 104.945 -0.338344 -1.53925 0
M  V30 1112 C 106.175 0.260919 -2.04946 0
M  V30 1113 C 106.583 1.45174 -1.2133 0
M  V30 1114 O 105.926 1.82122 -0.240262 0
M  V30 1115 C 105.988 0.744596 -3.51704 0
M  V30 1116 C 105.652 -0.325883 -4.55837 0
M  V30 1117 C 106.649 -1.16687 -5.06636 0
M  V30 1118 C 104.334 -0.478317 -5.00017 0
M  V30 1119 C 106.328 -2.14588 -6.00192 0
M  V30 1120 C 104.015 -1.46073 -5.93385 0
M  V30 1121 C 105.013 -2.29297 -6.4336 0
M  V30 1122 O 104.701 -3.25867 -7.34892 0
M  V30 1123 H 104.433 0.0551207 -0.673749 0
M  V30 1124 H 106.987 -0.486984 -1.99544 0
M  V30 1125 H 105.217 1.54366 -3.54553 0
M  V30 1126 H 106.906 1.26383 -3.85723 0
M  V30 1127 H 107.672 -1.06016 -4.73271 0
M  V30 1128 H 103.551 0.159613 -4.60724 0
M  V30 1129 H 107.095 -2.79585 -6.39123 0
M  V30 1130 H 102.992 -1.56802 -6.26166 0
M  V30 1131 H 103.76 -3.21278 -7.5281 0
M  V30 1132 N 106.423 1.57458 -0.0668435 0
M  V30 1133 C 107.648 1.9804 0.616027 0
M  V30 1134 C 108.073 0.944771 1.62652 0
M  V30 1135 O 107.431 -0.0902094 1.81075 0
M  V30 1136 C 107.479 3.37665 1.26549 0
M  V30 1137 O 106.583 3.36701 2.38131 0
M  V30 1138 H 105.924 0.644719 0.158849 0
M  V30 1139 H 108.454 2.04121 -0.139891 0
M  V30 1140 H 108.464 3.7474 1.6135 0
M  V30 1141 H 107.139 4.12573 0.525016 0
M  V30 1142 H 105.716 3.1139 2.0516 0
M  V30 1143 N 107.901 -0.206675 1.56239 0
M  V30 1144 C 108.849 -1.27571 1.94495 0
M  V30 1145 C 109.843 -1.47737 0.828862 0
M  V30 1146 O 111.049 -1.48735 1.0138 0
M  V30 1147 H 107.424 -0.428029 0.6183 0
M  V30 1148 H 109.395 -0.925961 2.8367 0
M  V30 1149 C 108.144 -2.61568 2.29079 0
M  V30 1150 H 107.467 -2.46863 3.14482 0
M  V30 1151 H 108.907 -3.35144 2.5972 0
M  V30 1152 C 107.366 -3.17695 1.12123 0
M  V30 1153 O 107.896 -3.99801 0.390153 0
M  V30 1154 N 106.102 -2.76276 0.901097 0
M  V30 1155 H 105.649 -2.09613 1.49733 0
M  V30 1156 H 105.607 -3.1417 0.120319 0
M  V30 1157 N 109.379 -1.50304 -0.473955 0
M  V30 1158 C 110.627 -1.60832 -1.22382 0
M  V30 1159 C 110.948 -0.30939 -1.9253 0
M  V30 1160 O 110.218 0.67296 -1.83978 0
M  V30 1161 H 108.798 -0.592652 -0.454723 0
M  V30 1162 H 111.46 -1.87068 -0.546968 0
M  V30 1163 H 110.556 -2.41803 -1.97327 0
M  V30 1164 N 110.857 0.726932 -1.39834 0
M  V30 1165 C 112.087 1.51393 -1.40583 0
M  V30 1166 C 112.495 1.892 -0.000740625 0
M  V30 1167 O 111.838 1.55189 0.982951 0
M  V30 1168 C 111.9 2.82588 -2.22226 0
M  V30 1169 C 111.564 2.67169 -3.70769 0
M  V30 1170 C 112.561 2.3518 -4.63666 0
M  V30 1171 C 110.246 2.83788 -4.14451 0
M  V30 1172 C 112.24 2.20002 -5.98229 0
M  V30 1173 C 109.927 2.68229 -5.49087 0
M  V30 1174 C 110.925 2.36382 -6.4079 0
M  V30 1175 O 110.613 2.2093 -7.72946 0
M  V30 1176 H 110.345 0.474168 -0.48181 0
M  V30 1177 H 112.899 0.905247 -1.84376 0
M  V30 1178 H 111.129 3.45746 -1.73195 0
M  V30 1179 H 112.818 3.44247 -2.15055 0
M  V30 1180 H 113.584 2.21984 -4.31217 0
M  V30 1181 H 109.463 3.07566 -3.43401 0
M  V30 1182 H 113.007 1.95067 -6.69772 0
M  V30 1183 H 108.904 2.81006 -5.81125 0
M  V30 1184 H 109.672 2.35937 -7.83757 0
M  V30 1185 N 112.336 1.25143 0.95797 0
M  V30 1186 C 113.752 1.01892 1.22842 0
M  V30 1187 C 113.952 -0.266311 1.99732 0
M  V30 1188 O 113.008 -0.979913 2.3271 0
M  V30 1189 C 114.321 2.24004 2.00606 0
M  V30 1190 C 115.869 2.28731 2.13662 0
M  V30 1191 C 116.344 3.5049 2.94823 0
M  V30 1192 N 117.835 3.50866 3.02403 0
M  V30 1193 C 118.57 4.4174 3.65586 0
M  V30 1194 N 118.066 5.42882 4.30408 0
M  V30 1195 N 119.859 4.29429 3.62694 0
M  V30 1196 H 112.01 2.07718 0.443493 0
M  V30 1197 H 114.273 0.912031 0.258657 0
M  V30 1198 H 113.979 3.17395 1.51503 0
M  V30 1199 H 113.853 2.26907 3.01319 0
M  V30 1200 H 116.24 1.35865 2.61963 0
M  V30 1201 H 116.321 2.29848 1.12265 0
M  V30 1202 H 115.965 4.43676 2.47213 0
M  V30 1203 H 115.895 3.46617 3.96439 0
M  V30 1204 H 118.386 2.777 2.56302 0
M  V30 1205 H 118.699 6.0844 4.76467 0
M  V30 1206 H 117.044 5.46758 4.29047 0
M  V30 1207 H 120.235 3.49643 3.11236 0
M  V30 1208 H 120.408 5.00448 4.1165 0
M  V30 1209 N 113.814 -1.1601 1.06675 0
M  V30 1210 C 115.091 -1.82679 0.699114 0
M  V30 1211 C 115.471 -1.94559 -0.819137 0
M  V30 1212 O 114.819 -1.49169 -1.73092 0
M  V30 1213 C 115.029 -3.19445 1.40555 0
M  V30 1214 C 116.377 -3.95171 1.55323 0
M  V30 1215 O 117.401 -3.28976 1.36577 0
M  V30 1216 O 116.26 -5.13833 1.86112 0
M  V30 1217 H 113.354 -0.788954 0.247951 0
M  V30 1218 H 115.9 -1.23179 1.16726 0
M  V30 1219 H 114.672 -3.05856 2.44065 0
M  V30 1220 H 114.295 -3.86625 0.927733 0
M  V30 1221 N 115.292 -0.849877 -1.32721 0
M  V30 1222 C 116.255 -0.296122 -2.27279 0
M  V30 1223 C 117.255 0.541458 -1.5141 0
M  V30 1224 O 118.445 0.353658 -1.70572 0
M  V30 1225 C 115.577 0.581579 -3.35902 0
M  V30 1226 H 116.77 -1.13064 -2.77771 0
M  V30 1227 H 114.323 -0.62383 -1.43311 0
M  V30 1228 H 115.058 1.43809 -2.9067 0
M  V30 1229 H 114.843 -0.0178814 -3.92096 0
M  V30 1230 H 116.333 0.961951 -4.0637 0
M  V30 1231 N 116.77 1.45427 -0.607355 0
M  V30 1232 C 117.718 2.32269 0.12411 0
M  V30 1233 C 118.712 1.45955 0.859854 0
M  V30 1234 O 119.918 1.6244 0.775447 0
M  V30 1235 H 116.293 0.749691 0.0588839 0
M  V30 1236 H 118.264 2.91743 -0.626762 0
M  V30 1237 C 117.013 3.29567 1.1082 0
M  V30 1238 H 116.336 3.95978 0.551492 0
M  V30 1239 H 117.776 3.93061 1.58995 0
M  V30 1240 C 116.235 2.56722 2.18164 0
M  V30 1241 O 116.765 2.34842 3.25902 0
M  V30 1242 N 114.971 2.16861 1.93442 0
M  V30 1243 H 114.518 2.34855 1.05834 0
M  V30 1244 H 114.476 1.68444 2.65469 0
M  V30 1245 N 118.248 0.346503 1.53744 0
M  V30 1246 C 119.496 -0.248612 2.00565 0
M  V30 1247 C 119.817 -1.5083 1.23593 0
M  V30 1248 O 119.087 -1.92858 0.343912 0
M  V30 1249 H 117.667 -0.0948564 0.740953 0
M  V30 1250 H 120.329 0.468341 1.89189 0
M  V30 1251 H 119.425 -0.488994 3.08245 0
M  V30 1252 N 119.726 -1.57421 0.075193 0
M  V30 1253 C 120.975 -1.92794 -0.592731 0
M  V30 1254 C 121.288 -0.957478 -1.70563 0
M  V30 1255 O 122.494 -1.20417 -2.43335 0
M  V30 1256 C 120.95 -3.42495 -1.10569 0
M  V30 1257 C 120.558 -4.47994 -0.0236121 0
M  V30 1258 C 122.302 -3.86864 -1.74748 0
M  V30 1259 C 120.209 -5.88829 -0.550803 0
M  V30 1260 H 119.139 -0.719591 -0.225177 0
M  V30 1261 H 121.79 -1.82902 0.147978 0
M  V30 1262 H 120.172 -3.47471 -1.89947 0
M  V30 1263 H 121.346 -4.54637 0.751099 0
M  V30 1264 H 119.661 -4.13113 0.522159 0
M  V30 1265 H 122.258 -4.8947 -2.15229 0
M  V30 1266 H 122.601 -3.24417 -2.60882 0
M  V30 1267 H 123.134 -3.84504 -1.01986 0
M  V30 1268 H 119.873 -6.54929 0.273457 0
M  V30 1269 H 119.393 -5.85698 -1.29296 0
M  V30 1270 H 121.072 -6.38811 -1.02613 0
M  V30 1271 N 121.204 0.198386 -1.56346 0
M  V30 1272 C 122.152 1.26538 -1.95169 0
M  V30 1273 C 123.146 1.47295 -0.836685 0
M  V30 1274 O 124.352 1.48195 -1.02167 0
M  V30 1275 H 120.727 0.424744 -0.620561 0
M  V30 1276 H 122.698 0.910904 -2.84157 0
M  V30 1277 C 121.447 2.6035 -2.30463 0
M  V30 1278 H 120.77 2.45192 -3.15786 0
M  V30 1279 H 122.21 3.33762 -2.61494 0
M  V30 1280 C 120.669 3.17096 -1.13806 0
M  V30 1281 O 121.199 3.99588 -0.41135 0
M  V30 1282 N 119.405 2.75795 -0.915736 0
M  V30 1283 H 118.952 2.08816 -1.50843 0
M  V30 1284 H 118.91 3.14101 -0.136979 0
M  V30 1285 N 122.682 1.50554 0.465978 0
M  V30 1286 C 123.907 1.65838 1.24549 0
M  V30 1287 C 124.332 0.343486 1.84937 0
M  V30 1288 O 123.69 -0.69324 1.67523 0
M  V30 1289 C 123.738 2.75533 2.32624 0
M  V30 1290 O 122.842 2.37142 3.37398 0
M  V30 1291 H 122.183 0.553893 0.366194 0
M  V30 1292 H 124.713 1.96959 0.553927 0
M  V30 1293 H 124.723 2.98763 2.77857 0
M  V30 1294 H 123.398 3.70962 1.88043 0
M  V30 1295 H 121.975 2.24377 2.97841 0
M  V30 1296 N 124.16 -0.719506 1.40217 0
M  V30 1297 C 125.108 -1.85493 1.40339 0
M  V30 1298 C 126.102 -1.66995 0.284415 0
M  V30 1299 O 127.308 -1.74148 0.455252 0
M  V30 1300 H 123.683 -0.610857 0.438586 0
M  V30 1301 H 125.654 -1.82506 2.36081 0
M  V30 1302 C 124.403 -3.23321 1.27901 0
M  V30 1303 H 123.726 -3.38159 2.1328 0
M  V30 1304 H 125.166 -4.02914 1.32045 0
M  V30 1305 C 123.625 -3.36898 -0.0111355 0
M  V30 1306 O 124.155 -3.89674 -0.975538 0
M  V30 1307 N 122.361 -2.90492 -0.0793393 0
M  V30 1308 H 121.908 -2.47731 0.706183 0
M  V30 1309 H 121.866 -2.99955 -0.942038 0
M  V30 1310 N 125.638 -1.25649 -0.95132 0
M  V30 1311 C 126.601 -1.06399 -2.03007 0
M  V30 1312 C 127.601 -0.0156794 -1.60792 0
M  V30 1313 O 128.791 -0.25817 -1.72276 0
M  V30 1314 C 125.923 -0.616184 -3.35285 0
M  V30 1315 H 127.116 -2.02164 -2.21517 0
M  V30 1316 H 124.669 -1.08103 -1.12887 0
M  V30 1317 H 125.404 0.343917 -3.22471 0
M  V30 1318 H 125.189 -1.37301 -3.67275 0
M  V30 1319 H 126.679 -0.503032 -4.14559 0
M  V30 1320 N 127.117 1.15442 -1.07289 0
M  V30 1321 C 128.345 1.90096 -0.81676 0
M  V30 1322 C 128.76 1.7798 0.629966 0
M  V30 1323 O 128.117 1.1313 1.43206 0
M  V30 1324 C 128.168 3.40466 -1.21512 0
M  V30 1325 O 127.889 3.52232 -2.60508 0
M  V30 1326 C 129.39 4.32145 -0.988198 0
M  V30 1327 H 126.61 0.602495 -0.295366 0
M  V30 1328 H 129.154 1.4627 -1.42918 0
M  V30 1329 H 127.309 3.81958 -0.647039 0
M  V30 1330 H 127.723 4.45549 -2.76742 0
M  V30 1331 H 129.197 5.36072 -1.31645 0
M  V30 1332 H 129.674 4.39135 0.0755063 0
M  V30 1333 H 130.28 3.96395 -1.54115 0
M  V30 1334 N 128.595 0.856903 1.32268 0
M  V30 1335 C 129.82 0.474569 2.01897 0
M  V30 1336 C 130.245 -0.921766 1.63967 0
M  V30 1337 O 129.603 -1.60589 0.84148 0
M  V30 1338 C 129.651 0.623799 3.55164 0
M  V30 1339 O 128.755 -0.342459 4.10976 0
M  V30 1340 H 128.096 0.190422 0.63611 0
M  V30 1341 H 130.626 1.15672 1.68764 0
M  V30 1342 H 130.636 0.512169 4.04773 0
M  V30 1343 H 129.311 1.64202 3.82113 0
M  V30 1344 H 127.888 -0.18688 3.72431 0
M  V30 1345 N 130.073 -1.45103 0.615059 0
M  V30 1346 C 131.036 -2.29025 -0.0895485 0
M  V30 1347 C 132.036 -1.40174 -0.787906 0
M  V30 1348 O 133.226 -1.62217 -0.634933 0
M  V30 1349 C 130.358 -3.21376 -1.13711 0
M  V30 1350 H 131.551 -2.92807 0.648382 0
M  V30 1351 H 129.104 -1.51749 0.374444 0
M  V30 1352 H 129.839 -2.6241 -1.90556 0
M  V30 1353 H 129.624 -3.86834 -0.640475 0
M  V30 1354 H 131.114 -3.84459 -1.63036 0
M  V30 1355 N 131.551 -0.354651 -1.53558 0
M  V30 1356 C 132.776 0.242153 -2.05981 0
M  V30 1357 C 133.201 1.42553 -1.2272 0
M  V30 1358 O 132.559 1.79656 -0.243604 0
M  V30 1359 C 132.607 0.624367 -3.55154 0
M  V30 1360 O 131.711 1.72301 -3.74681 0
M  V30 1361 H 131.052 0.0378432 -0.662921 0
M  V30 1362 H 133.582 -0.512087 -1.98088 0
M  V30 1363 H 133.592 0.898433 -3.97985 0
M  V30 1364 H 132.267 -0.240989 -4.15201 0
M  V30 1365 H 130.844 1.44535 -3.4375 0
M  V30 1366 N 133.029 1.57378 -0.0835403 0
M  V30 1367 C 133.959 2.1641 0.87686 0
M  V30 1368 C 134.94 1.09429 1.30228 0
M  V30 1369 O 136.125 1.37516 1.37124 0
M  V30 1370 C 133.255 2.73517 2.14022 0
M  V30 1371 C 132.209 3.85769 1.85381 0
M  V30 1372 C 131.535 4.29529 3.18448 0
M  V30 1373 C 132.835 5.09486 1.14984 0
M  V30 1374 H 134.529 2.96914 0.385059 0
M  V30 1375 H 132.075 1.42823 0.18377 0
M  V30 1376 H 134.028 3.13463 2.81636 0
M  V30 1377 H 132.752 1.90252 2.65465 0
M  V30 1378 H 131.411 3.46345 1.20169 0
M  V30 1379 H 131.059 3.43169 3.67755 0
M  V30 1380 H 130.759 5.05204 3.00071 0
M  V30 1381 H 132.283 4.72099 3.8724 0
M  V30 1382 H 133.697 5.46674 1.72687 0
M  V30 1383 H 132.094 5.90515 1.06826 0
M  V30 1384 H 133.164 4.84724 0.130749 0
M  V30 1385 N 134.507 -0.190092 1.56449 0
M  V30 1386 C 135.439 -1.25973 1.91477 0
M  V30 1387 C 136.452 -1.41452 0.805931 0
M  V30 1388 O 137.641 -1.41789 1.08435 0
M  V30 1389 C 134.741 -2.63117 2.13594 0
M  V30 1390 C 133.914 -2.69182 3.4476 0
M  V30 1391 C 132.973 -3.87557 3.5593 0
M  V30 1392 O 131.999 -3.74427 4.28711 0
M  V30 1393 N 133.201 -5.03224 2.89388 0
M  V30 1394 H 135.966 -0.962394 2.83828 0
M  V30 1395 H 133.527 -0.379981 1.57378 0
M  V30 1396 H 135.519 -3.40742 2.1835 0
M  V30 1397 H 134.089 -2.85319 1.27719 0
M  V30 1398 H 133.309 -1.77793 3.51828 0
M  V30 1399 H 134.597 -2.70229 4.31107 0
M  V30 1400 H 133.995 -5.16791 2.30094 0
M  V30 1401 H 132.552 -5.78778 2.99764 0
M  V30 1402 N 135.985 -1.50799 -0.457987 0
M  V30 1403 C 136.915 -1.73553 -1.5621 0
M  V30 1404 C 137.896 -0.584774 -1.59732 0
M  V30 1405 O 139.081 -0.825314 -1.7579 0
M  V30 1406 C 136.211 -1.84169 -2.94447 0
M  V30 1407 C 135.165 -2.99461 -3.0579 0
M  V30 1408 C 134.491 -2.95235 -4.45803 0
M  V30 1409 C 135.791 -4.39766 -2.81786 0
M  V30 1410 H 137.485 -2.66 -1.37421 0
M  V30 1411 H 135.031 -1.28002 -0.659662 0
M  V30 1412 H 136.984 -1.98672 -3.71628 0
M  V30 1413 H 135.708 -0.883545 -3.14422 0
M  V30 1414 H 134.367 -2.8463 -2.31044 0
M  V30 1415 H 134.015 -1.97239 -4.62715 0
M  V30 1416 H 133.715 -3.72642 -4.54326 0
M  V30 1417 H 135.239 -3.11803 -5.24987 0
M  V30 1418 H 136.653 -4.55054 -3.4871 0
M  V30 1419 H 135.05 -5.18722 -3.0174 0
M  V30 1420 H 136.12 -4.51229 -1.7754 0
M  V30 1421 N 137.463 0.71206 -1.40597 0
M  V30 1422 C 138.691 1.50111 -1.42388 0
M  V30 1423 C 139.106 1.88784 -0.0245395 0
M  V30 1424 O 138.463 1.55681 0.952351 0
M  V30 1425 C 138.514 2.7742 -2.31776 0
M  V30 1426 O 138.235 2.40382 -3.66262 0
M  V30 1427 C 139.736 3.7129 -2.42196 0
M  V30 1428 H 136.956 0.46314 -0.485533 0
M  V30 1429 H 139.5 0.878068 -1.8469 0
M  V30 1430 H 137.655 3.36001 -1.92827 0
M  V30 1431 H 138.069 3.22324 -4.13772 0
M  V30 1432 H 139.543 4.57448 -3.08943 0
M  V30 1433 H 140.02 4.14641 -1.44809 0
M  V30 1434 H 140.626 3.18619 -2.81712 0
M  V30 1435 N 138.941 1.26152 0.944643 0
M  V30 1436 C 139.873 1.03199 2.04652 0
M  V30 1437 C 140.886 -0.00642356 1.62799 0
M  V30 1438 O 142.075 0.233263 1.76969 0
M  V30 1439 C 139.175 0.540111 3.34568 0
M  V30 1440 C 138.348 1.64697 4.05208 0
M  V30 1441 C 137.407 1.15374 5.13396 0
M  V30 1442 O 136.433 1.85013 5.38293 0
M  V30 1443 N 137.635 0.00031529 5.805 0
M  V30 1444 H 140.4 1.9808 2.2491 0
M  V30 1445 H 137.961 1.17491 1.11389 0
M  V30 1446 H 139.953 0.194401 4.04233 0
M  V30 1447 H 138.523 -0.315021 3.11009 0
M  V30 1448 H 137.743 2.16379 3.29506 0
M  V30 1449 H 139.031 2.3903 4.49157 0
M  V30 1450 H 138.429 -0.581336 5.62705 0
M  V30 1451 H 136.986 -0.286346 6.51171 0
M  V30 1452 N 140.419 -1.14872 1.07899 0
M  V30 1453 C 141.644 -1.90202 0.826926 0
M  V30 1454 C 142.069 -1.77774 -0.614664 0
M  V30 1455 O 141.427 -1.11431 -1.43013 0
M  V30 1456 C 141.475 -3.38352 1.24702 0
M  V30 1457 O 140.579 -4.10497 0.39575 0
M  V30 1458 H 139.92 -0.591968 0.300782 0
M  V30 1459 H 142.45 -1.45437 1.43907 0
M  V30 1460 H 142.46 -3.89156 1.22563 0
M  V30 1461 H 141.135 -3.46715 2.29698 0
M  V30 1462 H 139.712 -3.69796 0.480117 0
M  V30 1463 N 141.898 -0.863906 -1.31812 0
M  V30 1464 C 143.147 -0.46801 -1.96195 0
M  V30 1465 C 143.46 0.983474 -1.69077 0
M  V30 1466 O 144.666 1.48523 -2.27273 0
M  V30 1467 C 143.122 -0.785995 -3.51212 0
M  V30 1468 C 142.73 -2.25383 -3.87178 0
M  V30 1469 C 144.474 -0.458274 -4.22019 0
M  V30 1470 C 142.381 -2.51455 -5.3528 0
M  V30 1471 H 141.311 -0.171283 -0.734287 0
M  V30 1472 H 143.962 -1.05597 -1.50072 0
M  V30 1473 H 142.344 -0.127359 -3.95795 0
M  V30 1474 H 143.518 -2.95502 -3.53575 0
M  V30 1475 H 141.833 -2.54698 -3.2942 0
M  V30 1476 H 144.43 -0.630369 -5.30971 0
M  V30 1477 H 144.773 0.600834 -4.11941 0
M  V30 1478 H 145.306 -1.07319 -3.8305 0
M  V30 1479 H 142.045 -3.56025 -5.50387 0
M  V30 1480 H 141.565 -1.85923 -5.70257 0
M  V30 1481 H 143.244 -2.35874 -6.02472 0
M  V30 1482 N 143.376 1.44774 -0.622745 0
M  V30 1483 C 144.623 2.02121 -0.1239 0
M  V30 1484 C 144.951 1.48915 1.25118 0
M  V30 1485 O 144.206 0.660045 1.84233 0
M  V30 1486 C 144.505 3.57364 -0.0508323 0
M  V30 1487 C 144.171 4.29787 -1.36358 0
M  V30 1488 C 142.833 4.4929 -1.72314 0
M  V30 1489 C 145.185 4.71062 -2.23048 0
M  V30 1490 C 142.513 5.07325 -2.94682 0
M  V30 1491 C 144.865 5.30452 -3.44679 0
M  V30 1492 C 143.529 5.48175 -3.80868 0
M  V30 1493 H 142.799 0.739612 -0.0453381 0
M  V30 1494 H 145.446 1.73648 -0.807389 0
M  V30 1495 H 143.751 3.85202 0.715991 0
M  V30 1496 H 145.448 3.99456 0.351533 0
M  V30 1497 H 142.038 4.14932 -1.07375 0
M  V30 1498 H 146.222 4.55715 -1.96565 0
M  V30 1499 H 141.478 5.19235 -3.22809 0
M  V30 1500 H 145.652 5.61385 -4.12092 0
M  V30 1501 H 143.279 5.92912 -4.75773 0
M  V30 1502 N 144.854 0.36279 1.53368 0
M  V30 1503 C 146.131 -0.284021 1.93527 0
M  V30 1504 C 146.511 -1.66628 1.29608 0
M  V30 1505 O 145.859 -2.23942 0.45413 0
M  V30 1506 C 146.069 -0.337028 3.47369 0
M  V30 1507 C 147.417 -0.578708 4.20638 0
M  V30 1508 O 148.441 -0.418352 3.53735 0
M  V30 1509 O 147.3 -0.89074 5.39192 0
M  V30 1510 H 144.394 -0.169743 0.809393 0
M  V30 1511 H 146.94 0.41537 1.64538 0
M  V30 1512 H 145.712 0.632217 3.86159 0
M  V30 1513 H 145.335 -1.08243 3.82582 0
M  V30 1514 N 146.332 -1.57332 0.0918853 0
M  V30 1515 C 147.265 -2.09499 -0.904735 0
M  V30 1516 C 148.243 -1.00479 -1.27839 0
M  V30 1517 O 149.427 -1.27954 -1.38419 0
M  V30 1518 C 146.554 -2.56931 -2.2069 0
M  V30 1519 C 145.6 -3.77579 -1.98334 0
M  V30 1520 S 146.433 -5.21317 -1.22428 0
M  V30 1521 C 147.589 -5.72097 -2.53882 0
M  V30 1522 H 147.822 -2.93705 -0.460922 0
M  V30 1523 H 145.355 -1.53923 -0.121332 0
M  V30 1524 H 147.313 -2.84917 -2.95521 0
M  V30 1525 H 145.974 -1.72956 -2.62192 0
M  V30 1526 H 145.167 -4.08824 -2.94752 0
M  V30 1527 H 144.769 -3.5007 -1.31633 0
M  V30 1528 H 147.061 -5.80168 -3.49874 0
M  V30 1529 H 148.004 -6.70654 -2.27219 0
M  V30 1530 H 148.412 -5.00012 -2.62007 0
M  V30 1531 N 147.81 0.181792 -1.56548 0
M  V30 1532 C 149.035 0.920019 -1.85877 0
M  V30 1533 C 149.46 1.75494 -0.677021 0
M  V30 1534 O 148.818 1.77399 0.374056 0
M  V30 1535 C 148.866 1.78112 -3.13542 0
M  V30 1536 O 147.97 2.88152 -2.95029 0
M  V30 1537 H 147.311 0.258334 -0.611686 0
M  V30 1538 H 149.841 0.183092 -2.03779 0
M  V30 1539 H 149.851 2.18314 -3.44678 0
M  V30 1540 H 148.526 1.16777 -3.99169 0
M  V30 1541 H 147.103 2.51609 -2.75222 0
M  V30 1542 N 149.288 1.51039 0.449983 0
M  V30 1543 C 150.235 1.71439 1.54523 0
M  V30 1544 C 151.205 0.555871 1.56522 0
M  V30 1545 O 152.39 0.788871 1.73728 0
M  V30 1546 C 149.53 1.83384 2.92343 0
M  V30 1547 C 148.643 3.10873 2.9997 0
M  V30 1548 C 147.778 3.13488 4.28834 0
M  V30 1549 C 146.817 4.35343 4.30282 0
M  V30 1550 N 145.954 4.35579 5.5065 0
M  V30 1551 H 150.794 2.64934 1.36433 0
M  V30 1552 H 148.331 1.31312 0.662982 0
M  V30 1553 H 150.289 1.88291 3.72293 0
M  V30 1554 H 148.919 0.933086 3.0902 0
M  V30 1555 H 147.971 3.15336 2.12761 0
M  V30 1556 H 149.283 4.00814 2.96901 0
M  V30 1557 H 148.437 3.17241 5.17149 0
M  V30 1558 H 147.176 2.21414 4.34543 0
M  V30 1559 H 146.181 4.3178 3.40362 0
M  V30 1560 H 147.406 5.28668 4.26248 0
M  V30 1561 H 145.352 3.46369 5.57104 0
M  V30 1562 H 145.269 5.19313 5.49409 0
M  V30 1563 H 146.537 4.43507 6.41032 0
M  V30 1564 N 150.766 -0.704594 1.40972 0
M  V30 1565 C 152.012 -1.46546 1.41053 0
M  V30 1566 C 152.367 -1.92393 0.0159714 0
M  V30 1567 O 151.66 -1.66017 -0.956506 0
M  V30 1568 C 151.854 -2.698 2.34399 0
M  V30 1569 C 151.683 -2.36008 3.82793 0
M  V30 1570 C 150.453 -2.26812 4.51536 0
M  V30 1571 C 152.651 -1.99565 4.74003 0
M  V30 1572 N 150.633 -1.8581 5.85105 0
M  V30 1573 C 152.004 -1.69251 5.96451 0
M  V30 1574 C 154.059 -1.86296 4.61734 0
M  V30 1575 C 152.762 -1.27003 7.07999 0
M  V30 1576 C 154.788 -1.45452 5.73234 0
M  V30 1577 C 154.15 -1.16043 6.94776 0
M  V30 1578 H 150.249 -0.533896 0.571383 0
M  V30 1579 H 152.833 -0.816061 1.76773 0
M  V30 1580 H 151.004 -3.32473 2.00789 0
M  V30 1581 H 152.736 -3.36214 2.25261 0
M  V30 1582 H 149.491 -2.44913 4.05357 0
M  V30 1583 H 149.915 -1.67817 6.55871 0
M  V30 1584 H 154.557 -2.0769 3.68273 0
M  V30 1585 H 152.275 -1.04353 8.01334 0
M  V30 1586 H 155.861 -1.35748 5.65742 0
M  V30 1587 H 154.741 -0.84915 7.79589 0
M  V30 1588 N 152.244 -1.26651 -0.937939 0
M  V30 1589 C 153.66 -1.03834 -1.21205 0
M  V30 1590 C 153.86 0.234502 -2.00131 0
M  V30 1591 O 152.916 0.942767 -2.3424 0
M  V30 1592 C 154.229 -2.27167 -1.97017 0
M  V30 1593 C 155.777 -2.32101 -2.09996 0
M  V30 1594 C 156.252 -3.55136 -2.8921 0
M  V30 1595 N 157.743 -3.55632 -2.96783 0
M  V30 1596 C 158.478 -4.475 -3.58512 0
M  V30 1597 N 157.974 -5.4966 -4.21717 0
M  V30 1598 N 159.767 -4.35145 -3.55816 0
M  V30 1599 H 151.918 -2.08398 -0.410391 0
M  V30 1600 H 154.181 -0.916031 -0.244114 0
M  V30 1601 H 153.887 -3.19765 -1.46434 0
M  V30 1602 H 153.761 -2.31672 -2.97671 0
M  V30 1603 H 156.148 -1.40015 -2.59769 0
M  V30 1604 H 156.229 -2.31605 -1.08594 0
M  V30 1605 H 155.873 -4.47553 -2.40123 0
M  V30 1606 H 155.803 -3.5288 -3.90875 0
M  V30 1607 H 158.294 -2.81743 -2.51852 0
M  V30 1608 H 158.607 -6.15943 -4.66727 0
M  V30 1609 H 156.952 -5.53514 -4.20294 0
M  V30 1610 H 160.143 -3.5455 -3.05634 0
M  V30 1611 H 160.316 -5.06934 -4.03636 0
M  V30 1612 N 153.722 1.14298 -1.08507 0
M  V30 1613 C 154.685 2.17607 -0.719711 0
M  V30 1614 C 155.685 1.58907 0.245997 0
M  V30 1615 O 156.875 1.74181 0.0254081 0
M  V30 1616 C 154.007 3.40842 -0.0627695 0
M  V30 1617 H 155.2 2.51443 -1.63452 0
M  V30 1618 H 152.753 1.28963 -0.88307 0
M  V30 1619 H 153.488 3.12587 0.863716 0
M  V30 1620 H 153.273 3.84713 -0.757504 0
M  V30 1621 H 154.763 4.17221 0.177786 0
M  V30 1622 N 155.201 0.870884 1.31352 0
M  V30 1623 C 156.131 0.343096 2.30966 0
M  V30 1624 C 157.112 -0.566507 1.60389 0
M  V30 1625 O 158.297 -0.483336 1.88089 0
M  V30 1626 C 155.427 -0.455487 3.443 0
M  V30 1627 C 154.381 0.361103 4.26474 0
M  V30 1628 C 153.707 -0.563221 5.31725 0
M  V30 1629 C 155.007 1.59566 4.97329 0
M  V30 1630 H 156.701 1.17548 2.75359 0
M  V30 1631 H 154.247 0.566686 1.32381 0
M  V30 1632 H 156.2 -0.83525 4.13039 0
M  V30 1633 H 154.924 -1.32139 2.98675 0
M  V30 1634 H 153.583 0.722825 3.59403 0
M  V30 1635 H 153.231 -1.42643 4.82351 0
M  V30 1636 H 152.931 -0.0207409 5.87596 0
M  V30 1637 H 154.455 -0.939808 6.03324 0
M  V30 1638 H 155.869 1.28728 5.58661 0
M  V30 1639 H 154.266 2.07728 5.63 0
M  V30 1640 H 155.336 2.34798 4.24262 0
M  V30 1641 N 156.679 -1.44442 0.630414 0
M  V30 1642 C 157.907 -2.06414 0.141671 0
M  V30 1643 C 158.322 -1.47105 -1.18345 0
M  V30 1644 O 157.679 -0.593662 -1.72574 0
M  V30 1645 C 157.73 -3.61494 0.0199784 0
M  V30 1646 O 157.451 -4.18594 1.29269 0
M  V30 1647 C 158.952 -4.40499 -0.497544 0
M  V30 1648 H 156.172 -0.666292 0.0793452 0
M  V30 1649 H 158.716 -1.85323 0.864614 0
M  V30 1650 H 156.871 -3.8185 -0.653402 0
M  V30 1651 H 157.285 -5.12026 1.13707 0
M  V30 1652 H 158.759 -5.49433 -0.531708 0
M  V30 1653 H 159.236 -4.11895 -1.52445 0
M  V30 1654 H 159.842 -4.25061 0.142562 0
M  V30 1655 N 158.157 -0.370918 -1.53173 0
M  V30 1656 C 159.087 0.464847 -2.28826 0
M  V30 1657 C 160.068 1.07936 -1.31468 0
M  V30 1658 O 161.253 1.0956 -1.60344 0
M  V30 1659 C 158.383 1.60196 -3.08147 0
M  V30 1660 C 157.337 1.11443 -4.13237 0
M  V30 1661 C 156.663 2.3422 -4.80672 0
M  V30 1662 C 157.963 0.195384 -5.21934 0
M  V30 1663 H 159.657 -0.166329 -2.98938 0
M  V30 1664 H 157.203 -0.0814359 -1.4377 0
M  V30 1665 H 159.156 2.19332 -3.59822 0
M  V30 1666 H 157.88 2.26045 -2.35735 0
M  V30 1667 H 156.539 0.545727 -3.62515 0
M  V30 1668 H 156.187 2.98537 -4.04827 0
M  V30 1669 H 155.887 2.02269 -5.51689 0
M  V30 1670 H 157.411 2.94032 -5.35143 0
M  V30 1671 H 158.825 0.694375 -5.69079 0
M  V30 1672 H 157.222 -0.0335027 -6.00091 0
M  V30 1673 H 158.292 -0.760961 -4.78892 0
M  V30 1674 N 159.635 1.57281 -0.100228 0
M  V30 1675 C 160.567 2.11342 0.886972 0
M  V30 1676 C 161.58 1.05182 1.24261 0
M  V30 1677 O 162.769 1.32613 1.19483 0
M  V30 1678 C 159.869 2.5825 2.19454 0
M  V30 1679 C 159.042 3.88302 2.01346 0
M  V30 1680 C 158.101 4.21004 3.15661 0
M  V30 1681 O 157.127 4.9014 2.89398 0
M  V30 1682 N 158.329 3.76818 4.41575 0
M  V30 1683 H 161.094 2.96668 0.425216 0
M  V30 1684 H 158.655 1.61678 0.0847334 0
M  V30 1685 H 160.647 2.7717 2.94888 0
M  V30 1686 H 159.217 1.77907 2.57037 0
M  V30 1687 H 158.437 3.7848 1.10212 0
M  V30 1688 H 159.725 4.73375 1.8653 0
M  V30 1689 H 159.123 3.2102 4.65792 0
M  V30 1690 H 157.68 4.00882 5.13942 0
M  V30 1691 N 161.113 -0.173488 1.56642 0
M  V30 1692 C 162.023 -1.23482 1.99473 0
M  V30 1693 C 163.039 -1.48567 0.905752 0
M  V30 1694 O 164.215 -1.60758 1.21321 0
M  V30 1695 C 161.28 -2.55444 2.34413 0
M  V30 1696 C 160.341 -2.38241 3.57127 0
M  V30 1697 C 159.574 -3.63909 3.90392 0
M  V30 1698 O 159.797 -4.68996 3.24653 0
M  V30 1699 O 158.731 -3.58149 4.83749 0
M  V30 1700 H 162.557 -0.901279 2.90018 0
M  V30 1701 H 160.142 -0.380185 1.44482 0
M  V30 1702 H 162.024 -3.33292 2.57865 0
M  V30 1703 H 160.699 -2.88382 1.4703 0
M  V30 1704 H 159.606 -1.58431 3.38896 0
M  V30 1705 H 160.939 -2.10228 4.45045 0
M  V30 1706 N 162.591 -1.51276 -0.441967 0
M  V30 1707 C 163.538 -1.72256 -1.53612 0
M  V30 1708 C 164.508 -0.564164 -1.56225 0
M  V30 1709 O 165.693 -0.798074 -1.73307 0
M  V30 1710 C 162.833 -1.84932 -2.91366 0
M  V30 1711 C 161.946 -3.12459 -2.98317 0
M  V30 1712 C 161.081 -3.15758 -4.27166 0
M  V30 1713 C 160.12 -4.37619 -4.27967 0
M  V30 1714 N 159.257 -4.38493 -5.48333 0
M  V30 1715 H 164.097 -2.65654 -1.35026 0
M  V30 1716 H 161.634 -1.31662 -0.656009 0
M  V30 1717 H 163.592 -1.90263 -3.7129 0
M  V30 1718 H 162.222 -0.949461 -3.08521 0
M  V30 1719 H 161.274 -3.1646 -2.11086 0
M  V30 1720 H 162.586 -4.02382 -2.94771 0
M  V30 1721 H 161.74 -3.19979 -5.15459 0
M  V30 1722 H 160.479 -2.23715 -4.33362 0
M  V30 1723 H 159.484 -4.33579 -3.38067 0
M  V30 1724 H 160.709 -5.30921 -4.23438 0
M  V30 1725 H 158.655 -3.49318 -5.55259 0
M  V30 1726 H 158.572 -5.22219 -5.46647 0
M  V30 1727 H 159.84 -4.469 -6.38671 0
M  V30 1728 N 164.069 0.697108 -1.41344 0
M  V30 1729 C 165.032 1.79281 -1.42797 0
M  V30 1730 C 166.032 1.57607 -0.318837 0
M  V30 1731 O 167.222 1.64309 -0.578642 0
M  V30 1732 C 164.354 3.17632 -1.23785 0
M  V30 1733 H 165.547 1.79385 -2.40335 0
M  V30 1734 H 163.1 0.904582 -1.27464 0
M  V30 1735 H 163.835 3.23167 -0.270814 0
M  V30 1736 H 163.62 3.34765 -2.04144 0
M  V30 1737 H 165.11 3.97617 -1.27633 0
M  V30 1738 N 165.547 1.27147 0.931209 0
M  V30 1739 C 166.51 1.09615 2.01289 0
M  V30 1740 C 167.51 0.0412581 1.60747 0
M  V30 1741 O 168.7 0.285545 1.71844 0
M  V30 1742 C 165.832 0.669447 3.34262 0
M  V30 1743 H 167.025 2.05662 2.18273 0
M  V30 1744 H 164.578 1.09885 1.11153 0
M  V30 1745 H 165.313 -0.292572 3.22978 0
M  V30 1746 H 165.098 1.43127 3.65044 0
M  V30 1747 H 166.588 0.568921 4.13706 0
M  V30 1748 N 167.025 -1.13721 1.09112 0
M  V30 1749 C 168.273 -1.84559 0.823562 0
M  V30 1750 C 168.594 -1.83754 -0.652658 0
M  V30 1751 O 167.864 -1.29102 -1.47342 0
M  V30 1752 H 166.444 -0.683376 0.301673 0
M  V30 1753 H 169.106 -1.37771 1.37859 0
M  V30 1754 H 168.202 -2.8917 1.17419 0
M  V30 1755 N 168.503 -0.877838 -1.30888 0
M  V30 1756 C 169.752 -0.488793 -1.95688 0
M  V30 1757 C 170.065 0.965485 -1.70111 0
M  V30 1758 O 171.271 1.46104 -2.28836 0
M  V30 1759 C 169.727 -0.823201 -3.50359 0
M  V30 1760 C 169.335 -2.29477 -3.84765 0
M  V30 1761 C 171.079 -0.503009 -4.21509 0
M  V30 1762 C 168.986 -2.57118 -5.32583 0
M  V30 1763 H 167.916 -0.179062 -0.732429 0
M  V30 1764 H 170.567 -1.07183 -1.48943 0
M  V30 1765 H 168.949 -0.169331 -3.95638 0
M  V30 1766 H 170.123 -2.99236 -3.5042 0
M  V30 1767 H 168.438 -2.58178 -3.267 0
M  V30 1768 H 171.035 -0.68665 -5.30273 0
M  V30 1769 H 171.378 0.557109 -4.12555 0
M  V30 1770 H 171.911 -1.11376 -3.8189 0
M  V30 1771 H 168.65 -3.61843 -5.4658 0
M  V30 1772 H 168.17 -1.91961 -5.68253 0
M  V30 1773 H 169.849 -2.42251 -5.99936 0
M  V30 1774 N 169.982 1.44106 -0.638065 0
M  V30 1775 C 170.914 2.28976 0.101205 0
M  V30 1776 C 171.927 1.4167 0.802088 0
M  V30 1777 O 173.116 1.65755 0.662375 0
M  V30 1778 C 170.216 3.18217 1.16581 0
M  V30 1779 C 169.389 4.33978 0.546066 0
M  V30 1780 C 168.448 5.04202 1.50554 0
M  V30 1781 O 167.474 5.59986 1.01999 0
M  V30 1782 N 168.676 5.06296 2.8398 0
M  V30 1783 H 171.441 2.93064 -0.627186 0
M  V30 1784 H 169.002 1.54629 -0.479731 0
M  V30 1785 H 170.994 3.62061 1.80815 0
M  V30 1786 H 169.564 2.55833 1.79634 0
M  V30 1787 H 168.784 3.93239 -0.275046 0
M  V30 1788 H 170.072 5.08675 0.112793 0
M  V30 1789 H 169.47 4.62319 3.26002 0
M  V30 1790 H 168.027 5.53907 3.43556 0
M  V30 1791 N 171.46 0.379036 1.52974 0
M  V30 1792 C 172.737 -0.263479 1.93817 0
M  V30 1793 C 173.117 -1.65244 1.31368 0
M  V30 1794 O 172.465 -2.23448 0.477856 0
M  V30 1795 C 172.675 -0.300166 3.47707 0
M  V30 1796 C 174.023 -0.534061 4.21228 0
M  V30 1797 O 175.047 -0.38081 3.54159 0
M  V30 1798 O 173.906 -0.833501 5.40106 0
M  V30 1799 H 171 -0.161149 0.811147 0
M  V30 1800 H 173.546 0.432798 1.64088 0
M  V30 1801 H 172.318 0.673138 3.85467 0
M  V30 1802 H 171.941 -1.04179 3.83709 0
M  V30 1803 N 172.938 -1.57226 0.108567 0
M  V30 1804 C 174.184 -1.95121 -0.552761 0
M  V30 1805 C 174.517 -0.991345 -1.66991 0
M  V30 1806 O 173.792 -0.0267211 -1.94482 0
M  V30 1807 C 174.075 -3.43039 -1.09528 0
M  V30 1808 C 173.928 -4.49797 0.0177332 0
M  V30 1809 C 175.247 -3.92567 -1.98945 0
M  V30 1810 H 172.366 -0.709496 -0.199461 0
M  V30 1811 H 175.008 -1.89126 0.182011 0
M  V30 1812 H 173.158 -3.48279 -1.72146 0
M  V30 1813 H 174.83 -4.56661 0.652584 0
M  V30 1814 H 173.073 -4.284 0.682309 0
M  V30 1815 H 173.744 -5.50528 -0.402919 0
M  V30 1816 H 176.22 -3.89565 -1.46214 0
M  V30 1817 H 175.096 -4.96605 -2.33827 0
M  V30 1818 H 175.357 -3.32648 -2.91201 0
M  V30 1819 N 174.416 0.165178 -1.56732 0
M  V30 1820 C 175.644 0.896218 -1.86482 0
M  V30 1821 C 176.059 1.75555 -0.694675 0
M  V30 1822 O 175.416 1.79379 0.33607 0
M  V30 1823 C 175.467 1.76792 -3.1532 0
M  V30 1824 O 175.188 0.943239 -4.27825 0
M  V30 1825 C 176.689 2.6081 -3.58459 0
M  V30 1826 H 173.909 0.260064 -0.618553 0
M  V30 1827 H 176.453 0.163428 -2.03846 0
M  V30 1828 H 174.608 2.45398 -2.99764 0
M  V30 1829 H 175.022 1.53998 -5.01383 0
M  V30 1830 H 176.496 3.17579 -4.51495 0
M  V30 1831 H 176.973 3.35977 -2.82872 0
M  V30 1832 H 177.579 1.97526 -3.76648 0
M  V30 1833 N 175.894 1.51508 0.433938 0
M  V30 1834 C 177.124 1.67914 1.20369 0
M  V30 1835 C 177.532 0.377461 1.85397 0
M  V30 1836 O 176.875 -0.654255 1.71654 0
M  V30 1837 C 176.937 2.74045 2.32679 0
M  V30 1838 C 176.601 4.16543 1.87991 0
M  V30 1839 C 177.598 5.01211 1.38145 0
M  V30 1840 C 175.283 4.6266 1.95579 0
M  V30 1841 C 177.277 6.30056 0.964774 0
M  V30 1842 C 174.964 5.91501 1.53523 0
M  V30 1843 C 175.962 6.75027 1.04055 0
M  V30 1844 O 175.65 8.01459 0.625964 0
M  V30 1845 H 175.382 0.566578 0.368735 0
M  V30 1846 H 177.936 1.98709 0.51999 0
M  V30 1847 H 176.166 2.38572 3.04336 0
M  V30 1848 H 177.855 2.79295 2.94532 0
M  V30 1849 H 178.621 4.66783 1.31675 0
M  V30 1850 H 174.5 3.97767 2.33029 0
M  V30 1851 H 178.044 6.95202 0.57796 0
M  V30 1852 H 173.941 6.25442 1.59665 0
M  V30 1853 H 174.709 8.15043 0.751509 0
M  V30 1854 N 177.372 -0.689602 1.41712 0
M  V30 1855 C 178.304 -1.815 1.39966 0
M  V30 1856 C 179.317 -1.59995 0.300917 0
M  V30 1857 O 180.506 -1.69387 0.563039 0
M  V30 1858 C 177.606 -3.18364 1.16179 0
M  V30 1859 C 176.779 -3.66847 2.38206 0
M  V30 1860 C 175.838 -4.82398 2.10186 0
M  V30 1861 O 174.864 -4.93706 2.83272 0
M  V30 1862 N 176.066 -5.70064 1.0958 0
M  V30 1863 H 178.831 -1.83488 2.36965 0
M  V30 1864 H 176.392 -0.872149 1.36401 0
M  V30 1865 H 178.384 -3.93301 0.953756 0
M  V30 1866 H 176.954 -3.11365 0.27756 0
M  V30 1867 H 176.174 -2.82751 2.74673 0
M  V30 1868 H 177.462 -3.95978 3.19498 0
M  V30 1869 H 176.86 -5.63565 0.491019 0
M  V30 1870 H 175.417 -6.44874 0.947656 0
M  V30 1871 N 178.85 -1.27639 -0.924453 0
M  V30 1872 C 180.078 -1.16989 -1.70649 0
M  V30 1873 C 180.493 0.272869 -1.86818 0
M  V30 1874 O 179.85 1.18549 -1.38753 0
M  V30 1875 C 179.901 -1.85229 -3.10439 0
M  V30 1876 O 179.622 -3.23868 -2.95028 0
M  V30 1877 C 181.123 -1.80746 -4.04779 0
M  V30 1878 H 178.343 -0.406595 -0.53378 0
M  V30 1879 H 180.887 -1.68569 -1.15778 0
M  V30 1880 H 179.042 -1.37545 -3.6216 0
M  V30 1881 H 179.456 -3.57889 -3.83426 0
M  V30 1882 H 180.93 -2.33101 -5.00368 0
M  V30 1883 H 181.407 -0.777499 -4.32263 0
M  V30 1884 H 182.013 -2.28059 -3.58984 0
M  V30 1885 N 180.328 1.1314 -1.09713 0
M  V30 1886 C 181.605 1.80762 -0.747302 0
M  V30 1887 C 181.985 1.96663 0.767265 0
M  V30 1888 O 181.333 1.53706 1.69076 0
M  V30 1889 C 181.543 3.15606 -1.48975 0
M  V30 1890 C 182.891 3.90914 -1.65746 0
M  V30 1891 O 183.915 3.25239 -1.45251 0
M  V30 1892 O 182.774 5.08718 -1.9967 0
M  V30 1893 H 179.868 0.782103 -0.268782 0
M  V30 1894 H 182.414 1.20041 -1.19951 0
M  V30 1895 H 181.186 2.99278 -2.52088 0
M  V30 1896 H 180.809 3.84029 -1.02991 0
M  V30 1897 N 181.806 0.884767 1.30421 0
M  V30 1898 C 182.738 0.308655 2.27112 0
M  V30 1899 C 183.751 -0.536655 1.53701 0
M  V30 1900 O 184.94 -0.35624 1.74909 0
M  V30 1901 C 182.04 -0.579782 3.33904 0
M  V30 1902 C 181.213 0.236417 4.36761 0
M  V30 1903 C 180.272 -0.582482 5.22966 0
M  V30 1904 O 179.298 -0.00525502 5.692 0
M  V30 1905 N 180.5 -1.89163 5.48815 0
M  V30 1906 H 183.265 1.13964 2.77186 0
M  V30 1907 H 180.826 0.747731 1.43599 0
M  V30 1908 H 182.818 -1.13366 3.88497 0
M  V30 1909 H 181.388 -1.31144 2.83761 0
M  V30 1910 H 180.608 0.97174 3.82035 0
M  V30 1911 H 181.896 0.795924 5.02536 0
M  V30 1912 H 181.294 -2.38352 5.13035 0
M  V30 1913 H 179.851 -2.39296 6.06284 0
M  V30 1914 N 183.284 -1.43765 0.645699 0
M  V30 1915 C 184.216 -2.29027 -0.0890605 0
M  V30 1916 C 185.229 -1.42093 -0.794563 0
M  V30 1917 O 186.418 -1.66104 -0.653575 0
M  V30 1918 C 183.518 -3.18831 -1.14891 0
M  V30 1919 C 182.691 -4.34261 -0.523043 0
M  V30 1920 C 181.75 -5.04994 -1.47878 0
M  V30 1921 O 180.776 -5.6052 -0.990277 0
M  V30 1922 N 181.978 -5.07795 -2.81291 0
M  V30 1923 H 184.743 -2.92727 0.64272 0
M  V30 1924 H 182.304 -1.54373 0.487924 0
M  V30 1925 H 184.296 -3.63015 -1.78892 0
M  V30 1926 H 182.866 -2.56782 -1.78275 0
M  V30 1927 H 182.086 -3.93088 0.295896 0
M  V30 1928 H 183.374 -5.08728 -0.0858147 0
M  V30 1929 H 182.772 -4.64042 -3.23546 0
M  V30 1930 H 181.329 -5.55721 -3.40614 0
M  V30 1931 N 184.763 -0.387143 -1.52771 0
M  V30 1932 C 185.991 0.195869 -2.05971 0
M  V30 1933 C 186.406 1.40691 -1.25903 0
M  V30 1934 O 185.763 1.79931 -0.305134 0
M  V30 1935 C 185.814 0.56812 -3.57008 0
M  V30 1936 O 185.535 -0.594803 -4.34043 0
M  V30 1937 C 187.036 1.20723 -4.26545 0
M  V30 1938 H 184.256 0.0300578 -0.670326 0
M  V30 1939 H 186.8 -0.551749 -1.96916 0
M  V30 1940 H 184.955 1.26564 -3.66143 0
M  V30 1941 H 185.369 -0.289322 -5.23701 0
M  V30 1942 H 186.843 1.41807 -5.33474 0
M  V30 1943 H 187.32 2.17395 -3.81623 0
M  V30 1944 H 187.926 0.550535 -4.21722 0
M  V30 1945 N 186.241 1.57166 -0.116904 0
M  V30 1946 C 187.171 2.18222 0.830759 0
M  V30 1947 C 188.152 1.12167 1.27877 0
M  V30 1948 O 189.337 1.40394 1.34176 0
M  V30 1949 C 186.467 2.77996 2.08172 0
M  V30 1950 C 185.421 3.89614 1.77157 0
M  V30 1951 C 184.747 4.36187 3.09265 0
M  V30 1952 C 186.047 5.1181 1.04151 0
M  V30 1953 H 187.741 2.97664 0.321992 0
M  V30 1954 H 185.287 1.4318 0.153434 0
M  V30 1955 H 187.24 3.19366 2.74924 0
M  V30 1956 H 185.964 1.9584 2.6137 0
M  V30 1957 H 184.623 3.48816 1.12796 0
M  V30 1958 H 184.271 3.50893 3.60393 0
M  V30 1959 H 183.971 5.11455 2.89288 0
M  V30 1960 H 185.495 4.80207 3.77139 0
M  V30 1961 H 186.909 5.50214 1.61052 0
M  V30 1962 H 185.306 5.92648 0.942762 0
M  V30 1963 H 186.376 4.84892 0.0279022 0
M  V30 1964 N 187.719 -0.156864 1.56817 0
M  V30 1965 C 188.968 -0.869504 1.81996 0
M  V30 1966 C 189.281 -1.82777 0.696545 0
M  V30 1967 O 190.487 -2.58384 0.833658 0
M  V30 1968 C 188.943 -1.59679 3.22538 0
M  V30 1969 C 188.551 -0.681431 4.42787 0
M  V30 1970 C 190.295 -2.2968 3.56997 0
M  V30 1971 C 188.202 -1.40978 5.74351 0
M  V30 1972 H 187.132 -0.328438 0.678708 0
M  V30 1973 H 189.783 -0.1223 1.83092 0
M  V30 1974 H 188.165 -2.38927 3.158 0
M  V30 1975 H 189.339 0.0751166 4.60739 0
M  V30 1976 H 187.654 -0.0903431 4.16302 0
M  V30 1977 H 190.251 -2.84794 4.52544 0
M  V30 1978 H 190.594 -3.05707 2.82576 0
M  V30 1979 H 191.127 -1.57361 3.65352 0
M  V30 1980 H 187.866 -0.691561 6.51842 0
M  V30 1981 H 187.386 -2.13929 5.60352 0
M  V30 1982 H 189.065 -1.95337 6.16808 0
M  V30 1983 N 189.197 -1.51736 -0.425897 0
M  V30 1984 C 190.127 -1.76827 -1.52494 0
M  V30 1985 C 191.108 -0.618524 -1.58456 0
M  V30 1986 O 192.293 -0.862416 -1.74 0
M  V30 1987 C 189.423 -1.90374 -2.90474 0
M  V30 1988 C 188.377 -3.0588 -2.99369 0
M  V30 1989 C 187.703 -3.04625 -4.3944 0
M  V30 1990 C 189.003 -4.45644 -2.72394 0
M  V30 1991 H 190.697 -2.68855 -1.31748 0
M  V30 1992 H 188.243 -1.29372 -0.632362 0
M  V30 1993 H 190.196 -2.0651 -3.6733 0
M  V30 1994 H 188.92 -0.95004 -3.12477 0
M  V30 1995 H 187.579 -2.89467 -2.24954 0
M  V30 1996 H 187.227 -2.0701 -4.58428 0
M  V30 1997 H 186.927 -3.82195 -4.46319 0
M  V30 1998 H 188.451 -3.22869 -5.18255 0
M  V30 1999 H 189.865 -4.62348 -3.38979 0
M  V30 2000 H 188.262 -5.25006 -2.9067 0
M  V30 2001 H 189.332 -4.54893 -1.67929 0
M  V30 2002 N 190.675 0.682077 -1.42076 0
M  V30 2003 C 191.623 1.81707 -1.45208 0
M  V30 2004 C 192.617 1.66183 -0.328591 0
M  V30 2005 O 193.823 1.7288 -0.501264 0
M  V30 2006 H 190.198 0.599014 -0.454628 0
M  V30 2007 H 192.169 1.76183 -2.40836 0
M  V30 2008 C 190.918 3.19816 -1.36428 0
M  V30 2009 H 190.241 3.32385 -2.22171 0
M  V30 2010 H 191.681 3.99272 -1.42681 0
M  V30 2011 C 190.14 3.36809 -0.078191 0
M  V30 2012 O 190.67 3.92124 0.87188 0
M  V30 2013 N 188.876 2.906 0.00229266 0
M  V30 2014 H 188.423 2.45772 -0.771616 0
M  V30 2015 H 188.381 3.02347 0.862179 0
M  V30 2016 N 192.153 1.28127 0.917671 0
M  V30 2017 C 193.381 1.17892 1.70026 0
M  V30 2018 C 193.796 -0.262958 1.8696 0
M  V30 2019 O 193.153 -1.17811 1.3938 0
M  V30 2020 C 193.204 1.86872 3.09453 0
M  V30 2021 O 192.925 3.25428 2.93306 0
M  V30 2022 C 194.426 1.8289 4.03815 0
M  V30 2023 H 191.646 0.40942 0.531617 0
M  V30 2024 H 194.19 1.69181 1.14883 0
M  V30 2025 H 192.345 1.39464 3.61426 0
M  V30 2026 H 192.759 3.59918 3.81523 0
M  V30 2027 H 194.233 2.35751 4.99125 0
M  V30 2028 H 194.71 0.800412 4.31845 0
M  V30 2029 H 195.316 2.29959 3.57769 0
M  V30 2030 N 193.631 -1.12557 1.10312 0
M  V30 2031 C 194.594 -2.16434 0.75424 0
M  V30 2032 C 195.594 -1.59278 -0.220685 0
M  V30 2033 O 196.784 -1.742 0.00230591 0
M  V30 2034 C 193.916 -3.40699 0.116987 0
M  V30 2035 H 195.109 -2.48811 1.67431 0
M  V30 2036 H 192.662 -1.27542 0.903475 0
M  V30 2037 H 193.397 -3.13921 -0.813877 0
M  V30 2038 H 193.182 -3.83459 0.818613 0
M  V30 2039 H 194.672 -4.17451 -0.111387 0
M  V30 2040 N 195.109 -0.891671 -1.2995 0
M  V30 2041 C 196.337 -0.52866 -2.00032 0
M  V30 2042 C 196.752 0.884574 -1.66795 0
M  V30 2043 O 196.109 1.5827 -0.908669 0
M  V30 2044 C 196.16 -0.701814 -3.54622 0
M  V30 2045 O 195.881 -2.05942 -3.86678 0
M  V30 2046 C 197.382 -0.342683 -4.41973 0
M  V30 2047 H 194.602 -0.203659 -0.639347 0
M  V30 2048 H 197.146 -1.19881 -1.65677 0
M  V30 2049 H 195.301 -0.0789468 -3.8732 0
M  V30 2050 H 195.715 -2.08291 -4.81368 0
M  V30 2051 H 197.189 -0.514709 -5.49595 0
M  V30 2052 H 197.666 0.71975 -4.33262 0
M  V30 2053 H 198.272 -0.942154 -4.14733 0
M  V30 2054 N 196.587 1.43421 -0.653314 0
M  V30 2055 C 197.55 2.29182 0.0287951 0
M  V30 2056 C 198.55 1.42213 0.750465 0
M  V30 2057 O 199.74 1.63843 0.591701 0
M  V30 2058 C 196.872 3.24278 1.05151 0
M  V30 2059 H 198.065 2.90985 -0.725786 0
M  V30 2060 H 195.618 1.50702 -0.414545 0
M  V30 2061 H 196.353 2.6737 1.83532 0
M  V30 2062 H 196.138 3.88396 0.537687 0
M  V30 2063 H 197.628 3.88647 1.52786 0
M  V30 2064 N 198.065 0.39524 1.52563 0
M  V30 2065 C 199.295 -0.184675 2.05773 0
M  V30 2066 C 199.703 -1.40571 1.26635 0
M  V30 2067 O 199.046 -1.81105 0.30769 0
M  V30 2068 C 199.108 -0.613551 3.54226 0
M  V30 2069 C 198.772 0.49484 4.54313 0
M  V30 2070 C 199.769 1.3541 5.01956 0
M  V30 2071 C 197.454 0.663565 4.97898 0
M  V30 2072 C 199.448 2.36716 5.91814 0
M  V30 2073 C 197.135 1.67996 5.87555 0
M  V30 2074 C 198.133 2.53017 6.34406 0
M  V30 2075 O 197.821 3.52917 7.22291 0
M  V30 2076 H 197.553 -0.030077 0.675331 0
M  V30 2077 H 200.107 0.560708 1.97599 0
M  V30 2078 H 198.337 -1.411 3.60038 0
M  V30 2079 H 200.026 -1.11981 3.90148 0
M  V30 2080 H 200.792 1.23509 4.6901 0
M  V30 2081 H 196.671 0.0114913 4.60999 0
M  V30 2082 H 200.215 3.03113 6.28306 0
M  V30 2083 H 196.112 1.79933 6.19915 0
M  V30 2084 H 196.88 3.48996 7.40367 0
M  V30 2085 N 199.544 -1.57102 0.125237 0
M  V30 2086 C 200.791 -1.95407 -0.531248 0
M  V30 2087 C 201.119 -1.0089 -1.66287 0
M  V30 2088 O 200.374 -0.0339431 -1.95671 0
M  V30 2089 C 200.673 -3.40096 -1.09862 0
M  V30 2090 C 200.339 -4.50815 -0.0876989 0
M  V30 2091 C 199.001 -4.80824 0.19026 0
M  V30 2092 C 201.353 -5.17724 0.600902 0
M  V30 2093 C 198.681 -5.75058 1.163 0
M  V30 2094 C 201.033 -6.13005 1.56231 0
M  V30 2095 C 199.697 -6.41403 1.8482 0
M  V30 2096 H 198.967 -0.715046 -0.194397 0
M  V30 2097 H 201.614 -1.90373 0.207463 0
M  V30 2098 H 199.919 -3.41855 -1.91422 0
M  V30 2099 H 201.616 -3.6705 -1.61478 0
M  V30 2100 H 198.206 -4.27444 -0.314528 0
M  V30 2101 H 202.39 -4.94691 0.399333 0
M  V30 2102 H 197.646 -5.95362 1.39117 0
M  V30 2103 H 201.82 -6.63934 2.10153 0
M  V30 2104 H 199.447 -7.14229 2.60349 0
M  V30 2105 N 201.022 0.148545 -1.56898 0
M  V30 2106 C 201.97 1.20265 -1.99096 0
M  V30 2107 C 202.964 1.44559 -0.883123 0
M  V30 2108 O 204.17 1.4487 -1.0683 0
M  V30 2109 H 200.545 0.404786 -0.63376 0
M  V30 2110 H 202.516 0.82004 -2.86911 0
M  V30 2111 C 201.265 2.52886 -2.3863 0
M  V30 2112 H 200.588 2.35021 -3.23427 0
M  V30 2113 H 202.028 3.25274 -2.7198 0
M  V30 2114 C 200.487 3.13315 -1.23837 0
M  V30 2115 O 201.017 3.98077 -0.538268 0
M  V30 2116 N 199.223 2.72742 -1.00301 0
M  V30 2117 H 198.77 2.03912 -1.5741 0
M  V30 2118 H 198.728 3.13507 -0.236838 0
M  V30 2119 N 202.5 1.5196 0.417844 0
M  V30 2120 C 203.746 1.65836 1.16732 0
M  V30 2121 C 204.079 0.382881 1.90388 0
M  V30 2122 O 203.354 -0.618368 1.84408 0
M  V30 2123 C 203.637 2.87466 2.16876 0
M  V30 2124 C 203.49 4.25041 1.47174 0
M  V30 2125 C 204.809 3.04613 3.17646 0
M  V30 2126 H 201.928 0.603515 0.423011 0
M  V30 2127 H 204.57 1.84494 0.454105 0
M  V30 2128 H 202.72 2.71689 2.777 0
M  V30 2129 H 204.392 4.52527 0.895376 0
M  V30 2130 H 202.635 4.26843 0.773806 0
M  V30 2131 H 203.306 5.06176 2.20204 0
M  V30 2132 H 205.782 3.1923 2.66892 0
M  V30 2133 H 204.658 3.91247 3.8499 0
M  V30 2134 H 204.919 2.17541 3.84874 0
M  V30 2135 N 203.978 -0.674533 1.42435 0
M  V30 2136 C 204.908 -1.80009 1.48724 0
M  V30 2137 C 205.889 -1.6659 0.343793 0
M  V30 2138 O 207.074 -1.86007 0.558137 0
M  V30 2139 C 204.204 -3.18306 1.38919 0
M  V30 2140 C 203.158 -3.46461 2.51294 0
M  V30 2141 C 202.484 -4.84335 2.26547 0
M  V30 2142 C 203.784 -3.43328 3.93603 0
M  V30 2143 H 205.478 -1.75004 2.42928 0
M  V30 2144 H 203.024 -0.840533 1.16923 0
M  V30 2145 H 204.977 -3.9678 1.41927 0
M  V30 2146 H 203.701 -3.2399 0.412094 0
M  V30 2147 H 202.36 -2.70348 2.47604 0
M  V30 2148 H 202.008 -4.86669 1.2713 0
M  V30 2149 H 201.708 -5.04136 3.01861 0
M  V30 2150 H 203.232 -5.65094 2.31304 0
M  V30 2151 H 204.646 -4.11772 3.98894 0
M  V30 2152 H 203.043 -3.74664 4.68771 0
M  V30 2153 H 204.113 -2.41897 4.20255 0
M  V30 2154 N 205.456 -1.28612 -0.910864 0
M  V30 2155 C 206.404 -1.1265 -2.03501 0
M  V30 2156 C 207.398 -0.0450054 -1.6934 0
M  V30 2157 O 208.604 -0.203988 -1.7884 0
M  V30 2158 H 204.979 -0.347639 -0.666822 0
M  V30 2159 H 206.95 -2.07849 -2.14106 0
M  V30 2160 C 205.699 -0.808143 -3.38178 0
M  V30 2161 H 205.022 -1.63231 -3.6496 0
M  V30 2162 H 206.462 -0.736426 -4.17556 0
M  V30 2163 C 204.921 0.488226 -3.33344 0
M  V30 2164 O 205.451 1.51766 -3.71927 0
M  V30 2165 N 203.657 0.490009 -2.86439 0
M  V30 2166 H 203.204 -0.348161 -2.55236 0
M  V30 2167 H 203.162 1.35741 -2.83587 0
M  V30 2168 N 206.934 1.1197 -1.10907 0
M  V30 2169 C 207.897 2.16031 -0.765707 0
M  V30 2170 C 208.897 1.59393 0.212235 0
M  V30 2171 O 210.087 1.74196 -0.0115441 0
M  V30 2172 C 207.219 3.40632 -0.135053 0
M  V30 2173 H 208.412 2.47919 -1.68748 0
M  V30 2174 H 205.965 1.27061 -0.910226 0
M  V30 2175 H 206.7 3.14348 0.797218 0
M  V30 2176 H 206.485 3.8302 -0.838937 0
M  V30 2177 H 207.975 4.17505 0.0892469 0
M  V30 2178 N 208.412 0.89855 1.29475 0
M  V30 2179 C 209.661 0.519863 1.94885 0
M  V30 2180 C 209.974 -0.9383 1.71625 0
M  V30 2181 O 211.18 -1.42445 2.31131 0
M  V30 2182 C 209.636 0.878836 3.49005 0
M  V30 2183 C 209.244 2.35569 3.81066 0
M  V30 2184 C 210.988 0.570004 4.20656 0
M  V30 2185 C 208.895 2.65558 5.28425 0
M  V30 2186 H 207.825 0.190692 0.729488 0
M  V30 2187 H 210.476 1.09539 1.47219 0
M  V30 2188 H 208.858 0.232253 3.95318 0
M  V30 2189 H 210.032 3.04773 3.45616 0
M  V30 2190 H 208.347 2.63343 3.22552 0
M  V30 2191 H 210.944 0.770925 5.29113 0
M  V30 2192 H 211.287 -0.491404 4.1339 0
M  V30 2193 H 211.82 1.17438 3.8007 0
M  V30 2194 H 208.559 3.70493 5.40754 0
M  V30 2195 H 208.079 2.00977 5.65127 0
M  V30 2196 H 209.758 2.51765 5.96006 0
M  V30 2197 N 209.89 -1.43072 0.660911 0
M  V30 2198 C 211.167 -1.95307 0.107017 0
M  V30 2199 C 211.547 -1.60192 -1.37484 0
M  V30 2200 O 210.895 -0.890949 -2.10415 0
M  V30 2201 C 211.105 -3.47124 0.361402 0
M  V30 2202 C 212.453 -4.23738 0.270455 0
M  V30 2203 O 213.477 -3.54981 0.294382 0
M  V30 2204 O 212.336 -5.46131 0.200737 0
M  V30 2205 H 209.43 -0.826984 -0.00517729 0
M  V30 2206 H 211.976 -1.52972 0.734681 0
M  V30 2207 H 210.748 -3.65837 1.38848 0
M  V30 2208 H 210.371 -3.96475 -0.298953 0
M  V30 2209 N 211.368 -0.403325 -1.52352 0
M  V30 2210 C 212.614 0.174605 -2.02047 0
M  V30 2211 C 212.947 1.45282 -1.28867 0
M  V30 2212 O 212.222 1.90483 -0.393257 0
M  V30 2213 C 212.505 0.428238 -3.57545 0
M  V30 2214 C 212.358 -0.866248 -4.4138 0
M  V30 2215 C 213.677 1.21287 -4.23057 0
M  V30 2216 H 210.796 0.0619851 -0.734389 0
M  V30 2217 H 213.438 -0.53565 -1.82293 0
M  V30 2218 H 211.588 1.03327 -3.74507 0
M  V30 2219 H 213.26 -1.50265 -4.3614 0
M  V30 2220 H 211.503 -1.47851 -4.07827 0
M  V30 2221 H 212.174 -0.643249 -5.48239 0
M  V30 2222 H 214.65 0.700703 -4.10158 0
M  V30 2223 H 213.526 1.35909 -5.31808 0
M  V30 2224 H 213.787 2.23193 -3.81625 0
M  V30 2225 N 212.846 1.57033 -0.133567 0
M  V30 2226 C 213.776 2.1909 0.807567 0
M  V30 2227 C 214.757 1.13517 1.26681 0
M  V30 2228 O 215.942 1.41809 1.32679 0
M  V30 2229 C 213.072 2.80188 2.05212 0
M  V30 2230 C 212.026 3.91471 1.73015 0
M  V30 2231 C 211.352 4.39443 3.04622 0
M  V30 2232 C 212.652 5.12886 0.987168 0
M  V30 2233 H 214.346 2.97988 0.290403 0
M  V30 2234 H 211.892 1.43335 0.138239 0
M  V30 2235 H 213.845 3.22264 2.71521 0
M  V30 2236 H 212.569 1.98601 2.59278 0
M  V30 2237 H 211.228 3.49993 1.0909 0
M  V30 2238 H 210.876 3.54695 3.56651 0
M  V30 2239 H 210.576 5.14495 2.83847 0
M  V30 2240 H 212.1 4.8418 3.72024 0
M  V30 2241 H 213.514 5.51891 1.55208 0
M  V30 2242 H 211.911 5.93615 0.87985 0
M  V30 2243 H 212.981 4.84894 -0.0235286 0
M  V30 2244 N 214.325 -0.140222 1.56975 0
M  V30 2245 C 215.55 -0.870414 1.88251 0
M  V30 2246 C 215.975 -1.73637 0.723312 0
M  V30 2247 O 215.333 -1.78329 -0.32689 0
M  V30 2248 C 215.381 -1.69737 3.18154 0
M  V30 2249 O 214.485 -2.80229 3.02565 0
M  V30 2250 H 213.826 -0.242025 0.61832 0
M  V30 2251 H 216.356 -0.128999 2.04193 0
M  V30 2252 H 216.366 -2.09099 3.50345 0
M  V30 2253 H 215.041 -1.06152 4.02125 0
M  V30 2254 H 213.618 -2.44224 2.81796 0
M  V30 2255 N 215.803 -1.52179 -0.40978 0
M  V30 2256 C 217.033 -1.69807 -1.17682 0
M  V30 2257 C 217.441 -0.406908 -1.84773 0
M  V30 2258 O 216.784 0.626863 -1.72673 0
M  V30 2259 C 216.846 -2.77712 -2.2829 0
M  V30 2260 C 216.51 -4.19481 -1.81341 0
M  V30 2261 C 217.507 -5.03345 -1.30154 0
M  V30 2262 C 215.192 -4.65713 -1.88194 0
M  V30 2263 C 217.186 -6.31511 -0.864416 0
M  V30 2264 C 214.873 -5.93869 -1.44093 0
M  V30 2265 C 215.871 -6.76597 -0.933023 0
M  V30 2266 O 215.559 -8.02354 -0.49838 0
M  V30 2267 H 215.291 -0.572372 -0.359675 0
M  V30 2268 H 217.845 -1.99511 -0.488311 0
M  V30 2269 H 216.075 -2.43383 -3.00502 0
M  V30 2270 H 217.764 -2.83946 -2.90051 0
M  V30 2271 H 218.53 -4.68819 -1.24232 0
M  V30 2272 H 214.409 -4.01424 -2.26671 0
M  V30 2273 H 217.953 -6.96033 -0.467286 0
M  V30 2274 H 213.85 -6.27903 -1.49694 0
M  V30 2275 H 214.618 -8.16135 -0.621747 0
M  V30 2276 N 217.281 0.66697 -1.42791 0
M  V30 2277 C 218.509 1.45505 -1.47091 0
M  V30 2278 C 218.924 1.8861 -0.0845873 0
M  V30 2279 O 218.281 1.58632 0.90234 0
M  V30 2280 C 218.332 2.69906 -2.40485 0
M  V30 2281 O 218.053 2.28608 -3.73725 0
M  V30 2282 C 219.554 3.63396 -2.53886 0
M  V30 2283 H 216.774 0.447459 -0.500022 0
M  V30 2284 H 219.318 0.818866 -1.8739 0
M  V30 2285 H 217.473 3.29696 -2.03419 0
M  V30 2286 H 217.887 3.08997 -4.23817 0
M  V30 2287 H 219.361 4.47387 -3.2334 0
M  V30 2288 H 219.838 4.09824 -1.57927 0
M  V30 2289 H 220.444 3.09495 -2.91706 0
M  V30 2290 N 218.759 1.29093 0.90403 0
M  V30 2291 C 219.691 1.09658 2.01266 0
M  V30 2292 C 220.704 0.0453729 1.62737 0
M  V30 2293 O 221.893 0.289446 1.76138 0
M  V30 2294 C 218.993 0.646278 3.32681 0
M  V30 2295 C 218.166 1.77505 3.99763 0
M  V30 2296 C 217.225 1.31649 5.09465 0
M  V30 2297 O 216.251 2.02045 5.32134 0
M  V30 2298 N 217.453 0.184997 5.80205 0
M  V30 2299 H 220.218 2.05135 2.18494 0
M  V30 2300 H 217.779 1.20975 1.07594 0
M  V30 2301 H 219.771 0.322906 4.0341 0
M  V30 2302 H 218.341 -0.215916 3.11853 0
M  V30 2303 H 217.561 2.26752 3.22455 0
M  V30 2304 H 218.849 2.53198 4.41325 0
M  V30 2305 H 218.247 -0.402021 5.6427 0
M  V30 2306 H 216.804 -0.0790358 6.51752 0
M  V30 2307 N 220.237 -1.11381 1.11499 0
M  V30 2308 C 221.2 -2.15622 0.777153 0
M  V30 2309 C 222.2 -1.59504 -0.203779 0
M  V30 2310 O 223.39 -1.74188 0.020782 0
M  V30 2311 C 220.522 -3.40556 0.153116 0
M  V30 2312 H 221.715 -2.47021 1.70061 0
M  V30 2313 H 219.268 -1.26577 0.916952 0
M  V30 2314 H 220.003 -3.14767 -0.780536 0
M  V30 2315 H 219.788 -3.8257 0.859238 0
M  V30 2316 H 221.278 -4.17546 -0.0671044 0
M  V30 2317 N 221.715 -0.905404 -1.28997 0
M  V30 2318 C 222.647 -0.344748 -2.26592 0
M  V30 2319 C 223.66 0.512135 -1.54535 0
M  V30 2320 O 224.849 0.328368 -1.75454 0
M  V30 2321 C 221.949 0.526587 -3.34784 0
M  V30 2322 C 221.122 -0.305871 -4.36329 0
M  V30 2323 C 220.181 0.499209 -5.23827 0
M  V30 2324 O 219.207 -0.0853004 -5.69136 0
M  V30 2325 N 220.409 1.80408 -5.51755 0
M  V30 2326 H 223.174 -1.18359 -2.75338 0
M  V30 2327 H 220.735 -0.770481 -1.42391 0
M  V30 2328 H 222.727 1.07171 -3.90252 0
M  V30 2329 H 221.297 1.26613 -2.85811 0
M  V30 2330 H 220.517 -1.0324 -3.80441 0
M  V30 2331 H 221.805 -0.875773 -5.01206 0
M  V30 2332 H 221.203 2.3016 -5.16762 0
M  V30 2333 H 219.76 2.29621 -6.10014 0
M  V30 2334 N 223.193 1.4272 -0.668489 0
M  V30 2335 C 224.14 2.30796 0.0137489 0
M  V30 2336 C 225.11 1.4561 0.799177 0
M  V30 2337 O 226.295 1.74453 0.772702 0
M  V30 2338 C 223.435 3.31377 0.963507 0
M  V30 2339 C 222.548 4.31655 0.172569 0
M  V30 2340 C 221.683 5.19312 1.1175 0
M  V30 2341 C 220.722 6.11274 0.317886 0
M  V30 2342 N 219.859 6.91504 1.2152 0
M  V30 2343 H 224.699 2.88585 -0.743161 0
M  V30 2344 H 222.236 1.42154 -0.378226 0
M  V30 2345 H 224.194 3.88214 1.52792 0
M  V30 2346 H 222.824 2.75202 1.68712 0
M  V30 2347 H 221.876 3.76988 -0.508374 0
M  V30 2348 H 223.188 4.96779 -0.448527 0
M  V30 2349 H 222.342 5.80851 1.75206 0
M  V30 2350 H 221.081 4.5435 1.77249 0
M  V30 2351 H 220.086 5.48809 -0.329918 0
M  V30 2352 H 221.311 6.78283 -0.332917 0
M  V30 2353 H 219.257 6.29176 1.85671 0
M  V30 2354 H 219.174 7.53209 0.649036 0
M  V30 2355 H 220.442 7.57535 1.83742 0
M  V30 2356 N 224.671 0.411399 1.52136 0
M  V30 2357 C 225.581 -0.419774 2.30814 0
M  V30 2358 C 226.597 -1.0515 1.38634 0
M  V30 2359 O 227.773 -1.05252 1.71709 0
M  V30 2360 C 224.838 -1.52019 3.11594 0
M  V30 2361 C 223.899 -0.91129 4.19516 0
M  V30 2362 C 223.132 -1.95927 4.96436 0
M  V30 2363 O 223.355 -3.17775 4.73683 0
M  V30 2364 O 222.289 -1.56423 5.81219 0
M  V30 2365 H 226.115 0.221805 3.02889 0
M  V30 2366 H 223.7 0.174547 1.48377 0
M  V30 2367 H 225.582 -2.15898 3.61892 0
M  V30 2368 H 224.257 -2.14633 2.42311 0
M  V30 2369 H 223.164 -0.235157 3.7336 0
M  V30 2370 H 224.497 -0.32904 4.91099 0
M  V30 2371 N 226.149 -1.5696 0.141893 0
M  V30 2372 C 227.112 -2.15316 -0.785587 0
M  V30 2373 C 228.112 -1.09366 -1.1788 0
M  V30 2374 O 229.302 -1.35031 -1.10056 0
M  V30 2375 C 226.434 -2.71211 -2.06537 0
M  V30 2376 H 227.627 -2.98608 -0.278041 0
M  V30 2377 H 225.18 -1.5593 -0.107519 0
M  V30 2378 H 225.915 -1.91571 -2.6167 0
M  V30 2379 H 225.7 -3.4872 -1.79268 0
M  V30 2380 H 227.19 -3.16189 -2.72789 0
M  V30 2381 N 227.627 0.131896 -1.57047 0
M  V30 2382 C 228.876 0.84044 -1.83356 0
M  V30 2383 C 229.189 1.81646 -0.725535 0
M  V30 2384 O 230.395 2.57025 -0.874659 0
M  V30 2385 C 228.851 1.54528 -3.25037 0
M  V30 2386 C 228.459 0.610902 -4.43815 0
M  V30 2387 C 230.203 2.23972 -3.60606 0
M  V30 2388 C 228.11 1.31823 -5.76521 0
M  V30 2389 H 227.04 0.317599 -0.683847 0
M  V30 2390 H 229.691 0.0931561 -1.83263 0
M  V30 2391 H 228.073 2.33873 -3.19561 0
M  V30 2392 H 229.247 -0.148407 -4.60561 0
M  V30 2393 H 227.562 0.0241016 -4.16393 0
M  V30 2394 H 230.159 2.77558 -4.57018 0
M  V30 2395 H 230.502 3.01173 -2.87403 0
M  V30 2396 H 231.035 1.51529 -3.6781 0
M  V30 2397 H 227.774 0.587771 -6.52859 0
M  V30 2398 H 227.294 2.04987 -5.63685 0
M  V30 2399 H 228.973 1.855 -6.19838 0
M  V30 2400 N 229.106 1.52395 0.401703 0
M  V30 2401 C 230.336 1.70429 1.1678 0
M  V30 2402 C 230.744 0.416702 1.84554 0
M  V30 2403 O 230.087 -0.617697 1.73003 0
M  V30 2404 C 230.149 2.78919 2.26814 0
M  V30 2405 C 229.813 4.20437 1.79113 0
M  V30 2406 C 230.81 5.04028 1.27482 0
M  V30 2407 C 228.495 4.66704 1.85722 0
M  V30 2408 C 230.489 6.31961 0.830913 0
M  V30 2409 C 228.176 5.94625 1.40942 0
M  V30 2410 C 229.174 6.77082 0.897128 0
M  V30 2411 O 228.862 8.02607 0.455822 0
M  V30 2412 H 228.594 0.574272 0.356634 0
M  V30 2413 H 231.148 1.99767 0.477724 0
M  V30 2414 H 229.378 2.44973 2.99207 0
M  V30 2415 H 231.067 2.8548 2.88541 0
M  V30 2416 H 231.833 4.69471 1.21744 0
M  V30 2417 H 227.712 4.0262 2.24539 0
M  V30 2418 H 231.256 6.96271 0.430368 0
M  V30 2419 H 227.153 6.28688 1.46362 0
M  V30 2420 H 227.921 8.16453 0.578457 0
M  V30 2421 N 230.584 -0.659388 1.43143 0
M  V30 2422 C 232 -0.974337 1.26407 0
M  V30 2423 C 232.2 -2.007 0.179341 0
M  V30 2424 O 231.256 -2.4856 -0.444295 0
M  V30 2425 C 232.569 -1.46447 2.62628 0
M  V30 2426 C 234.117 -1.58144 2.7011 0
M  V30 2427 C 234.592 -2.1055 4.06734 0
M  V30 2428 N 236.083 -2.17861 4.08767 0
M  V30 2429 C 236.818 -2.59519 5.1131 0
M  V30 2430 N 236.314 -3.00518 6.24228 0
M  V30 2431 N 238.107 -2.59404 4.98664 0
M  V30 2432 H 230.258 0.0240528 2.12386 0
M  V30 2433 H 232.521 -0.0518065 0.946583 0
M  V30 2434 H 232.227 -0.780123 3.42939 0
M  V30 2435 H 232.101 -2.44058 2.87603 0
M  V30 2436 H 234.488 -2.25682 1.90136 0
M  V30 2437 H 234.569 -0.589828 2.48907 0
M  V30 2438 H 234.213 -1.43616 4.87172 0
M  V30 2439 H 234.143 -3.10531 4.25298 0
M  V30 2440 H 236.634 -1.88975 3.27257 0
M  V30 2441 H 236.947 -3.31036 6.98309 0
M  V30 2442 H 235.292 -2.98337 6.2771 0
M  V30 2443 H 238.483 -2.26747 4.09516 0
M  V30 2444 H 238.656 -2.91548 5.78709 0
M  V30 2445 N 232.062 -1.29571 -0.897171 0
M  V30 2446 C 232.994 -1.10724 -2.00681 0
M  V30 2447 C 234.007 -0.0540026 -1.6271 0
M  V30 2448 O 235.196 -0.298783 -1.75982 0
M  V30 2449 C 232.296 -0.663912 -3.32333 0
M  V30 2450 C 231.469 -1.79622 -3.98816 0
M  V30 2451 C 230.528 -1.34349 -5.0876 0
M  V30 2452 O 229.554 -2.04864 -5.31055 0
M  V30 2453 N 230.756 -0.215764 -5.80099 0
M  V30 2454 H 233.521 -2.06291 -2.17403 0
M  V30 2455 H 231.082 -1.21544 -1.06951 0
M  V30 2456 H 233.074 -0.344295 -4.03233 0
M  V30 2457 H 231.644 0.199375 -3.11964 0
M  V30 2458 H 230.864 -2.28459 -3.21248 0
M  V30 2459 H 232.152 -2.55535 -4.39976 0
M  V30 2460 H 231.55 0.372091 -5.64475 0
M  V30 2461 H 230.107 0.0444707 -6.51785 0
M  V30 2462 N 233.54 1.10788 -1.12088 0
M  V30 2463 C 234.47 2.19083 -0.807755 0
M  V30 2464 C 235.451 1.6858 0.226859 0
M  V30 2465 O 236.636 1.93997 0.0888475 0
M  V30 2466 C 233.766 3.46344 -0.257576 0
M  V30 2467 C 232.72 4.101 -1.22483 0
M  V30 2468 C 232.046 5.32016 -0.535052 0
M  V30 2469 C 233.346 4.54236 -2.57811 0
M  V30 2470 H 235.04 2.45534 -1.71328 0
M  V30 2471 H 232.586 1.1801 -0.825205 0
M  V30 2472 H 234.539 4.21392 -0.0262679 0
M  V30 2473 H 233.263 3.19373 0.683278 0
M  V30 2474 H 231.922 3.37054 -1.44189 0
M  V30 2475 H 231.57 5.01319 0.410827 0
M  V30 2476 H 231.27 5.75625 -1.18024 0
M  V30 2477 H 232.794 6.09799 -0.312695 0
M  V30 2478 H 234.208 5.20575 -2.40155 0
M  V30 2479 H 232.605 5.08682 -3.18375 0
M  V30 2480 H 233.675 3.6734 -3.16528 0
M  V30 2481 N 235.018 0.912232 1.28515 0
M  V30 2482 C 236.295 0.463597 1.90027 0
M  V30 2483 C 236.675 -1.05753 1.82701 0
M  V30 2484 O 236.023 -1.90492 1.26194 0
M  V30 2485 C 236.233 0.992253 3.34597 0
M  V30 2486 C 237.581 1.04344 4.11579 0
M  V30 2487 O 238.605 0.94079 3.43551 0
M  V30 2488 O 237.464 1.1995 5.33174 0
M  V30 2489 H 234.558 0.146666 0.813891 0
M  V30 2490 H 237.104 1.00292 1.36893 0
M  V30 2491 H 235.876 2.03623 3.34146 0
M  V30 2492 H 235.499 0.433672 3.95228 0
M  V30 2493 N 236.496 -1.42363 0.676048 0
M  V30 2494 C 237.428 -2.29164 -0.0404605 0
M  V30 2495 C 238.441 -1.43747 -0.764245 0
M  V30 2496 O 239.63 -1.67453 -0.618195 0
M  V30 2497 C 236.73 -3.21196 -1.08103 0
M  V30 2498 C 235.903 -4.35273 -0.430812 0
M  V30 2499 C 234.962 -5.08017 -1.37133 0
M  V30 2500 O 233.988 -5.62494 -0.87116 0
M  V30 2501 N 235.19 -5.13647 -2.70456 0
M  V30 2502 H 237.955 -2.91298 0.704667 0
M  V30 2503 H 235.516 -1.53303 0.520559 0
M  V30 2504 H 237.508 -3.66728 -1.71152 0
M  V30 2505 H 236.078 -2.60505 -1.72788 0
M  V30 2506 H 235.298 -3.92372 0.379209 0
M  V30 2507 H 236.586 -5.08795 0.0221132 0
M  V30 2508 H 235.984 -4.708 -3.1363 0
M  V30 2509 H 234.541 -5.62821 -3.28749 0
M  V30 2510 N 237.974 -0.419461 -1.51915 0
M  V30 2511 C 239.202 0.152136 -2.0634 0
M  V30 2512 C 239.617 1.37988 -1.28859 0
M  V30 2513 O 238.974 1.79243 -0.343232 0
M  V30 2514 C 239.025 0.492266 -3.58133 0
M  V30 2515 O 238.746 -0.686736 -4.32684 0
M  V30 2516 C 240.247 1.11648 -4.2901 0
M  V30 2517 H 237.467 0.0158325 -0.670813 0
M  V30 2518 H 240.011 -0.593394 -1.95702 0
M  V30 2519 H 238.166 1.18769 -3.68745 0
M  V30 2520 H 238.58 -0.400341 -5.2297 0
M  V30 2521 H 240.054 1.3046 -5.36362 0
M  V30 2522 H 240.531 2.09251 -3.86148 0
M  V30 2523 H 241.137 0.460958 -4.22795 0
M  V30 2524 N 239.452 1.56882 -0.150215 0
M  V30 2525 C 240.68 2.00593 0.506948 0
M  V30 2526 C 241.095 1.03033 1.58208 0
M  V30 2527 O 240.452 0.0278396 1.82479 0
M  V30 2528 C 240.503 3.44209 1.10465 0
M  V30 2529 O 240.224 4.3804 0.0724636 0
M  V30 2530 C 241.725 4.03214 1.84211 0
M  V30 2531 H 238.945 0.65795 0.13169 0
M  V30 2532 H 241.489 2.03018 -0.245743 0
M  V30 2533 H 239.644 3.42625 1.80795 0
M  V30 2534 H 240.058 5.22007 0.510793 0
M  V30 2535 H 241.532 5.0569 2.21318 0
M  V30 2536 H 242.009 3.44107 2.72923 0
M  V30 2537 H 242.615 4.08437 1.18572 0
M  V30 2538 N 240.93 -0.123565 1.57115 0
M  V30 2539 C 241.862 -1.17739 1.96648 0
M  V30 2540 C 242.875 -1.37906 0.865201 0
M  V30 2541 O 244.064 -1.37062 1.14351 0
M  V30 2542 C 241.164 -2.53821 2.24562 0
M  V30 2543 C 240.337 -2.54317 3.55867 0
M  V30 2544 C 239.396 -3.72112 3.72047 0
M  V30 2545 O 238.422 -3.55907 4.44206 0
M  V30 2546 N 239.624 -4.90498 3.10471 0
M  V30 2547 H 242.389 -0.841147 2.87654 0
M  V30 2548 H 239.95 -0.31289 1.58848 0
M  V30 2549 H 241.942 -3.31175 2.32606 0
M  V30 2550 H 240.512 -2.79645 1.39705 0
M  V30 2551 H 239.732 -1.62711 3.59053 0
M  V30 2552 H 241.02 -2.51701 4.42181 0
M  V30 2553 H 240.418 -5.06567 2.51806 0
M  V30 2554 H 238.975 -5.65544 3.24043 0
M  V30 2555 N 242.408 -1.52605 -0.393616 0
M  V30 2556 C 243.824 -1.41753 -0.733357 0
M  V30 2557 C 244.024 -0.534293 -1.94287 0
M  V30 2558 O 243.08 -0.0059787 -2.52499 0
M  V30 2559 C 244.393 -2.84531 -0.972772 0
M  V30 2560 C 245.941 -2.93978 -1.07453 0
M  V30 2561 C 246.416 -4.37756 -1.3466 0
M  V30 2562 N 247.907 -4.4106 -1.41492 0
M  V30 2563 C 248.642 -5.49387 -1.642 0
M  V30 2564 N 248.138 -6.67806 -1.8441 0
M  V30 2565 N 249.931 -5.36923 -1.66342 0
M  V30 2566 H 242.082 -2.08555 0.402328 0
M  V30 2567 H 244.345 -0.940654 0.117789 0
M  V30 2568 H 244.051 -3.51353 -0.156204 0
M  V30 2569 H 243.925 -3.26508 -1.88871 0
M  V30 2570 H 246.312 -2.27326 -1.88167 0
M  V30 2571 H 246.393 -2.55435 -0.136605 0
M  V30 2572 H 246.037 -5.04972 -0.544581 0
M  V30 2573 H 245.967 -4.73848 -2.2973 0
M  V30 2574 H 248.458 -3.55705 -1.27601 0
M  V30 2575 H 248.771 -7.46141 -2.01231 0
M  V30 2576 H 247.116 -6.70843 -1.81644 0
M  V30 2577 H 250.307 -4.43381 -1.50102 0
M  V30 2578 H 250.48 -6.21416 -1.837 0
M  V30 2579 N 243.887 0.651787 -1.4349 0
M  V30 2580 C 245.134 1.41167 -1.45183 0
M  V30 2581 C 245.462 1.94349 -0.0766601 0
M  V30 2582 O 244.717 1.72804 0.918555 0
M  V30 2583 C 245.016 2.60914 -2.44251 0
M  V30 2584 C 244.682 2.26142 -3.9009 0
M  V30 2585 C 243.344 2.16371 -4.2981 0
M  V30 2586 C 245.696 1.98334 -4.81989 0
M  V30 2587 C 243.024 1.7695 -5.5938 0
M  V30 2588 C 245.376 1.6041 -6.11924 0
M  V30 2589 C 244.04 1.49166 -6.5062 0
M  V30 2590 H 243.31 0.516566 -0.531263 0
M  V30 2591 H 245.957 0.741099 -1.76579 0
M  V30 2592 H 244.262 3.3311 -2.06265 0
M  V30 2593 H 245.959 3.19127 -2.42815 0
M  V30 2594 H 242.549 2.34658 -3.58655 0
M  V30 2595 H 246.733 2.04803 -4.52072 0
M  V30 2596 H 241.989 1.66831 -5.88198 0
M  V30 2597 H 246.163 1.37925 -6.82605 0
M  V30 2598 H 243.79 1.1839 -7.50925 0
M  V30 2599 N 245.365 1.30045 0.890287 0
M  V30 2600 C 246.313 1.15873 2.01683 0
M  V30 2601 C 247.307 0.0719403 1.69247 0
M  V30 2602 O 248.513 0.232414 1.78493 0
M  V30 2603 H 244.888 0.358203 0.661207 0
M  V30 2604 H 246.859 2.11229 2.10772 0
M  V30 2605 C 245.608 0.861842 3.36849 0
M  V30 2606 H 244.931 1.69016 3.62317 0
M  V30 2607 H 246.371 0.802762 4.16331 0
M  V30 2608 C 244.83 -0.435132 3.34078 0
M  V30 2609 O 245.36 -1.4583 3.74295 0
M  V30 2610 N 243.566 -0.444377 2.87182 0
M  V30 2611 H 243.113 0.388723 2.5465 0
M  V30 2612 H 243.071 -1.31213 2.85711 0
M  V30 2613 N 246.843 -1.10192 1.12674 0
M  V30 2614 C 248.089 -1.82475 0.884915 0
M  V30 2615 C 248.422 -1.85093 -0.58773 0
M  V30 2616 O 247.697 -1.3134 -1.43457 0
M  V30 2617 C 247.98 -3.29018 1.46353 0
M  V30 2618 C 247.833 -3.34718 3.00473 0
M  V30 2619 C 249.152 -4.25473 1.12519 0
M  V30 2620 H 246.271 -0.662492 0.322915 0
M  V30 2621 H 248.913 -1.2913 1.39375 0
M  V30 2622 H 247.063 -3.74576 1.03077 0
M  V30 2623 H 248.735 -2.97622 3.52447 0
M  V30 2624 H 246.978 -2.74541 3.35872 0
M  V30 2625 H 247.649 -4.37918 3.36053 0
M  V30 2626 H 250.125 -3.88161 1.499 0
M  V30 2627 H 249.001 -5.26365 1.55663 0
M  V30 2628 H 249.262 -4.42084 0.0377407 0
M  V30 2629 N 248.321 -0.919034 -1.28029 0
M  V30 2630 C 249.569 -0.553838 -1.94363 0
M  V30 2631 C 249.89 0.906357 -1.72656 0
M  V30 2632 O 249.16 1.64143 -1.0693 0
M  V30 2633 H 247.74 -0.201834 -0.719216 0
M  V30 2634 H 250.402 -1.16954 -1.55909 0
M  V30 2635 H 249.498 -0.752758 -3.02886 0
M  V30 2636 N 249.799 1.42003 -0.683588 0
M  V30 2637 C 250.729 2.33487 -0.024866 0
M  V30 2638 C 251.71 1.51163 0.779975 0
M  V30 2639 O 252.895 1.79739 0.735362 0
M  V30 2640 C 250.025 3.3487 0.920836 0
M  V30 2641 C 248.979 4.27414 0.223958 0
M  V30 2642 C 248.305 5.19074 1.2832 0
M  V30 2643 C 249.605 5.14445 -0.90242 0
M  V30 2644 H 251.299 2.88819 -0.788921 0
M  V30 2645 H 248.845 1.38873 -0.38083 0
M  V30 2646 H 250.798 3.97787 1.39081 0
M  V30 2647 H 249.522 2.77861 1.71642 0
M  V30 2648 H 248.181 3.65904 -0.225864 0
M  V30 2649 H 247.829 4.58387 2.071 0
M  V30 2650 H 247.529 5.81822 0.821995 0
M  V30 2651 H 249.053 5.84867 1.75392 0
M  V30 2652 H 250.467 5.70998 -0.513272 0
M  V30 2653 H 248.864 5.86072 -1.28997 0
M  V30 2654 H 249.934 4.52322 -1.74737 0
M  V30 2655 N 251.277 0.427512 1.51691 0
M  V30 2656 C 252.523 -0.142439 2.02299 0
M  V30 2657 C 252.856 -1.43214 1.31162 0
M  V30 2658 O 252.131 -1.89833 0.423511 0
M  V30 2659 C 252.414 -0.371301 3.58181 0
M  V30 2660 C 252.267 0.936358 4.39946 0
M  V30 2661 C 253.586 -1.14542 4.24933 0
M  V30 2662 H 250.705 -0.0502937 0.735282 0
M  V30 2663 H 253.347 0.564584 1.81418 0
M  V30 2664 H 251.497 -0.973559 3.76104 0
M  V30 2665 H 253.169 1.57184 4.33694 0
M  V30 2666 H 251.412 1.5432 4.05423 0
M  V30 2667 H 252.083 0.730388 5.47147 0
M  V30 2668 H 254.559 -0.635362 4.11221 0
M  V30 2669 H 253.435 -1.27431 5.33903 0
M  V30 2670 H 253.696 -2.17093 3.85127 0
M  V30 2671 N 252.755 -1.56801 0.158532 0
M  V30 2672 C 253.718 -2.16138 -0.762705 0
M  V30 2673 C 254.718 -1.1061 -1.16713 0
M  V30 2674 O 255.908 -1.36191 -1.08617 0
M  V30 2675 C 253.04 -2.73386 -2.03649 0
M  V30 2676 H 254.233 -2.98886 -0.246354 0
M  V30 2677 H 251.786 -1.56035 -0.0909744 0
M  V30 2678 H 252.521 -1.94335 -2.59623 0
M  V30 2679 H 252.306 -3.50601 -1.75559 0
M  V30 2680 H 253.796 -3.19065 -2.6942 0
M  V30 2681 N 254.233 0.115231 -1.57178 0
M  V30 2682 C 255.482 0.820945 -1.84237 0
M  V30 2683 C 255.795 1.80866 -0.744761 0
M  V30 2684 O 257.001 2.56083 -0.901871 0
M  V30 2685 C 255.457 1.51072 -3.26658 0
M  V30 2686 C 255.065 0.563795 -4.44438 0
M  V30 2687 C 256.809 2.20134 -3.62962 0
M  V30 2688 C 254.716 1.25701 -5.77887 0
M  V30 2689 H 253.646 0.310328 -0.687177 0
M  V30 2690 H 256.297 0.0737134 -1.83352 0
M  V30 2691 H 254.679 2.30471 -3.22024 0
M  V30 2692 H 255.853 -0.197247 -4.60378 0
M  V30 2693 H 254.168 -0.0200638 -4.16395 0
M  V30 2694 H 256.765 2.72696 -4.59936 0
M  V30 2695 H 257.108 2.98107 -2.90582 0
M  V30 2696 H 257.641 1.47619 -3.69396 0
M  V30 2697 H 254.38 0.518493 -6.53446 0
M  V30 2698 H 253.9 1.98997 -5.65827 0
M  V30 2699 H 255.579 1.78915 -6.2177 0
M  V30 2700 N 255.711 1.52812 0.385517 0
M  V30 2701 C 256.939 1.71907 1.15133 0
M  V30 2702 C 257.354 0.439004 1.83625 0
M  V30 2703 O 256.711 -0.586765 1.7281 0
M  V30 2704 C 256.762 2.87099 2.19673 0
M  V30 2705 O 256.483 4.10151 1.53973 0
M  V30 2706 C 257.984 3.17902 3.08955 0
M  V30 2707 H 255.204 0.575479 0.345057 0
M  V30 2708 H 257.748 1.99476 0.45052 0
M  V30 2709 H 255.903 2.61982 2.85384 0
M  V30 2710 H 256.317 4.74514 2.23465 0
M  V30 2711 H 257.791 4.01959 3.7833 0
M  V30 2712 H 258.268 2.3243 3.72657 0
M  V30 2713 H 258.874 3.44871 2.48885 0
M  V30 2714 N 257.189 -0.644168 1.43834 0
M  V30 2715 C 258.466 -1.40188 1.36406 0
M  V30 2716 C 258.846 -2.11094 0.0163124 0
M  V30 2717 O 258.194 -2.05426 -1.00062 0
M  V30 2718 C 258.404 -2.3791 2.55343 0
M  V30 2719 C 259.752 -3.01637 2.98832 0
M  V30 2720 O 260.776 -2.48237 2.55455 0
M  V30 2721 O 259.635 -3.98477 3.74003 0
M  V30 2722 H 256.729 -0.626773 0.539523 0
M  V30 2723 H 259.275 -0.670317 1.559 0
M  V30 2724 H 258.047 -1.84525 3.4506 0
M  V30 2725 H 257.67 -3.18503 2.37995 0
M  V30 2726 N 258.668 -1.30515 -0.883378 0
M  V30 2727 C 259.914 -1.19607 -1.63774 0
M  V30 2728 C 260.247 0.248314 -1.92606 0
M  V30 2729 O 259.522 1.17742 -1.54813 0
M  V30 2730 C 259.805 -2.02669 -2.97653 0
M  V30 2731 C 259.658 -3.55335 -2.75784 0
M  V30 2732 C 260.977 -1.86573 -3.98596 0
M  V30 2733 H 258.096 -0.435856 -0.594305 0
M  V30 2734 H 260.738 -1.60165 -1.02212 0
M  V30 2735 H 258.888 -1.68208 -3.50197 0
M  V30 2736 H 260.56 -3.99863 -2.30016 0
M  V30 2737 H 258.803 -3.79438 -2.1026 0
M  V30 2738 H 259.474 -4.08745 -3.70988 0
M  V30 2739 H 261.95 -2.16703 -3.55217 0
M  V30 2740 H 260.826 -2.47014 -4.90179 0
M  V30 2741 H 261.087 -0.825321 -4.34328 0
M  V30 2742 N 260.146 1.09593 -1.13257 0
M  V30 2743 C 261.078 2.16015 -0.766167 0
M  V30 2744 C 262.091 1.61423 0.211303 0
M  V30 2745 O 263.28 1.78498 -0.00863946 0
M  V30 2746 C 260.38 3.38706 -0.114662 0
M  V30 2747 C 259.553 4.22717 -1.12379 0
M  V30 2748 C 258.612 5.23835 -0.498301 0
M  V30 2749 O 257.638 5.573 -1.15781 0
M  V30 2750 N 258.84 5.75886 0.730417 0
M  V30 2751 H 261.605 2.48055 -1.68193 0
M  V30 2752 H 259.166 1.25292 -1.02535 0
M  V30 2753 H 261.158 4.03464 0.315991 0
M  V30 2754 H 259.728 3.04569 0.704011 0
M  V30 2755 H 258.948 3.54122 -1.73179 0
M  V30 2756 H 260.236 4.75673 -1.80589 0
M  V30 2757 H 259.634 5.50911 1.28504 0
M  V30 2758 H 258.191 6.42387 1.10376 0
M  V30 2759 N 261.624 0.925811 1.2754 0
M  V30 2760 C 262.572 0.413897 2.28888 0
M  V30 2761 C 263.566 -0.500779 1.61829 0
M  V30 2762 O 264.772 -0.38069 1.75928 0
M  V30 2763 H 261.147 0.115274 0.743112 0
M  V30 2764 H 263.118 1.28151 2.69481 0
M  V30 2765 C 261.867 -0.319792 3.46226 0
M  V30 2766 H 261.19 0.374846 3.98039 0
M  V30 2767 H 262.63 -0.642435 4.19105 0
M  V30 2768 C 261.089 -1.53209 3.00048 0
M  V30 2769 O 261.619 -2.6309 3.03557 0
M  V30 2770 N 259.825 -1.38326 2.55566 0
M  V30 2771 H 259.372 -0.489292 2.5291 0
M  V30 2772 H 259.33 -2.19564 2.25031 0
M  V30 2773 N 263.102 -1.41638 0.69111 0
M  V30 2774 C 264.065 -2.29178 0.0319786 0
M  V30 2775 C 265.065 -1.44153 -0.712496 0
M  V30 2776 O 266.255 -1.65354 -0.548053 0
M  V30 2777 C 263.387 -3.26952 -0.965161 0
M  V30 2778 H 264.58 -2.88959 0.802681 0
M  V30 2779 H 262.133 -1.4955 0.454356 0
M  V30 2780 H 262.868 -2.72142 -1.76378 0
M  V30 2781 H 262.653 -3.89685 -0.434522 0
M  V30 2782 H 264.143 -3.92561 -1.42428 0
M  V30 2783 N 264.58 -0.43555 -1.51462 0
M  V30 2784 C 265.996 -0.0877501 -1.59359 0
M  V30 2785 C 266.196 1.4027 -1.4466 0
M  V30 2786 O 265.252 2.17243 -1.28693 0
M  V30 2787 C 266.565 -0.606264 -2.94525 0
M  V30 2788 C 268.113 -0.566548 -3.0783 0
M  V30 2789 C 268.588 -1.06201 -4.45517 0
M  V30 2790 N 270.079 -1.01992 -4.51832 0
M  V30 2791 C 270.814 -1.37417 -5.5669 0
M  V30 2792 N 270.31 -1.80119 -6.68976 0
M  V30 2793 N 272.103 -1.29245 -5.47039 0
M  V30 2794 H 264.254 -1.40533 -1.59261 0
M  V30 2795 H 266.517 -0.578992 -0.750648 0
M  V30 2796 H 266.223 -1.64901 -3.10645 0
M  V30 2797 H 266.097 -0.0302097 -3.77188 0
M  V30 2798 H 268.484 0.467208 -2.91378 0
M  V30 2799 H 268.565 -1.17898 -2.2701 0
M  V30 2800 H 268.209 -2.09422 -4.62715 0
M  V30 2801 H 268.139 -0.426127 -5.24873 0
M  V30 2802 H 270.63 -0.706308 -3.71241 0
M  V30 2803 H 270.943 -2.05392 -7.45006 0
M  V30 2804 H 269.288 -1.84044 -6.70189 0
M  V30 2805 H 272.479 -0.957522 -4.58202 0
M  V30 2806 H 272.652 -1.57182 -6.28648 0
M  V30 2807 N 266.058 1.56714 -0.166846 0
M  V30 2808 C 267.021 2.16539 0.751232 0
M  V30 2809 C 268.021 1.11228 1.16125 0
M  V30 2810 O 269.211 1.36765 1.07894 0
M  V30 2811 C 266.343 2.74462 2.02196 0
M  V30 2812 H 267.536 2.99013 0.230499 0
M  V30 2813 H 265.089 1.56081 0.0826982 0
M  V30 2814 H 265.824 1.95709 2.58589 0
M  V30 2815 H 265.609 3.51527 1.73698 0
M  V30 2816 H 267.099 3.20489 2.67725 0
M  V30 2817 N 267.536 -0.106894 1.57237 0
M  V30 2818 C 268.468 -1.15646 1.97885 0
M  V30 2819 C 269.481 -1.36981 0.879779 0
M  V30 2820 O 270.67 -1.35841 1.15799 0
M  V30 2821 C 267.77 -2.51425 2.27241 0
M  V30 2822 C 266.943 -2.50529 3.58545 0
M  V30 2823 C 266.002 -3.68145 3.75973 0
M  V30 2824 O 265.028 -3.51176 4.47956 0
M  V30 2825 N 266.23 -4.87177 3.15656 0
M  V30 2826 H 268.995 -0.81059 2.8853 0
M  V30 2827 H 266.556 -0.296024 1.59171 0
M  V30 2828 H 268.548 -3.28689 2.36105 0
M  V30 2829 H 267.118 -2.78147 1.42663 0
M  V30 2830 H 266.338 -1.58894 3.60758 0
M  V30 2831 H 267.626 -2.46997 4.44826 0
M  V30 2832 H 267.024 -5.03868 2.57165 0
M  V30 2833 H 265.581 -5.62075 3.30023 0
M  V30 2834 N 269.014 -1.53014 -0.377408 0
M  V30 2835 C 270.244 -1.72265 -1.14054 0
M  V30 2836 C 270.652 -0.44601 -1.83868 0
M  V30 2837 O 269.995 0.590095 -1.73964 0
M  V30 2838 C 270.057 -2.82492 -2.22348 0
M  V30 2839 C 269.721 -4.23233 -1.72402 0
M  V30 2840 C 270.718 -5.05992 -1.19448 0
M  V30 2841 C 268.403 -4.696 -1.78273 0
M  V30 2842 C 270.397 -6.33203 -0.730268 0
M  V30 2843 C 268.084 -5.96792 -1.31464 0
M  V30 2844 C 269.082 -6.78424 -0.789297 0
M  V30 2845 O 268.77 -8.0323 -0.328077 0
M  V30 2846 H 268.502 -0.579873 -0.347453 0
M  V30 2847 H 271.056 -2.00502 -0.445882 0
M  V30 2848 H 269.286 -2.49702 -2.95272 0
M  V30 2849 H 270.975 -2.90034 -2.83963 0
M  V30 2850 H 271.741 -4.71349 -1.14259 0
M  V30 2851 H 267.62 -4.06142 -2.18106 0
M  V30 2852 H 271.164 -6.96868 -0.319542 0
M  V30 2853 H 267.061 -6.30937 -1.36342 0
M  V30 2854 H 267.829 -8.1727 -0.448493 0
M  V30 2855 N 270.492 0.636531 -1.44174 0
M  V30 2856 C 271.769 1.39463 -1.37148 0
M  V30 2857 C 272.149 2.11082 -0.027507 0
M  V30 2858 O 271.497 2.05954 0.989716 0
M  V30 2859 C 271.707 2.36552 -2.56601 0
M  V30 2860 C 273.055 3.00048 -3.00427 0
M  V30 2861 O 274.079 2.46878 -2.56767 0
M  V30 2862 O 272.938 3.96488 -3.76111 0
M  V30 2863 H 270.032 0.623903 -0.542839 0
M  V30 2864 H 272.578 0.662039 -1.56253 0
M  V30 2865 H 271.35 1.82692 -3.46034 0
M  V30 2866 H 270.973 3.17236 -2.39681 0
M  V30 2867 N 271.97 1.30982 0.876444 0
M  V30 2868 C 273.198 1.23242 1.6619 0
M  V30 2869 C 273.613 -0.203345 1.87702 0
M  V30 2870 O 272.97 -1.13317 1.43057 0
M  V30 2871 C 273.021 1.96623 3.03351 0
M  V30 2872 O 272.742 3.34594 2.82804 0
M  V30 2873 C 274.243 1.95644 3.97792 0
M  V30 2874 H 271.463 0.426126 0.518322 0
M  V30 2875 H 274.007 1.7275 1.09442 0
M  V30 2876 H 272.162 1.50892 3.56806 0
M  V30 2877 H 272.576 3.71873 3.69879 0
M  V30 2878 H 274.05 2.51511 4.91372 0
M  V30 2879 H 274.527 0.937395 4.2908 0
M  V30 2880 H 275.133 2.41225 3.50272 0
M  V30 2881 N 273.449 -1.08991 1.13837 0
M  V30 2882 C 274.695 -1.81526 0.90422 0
M  V30 2883 C 275.028 -1.85706 -0.568066 0
M  V30 2884 O 274.303 -1.32855 -1.42056 0
M  V30 2885 C 274.586 -3.27447 1.49835 0
M  V30 2886 C 274.439 -3.31512 3.04006 0
M  V30 2887 C 275.758 -4.24256 1.17025 0
M  V30 2888 H 272.877 -0.659029 0.329923 0
M  V30 2889 H 275.519 -1.27644 1.40737 0
M  V30 2890 H 273.669 -3.73462 1.07044 0
M  V30 2891 H 275.341 -2.93867 3.55584 0
M  V30 2892 H 273.584 -2.70963 3.38765 0
M  V30 2893 H 274.255 -4.34329 3.40679 0
M  V30 2894 H 276.731 -3.86549 1.54009 0
M  V30 2895 H 275.607 -5.24684 1.61237 0
M  V30 2896 H 275.868 -4.42019 0.0846274 0
M  V30 2897 N 274.927 -0.932562 -1.27047 0
M  V30 2898 C 275.857 -0.452902 -2.29066 0
M  V30 2899 C 276.838 0.489338 -1.62909 0
M  V30 2900 O 278.023 0.393046 -1.90181 0
M  V30 2901 C 275.153 0.290698 -3.46081 0
M  V30 2902 C 274.107 -0.564168 -4.24265 0
M  V30 2903 C 273.433 0.308886 -5.33807 0
M  V30 2904 C 274.733 -1.83112 -4.89149 0
M  V30 2905 H 276.427 -1.30552 -2.69437 0
M  V30 2906 H 273.973 -0.629201 -1.29526 0
M  V30 2907 H 275.926 0.637233 -4.16554 0
M  V30 2908 H 274.65 1.17738 -3.0464 0
M  V30 2909 H 273.309 -0.893477 -3.55545 0
M  V30 2910 H 272.957 1.19467 -4.88607 0
M  V30 2911 H 272.657 -0.259633 -5.87026 0
M  V30 2912 H 274.181 0.650884 -6.07121 0
M  V30 2913 H 275.595 -1.55236 -5.51883 0
M  V30 2914 H 273.992 -2.34353 -5.52448 0
M  V30 2915 H 275.062 -2.54772 -4.12576 0
M  V30 2916 N 276.405 1.4127 -0.698611 0
M  V30 2917 C 277.368 2.29158 -0.044132 0
M  V30 2918 C 278.368 1.44529 0.704841 0
M  V30 2919 O 279.558 1.65643 0.539276 0
M  V30 2920 C 276.69 3.27459 0.947809 0
M  V30 2921 H 277.883 2.88529 -0.817994 0
M  V30 2922 H 275.436 1.49307 -0.46228 0
M  V30 2923 H 276.171 2.73073 1.74933 0
M  V30 2924 H 275.956 3.8991 0.41385 0
M  V30 2925 H 277.446 3.93311 1.40344 0
M  V30 2926 N 277.883 0.443576 1.51229 0
M  V30 2927 C 278.831 -0.37904 2.29491 0
M  V30 2928 C 279.825 -1.0153 1.35603 0
M  V30 2929 O 281.031 -0.94955 1.52917 0
M  V30 2930 H 277.406 -0.141053 0.738653 0
M  V30 2931 H 279.377 0.301799 2.9687 0
M  V30 2932 C 278.126 -1.46426 3.15364 0
M  V30 2933 H 277.449 -0.984037 3.87501 0
M  V30 2934 H 278.889 -2.01297 3.7317 0
M  V30 2935 C 277.348 -2.45099 2.31146 0
M  V30 2936 O 277.878 -3.49773 1.9754 0
M  V30 2937 N 276.084 -2.16139 1.94249 0
M  V30 2938 H 275.631 -1.31044 2.21777 0
M  V30 2939 H 275.589 -2.82398 1.38198 0
M  V30 2940 N 279.361 -1.56624 0.175154 0
M  V30 2941 C 280.271 -2.21741 -0.766042 0
M  V30 2942 C 281.287 -1.21023 -1.25018 0
M  V30 2943 O 282.463 -1.53697 -1.3015 0
M  V30 2944 C 279.528 -2.84839 -1.97655 0
M  V30 2945 C 278.589 -4.00769 -1.53892 0
M  V30 2946 C 277.822 -4.60849 -2.69173 0
M  V30 2947 O 278.045 -4.19823 -3.86141 0
M  V30 2948 O 276.979 -5.50655 -2.43028 0
M  V30 2949 H 280.805 -3.02738 -0.241585 0
M  V30 2950 H 278.39 -1.49305 -0.053222 0
M  V30 2951 H 280.272 -3.24834 -2.68442 0
M  V30 2952 H 278.947 -2.06836 -2.48999 0
M  V30 2953 H 277.854 -3.65436 -0.80044 0
M  V30 2954 H 279.187 -4.80376 -1.07236 0
M  V30 2955 N 280.839 0.0985539 -1.57292 0
M  V30 2956 C 282.085 0.803867 -1.86188 0
M  V30 2957 C 282.418 1.78549 -0.763794 0
M  V30 2958 O 281.693 1.93153 0.22855 0
M  V30 2959 C 281.976 1.53568 -3.25713 0
M  V30 2960 C 281.829 0.572277 -4.46145 0
M  V30 2961 C 283.148 2.48708 -3.63087 0
M  V30 2962 H 280.267 0.290781 -0.677211 0
M  V30 2963 H 282.909 0.0675783 -1.8988 0
M  V30 2964 H 281.059 2.16332 -3.22696 0
M  V30 2965 H 282.731 -0.0480894 -4.61275 0
M  V30 2966 H 280.974 -0.114618 -4.33649 0
M  V30 2967 H 281.645 1.12139 -5.40489 0
M  V30 2968 H 284.121 1.96039 -3.67026 0
M  V30 2969 H 282.997 2.96932 -4.61652 0
M  V30 2970 H 283.258 3.32309 -2.91588 0
M  V30 2971 N 282.317 1.53212 0.369288 0
M  V30 2972 C 283.545 1.73119 1.13303 0
M  V30 2973 C 283.96 0.458455 1.83149 0
M  V30 2974 O 283.317 -0.568403 1.73423 0
M  V30 2975 C 283.368 2.89413 2.16616 0
M  V30 2976 O 283.089 4.11761 1.49614 0
M  V30 2977 C 284.59 3.21161 3.05566 0
M  V30 2978 H 281.81 0.579107 0.338934 0
M  V30 2979 H 284.354 1.99942 0.429338 0
M  V30 2980 H 282.509 2.64994 2.82589 0
M  V30 2981 H 282.923 4.76858 2.18419 0
M  V30 2982 H 284.397 4.05949 3.74045 0
M  V30 2983 H 284.874 2.36369 3.70171 0
M  V30 2984 H 285.48 3.47492 2.45213 0
M  V30 2985 N 283.795 -0.628877 1.44509 0
M  V30 2986 C 284.758 -1.72263 1.51188 0
M  V30 2987 C 285.758 -1.55907 0.39367 0
M  V30 2988 O 286.948 -1.61361 0.656377 0
M  V30 2989 C 284.08 -3.11365 1.38798 0
M  V30 2990 H 285.273 -1.67714 2.4862 0
M  V30 2991 H 282.826 -0.842737 1.31634 0
M  V30 2992 H 283.561 -3.21507 0.424693 0
M  V30 2993 H 283.346 -3.24644 2.19884 0
M  V30 2994 H 284.836 -3.91075 1.46458 0
M  V30 2995 N 285.273 -1.31445 -0.869486 0
M  V30 2996 C 286.689 -1.10113 -1.15531 0
M  V30 2997 C 286.889 0.128087 -2.01092 0
M  V30 2998 O 285.945 0.817276 -2.38908 0
M  V30 2999 C 287.258 -2.37291 -1.84698 0
M  V30 3000 C 288.806 -2.42906 -1.97397 0
M  V30 3001 C 289.281 -3.69967 -2.69979 0
M  V30 3002 N 290.772 -3.70864 -2.77514 0
M  V30 3003 C 291.507 -4.65875 -3.34287 0
M  V30 3004 N 291.003 -5.71242 -3.91988 0
M  V30 3005 N 292.796 -4.53394 -3.3225 0
M  V30 3006 H 284.947 -2.1028 -0.299347 0
M  V30 3007 H 287.21 -0.927683 -0.195214 0
M  V30 3008 H 286.916 -3.27078 -1.29278 0
M  V30 3009 H 286.79 -2.47125 -2.84972 0
M  V30 3010 H 289.177 -1.53588 -2.51982 0
M  V30 3011 H 289.258 -2.37036 -0.961643 0
M  V30 3012 H 288.902 -4.59652 -2.16062 0
M  V30 3013 H 288.832 -3.73103 -3.7162 0
M  V30 3014 H 291.323 -2.94697 -2.36563 0
M  V30 3015 H 291.636 -6.39817 -4.33421 0
M  V30 3016 H 289.981 -5.75015 -3.90362 0
M  V30 3017 H 293.172 -3.70252 -2.8641 0
M  V30 3018 H 293.345 -5.27617 -3.76197 0
M  V30 3019 N 286.751 1.08385 -1.14413 0
M  V30 3020 C 287.699 2.17406 -0.826888 0
M  V30 3021 C 288.693 1.6827 0.195312 0
M  V30 3022 O 289.899 1.79927 0.0513892 0
M  V30 3023 H 286.274 0.70934 -0.249681 0
M  V30 3024 H 288.245 2.41388 -1.75426 0
M  V30 3025 C 286.994 3.46215 -0.320979 0
M  V30 3026 H 286.317 3.84401 -1.0989 0
M  V30 3027 H 287.757 4.23777 -0.137549 0
M  V30 3028 C 286.216 3.23067 0.955472 0
M  V30 3029 O 286.746 3.4668 2.02918 0
M  V30 3030 N 284.952 2.7661 0.890798 0
M  V30 3031 H 284.499 2.57594 0.0168815 0
M  V30 3032 H 284.457 2.61501 1.74542 0
M  V30 3033 N 288.23 0.939286 1.26551 0
M  V30 3034 C 289.178 0.43815 2.28436 0
M  V30 3035 C 290.172 -0.483587 1.62351 0
M  V30 3036 O 291.378 -0.362009 1.76322 0
M  V30 3037 H 287.753 0.123149 0.741848 0
M  V30 3038 H 289.724 1.31002 2.68106 0
M  V30 3039 C 288.473 -0.283052 3.46546 0
M  V30 3040 H 287.796 0.417043 3.97619 0
M  V30 3041 H 289.236 -0.597948 4.19763 0
M  V30 3042 C 287.695 -1.50018 3.01656 0
M  V30 3043 O 288.225 -2.59855 3.0633 0
M  V30 3044 N 286.431 -1.35608 2.57019 0
M  V30 3045 H 285.978 -0.46244 2.53415 0
M  V30 3046 H 285.936 -2.17165 2.27347 0
M  V30 3047 N 289.708 -1.40897 0.706093 0
M  V30 3048 C 290.638 -2.33418 0.0620085 0
M  V30 3049 C 291.619 -1.52385 -0.755827 0
M  V30 3050 O 292.804 -1.80886 -0.706674 0
M  V30 3051 C 289.934 -3.36293 -0.867445 0
M  V30 3052 C 288.888 -4.27716 -0.155932 0
M  V30 3053 C 288.214 -5.2105 -1.20046 0
M  V30 3054 C 289.514 -5.12944 0.984149 0
M  V30 3055 H 291.208 -2.87527 0.83477 0
M  V30 3056 H 288.754 -1.38249 0.402875 0
M  V30 3057 H 290.707 -3.99949 -1.32735 0
M  V30 3058 H 289.431 -2.80556 -1.67199 0
M  V30 3059 H 288.09 -3.65498 0.284047 0
M  V30 3060 H 287.738 -4.61624 -1.99781 0
M  V30 3061 H 287.438 -5.83056 -0.729328 0
M  V30 3062 H 288.962 -5.87584 -1.66066 0
M  V30 3063 H 290.376 -5.70109 0.604048 0
M  V30 3064 H 288.773 -5.83945 1.38304 0
M  V30 3065 H 289.843 -4.49485 1.81911 0
M  V30 3066 N 291.186 -0.45159 -1.50991 0
M  V30 3067 C 292.463 0.170707 -1.94854 0
M  V30 3068 C 292.843 1.58788 -1.39103 0
M  V30 3069 O 292.191 2.20913 -0.583921 0
M  V30 3070 C 292.401 0.133929 -3.48743 0
M  V30 3071 C 293.749 0.33248 -4.23296 0
M  V30 3072 O 294.773 0.211403 -3.55572 0
M  V30 3073 O 293.632 0.57486 -5.43468 0
M  V30 3074 H 290.726 0.122264 -0.817912 0
M  V30 3075 H 293.272 -0.510594 -1.61836 0
M  V30 3076 H 292.044 -0.856283 -3.81816 0
M  V30 3077 H 291.667 0.857529 -3.88242 0
M  V30 3078 N 292.664 1.56529 -0.183458 0
M  V30 3079 C 293.612 2.19873 0.758845 0
M  V30 3080 C 294.606 1.16638 1.22849 0
M  V30 3081 O 295.812 1.3481 1.19274 0
M  V30 3082 H 292.187 0.7045 0.263029 0
M  V30 3083 H 294.158 2.97724 0.200755 0
M  V30 3084 C 292.907 2.86314 1.9728 0
M  V30 3085 H 292.23 3.65487 1.62047 0
M  V30 3086 H 293.67 3.3409 2.61075 0
M  V30 3087 C 292.129 1.86729 2.80418 0
M  V30 3088 O 292.659 1.36031 3.77966 0
M  V30 3089 N 290.865 1.55216 2.45675 0
M  V30 3090 H 290.412 1.96636 1.66409 0
M  V30 3091 H 290.37 0.888388 3.01588 0
M  V30 3092 N 294.142 -0.090211 1.57342 0
M  V30 3093 C 295.105 -1.09335 2.01441 0
M  V30 3094 C 296.105 -1.32666 0.908641 0
M  V30 3095 O 297.295 -1.28697 1.174 0
M  V30 3096 C 294.427 -2.44136 2.3793 0
M  V30 3097 H 295.62 -0.713662 2.91285 0
M  V30 3098 H 293.173 -0.335404 1.52659 0
M  V30 3099 H 293.908 -2.86972 1.51055 0
M  V30 3100 H 293.693 -2.28548 3.18603 0
M  V30 3101 H 295.183 -3.16277 2.72688 0
M  V30 3102 N 295.62 -1.53406 -0.361157 0
M  V30 3103 C 296.866 -1.70054 -1.10496 0
M  V30 3104 C 297.199 -0.453278 -1.88836 0
M  V30 3105 O 296.474 0.5495 -1.86576 0
M  V30 3106 C 296.757 -2.95317 -2.06058 0
M  V30 3107 C 296.61 -4.3021 -1.31298 0
M  V30 3108 C 297.929 -3.16193 -3.06121 0
M  V30 3109 H 295.048 -0.618799 -0.400321 0
M  V30 3110 H 297.69 -1.86052 -0.385318 0
M  V30 3111 H 295.84 -2.81809 -2.67425 0
M  V30 3112 H 297.512 -4.55538 -0.726807 0
M  V30 3113 H 295.755 -4.29421 -0.614853 0
M  V30 3114 H 296.426 -5.14 -2.01265 0
M  V30 3115 H 298.902 -3.28916 -2.5486 0
M  V30 3116 H 297.778 -4.05266 -3.70204 0
M  V30 3117 H 298.039 -2.31676 -3.76535 0
M  V30 3118 N 297.098 0.621204 -1.44841 0
M  V30 3119 C 298.008 1.7612 -1.5498 0
M  V30 3120 C 299.024 1.68477 -0.434927 0
M  V30 3121 O 300.2 1.89076 -0.693693 0
M  V30 3122 C 297.265 3.1254 -1.50065 0
M  V30 3123 C 296.326 3.31741 -2.72482 0
M  V30 3124 C 295.559 4.61653 -2.67792 0
M  V30 3125 O 295.782 5.431 -1.74352 0
M  V30 3126 O 294.716 4.83271 -3.58794 0
M  V30 3127 H 298.542 1.70518 -2.51311 0
M  V30 3128 H 296.127 0.783643 -1.27198 0
M  V30 3129 H 298.009 3.93844 -1.49882 0
M  V30 3130 H 296.684 3.18663 -0.568806 0
M  V30 3131 H 295.591 2.50077 -2.7823 0
M  V30 3132 H 296.924 3.30486 -3.64746 0
M  V30 3133 N 298.576 1.31904 0.862503 0
M  V30 3134 C 299.508 1.16005 1.97675 0
M  V30 3135 C 300.521 0.0971234 1.6251 0
M  V30 3136 O 301.71 0.345337 1.75128 0
M  V30 3137 C 298.81 0.751791 3.30456 0
M  V30 3138 C 297.983 1.90133 3.93914 0
M  V30 3139 C 297.042 1.4779 5.05019 0
M  V30 3140 O 296.068 2.18872 5.25437 0
M  V30 3141 N 297.27 0.369491 5.79323 0
M  V30 3142 H 300.035 2.11982 2.11857 0
M  V30 3143 H 297.596 1.24337 1.03691 0
M  V30 3144 H 299.588 0.451084 4.02178 0
M  V30 3145 H 298.158 -0.116593 3.12382 0
M  V30 3146 H 297.378 2.36896 3.15078 0
M  V30 3147 H 298.666 2.67111 4.33047 0
M  V30 3148 H 298.064 -0.222299 5.65263 0
M  V30 3149 H 296.621 0.128354 6.51674 0
M  V30 3150 N 300.054 -1.07777 1.14986 0
M  V30 3151 C 300.984 -2.16865 0.865557 0
M  V30 3152 C 301.965 -1.69123 -0.182083 0
M  V30 3153 O 303.15 -1.94164 -0.0373815 0
M  V30 3154 C 300.28 -3.45539 0.349313 0
M  V30 3155 C 299.234 -4.06708 1.33313 0
M  V30 3156 C 298.56 -5.30411 0.675918 0
M  V30 3157 C 299.86 -4.47241 2.69764 0
M  V30 3158 H 301.554 -2.40905 1.77778 0
M  V30 3159 H 299.1 -1.15781 0.856203 0
M  V30 3160 H 301.053 -4.21174 0.137983 0
M  V30 3161 H 299.777 -3.21072 -0.598362 0
M  V30 3162 H 298.436 -3.33112 1.53075 0
M  V30 3163 H 298.084 -5.02232 -0.277767 0
M  V30 3164 H 297.784 -5.72293 1.33244 0
M  V30 3165 H 299.308 -6.08755 0.474262 0
M  V30 3166 H 300.722 -5.14025 2.53873 0
M  V30 3167 H 299.119 -5.00062 3.3175 0
M  V30 3168 H 300.189 -3.58818 3.26156 0
M  V30 3169 N 301.532 -0.945985 -1.26051 0
M  V30 3170 C 302.948 -0.649045 -1.45807 0
M  V30 3171 C 303.148 0.796158 -1.85104 0
M  V30 3172 O 302.204 1.57233 -1.97571 0
M  V30 3173 C 303.517 -1.61458 -2.53677 0
M  V30 3174 C 305.065 -1.62481 -2.67524 0
M  V30 3175 C 305.54 -2.57776 -3.7857 0
M  V30 3176 N 307.031 -2.5609 -3.85969 0
M  V30 3177 C 307.766 -3.26508 -4.7136 0
M  V30 3178 N 307.262 -4.0637 -5.61102 0
M  V30 3179 N 309.055 -3.15437 -4.65248 0
M  V30 3180 H 301.206 -1.88005 -0.988328 0
M  V30 3181 H 303.469 -0.808198 -0.4955 0
M  V30 3182 H 303.175 -2.64644 -2.31638 0
M  V30 3183 H 303.049 -1.37036 -3.51427 0
M  V30 3184 H 305.436 -0.600167 -2.88933 0
M  V30 3185 H 305.517 -1.90958 -1.70202 0
M  V30 3186 H 305.161 -3.60361 -3.57913 0
M  V30 3187 H 305.091 -2.26587 -4.75359 0
M  V30 3188 H 307.582 -1.98105 -3.21812 0
M  V30 3189 H 307.895 -4.57042 -6.23164 0
M  V30 3190 H 306.24 -4.10469 -5.60839 0
M  V30 3191 H 309.431 -2.52525 -3.94143 0
M  V30 3192 H 309.604 -3.70584 -5.31575 0
M  V30 3193 N 303.011 1.40521 -0.713556 0
M  V30 3194 C 303.943 2.29191 -0.0203126 0
M  V30 3195 C 304.956 1.45723 0.725864 0
M  V30 3196 O 306.145 1.69033 0.573581 0
M  V30 3197 C 303.245 3.2395 0.995486 0
M  V30 3198 C 302.418 4.36262 0.315256 0
M  V30 3199 C 301.477 5.11474 1.23616 0
M  V30 3200 O 300.503 5.64606 0.721719 0
M  V30 3201 N 301.705 5.20638 2.56743 0
M  V30 3202 H 304.47 2.89327 -0.781652 0
M  V30 3203 H 302.031 1.51869 -0.561022 0
M  V30 3204 H 304.023 3.71137 1.61368 0
M  V30 3205 H 302.593 2.64995 1.6582 0
M  V30 3206 H 301.813 3.91228 -0.483106 0
M  V30 3207 H 303.101 5.08558 -0.157004 0
M  V30 3208 H 302.499 4.7895 3.01037 0
M  V30 3209 H 301.056 5.71339 3.13712 0
M  V30 3210 N 304.489 0.459591 1.5075 0
M  V30 3211 C 305.738 -0.100971 2.01447 0
M  V30 3212 C 306.051 -1.41816 1.34713 0
M  V30 3213 O 307.257 -2.06299 1.76502 0
M  V30 3214 C 305.713 -0.23047 3.59161 0
M  V30 3215 C 305.321 1.0776 4.34847 0
M  V30 3216 C 307.065 -0.743608 4.17936 0
M  V30 3217 C 304.972 0.91253 5.84317 0
M  V30 3218 H 303.902 -0.0415102 0.752856 0
M  V30 3219 H 306.553 0.592742 1.73663 0
M  V30 3220 H 304.935 -0.987703 3.83485 0
M  V30 3221 H 306.109 1.8449 4.22256 0
M  V30 3222 H 304.424 1.52097 3.87628 0
M  V30 3223 H 307.021 -0.883959 5.27343 0
M  V30 3224 H 307.364 -1.73196 3.78562 0
M  V30 3225 H 307.897 -0.04408 3.97776 0
M  V30 3226 H 304.636 1.87391 6.28144 0
M  V30 3227 H 304.156 0.185422 5.99513 0
M  V30 3228 H 305.835 0.574547 6.44444 0
M  V30 3229 N 305.967 -1.56429 0.191757 0
M  V30 3230 C 307.195 -2.01867 -0.453586 0
M  V30 3231 C 307.61 -1.07191 -1.5542 0
M  V30 3232 O 306.967 -0.0762108 -1.82341 0
M  V30 3233 C 307.018 -3.47017 -1.013 0
M  V30 3234 O 306.739 -4.38078 0.0437005 0
M  V30 3235 C 308.24 -4.07956 -1.73456 0
M  V30 3236 H 305.46 -0.661211 -0.114199 0
M  V30 3237 H 308.004 -2.02295 0.299483 0
M  V30 3238 H 306.159 -3.47298 -1.71647 0
M  V30 3239 H 306.573 -5.23178 -0.372212 0
M  V30 3240 H 308.047 -5.1138 -2.07833 0
M  V30 3241 H 308.524 -3.51222 -2.63704 0
M  V30 3242 H 309.13 -4.11437 -1.07702 0
M  V30 3243 N 307.445 0.0818655 -1.57387 0
M  V30 3244 C 308.693 0.781368 -1.86384 0
M  V30 3245 C 309.014 1.78618 -0.782342 0
M  V30 3246 O 308.284 1.94976 0.190061 0
M  V30 3247 H 306.864 0.291562 -0.687751 0
M  V30 3248 H 309.526 0.060348 -1.94807 0
M  V30 3249 H 308.622 1.3038 -2.83562 0
M  V30 3250 N 308.923 1.53595 0.353017 0
M  V30 3251 C 309.871 1.81605 1.45335 0
M  V30 3252 C 310.865 0.685923 1.54892 0
M  V30 3253 O 312.071 0.869095 1.57628 0
M  V30 3254 H 308.446 0.575204 0.484401 0
M  V30 3255 H 310.417 2.73679 1.18921 0
M  V30 3256 C 309.166 2.03406 2.81995 0
M  V30 3257 H 308.489 2.89814 2.75405 0
M  V30 3258 H 309.929 2.26975 3.58132 0
M  V30 3259 C 308.388 0.816794 3.26849 0
M  V30 3260 O 308.918 0.0115856 4.01698 0
M  V30 3261 N 307.124 0.636682 2.8354 0
M  V30 3262 H 306.671 1.2931 2.22793 0
M  V30 3263 H 306.629 -0.176336 3.13905 0
M  V30 3264 N 310.401 -0.613514 1.45168 0
M  V30 3265 C 311.631 -1.39743 1.52169 0
M  V30 3266 C 312.039 -1.88596 0.151086 0
M  V30 3267 O 311.382 -1.6251 -0.856521 0
M  V30 3268 C 311.444 -2.64035 2.43979 0
M  V30 3269 C 311.108 -2.36861 3.90827 0
M  V30 3270 C 312.105 -1.97591 4.80889 0
M  V30 3271 C 309.79 -2.49956 4.35692 0
M  V30 3272 C 311.784 -1.71768 6.1382 0
M  V30 3273 C 309.471 -2.23747 5.68665 0
M  V30 3274 C 310.469 -1.84714 6.57548 0
M  V30 3275 O 310.157 -1.58809 7.88058 0
M  V30 3276 H 309.889 -0.434382 0.517966 0
M  V30 3277 H 312.443 -0.75587 1.90986 0
M  V30 3278 H 310.673 -3.3089 2.00122 0
M  V30 3279 H 312.362 -3.26069 2.41731 0
M  V30 3280 H 313.128 -1.87015 4.47493 0
M  V30 3281 H 309.007 -2.79305 3.66756 0
M  V30 3282 H 312.551 -1.41227 6.83155 0
M  V30 3283 H 308.448 -2.33938 6.01617 0
M  V30 3284 H 309.216 -1.7291 8.00028 0
M  V30 3285 N 311.879 -1.3236 -0.855495 0
M  V30 3286 C 313.109 -1.25688 -1.6397 0
M  V30 3287 C 313.517 0.177592 -1.88365 0
M  V30 3288 O 312.86 1.12485 -1.45234 0
M  V30 3289 C 312.922 -1.94602 -3.02275 0
M  V30 3290 C 312.586 -3.43937 -3.00926 0
M  V30 3291 C 313.583 -4.39435 -2.77835 0
M  V30 3292 C 311.268 -3.85858 -3.21588 0
M  V30 3293 C 313.262 -5.74829 -2.75409 0
M  V30 3294 C 310.949 -5.21361 -3.18789 0
M  V30 3295 C 311.947 -6.15658 -2.95727 0
M  V30 3296 O 311.635 -7.48681 -2.928 0
M  V30 3297 H 311.367 -0.434972 -0.51747 0
M  V30 3298 H 313.921 -1.75023 -1.075 0
M  V30 3299 H 312.151 -1.39836 -3.60531 0
M  V30 3300 H 313.84 -1.81651 -3.62985 0
M  V30 3301 H 314.606 -4.08374 -2.6164 0
M  V30 3302 H 310.485 -3.12883 -3.38564 0
M  V30 3303 H 314.029 -6.48404 -2.57328 0
M  V30 3304 H 309.926 -5.52052 -3.34528 0
M  V30 3305 H 310.694 -7.5803 -3.0876 0
M  V30 3306 N 313.357 1.07166 -1.15556 0
M  V30 3307 C 314.768 1.6127 -0.940693 0
M  V30 3308 C 315.119 1.89251 0.517551 0
M  V30 3309 O 314.244 1.65937 1.38903 0
M  V30 3310 C 314.839 2.92993 -1.7012 0
M  V30 3311 C 313.398 3.43832 -1.53156 0
M  V30 3312 C 312.545 2.1786 -1.71558 0
M  V30 3313 H 315.496 0.90229 -1.30554 0
M  V30 3314 H 315.517 3.62007 -1.17181 0
M  V30 3315 H 315.029 2.72596 -2.76248 0
M  V30 3316 H 313.13 3.69307 -0.494294 0
M  V30 3317 H 313.243 4.19747 -2.30975 0
M  V30 3318 H 311.607 2.2765 -1.14225 0
M  V30 3319 H 312.39 1.99956 -2.79056 0
M  V30 3320 N 314.835 0.952656 1.25548 0
M  V30 3321 C 315.745 0.47782 2.29682 0
M  V30 3322 C 316.761 -0.453859 1.67977 0
M  V30 3323 O 317.937 -0.330587 1.98668 0
M  V30 3324 C 315.002 -0.238655 3.45878 0
M  V30 3325 C 314.063 0.730994 4.23031 0
M  V30 3326 C 313.296 0.0486165 5.33678 0
M  V30 3327 O 313.519 -1.16612 5.58353 0
M  V30 3328 O 312.453 0.733152 5.97418 0
M  V30 3329 H 316.279 1.34312 2.72386 0
M  V30 3330 H 313.864 0.719026 1.30959 0
M  V30 3331 H 315.746 -0.641774 4.16484 0
M  V30 3332 H 314.421 -1.07916 3.05181 0
M  V30 3333 H 313.328 1.18428 3.5486 0
M  V30 3334 H 314.661 1.53946 4.67506 0
M  V30 3335 N 316.313 -1.40141 0.720998 0
M  V30 3336 C 317.243 -2.33339 0.0867621 0
M  V30 3337 C 318.224 -1.53178 -0.739622 0
M  V30 3338 O 319.409 -1.81625 -0.687449 0
M  V30 3339 C 316.539 -3.37194 -0.831728 0
M  V30 3340 C 315.493 -4.27857 -0.110558 0
M  V30 3341 C 314.819 -5.22294 -1.14513 0
M  V30 3342 C 316.119 -5.11872 1.0385 0
M  V30 3343 H 317.813 -2.86626 0.865219 0
M  V30 3344 H 315.359 -1.37814 0.417516 0
M  V30 3345 H 317.312 -4.01335 -1.28485 0
M  V30 3346 H 316.036 -2.82314 -1.64214 0
M  V30 3347 H 314.695 -3.65176 0.322797 0
M  V30 3348 H 314.343 -4.63717 -1.94874 0
M  V30 3349 H 314.043 -5.83797 -0.667446 0
M  V30 3350 H 315.567 -5.89312 -1.59824 0
M  V30 3351 H 316.981 -5.69436 0.664482 0
M  V30 3352 H 315.378 -5.82445 1.4449 0
M  V30 3353 H 316.448 -4.4753 1.86668 0
M  V30 3354 N 317.792 -0.46758 -1.50504 0
M  V30 3355 C 318.755 0.317059 -2.26996 0
M  V30 3356 C 319.755 0.923513 -1.31635 0
M  V30 3357 O 320.945 0.793239 -1.55091 0
M  V30 3358 C 318.077 1.45134 -3.08462 0
M  V30 3359 H 319.27 -0.353723 -2.97807 0
M  V30 3360 H 316.823 -0.221545 -1.54722 0
M  V30 3361 H 317.558 2.15728 -2.4214 0
M  V30 3362 H 317.343 1.02232 -3.78538 0
M  V30 3363 H 318.833 2.00493 -3.66323 0
M  V30 3364 N 319.27 1.56325 -0.20005 0
M  V30 3365 C 320.233 2.18084 0.705132 0
M  V30 3366 C 321.233 1.13666 1.1374 0
M  V30 3367 O 322.423 1.39023 1.04968 0
M  V30 3368 C 319.555 2.78689 1.96329 0
M  V30 3369 H 320.748 2.99435 0.167023 0
M  V30 3370 H 318.301 1.56221 0.0495725 0
M  V30 3371 H 319.036 2.0115 2.5438 0
M  V30 3372 H 318.821 3.55133 1.66202 0
M  V30 3373 H 320.311 3.26096 2.60866 0
M  V30 3374 N 320.748 -0.0735177 1.57428 0
M  V30 3375 C 321.678 -1.0879 2.06608 0
M  V30 3376 C 322.659 -1.40473 0.959237 0
M  V30 3377 O 323.844 -1.5013 1.23185 0
M  V30 3378 C 320.974 -2.40183 2.50857 0
M  V30 3379 C 319.928 -2.22858 3.65402 0
M  V30 3380 C 319.254 -3.59619 3.957 0
M  V30 3381 C 320.554 -1.65123 4.95511 0
M  V30 3382 H 322.248 -0.678673 2.91607 0
M  V30 3383 H 319.794 -0.325013 1.40284 0
M  V30 3384 H 321.747 -3.11437 2.83874 0
M  V30 3385 H 320.471 -2.83083 1.62885 0
M  V30 3386 H 319.13 -1.54045 3.32664 0
M  V30 3387 H 318.778 -4.00086 3.04861 0
M  V30 3388 H 318.478 -3.48866 4.72828 0
M  V30 3389 H 320.002 -4.32306 4.31212 0
M  V30 3390 H 321.416 -2.26241 5.26771 0
M  V30 3391 H 319.813 -1.65071 5.7695 0
M  V30 3392 H 320.883 -0.612559 4.81015 0
M  V30 3393 N 322.226 -1.5378 -0.344866 0
M  V30 3394 C 323.174 -1.82373 -1.4437 0
M  V30 3395 C 324.168 -0.694128 -1.54526 0
M  V30 3396 O 325.374 -0.877442 -1.57165 0
M  V30 3397 H 321.749 -0.577765 -0.481344 0
M  V30 3398 H 323.72 -2.74306 -1.17468 0
M  V30 3399 C 322.469 -2.04898 -2.80913 0
M  V30 3400 H 321.792 -2.9127 -2.73865 0
M  V30 3401 H 323.232 -2.28871 -3.56923 0
M  V30 3402 C 321.691 -0.834116 -3.26411 0
M  V30 3403 O 322.221 -0.0328885 -4.01687 0
M  V30 3404 N 320.427 -0.65171 -2.83198 0
M  V30 3405 H 319.974 -1.30489 -2.22104 0
M  V30 3406 H 319.932 0.159686 -3.13994 0
M  V30 3407 N 323.704 0.605807 -1.45491 0
M  V30 3408 C 324.95 1.36679 -1.49823 0
M  V30 3409 C 325.283 1.93693 -0.140175 0
M  V30 3410 O 324.558 1.75158 0.845581 0
M  V30 3411 C 324.841 2.51337 -2.57879 0
M  V30 3412 C 324.694 1.99508 -4.03134 0
M  V30 3413 C 326.013 3.53463 -2.62205 0
M  V30 3414 H 323.132 0.495617 -0.545466 0
M  V30 3415 H 325.774 0.682732 -1.7731 0
M  V30 3416 H 323.924 3.09691 -2.34571 0
M  V30 3417 H 325.596 1.45789 -4.37656 0
M  V30 3418 H 323.839 1.30496 -4.13707 0
M  V30 3419 H 324.51 2.82169 -4.74431 0
M  V30 3420 H 326.986 3.04953 -2.83095 0
M  V30 3421 H 325.862 4.31178 -3.39672 0
M  V30 3422 H 326.123 4.09197 -1.67363 0
M  V30 3423 N 325.182 1.32811 0.848464 0
M  V30 3424 C 326.092 1.24278 1.98978 0
M  V30 3425 C 327.108 0.155176 1.73307 0
M  V30 3426 O 328.284 0.376999 1.9784 0
M  V30 3427 C 325.349 0.972444 3.32783 0
M  V30 3428 C 324.41 2.14911 3.71634 0
M  V30 3429 C 323.643 1.89157 4.99054 0
M  V30 3430 O 323.866 0.837165 5.64223 0
M  V30 3431 O 322.8 2.75433 5.35183 0
M  V30 3432 H 326.626 2.20238 2.09115 0
M  V30 3433 H 324.211 1.12762 0.980052 0
M  V30 3434 H 326.093 0.838432 4.12975 0
M  V30 3435 H 324.768 0.043051 3.23671 0
M  V30 3436 H 323.675 2.33862 2.91992 0
M  V30 3437 H 325.008 3.06151 3.85399 0
M  V30 3438 N 326.66 -1.06551 1.16123 0
M  V30 3439 C 327.608 -2.16063 0.861371 0
M  V30 3440 C 328.602 -1.6856 -0.168517 0
M  V30 3441 O 329.808 -1.79986 -0.0227579 0
M  V30 3442 H 326.183 -0.705278 0.260934 0
M  V30 3443 H 328.154 -2.38567 1.79244 0
M  V30 3444 C 326.903 -3.45661 0.376018 0
M  V30 3445 H 326.226 -3.82604 1.15992 0
M  V30 3446 H 327.666 -4.23504 0.204951 0
M  V30 3447 C 326.125 -3.24546 -0.903954 0
M  V30 3448 O 326.655 -3.49865 -1.97377 0
M  V30 3449 N 324.861 -2.77992 -0.846679 0
M  V30 3450 H 324.408 -2.57589 0.0241017 0
M  V30 3451 H 324.366 -2.64244 -1.70359 0
M  V30 3452 N 328.138 -0.959301 -1.25041 0
M  V30 3453 C 329.385 -0.616611 -1.92884 0
M  V30 3454 C 329.713 0.847036 -1.75087 0
M  V30 3455 O 328.968 1.62374 -1.09239 0
M  V30 3456 C 329.267 -0.927136 -3.45165 0
M  V30 3457 C 328.933 -2.37757 -3.83122 0
M  V30 3458 C 327.595 -2.77402 -3.93194 0
M  V30 3459 C 329.947 -3.31929 -4.01836 0
M  V30 3460 C 327.275 -4.10277 -4.19392 0
M  V30 3461 C 329.627 -4.64423 -4.29528 0
M  V30 3462 C 328.291 -5.03857 -4.37818 0
M  V30 3463 H 327.561 -0.225634 -0.705812 0
M  V30 3464 H 330.208 -1.20921 -1.48493 0
M  V30 3465 H 328.513 -0.252195 -3.90987 0
M  V30 3466 H 330.21 -0.6405 -3.95852 0
M  V30 3467 H 326.8 -2.06013 -3.75841 0
M  V30 3468 H 330.984 -3.02488 -3.93465 0
M  V30 3469 H 326.24 -4.40467 -4.24027 0
M  V30 3470 H 330.414 -5.37369 -4.42953 0
M  V30 3471 H 328.041 -6.06843 -4.57871 0
M  V30 3472 N 329.616 1.39756 -0.72842 0
M  V30 3473 C 330.563 2.30647 -0.0841519 0
M  V30 3474 C 331.533 1.48869 0.7367 0
M  V30 3475 O 332.718 1.77574 0.698015 0
M  V30 3476 C 329.858 3.35165 0.822091 0
M  V30 3477 C 328.971 4.31999 -0.0106663 0
M  V30 3478 C 328.106 5.23585 0.896241 0
M  V30 3479 C 327.145 6.12072 0.0583381 0
M  V30 3480 N 326.282 6.96035 0.920818 0
M  V30 3481 H 331.122 2.85173 -0.864891 0
M  V30 3482 H 328.659 1.40422 -0.438179 0
M  V30 3483 H 330.617 3.94345 1.36189 0
M  V30 3484 H 329.247 2.8211 1.56888 0
M  V30 3485 H 328.299 3.74492 -0.66781 0
M  V30 3486 H 329.611 4.9443 -0.658825 0
M  V30 3487 H 328.765 5.87759 1.50412 0
M  V30 3488 H 327.504 4.61459 1.57819 0
M  V30 3489 H 326.509 5.46916 -0.562389 0
M  V30 3490 H 327.734 6.76261 -0.6203 0
M  V30 3491 H 325.68 6.36485 1.58818 0
M  V30 3492 H 325.597 7.55284 0.32899 0
M  V30 3493 H 326.865 7.64646 1.51447 0
M  V30 3494 N 331.094 0.475555 1.50254 0
M  V30 3495 C 332.322 -0.0754493 2.06762 0
M  V30 3496 C 332.737 -1.33111 1.33891 0
M  V30 3497 O 332.094 -1.77846 0.40952 0
M  V30 3498 C 332.145 -0.359008 3.59713 0
M  V30 3499 O 331.866 0.846851 4.29837 0
M  V30 3500 C 333.367 -0.956484 4.32858 0
M  V30 3501 H 330.587 0.00907525 0.670939 0
M  V30 3502 H 333.131 0.665618 1.93364 0
M  V30 3503 H 331.286 -1.05001 3.72899 0
M  V30 3504 H 331.7 0.594162 5.21124 0
M  V30 3505 H 333.174 -1.10463 5.40834 0
M  V30 3506 H 333.651 -1.94775 3.93649 0
M  V30 3507 H 334.257 -0.303723 4.24214 0
M  V30 3508 N 332.573 -1.56217 0.208337 0
M  V30 3509 C 333.85 -1.89739 -0.475234 0
M  V30 3510 C 334.23 -1.1238 -1.78701 0
M  V30 3511 O 333.578 -0.228979 -2.2735 0
M  V30 3512 C 333.788 -3.42289 -0.681101 0
M  V30 3513 C 335.136 -4.12789 -0.994507 0
M  V30 3514 O 336.16 -3.47814 -0.768357 0
M  V30 3515 O 335.019 -5.27649 -1.42299 0
M  V30 3516 H 332.113 -0.788478 -0.249461 0
M  V30 3517 H 334.659 -1.67855 0.249538 0
M  V30 3518 H 333.431 -3.90534 0.244722 0
M  V30 3519 H 333.054 -3.69909 -1.45785 0
M  V30 3520 N 334.051 0.0651679 -1.57465 0
M  V30 3521 C 334.998 1.07675 -2.04144 0
M  V30 3522 C 335.968 1.38071 -0.923335 0
M  V30 3523 O 337.153 1.49026 -1.19146 0
M  V30 3524 C 334.293 2.38337 -2.49579 0
M  V30 3525 C 333.406 2.14413 -3.75035 0
M  V30 3526 C 332.541 3.38686 -4.09225 0
M  V30 3527 C 331.58 3.10156 -5.27702 0
M  V30 3528 N 330.717 4.26778 -5.57499 0
M  V30 3529 H 335.557 0.671716 -2.90331 0
M  V30 3530 H 333.094 0.3201 -1.43575 0
M  V30 3531 H 335.052 3.14632 -2.73975 0
M  V30 3532 H 333.682 2.7663 -1.6636 0
M  V30 3533 H 332.734 1.2878 -3.57939 0
M  V30 3534 H 334.046 1.89344 -4.61466 0
M  V30 3535 H 333.2 4.23373 -4.34558 0
M  V30 3536 H 331.939 3.66837 -3.21374 0
M  V30 3537 H 330.944 2.23866 -5.02159 0
M  V30 3538 H 332.169 2.8332 -6.17176 0
M  V30 3539 H 330.115 4.54948 -4.72608 0
M  V30 3540 H 330.032 4.05005 -6.38362 0
M  V30 3541 H 331.3 5.12443 -5.87386 0
M  V30 3542 N 335.529 1.53961 0.336706 0
M  V30 3543 C 336.94 1.62914 0.911925 0
M  V30 3544 C 337.291 0.514795 1.89326 0
M  V30 3545 O 336.416 -0.354395 2.13478 0
M  V30 3546 C 337.011 2.95304 1.66076 0
M  V30 3547 C 335.57 3.06496 2.18489 0
M  V30 3548 C 334.717 2.58403 1.00613 0
M  V30 3549 H 337.668 1.58285 0.114649 0
M  V30 3550 H 337.689 2.84727 2.5241 0
M  V30 3551 H 337.201 3.76387 0.946276 0
M  V30 3552 H 335.302 2.3006 2.93092 0
M  V30 3553 H 335.415 4.1208 2.44391 0
M  V30 3554 H 333.779 2.13977 1.38152 0
M  V30 3555 H 334.562 3.41932 0.306179 0
M  V30 3556 N 337.007 -0.598083 1.45811 0
M  V30 3557 C 337.939 -1.72231 1.51225 0
M  V30 3558 C 338.952 -1.57757 0.402059 0
M  V30 3559 O 340.141 -1.65464 0.669624 0
M  V30 3560 C 337.241 -3.10331 1.3619 0
M  V30 3561 C 336.414 -3.50955 2.61054 0
M  V30 3562 C 335.473 -4.68055 2.40439 0
M  V30 3563 O 334.499 -4.74691 3.14097 0
M  V30 3564 N 335.701 -5.61941 1.45612 0
M  V30 3565 H 338.466 -1.68046 2.48154 0
M  V30 3566 H 336.027 -0.783637 1.41671 0
M  V30 3567 H 338.019 -3.86439 1.20195 0
M  V30 3568 H 336.589 -3.0897 0.475015 0
M  V30 3569 H 335.809 -2.64711 2.92099 0
M  V30 3570 H 337.097 -3.74858 3.44034 0
M  V30 3571 H 336.495 -5.59301 0.848431 0
M  V30 3572 H 335.052 -6.37542 1.35585 0
M  V30 3573 N 338.485 -1.33259 -0.841409 0
M  V30 3574 C 339.896 -1.22066 -1.41269 0
M  V30 3575 C 340.247 0.161479 -1.95534 0
M  V30 3576 O 339.372 1.06094 -1.88608 0
M  V30 3577 C 339.967 -2.20996 -2.568 0
M  V30 3578 C 338.526 -2.13649 -3.09888 0
M  V30 3579 C 337.673 -2.08623 -1.82679 0
M  V30 3580 H 340.624 -1.44895 -0.647395 0
M  V30 3581 H 340.645 -1.81621 -3.34356 0
M  V30 3582 H 340.157 -3.2158 -2.17274 0
M  V30 3583 H 338.258 -1.16359 -3.53965 0
M  V30 3584 H 338.371 -3.04079 -3.70234 0
M  V30 3585 H 336.735 -1.54061 -2.02824 0
M  V30 3586 H 337.518 -3.1101 -1.45353 0
M  V30 3587 N 339.963 1.05934 -1.16686 0
M  V30 3588 C 341.209 1.79065 -0.95203 0
M  V30 3589 C 341.542 1.87147 0.518629 0
M  V30 3590 O 340.817 1.36574 1.38484 0
M  V30 3591 C 341.1 3.23359 -1.58464 0
M  V30 3592 C 340.953 3.23336 -3.12689 0
M  V30 3593 C 342.272 4.21004 -1.28232 0
M  V30 3594 H 339.391 0.65005 -0.34728 0
M  V30 3595 H 342.033 1.23868 -1.44072 0
M  V30 3596 H 340.183 3.70493 -1.16908 0
M  V30 3597 H 341.855 2.84336 -3.6325 0
M  V30 3598 H 340.098 2.61886 -3.4583 0
M  V30 3599 H 340.769 4.25144 -3.52075 0
M  V30 3600 H 343.245 3.8233 -1.64203 0
M  V30 3601 H 342.121 5.20225 -1.75092 0
M  V30 3602 H 342.382 4.41639 -0.201791 0
M  V30 3603 N 341.441 0.965919 1.2453 0
M  V30 3604 C 342.389 0.486506 2.27455 0
M  V30 3605 C 343.383 -0.449041 1.6334 0
M  V30 3606 O 344.589 -0.324527 1.7705 0
M  V30 3607 H 340.964 0.138857 0.739069 0
M  V30 3608 H 342.935 1.3666 2.65267 0
M  V30 3609 C 341.684 -0.209481 3.47068 0
M  V30 3610 H 341.007 0.50129 3.96645 0
M  V30 3611 H 342.447 -0.508775 4.20936 0
M  V30 3612 C 340.906 -1.43586 3.0477 0
M  V30 3613 O 341.436 -2.53299 3.11773 0
M  V30 3614 N 339.642 -1.30126 2.59838 0
M  V30 3615 H 339.189 -0.408583 2.54339 0
M  V30 3616 H 339.147 -2.12294 2.31902 0
M  V30 3617 N 342.919 -1.39368 0.735821 0
M  V30 3618 C 343.882 -2.2896 0.104874 0
M  V30 3619 C 344.882 -1.46347 -0.666274 0
M  V30 3620 O 346.072 -1.67014 -0.49517 0
M  V30 3621 C 343.204 -3.29857 -0.860656 0
M  V30 3622 H 344.397 -2.86259 0.894205 0
M  V30 3623 H 341.95 -1.48029 0.501704 0
M  V30 3624 H 342.685 -2.77615 -1.67631 0
M  V30 3625 H 342.47 -3.9087 -0.310327 0
M  V30 3626 H 343.96 -3.96893 -1.29867 0
M  V30 3627 N 344.397 -0.483516 -1.5 0
M  V30 3628 C 345.327 0.293829 -2.31644 0
M  V30 3629 C 346.308 0.978864 -1.39112 0
M  V30 3630 O 347.493 0.973644 -1.68029 0
M  V30 3631 C 344.623 1.36897 -3.19181 0
M  V30 3632 C 343.577 0.804833 -4.20365 0
M  V30 3633 C 342.903 1.9792 -4.96721 0
M  V30 3634 C 344.203 -0.192313 -5.21946 0
M  V30 3635 H 345.897 -0.387616 -2.9688 0
M  V30 3636 H 343.443 -0.187856 -1.42769 0
M  V30 3637 H 345.396 1.92037 -3.751 0
M  V30 3638 H 344.12 2.07936 -2.51853 0
M  V30 3639 H 342.779 0.275319 -3.65565 0
M  V30 3640 H 342.427 2.67686 -4.25856 0
M  V30 3641 H 342.127 1.60789 -5.65173 0
M  V30 3642 H 343.651 2.53526 -5.55479 0
M  V30 3643 H 345.065 0.270333 -5.72662 0
M  V30 3644 H 343.462 -0.478543 -5.98189 0
M  V30 3645 H 344.532 -1.11409 -4.71928 0
M  V30 3646 N 345.875 1.56104 -0.216619 0
M  V30 3647 C 346.805 2.23063 0.690296 0
M  V30 3648 C 347.786 1.20072 1.20485 0
M  V30 3649 O 348.971 1.48643 1.24976 0
M  V30 3650 C 346.101 2.90672 1.90072 0
M  V30 3651 C 345.055 4.00092 1.5202 0
M  V30 3652 C 344.381 4.54972 2.80899 0
M  V30 3653 C 345.681 5.17398 0.71391 0
M  V30 3654 H 347.375 2.99109 0.132038 0
M  V30 3655 H 344.921 1.43866 0.0620664 0
M  V30 3656 H 346.874 3.36204 2.54057 0
M  V30 3657 H 345.598 2.12066 2.48386 0
M  V30 3658 H 344.257 3.55283 0.903839 0
M  V30 3659 H 343.905 3.73102 3.37348 0
M  V30 3660 H 343.605 5.28817 2.56176 0
M  V30 3661 H 345.129 5.0322 3.45836 0
M  V30 3662 H 346.543 5.59342 1.25735 0
M  V30 3663 H 344.94 5.97444 0.563951 0
M  V30 3664 H 346.01 4.84088 -0.280527 0
M  V30 3665 N 347.353 -0.0568162 1.57498 0
M  V30 3666 C 348.3 -1.06591 2.04712 0
M  V30 3667 C 349.27 -1.3758 0.930644 0
M  V30 3668 O 350.455 -1.48392 1.19935 0
M  V30 3669 C 347.595 -2.3701 2.50839 0
M  V30 3670 C 346.708 -2.12421 3.76167 0
M  V30 3671 C 345.843 -3.36511 4.11015 0
M  V30 3672 C 344.882 -3.07353 5.2934 0
M  V30 3673 N 344.019 -4.23816 5.59754 0
M  V30 3674 H 348.859 -0.65631 2.90683 0
M  V30 3675 H 346.396 -0.312481 1.43743 0
M  V30 3676 H 348.354 -3.13175 2.7564 0
M  V30 3677 H 346.984 -2.75744 1.67825 0
M  V30 3678 H 346.036 -1.2688 3.58616 0
M  V30 3679 H 347.348 -1.86894 4.62463 0
M  V30 3680 H 346.502 -4.21062 4.36797 0
M  V30 3681 H 345.241 -3.65128 3.23315 0
M  V30 3682 H 344.246 -2.212 5.03339 0
M  V30 3683 H 345.471 -2.80043 6.1867 0
M  V30 3684 H 343.417 -4.52436 4.75014 0
M  V30 3685 H 343.334 -4.01614 6.40501 0
M  V30 3686 H 344.602 -5.0932 5.90096 0
M  V30 3687 N 348.832 -1.54138 -0.328536 0
M  V30 3688 C 349.742 -1.86192 -1.42723 0
M  V30 3689 C 350.758 -0.753382 -1.56844 0
M  V30 3690 O 351.934 -1.04718 -1.72035 0
M  V30 3691 C 348.999 -2.07824 -2.77507 0
M  V30 3692 C 348.06 -3.31641 -2.72603 0
M  V30 3693 C 347.293 -3.52232 -4.00959 0
M  V30 3694 O 347.516 -2.7636 -4.9898 0
M  V30 3695 O 346.45 -4.45699 -4.0452 0
M  V30 3696 H 350.276 -2.79608 -1.18547 0
M  V30 3697 H 347.861 -1.3998 -0.522104 0
M  V30 3698 H 349.743 -2.23411 -3.57303 0
M  V30 3699 H 348.418 -1.17596 -3.01584 0
M  V30 3700 H 347.325 -3.21444 -1.91376 0
M  V30 3701 H 348.658 -4.2191 -2.53481 0
M  V30 3702 N 350.31 0.590341 -1.46126 0
M  V30 3703 C 351.273 1.68194 -1.55703 0
M  V30 3704 C 352.273 1.54808 -0.434868 0
M  V30 3705 O 353.463 1.59564 -0.698928 0
M  V30 3706 C 350.595 3.07575 -1.47005 0
M  V30 3707 H 351.788 1.61064 -2.52979 0
M  V30 3708 H 349.341 0.807541 -1.33823 0
M  V30 3709 H 350.076 3.20268 -0.509785 0
M  V30 3710 H 349.861 3.187 -2.28414 0
M  V30 3711 H 351.351 3.87055 -1.56776 0
M  V30 3712 N 351.788 1.33704 0.83433 0
M  V30 3713 C 352.698 1.26382 1.97648 0
M  V30 3714 C 353.714 0.173548 1.73132 0
M  V30 3715 O 354.89 0.397962 1.97429 0
M  V30 3716 C 351.955 1.00769 3.31733 0
M  V30 3717 C 351.016 2.1884 3.69334 0
M  V30 3718 C 350.249 1.9444 4.9702 0
M  V30 3719 O 350.472 0.896961 5.63303 0
M  V30 3720 O 349.406 2.81093 5.32231 0
M  V30 3721 H 353.232 2.22444 2.06767 0
M  V30 3722 H 350.817 1.13795 0.968037 0
M  V30 3723 H 352.699 0.882186 4.12062 0
M  V30 3724 H 351.374 0.0773783 3.23608 0
M  V30 3725 H 350.281 2.36946 2.89495 0
M  V30 3726 H 351.614 3.10221 3.82131 0
M  V30 3727 N 353.266 -1.05314 1.17247 0
M  V30 3728 C 354.213 -2.13031 0.888058 0
M  V30 3729 C 355.183 -1.65253 -0.167537 0
M  V30 3730 O 356.368 -1.90775 -0.0305974 0
M  V30 3731 C 353.508 -3.42702 0.406147 0
M  V30 3732 C 352.621 -4.04161 1.52572 0
M  V30 3733 C 351.756 -5.21744 0.997808 0
M  V30 3734 C 350.795 -5.75207 2.09291 0
M  V30 3735 N 349.932 -6.84094 1.57986 0
M  V30 3736 H 354.772 -2.36698 1.81048 0
M  V30 3737 H 352.309 -1.16121 0.903013 0
M  V30 3738 H 354.267 -4.17059 0.108305 0
M  V30 3739 H 352.897 -3.19222 -0.479313 0
M  V30 3740 H 351.949 -3.27253 1.93931 0
M  V30 3741 H 353.261 -4.39881 2.35172 0
M  V30 3742 H 352.415 -6.03168 0.653739 0
M  V30 3743 H 351.154 -4.87495 0.141232 0
M  V30 3744 H 350.159 -4.92414 2.44557 0
M  V30 3745 H 351.384 -6.11505 2.95362 0
M  V30 3746 H 349.33 -6.51745 0.74598 0
M  V30 3747 H 349.247 -7.18811 2.34195 0
M  V30 3748 H 350.515 -7.69172 1.26468 0
M  V30 3749 N 354.744 -0.972509 -1.24016 0
M  V30 3750 C 356.16 -0.679827 -1.44397 0
M  V30 3751 C 356.36 0.756716 -1.86751 0
M  V30 3752 O 355.416 1.53007 -2.00861 0
M  V30 3753 C 356.729 -1.66803 -2.50195 0
M  V30 3754 C 358.277 -1.68119 -2.64017 0
M  V30 3755 C 358.752 -2.65748 -3.73017 0
M  V30 3756 N 360.243 -2.64219 -3.8045 0
M  V30 3757 C 360.978 -3.36433 -4.64328 0
M  V30 3758 N 360.474 -4.1818 -5.52356 0
M  V30 3759 N 362.267 -3.25235 -4.58453 0
M  V30 3760 H 354.418 -1.90059 -0.948228 0
M  V30 3761 H 356.681 -0.818527 -0.478245 0
M  V30 3762 H 356.387 -2.69498 -2.25973 0
M  V30 3763 H 356.261 -1.4446 -3.48441 0
M  V30 3764 H 358.648 -0.661319 -2.87594 0
M  V30 3765 H 358.729 -1.94525 -1.66113 0
M  V30 3766 H 358.373 -3.67872 -3.50189 0
M  V30 3767 H 358.303 -2.36619 -4.70446 0
M  V30 3768 H 360.794 -2.04887 -3.17537 0
M  V30 3769 H 361.107 -4.70157 -6.13329 0
M  V30 3770 H 359.452 -4.22273 -5.52006 0
M  V30 3771 H 362.643 -2.60829 -3.88698 0
M  V30 3772 H 362.816 -3.81776 -5.23594 0
M  V30 3773 N 356.222 1.38976 -0.743202 0
M  V30 3774 C 357.17 2.32394 -0.0978389 0
M  V30 3775 C 358.164 1.53486 0.716824 0
M  V30 3776 O 359.37 1.69092 0.617088 0
M  V30 3777 H 355.745 0.75189 -0.0128402 0
M  V30 3778 H 357.716 2.84441 -0.901981 0
M  V30 3779 C 356.465 3.38629 0.789036 0
M  V30 3780 H 355.788 3.99432 0.171559 0
M  V30 3781 H 357.228 4.06426 1.20807 0
M  V30 3782 C 355.687 2.76347 1.92702 0
M  V30 3783 O 356.217 2.64836 3.02034 0
M  V30 3784 N 354.423 2.34311 1.71891 0
M  V30 3785 H 353.97 2.43873 0.829675 0
M  V30 3786 H 353.928 1.9298 2.48205 0
M  V30 3787 N 357.7 0.491464 1.49741 0
M  V30 3788 C 358.63 -0.28154 2.31796 0
M  V30 3789 C 359.611 -0.971473 1.3963 0
M  V30 3790 O 360.796 -0.964719 1.68543 0
M  V30 3791 C 357.926 -1.35203 3.19902 0
M  V30 3792 C 356.88 -0.782529 4.20786 0
M  V30 3793 C 356.206 -1.95283 4.97764 0
M  V30 3794 C 357.506 0.21999 5.21837 0
M  V30 3795 H 359.2 0.403355 2.96671 0
M  V30 3796 H 356.746 0.195425 1.42668 0
M  V30 3797 H 358.699 -1.90045 3.76113 0
M  V30 3798 H 357.423 -2.06598 2.52953 0
M  V30 3799 H 356.082 -0.255928 3.65706 0
M  V30 3800 H 355.73 -2.65423 4.2727 0
M  V30 3801 H 355.43 -1.57789 5.66018 0
M  V30 3802 H 356.954 -2.50577 5.56816 0
M  V30 3803 H 358.368 -0.23996 5.72798 0
M  V30 3804 H 356.765 0.51026 5.97927 0
M  V30 3805 H 357.835 1.13911 4.7133 0
M  V30 3806 N 359.178 -1.55987 0.224894 0
M  V30 3807 C 360.403 -2.03232 -0.41369 0
M  V30 3808 C 360.828 -1.10359 -1.52323 0
M  V30 3809 O 360.186 -0.092395 -1.81064 0
M  V30 3810 C 360.234 -3.48682 -0.919405 0
M  V30 3811 O 359.338 -3.58947 -2.03054 0
M  V30 3812 H 358.679 -0.657428 -0.0931903 0
M  V30 3813 H 361.209 -2.01679 0.34451 0
M  V30 3814 H 361.219 -3.8907 -1.22835 0
M  V30 3815 H 359.894 -4.15761 -0.107339 0
M  V30 3816 H 358.471 -3.30448 -1.72796 0
M  V30 3817 N 360.656 0.0484629 -1.57525 0
M  V30 3818 C 361.586 1.0549 -2.08313 0
M  V30 3819 C 362.567 1.38929 -0.981463 0
M  V30 3820 O 363.752 1.48151 -1.25558 0
M  V30 3821 C 360.882 2.36162 -2.54646 0
M  V30 3822 C 359.836 2.17016 -3.68901 0
M  V30 3823 C 359.162 3.53278 -4.01371 0
M  V30 3824 C 360.462 1.57219 -4.98076 0
M  V30 3825 H 362.156 0.632195 -2.92649 0
M  V30 3826 H 359.702 0.302654 -1.40784 0
M  V30 3827 H 361.655 3.06882 -2.88793 0
M  V30 3828 H 360.379 2.80456 -1.67368 0
M  V30 3829 H 359.038 1.48733 -3.35073 0
M  V30 3830 H 358.686 3.95185 -3.11188 0
M  V30 3831 H 358.386 3.41299 -4.78318 0
M  V30 3832 H 359.91 4.25391 -4.38035 0
M  V30 3833 H 361.324 2.17832 -5.30304 0
M  V30 3834 H 359.721 1.55871 -5.79503 0
M  V30 3835 H 360.791 0.535956 -4.81929 0
M  V30 3836 N 362.134 1.5431 0.320358 0
M  V30 3837 C 363.064 1.86912 1.3995 0
M  V30 3838 C 364.045 0.726211 1.53819 0
M  V30 3839 O 365.23 0.980233 1.67646 0
M  V30 3840 C 362.36 2.09932 2.7667 0
M  V30 3841 C 361.314 3.25776 2.77586 0
M  V30 3842 C 360.64 3.34173 4.17412 0
M  V30 3843 C 361.94 4.6335 2.41048 0
M  V30 3844 H 363.634 2.77292 1.12914 0
M  V30 3845 H 361.18 1.33421 0.541738 0
M  V30 3846 H 363.133 2.31324 3.52232 0
M  V30 3847 H 361.857 1.16304 3.0519 0
M  V30 3848 H 360.516 3.04276 2.04479 0
M  V30 3849 H 360.164 2.38098 4.43078 0
M  V30 3850 H 359.864 4.12033 4.18931 0
M  V30 3851 H 361.388 3.57803 4.94782 0
M  V30 3852 H 362.802 4.84602 3.06324 0
M  V30 3853 H 361.199 5.43782 2.53813 0
M  V30 3854 H 362.269 4.65381 1.36193 0
M  V30 3855 N 363.613 -0.582584 1.46437 0
M  V30 3856 C 364.545 -1.70618 1.53043 0
M  V30 3857 C 365.558 -1.57322 0.418769 0
M  V30 3858 O 366.747 -1.64744 0.687136 0
M  V30 3859 C 363.847 -3.08869 1.39474 0
M  V30 3860 C 363.02 -3.48166 2.64762 0
M  V30 3861 C 362.079 -4.65478 2.4539 0
M  V30 3862 O 361.105 -4.71333 3.19114 0
M  V30 3863 N 362.307 -5.60365 1.51564 0
M  V30 3864 H 365.072 -1.65405 2.49923 0
M  V30 3865 H 362.633 -0.768567 1.42494 0
M  V30 3866 H 364.625 -3.85143 1.24287 0
M  V30 3867 H 363.195 -3.08449 0.507758 0
M  V30 3868 H 362.415 -2.61598 2.9489 0
M  V30 3869 H 363.703 -3.71188 3.4799 0
M  V30 3870 H 363.101 -5.5837 0.907705 0
M  V30 3871 H 361.658 -6.36068 1.4234 0
M  V30 3872 N 365.091 -1.34144 -0.827227 0
M  V30 3873 C 366.054 -1.25264 -1.91942 0
M  V30 3874 C 367.054 -0.168866 -1.59911 0
M  V30 3875 O 368.244 -0.421198 -1.69031 0
M  V30 3876 C 365.376 -0.932952 -3.27885 0
M  V30 3877 H 366.569 -2.22357 -2.0124 0
M  V30 3878 H 364.122 -1.1837 -1.0207 0
M  V30 3879 H 364.857 0.0349917 -3.24281 0
M  V30 3880 H 364.642 -1.71682 -3.52516 0
M  V30 3881 H 366.132 -0.895874 -4.07877 0
M  V30 3882 N 366.569 1.04691 -1.17803 0
M  V30 3883 C 367.985 1.29963 -0.926379 0
M  V30 3884 C 368.185 1.97251 0.411635 0
M  V30 3885 O 367.241 2.24922 1.14744 0
M  V30 3886 C 368.554 2.16447 -2.08737 0
M  V30 3887 C 370.102 2.29814 -2.12496 0
M  V30 3888 C 370.577 3.19661 -3.27995 0
M  V30 3889 N 372.068 3.27247 -3.27816 0
M  V30 3890 C 372.803 3.96906 -4.13827 0
M  V30 3891 N 372.299 4.6895 -5.09959 0
M  V30 3892 N 374.092 3.93122 -4.01761 0
M  V30 3893 H 366.243 0.594182 -2.0392 0
M  V30 3894 H 368.506 0.324649 -0.890678 0
M  V30 3895 H 368.212 1.74304 -3.05469 0
M  V30 3896 H 368.086 3.17103 -2.04268 0
M  V30 3897 H 370.473 2.71196 -1.16347 0
M  V30 3898 H 370.554 1.2877 -2.21025 0
M  V30 3899 H 370.198 2.78991 -4.24413 0
M  V30 3900 H 370.128 4.20722 -3.16703 0
M  V30 3901 H 372.619 2.75921 -2.58217 0
M  V30 3902 H 372.932 5.19679 -5.71974 0
M  V30 3903 H 371.277 4.67875 -5.13924 0
M  V30 3904 H 374.468 3.35967 -3.2595 0
M  V30 3905 H 374.641 4.47139 -4.6901 0
M  V30 3906 N 368.047 0.979072 1.23499 0
M  V30 3907 C 368.977 0.537606 2.27227 0
M  V30 3908 C 369.958 -0.428539 1.64613 0
M  V30 3909 O 371.143 -0.322191 1.91509 0
M  V30 3910 C 368.273 -0.162052 3.46922 0
M  V30 3911 C 367.227 0.721242 4.21879 0
M  V30 3912 C 366.553 -0.110555 5.34586 0
M  V30 3913 C 367.853 2.01141 4.82016 0
M  V30 3914 H 369.547 1.40462 2.64406 0
M  V30 3915 H 367.093 0.67684 1.27102 0
M  V30 3916 H 369.046 -0.482192 4.18632 0
M  V30 3917 H 367.77 -1.06351 3.08799 0
M  V30 3918 H 366.429 1.02482 3.51984 0
M  V30 3919 H 366.077 -1.0125 4.92704 0
M  V30 3920 H 365.777 0.477325 5.85658 0
M  V30 3921 H 367.301 -0.425107 6.09118 0
M  V30 3922 H 368.715 1.75612 5.45741 0
M  V30 3923 H 367.112 2.54695 5.43369 0
M  V30 3924 H 368.182 2.69909 4.02836 0
M  V30 3925 N 369.525 -1.3858 0.750561 0
M  V30 3926 C 370.75 -2.04997 0.314812 0
M  V30 3927 C 371.175 -1.56235 -1.04749 0
M  V30 3928 O 370.533 -0.712981 -1.66692 0
M  V30 3929 C 370.581 -3.58961 0.343415 0
M  V30 3930 O 369.685 -4.07025 -0.663628 0
M  V30 3931 H 369.026 -0.649081 0.139962 0
M  V30 3932 H 371.556 -1.77313 1.02084 0
M  V30 3933 H 371.566 -4.07542 0.193233 0
M  V30 3934 H 370.241 -3.93811 1.33738 0
M  V30 3935 H 368.818 -3.6982 -0.478307 0
M  V30 3936 N 371.003 -0.499398 -1.49478 0
M  V30 3937 C 371.935 0.316575 -2.27003 0
M  V30 3938 C 372.948 0.932047 -1.33479 0
M  V30 3939 O 374.137 0.815658 -1.58774 0
M  V30 3940 C 371.237 1.46055 -3.05812 0
M  V30 3941 C 370.41 0.952679 -4.26899 0
M  V30 3942 C 369.469 1.97407 -4.87767 0
M  V30 3943 O 368.495 1.54326 -5.4788 0
M  V30 3944 N 369.697 3.30436 -4.77276 0
M  V30 3945 H 372.462 -0.348168 -2.97671 0
M  V30 3946 H 370.023 -0.33185 -1.58463 0
M  V30 3947 H 372.015 2.14135 -3.43407 0
M  V30 3948 H 370.585 2.02948 -2.37762 0
M  V30 3949 H 369.805 0.0968248 -3.94081 0
M  V30 3950 H 371.093 0.59174 -5.05347 0
M  V30 3951 H 370.491 3.68126 -4.29534 0
M  V30 3952 H 369.048 3.94235 -5.19059 0
M  V30 3953 N 372.481 1.55866 -0.233164 0
M  V30 3954 C 373.758 1.90471 0.444988 0
M  V30 3955 C 374.138 1.15209 1.7689 0
M  V30 3956 O 373.486 0.265119 2.26957 0
M  V30 3957 C 373.696 3.4333 0.626559 0
M  V30 3958 C 375.044 4.14319 0.92871 0
M  V30 3959 O 376.068 3.48993 0.712926 0
M  V30 3960 O 374.927 5.29846 1.33887 0
M  V30 3961 H 372.021 0.792347 0.236885 0
M  V30 3962 H 374.567 1.67437 -0.276211 0
M  V30 3963 H 373.339 3.90095 -0.306822 0
M  V30 3964 H 372.962 3.72181 1.39881 0
M  V30 3965 N 373.959 -0.0401083 1.57549 0
M  V30 3966 C 374.889 -1.04384 2.08869 0
M  V30 3967 C 375.87 -1.38407 0.988817 0
M  V30 3968 O 377.055 -1.47483 1.26342 0
M  V30 3969 C 374.185 -2.34808 2.55895 0
M  V30 3970 C 373.139 -2.15057 3.70047 0
M  V30 3971 C 372.465 -3.51145 4.03239 0
M  V30 3972 C 373.765 -1.54576 4.98902 0
M  V30 3973 H 375.459 -0.616666 2.92981 0
M  V30 3974 H 373.005 -0.295184 1.40942 0
M  V30 3975 H 374.958 -3.05346 2.90417 0
M  V30 3976 H 373.682 -2.79565 1.68853 0
M  V30 3977 H 372.341 -1.46954 3.35857 0
M  V30 3978 H 371.989 -3.93529 3.13279 0
M  V30 3979 H 371.689 -3.38758 4.80122 0
M  V30 3980 H 373.213 -4.23062 4.40285 0
M  V30 3981 H 374.627 -2.15017 5.31451 0
M  V30 3982 H 373.024 -1.52796 5.80322 0
M  V30 3983 H 374.094 -0.51039 4.82206 0
M  V30 3984 N 375.437 -1.54477 -0.31217 0
M  V30 3985 C 376.4 -1.83923 -1.36766 0
M  V30 3986 C 377.4 -0.711563 -1.44199 0
M  V30 3987 O 378.59 -0.979866 -1.44029 0
M  V30 3988 C 375.722 -2.0095 -2.75376 0
M  V30 3989 H 376.915 -2.78239 -1.11906 0
M  V30 3990 H 374.468 -1.46369 -0.548257 0
M  V30 3991 H 375.203 -1.08883 -3.05475 0
M  V30 3992 H 374.988 -2.83018 -2.71373 0
M  V30 3993 H 376.478 -2.2514 -3.51713 0
M  V30 3994 N 376.915 0.57481 -1.46744 0
M  V30 3995 C 378.331 0.898981 -1.31873 0
M  V30 3996 C 378.531 1.99313 -0.29605 0
M  V30 3997 O 377.587 2.50728 0.298621 0
M  V30 3998 C 378.9 1.30886 -2.7072 0
M  V30 3999 C 380.448 1.42127 -2.78871 0
M  V30 4000 C 380.923 1.86478 -4.18318 0
M  V30 4001 N 382.414 1.93658 -4.20774 0
M  V30 4002 C 383.149 2.29267 -5.2557 0
M  V30 4003 N 382.645 2.63612 -6.40688 0
M  V30 4004 N 384.438 2.29889 -5.1294 0
M  V30 4005 H 376.589 -0.147839 -2.11885 0
M  V30 4006 H 378.852 -0.00347013 -0.947994 0
M  V30 4007 H 378.558 0.578853 -3.46904 0
M  V30 4008 H 378.432 2.26874 -3.01343 0
M  V30 4009 H 380.819 2.14213 -2.0297 0
M  V30 4010 H 380.9 0.443705 -2.51922 0
M  V30 4011 H 380.544 1.14968 -4.94717 0
M  V30 4012 H 380.474 2.85207 -4.42679 0
M  V30 4013 H 382.965 1.69574 -3.37718 0
M  V30 4014 H 383.278 2.89759 -7.16421 0
M  V30 4015 H 381.623 2.61232 -6.44036 0
M  V30 4016 H 384.814 2.02485 -4.22039 0
M  V30 4017 H 384.987 2.57312 -5.94722 0
M  V30 4018 N 378.394 1.34581 0.820102 0
M  V30 4019 C 379.304 1.28471 1.96297 0
M  V30 4020 C 380.32 0.191902 1.72939 0
M  V30 4021 O 381.496 0.418879 1.96996 0
M  V30 4022 C 378.561 1.04281 3.30645 0
M  V30 4023 C 377.622 2.22745 3.66992 0
M  V30 4024 C 376.855 1.997 4.9493 0
M  V30 4025 O 377.078 0.956656 5.6232 0
M  V30 4026 O 376.012 2.86723 5.2922 0
M  V30 4027 H 379.838 2.24624 2.04396 0
M  V30 4028 H 377.423 1.14816 0.955913 0
M  V30 4029 H 379.305 0.925841 4.11104 0
M  V30 4030 H 377.98 0.111697 3.23507 0
M  V30 4031 H 376.887 2.40003 2.86966 0
M  V30 4032 H 378.22 3.14257 3.78819 0
M  V30 4033 N 379.872 -1.04064 1.18357 0
M  V30 4034 C 380.804 -2.12114 0.868358 0
M  V30 4035 C 381.817 -1.62247 -0.134045 0
M  V30 4036 O 383.006 -1.78253 0.0937933 0
M  V30 4037 C 380.106 -3.37773 0.276132 0
M  V30 4038 C 379.279 -4.16874 1.3242 0
M  V30 4039 C 378.338 -5.20861 0.747662 0
M  V30 4040 O 377.364 -5.51141 1.42239 0
M  V30 4041 N 378.566 -5.78715 -0.454823 0
M  V30 4042 H 381.331 -2.39748 1.79836 0
M  V30 4043 H 378.892 -1.20258 1.08396 0
M  V30 4044 H 380.884 -4.04513 -0.123133 0
M  V30 4045 H 379.454 -3.07581 -0.557895 0
M  V30 4046 H 378.674 -3.45456 1.89878 0
M  V30 4047 H 379.962 -4.66516 2.03078 0
M  V30 4048 H 379.36 -5.56415 -1.02073 0
M  V30 4049 H 377.917 -6.46921 -0.79601 0
M  V30 4050 N 381.35 -0.985608 -1.22978 0
M  V30 4051 C 382.599 -0.652881 -1.90841 0
M  V30 4052 C 382.912 0.817842 -1.77681 0
M  V30 4053 O 384.118 1.26185 -2.40395 0
M  V30 4054 C 382.574 -1.11717 -3.42122 0
M  V30 4055 C 382.182 -2.6126 -3.63933 0
M  V30 4056 C 383.926 -0.85843 -4.1573 0
M  V30 4057 C 381.833 -3.0133 -5.08876 0
M  V30 4058 H 380.763 -0.240491 -0.714619 0
M  V30 4059 H 383.414 -1.1942 -1.39324 0
M  V30 4060 H 381.796 -0.504027 -3.92779 0
M  V30 4061 H 382.97 -3.27858 -3.23799 0
M  V30 4062 H 381.285 -2.84937 -3.03644 0
M  V30 4063 H 383.882 -1.13359 -5.22546 0
M  V30 4064 H 384.225 0.205461 -4.15793 0
M  V30 4065 H 384.758 -1.43341 -3.71077 0
M  V30 4066 H 381.497 -4.06864 -5.13947 0
M  V30 4067 H 381.017 -2.3943 -5.49939 0
M  V30 4068 H 382.696 -2.92224 -5.77247 0
M  V30 4069 N 382.828 1.3818 -0.7579 0
M  V30 4070 C 384.244 1.5353 -0.435972 0
M  V30 4071 C 384.444 1.71961 1.05032 0
M  V30 4072 O 383.5 1.73307 1.83633 0
M  V30 4073 C 384.813 2.73989 -1.23898 0
M  V30 4074 C 386.361 2.87841 -1.22949 0
M  V30 4075 C 386.836 4.11266 -2.01554 0
M  V30 4076 N 388.327 4.18352 -1.98837 0
M  V30 4077 C 389.062 5.12856 -2.5645 0
M  V30 4078 N 388.558 6.13005 -3.22794 0
M  V30 4079 N 390.351 5.05238 -2.46356 0
M  V30 4080 H 382.502 1.24467 -1.7211 0
M  V30 4081 H 384.765 0.604982 -0.729864 0
M  V30 4082 H 384.471 2.66789 -2.29165 0
M  V30 4083 H 384.345 3.67294 -0.858764 0
M  V30 4084 H 386.732 2.9452 -0.184854 0
M  V30 4085 H 386.813 1.95534 -1.64924 0
M  V30 4086 H 386.457 4.05349 -3.06031 0
M  V30 4087 H 386.387 5.02661 -1.5697 0
M  V30 4088 H 388.878 3.46628 -1.50524 0
M  V30 4089 H 389.191 6.81619 -3.64165 0
M  V30 4090 H 387.536 6.13325 -3.2689 0
M  V30 4091 H 390.727 4.25938 -1.9415 0
M  V30 4092 H 390.9 5.78707 -2.91552 0
M  V30 4093 N 384.306 0.507319 1.49211 0
M  V30 4094 C 385.238 -0.304532 2.27168 0
M  V30 4095 C 386.251 -0.924956 1.33972 0
M  V30 4096 O 387.44 -0.807227 1.59205 0
M  V30 4097 C 384.54 -1.44431 3.06583 0
M  V30 4098 C 383.713 -0.930026 4.27398 0
M  V30 4099 C 382.772 -1.94817 4.88807 0
M  V30 4100 O 381.798 -1.51418 5.4869 0
M  V30 4101 N 383 -3.279 4.79022 0
M  V30 4102 H 385.765 0.36395 2.97482 0
M  V30 4103 H 383.326 0.340249 1.58284 0
M  V30 4104 H 385.318 -2.12311 3.44537 0
M  V30 4105 H 383.888 -2.01684 2.38835 0
M  V30 4106 H 383.108 -0.0759244 3.94127 0
M  V30 4107 H 384.396 -0.564932 5.05654 0
M  V30 4108 H 383.794 -3.65843 4.3148 0
M  V30 4109 H 382.351 -3.91476 5.21142 0
M  V30 4110 N 385.784 -1.5574 0.241426 0
M  V30 4111 C 386.747 -2.19877 -0.647063 0
M  V30 4112 C 387.747 -1.16642 -1.10686 0
M  V30 4113 O 388.937 -1.41757 -1.01245 0
M  V30 4114 C 386.069 -2.83797 -1.88871 0
M  V30 4115 H 387.262 -2.99772 -0.087574 0
M  V30 4116 H 384.815 -1.56298 -0.00813574 0
M  V30 4117 H 385.55 -2.07824 -2.48957 0
M  V30 4118 H 385.335 -3.59414 -1.56728 0
M  V30 4119 H 386.825 -3.32898 -2.52129 0
M  V30 4120 N 387.262 0.0317525 -1.57568 0
M  V30 4121 C 388.194 1.06073 -2.03178 0
M  V30 4122 C 389.207 1.32627 -0.944132 0
M  V30 4123 O 390.396 1.30162 -1.22148 0
M  V30 4124 C 387.496 2.40297 -2.38978 0
M  V30 4125 C 386.669 2.33137 -3.70089 0
M  V30 4126 C 385.728 3.49787 -3.9311 0
M  V30 4127 O 384.754 3.29403 -4.64201 0
M  V30 4128 N 385.956 4.71562 -3.38541 0
M  V30 4129 H 388.721 0.672006 -2.92069 0
M  V30 4130 H 386.282 0.219745 -1.60402 0
M  V30 4131 H 388.274 3.1705 -2.51518 0
M  V30 4132 H 386.844 2.71024 -1.55771 0
M  V30 4133 H 386.064 1.415 -3.67928 0
M  V30 4134 H 387.352 2.25493 -4.56104 0
M  V30 4135 H 386.75 4.91024 -2.80912 0
M  V30 4136 H 385.307 5.45689 -3.56464 0
M  V30 4137 N 388.74 1.54641 0.303973 0
M  V30 4138 C 390.017 1.64455 1.05896 0
M  V30 4139 C 390.397 0.490923 2.05312 0
M  V30 4140 O 389.745 -0.512685 2.22674 0
M  V30 4141 C 389.955 3.02331 1.74347 0
M  V30 4142 C 391.303 3.59045 2.26653 0
M  V30 4143 O 392.327 3.04764 1.84384 0
M  V30 4144 O 391.186 4.54081 3.04093 0
M  V30 4145 H 388.28 0.666729 0.489287 0
M  V30 4146 H 390.826 1.66986 0.302298 0
M  V30 4147 H 389.598 3.77734 1.02142 0
M  V30 4148 H 389.221 3.03565 2.56777 0
M  V30 4149 N 390.218 -0.567019 1.47046 0
M  V30 4150 C 391.466 -1.322 1.52864 0
M  V30 4151 C 391.787 -1.94088 0.188388 0
M  V30 4152 O 391.057 -1.7941 -0.786693 0
M  V30 4153 H 389.637 -0.490894 0.563056 0
M  V30 4154 H 392.299 -0.662879 1.83281 0
M  V30 4155 H 391.395 -2.12062 2.2899 0
M  V30 4156 N 391.696 -1.35014 -0.812953 0
M  V30 4157 C 392.646 -1.23959 -1.91359 0
M  V30 4158 C 393.63 -0.136306 -1.60322 0
M  V30 4159 O 394.822 -0.366925 -1.73155 0
M  V30 4160 C 391.951 -1.00736 -3.28188 0
M  V30 4161 C 391.037 -2.15426 -3.65311 0
M  V30 4162 N 391.428 -3.40612 -3.73921 0
M  V30 4163 C 389.726 -2.06672 -3.95225 0
M  V30 4164 C 390.427 -4.15994 -4.06601 0
M  V30 4165 N 389.403 -3.44685 -4.20349 0
M  V30 4166 H 393.205 -2.18815 -1.96208 0
M  V30 4167 H 390.719 -1.27395 -1.00718 0
M  V30 4168 H 392.716 -0.909052 -4.06868 0
M  V30 4169 H 391.376 -0.067586 -3.2463 0
M  V30 4170 H 392.387 -3.75043 -3.5716 0
M  V30 4171 H 389.064 -1.20511 -3.99729 0
M  V30 4172 H 390.454 -5.24145 -4.20382 0
M  V30 4173 N 393.175 1.03435 -1.18907 0
M  V30 4174 C 394.105 2.13503 -0.945448 0
M  V30 4175 C 395.086 1.69682 0.119189 0
M  V30 4176 O 396.271 1.94169 -0.034707 0
M  V30 4177 C 393.401 3.44004 -0.477316 0
M  V30 4178 C 392.355 4.0148 -1.48316 0
M  V30 4179 C 391.681 5.27537 -0.872311 0
M  V30 4180 C 392.981 4.36921 -2.86177 0
M  V30 4181 H 394.675 2.34141 -1.86597 0
M  V30 4182 H 392.221 1.12523 -0.898584 0
M  V30 4183 H 394.174 4.20372 -0.294204 0
M  V30 4184 H 392.898 3.23072 0.478786 0
M  V30 4185 H 391.557 3.27201 -1.65332 0
M  V30 4186 H 391.205 5.02917 0.0911752 0
M  V30 4187 H 390.905 5.66954 -1.54393 0
M  V30 4188 H 392.429 6.06576 -0.699871 0
M  V30 4189 H 393.843 5.04248 -2.72776 0
M  V30 4190 H 392.24 4.87405 -3.50081 0
M  V30 4191 H 393.31 3.46466 -3.39248 0
M  V30 4192 N 394.653 0.992116 1.22453 0
M  V30 4193 C 396.064 0.702776 1.72968 0
M  V30 4194 C 396.415 -0.780399 1.80012 0
M  V30 4195 O 395.54 -1.61007 1.44589 0
M  V30 4196 C 396.135 1.26903 3.14135 0
M  V30 4197 C 394.694 1.02909 3.62059 0
M  V30 4198 C 393.841 1.38969 2.39964 0
M  V30 4199 H 396.792 1.16457 1.07812 0
M  V30 4200 H 396.813 0.647223 3.74955 0
M  V30 4201 H 396.325 2.34851 3.08977 0
M  V30 4202 H 394.426 -0.0337979 3.72585 0
M  V30 4203 H 394.539 1.69191 4.48231 0
M  V30 4204 H 392.903 0.808279 2.41535 0
M  V30 4205 H 393.686 2.4792 2.37467 0
M  V30 4206 N 396.131 -1.37776 0.765217 0
M  V30 4207 C 397.359 -2.04124 0.337767 0
M  V30 4208 C 397.774 -1.57715 -1.03785 0
M  V30 4209 O 397.131 -0.755447 -1.6613 0
M  V30 4210 C 397.182 -3.59658 0.364442 0
M  V30 4211 O 396.903 -4.04367 1.68579 0
M  V30 4212 C 398.404 -4.43236 -0.0754221 0
M  V30 4213 H 395.624 -0.655696 0.142491 0
M  V30 4214 H 398.168 -1.76238 1.03732 0
M  V30 4215 H 396.323 -3.86339 -0.286471 0
M  V30 4216 H 396.737 -4.98857 1.61993 0
M  V30 4217 H 398.211 -5.52 -0.00560067 0
M  V30 4218 H 398.688 -4.2455 -1.12491 0
M  V30 4219 H 399.294 -4.21767 0.547055 0
M  V30 4220 N 397.609 -0.515225 -1.4894 0
M  V30 4221 C 398.539 0.244628 -2.32215 0
M  V30 4222 C 399.52 0.949136 -1.41157 0
M  V30 4223 O 400.705 0.937783 -1.70057 0
M  V30 4224 C 397.835 1.30096 -3.22013 0
M  V30 4225 C 396.789 0.715486 -4.21977 0
M  V30 4226 C 396.115 1.87339 -5.00808 0
M  V30 4227 C 397.415 -0.302982 -5.2142 0
M  V30 4228 H 399.109 -0.450501 -2.95991 0
M  V30 4229 H 396.655 -0.218098 -1.42339 0
M  V30 4230 H 398.608 1.84037 -3.79089 0
M  V30 4231 H 397.332 2.02547 -2.56207 0
M  V30 4232 H 395.991 0.197715 -3.66066 0
M  V30 4233 H 395.639 2.58592 -4.31438 0
M  V30 4234 H 395.339 1.48764 -5.68457 0
M  V30 4235 H 396.863 2.41686 -5.60732 0
M  V30 4236 H 398.277 0.148802 -5.73107 0
M  V30 4237 H 396.674 -0.60532 -5.97039 0
M  V30 4238 H 397.744 -1.21395 -4.69459 0
M  V30 4239 N 399.087 1.5561 -0.249682 0
M  V30 4240 C 400.364 1.90932 0.424761 0
M  V30 4241 C 400.744 1.17078 1.75658 0
M  V30 4242 O 400.092 0.289176 2.26663 0
M  V30 4243 C 400.302 3.43975 0.590109 0
M  V30 4244 C 401.65 4.15281 0.884714 0
M  V30 4245 O 402.674 3.49729 0.67587 0
M  V30 4246 O 401.533 5.31236 1.28259 0
M  V30 4247 H 398.627 0.794815 0.228468 0
M  V30 4248 H 401.173 1.67135 -0.293954 0
M  V30 4249 H 399.945 3.89748 -0.34818 0
M  V30 4250 H 399.568 3.73644 1.35926 0
M  V30 4251 N 400.565 -0.0233959 1.57583 0
M  V30 4252 C 401.495 -1.02162 2.09965 0
M  V30 4253 C 402.476 -1.3735 1.00344 0
M  V30 4254 O 403.661 -1.46135 1.27899 0
M  V30 4255 C 400.791 -2.32081 2.58371 0
M  V30 4256 C 399.745 -2.1112 3.72307 0
M  V30 4257 C 399.071 -3.46848 4.06941 0
M  V30 4258 C 400.371 -1.49276 5.00514 0
M  V30 4259 H 402.065 -0.585557 2.93618 0
M  V30 4260 H 399.611 -0.280218 1.41247 0
M  V30 4261 H 401.564 -3.02249 2.93639 0
M  V30 4262 H 400.288 -2.77758 1.71808 0
M  V30 4263 H 398.947 -1.43384 3.37397 0
M  V30 4264 H 398.595 -3.90184 3.17436 0
M  V30 4265 H 398.295 -3.33646 4.83688 0
M  V30 4266 H 399.819 -4.18369 4.44747 0
M  V30 4267 H 401.233 -2.09368 5.33702 0
M  V30 4268 H 399.63 -1.46632 5.8191 0
M  V30 4269 H 400.7 -0.459217 4.82721 0
M  V30 4270 N 402.043 -1.548 -0.295768 0
M  V30 4271 C 403.271 -1.78327 -1.04914 0
M  V30 4272 C 403.686 -0.545316 -1.80753 0
M  V30 4273 O 403.043 0.485013 -1.75937 0
M  V30 4274 C 403.094 -2.99418 -2.02561 0
M  V30 4275 O 402.815 -4.18431 -1.29798 0
M  V30 4276 C 404.316 -3.35375 -2.89895 0
M  V30 4277 H 401.536 -0.594618 -0.310918 0
M  V30 4278 H 404.08 -2.01763 -0.333454 0
M  V30 4279 H 402.235 -2.78175 -2.69624 0
M  V30 4280 H 402.649 -4.86736 -1.95419 0
M  V30 4281 H 404.123 -4.23332 -3.54251 0
M  V30 4282 H 404.6 -2.53761 -3.58472 0
M  V30 4283 H 405.206 -3.58796 -2.28355 0
M  V30 4284 N 403.521 0.559213 -1.47345 0
M  V30 4285 C 404.484 1.64854 -1.59235 0
M  V30 4286 C 405.484 1.53851 -0.467607 0
M  V30 4287 O 406.674 1.58045 -0.732617 0
M  V30 4288 C 403.806 3.04388 -1.53496 0
M  V30 4289 H 404.999 1.55662 -2.56339 0
M  V30 4290 H 402.552 0.778973 -1.35505 0
M  V30 4291 H 403.287 3.19115 -0.577604 0
M  V30 4292 H 403.072 3.13783 -2.35123 0
M  V30 4293 H 404.562 3.83642 -1.6495 0
M  V30 4294 N 404.999 1.35443 0.805782 0
M  V30 4295 C 406.224 1.32037 1.59941 0
M  V30 4296 C 406.649 -0.0994215 1.87837 0
M  V30 4297 O 406.007 -1.06648 1.46615 0
M  V30 4298 C 406.055 2.13354 2.90711 0
M  V30 4299 O 405.159 1.5148 3.83572 0
M  V30 4300 H 404.5 0.452666 0.485787 0
M  V30 4301 H 407.03 1.78496 1.00002 0
M  V30 4302 H 407.04 2.25338 3.40128 0
M  V30 4303 H 405.715 3.16572 2.69732 0
M  V30 4304 H 404.292 1.4834 3.42125 0
M  V30 4305 N 406.477 -1.02803 1.19454 0
M  V30 4306 C 407.705 -1.79841 1.02297 0
M  V30 4307 C 408.12 -1.83879 -0.428259 0
M  V30 4308 O 407.477 -1.28345 -1.29745 0
M  V30 4309 C 407.528 -3.24852 1.58598 0
M  V30 4310 O 407.249 -3.21097 2.98041 0
M  V30 4311 C 408.75 -4.18485 1.46236 0
M  V30 4312 H 405.97 -0.565936 0.360496 0
M  V30 4313 H 408.514 -1.2948 1.58288 0
M  V30 4314 H 406.669 -3.72401 1.06753 0
M  V30 4315 H 407.083 -4.12033 3.24545 0
M  V30 4316 H 408.557 -5.18121 1.90407 0
M  V30 4317 H 409.034 -4.37254 0.41301 0
M  V30 4318 H 409.64 -3.76811 1.97215 0
M  V30 4319 N 407.956 -0.998596 -1.21925 0
M  V30 4320 C 409.204 -0.676325 -1.90448 0
M  V30 4321 C 409.525 0.794719 -1.78071 0
M  V30 4322 O 408.795 1.5701 -1.17152 0
M  V30 4323 H 407.375 -0.247165 -0.704925 0
M  V30 4324 H 410.037 -1.26633 -1.48156 0
M  V30 4325 H 409.133 -0.943858 -2.97486 0
M  V30 4326 N 409.434 1.37368 -0.772513 0
M  V30 4327 C 410.683 1.98918 -0.333861 0
M  V30 4328 C 410.996 1.62017 1.09589 0
M  V30 4329 O 412.202 2.16676 1.63596 0
M  V30 4330 C 410.658 3.55735 -0.545971 0
M  V30 4331 C 410.266 4.01573 -1.98603 0
M  V30 4332 C 412.01 4.24156 -0.170979 0
M  V30 4333 C 409.917 5.51102 -2.1457 0
M  V30 4334 H 408.847 0.744214 -0.121085 0
M  V30 4335 H 411.498 1.56888 -0.95175 0
M  V30 4336 H 409.88 3.95748 0.141387 0
M  V30 4337 H 411.054 3.72803 -2.7084 0
M  V30 4338 H 409.369 3.45937 -2.31769 0
M  V30 4339 H 411.966 5.34024 -0.26878 0
M  V30 4340 H 412.309 4.06917 0.878855 0
M  V30 4341 H 412.842 3.89447 -0.810914 0
M  V30 4342 H 409.581 5.73268 -3.17875 0
M  V30 4343 H 409.101 5.81554 -1.46817 0
M  V30 4344 H 410.78 6.17083 -1.94468 0
M  V30 4345 N 410.912 0.523116 1.48665 0
M  V30 4346 C 412.137 -0.0117284 2.07397 0
M  V30 4347 C 412.562 -1.28031 1.37803 0
M  V30 4348 O 411.92 -1.75836 0.441762 0
M  V30 4349 C 411.968 -0.225786 3.59892 0
M  V30 4350 O 411.072 -1.29592 3.91509 0
M  V30 4351 H 410.413 0.0360673 0.66302 0
M  V30 4352 H 412.943 0.729066 1.9117 0
M  V30 4353 H 412.953 -0.450552 4.05505 0
M  V30 4354 H 411.628 0.700944 4.09951 0
M  V30 4355 H 410.205 -1.05436 3.57684 0
M  V30 4356 N 412.39 -1.55475 0.257931 0
M  V30 4357 C 413.667 -1.91155 -0.414629 0
M  V30 4358 C 414.047 -1.18008 -1.75035 0
M  V30 4359 O 413.395 -0.301193 -2.26506 0
M  V30 4360 C 413.605 -3.44283 -0.571859 0
M  V30 4361 C 414.953 -4.15744 -0.862678 0
M  V30 4362 O 415.977 -3.50083 -0.657314 0
M  V30 4363 O 414.836 -5.31909 -1.2544 0
M  V30 4364 H 411.93 -0.796016 -0.22425 0
M  V30 4365 H 414.476 -1.66976 0.302814 0
M  V30 4366 H 413.248 -3.89558 0.368844 0
M  V30 4367 H 412.871 -3.7436 -1.33943 0
M  V30 4368 N 413.868 0.0150385 -1.57593 0
M  V30 4369 C 415.096 0.714395 -1.94175 0
M  V30 4370 C 415.511 1.68135 -0.858841 0
M  V30 4371 O 414.868 1.81766 0.163567 0
M  V30 4372 C 414.919 1.45933 -3.30735 0
M  V30 4373 O 414.64 0.531167 -4.34868 0
M  V30 4374 C 416.141 2.25456 -3.81686 0
M  V30 4375 H 413.361 0.199923 -0.640525 0
M  V30 4376 H 415.905 -0.0316096 -2.04476 0
M  V30 4377 H 414.06 2.15709 -3.21789 0
M  V30 4378 H 414.474 1.05509 -5.13778 0
M  V30 4379 H 415.948 2.731 -4.79709 0
M  V30 4380 H 416.425 3.07485 -3.13607 0
M  V30 4381 H 417.031 1.60727 -3.9376 0
M  V30 4382 N 415.346 1.54954 0.287554 0
M  V30 4383 C 416.571 1.79209 1.04397 0
M  V30 4384 C 416.996 0.556431 1.79682 0
M  V30 4385 O 416.354 -0.493518 1.74454 0
M  V30 4386 C 416.402 3.00739 1.98969 0
M  V30 4387 O 415.506 2.74805 3.075 0
M  V30 4388 H 414.847 0.592755 0.299227 0
M  V30 4389 H 417.377 2.02068 0.320886 0
M  V30 4390 H 417.387 3.29077 2.4119 0
M  V30 4391 H 416.062 3.90329 1.43582 0
M  V30 4392 H 414.639 2.57523 2.69697 0
M  V30 4393 N 416.824 -0.551391 1.4764 0
M  V30 4394 C 418.054 -1.33163 1.57959 0
M  V30 4395 C 418.462 -1.87785 0.23094 0
M  V30 4396 O 417.805 -1.65996 -0.786825 0
M  V30 4397 C 417.867 -2.53449 2.54958 0
M  V30 4398 C 417.531 -2.20071 4.00522 0
M  V30 4399 C 418.528 -1.77017 4.88836 0
M  V30 4400 C 416.213 -2.31252 4.45901 0
M  V30 4401 C 418.207 -1.4558 6.20552 0
M  V30 4402 C 415.894 -1.99427 5.77644 0
M  V30 4403 C 416.892 -1.56659 6.64791 0
M  V30 4404 O 416.58 -1.25242 7.94084 0
M  V30 4405 H 416.312 -0.412022 0.535923 0
M  V30 4406 H 418.866 -0.674186 1.9402 0
M  V30 4407 H 417.096 -3.22104 2.13976 0
M  V30 4408 H 418.785 -3.15523 2.55343 0
M  V30 4409 H 419.551 -1.67867 4.55023 0
M  V30 4410 H 415.43 -2.63498 3.78272 0
M  V30 4411 H 418.974 -1.12125 6.8853 0
M  V30 4412 H 414.871 -2.08211 6.10998 0
M  V30 4413 H 415.639 -1.38822 8.06642 0
M  V30 4414 N 418.302 -1.35869 -0.798587 0
M  V30 4415 C 419.527 -1.32883 -1.59238 0
M  V30 4416 C 419.952 0.0894587 -1.87887 0
M  V30 4417 O 419.31 1.05869 -1.47178 0
M  V30 4418 C 419.358 -2.14892 -2.89575 0
M  V30 4419 O 418.462 -1.53512 -3.82763 0
M  V30 4420 H 417.803 -0.455236 -0.48338 0
M  V30 4421 H 420.333 -1.79024 -0.990539 0
M  V30 4422 H 420.343 -2.27139 -3.38928 0
M  V30 4423 H 419.018 -3.17998 -2.68049 0
M  V30 4424 H 417.595 -1.50153 -3.41334 0
M  V30 4425 N 419.78 1.02168 -1.19998 0
M  V30 4426 C 421.028 1.75338 -1.00504 0
M  V30 4427 C 421.349 1.89387 0.464506 0
M  V30 4428 O 420.619 1.43268 1.33608 0
M  V30 4429 H 419.199 0.649564 -0.368885 0
M  V30 4430 H 421.861 1.23205 -1.51018 0
M  V30 4431 H 420.957 2.75892 -1.45912 0
M  V30 4432 N 421.258 1.00505 1.21394 0
M  V30 4433 C 422.483 0.706367 1.95001 0
M  V30 4434 C 422.908 -0.72463 1.73582 0
M  V30 4435 O 422.266 -1.49702 1.0227 0
M  V30 4436 C 422.314 1.03299 3.45487 0
M  V30 4437 O 421.418 0.138275 4.12168 0
M  V30 4438 H 420.759 0.263175 0.609619 0
M  V30 4439 H 423.289 1.34531 1.54151 0
M  V30 4440 H 423.299 0.979872 3.96059 0
M  V30 4441 H 421.974 2.07567 3.60401 0
M  V30 4442 H 420.551 0.247928 3.72075 0
M  V30 4443 N 422.737 -1.36956 0.779787 0
M  V30 4444 C 423.684 -2.30175 0.169697 0
M  V30 4445 C 424.654 -1.51501 -0.68094 0
M  V30 4446 O 425.839 -1.80042 -0.631629 0
M  V30 4447 C 422.979 -3.37985 -0.697131 0
M  V30 4448 C 422.092 -4.31661 0.170992 0
M  V30 4449 C 421.227 -5.2655 -0.701298 0
M  V30 4450 C 420.266 -6.11867 0.168869 0
M  V30 4451 N 419.403 -6.98973 -0.661855 0
M  V30 4452 H 424.243 -2.81767 0.970135 0
M  V30 4453 H 421.78 -1.38699 0.489994 0
M  V30 4454 H 423.738 -3.99128 -1.2146 0
M  V30 4455 H 422.368 -2.87739 -1.46309 0
M  V30 4456 H 421.42 -3.71756 0.80634 0
M  V30 4457 H 422.732 -4.91644 0.841875 0
M  V30 4458 H 421.886 -5.92937 -1.28494 0
M  V30 4459 H 420.625 -4.66998 -1.40584 0
M  V30 4460 H 419.63 -5.44452 0.764986 0
M  V30 4461 H 420.855 -6.73493 0.870863 0
M  V30 4462 H 418.801 -6.41941 -1.35086 0
M  V30 4463 H 418.718 -7.55984 -0.0484447 0
M  V30 4464 H 419.986 -7.6974 -1.22963 0
M  V30 4465 N 424.215 -0.530993 -1.48385 0
M  V30 4466 C 425.443 -0.00134122 -2.069 0
M  V30 4467 C 425.858 1.2805 -1.3874 0
M  V30 4468 O 425.215 1.76204 -0.475244 0
M  V30 4469 C 425.266 0.225256 -3.60798 0
M  V30 4470 O 424.987 -1.0058 -4.26398 0
M  V30 4471 C 426.488 0.795172 -4.3611 0
M  V30 4472 H 423.708 -0.0339704 -0.67014 0
M  V30 4473 H 426.252 -0.736926 -1.90761 0
M  V30 4474 H 424.407 0.910891 -3.76539 0
M  V30 4475 H 424.821 -0.787165 -5.1856 0
M  V30 4476 H 426.295 0.903143 -5.44562 0
M  V30 4477 H 426.772 1.80031 -4.00606 0
M  V30 4478 H 427.378 0.146069 -4.25049 0
M  V30 4479 N 425.693 1.55336 -0.266172 0
M  V30 4480 C 427.109 1.59356 0.0882065 0
M  V30 4481 C 427.309 1.2834 1.55342 0
M  V30 4482 O 426.365 1.03996 2.30089 0
M  V30 4483 C 427.678 2.99409 -0.278364 0
M  V30 4484 C 429.226 3.12196 -0.224243 0
M  V30 4485 C 429.701 4.545 -0.565123 0
M  V30 4486 N 431.192 4.60313 -0.51634 0
M  V30 4487 C 431.927 5.68434 -0.753013 0
M  V30 4488 N 431.423 6.84738 -1.05383 0
M  V30 4489 N 433.216 5.57942 -0.682414 0
M  V30 4490 H 425.367 1.73764 -1.22147 0
M  V30 4491 H 427.63 0.809822 -0.492841 0
M  V30 4492 H 427.336 3.2691 -1.29703 0
M  V30 4493 H 427.21 3.75228 0.385186 0
M  V30 4494 H 429.597 2.84464 0.78512 0
M  V30 4495 H 429.678 2.38609 -0.921922 0
M  V30 4496 H 429.322 4.82956 -1.57213 0
M  V30 4497 H 429.252 5.26374 0.154248 0
M  V30 4498 H 431.743 3.7676 -0.29335 0
M  V30 4499 H 432.056 7.63088 -1.22133 0
M  V30 4500 H 430.401 6.86375 -1.09151 0
M  V30 4501 H 433.592 4.65958 -0.44731 0
M  V30 4502 H 433.765 6.4213 -0.870248 0
M  V30 4503 N 427.171 -0.0066808 1.57599 0
M  V30 4504 C 428.419 -0.691552 1.899 0
M  V30 4505 C 428.74 -1.74682 0.866672 0
M  V30 4506 O 428.01 -1.95661 -0.0968189 0
M  V30 4507 H 426.59 -0.258416 0.700878 0
M  V30 4508 H 429.252 0.0326655 1.94873 0
M  V30 4509 H 428.348 -1.16702 2.8946 0
M  V30 4510 N 428.649 -1.55105 -0.279332 0
M  V30 4511 C 429.612 -1.86783 -1.32834 0
M  V30 4512 C 430.612 -0.74199 -1.42657 0
M  V30 4513 O 431.802 -1.0102 -1.41918 0
M  V30 4514 C 428.934 -2.06746 -2.71052 0
M  V30 4515 H 430.127 -2.8055 -1.05979 0
M  V30 4516 H 427.68 -1.47499 -0.517087 0
M  V30 4517 H 428.415 -1.15339 -3.03097 0
M  V30 4518 H 428.2 -2.88711 -2.65309 0
M  V30 4519 H 429.69 -2.32549 -3.46858 0
M  V30 4520 N 430.127 0.543554 -1.4793 0
M  V30 4521 C 431.09 1.63156 -1.60975 0
M  V30 4522 C 432.09 1.53346 -0.483899 0
M  V30 4523 O 433.28 1.5726 -0.749339 0
M  V30 4524 C 430.412 3.02743 -1.56716 0
M  V30 4525 H 431.605 1.52934 -2.57975 0
M  V30 4526 H 429.158 0.764557 -1.36324 0
M  V30 4527 H 429.893 3.18484 -0.611418 0
M  V30 4528 H 429.678 3.11272 -2.38438 0
M  V30 4529 H 431.168 3.81871 -1.6901 0
M  V30 4530 N 431.605 1.3629 0.791371 0
M  V30 4531 C 432.853 1.30154 1.5461 0
M  V30 4532 C 433.174 -0.119409 1.94634 0
M  V30 4533 O 432.444 -1.05924 1.64794 0
M  V30 4534 H 431.024 0.478784 0.573389 0
M  V30 4535 H 433.686 1.70565 0.94306 0
M  V30 4536 H 432.782 1.92762 2.45457 0
M  V30 4537 N 433.083 -1.0153 1.20538 0
M  V30 4538 C 434.311 -1.78746 1.04199 0
M  V30 4539 C 434.726 -1.84323 -0.408733 0
M  V30 4540 O 434.083 -1.29714 -1.28377 0
M  V30 4541 C 434.134 -3.23152 1.62035 0
M  V30 4542 O 433.855 -3.17918 3.0143 0
M  V30 4543 C 435.356 -4.16911 1.50666 0
M  V30 4544 H 432.576 -0.56208 0.366479 0
M  V30 4545 H 435.12 -1.27794 1.59653 0
M  V30 4546 H 433.275 -3.71248 1.10697 0
M  V30 4547 H 433.689 -4.08567 3.28897 0
M  V30 4548 H 435.163 -5.16072 1.95892 0
M  V30 4549 H 435.64 -4.36791 0.459363 0
M  V30 4550 H 436.246 -3.74698 2.01201 0
M  V30 4551 N 434.561 -1.01147 -1.20859 0
M  V30 4552 C 435.493 -0.535546 -2.22855 0
M  V30 4553 C 436.506 0.379323 -1.58319 0
M  V30 4554 O 437.695 0.178489 -1.77605 0
M  V30 4555 C 434.795 0.240962 -3.38042 0
M  V30 4556 C 433.968 -0.674562 -4.32167 0
M  V30 4557 C 433.027 0.053467 -5.26173 0
M  V30 4558 O 432.053 -0.567339 -5.66366 0
M  V30 4559 N 433.255 1.32997 -5.65059 0
M  V30 4560 H 436.02 -1.41268 -2.64317 0
M  V30 4561 H 433.581 -0.888386 -1.35349 0
M  V30 4562 H 435.573 0.737115 -3.97931 0
M  V30 4563 H 434.143 1.01935 -2.95513 0
M  V30 4564 H 433.363 -1.35111 -3.70322 0
M  V30 4565 H 434.651 -1.2974 -4.91981 0
M  V30 4566 H 434.049 1.85536 -5.34409 0
M  V30 4567 H 432.606 1.77095 -6.2728 0
M  V30 4568 N 436.039 1.36541 -0.78704 0
M  V30 4569 C 437.269 2.03266 -0.369662 0
M  V30 4570 C 437.677 1.59481 1.01796 0
M  V30 4571 O 437.02 0.778612 1.66383 0
M  V30 4572 C 437.082 3.57779 -0.351371 0
M  V30 4573 C 436.746 4.24756 -1.68617 0
M  V30 4574 C 437.743 4.47811 -2.64124 0
M  V30 4575 C 435.428 4.62277 -1.96481 0
M  V30 4576 C 437.422 5.07464 -3.85693 0
M  V30 4577 C 435.109 5.21649 -3.18317 0
M  V30 4578 C 436.107 5.44182 -4.12741 0
M  V30 4579 O 435.795 6.02307 -5.32429 0
M  V30 4580 H 435.527 0.658977 -0.150751 0
M  V30 4581 H 438.081 1.75548 -1.0664 0
M  V30 4582 H 436.311 3.84606 0.401847 0
M  V30 4583 H 438 4.05879 0.0410147 0
M  V30 4584 H 438.766 4.19221 -2.43883 0
M  V30 4585 H 434.645 4.44065 -1.23805 0
M  V30 4586 H 438.189 5.24968 -4.59407 0
M  V30 4587 H 434.086 5.49664 -3.38437 0
M  V30 4588 H 434.854 6.20775 -5.33461 0
M  V30 4589 N 437.518 0.538854 1.48102 0
M  V30 4590 C 438.795 -0.0568108 1.95517 0
M  V30 4591 C 439.175 -1.50408 1.48124 0
M  V30 4592 O 438.523 -2.17133 0.711727 0
M  V30 4593 C 438.733 0.0696262 3.48931 0
M  V30 4594 C 440.081 -0.0851202 4.24515 0
M  V30 4595 O 441.105 -0.0037347 3.562 0
M  V30 4596 O 439.964 -0.257025 5.45895 0
M  V30 4597 H 437.058 -0.0743695 0.823649 0
M  V30 4598 H 439.604 0.604081 1.58584 0
M  V30 4599 H 438.376 1.07744 3.76174 0
M  V30 4600 H 437.999 -0.629714 3.92582 0
M  V30 4601 N 438.996 -1.55193 0.274407 0
M  V30 4602 C 440.273 -1.91584 -0.394331 0
M  V30 4603 C 440.653 -1.19858 -1.73774 0
M  V30 4604 O 440.001 -0.3252 -2.26174 0
M  V30 4605 C 440.211 -3.4487 -0.535311 0
M  V30 4606 C 441.559 -4.16636 -0.818534 0
M  V30 4607 O 442.583 -3.5076 -0.620146 0
M  V30 4608 O 441.442 -5.33209 -1.19792 0
M  V30 4609 H 438.536 -0.798349 -0.215794 0
M  V30 4610 H 441.082 -1.66646 0.320507 0
M  V30 4611 H 439.854 -3.89145 0.410141 0
M  V30 4612 H 439.477 -3.75759 -1.29964 0
M  V30 4613 N 440.474 -0.00167713 -1.576 0
M  V30 4614 C 441.699 0.69739 -1.95323 0
M  V30 4615 C 442.124 1.6642 -0.876706 0
M  V30 4616 O 441.482 1.80548 0.165007 0
M  V30 4617 C 441.53 1.40403 -3.32144 0
M  V30 4618 O 440.634 2.5185 -3.26566 0
M  V30 4619 H 439.975 0.185373 -0.637599 0
M  V30 4620 H 442.505 -0.0553665 -2.04525 0
M  V30 4621 H 442.515 1.76707 -3.67748 0
M  V30 4622 H 441.19 0.695167 -4.10049 0
M  V30 4623 H 439.767 2.17861 -3.0264 0
M  V30 4624 N 441.952 1.55251 0.271103 0
M  V30 4625 C 442.9 1.89054 1.35504 0
M  V30 4626 C 443.894 0.767064 1.51038 0
M  V30 4627 O 445.1 0.951429 1.528 0
M  V30 4628 H 441.475 0.600072 0.45323 0
M  V30 4629 H 443.446 2.79598 1.04247 0
M  V30 4630 C 442.195 2.18068 2.70817 0
M  V30 4631 H 441.518 3.04005 2.59656 0
M  V30 4632 H 442.958 2.4564 3.45597 0
M  V30 4633 C 441.417 0.988901 3.2206 0
M  V30 4634 O 441.947 0.224501 4.01072 0
M  V30 4635 N 440.153 0.786085 2.79766 0
M  V30 4636 H 439.7 1.40937 2.15626 0
M  V30 4637 H 439.658 -0.00969349 3.14399 0
M  V30 4638 N 443.43 -0.535701 1.48216 0
M  V30 4639 C 444.363 -1.65726 1.56876 0
M  V30 4640 C 445.341 -1.57094 0.419542 0
M  V30 4641 O 446.525 -1.77648 0.630352 0
M  V30 4642 C 443.652 -3.04096 1.49142 0
M  V30 4643 C 442.698 -3.31105 2.68834 0
M  V30 4644 S 443.531 -3.18001 4.30854 0
M  V30 4645 C 444.687 -4.58828 4.25709 0
M  V30 4646 H 444.92 -1.58129 2.51759 0
M  V30 4647 H 442.453 -0.718218 1.36678 0
M  V30 4648 H 444.411 -3.839 1.45366 0
M  V30 4649 H 443.072 -3.09139 0.556067 0
M  V30 4650 H 442.265 -4.32033 2.59545 0
M  V30 4651 H 441.867 -2.58961 2.69843 0
M  V30 4652 H 444.159 -5.5023 3.95289 0
M  V30 4653 H 445.102 -4.73172 5.26796 0
M  V30 4654 H 445.51 -4.37883 3.56257 0
M  V30 4655 N 444.908 -1.36708 -0.784132 0
M  V30 4656 C 446.156 -1.30972 -1.53918 0
M  V30 4657 C 446.477 0.109086 -1.94695 0
M  V30 4658 O 445.747 1.05048 -1.65353 0
M  V30 4659 H 444.327 -0.481819 -0.570841 0
M  V30 4660 H 446.989 -1.71063 -0.934002 0
M  V30 4661 H 446.085 -1.94061 -2.44431 0
M  V30 4662 N 446.386 1.0089 -1.21074 0
M  V30 4663 C 447.318 2.09737 -0.924291 0
M  V30 4664 C 448.331 1.62546 0.0909809 0
M  V30 4665 O 449.52 1.77942 -0.141021 0
M  V30 4666 C 446.62 3.36922 -0.36559 0
M  V30 4667 C 445.793 4.13216 -1.43426 0
M  V30 4668 C 444.852 5.18696 -0.885496 0
M  V30 4669 O 443.878 5.47176 -1.56801 0
M  V30 4670 N 445.08 5.79718 0.301227 0
M  V30 4671 H 447.845 2.34895 -1.8613 0
M  V30 4672 H 445.406 1.17341 -1.11546 0
M  V30 4673 H 447.398 4.04697 0.0158407 0
M  V30 4674 H 445.968 3.08952 0.476149 0
M  V30 4675 H 445.188 3.40301 -1.9897 0
M  V30 4676 H 446.476 4.60967 -2.15376 0
M  V30 4677 H 445.874 5.58926 0.872849 0
M  V30 4678 H 444.431 6.48804 0.624211 0
M  V30 4679 N 447.864 1.01787 1.20321 0
M  V30 4680 C 448.812 0.58254 2.25187 0
M  V30 4681 C 449.806 -0.379359 1.65098 0
M  V30 4682 O 451.012 -0.249142 1.78267 0
M  V30 4683 H 447.387 0.170078 0.732514 0
M  V30 4684 H 449.358 1.47788 2.59232 0
M  V30 4685 C 448.107 -0.0620885 3.47645 0
M  V30 4686 H 447.43 0.669069 3.94162 0
M  V30 4687 H 448.87 -0.329784 4.22716 0
M  V30 4688 C 447.329 -1.3053 3.10586 0
M  V30 4689 O 447.859 -2.39848 3.22236 0
M  V30 4690 N 446.065 -1.18988 2.65123 0
M  V30 4691 H 445.612 -0.300341 2.55843 0
M  V30 4692 H 445.57 -2.02267 2.40698 0
M  V30 4693 N 449.342 -1.36122 0.79427 0
M  V30 4694 C 450.289 -2.29982 0.194101 0
M  V30 4695 C 451.259 -1.52214 -0.664833 0
M  V30 4696 O 452.444 -1.80702 -0.612498 0
M  V30 4697 C 449.584 -3.38706 -0.661244 0
M  V30 4698 C 448.697 -4.31456 0.216766 0
M  V30 4699 C 447.832 -5.27265 -0.645411 0
M  V30 4700 C 446.871 -6.11653 0.233756 0
M  V30 4701 N 446.008 -6.99636 -0.587682 0
M  V30 4702 H 450.848 -2.80722 0.999965 0
M  V30 4703 H 448.385 -1.38172 0.504677 0
M  V30 4704 H 450.343 -4.00394 -1.17219 0
M  V30 4705 H 448.973 -2.89274 -1.43249 0
M  V30 4706 H 448.025 -3.7088 0.845724 0
M  V30 4707 H 449.337 -4.90724 0.893973 0
M  V30 4708 H 448.491 -5.94266 -1.22198 0
M  V30 4709 H 447.23 -4.68463 -1.35623 0
M  V30 4710 H 446.235 -5.4361 0.82269 0
M  V30 4711 H 447.46 -6.72531 0.942247 0
M  V30 4712 H 445.406 -6.43337 -1.2827 0
M  V30 4713 H 445.323 -7.55993 0.0317402 0
M  V30 4714 H 446.591 -7.71001 -1.14792 0
M  V30 4715 N 450.82 -0.546701 -1.47814 0
M  V30 4716 C 452.066 -0.0187684 -2.02791 0
M  V30 4717 C 452.399 1.32338 -1.42128 0
M  V30 4718 O 451.674 1.85867 -0.573023 0
M  V30 4719 C 451.957 0.0854985 -3.59998 0
M  V30 4720 C 451.81 -1.283 -4.31114 0
M  V30 4721 C 453.129 0.80412 -4.32691 0
M  V30 4722 H 450.248 -0.0082946 -0.736953 0
M  V30 4723 H 452.89 -0.706962 -1.76358 0
M  V30 4724 H 451.04 0.671609 -3.82651 0
M  V30 4725 H 452.712 -1.91151 -4.19832 0
M  V30 4726 H 450.955 -1.86049 -3.91878 0
M  V30 4727 H 451.626 -1.16287 -5.39612 0
M  V30 4728 H 454.102 0.306576 -4.14969 0
M  V30 4729 H 452.978 0.846011 -5.42341 0
M  V30 4730 H 453.239 1.85802 -4.01161 0
M  V30 4731 N 452.299 1.55045 -0.282633 0
M  V30 4732 C 453.547 1.99365 0.331334 0
M  V30 4733 C 453.868 1.1725 1.55812 0
M  V30 4734 O 453.138 0.263871 1.94115 0
M  V30 4735 H 451.718 0.736397 0.125414 0
M  V30 4736 H 454.38 1.90964 -0.389711 0
M  V30 4737 H 453.476 3.0596 0.616036 0
M  V30 4738 N 453.777 0.010035 1.57597 0
M  V30 4739 C 454.707 -0.976857 2.12084 0
M  V30 4740 C 455.688 -1.35191 1.03235 0
M  V30 4741 O 456.873 -1.43389 1.3097 0
M  V30 4742 C 454.003 -2.26548 2.63236 0
M  V30 4743 C 452.957 -2.03175 3.76701 0
M  V30 4744 C 452.283 -3.38138 4.14206 0
M  V30 4745 C 453.583 -1.38625 5.03568 0
M  V30 4746 H 455.277 -0.523145 2.94794 0
M  V30 4747 H 452.823 -0.250195 1.4181 0
M  V30 4748 H 454.776 -2.95952 2.99984 0
M  V30 4749 H 453.5 -2.74051 1.77661 0
M  V30 4750 H 452.159 -1.36195 3.40362 0
M  V30 4751 H 451.807 -3.83363 3.25641 0
M  V30 4752 H 451.507 -3.23312 4.90656 0
M  V30 4753 H 453.031 -4.08841 4.53521 0
M  V30 4754 H 454.445 -1.98 5.38023 0
M  V30 4755 H 452.842 -1.34256 5.84889 0
M  V30 4756 H 453.912 -0.356722 4.83586 0
M  V30 4757 N 455.255 -1.55392 -0.262866 0
M  V30 4758 C 456.48 -1.80847 -1.01533 0
M  V30 4759 C 456.905 -0.584946 -1.78774 0
M  V30 4760 O 456.263 0.465701 -1.75217 0
M  V30 4761 C 456.311 -3.03866 -1.94159 0
M  V30 4762 O 455.415 -2.79662 -3.03089 0
M  V30 4763 H 454.756 -0.597441 -0.289759 0
M  V30 4764 H 457.286 -2.02553 -0.288698 0
M  V30 4765 H 457.296 -3.32872 -2.35924 0
M  V30 4766 H 455.971 -3.92564 -1.37354 0
M  V30 4767 H 454.548 -2.61781 -2.65566 0
M  V30 4768 N 456.733 0.527833 -1.48498 0
M  V30 4769 C 457.98 1.28354 -1.56625 0
M  V30 4770 C 458.308 1.93 -0.241096 0
M  V30 4771 O 457.563 1.79967 0.768798 0
M  V30 4772 C 457.862 2.39275 -2.65485 0
M  V30 4773 C 457.528 1.92268 -4.07853 0
M  V30 4774 C 456.19 1.79166 -4.46602 0
M  V30 4775 C 458.542 1.56771 -4.97064 0
M  V30 4776 C 455.87 1.28905 -5.72364 0
M  V30 4777 C 458.222 1.07972 -6.23318 0
M  V30 4778 C 456.886 0.934887 -6.60921 0
M  V30 4779 H 456.156 0.469682 -0.573131 0
M  V30 4780 H 458.803 0.588781 -1.82224 0
M  V30 4781 H 457.108 3.1443 -2.33754 0
M  V30 4782 H 458.805 2.974 -2.68988 0
M  V30 4783 H 455.395 2.03417 -3.77252 0
M  V30 4784 H 459.579 1.65753 -4.67803 0
M  V30 4785 H 454.835 1.16381 -6.00221 0
M  V30 4786 H 459.009 0.795775 -6.91838 0
M  V30 4787 H 456.636 0.543231 -7.58257 0
M  V30 4788 N 458.211 1.37122 0.776871 0
M  V30 4789 C 459.436 1.354 1.57104 0
M  V30 4790 C 459.861 -0.0595562 1.88006 0
M  V30 4791 O 459.219 -1.03514 1.48844 0
M  V30 4792 C 459.267 2.19472 2.8612 0
M  V30 4793 O 458.371 1.59582 3.80273 0
M  V30 4794 H 457.712 0.462869 0.476076 0
M  V30 4795 H 460.242 1.80577 0.961932 0
M  V30 4796 H 460.252 2.32502 3.35271 0
M  V30 4797 H 458.927 3.22222 2.62956 0
M  V30 4798 H 457.504 1.55564 3.38902 0
M  V30 4799 N 459.689 -1.00246 1.21608 0
M  V30 4800 C 460.619 -2.10921 1.00172 0
M  V30 4801 C 461.6 -1.69938 -0.0741587 0
M  V30 4802 O 462.785 -1.94009 0.0861753 0
M  V30 4803 C 459.915 -3.42618 0.568355 0
M  V30 4804 C 458.869 -3.97407 1.58909 0
M  V30 4805 C 458.195 -5.25038 1.01187 0
M  V30 4806 C 459.495 -4.2918 2.97661 0
M  V30 4807 H 461.189 -2.29112 1.92739 0
M  V30 4808 H 458.735 -1.10101 0.928102 0
M  V30 4809 H 460.688 -4.19444 0.405555 0
M  V30 4810 H 459.412 -3.24227 -0.392961 0
M  V30 4811 H 458.071 -3.22703 1.73949 0
M  V30 4812 H 457.719 -5.02982 0.0421965 0
M  V30 4813 H 457.419 -5.62661 1.6937 0
M  V30 4814 H 458.943 -6.04507 0.860448 0
M  V30 4815 H 460.357 -4.96839 2.86049 0
M  V30 4816 H 458.754 -4.77952 3.6288 0
M  V30 4817 H 459.824 -3.3735 3.48315 0
M  V30 4818 N 461.167 -1.02423 -1.1978 0
M  V30 4819 C 462.578 -0.748389 -1.71044 0
M  V30 4820 C 462.929 0.732398 -1.82017 0
M  V30 4821 O 462.054 1.57116 -1.48807 0
M  V30 4822 C 462.649 -1.35187 -3.1066 0
M  V30 4823 C 461.208 -1.12472 -3.59203 0
M  V30 4824 C 460.355 -1.45283 -2.36195 0
M  V30 4825 H 463.306 -1.19275 -1.04686 0
M  V30 4826 H 463.327 -0.746408 -3.73107 0
M  V30 4827 H 462.839 -2.4296 -3.02642 0
M  V30 4828 H 460.94 -0.0649983 -3.72543 0
M  V30 4829 H 461.053 -1.81016 -4.43588 0
M  V30 4830 H 459.417 -0.872034 -2.39307 0
M  V30 4831 H 460.2 -2.54129 -2.30811 0
M  V30 4832 N 462.645 1.35699 -0.801477 0
M  V30 4833 C 463.894 1.98165 -0.375979 0
M  V30 4834 C 464.207 1.64306 1.06127 0
M  V30 4835 O 465.413 2.20097 1.58964 0
M  V30 4836 C 463.869 3.54497 -0.621305 0
M  V30 4837 C 463.477 3.9727 -2.07076 0
M  V30 4838 C 465.221 4.23697 -0.26091 0
M  V30 4839 C 463.128 5.46427 -2.26211 0
M  V30 4840 H 462.058 0.741478 -0.136844 0
M  V30 4841 H 464.709 1.54834 -0.984814 0
M  V30 4842 H 463.091 3.95958 0.0574112 0
M  V30 4843 H 464.265 3.66974 -2.78687 0
M  V30 4844 H 462.58 3.40943 -2.39054 0
M  V30 4845 H 465.177 5.33334 -0.381994 0
M  V30 4846 H 465.52 4.0869 0.792344 0
M  V30 4847 H 466.053 3.87639 -0.893339 0
M  V30 4848 H 462.792 5.66396 -3.29963 0
M  V30 4849 H 462.312 5.78309 -1.59119 0
M  V30 4850 H 463.991 6.12819 -2.07513 0
M  V30 4851 N 464.123 0.554532 1.47522 0
M  V30 4852 C 465.353 0.0342074 2.06572 0
M  V30 4853 C 465.761 -1.26375 1.40805 0
M  V30 4854 O 465.104 -1.7683 0.49769 0
M  V30 4855 C 465.166 -0.235096 3.5873 0
M  V30 4856 C 464.83 0.973024 4.46521 0
M  V30 4857 C 465.827 1.8779 4.848 0
M  V30 4858 C 463.512 1.18694 4.88075 0
M  V30 4859 C 465.506 2.98039 5.63428 0
M  V30 4860 C 463.193 2.29254 5.66468 0
M  V30 4861 C 464.191 3.18757 6.04055 0
M  V30 4862 O 463.879 4.27401 6.8087 0
M  V30 4863 H 463.611 0.041587 0.67472 0
M  V30 4864 H 466.165 0.766748 1.90552 0
M  V30 4865 H 464.395 -1.02191 3.72953 0
M  V30 4866 H 466.084 -0.700477 3.9981 0
M  V30 4867 H 466.85 1.72467 4.53299 0
M  V30 4868 H 462.729 0.49947 4.58286 0
M  V30 4869 H 466.273 3.67926 5.92685 0
M  V30 4870 H 462.17 2.4455 5.97382 0
M  V30 4871 H 462.938 4.25415 6.9926 0
M  V30 4872 N 465.601 -1.54893 0.290851 0
M  V30 4873 C 466.533 -2.20564 -0.623236 0
M  V30 4874 C 467.546 -1.19519 -1.1054 0
M  V30 4875 O 468.735 -1.46165 -1.02459 0
M  V30 4876 C 465.835 -2.83033 -1.86401 0
M  V30 4877 C 465.008 -4.09916 -1.52604 0
M  V30 4878 C 464.067 -4.56284 -2.62091 0
M  V30 4879 O 463.093 -5.2171 -2.27612 0
M  V30 4880 N 464.295 -4.27746 -3.92446 0
M  V30 4881 H 467.06 -2.99638 -0.0610915 0
M  V30 4882 H 464.621 -1.61508 0.112615 0
M  V30 4883 H 466.613 -3.1099 -2.58973 0
M  V30 4884 H 465.183 -2.0786 -2.33481 0
M  V30 4885 H 464.403 -3.89078 -0.633424 0
M  V30 4886 H 465.691 -4.92554 -1.27547 0
M  V30 4887 H 465.089 -3.7531 -4.23272 0
M  V30 4888 H 463.646 -4.60437 -4.61347 0
M  V30 4889 N 467.08 -0.0183926 -1.57589 0
M  V30 4890 C 468.328 0.661253 -1.90976 0
M  V30 4891 C 468.649 1.73281 -0.894353 0
M  V30 4892 O 467.919 1.9579 0.0656788 0
M  V30 4893 H 466.499 0.247233 -0.704901 0
M  V30 4894 H 469.161 -0.0636639 -1.94796 0
M  V30 4895 H 468.257 1.12083 -2.9128 0
M  V30 4896 N 468.558 1.5553 0.254621 0
M  V30 4897 C 469.806 1.7665 0.981793 0
M  V30 4898 C 470.127 0.580963 1.86145 0
M  V30 4899 O 469.397 -0.403537 1.91699 0
M  V30 4900 H 467.977 0.651475 0.365498 0
M  V30 4901 H 470.639 1.92958 0.274426 0
M  V30 4902 H 469.735 2.67486 1.60802 0
M  V30 4903 N 470.036 -0.519951 1.48776 0
M  V30 4904 C 470.969 -1.64053 1.58625 0
M  V30 4905 C 471.947 -1.5664 0.43618 0
M  V30 4906 O 473.131 -1.76969 0.649159 0
M  V30 4907 C 470.258 -3.02497 1.52359 0
M  V30 4908 C 469.304 -3.28235 2.72331 0
M  V30 4909 S 470.137 -3.13414 4.34203 0
M  V30 4910 C 471.293 -4.54287 4.30551 0
M  V30 4911 H 471.526 -1.5545 2.53422 0
M  V30 4912 H 469.059 -0.703681 1.37433 0
M  V30 4913 H 471.017 -3.82336 1.4943 0
M  V30 4914 H 469.678 -3.08531 0.588824 0
M  V30 4915 H 468.871 -4.29256 2.64113 0
M  V30 4916 H 468.473 -2.56085 2.72574 0
M  V30 4917 H 470.765 -5.46006 4.01103 0
M  V30 4918 H 471.708 -4.67558 5.31785 0
M  V30 4919 H 472.116 -4.34079 3.60881 0
M  V30 4920 N 471.514 -1.37532 -0.769588 0
M  V30 4921 C 472.76 -1.33057 -1.53048 0
M  V30 4922 C 473.093 0.0841865 -1.94017 0
M  V30 4923 O 472.368 1.04198 -1.64235 0
M  V30 4924 C 472.651 -2.27166 -2.79406 0
M  V30 4925 C 472.504 -3.77429 -2.44677 0
M  V30 4926 C 473.823 -2.19683 -3.81349 0
M  V30 4927 H 470.942 -0.484655 -0.555228 0
M  V30 4928 H 473.584 -1.68251 -0.882702 0
M  V30 4929 H 471.734 -1.97283 -3.34682 0
M  V30 4930 H 473.406 -4.17918 -1.953 0
M  V30 4931 H 471.649 -3.95892 -1.77346 0
M  V30 4932 H 472.32 -4.38716 -3.35011 0
M  V30 4933 H 474.796 -2.46029 -3.35573 0
M  V30 4934 H 473.672 -2.87668 -4.67481 0
M  V30 4935 H 473.933 -1.19045 -4.25771 0
M  V30 4936 N 472.992 0.995999 -1.22138 0
M  V30 4937 C 473.94 2.10673 -0.985876 0
M  V30 4938 C 474.934 1.69255 0.0699553 0
M  V30 4939 O 476.14 1.79812 -0.0822176 0
M  V30 4940 H 472.515 0.688865 -0.30161 0
M  V30 4941 H 474.486 2.27711 -1.92848 0
M  V30 4942 C 473.235 3.42881 -0.576909 0
M  V30 4943 H 472.558 3.75191 -1.38101 0
M  V30 4944 H 473.998 4.21589 -0.451518 0
M  V30 4945 C 472.457 3.29265 0.713196 0
M  V30 4946 O 472.987 3.60777 1.76643 0
M  V30 4947 N 471.193 2.82456 0.683162 0
M  V30 4948 H 470.74 2.5701 -0.174242 0
M  V30 4949 H 470.698 2.73727 1.54663 0
M  V30 4950 N 474.47 1.03057 1.19235 0
M  V30 4951 C 475.695 0.74757 1.93458 0
M  V30 4952 C 476.12 -0.687648 1.7508 0
M  V30 4953 O 475.478 -1.47499 1.05422 0
M  V30 4954 C 475.526 1.10604 3.43219 0
M  V30 4955 O 474.63 0.225671 4.11782 0
M  V30 4956 H 473.971 0.276047 0.603899 0
M  V30 4957 H 476.501 1.3777 1.51263 0
M  V30 4958 H 476.511 1.06366 3.93891 0
M  V30 4959 H 475.186 2.15165 3.55917 0
M  V30 4960 H 473.763 0.326795 3.71465 0
M  V30 4961 N 475.948 -1.35272 0.808662 0
M  V30 4962 C 476.88 -2.28507 0.178149 0
M  V30 4963 C 477.893 -1.50377 -0.623754 0
M  V30 4964 O 479.082 -1.72583 -0.455774 0
M  V30 4965 C 476.182 -3.30038 -0.769959 0
M  V30 4966 C 475.355 -4.37398 -0.0139749 0
M  V30 4967 C 474.414 -5.18775 -0.880875 0
M  V30 4968 O 473.44 -5.68236 -0.331059 0
M  V30 4969 N 474.642 -5.37087 -2.20267 0
M  V30 4970 H 477.407 -2.83255 0.979106 0
M  V30 4971 H 474.968 -1.47643 0.664308 0
M  V30 4972 H 476.96 -3.81371 -1.35418 0
M  V30 4973 H 475.53 -2.75789 -1.47171 0
M  V30 4974 H 474.75 -3.86971 0.751468 0
M  V30 4975 H 476.038 -5.06268 0.506965 0
M  V30 4976 H 475.436 -4.9855 -2.67328 0
M  V30 4977 H 473.993 -5.91593 -2.73608 0
M  V30 4978 N 477.426 -0.562348 -1.47226 0
M  V30 4979 C 478.672 -0.0402761 -2.0276 0
M  V30 4980 C 479.005 1.30823 -1.43523 0
M  V30 4981 O 478.28 1.85249 -0.592705 0
M  V30 4982 C 478.563 0.047311 -3.60069 0
M  V30 4983 C 478.416 -1.32865 -4.29729 0
M  V30 4984 C 479.735 0.758182 -4.3352 0
M  V30 4985 H 476.854 -0.0161105 -0.736824 0
M  V30 4986 H 479.496 -0.725628 -1.75598 0
M  V30 4987 H 477.646 0.630986 -3.83342 0
M  V30 4988 H 479.318 -1.95593 -4.17781 0
M  V30 4989 H 477.561 -1.90195 -3.89882 0
M  V30 4990 H 478.232 -1.22004 -5.38349 0
M  V30 4991 H 480.708 0.262546 -4.15271 0
M  V30 4992 H 479.584 0.78844 -5.43208 0
M  V30 4993 H 479.845 1.81537 -4.03109 0
M  V30 4994 N 478.904 1.54736 -0.299062 0
M  V30 4995 C 479.851 2.23448 0.577899 0
M  V30 4996 C 480.821 1.21637 1.13109 0
M  V30 4997 O 482.006 1.50252 1.17597 0
M  V30 4998 C 479.146 2.9774 1.74484 0
M  V30 4999 C 478.259 4.1432 1.22323 0
M  V30 5000 C 477.394 4.76199 2.35388 0
M  V30 5001 C 476.433 5.84927 1.80351 0
M  V30 5002 N 475.57 6.4077 2.86982 0
M  V30 5003 H 480.41 2.97996 -0.0146545 0
M  V30 5004 H 477.947 1.47088 -0.0190013 0
M  V30 5005 H 479.905 3.39045 2.43114 0
M  V30 5006 H 478.535 2.25572 2.30905 0
M  V30 5007 H 477.587 3.7797 0.429249 0
M  V30 5008 H 478.899 4.92659 0.780309 0
M  V30 5009 H 478.053 5.20346 3.11969 0
M  V30 5010 H 476.792 3.97188 2.83006 0
M  V30 5011 H 475.797 5.40207 1.02259 0
M  V30 5012 H 477.022 6.65821 1.3364 0
M  V30 5013 H 474.968 5.64643 3.33938 0
M  V30 5014 H 474.885 7.1445 2.4718 0
M  V30 5015 H 476.153 6.89574 3.63466 0
M  V30 5016 N 480.382 0.0267497 1.57577 0
M  V30 5017 C 481.314 -0.984594 2.06974 0
M  V30 5018 C 482.327 -1.29032 0.992705 0
M  V30 5019 O 483.516 -1.25539 1.26895 0
M  V30 5020 C 480.616 -2.31262 2.47732 0
M  V30 5021 C 479.789 -2.1924 3.78487 0
M  V30 5022 C 478.848 -3.34956 4.05821 0
M  V30 5023 O 477.874 -3.11948 4.76106 0
M  V30 5024 N 479.076 -4.58672 3.55809 0
M  V30 5025 H 481.841 -0.563143 2.94362 0
M  V30 5026 H 479.402 -0.160061 1.61107 0
M  V30 5027 H 481.394 -3.07496 2.63112 0
M  V30 5028 H 479.964 -2.65056 1.65723 0
M  V30 5029 H 479.184 -1.27747 3.72927 0
M  V30 5030 H 480.472 -2.08409 4.64158 0
M  V30 5031 H 479.87 -4.8026 2.98942 0
M  V30 5032 H 478.427 -5.32083 3.76472 0
M  V30 5033 N 481.861 -1.55662 -0.24637 0
M  V30 5034 C 482.824 -1.89558 -1.28842 0
M  V30 5035 C 483.824 -0.772082 -1.41052 0
M  V30 5036 O 485.014 -1.04007 -1.39743 0
M  V30 5037 C 482.146 -2.12449 -2.66605 0
M  V30 5038 H 483.339 -2.82735 -1.00004 0
M  V30 5039 H 480.892 -1.48562 -0.485684 0
M  V30 5040 H 481.627 -1.21742 -3.00582 0
M  V30 5041 H 481.412 -2.94273 -2.59125 0
M  V30 5042 H 482.902 -2.39854 -3.41847 0
M  V30 5043 N 483.339 0.512053 -1.4905 0
M  V30 5044 C 484.271 1.63121 -1.6101 0
M  V30 5045 C 485.284 1.55145 -0.493352 0
M  V30 5046 O 486.473 1.61278 -0.764955 0
M  V30 5047 C 483.573 3.01863 -1.54052 0
M  V30 5048 C 482.746 3.35138 -2.81072 0
M  V30 5049 C 481.805 4.5324 -2.67319 0
M  V30 5050 O 480.831 4.55571 -3.41238 0
M  V30 5051 N 482.033 5.52495 -1.78127 0
M  V30 5052 H 484.798 1.53292 -2.5753 0
M  V30 5053 H 482.359 0.699706 -1.45999 0
M  V30 5054 H 484.351 3.78774 -1.42521 0
M  V30 5055 H 482.921 3.05675 -0.654345 0
M  V30 5056 H 482.141 2.4723 -3.07036 0
M  V30 5057 H 483.429 3.54162 -3.65304 0
M  V30 5058 H 482.827 5.53403 -1.17308 0
M  V30 5059 H 481.384 6.28553 -1.72525 0
M  V30 5060 N 484.817 1.37938 0.762283 0
M  V30 5061 C 486.047 1.36685 1.54922 0
M  V30 5062 C 486.455 -0.0474099 1.89141 0
M  V30 5063 O 485.798 -1.02213 1.52638 0
M  V30 5064 C 485.86 2.14963 2.88152 0
M  V30 5065 C 485.524 3.6385 2.76518 0
M  V30 5066 C 486.521 4.57531 2.46904 0
M  V30 5067 C 484.206 4.07095 2.94243 0
M  V30 5068 C 486.2 5.92436 2.35156 0
M  V30 5069 C 483.887 5.42083 2.82116 0
M  V30 5070 C 484.885 6.34567 2.52614 0
M  V30 5071 O 484.573 7.67073 2.40529 0
M  V30 5072 H 484.305 0.469586 0.486276 0
M  V30 5073 H 486.859 1.82012 0.951876 0
M  V30 5074 H 485.089 1.6434 3.50042 0
M  V30 5075 H 486.778 2.06224 3.49609 0
M  V30 5076 H 487.544 4.25428 2.32886 0
M  V30 5077 H 483.423 3.35462 3.16206 0
M  V30 5078 H 486.967 6.64591 2.12049 0
M  V30 5079 H 482.864 5.73785 2.95704 0
M  V30 5080 H 483.632 7.77499 2.55807 0
M  V30 5081 N 486.295 -0.989507 1.22664 0
M  V30 5082 C 487.243 -2.10148 0.997035 0
M  V30 5083 C 488.237 -1.6929 -0.0609783 0
M  V30 5084 O 489.443 -1.79766 0.0917523 0
M  V30 5085 H 485.818 -0.687256 0.305259 0
M  V30 5086 H 487.789 -2.26685 1.94053 0
M  V30 5087 C 486.538 -3.4257 0.595085 0
M  V30 5088 H 485.861 -3.74453 1.40089 0
M  V30 5089 H 487.301 -4.21344 0.473869 0
M  V30 5090 C 485.76 -3.29638 -0.695725 0
M  V30 5091 O 486.29 -3.61709 -1.74727 0
M  V30 5092 N 484.496 -2.82814 -0.668173 0
M  V30 5093 H 484.043 -2.56914 0.18787 0
M  V30 5094 H 484.001 -2.74544 -1.5321 0
M  V30 5095 N 487.773 -1.03688 -1.18687 0
M  V30 5096 C 489.02 -0.73803 -1.88572 0
M  V30 5097 C 489.348 0.733973 -1.8012 0
M  V30 5098 O 488.603 1.55098 -1.19344 0
M  V30 5099 C 488.902 -1.14477 -3.3857 0
M  V30 5100 C 488.568 -2.61641 -3.67226 0
M  V30 5101 C 487.23 -3.01846 -3.74757 0
M  V30 5102 C 489.582 -3.56812 -3.79914 0
M  V30 5103 C 486.91 -4.36118 -3.92451 0
M  V30 5104 C 489.262 -4.90799 -3.99123 0
M  V30 5105 C 487.926 -5.3068 -4.04888 0
M  V30 5106 H 487.196 -0.270064 -0.690034 0
M  V30 5107 H 489.843 -1.3012 -1.40503 0
M  V30 5108 H 488.148 -0.500337 -3.88592 0
M  V30 5109 H 489.845 -0.89095 -3.90977 0
M  V30 5110 H 486.435 -2.29498 -3.61979 0
M  V30 5111 H 490.619 -3.26899 -3.73431 0
M  V30 5112 H 485.875 -4.66542 -3.95157 0
M  V30 5113 H 490.049 -5.64451 -4.07882 0
M  V30 5114 H 487.676 -6.34733 -4.18351 0
M  V30 5115 N 489.251 1.34841 -0.815825 0
M  V30 5116 C 490.497 1.98793 -0.401129 0
M  V30 5117 C 490.83 1.64548 1.03139 0
M  V30 5118 O 490.105 0.913487 1.71714 0
M  V30 5119 C 490.388 3.55143 -0.595409 0
M  V30 5120 C 490.241 3.99155 -2.07352 0
M  V30 5121 C 491.56 4.40092 -0.0268823 0
M  V30 5122 H 488.679 0.722146 -0.14722 0
M  V30 5123 H 491.321 1.59847 -1.02707 0
M  V30 5124 H 489.471 3.8845 -0.0625779 0
M  V30 5125 H 491.143 3.76216 -2.66945 0
M  V30 5126 H 489.386 3.49726 -2.56659 0
M  V30 5127 H 490.057 5.07971 -2.1603 0
M  V30 5128 H 492.533 4.13298 -0.482042 0
M  V30 5129 H 491.409 5.48562 -0.19267 0
M  V30 5130 H 491.67 4.29016 1.06759 0
M  V30 5131 N 490.729 0.570148 1.46925 0
M  V30 5132 C 491.977 0.0508523 2.02036 0
M  V30 5133 C 492.298 -1.30885 1.44548 0
M  V30 5134 O 491.568 -1.85647 0.625453 0
M  V30 5135 H 490.148 0.0158088 0.746833 0
M  V30 5136 H 492.81 0.743086 1.80178 0
M  V30 5137 H 491.906 -0.027575 3.12088 0
M  V30 5138 N 492.207 -1.54576 0.307264 0
M  V30 5139 C 493.17 -2.22423 -0.553224 0
M  V30 5140 C 494.17 -1.21231 -1.05639 0
M  V30 5141 O 495.36 -1.45923 -0.951419 0
M  V30 5142 C 492.492 -2.91552 -1.76664 0
M  V30 5143 H 493.685 -2.99874 0.0396484 0
M  V30 5144 H 491.238 -1.56192 0.0581629 0
M  V30 5145 H 491.973 -2.18196 -2.39918 0
M  V30 5146 H 491.758 -3.65738 -1.41343 0
M  V30 5147 H 493.248 -3.43292 -2.37783 0
M  V30 5148 N 493.685 -0.035106 -1.57561 0
M  V30 5149 C 494.91 0.655802 -1.96759 0
M  V30 5150 C 495.335 1.64523 -0.911809 0
M  V30 5151 O 494.693 1.80857 0.126673 0
M  V30 5152 C 494.741 1.33326 -3.35047 0
M  V30 5153 O 493.845 2.44866 -3.31835 0
M  V30 5154 H 493.186 0.171807 -0.641388 0
M  V30 5155 H 495.716 -0.0987369 -2.04362 0
M  V30 5156 H 495.726 1.68867 -3.71413 0
M  V30 5157 H 494.401 0.608033 -4.11431 0
M  V30 5158 H 492.978 2.11392 -3.07193 0
M  V30 5159 N 495.163 1.55791 0.238111 0
M  V30 5160 C 496.073 1.94196 1.31625 0
M  V30 5161 C 497.089 0.843545 1.52185 0
M  V30 5162 O 498.265 1.1457 1.65637 0
M  V30 5163 C 495.33 2.2365 2.64918 0
M  V30 5164 C 494.391 3.46971 2.52804 0
M  V30 5165 C 493.624 3.7501 3.79741 0
M  V30 5166 O 493.847 3.04982 4.82019 0
M  V30 5167 O 492.781 4.68525 3.77846 0
M  V30 5168 H 496.607 2.86044 1.02043 0
M  V30 5169 H 494.192 1.42786 0.439603 0
M  V30 5170 H 496.074 2.43863 3.4367 0
M  V30 5171 H 494.749 1.34979 2.94215 0
M  V30 5172 H 493.656 3.32055 1.72309 0
M  V30 5173 H 494.989 4.35971 2.28451 0
M  V30 5174 N 496.642 -0.504142 1.49319 0
M  V30 5175 C 497.574 -1.62265 1.61872 0
M  V30 5176 C 498.587 -1.54881 0.501573 0
M  V30 5177 O 499.776 -1.6087 0.773497 0
M  V30 5178 C 496.876 -3.01042 1.55651 0
M  V30 5179 C 496.049 -3.33642 2.82845 0
M  V30 5180 C 495.108 -4.51816 2.69719 0
M  V30 5181 O 494.134 -4.53755 3.4365 0
M  V30 5182 N 495.336 -5.51543 1.81055 0
M  V30 5183 H 498.101 -1.51924 2.58339 0
M  V30 5184 H 495.662 -0.691954 1.46368 0
M  V30 5185 H 497.654 -3.78013 1.44528 0
M  V30 5186 H 496.224 -3.05323 0.670546 0
M  V30 5187 H 495.444 -2.45598 3.08343 0
M  V30 5188 H 496.732 -3.5222 3.67177 0
M  V30 5189 H 496.13 -5.52774 1.20241 0
M  V30 5190 H 494.687 -6.27629 1.75856 0
M  V30 5191 N 498.12 -1.38341 -0.754957 0
M  V30 5192 C 499.05 -1.38176 -1.88227 0
M  V30 5193 C 500.031 -0.247873 -1.68284 0
M  V30 5194 O 501.216 -0.45075 -1.88896 0
M  V30 5195 C 498.346 -1.20471 -3.25736 0
M  V30 5196 C 497.3 -2.3105 -3.60278 0
M  V30 5197 C 496.626 -1.98452 -4.96509 0
M  V30 5198 C 497.926 -3.73305 -3.65295 0
M  V30 5199 H 499.62 -2.32512 -1.88622 0
M  V30 5200 H 497.166 -1.1192 -0.906082 0
M  V30 5201 H 499.119 -1.18982 -4.04254 0
M  V30 5202 H 497.843 -0.225965 -3.25817 0
M  V30 5203 H 496.502 -2.31723 -2.84078 0
M  V30 5204 H 496.15 -0.990641 -4.93148 0
M  V30 5205 H 495.85 -2.7251 -5.20588 0
M  V30 5206 H 497.374 -1.98578 -5.77407 0
M  V30 5207 H 498.788 -3.7467 -4.3393 0
M  V30 5208 H 497.185 -4.46557 -4.00883 0
M  V30 5209 H 498.255 -4.05719 -2.65556 0
M  V30 5210 N 499.598 0.982988 -1.23187 0
M  V30 5211 C 500.508 2.10907 -1.02739 0
M  V30 5212 C 501.524 1.73979 0.0273188 0
M  V30 5213 O 502.7 2.00702 -0.16757 0
M  V30 5214 C 499.765 3.41142 -0.618304 0
M  V30 5215 C 498.826 3.92112 -1.74777 0
M  V30 5216 C 498.059 5.16131 -1.3581 0
M  V30 5217 O 498.282 5.6989 -0.241201 0
M  V30 5218 O 497.216 5.61103 -2.17824 0
M  V30 5219 H 501.042 2.31046 -1.97108 0
M  V30 5220 H 498.627 1.09284 -1.01869 0
M  V30 5221 H 500.509 4.19488 -0.400982 0
M  V30 5222 H 499.184 3.2234 0.296421 0
M  V30 5223 H 498.091 3.14895 -2.0197 0
M  V30 5224 H 499.424 4.15364 -2.64071 0
M  V30 5225 N 501.076 1.04316 1.18135 0
M  V30 5226 C 502.301 0.768047 1.92655 0
M  V30 5227 C 502.726 -0.66904 1.758 0
M  V30 5228 O 502.084 -1.46372 1.06981 0
M  V30 5229 C 502.132 1.14239 3.42026 0
M  V30 5230 O 501.236 0.269333 4.1152 0
M  V30 5231 H 500.577 0.282436 0.600937 0
M  V30 5232 H 503.107 1.39367 1.49793 0
M  V30 5233 H 503.117 1.10538 3.92741 0
M  V30 5234 H 501.792 2.18928 3.53615 0
M  V30 5235 H 500.369 0.366175 3.71098 0
M  V30 5236 N 502.554 -1.34406 0.822964 0
M  V30 5237 C 503.517 -2.2783 0.250271 0
M  V30 5238 C 504.517 -1.50288 -0.571854 0
M  V30 5239 O 505.707 -1.69825 -0.387952 0
M  V30 5240 C 502.839 -3.34663 -0.649137 0
M  V30 5241 H 504.032 -2.79992 1.07444 0
M  V30 5242 H 501.585 -1.44539 0.594829 0
M  V30 5243 H 502.32 -2.87714 -1.49637 0
M  V30 5244 H 502.105 -3.92052 -0.0611199 0
M  V30 5245 H 503.595 -4.04349 -1.04363 0
M  V30 5246 N 504.032 -0.577932 -1.46621 0
M  V30 5247 C 504.982 0.178869 -2.27297 0
M  V30 5248 C 505.966 0.866279 -1.35589 0
M  V30 5249 O 507.158 0.761163 -1.59798 0
M  V30 5250 C 504.287 1.19499 -3.2183 0
M  V30 5251 C 503.373 0.50994 -4.21023 0
M  V30 5252 N 503.764 -0.43177 -5.03954 0
M  V30 5253 C 502.062 0.761287 -4.39455 0
M  V30 5254 C 502.763 -0.831693 -5.75724 0
M  V30 5255 N 501.739 -0.181897 -5.43296 0
M  V30 5256 H 505.541 -0.544859 -2.88805 0
M  V30 5257 H 503.055 -0.399373 -1.57413 0
M  V30 5258 H 505.052 1.75131 -3.78332 0
M  V30 5259 H 503.712 1.91959 -2.61881 0
M  V30 5260 H 504.723 -0.807045 -5.11573 0
M  V30 5261 H 501.4 1.47282 -3.90659 0
M  V30 5262 H 502.79 -1.6067 -6.52407 0
M  V30 5263 N 505.51 1.54411 -0.315457 0
M  V30 5264 C 506.926 1.59556 0.037464 0
M  V30 5265 C 507.126 1.33217 1.5118 0
M  V30 5266 O 506.182 1.11264 2.26664 0
M  V30 5267 C 507.495 2.98372 -0.373477 0
M  V30 5268 C 509.043 3.11324 -0.323452 0
M  V30 5269 C 509.518 4.52472 -0.709433 0
M  V30 5270 N 511.009 4.58437 -0.662524 0
M  V30 5271 C 511.744 5.65751 -0.933474 0
M  V30 5272 N 511.24 6.81039 -1.27114 0
M  V30 5273 N 513.033 5.55489 -0.859573 0
M  V30 5274 H 505.184 1.6979 -1.27614 0
M  V30 5275 H 507.447 0.793732 -0.518356 0
M  V30 5276 H 507.153 3.22618 -1.40037 0
M  V30 5277 H 507.027 3.76264 0.265615 0
M  V30 5278 H 509.414 2.86818 0.694223 0
M  V30 5279 H 509.495 2.35555 -0.997367 0
M  V30 5280 H 509.139 4.7771 -1.72498 0
M  V30 5281 H 509.069 5.26598 -0.0132923 0
M  V30 5282 H 511.56 3.75636 -0.413065 0
M  V30 5283 H 511.873 7.58816 -1.46348 0
M  V30 5284 H 510.218 6.82555 -1.30932 0
M  V30 5285 H 513.409 4.64299 -0.595324 0
M  V30 5286 H 513.582 6.39036 -1.0741 0
M  V30 5287 N 506.988 0.0434614 1.5754 0
M  V30 5288 C 508.213 -0.645358 1.97104 0
M  V30 5289 C 508.638 -1.64037 0.920521 0
M  V30 5290 O 507.996 -1.80922 -0.11708 0
M  V30 5291 C 508.044 -1.31547 3.35749 0
M  V30 5292 O 507.148 -2.43103 3.33129 0
M  V30 5293 H 506.489 -0.168403 0.64229 0
M  V30 5294 H 509.019 0.109573 2.04306 0
M  V30 5295 H 509.029 -1.66895 3.72304 0
M  V30 5296 H 507.704 -0.586205 4.11748 0
M  V30 5297 H 506.281 -2.0976 3.0831 0
M  V30 5298 N 508.466 -1.55915 -0.229846 0
M  V30 5299 C 509.712 -1.78807 -0.956868 0
M  V30 5300 C 510.045 -0.611687 -1.84315 0
M  V30 5301 O 509.32 0.389398 -1.90562 0
M  V30 5302 C 509.603 -3.11718 -1.80288 0
M  V30 5303 C 509.456 -4.3979 -0.943649 0
M  V30 5304 C 510.775 -3.40999 -2.78222 0
M  V30 5305 H 507.894 -0.6505 -0.346437 0
M  V30 5306 H 510.536 -1.88648 -0.226252 0
M  V30 5307 H 508.686 -3.03459 -2.42579 0
M  V30 5308 H 510.358 -4.60059 -0.338121 0
M  V30 5309 H 508.601 -4.33086 -0.248705 0
M  V30 5310 H 509.272 -5.29208 -1.5698 0
M  V30 5311 H 511.748 -3.49332 -2.26067 0
M  V30 5312 H 510.624 -4.35183 -3.34526 0
M  V30 5313 H 510.885 -2.62754 -3.55546 0
M  V30 5314 N 509.944 0.496216 -1.49584 0
M  V30 5315 C 511.19 1.25189 -1.59548 0
M  V30 5316 C 511.523 1.9212 -0.283466 0
M  V30 5317 O 510.798 1.80947 0.713324 0
M  V30 5318 C 511.081 2.31516 -2.75812 0
M  V30 5319 C 510.934 1.69054 -4.16822 0
M  V30 5320 C 512.253 3.3304 -2.87702 0
M  V30 5321 H 509.372 0.45379 -0.580727 0
M  V30 5322 H 512.014 0.549327 -1.81886 0
M  V30 5323 H 510.164 2.91438 -2.56897 0
M  V30 5324 H 511.836 1.12923 -4.47265 0
M  V30 5325 H 510.079 0.994485 -4.22247 0
M  V30 5326 H 510.75 2.462 -4.94054 0
M  V30 5327 H 513.226 2.83114 -3.04936 0
M  V30 5328 H 512.102 4.04794 -3.7072 0
M  V30 5329 H 512.363 3.95655 -1.97255 0
M  V30 5330 N 511.423 1.38739 0.74761 0
M  V30 5331 C 512.355 1.32341 1.87132 0
M  V30 5332 C 513.368 0.234502 1.61102 0
M  V30 5333 O 514.557 0.492516 1.71571 0
M  V30 5334 C 511.657 1.02915 3.22896 0
M  V30 5335 C 510.83 2.22834 3.76383 0
M  V30 5336 C 509.889 1.90059 4.90677 0
M  V30 5337 O 508.915 2.62615 5.04997 0
M  V30 5338 N 510.117 0.859141 5.74107 0
M  V30 5339 H 512.882 2.29175 1.93129 0
M  V30 5340 H 510.443 1.32678 0.927805 0
M  V30 5341 H 512.435 0.79031 3.96908 0
M  V30 5342 H 511.005 0.148572 3.12247 0
M  V30 5343 H 510.225 2.62747 2.93867 0
M  V30 5344 H 511.513 3.02851 4.08851 0
M  V30 5345 H 510.911 0.257564 5.65113 0
M  V30 5346 H 509.468 0.680189 6.48241 0
M  V30 5347 N 512.901 -0.976442 1.23707 0
M  V30 5348 C 514.129 -1.75341 1.09833 0
M  V30 5349 C 514.544 -1.8553 -0.349885 0
M  V30 5350 O 513.901 -1.33732 -1.24185 0
M  V30 5351 C 513.952 -3.17833 1.72233 0
M  V30 5352 O 513.673 -3.08167 3.11391 0
M  V30 5353 C 515.174 -4.11906 1.63853 0
M  V30 5354 H 512.394 -0.550137 0.384175 0
M  V30 5355 H 514.938 -1.2265 1.63638 0
M  V30 5356 H 513.093 -3.67538 1.22452 0
M  V30 5357 H 513.507 -3.97897 3.41729 0
M  V30 5358 H 514.981 -5.09579 2.12211 0
M  V30 5359 H 515.458 -4.35109 0.598092 0
M  V30 5360 H 516.064 -3.68107 2.13019 0
M  V30 5361 N 514.379 -1.04941 -1.1758 0
M  V30 5362 C 515.625 -0.759112 -1.88057 0
M  V30 5363 C 515.958 0.711918 -1.8068 0
M  V30 5364 O 515.233 1.52035 -1.21308 0
M  V30 5365 C 515.516 -1.237 -3.38187 0
M  V30 5366 C 515.369 -2.77078 -3.54327 0
M  V30 5367 C 516.688 -0.834014 -4.32125 0
M  V30 5368 H 513.807 -0.277237 -0.682868 0
M  V30 5369 H 516.449 -1.30296 -1.38286 0
M  V30 5370 H 514.599 -0.774337 -3.80705 0
M  V30 5371 H 516.271 -3.31449 -3.20842 0
M  V30 5372 H 514.514 -3.16477 -2.96689 0
M  V30 5373 H 515.185 -3.05577 -4.59703 0
M  V30 5374 H 517.661 -1.23228 -3.97434 0
M  V30 5375 H 516.537 -1.19603 -5.35711 0
M  V30 5376 H 516.798 0.262195 -4.41322 0
M  V30 5377 N 515.857 1.33968 -0.830081 0
M  V30 5378 C 517.273 1.51003 -0.516742 0
M  V30 5379 C 517.473 1.77286 0.957694 0
M  V30 5380 O 516.529 1.82797 1.74188 0
M  V30 5381 C 517.842 2.67036 -1.38247 0
M  V30 5382 C 519.39 2.80919 -1.38034 0
M  V30 5383 C 519.865 4.00004 -2.23071 0
M  V30 5384 N 521.356 4.07224 -2.20733 0
M  V30 5385 C 522.091 4.98541 -2.83275 0
M  V30 5386 N 521.587 5.95033 -3.54835 0
M  V30 5387 N 523.38 4.91469 -2.72791 0
M  V30 5388 H 515.531 1.15168 -1.78466 0
M  V30 5389 H 517.794 0.565443 -0.760906 0
M  V30 5390 H 517.5 2.54266 -2.42985 0
M  V30 5391 H 517.374 3.62226 -1.05225 0
M  V30 5392 H 519.761 2.93127 -0.340713 0
M  V30 5393 H 519.842 1.86517 -1.75057 0
M  V30 5394 H 519.486 3.88557 -3.27087 0
M  V30 5395 H 519.416 4.93634 -1.83394 0
M  V30 5396 H 521.907 3.38162 -1.68687 0
M  V30 5397 H 522.22 6.61357 -3.99784 0
M  V30 5398 H 520.565 5.95135 -3.58942 0
M  V30 5399 H 523.756 4.15048 -2.16456 0
M  V30 5400 H 523.929 5.62439 -3.21818 0
M  V30 5401 N 517.335 0.585699 1.46312 0
M  V30 5402 C 518.56 0.0762461 2.0726 0
M  V30 5403 C 518.985 -1.22071 1.43109 0
M  V30 5404 O 518.343 -1.73804 0.515942 0
M  V30 5405 C 518.391 -0.0729404 3.60526 0
M  V30 5406 O 517.495 -1.1287 3.96654 0
M  V30 5407 H 516.836 0.0641558 0.660893 0
M  V30 5408 H 519.366 0.809492 1.87905 0
M  V30 5409 H 519.376 -0.278158 4.07051 0
M  V30 5410 H 518.051 0.874188 4.06609 0
M  V30 5411 H 516.628 -0.901703 3.61834 0
M  V30 5412 N 518.813 -1.54241 0.323641 0
M  V30 5413 C 520.038 -2.05452 -0.283605 0
M  V30 5414 C 520.463 -1.19823 -1.44997 0
M  V30 5415 O 519.821 -0.207358 -1.8011 0
M  V30 5416 C 519.869 -3.53823 -0.695795 0
M  V30 5417 O 518.973 -3.71134 -1.79815 0
M  V30 5418 H 518.314 -0.662024 -0.0511917 0
M  V30 5419 H 520.844 -1.99079 0.472073 0
M  V30 5420 H 520.854 -3.96094 -0.978434 0
M  V30 5421 H 519.529 -4.15602 0.157287 0
M  V30 5422 H 518.106 -3.40768 -1.51431 0
M  V30 5423 N 520.291 -0.0518155 -1.57515 0
M  V30 5424 C 521.538 0.621823 -1.92716 0
M  V30 5425 C 521.866 1.70813 -0.930229 0
M  V30 5426 O 521.121 1.95616 0.0573708 0
M  V30 5427 C 521.42 1.25607 -3.34601 0
M  V30 5428 C 521.086 0.297901 -4.49915 0
M  V30 5429 C 519.748 0.034243 -4.81188 0
M  V30 5430 C 522.1 -0.358738 -5.19964 0
M  V30 5431 C 519.428 -0.893479 -5.79857 0
M  V30 5432 C 521.78 -1.27466 -6.19625 0
M  V30 5433 C 520.444 -1.54698 -6.49326 0
M  V30 5434 H 519.714 0.227541 -0.705199 0
M  V30 5435 H 522.361 -0.118432 -1.91133 0
M  V30 5436 H 520.666 2.07161 -3.32553 0
M  V30 5437 H 522.363 1.78424 -3.59118 0
M  V30 5438 H 518.953 0.513581 -4.25512 0
M  V30 5439 H 523.137 -0.168133 -4.96015 0
M  V30 5440 H 518.393 -1.11193 -6.01204 0
M  V30 5441 H 522.567 -1.78953 -6.73015 0
M  V30 5442 H 520.194 -2.26748 -7.25596 0
M  V30 5443 N 521.769 1.56035 0.221574 0
M  V30 5444 C 522.717 1.93269 1.29421 0
M  V30 5445 C 523.711 0.814727 1.48521 0
M  V30 5446 O 524.917 0.999559 1.49696 0
M  V30 5447 H 521.292 0.614188 0.43391 0
M  V30 5448 H 523.263 2.82773 0.952987 0
M  V30 5449 C 522.012 2.26573 2.63742 0
M  V30 5450 H 521.335 3.12112 2.49853 0
M  V30 5451 H 522.775 2.5651 3.37607 0
M  V30 5452 C 521.234 1.09086 3.1875 0
M  V30 5453 O 521.764 0.351985 4.00155 0
M  V30 5454 N 519.97 0.874693 2.77124 0
M  V30 5455 H 519.517 1.47726 2.11033 0
M  V30 5456 H 519.475 0.0903349 3.1427 0
M  V30 5457 N 523.247 -0.488276 1.49845 0
M  V30 5458 C 524.195 -1.60917 1.67954 0
M  V30 5459 C 525.189 -1.6038 0.54539 0
M  V30 5460 O 526.395 -1.64736 0.7254 0
M  V30 5461 H 522.77 -0.533658 0.529824 0
M  V30 5462 H 524.741 -1.428 2.62013 0
M  V30 5463 C 523.49 -2.98975 1.77509 0
M  V30 5464 H 522.813 -3.00099 2.6416 0
M  V30 5465 H 524.253 -3.76906 1.9421 0
M  V30 5466 C 522.712 -3.3282 0.522745 0
M  V30 5467 O 523.242 -4.00208 -0.345866 0
M  V30 5468 N 521.448 -2.8808 0.381882 0
M  V30 5469 H 520.995 -2.33415 1.08974 0
M  V30 5470 H 520.953 -3.11091 -0.454929 0
M  V30 5471 N 524.725 -1.39134 -0.740242 0
M  V30 5472 C 525.974 -1.35384 -1.49512 0
M  V30 5473 C 526.287 0.04919 -1.95538 0
M  V30 5474 O 527.493 0.209257 -2.70692 0
M  V30 5475 C 525.949 -2.37812 -2.70136 0
M  V30 5476 C 525.557 -3.83804 -2.31081 0
M  V30 5477 C 527.301 -2.4313 -3.47977 0
M  V30 5478 C 525.208 -4.77886 -3.48395 0
M  V30 5479 H 524.138 -0.503297 -0.561434 0
M  V30 5480 H 526.789 -1.64754 -0.807974 0
M  V30 5481 H 525.171 -2.01505 -3.40899 0
M  V30 5482 H 526.345 -4.29123 -1.67898 0
M  V30 5483 H 524.66 -3.81732 -1.66343 0
M  V30 5484 H 527.257 -3.10614 -4.35228 0
M  V30 5485 H 527.6 -1.45423 -3.90074 0
M  V30 5486 H 528.133 -2.78304 -2.84239 0
M  V30 5487 H 524.872 -5.76836 -3.11353 0
M  V30 5488 H 524.392 -4.3725 -4.10576 0
M  V30 5489 H 526.071 -4.96538 -4.148 0
M  V30 5490 N 526.204 0.969867 -1.24223 0
M  V30 5491 C 527.152 2.08535 -1.03034 0
M  V30 5492 C 528.146 1.69366 0.0340379 0
M  V30 5493 O 529.352 1.79597 -0.12034 0
M  V30 5494 H 525.727 0.682313 -0.316154 0
M  V30 5495 H 527.698 2.23569 -1.97635 0
M  V30 5496 C 526.447 3.4158 -0.649509 0
M  V30 5497 H 525.77 3.72177 -1.46028 0
M  V30 5498 H 527.21 4.20536 -0.540841 0
M  V30 5499 C 525.669 3.30703 0.643194 0
M  V30 5500 O 526.199 3.64443 1.68951 0
M  V30 5501 N 524.405 2.83841 0.623095 0
M  V30 5502 H 523.952 2.56583 -0.228719 0
M  V30 5503 H 523.91 2.76946 1.48823 0
M  V30 5504 N 527.682 1.05563 1.17022 0
M  V30 5505 C 528.645 0.664098 2.19368 0
M  V30 5506 C 529.645 -0.286358 1.5823 0
M  V30 5507 O 530.835 -0.069728 1.7406 0
M  V30 5508 C 527.967 -0.0239932 3.40892 0
M  V30 5509 H 529.16 1.57 2.55521 0
M  V30 5510 H 526.713 0.849964 1.31169 0
M  V30 5511 H 527.448 -0.942988 3.10287 0
M  V30 5512 H 527.233 0.659351 3.86516 0
M  V30 5513 H 528.723 -0.283909 4.16634 0
M  V30 5514 N 529.16 -1.33526 0.837174 0
M  V30 5515 C 530.385 -2.0258 0.444545 0
M  V30 5516 C 530.81 -1.6258 -0.946006 0
M  V30 5517 O 530.168 -0.817548 -1.6182 0
M  V30 5518 C 530.216 -3.5605 0.571006 0
M  V30 5519 O 529.32 -4.10422 -0.403431 0
M  V30 5520 H 528.661 -0.638866 0.180958 0
M  V30 5521 H 531.191 -1.70462 1.13154 0
M  V30 5522 H 531.201 -4.05488 0.452024 0
M  V30 5523 H 529.876 -3.84509 1.58512 0
M  V30 5524 H 528.453 -3.72113 -0.242147 0
M  V30 5525 N 530.638 -0.59345 -1.46 0
M  V30 5526 C 531.887 -0.0808084 -2.01538 0
M  V30 5527 C 532.2 1.29112 -1.46934 0
M  V30 5528 O 533.406 1.8957 -1.94359 0
M  V30 5529 C 531.862 -0.0938311 -3.59778 0
M  V30 5530 C 531.47 -1.46474 -4.23379 0
M  V30 5531 C 533.214 0.364306 -4.22934 0
M  V30 5532 C 531.121 -1.4349 -5.73729 0
M  V30 5533 H 530.051 -0.0264407 -0.753536 0
M  V30 5534 H 532.702 -0.746689 -1.67621 0
M  V30 5535 H 531.084 0.638427 -3.9082 0
M  V30 5536 H 532.258 -2.21758 -4.03931 0
M  V30 5537 H 530.573 -1.86379 -3.7236 0
M  V30 5538 H 533.17 0.405584 -5.3316 0
M  V30 5539 H 533.513 1.38409 -3.92618 0
M  V30 5540 H 534.046 -0.31423 -3.96557 0
M  V30 5541 H 530.785 -2.43184 -6.08722 0
M  V30 5542 H 530.305 -0.724431 -5.95409 0
M  V30 5543 H 531.984 -1.15243 -6.36654 0
M  V30 5544 N 532.116 1.54067 -0.331816 0
M  V30 5545 C 533.341 2.05599 0.272705 0
M  V30 5546 C 533.766 1.2059 1.44359 0
M  V30 5547 O 533.124 0.216907 1.79998 0
M  V30 5548 C 533.172 3.54188 0.677021 0
M  V30 5549 O 532.276 3.72082 1.77844 0
M  V30 5550 H 531.617 0.662286 0.0476801 0
M  V30 5551 H 534.147 1.98826 -0.482624 0
M  V30 5552 H 534.157 3.96608 0.957415 0
M  V30 5553 H 532.832 4.15513 -0.179325 0
M  V30 5554 H 531.409 3.41566 1.49622 0
M  V30 5555 N 533.594 0.0601682 1.57485 0
M  V30 5556 C 534.819 -0.624416 1.97777 0
M  V30 5557 C 535.244 -1.63051 0.937867 0
M  V30 5558 O 534.602 -1.81036 -0.0978845 0
M  V30 5559 C 534.65 -1.27979 3.37126 0
M  V30 5560 O 533.754 -2.39556 3.35688 0
M  V30 5561 H 533.095 -0.161581 0.64404 0
M  V30 5562 H 535.625 0.131237 2.04179 0
M  V30 5563 H 535.635 -1.62937 3.74053 0
M  V30 5564 H 534.31 -0.542501 4.12347 0
M  V30 5565 H 532.887 -2.06478 3.10517 0
M  V30 5566 N 535.072 -1.5615 -0.213296 0
M  V30 5567 C 536.321 -1.78743 -0.93455 0
M  V30 5568 C 536.634 -0.630199 -1.8517 0
M  V30 5569 O 537.84 -0.739966 -2.61222 0
M  V30 5570 C 536.296 -3.16571 -1.71203 0
M  V30 5571 C 535.904 -4.40043 -0.840617 0
M  V30 5572 C 537.648 -3.48485 -2.42401 0
M  V30 5573 C 535.555 -5.68895 -1.61592 0
M  V30 5574 H 534.485 -0.666426 -0.352692 0
M  V30 5575 H 537.136 -1.82532 -0.188227 0
M  V30 5576 H 535.518 -3.06981 -2.50157 0
M  V30 5577 H 536.692 -4.6071 -0.0910326 0
M  V30 5578 H 535.007 -4.15706 -0.240365 0
M  V30 5579 H 537.604 -4.41983 -3.00924 0
M  V30 5580 H 537.947 -2.71371 -3.15695 0
M  V30 5581 H 538.48 -3.59442 -1.7043 0
M  V30 5582 H 535.219 -6.48925 -0.926106 0
M  V30 5583 H 534.739 -5.52275 -2.33991 0
M  V30 5584 H 536.418 -6.09365 -2.17447 0
M  V30 5585 N 536.55 0.480323 -1.50102 0
M  V30 5586 C 537.498 1.60024 -1.68805 0
M  V30 5587 C 538.492 1.60089 -0.553888 0
M  V30 5588 O 539.698 1.64349 -0.734127 0
M  V30 5589 H 536.073 0.530841 -0.532646 0
M  V30 5590 H 538.044 1.41408 -2.62767 0
M  V30 5591 C 536.793 2.98029 -1.79092 0
M  V30 5592 H 536.116 2.98694 -2.65748 0
M  V30 5593 H 537.556 3.75871 -1.96206 0
M  V30 5594 C 536.015 3.32538 -0.540388 0
M  V30 5595 O 536.545 4.00386 0.324637 0
M  V30 5596 N 534.751 2.87873 -0.397154 0
M  V30 5597 H 534.298 2.32834 -1.1021 0
M  V30 5598 H 534.256 3.11328 0.438425 0
M  V30 5599 N 538.028 1.39524 0.732853 0
M  V30 5600 C 538.991 1.38189 1.82857 0
M  V30 5601 C 539.991 0.278624 1.58368 0
M  V30 5602 O 541.181 0.536639 1.65728 0
M  V30 5603 C 538.313 1.15661 3.2068 0
M  V30 5604 H 539.506 2.35692 1.85444 0
M  V30 5605 H 537.059 1.2512 0.936728 0
M  V30 5606 H 537.794 0.188482 3.23752 0
M  V30 5607 H 537.579 1.95559 3.39852 0
M  V30 5608 H 539.069 1.17472 4.00737 0
M  V30 5609 N 539.506 -0.963266 1.24736 0
M  V30 5610 C 540.736 -1.73913 1.11524 0
M  V30 5611 C 541.144 -1.86218 -0.334612 0
M  V30 5612 O 540.487 -1.3531 -1.24245 0
M  V30 5613 C 540.549 -3.17501 1.68622 0
M  V30 5614 C 540.213 -3.28655 3.17546 0
M  V30 5615 C 541.21 -3.13637 4.14642 0
M  V30 5616 C 538.895 -3.52753 3.5759 0
M  V30 5617 C 540.889 -3.2255 5.49764 0
M  V30 5618 C 538.576 -3.61303 4.92852 0
M  V30 5619 C 539.574 -3.46214 5.88748 0
M  V30 5620 O 539.262 -3.5443 7.2155 0
M  V30 5621 H 538.994 -0.552057 0.390139 0
M  V30 5622 H 541.548 -1.2177 1.65412 0
M  V30 5623 H 539.778 -3.70969 1.09172 0
M  V30 5624 H 541.467 -3.76914 1.50635 0
M  V30 5625 H 542.233 -2.94899 3.85045 0
M  V30 5626 H 538.112 -3.63561 2.83451 0
M  V30 5627 H 541.656 -3.1069 6.24594 0
M  V30 5628 H 537.553 -3.79556 5.22118 0
M  V30 5629 H 538.321 -3.71116 7.29531 0
M  V30 5630 N 540.985 -1.06182 -1.16461 0
M  V30 5631 C 541.932 -0.671613 -2.20812 0
M  V30 5632 C 542.902 0.331186 -1.62765 0
M  V30 5633 O 544.087 0.22033 -1.89524 0
M  V30 5634 C 541.227 -0.063029 -3.45042 0
M  V30 5635 C 540.34 -1.11587 -4.1734 0
M  V30 5636 C 539.475 -0.473546 -5.29085 0
M  V30 5637 C 538.514 -1.51 -5.93182 0
M  V30 5638 N 537.651 -0.891118 -6.96422 0
M  V30 5639 H 542.491 -1.56589 -2.53542 0
M  V30 5640 H 540.028 -0.782951 -1.24532 0
M  V30 5641 H 541.986 0.307344 -4.16066 0
M  V30 5642 H 540.616 0.794663 -3.12866 0
M  V30 5643 H 539.668 -1.60396 -3.44931 0
M  V30 5644 H 540.98 -1.90221 -4.61104 0
M  V30 5645 H 540.134 -0.0501432 -6.06679 0
M  V30 5646 H 538.873 0.344687 -4.8648 0
M  V30 5647 H 537.878 -1.94331 -5.14311 0
M  V30 5648 H 539.103 -2.33031 -6.37866 0
M  V30 5649 H 537.049 -0.0935753 -6.55933 0
M  V30 5650 H 536.966 -1.61486 -7.38551 0
M  V30 5651 H 538.234 -0.492822 -7.77941 0
M  V30 5652 N 542.463 1.3308 -0.844243 0
M  V30 5653 C 543.395 2.27954 -0.238671 0
M  V30 5654 C 544.408 1.51978 0.583665 0
M  V30 5655 O 545.597 1.73731 0.409857 0
M  V30 5656 C 542.697 3.31963 0.682185 0
M  V30 5657 C 541.87 4.37281 -0.101998 0
M  V30 5658 C 540.929 5.20928 0.743022 0
M  V30 5659 O 539.955 5.68914 0.180285 0
M  V30 5660 N 541.157 5.42738 2.0595 0
M  V30 5661 H 543.922 2.8056 -1.05386 0
M  V30 5662 H 541.483 1.4583 -0.70322 0
M  V30 5663 H 543.475 3.84828 1.25259 0
M  V30 5664 H 542.045 2.79594 1.39808 0
M  V30 5665 H 541.265 3.84843 -0.853802 0
M  V30 5666 H 542.553 5.04746 -0.641015 0
M  V30 5667 H 541.951 5.05463 2.54016 0
M  V30 5668 H 540.508 5.98639 2.57827 0
M  V30 5669 N 543.941 0.601185 1.45683 0
M  V30 5670 C 544.904 -0.111398 2.28929 0
M  V30 5671 C 545.904 -0.801246 1.39416 0
M  V30 5672 O 547.094 -0.650383 1.61603 0
M  V30 5673 C 544.226 -1.16773 3.20276 0
M  V30 5674 H 545.419 0.620412 2.93413 0
M  V30 5675 H 542.972 0.359946 1.52099 0
M  V30 5676 H 543.707 -1.93051 2.60579 0
M  V30 5677 H 543.492 -0.677358 3.86205 0
M  V30 5678 H 544.982 -1.66698 3.82886 0
M  V30 5679 N 545.419 -1.53889 0.339982 0
M  V30 5680 C 546.665 -2.01152 -0.258003 0
M  V30 5681 C 546.998 -1.22749 -1.50487 0
M  V30 5682 O 546.273 -0.314156 -1.91946 0
M  V30 5683 C 546.556 -3.55468 -0.575717 0
M  V30 5684 C 546.409 -4.44584 0.682996 0
M  V30 5685 C 547.728 -4.1768 -1.38677 0
M  V30 5686 H 544.847 -0.731198 -0.0922992 0
M  V30 5687 H 547.489 -1.84352 0.459814 0
M  V30 5688 H 545.639 -3.69914 -1.18725 0
M  V30 5689 H 547.311 -4.41981 1.32102 0
M  V30 5690 H 545.554 -4.13592 1.3086 0
M  V30 5691 H 546.225 -5.5043 0.416001 0
M  V30 5692 H 548.701 -4.0691 -0.869705 0
M  V30 5693 H 547.577 -5.25734 -1.57783 0
M  V30 5694 H 547.838 -3.72069 -2.38782 0
M  V30 5695 N 546.897 -0.0685191 -1.57451 0
M  V30 5696 C 548.143 0.602239 -1.93652 0
M  V30 5697 C 548.476 1.6946 -0.948526 0
M  V30 5698 O 547.751 1.94487 0.022782 0
M  V30 5699 C 548.034 1.18223 -3.4014 0
M  V30 5700 C 547.887 0.0967431 -4.49696 0
M  V30 5701 C 549.206 2.08872 -3.87377 0
M  V30 5702 H 546.325 0.217453 -0.70419 0
M  V30 5703 H 548.967 -0.133821 -1.89528 0
M  V30 5704 H 547.117 1.80953 -3.43785 0
M  V30 5705 H 548.789 -0.536155 -4.58174 0
M  V30 5706 H 547.032 -0.573063 -4.29998 0
M  V30 5707 H 547.703 0.542894 -5.49324 0
M  V30 5708 H 550.179 1.56081 -3.85717 0
M  V30 5709 H 549.055 2.46389 -4.90493 0
M  V30 5710 H 549.316 2.99572 -3.25129 0
M  V30 5711 N 548.375 1.56261 0.205012 0
M  V30 5712 C 549.6 1.84491 0.947512 0
M  V30 5713 C 550.025 0.650894 1.76479 0
M  V30 5714 O 549.383 -0.40035 1.76824 0
M  V30 5715 C 549.431 3.10863 1.82747 0
M  V30 5716 O 548.535 2.90719 2.925 0
M  V30 5717 H 547.876 0.607783 0.267386 0
M  V30 5718 H 550.406 2.03485 0.213323 0
M  V30 5719 H 550.416 3.41399 2.23407 0
M  V30 5720 H 549.091 3.97392 1.2269 0
M  V30 5721 H 547.668 2.71457 2.55667 0
M  V30 5722 N 549.853 -0.472356 1.50355 0
M  V30 5723 C 550.816 -1.5529 1.68576 0
M  V30 5724 C 551.816 -1.50863 0.556511 0
M  V30 5725 O 553.006 -1.53505 0.823516 0
M  V30 5726 C 550.138 -2.94921 1.70981 0
M  V30 5727 H 551.331 -1.40451 2.64978 0
M  V30 5728 H 548.884 -0.698645 1.39816 0
M  V30 5729 H 549.619 -3.15204 0.762675 0
M  V30 5730 H 549.404 -2.99541 2.53017 0
M  V30 5731 H 550.894 -3.73372 1.87037 0
M  V30 5732 N 551.331 -1.39911 -0.725443 0
M  V30 5733 C 552.263 -1.35301 -1.85003 0
M  V30 5734 C 553.276 -0.260102 -1.60709 0
M  V30 5735 O 554.465 -0.519749 -1.70766 0
M  V30 5736 C 551.565 -1.08039 -3.21218 0
M  V30 5737 C 550.738 -2.28793 -3.7279 0
M  V30 5738 C 549.797 -1.97841 -4.87591 0
M  V30 5739 O 548.823 -2.70616 -5.00755 0
M  V30 5740 N 550.025 -0.950367 -5.72668 0
M  V30 5741 H 552.79 -2.32218 -1.89459 0
M  V30 5742 H 550.351 -1.34137 -0.90658 0
M  V30 5743 H 552.343 -0.853354 -3.95601 0
M  V30 5744 H 550.913 -0.198229 -3.11971 0
M  V30 5745 H 550.133 -2.67388 -2.8965 0
M  V30 5746 H 551.421 -3.09317 -4.03981 0
M  V30 5747 H 550.819 -0.347436 -5.64632 0
M  V30 5748 H 549.376 -0.783232 -6.47077 0
M  V30 5749 N 552.809 0.956637 -1.25245 0
M  V30 5750 C 554.034 1.74104 -1.12706 0
M  V30 5751 C 554.459 1.85436 0.315429 0
M  V30 5752 O 553.817 1.33334 1.22848 0
M  V30 5753 C 553.865 3.1338 -1.78396 0
M  V30 5754 O 552.969 3.98485 -1.06224 0
M  V30 5755 H 552.31 0.53476 -0.393609 0
M  V30 5756 H 554.84 1.19924 -1.65769 0
M  V30 5757 H 554.85 3.6385 -1.846 0
M  V30 5758 H 553.525 3.04448 -2.83345 0
M  V30 5759 H 552.102 3.56952 -1.07886 0
M  V30 5760 N 554.287 1.06798 1.15896 0
M  V30 5761 C 555.512 0.808739 1.90982 0
M  V30 5762 C 555.937 -0.6316 1.77179 0
M  V30 5763 O 555.295 -1.4407 1.10061 0
M  V30 5764 C 555.343 1.21468 3.39526 0
M  V30 5765 O 554.447 0.356562 4.10856 0
M  V30 5766 H 553.788 0.29512 0.594811 0
M  V30 5767 H 556.318 1.42513 1.46804 0
M  V30 5768 H 556.328 1.18844 3.90308 0
M  V30 5769 H 555.003 2.26379 3.48891 0
M  V30 5770 H 553.58 0.444808 3.70238 0
M  V30 5771 N 555.766 -1.3263 0.851289 0
M  V30 5772 C 556.696 -2.31449 0.308771 0
M  V30 5773 C 557.677 -1.59531 -0.590255 0
M  V30 5774 O 558.862 -1.87351 -0.511205 0
M  V30 5775 C 555.992 -3.43586 -0.506548 0
M  V30 5776 C 554.946 -4.26963 0.297753 0
M  V30 5777 C 554.272 -5.30831 -0.642094 0
M  V30 5778 C 555.572 -4.99643 1.52166 0
M  V30 5779 H 557.266 -2.77074 1.13447 0
M  V30 5780 H 554.812 -1.33207 0.546971 0
M  V30 5781 H 556.765 -4.11754 -0.896474 0
M  V30 5782 H 555.489 -2.96681 -1.36558 0
M  V30 5783 H 554.148 -3.60437 0.669391 0
M  V30 5784 H 553.796 -4.8018 -1.49788 0
M  V30 5785 H 553.496 -5.87501 -0.107968 0
M  V30 5786 H 555.02 -6.01862 -1.02927 0
M  V30 5787 H 556.434 -5.6051 1.20421 0
M  V30 5788 H 554.831 -5.66022 1.99347 0
M  V30 5789 H 555.901 -4.27701 2.28474 0
M  V30 5790 N 557.244 -0.608902 -1.45362 0
M  V30 5791 C 558.521 -0.0365378 -1.95566 0
M  V30 5792 C 558.901 1.43169 -1.55131 0
M  V30 5793 O 558.249 2.1349 -0.814513 0
M  V30 5794 C 558.459 -0.236026 -3.48201 0
M  V30 5795 C 559.807 -0.117518 -4.24437 0
M  V30 5796 O 560.831 -0.166217 -3.55812 0
M  V30 5797 O 559.69 -0.00372127 -5.465 0
M  V30 5798 H 556.784 0.0349874 -0.82626 0
M  V30 5799 H 559.33 -0.679055 -1.55521 0
M  V30 5800 H 558.102 -1.25569 -3.70605 0
M  V30 5801 H 557.725 0.441691 -3.95139 0
M  V30 5802 N 558.722 1.53707 -0.348139 0
M  V30 5803 C 559.685 2.23812 0.494058 0
M  V30 5804 C 560.685 1.23989 1.02388 0
M  V30 5805 O 561.875 1.48395 0.912396 0
M  V30 5806 C 559.007 2.96133 1.68872 0
M  V30 5807 H 560.2 2.99663 -0.119141 0
M  V30 5808 H 557.753 1.55983 -0.0995539 0
M  V30 5809 H 558.488 2.24481 2.34049 0
M  V30 5810 H 558.273 3.69357 1.31596 0
M  V30 5811 H 559.763 3.49475 2.28597 0
M  V30 5812 N 560.2 0.0768682 1.57412 0
M  V30 5813 C 561.133 -0.924685 2.08626 0
M  V30 5814 C 562.111 -1.28792 0.992542 0
M  V30 5815 O 563.295 -1.39634 1.26628 0
M  V30 5816 C 560.422 -2.23131 2.54814 0
M  V30 5817 C 559.468 -2.01928 3.75669 0
M  V30 5818 S 560.301 -1.27397 5.20125 0
M  V30 5819 C 561.457 -2.59329 5.69648 0
M  V30 5820 H 561.69 -0.488928 2.93252 0
M  V30 5821 H 559.223 -0.136014 1.538 0
M  V30 5822 H 561.181 -2.98226 2.82084 0
M  V30 5823 H 559.842 -2.63831 1.70447 0
M  V30 5824 H 559.035 -2.98639 4.05993 0
M  V30 5825 H 558.637 -1.34967 3.48798 0
M  V30 5826 H 560.929 -3.55394 5.76803 0
M  V30 5827 H 561.872 -2.33608 6.68456 0
M  V30 5828 H 562.28 -2.66767 4.9749 0
M  V30 5829 N 561.678 -1.56367 -0.196722 0
M  V30 5830 C 562.588 -1.97617 -1.2643 0
M  V30 5831 C 563.604 -0.883598 -1.49895 0
M  V30 5832 O 564.78 -1.18921 -1.62541 0
M  V30 5833 C 561.845 -2.30595 -2.58895 0
M  V30 5834 C 560.906 -3.53551 -2.43516 0
M  V30 5835 C 560.139 -3.84946 -3.69665 0
M  V30 5836 O 560.362 -3.17655 -4.73763 0
M  V30 5837 O 559.296 -4.78379 -3.65291 0
M  V30 5838 H 563.122 -2.88648 -0.944233 0
M  V30 5839 H 560.707 -1.43901 -0.401592 0
M  V30 5840 H 562.589 -2.52889 -3.37083 0
M  V30 5841 H 561.264 -1.42732 -2.90533 0
M  V30 5842 H 560.171 -3.36507 -1.63445 0
M  V30 5843 H 561.504 -4.41875 -2.16812 0
M  V30 5844 N 563.156 0.464375 -1.50603 0
M  V30 5845 C 564.119 1.54393 -1.69397 0
M  V30 5846 C 565.119 1.50566 -0.564504 0
M  V30 5847 O 566.309 1.53066 -0.831645 0
M  V30 5848 C 563.441 2.9401 -1.72543 0
M  V30 5849 H 564.634 1.39044 -2.65719 0
M  V30 5850 H 562.187 0.69122 -1.40185 0
M  V30 5851 H 562.922 3.14795 -0.77938 0
M  V30 5852 H 562.707 2.98195 -2.54602 0
M  V30 5853 H 564.197 3.72375 -1.89015 0
M  V30 5854 N 564.634 1.40294 0.718013 0
M  V30 5855 C 565.882 1.38167 1.47494 0
M  V30 5856 C 566.203 -0.01607 1.94993 0
M  V30 5857 O 565.473 -0.970396 1.70177 0
M  V30 5858 H 564.053 0.508505 0.547203 0
M  V30 5859 H 566.715 1.75324 0.851322 0
M  V30 5860 H 565.811 2.05503 2.34894 0
M  V30 5861 N 566.112 -0.949982 1.2575 0
M  V30 5862 C 567.342 -1.72721 1.13363 0
M  V30 5863 C 567.75 -1.86562 -0.314842 0
M  V30 5864 O 567.093 -1.36621 -1.22803 0
M  V30 5865 C 567.155 -3.15695 1.7198 0
M  V30 5866 C 566.819 -3.25268 3.21014 0
M  V30 5867 C 567.816 -3.09222 4.17945 0
M  V30 5868 C 565.501 -3.4894 3.61312 0
M  V30 5869 C 567.495 -3.16701 5.53154 0
M  V30 5870 C 565.182 -3.56055 4.96657 0
M  V30 5871 C 566.18 -3.3995 5.92387 0
M  V30 5872 O 565.868 -3.46757 7.25269 0
M  V30 5873 H 565.6 -0.547888 0.395973 0
M  V30 5874 H 568.154 -1.20009 1.66694 0
M  V30 5875 H 566.384 -3.69791 1.13101 0
M  V30 5876 H 568.073 -3.75295 1.54624 0
M  V30 5877 H 568.839 -2.90798 3.88151 0
M  V30 5878 H 564.718 -3.60534 2.87291 0
M  V30 5879 H 568.262 -3.04048 6.27854 0
M  V30 5880 H 564.159 -3.73997 5.26115 0
M  V30 5881 H 564.927 -3.63358 7.33426 0
M  V30 5882 N 567.59 -1.07411 -1.15328 0
M  V30 5883 C 568.815 -0.818856 -1.90551 0
M  V30 5884 C 569.24 0.622194 -1.77512 0
M  V30 5885 O 568.598 1.43484 -1.10824 0
M  V30 5886 C 568.646 -1.23267 -3.38877 0
M  V30 5887 O 567.75 -0.378345 -4.10661 0
M  V30 5888 H 567.091 -0.29827 -0.593238 0
M  V30 5889 H 569.621 -1.43289 -1.46046 0
M  V30 5890 H 569.631 -1.20912 -3.89672 0
M  V30 5891 H 568.306 -2.28226 -3.47686 0
M  V30 5892 H 566.883 -0.464437 -3.69996 0
M  V30 5893 N 569.068 1.32177 -0.85831 0
M  V30 5894 C 570.314 1.97417 -0.46417 0
M  V30 5895 C 570.647 1.67746 0.978514 0
M  V30 5896 O 569.922 0.967654 1.68721 0
M  V30 5897 C 570.205 3.53069 -0.708094 0
M  V30 5898 C 570.058 3.92357 -2.19946 0
M  V30 5899 C 571.377 4.39783 -0.166881 0
M  V30 5900 H 568.496 0.717097 -0.17012 0
M  V30 5901 H 571.138 1.56499 -1.07741 0
M  V30 5902 H 569.288 3.88054 -0.186128 0
M  V30 5903 H 570.96 3.67533 -2.78779 0
M  V30 5904 H 569.203 3.41384 -2.67656 0
M  V30 5905 H 569.874 5.00841 -2.32082 0
M  V30 5906 H 572.35 4.11556 -0.613285 0
M  V30 5907 H 571.226 5.47671 -0.367093 0
M  V30 5908 H 571.487 4.32196 0.930559 0
M  V30 5909 N 570.547 0.616602 1.45037 0
M  V30 5910 C 571.795 0.115103 2.01772 0
M  V30 5911 C 572.116 -1.2622 1.48639 0
M  V30 5912 O 571.386 -1.83563 0.684199 0
M  V30 5913 H 569.966 0.0395607 0.745952 0
M  V30 5914 H 572.628 0.800032 1.77723 0
M  V30 5915 H 571.724 0.0717274 3.12018 0
M  V30 5916 N 572.025 -1.5352 0.356285 0
M  V30 5917 C 573.253 -2.05534 -0.237328 0
M  V30 5918 C 573.668 -1.23043 -1.43199 0
M  V30 5919 O 573.025 -0.268821 -1.80509 0
M  V30 5920 C 573.076 -3.55791 -0.639933 0
M  V30 5921 O 572.797 -4.35154 0.507233 0
M  V30 5922 C 574.298 -4.24027 -1.29292 0
M  V30 5923 H 571.518 -0.669585 -0.0435572 0
M  V30 5924 H 574.062 -1.97988 0.511963 0
M  V30 5925 H 572.217 -3.63518 -1.33915 0
M  V30 5926 H 572.631 -5.24178 0.18375 0
M  V30 5927 H 574.105 -5.30509 -1.52527 0
M  V30 5928 H 574.582 -3.77166 -2.25039 0
M  V30 5929 H 575.188 -4.20527 -0.63539 0
M  V30 5930 N 573.503 -0.0852151 -1.57369 0
M  V30 5931 C 574.919 0.271436 -1.57275 0
M  V30 5932 C 575.119 1.69109 -1.09565 0
M  V30 5933 O 574.175 2.40549 -0.767611 0
M  V30 5934 C 575.488 0.0688638 -3.00621 0
M  V30 5935 C 577.036 0.137373 -3.12698 0
M  V30 5936 C 577.511 -0.0370832 -4.57985 0
M  V30 5937 N 579.002 0.0180794 -4.63196 0
M  V30 5938 C 579.737 -0.0922953 -5.73326 0
M  V30 5939 N 579.233 -0.256948 -6.92323 0
M  V30 5940 N 581.026 -0.0342702 -5.6209 0
M  V30 5941 H 573.177 -1.01288 -1.86693 0
M  V30 5942 H 575.44 -0.396138 -0.861266 0
M  V30 5943 H 575.146 -0.911277 -3.39689 0
M  V30 5944 H 575.02 0.815442 -3.6828 0
M  V30 5945 H 577.407 1.10801 -2.73509 0
M  V30 5946 H 577.488 -0.640532 -2.47651 0
M  V30 5947 H 577.132 -1.00455 -4.97867 0
M  V30 5948 H 577.062 0.760392 -5.21081 0
M  V30 5949 H 579.553 0.143202 -3.77629 0
M  V30 5950 H 579.866 -0.332949 -7.72082 0
M  V30 5951 H 578.211 -0.292487 -6.94384 0
M  V30 5952 H 581.402 0.0931605 -4.68007 0
M  V30 5953 H 581.575 -0.12374 -6.47882 0
M  V30 5954 N 574.981 1.5647 0.188427 0
M  V30 5955 C 576.209 1.85131 0.923803 0
M  V30 5956 C 576.624 0.668537 1.76567 0
M  V30 5957 O 575.981 -0.362662 1.7886 0
M  V30 5958 C 576.032 3.12661 1.81453 0
M  V30 5959 O 575.753 4.26378 1.00665 0
M  V30 5960 C 577.254 3.54548 2.66103 0
M  V30 5961 H 574.474 0.614624 0.269218 0
M  V30 5962 H 577.018 2.03581 0.193671 0
M  V30 5963 H 575.173 2.96088 2.49821 0
M  V30 5964 H 575.587 4.99041 1.61425 0
M  V30 5965 H 577.061 4.4673 3.24247 0
M  V30 5966 H 577.538 2.77853 3.40139 0
M  V30 5967 H 578.144 3.73674 2.03096 0
M  V30 5968 N 576.459 -0.456382 1.50847 0
M  V30 5969 C 577.708 -1.2042 1.61808 0
M  V30 5970 C 578.021 -1.9278 0.330932 0
M  V30 5971 O 579.227 -2.69612 0.319643 0
M  V30 5972 C 577.683 -2.18891 2.85683 0
M  V30 5973 C 577.291 -1.52267 4.2133 0
M  V30 5974 C 579.035 -2.94224 3.05994 0
M  V30 5975 C 576.942 -2.4911 5.36375 0
M  V30 5976 H 575.872 -0.453177 0.602616 0
M  V30 5977 H 578.523 -0.473144 1.77295 0
M  V30 5978 H 576.905 -2.95351 2.63787 0
M  V30 5979 H 578.079 -0.814949 4.53536 0
M  V30 5980 H 576.394 -0.891594 4.06743 0
M  V30 5981 H 578.991 -3.66732 3.89117 0
M  V30 5982 H 579.334 -3.54469 2.18306 0
M  V30 5983 H 579.867 -2.24874 3.28141 0
M  V30 5984 H 576.606 -1.93582 6.26264 0
M  V30 5985 H 576.126 -3.17991 5.08569 0
M  V30 5986 H 577.805 -3.10637 5.67551 0
M  V30 5987 N 577.937 -1.40673 -0.710563 0
M  V30 5988 C 579.183 -1.39428 -1.47267 0
M  V30 5989 C 579.516 0.00182129 -1.942 0
M  V30 5990 O 578.791 0.971387 -1.68506 0
M  V30 5991 C 579.074 -2.38812 -2.6952 0
M  V30 5992 C 578.927 -3.87467 -2.28449 0
M  V30 5993 C 580.246 -2.3566 -3.71689 0
M  V30 5994 H 577.365 -0.507768 -0.534173 0
M  V30 5995 H 580.007 -1.71843 -0.810547 0
M  V30 5996 H 578.157 -2.113 -3.26013 0
M  V30 5997 H 579.829 -4.25825 -1.77399 0
M  V30 5998 H 578.072 -4.03058 -1.60395 0
M  V30 5999 H 578.743 -4.5253 -3.16103 0
M  V30 6000 H 581.219 -2.6004 -3.24836 0
M  V30 6001 H 580.095 -3.07237 -4.54859 0
M  V30 6002 H 580.356 -1.36996 -4.20339 0
M  V30 6003 N 579.415 0.9433 -1.26252 0
M  V30 6004 C 580.692 1.66639 -1.02424 0
M  V30 6005 C 581.072 2.06335 0.446006 0
M  V30 6006 O 580.42 1.78551 1.42589 0
M  V30 6007 C 580.63 2.88019 -1.97094 0
M  V30 6008 C 581.978 3.59718 -2.25584 0
M  V30 6009 O 583.002 2.9812 -1.94943 0
M  V30 6010 O 581.861 4.7066 -2.77743 0
M  V30 6011 H 578.955 0.729643 -0.389294 0
M  V30 6012 H 581.501 0.995218 -1.37454 0
M  V30 6013 H 580.273 2.5556 -2.96319 0
M  V30 6014 H 579.896 3.62863 -1.62532 0
M  V30 6015 N 580.893 1.08022 1.14757 0
M  V30 6016 C 582.139 0.808705 1.85978 0
M  V30 6017 C 582.472 -0.663764 1.82504 0
M  V30 6018 O 581.747 -1.48765 1.25296 0
M  V30 6019 C 582.03 1.32623 3.34788 0
M  V30 6020 C 581.883 2.86375 3.46856 0
M  V30 6021 C 583.202 0.948291 4.29762 0
M  V30 6022 H 580.321 0.295244 0.675278 0
M  V30 6023 H 582.963 1.33917 1.34783 0
M  V30 6024 H 581.113 0.875002 3.78518 0
M  V30 6025 H 582.785 3.39839 3.11941 0
M  V30 6026 H 581.028 3.24232 2.88194 0
M  V30 6027 H 581.699 3.17658 4.51439 0
M  V30 6028 H 584.175 1.33722 3.94028 0
M  V30 6029 H 583.051 1.33765 5.32352 0
M  V30 6030 H 583.312 -0.145094 4.41862 0
M  V30 6031 N 582.371 -1.3172 0.865308 0
M  V30 6032 C 583.301 -2.31109 0.333302 0
M  V30 6033 C 584.282 -1.60148 -0.573301 0
M  V30 6034 O 585.467 -1.87882 -0.491305 0
M  V30 6035 C 582.597 -3.44104 -0.470078 0
M  V30 6036 C 581.551 -4.26623 0.343021 0
M  V30 6037 C 580.877 -5.31482 -0.585756 0
M  V30 6038 C 582.177 -4.98001 1.57456 0
M  V30 6039 H 583.871 -2.75855 1.1638 0
M  V30 6040 H 581.417 -1.3262 0.561069 0
M  V30 6041 H 583.37 -4.12682 -0.852752 0
M  V30 6042 H 582.094 -2.98112 -1.33404 0
M  V30 6043 H 580.753 -3.59707 0.707583 0
M  V30 6044 H 580.401 -4.81741 -1.44686 0
M  V30 6045 H 580.101 -5.87582 -0.0456494 0
M  V30 6046 H 581.625 -6.0292 -0.965375 0
M  V30 6047 H 583.039 -5.59201 1.26359 0
M  V30 6048 H 581.436 -5.63876 2.05339 0
M  V30 6049 H 582.506 -4.25253 2.32997 0
M  V30 6050 N 583.85 -0.624285 -1.44708 0
M  V30 6051 C 585.127 -0.0572781 -1.95516 0
M  V30 6052 C 585.507 1.41516 -1.56641 0
M  V30 6053 O 584.855 2.12614 -0.837111 0
M  V30 6054 C 585.065 -0.272944 -3.47931 0
M  V30 6055 C 586.413 -0.162529 -4.24289 0
M  V30 6056 O 587.437 -0.203946 -3.55616 0
M  V30 6057 O 586.296 -0.0616847 -5.46465 0
M  V30 6058 H 583.389 0.0262219 -0.826584 0
M  V30 6059 H 585.936 -0.695512 -1.54793 0
M  V30 6060 H 584.707 -1.29492 -3.69253 0
M  V30 6061 H 584.331 0.399756 -3.95585 0
M  V30 6062 N 585.328 1.53329 -0.364422 0
M  V30 6063 C 586.291 2.24323 0.470292 0
M  V30 6064 C 587.291 1.25068 1.01067 0
M  V30 6065 O 588.481 1.49354 0.896605 0
M  V30 6066 C 585.613 2.97908 1.65722 0
M  V30 6067 H 586.806 2.9952 -0.150917 0
M  V30 6068 H 584.359 1.55868 -0.116092 0
M  V30 6069 H 585.094 2.2695 2.31655 0
M  V30 6070 H 584.879 3.70732 1.27671 0
M  V30 6071 H 586.369 3.5188 2.24878 0
M  V30 6072 N 586.806 0.0935595 1.57322 0
M  V30 6073 C 588.034 -0.578934 1.98635 0
M  V30 6074 C 588.449 -1.61819 0.972626 0
M  V30 6075 O 587.806 -1.82461 -0.0379638 0
M  V30 6076 C 587.857 -1.22802 3.40003 0
M  V30 6077 O 587.578 -0.230334 4.37494 0
M  V30 6078 C 589.079 -1.98627 3.96311 0
M  V30 6079 H 586.299 -0.155324 0.652775 0
M  V30 6080 H 588.843 0.172393 2.03772 0
M  V30 6081 H 586.998 -1.93029 3.35885 0
M  V30 6082 H 587.412 -0.698649 5.19826 0
M  V30 6083 H 588.886 -2.39405 4.97382 0
M  V30 6084 H 589.363 -2.85151 3.34044 0
M  V30 6085 H 589.969 -1.3322 4.03897 0
M  V30 6086 N 588.284 -1.56567 -0.180126 0
M  V30 6087 C 589.512 -1.85618 -0.913972 0
M  V30 6088 C 589.927 -0.677892 -1.7621 0
M  V30 6089 O 589.284 0.353171 -1.7905 0
M  V30 6090 C 589.335 -3.13619 -1.79793 0
M  V30 6091 O 589.056 -4.26906 -0.98402 0
M  V30 6092 C 590.557 -3.55954 -2.64219 0
M  V30 6093 H 587.777 -0.616043 -0.265954 0
M  V30 6094 H 590.321 -2.03681 -0.182872 0
M  V30 6095 H 588.476 -2.97409 -2.48247 0
M  V30 6096 H 588.89 -4.9989 -1.58776 0
M  V30 6097 H 590.364 -4.48444 -3.21873 0
M  V30 6098 H 590.841 -2.79653 -3.38661 0
M  V30 6099 H 591.447 -3.74746 -2.01111 0
M  V30 6100 N 589.762 0.448376 -1.51087 0
M  V30 6101 C 590.99 1.22143 -1.66999 0
M  V30 6102 C 591.405 1.85283 -0.362699 0
M  V30 6103 O 590.762 1.70236 0.65772 0
M  V30 6104 C 590.813 2.31357 -2.7777 0
M  V30 6105 O 590.534 1.70801 -4.03434 0
M  V30 6106 C 592.035 3.21836 -3.04855 0
M  V30 6107 H 589.255 0.368558 -0.560719 0
M  V30 6108 H 591.799 0.532618 -1.97442 0
M  V30 6109 H 589.954 2.95973 -2.49958 0
M  V30 6110 H 590.368 2.42895 -4.64868 0
M  V30 6111 H 591.842 3.94627 -3.85971 0
M  V30 6112 H 592.319 3.81949 -2.16821 0
M  V30 6113 H 592.925 2.62933 -3.34285 0
M  V30 6114 N 591.24 1.41047 0.703093 0
M  V30 6115 C 592.17 1.45067 1.82969 0
M  V30 6116 C 593.151 0.31016 1.67248 0
M  V30 6117 O 594.336 0.520548 1.87093 0
M  V30 6118 C 591.466 1.32478 3.2104 0
M  V30 6119 C 590.42 2.44262 3.51454 0
M  V30 6120 C 589.746 2.16742 4.88801 0
M  V30 6121 C 591.046 3.86606 3.51189 0
M  V30 6122 H 592.74 2.39353 1.79863 0
M  V30 6123 H 590.286 1.15206 0.863919 0
M  V30 6124 H 592.239 1.33904 3.99559 0
M  V30 6125 H 590.963 0.346735 3.24754 0
M  V30 6126 H 589.622 2.42107 2.75282 0
M  V30 6127 H 589.27 1.17299 4.89132 0
M  V30 6128 H 588.97 2.91643 5.10116 0
M  V30 6129 H 590.494 2.19872 5.69639 0
M  V30 6130 H 591.908 3.90517 4.19725 0
M  V30 6131 H 590.305 4.61128 3.84033 0
M  V30 6132 H 591.375 4.15296 2.50315 0
M  V30 6133 N 592.718 -0.936591 1.26751 0
M  V30 6134 C 593.948 -1.71509 1.15188 0
M  V30 6135 C 594.356 -1.86885 -0.295037 0
M  V30 6136 O 593.699 -1.37915 -1.21347 0
M  V30 6137 C 593.761 -3.13853 1.75318 0
M  V30 6138 C 593.425 -3.21845 3.24445 0
M  V30 6139 C 594.422 -3.04771 4.21201 0
M  V30 6140 C 592.107 -3.45088 3.64992 0
M  V30 6141 C 594.101 -3.10816 5.56482 0
M  V30 6142 C 591.788 -3.50767 5.00405 0
M  V30 6143 C 592.786 -3.33648 5.9596 0
M  V30 6144 O 592.474 -3.39045 7.28906 0
M  V30 6145 H 592.206 -0.543658 0.401761 0
M  V30 6146 H 594.76 -1.18234 1.67958 0
M  V30 6147 H 592.99 -3.6857 1.17016 0
M  V30 6148 H 594.679 -3.73634 1.58596 0
M  V30 6149 H 595.445 -2.86665 3.91214 0
M  V30 6150 H 591.324 -3.57467 2.91098 0
M  V30 6151 H 594.868 -2.97372 6.31043 0
M  V30 6152 H 590.765 -3.68396 5.30052 0
M  V30 6153 H 591.533 -3.55558 7.37238 0
M  V30 6154 N 594.196 -1.08629 -1.14182 0
M  V30 6155 C 595.144 -0.71284 -2.21408 0
M  V30 6156 C 596.138 0.282457 -1.67029 0
M  V30 6157 O 597.344 0.144783 -1.79417 0
M  V30 6158 H 593.719 -0.212497 -0.721352 0
M  V30 6159 H 595.69 -1.6265 -2.50175 0
M  V30 6160 C 594.439 -0.140704 -3.47415 0
M  V30 6161 H 593.762 -0.897739 -3.8959 0
M  V30 6162 H 595.202 0.0827677 -4.23919 0
M  V30 6163 C 593.661 1.122 -3.17668 0
M  V30 6164 O 594.191 2.20652 -3.35672 0
M  V30 6165 N 592.397 1.03328 -2.71609 0
M  V30 6166 H 591.944 0.150666 -2.57159 0
M  V30 6167 H 591.902 1.8789 -2.52081 0
M  V30 6168 N 595.674 1.31259 -0.872281 0
M  V30 6169 C 596.637 2.26744 -0.334656 0
M  V30 6170 C 597.637 1.52307 0.515681 0
M  V30 6171 O 598.827 1.71148 0.324656 0
M  V30 6172 C 595.959 3.36841 0.524482 0
M  V30 6173 H 597.152 2.75812 -1.17762 0
M  V30 6174 H 594.705 1.42232 -0.648064 0
M  V30 6175 H 595.44 2.93069 1.38855 0
M  V30 6176 H 595.225 3.92009 -0.0844299 0
M  V30 6177 H 596.715 4.07944 0.892838 0
M  V30 6178 N 597.152 0.631951 1.44375 0
M  V30 6179 C 598.099 -0.0724807 2.30686 0
M  V30 6180 C 599.069 -0.835975 1.43529 0
M  V30 6181 O 600.254 -0.816849 1.7243 0
M  V30 6182 C 597.394 -1.04753 3.28817 0
M  V30 6183 C 596.507 -0.282367 4.31076 0
M  V30 6184 C 595.642 -1.2493 5.163 0
M  V30 6185 C 594.681 -0.473349 6.10267 0
M  V30 6186 N 593.818 -1.39079 6.88187 0
M  V30 6187 H 598.658 0.669477 2.90383 0
M  V30 6188 H 596.195 0.341927 1.43071 0
M  V30 6189 H 598.153 -1.62623 3.842 0
M  V30 6190 H 596.783 -1.75661 2.70819 0
M  V30 6191 H 595.835 0.412268 3.78159 0
M  V30 6192 H 597.147 0.321955 4.9776 0
M  V30 6193 H 596.301 -1.89931 5.76204 0
M  V30 6194 H 595.04 -1.88755 4.49692 0
M  V30 6195 H 594.045 0.190142 5.49471 0
M  V30 6196 H 595.27 0.16019 6.78911 0
M  V30 6197 H 593.216 -2.01623 6.24247 0
M  V30 6198 H 593.133 -0.840513 7.51313 0
M  V30 6199 H 594.401 -2.02961 7.52613 0
M  V30 6200 N 598.631 -1.53133 0.372548 0
M  V30 6201 C 599.563 -2.23557 -0.505444 0
M  V30 6202 C 600.576 -1.25211 -1.04049 0
M  V30 6203 O 601.765 -1.51391 -0.945675 0
M  V30 6204 C 598.865 -2.92516 -1.71136 0
M  V30 6205 C 598.038 -4.17428 -1.30661 0
M  V30 6206 C 597.097 -4.69535 -2.37536 0
M  V30 6207 O 596.123 -5.33042 -1.99637 0
M  V30 6208 N 597.325 -4.47947 -3.6922 0
M  V30 6209 H 600.09 -2.9954 0.0978259 0
M  V30 6210 H 597.651 -1.60684 0.198068 0
M  V30 6211 H 599.643 -3.24281 -2.42124 0
M  V30 6212 H 598.213 -2.19944 -2.22134 0
M  V30 6213 H 597.433 -3.91888 -0.426292 0
M  V30 6214 H 598.721 -4.98622 -1.01259 0
M  V30 6215 H 598.119 -3.97219 -4.02783 0
M  V30 6216 H 596.676 -4.84245 -4.36292 0
M  V30 6217 N 600.109 -0.101901 -1.5727 0
M  V30 6218 C 601.019 0.868647 -2.17926 0
M  V30 6219 C 602.035 1.30527 -1.1506 0
M  V30 6220 O 603.211 1.37178 -1.47459 0
M  V30 6221 C 600.276 2.10727 -2.75309 0
M  V30 6222 C 599.337 1.7242 -3.93154 0
M  V30 6223 C 598.57 2.90377 -4.47791 0
M  V30 6224 O 598.793 4.05305 -4.01353 0
M  V30 6225 O 597.727 2.6845 -5.38719 0
M  V30 6226 H 601.553 0.382544 -3.01281 0
M  V30 6227 H 599.138 0.122812 -1.48894 0
M  V30 6228 H 601.02 2.83303 -3.11958 0
M  V30 6229 H 599.695 2.58376 -1.94996 0
M  V30 6230 H 598.602 0.970039 -3.61305 0
M  V30 6231 H 599.935 1.29528 -4.74851 0
M  V30 6232 N 601.587 1.56661 0.17182 0
M  V30 6233 C 602.517 1.99401 1.21498 0
M  V30 6234 C 603.498 0.869516 1.46197 0
M  V30 6235 O 604.683 1.13556 1.57539 0
M  V30 6236 C 601.813 2.35346 2.55401 0
M  V30 6237 C 600.767 3.5075 2.45272 0
M  V30 6238 C 600.093 3.72437 3.8366 0
M  V30 6239 C 601.393 4.84216 1.95787 0
M  V30 6240 H 603.087 2.86792 0.859699 0
M  V30 6241 H 600.633 1.37977 0.412103 0
M  V30 6242 H 602.586 2.63843 3.2858 0
M  V30 6243 H 601.31 1.44864 2.92715 0
M  V30 6244 H 599.969 3.2238 1.74547 0
M  V30 6245 H 599.617 2.79246 4.18367 0
M  V30 6246 H 599.317 4.50087 3.77751 0
M  V30 6247 H 600.841 4.03334 4.58426 0
M  V30 6248 H 602.255 5.11592 2.5874 0
M  V30 6249 H 600.652 5.65498 2.00827 0
M  V30 6250 H 601.722 4.76243 0.912159 0
M  V30 6251 N 603.065 -0.440357 1.51323 0
M  V30 6252 C 604.028 -1.51679 1.71832 0
M  V30 6253 C 605.028 -1.49648 0.588386 0
M  V30 6254 O 606.218 -1.51724 0.855891 0
M  V30 6255 C 603.35 -2.91228 1.77199 0
M  V30 6256 H 604.543 -1.34799 2.67898 0
M  V30 6257 H 602.096 -0.66883 1.41267 0
M  V30 6258 H 602.831 -3.13516 0.829363 0
M  V30 6259 H 602.616 -2.94107 2.59314 0
M  V30 6260 H 604.106 -3.69321 1.94915 0
M  V30 6261 N 604.543 -1.41418 -0.695603 0
M  V30 6262 C 605.491 -1.43467 -1.83084 0
M  V30 6263 C 606.485 -0.312719 -1.66489 0
M  V30 6264 O 607.691 -0.484744 -1.7335 0
M  V30 6265 H 604.066 -0.448891 -0.603325 0
M  V30 6266 H 606.037 -2.39144 -1.78473 0
M  V30 6267 C 604.786 -1.3337 -3.21104 0
M  V30 6268 H 604.109 -2.18989 -3.3449 0
M  V30 6269 H 605.549 -1.38865 -4.00615 0
M  V30 6270 C 604.008 -0.0460484 -3.36869 0
M  V30 6271 O 604.538 0.909258 -3.91274 0
M  V30 6272 N 602.744 0.0300222 -2.90584 0
M  V30 6273 H 602.291 -0.748129 -2.46497 0
M  V30 6274 H 602.249 0.890991 -3.01511 0
M  V30 6275 N 606.021 0.929856 -1.27246 0
M  V30 6276 C 606.984 2.01172 -1.09829 0
M  V30 6277 C 607.984 1.60743 -0.0429687 0
M  V30 6278 O 609.174 1.71813 -0.287373 0
M  V30 6279 C 606.306 3.34191 -0.673003 0
M  V30 6280 H 607.499 2.18054 -2.05895 0
M  V30 6281 H 605.052 1.11036 -1.10003 0
M  V30 6282 H 605.787 3.23009 0.289134 0
M  V30 6283 H 605.572 3.64892 -1.43515 0
M  V30 6284 H 607.062 4.13646 -0.573323 0
M  V30 6285 N 607.499 1.09233 1.13605 0
M  V30 6286 C 608.915 0.82163 1.36826 0
M  V30 6287 C 609.115 -0.565021 1.93416 0
M  V30 6288 O 608.171 -1.32026 2.15234 0
M  V30 6289 C 609.484 1.91124 2.32147 0
M  V30 6290 C 611.032 1.93824 2.45767 0
M  V30 6291 C 611.507 3.01923 3.44393 0
M  V30 6292 N 612.998 3.01149 3.51942 0
M  V30 6293 C 613.733 3.81434 4.2813 0
M  V30 6294 N 613.229 4.71621 5.07489 0
M  V30 6295 N 615.022 3.69702 4.23411 0
M  V30 6296 H 607.173 1.98633 0.752234 0
M  V30 6297 H 609.436 0.862482 0.393482 0
M  V30 6298 H 609.142 2.90862 1.97717 0
M  V30 6299 H 609.016 1.78777 3.32142 0
M  V30 6300 H 611.403 0.94726 2.79483 0
M  V30 6301 H 611.484 2.10248 1.45703 0
M  V30 6302 H 611.128 4.01232 3.11408 0
M  V30 6303 H 611.058 2.82742 4.44257 0
M  V30 6304 H 613.549 2.35789 2.95317 0
M  V30 6305 H 613.862 5.29468 5.62924 0
M  V30 6306 H 612.207 4.75658 5.06729 0
M  V30 6307 H 615.398 2.98606 3.60489 0
M  V30 6308 H 615.571 4.32509 4.82535 0
M  V30 6309 N 608.977 -1.30795 0.87923 0
M  V30 6310 C 610.207 -2.00237 0.50881 0
M  V30 6311 C 610.615 -1.66115 -0.905682 0
M  V30 6312 O 609.958 -0.89138 -1.60624 0
M  V30 6313 C 610.02 -3.54508 0.597003 0
M  V30 6314 C 609.684 -4.12131 1.97477 0
M  V30 6315 C 610.681 -4.28552 2.94346 0
M  V30 6316 C 608.366 -4.47644 2.2786 0
M  V30 6317 C 610.36 -4.79689 4.19735 0
M  V30 6318 C 608.047 -4.98481 3.53496 0
M  V30 6319 C 609.045 -5.14456 4.49248 0
M  V30 6320 O 608.733 -5.64199 5.72656 0
M  V30 6321 H 608.465 -0.647026 0.195788 0
M  V30 6322 H 611.019 -1.67785 1.1848 0
M  V30 6323 H 609.249 -3.86461 -0.135945 0
M  V30 6324 H 610.938 -4.05198 0.238684 0
M  V30 6325 H 611.704 -4.01424 2.72183 0
M  V30 6326 H 607.583 -4.34481 1.54102 0
M  V30 6327 H 611.127 -4.92073 4.9448 0
M  V30 6328 H 607.024 -5.25044 3.75498 0
M  V30 6329 H 607.792 -5.82551 5.74957 0
M  V30 6330 N 610.455 -0.639598 -1.44038 0
M  V30 6331 C 611.403 0.0723409 -2.32487 0
M  V30 6332 C 612.397 0.827129 -1.47834 0
M  V30 6333 O 613.603 0.73907 -1.64127 0
M  V30 6334 H 609.978 0.0421696 -0.750817 0
M  V30 6335 H 611.949 -0.691593 -2.90275 0
M  V30 6336 C 610.698 1.03452 -3.31953 0
M  V30 6337 H 610.021 0.46315 -3.97108 0
M  V30 6338 H 611.461 1.502 -3.96505 0
M  V30 6339 C 609.92 2.12392 -2.61518 0
M  V30 6340 O 610.45 3.2059 -2.42044 0
M  V30 6341 N 608.656 1.88563 -2.21116 0
M  V30 6342 H 608.203 1.00577 -2.37154 0
M  V30 6343 H 608.161 2.61651 -1.74316 0
M  V30 6344 N 611.933 1.52934 -0.380664 0
M  V30 6345 C 613.163 2.05587 0.204302 0
M  V30 6346 C 613.571 1.25288 1.41773 0
M  V30 6347 O 612.914 0.290394 1.8139 0
M  V30 6348 C 612.976 3.53624 0.647324 0
M  V30 6349 C 612.64 4.54765 -0.451465 0
M  V30 6350 C 613.637 5.03226 -1.30614 0
M  V30 6351 C 611.322 4.98508 -0.616025 0
M  V30 6352 C 613.316 5.94046 -2.31058 0
M  V30 6353 C 611.003 5.89131 -1.62381 0
M  V30 6354 C 612.001 6.36792 -2.46952 0
M  V30 6355 O 611.689 7.25626 -3.46009 0
M  V30 6356 H 611.421 0.675013 0.0365198 0
M  V30 6357 H 613.975 1.98125 -0.541827 0
M  V30 6358 H 612.205 3.58676 1.44529 0
M  V30 6359 H 613.894 3.89061 1.15698 0
M  V30 6360 H 614.66 4.70167 -1.19027 0
M  V30 6361 H 610.539 4.60989 0.0324987 0
M  V30 6362 H 614.083 6.3117 -2.97104 0
M  V30 6363 H 609.98 6.21603 -1.7401 0
M  V30 6364 H 610.748 7.43664 -3.41916 0
M  V30 6365 N 613.412 0.11024 1.57214 0
M  V30 6366 C 614.342 -0.840002 2.17867 0
M  V30 6367 C 615.323 -1.28352 1.11624 0
M  V30 6368 O 616.508 -1.3477 1.39824 0
M  V30 6369 C 613.638 -2.09349 2.77111 0
M  V30 6370 C 612.592 -1.78807 3.8886 0
M  V30 6371 C 611.918 -3.11112 4.34872 0
M  V30 6372 C 613.218 -1.0632 5.11364 0
M  V30 6373 H 614.912 -0.334608 2.97524 0
M  V30 6374 H 612.458 -0.159502 1.43114 0
M  V30 6375 H 614.411 -2.76275 3.18198 0
M  V30 6376 H 613.135 -2.62198 1.9473 0
M  V30 6377 H 611.794 -1.14273 3.48335 0
M  V30 6378 H 611.442 -3.61877 3.49362 0
M  V30 6379 H 611.142 -2.91453 5.10224 0
M  V30 6380 H 612.666 -3.79171 4.78604 0
M  V30 6381 H 614.08 -1.63383 5.49526 0
M  V30 6382 H 612.477 -0.967876 5.92243 0
M  V30 6383 H 613.547 -0.0484569 4.84876 0
M  V30 6384 N 614.89 -1.56749 -0.16351 0
M  V30 6385 C 616.139 -1.81626 -0.877211 0
M  V30 6386 C 616.452 -0.688791 -1.83071 0
M  V30 6387 O 617.658 -0.822697 -2.58735 0
M  V30 6388 C 616.114 -3.21858 -1.61045 0
M  V30 6389 C 615.722 -4.42494 -0.700195 0
M  V30 6390 C 617.466 -3.56021 -2.31192 0
M  V30 6391 C 615.373 -5.73748 -1.43412 0
M  V30 6392 H 614.303 -0.67731 -0.331312 0
M  V30 6393 H 616.954 -1.83039 -0.13006 0
M  V30 6394 H 615.336 -3.14784 -2.40264 0
M  V30 6395 H 616.51 -4.60766 0.0555849 0
M  V30 6396 H 614.825 -4.1626 -0.10799 0
M  V30 6397 H 617.422 -4.51333 -2.8671 0
M  V30 6398 H 617.765 -2.81277 -3.06902 0
M  V30 6399 H 618.298 -3.64682 -1.58909 0
M  V30 6400 H 615.037 -6.51543 -0.719186 0
M  V30 6401 H 614.557 -5.5944 -2.16302 0
M  V30 6402 H 616.236 -6.15975 -1.9795 0
M  V30 6403 N 616.368 0.432326 -1.51554 0
M  V30 6404 C 617.316 1.54572 -1.73811 0
M  V30 6405 C 618.31 1.58246 -0.604539 0
M  V30 6406 O 619.516 1.6193 -0.786041 0
M  V30 6407 H 615.891 0.513626 -0.549265 0
M  V30 6408 H 617.862 1.32977 -2.67132 0
M  V30 6409 C 616.611 2.92181 -1.88483 0
M  V30 6410 H 615.934 2.90088 -2.75116 0
M  V30 6411 H 617.374 3.69439 -2.08065 0
M  V30 6412 C 615.833 3.3065 -0.645909 0
M  V30 6413 O 616.363 4.01216 0.197093 0
M  V30 6414 N 614.569 2.86464 -0.488538 0
M  V30 6415 H 614.116 2.29209 -1.17562 0
M  V30 6416 H 614.074 3.12565 0.339156 0
M  V30 6417 N 617.846 1.41785 0.688094 0
M  V30 6418 C 618.778 1.40159 1.81351 0
M  V30 6419 C 619.791 0.30262 1.59963 0
M  V30 6420 O 620.98 0.564841 1.69327 0
M  V30 6421 C 618.08 1.16517 3.1824 0
M  V30 6422 C 617.253 2.38597 3.66593 0
M  V30 6423 C 616.312 2.10699 4.82174 0
M  V30 6424 O 615.338 2.83798 4.93404 0
M  V30 6425 N 616.54 1.10187 5.69947 0
M  V30 6426 H 619.305 2.3716 1.83236 0
M  V30 6427 H 616.866 1.36494 0.870697 0
M  V30 6428 H 618.858 0.957941 3.93199 0
M  V30 6429 H 617.428 0.280873 3.11336 0
M  V30 6430 H 616.648 2.74974 2.82459 0
M  V30 6431 H 617.936 3.19919 3.95638 0
M  V30 6432 H 617.334 0.497016 5.63512 0
M  V30 6433 H 615.891 0.954518 6.44773 0
M  V30 6434 N 619.324 -0.923095 1.27737 0
M  V30 6435 C 620.254 -2.04124 1.13383 0
M  V30 6436 C 621.235 -1.70066 0.0340658 0
M  V30 6437 O 622.42 -1.93068 0.209383 0
M  V30 6438 C 619.55 -3.3831 0.785097 0
M  V30 6439 C 618.504 -3.86496 1.8386 0
M  V30 6440 C 617.83 -5.1754 1.34373 0
M  V30 6441 C 619.13 -4.09381 3.24353 0
M  V30 6442 H 620.824 -2.1639 2.06919 0
M  V30 6443 H 618.37 -1.03976 0.996243 0
M  V30 6444 H 620.323 -4.16016 0.671485 0
M  V30 6445 H 619.047 -3.2607 -0.185969 0
M  V30 6446 H 617.706 -3.10987 1.9412 0
M  V30 6447 H 617.354 -5.01696 0.361989 0
M  V30 6448 H 617.054 -5.50751 2.04811 0
M  V30 6449 H 618.578 -5.97811 1.24315 0
M  V30 6450 H 619.992 -4.77641 3.17067 0
M  V30 6451 H 618.389 -4.53906 3.92542 0
M  V30 6452 H 619.459 -3.14515 3.69064 0
M  V30 6453 N 620.802 -1.09834 -1.13024 0
M  V30 6454 C 621.75 -0.736283 -2.20639 0
M  V30 6455 C 622.744 0.264725 -1.67319 0
M  V30 6456 O 623.95 0.125745 -1.7956 0
M  V30 6457 H 620.325 -0.220136 -0.719058 0
M  V30 6458 H 622.296 -1.65295 -2.48436 0
M  V30 6459 C 621.045 -0.177544 -3.47246 0
M  V30 6460 H 620.368 -0.939009 -3.88616 0
M  V30 6461 H 621.808 0.0378007 -4.23983 0
M  V30 6462 C 620.267 1.08824 -3.1884 0
M  V30 6463 O 620.797 2.1708 -3.37993 0
M  V30 6464 N 619.003 1.00442 -2.7269 0
M  V30 6465 H 618.55 0.123383 -2.57304 0
M  V30 6466 H 618.508 1.85206 -2.5406 0
M  V30 6467 N 622.28 1.30327 -0.886154 0
M  V30 6468 C 623.529 1.95373 -0.501243 0
M  V30 6469 C 623.842 1.70722 0.954634 0
M  V30 6470 O 625.048 2.29761 1.44644 0
M  V30 6471 C 623.504 3.49828 -0.845493 0
M  V30 6472 C 623.112 3.83296 -2.31922 0
M  V30 6473 C 624.856 4.2118 -0.529838 0
M  V30 6474 C 622.763 5.30935 -2.60504 0
M  V30 6475 H 621.693 0.731274 -0.183722 0
M  V30 6476 H 624.344 1.48258 -1.08129 0
M  V30 6477 H 622.726 3.95522 -0.19452 0
M  V30 6478 H 623.9 3.48508 -3.01461 0
M  V30 6479 H 622.215 3.2505 -2.60253 0
M  V30 6480 H 624.812 5.29825 -0.720401 0
M  V30 6481 H 625.155 4.12902 0.530828 0
M  V30 6482 H 625.688 3.81173 -1.13806 0
M  V30 6483 H 622.427 5.44265 -3.65316 0
M  V30 6484 H 621.947 5.67019 -1.95575 0
M  V30 6485 H 623.626 5.98381 -2.46066 0
M  V30 6486 N 623.758 0.647228 1.43697 0
M  V30 6487 C 624.705 -0.0480092 2.3075 0
M  V30 6488 C 625.675 -0.820705 1.44408 0
M  V30 6489 O 626.86 -0.798515 1.73287 0
M  V30 6490 C 624 -1.01259 3.2991 0
M  V30 6491 C 623.113 -0.236629 4.31351 0
M  V30 6492 C 622.248 -1.19447 5.17596 0
M  V30 6493 C 621.287 -0.408595 6.10735 0
M  V30 6494 N 620.424 -1.31772 6.89623 0
M  V30 6495 H 625.264 0.700238 2.89656 0
M  V30 6496 H 622.801 0.357082 1.427 0
M  V30 6497 H 624.759 -1.58538 3.85903 0
M  V30 6498 H 623.389 -1.72778 2.72667 0
M  V30 6499 H 622.441 0.452353 3.77701 0
M  V30 6500 H 623.753 0.374731 4.9739 0
M  V30 6501 H 622.907 -1.83809 5.78186 0
M  V30 6502 H 621.646 -1.83975 4.51669 0
M  V30 6503 H 620.651 0.24841 5.49239 0
M  V30 6504 H 621.876 0.232188 6.78703 0
M  V30 6505 H 619.822 -1.94991 6.2635 0
M  V30 6506 H 619.739 -0.760779 7.52162 0
M  V30 6507 H 621.007 -1.94967 7.54724 0
M  V30 6508 N 625.236 -1.5273 0.388769 0
M  V30 6509 C 626.461 -2.0647 -0.19621 0
M  V30 6510 C 626.886 -1.25865 -1.39784 0
M  V30 6511 O 626.244 -0.283562 -1.79069 0
M  V30 6512 C 626.292 -3.56456 -0.5451 0
M  V30 6513 O 625.396 -3.78426 -1.63912 0
M  V30 6514 H 624.737 -0.663599 -0.023067 0
M  V30 6515 H 627.267 -1.96898 0.556084 0
M  V30 6516 H 627.277 -3.99888 -0.809557 0
M  V30 6517 H 625.952 -4.14561 0.333417 0
M  V30 6518 H 624.529 -3.46884 -1.36842 0
M  V30 6519 N 626.714 -0.118576 -1.57153 0
M  V30 6520 C 627.677 0.817464 -2.14127 0
M  V30 6521 C 628.677 1.1949 -1.07604 0
M  V30 6522 O 629.867 1.12048 -1.33382 0
M  V30 6523 C 626.999 2.10541 -2.68115 0
M  V30 6524 H 628.192 0.322339 -2.98163 0
M  V30 6525 H 625.745 0.130655 -1.55753 0
M  V30 6526 H 626.48 2.64485 -1.87665 0
M  V30 6527 H 626.265 1.84425 -3.4602 0
M  V30 6528 H 627.755 2.77453 -3.12105 0
M  V30 6529 N 628.193 1.56834 0.155195 0
M  V30 6530 C 629.123 2.00678 1.19376 0
M  V30 6531 C 630.104 0.884973 1.45266 0
M  V30 6532 O 631.289 1.1522 1.56326 0
M  V30 6533 C 628.419 2.38042 2.5289 0
M  V30 6534 C 627.373 3.53332 2.41538 0
M  V30 6535 C 626.699 3.76485 3.79688 0
M  V30 6536 C 627.999 4.86265 1.9064 0
M  V30 6537 H 629.693 2.87688 0.829232 0
M  V30 6538 H 627.239 1.38407 0.397445 0
M  V30 6539 H 629.192 2.67314 3.25763 0
M  V30 6540 H 627.916 1.4796 2.91162 0
M  V30 6541 H 626.575 3.24213 1.71117 0
M  V30 6542 H 626.223 2.83667 4.15382 0
M  V30 6543 H 625.923 4.54068 3.72956 0
M  V30 6544 H 627.447 4.08174 4.54122 0
M  V30 6545 H 628.861 5.14308 2.53299 0
M  V30 6546 H 627.258 5.67597 1.94818 0
M  V30 6547 H 628.328 4.77184 0.861596 0
M  V30 6548 N 629.671 -0.424282 1.51781 0
M  V30 6549 C 630.919 -1.17028 1.64769 0
M  V30 6550 C 631.24 -1.91409 0.372523 0
M  V30 6551 O 630.51 -1.86091 -0.612108 0
M  V30 6552 H 629.09 -0.434992 0.607282 0
M  V30 6553 H 631.752 -0.485169 1.88765 0
M  V30 6554 H 630.848 -1.8927 2.4816 0
M  V30 6555 N 631.149 -1.42148 -0.680565 0
M  V30 6556 C 632.377 -1.45696 -1.46902 0
M  V30 6557 C 632.792 -0.0665858 -1.88683 0
M  V30 6558 O 632.149 0.917436 -1.57764 0
M  V30 6559 C 632.2 -2.37898 -2.72188 0
M  V30 6560 O 631.921 -3.71526 -2.32163 0
M  V30 6561 C 633.422 -2.50407 -3.65802 0
M  V30 6562 H 630.642 -0.495729 -0.45221 0
M  V30 6563 H 633.186 -1.866 -0.836709 0
M  V30 6564 H 631.341 -2.00263 -3.31622 0
M  V30 6565 H 631.755 -4.20849 -3.13027 0
M  V30 6566 H 633.229 -3.19056 -4.50452 0
M  V30 6567 H 633.706 -1.5401 -4.11312 0
M  V30 6568 H 634.312 -2.8874 -3.12265 0
M  V30 6569 N 632.627 0.916307 -1.28225 0
M  V30 6570 C 633.557 2.0352 -1.14464 0
M  V30 6571 C 634.538 1.70045 -0.0430844 0
M  V30 6572 O 635.723 1.92954 -0.219619 0
M  V30 6573 C 632.853 3.37889 -0.803027 0
M  V30 6574 C 631.807 3.85516 -1.85908 0
M  V30 6575 C 631.133 5.1682 -1.37116 0
M  V30 6576 C 632.433 4.07655 -3.26519 0
M  V30 6577 H 634.127 2.1529 -2.08064 0
M  V30 6578 H 631.673 1.03446 -1.00174 0
M  V30 6579 H 633.626 4.15654 -0.693537 0
M  V30 6580 H 632.35 3.26164 0.168674 0
M  V30 6581 H 631.009 3.09953 -1.95767 0
M  V30 6582 H 630.657 5.01497 -0.38859 0
M  V30 6583 H 630.357 5.49657 -2.07728 0
M  V30 6584 H 631.881 5.97143 -1.27484 0
M  V30 6585 H 633.295 4.75953 -3.19596 0
M  V30 6586 H 631.692 4.51818 -3.94943 0
M  V30 6587 H 632.762 3.12553 -3.70727 0
M  V30 6588 N 634.105 1.10431 1.1244 0
M  V30 6589 C 635.053 0.747974 2.20246 0
M  V30 6590 C 636.047 -0.255848 1.67457 0
M  V30 6591 O 637.253 -0.116221 1.79624 0
M  V30 6592 H 633.628 0.223946 0.71788 0
M  V30 6593 H 635.599 1.6661 2.47556 0
M  V30 6594 C 634.348 0.195957 3.47147 0
M  V30 6595 H 633.671 0.959606 3.88113 0
M  V30 6596 H 635.111 -0.0153154 4.23997 0
M  V30 6597 C 633.57 -1.07132 3.19413 0
M  V30 6598 O 634.1 -2.15284 3.3914 0
M  V30 6599 N 632.306 -0.98994 2.73219 0
M  V30 6600 H 631.853 -0.109736 2.57366 0
M  V30 6601 H 631.811 -1.83856 2.55038 0
M  V30 6602 N 635.583 -1.29855 0.893053 0
M  V30 6603 C 636.493 -2.31661 0.370157 0
M  V30 6604 C 637.509 -1.65677 -0.531723 0
M  V30 6605 O 638.685 -1.9691 -0.422902 0
M  V30 6606 C 635.75 -3.44388 -0.399741 0
M  V30 6607 C 634.811 -4.2598 0.532861 0
M  V30 6608 C 634.044 -5.33324 -0.200388 0
M  V30 6609 O 634.267 -5.52305 -1.42531 0
M  V30 6610 O 633.201 -6.00188 0.453668 0
M  V30 6611 H 637.027 -2.78354 1.2146 0
M  V30 6612 H 634.612 -1.34171 0.657153 0
M  V30 6613 H 636.494 -4.13037 -0.835358 0
M  V30 6614 H 635.169 -2.99815 -1.22035 0
M  V30 6615 H 634.076 -3.59998 1.01746 0
M  V30 6616 H 635.409 -4.74178 1.3197 0
M  V30 6617 N 637.061 -0.65484 -1.43351 0
M  V30 6618 C 637.993 0.0744757 -2.29079 0
M  V30 6619 C 639.006 0.7855 -1.42596 0
M  V30 6620 O 640.195 0.642986 -1.66517 0
M  V30 6621 C 637.295 1.12859 -3.19556 0
M  V30 6622 C 636.468 0.495381 -4.34586 0
M  V30 6623 C 635.527 1.44659 -5.05925 0
M  V30 6624 O 634.553 0.954567 -5.61139 0
M  V30 6625 N 635.755 2.78051 -5.09576 0
M  V30 6626 H 638.52 -0.661346 -2.92312 0
M  V30 6627 H 636.081 -0.497744 -1.54059 0
M  V30 6628 H 638.073 1.76577 -3.64147 0
M  V30 6629 H 636.643 1.76636 -2.57912 0
M  V30 6630 H 635.863 -0.32092 -3.92892 0
M  V30 6631 H 637.151 0.0534203 -5.08772 0
M  V30 6632 H 636.549 3.20584 -4.66093 0
M  V30 6633 H 635.106 3.37068 -5.57878 0
M  V30 6634 N 638.539 1.52521 -0.396863 0
M  V30 6635 C 639.816 1.94112 0.240842 0
M  V30 6636 C 640.196 1.33288 1.637 0
M  V30 6637 O 639.544 0.503901 2.22875 0
M  V30 6638 C 639.754 3.48033 0.259567 0
M  V30 6639 C 641.102 4.21822 0.484866 0
M  V30 6640 O 642.126 3.54579 0.339453 0
M  V30 6641 O 640.985 5.41042 0.770412 0
M  V30 6642 H 638.079 0.812973 0.151671 0
M  V30 6643 H 640.625 1.63572 -0.451918 0
M  V30 6644 H 639.397 3.84655 -0.718078 0
M  V30 6645 H 639.02 3.84899 0.996937 0
M  V30 6646 N 640.017 0.126909 1.57088 0
M  V30 6647 C 640.947 -0.816847 2.18746 0
M  V30 6648 C 641.928 -1.27161 1.12979 0
M  V30 6649 O 643.113 -1.33279 1.41246 0
M  V30 6650 C 640.243 -2.06398 2.79315 0
M  V30 6651 C 639.197 -1.74673 3.90735 0
M  V30 6652 C 638.523 -3.06482 4.38147 0
M  V30 6653 C 639.823 -1.0089 5.12463 0
M  V30 6654 H 641.517 -0.303032 2.97863 0
M  V30 6655 H 639.063 -0.144314 1.43275 0
M  V30 6656 H 641.016 -2.72885 3.2111 0
M  V30 6657 H 639.74 -2.60118 1.975 0
M  V30 6658 H 638.399 -1.10572 3.49527 0
M  V30 6659 H 638.047 -3.58152 3.5318 0
M  V30 6660 H 637.747 -2.86025 5.13287 0
M  V30 6661 H 639.271 -3.74073 4.82599 0
M  V30 6662 H 640.685 -1.57546 5.51228 0
M  V30 6663 H 639.082 -0.905006 5.93237 0
M  V30 6664 H 640.152 0.00297335 4.849 0
M  V30 6665 N 641.495 -1.56914 -0.146875 0
M  V30 6666 C 642.425 -2.01308 -1.1831 0
M  V30 6667 C 643.406 -0.892664 -1.44795 0
M  V30 6668 O 644.591 -1.16048 -1.55713 0
M  V30 6669 C 641.721 -2.3938 -2.51624 0
M  V30 6670 C 640.675 -3.54608 -2.3966 0
M  V30 6671 C 640.001 -3.78493 -3.77686 0
M  V30 6672 C 641.301 -4.87269 -1.88058 0
M  V30 6673 H 642.995 -2.88123 -0.813964 0
M  V30 6674 H 640.541 -1.38615 -0.3901 0
M  V30 6675 H 642.494 -2.69037 -3.24341 0
M  V30 6676 H 641.218 -1.49502 -2.90373 0
M  V30 6677 H 639.877 -3.25116 -1.69396 0
M  V30 6678 H 639.525 -2.85866 -4.13871 0
M  V30 6679 H 639.225 -4.56039 -3.70543 0
M  V30 6680 H 640.749 -4.10576 -4.51951 0
M  V30 6681 H 642.163 -5.15644 -2.50568 0
M  V30 6682 H 640.56 -5.68622 -1.91805 0
M  V30 6683 H 641.63 -4.77634 -0.836277 0
M  V30 6684 N 642.974 0.416227 -1.52004 0
M  V30 6685 C 643.937 1.48926 -1.74223 0
M  V30 6686 C 644.937 1.48693 -0.612119 0
M  V30 6687 O 646.127 1.50343 -0.879921 0
M  V30 6688 C 643.259 2.88372 -1.81809 0
M  V30 6689 H 644.452 1.3052 -2.70008 0
M  V30 6690 H 642.005 0.646271 -1.42313 0
M  V30 6691 H 642.74 3.12157 -0.879135 0
M  V30 6692 H 642.525 2.89944 -2.6396 0
M  V30 6693 H 644.015 3.66173 -2.00766 0
M  V30 6694 N 644.452 1.42507 0.673017 0
M  V30 6695 C 645.382 1.48916 1.79851 0
M  V30 6696 C 646.363 0.345566 1.66553 0
M  V30 6697 O 647.548 0.560116 1.85947 0
M  V30 6698 C 644.678 1.39258 3.18158 0
M  V30 6699 C 643.632 2.51662 3.46194 0
M  V30 6700 C 642.958 2.27062 4.84094 0
M  V30 6701 C 644.258 3.93968 3.42909 0
M  V30 6702 H 645.952 2.43114 1.74745 0
M  V30 6703 H 643.498 1.17013 0.839288 0
M  V30 6704 H 645.451 1.42349 3.96629 0
M  V30 6705 H 644.175 0.415542 3.23946 0
M  V30 6706 H 642.834 2.47891 2.70084 0
M  V30 6707 H 642.482 1.27648 4.86534 0
M  V30 6708 H 642.182 3.02398 5.03815 0
M  V30 6709 H 643.706 2.31905 5.64847 0
M  V30 6710 H 645.12 3.99332 4.11347 0
M  V30 6711 H 643.517 4.6917 3.74165 0
M  V30 6712 H 644.587 4.20512 2.41449 0
M  V30 6713 N 645.93 -0.909495 1.28709 0
M  V30 6714 C 646.878 -2.03381 1.12866 0
M  V30 6715 C 647.872 -1.69335 0.0468074 0
M  V30 6716 O 649.078 -1.78819 0.205891 0
M  V30 6717 H 645.453 -0.666452 0.348348 0
M  V30 6718 H 647.424 -2.13885 2.08077 0
M  V30 6719 C 646.173 -3.38092 0.811742 0
M  V30 6720 H 645.496 -3.64786 1.63619 0
M  V30 6721 H 646.936 -4.17477 0.740869 0
M  V30 6722 C 645.395 -3.33395 -0.484679 0
M  V30 6723 O 645.925 -3.72089 -1.5137 0
M  V30 6724 N 644.131 -2.86491 -0.486961 0
M  V30 6725 H 643.678 -2.55199 0.350877 0
M  V30 6726 H 643.636 -2.83731 -1.3544 0
M  V30 6727 N 647.408 -1.11026 -1.11852 0
M  V30 6728 C 648.356 -0.759643 -2.19846 0
M  V30 6729 C 649.35 0.246964 -1.6759 0
M  V30 6730 O 650.556 0.106693 -1.79684 0
M  V30 6731 H 646.931 -0.22775 -0.716683 0
M  V30 6732 H 648.902 -1.6792 -2.46669 0
M  V30 6733 C 647.651 -0.214364 -3.47039 0
M  V30 6734 H 646.974 -0.980175 -3.87599 0
M  V30 6735 H 648.414 -0.00717047 -4.23999 0
M  V30 6736 C 646.873 1.05436 -3.19976 0
M  V30 6737 O 647.403 2.13483 -3.40276 0
M  V30 6738 N 645.609 0.975436 -2.7374 0
M  V30 6739 H 645.156 0.0960853 -2.57421 0
M  V30 6740 H 645.114 1.82501 -2.5601 0
M  V30 6741 N 648.886 1.2938 -0.899927 0
M  V30 6742 C 649.849 2.25983 -0.382677 0
M  V30 6743 C 650.849 1.53366 0.483259 0
M  V30 6744 O 652.039 1.71798 0.28828 0
M  V30 6745 C 649.171 3.37878 0.452915 0
M  V30 6746 H 650.364 2.73252 -1.23586 0
M  V30 6747 H 647.917 1.40825 -0.678088 0
M  V30 6748 H 648.652 2.95949 1.32608 0
M  V30 6749 H 648.437 3.91742 -0.167562 0
M  V30 6750 H 649.927 4.09746 0.806107 0
M  V30 6751 N 650.364 0.662433 1.43002 0
M  V30 6752 C 651.294 -0.00979809 2.33498 0
M  V30 6753 C 652.275 -0.802329 1.49989 0
M  V30 6754 O 653.46 -0.761964 1.78627 0
M  V30 6755 C 650.59 -0.970446 3.33466 0
M  V30 6756 C 649.544 -0.287383 4.27034 0
M  V30 6757 C 648.87 -1.36012 5.17112 0
M  V30 6758 C 650.17 0.82595 5.15728 0
M  V30 6759 H 651.864 0.745959 2.89958 0
M  V30 6760 H 649.41 0.360172 1.39423 0
M  V30 6761 H 651.363 -1.44971 3.95679 0
M  V30 6762 H 650.087 -1.75748 2.75282 0
M  V30 6763 H 648.746 0.17152 3.66199 0
M  V30 6764 H 648.394 -2.13882 4.55262 0
M  V30 6765 H 648.094 -0.908276 5.80538 0
M  V30 6766 H 649.618 -1.84056 5.82199 0
M  V30 6767 H 651.032 0.42845 5.71697 0
M  V30 6768 H 649.429 1.20282 5.87922 0
M  V30 6769 H 650.499 1.68003 4.54866 0
M  V30 6770 N 651.842 -1.52309 0.404946 0
M  V30 6771 C 653.067 -2.06666 -0.1743 0
M  V30 6772 C 653.492 -1.27341 -1.38441 0
M  V30 6773 O 652.85 -0.302539 -1.78758 0
M  V30 6774 C 652.898 -3.57014 -0.507262 0
M  V30 6775 O 652.002 -3.80144 -1.59889 0
M  V30 6776 H 651.343 -0.663807 -0.0160273 0
M  V30 6777 H 653.873 -1.96297 0.576937 0
M  V30 6778 H 653.883 -4.00724 -0.767098 0
M  V30 6779 H 652.558 -4.14184 0.377368 0
M  V30 6780 H 651.135 -3.48316 -1.33155 0
M  V30 6781 N 653.32 -0.135238 -1.57019 0
M  V30 6782 C 654.267 0.808908 -2.1616 0
M  V30 6783 C 655.237 1.25234 -1.09113 0
M  V30 6784 O 656.422 1.32697 -1.37099 0
M  V30 6785 C 653.562 2.04729 -2.77813 0
M  V30 6786 C 652.675 1.65074 -3.99218 0
M  V30 6787 C 651.81 2.84002 -4.48906 0
M  V30 6788 C 650.849 2.40663 -5.62803 0
M  V30 6789 N 649.986 3.5256 -6.07162 0
M  V30 6790 H 654.826 0.297751 -2.96509 0
M  V30 6791 H 652.363 0.135264 -1.46477 0
M  V30 6792 H 654.321 2.7731 -3.11697 0
M  V30 6793 H 652.951 2.53275 -2.00128 0
M  V30 6794 H 652.003 0.823029 -3.7139 0
M  V30 6795 H 653.315 1.29236 -4.81767 0
M  V30 6796 H 652.469 3.64788 -4.84783 0
M  V30 6797 H 651.208 3.23076 -3.65339 0
M  V30 6798 H 650.213 1.58314 -5.26514 0
M  V30 6799 H 651.438 2.02687 -6.48147 0
M  V30 6800 H 649.384 3.91278 -5.26534 0
M  V30 6801 H 649.301 3.20699 -6.84608 0
M  V30 6802 H 650.569 4.33738 -6.47682 0
M  V30 6803 N 654.798 1.5699 0.138552 0
M  V30 6804 C 656.209 1.73171 0.697754 0
M  V30 6805 C 656.56 0.750952 1.8126 0
M  V30 6806 O 655.685 -0.080549 2.1625 0
M  V30 6807 C 656.28 3.13996 1.27248 0
M  V30 6808 C 654.839 3.3175 1.77816 0
M  V30 6809 C 653.986 2.69084 0.669991 0
M  V30 6810 H 656.937 1.5846 -0.0871979 0
M  V30 6811 H 656.958 3.14463 2.14227 0
M  V30 6812 H 656.47 3.85354 0.460855 0
M  V30 6813 H 654.571 2.65403 2.61519 0
M  V30 6814 H 654.684 4.39768 1.90107 0
M  V30 6815 H 653.048 2.29782 1.09874 0
M  V30 6816 H 653.831 3.43053 -0.130329 0
M  V30 6817 N 656.276 -0.40816 1.52223 0
M  V30 6818 C 657.522 -1.15673 1.66576 0
M  V30 6819 C 657.855 -1.90141 0.394996 0
M  V30 6820 O 657.13 -1.84798 -0.606613 0
M  V30 6821 C 657.413 -2.15042 2.88841 0
M  V30 6822 C 657.266 -1.44465 4.25969 0
M  V30 6823 C 658.585 -3.15699 3.0663 0
M  V30 6824 H 655.704 -0.41916 0.606196 0
M  V30 6825 H 658.346 -0.442348 1.84779 0
M  V30 6826 H 656.496 -2.75964 2.73452 0
M  V30 6827 H 658.168 -0.866544 4.53088 0
M  V30 6828 H 656.411 -0.746612 4.27327 0
M  V30 6829 H 657.082 -2.16976 5.07568 0
M  V30 6830 H 659.558 -2.64854 3.20923 0
M  V30 6831 H 658.434 -3.82491 3.9369 0
M  V30 6832 H 658.695 -3.83481 2.19987 0
M  V30 6833 N 657.755 -1.42862 -0.66545 0
M  V30 6834 C 658.98 -1.47456 -1.45848 0
M  V30 6835 C 659.405 -0.0900312 -1.87884 0
M  V30 6836 O 658.763 0.913587 -1.56599 0
M  V30 6837 C 658.811 -2.41514 -2.67774 0
M  V30 6838 O 657.915 -1.89296 -3.66389 0
M  V30 6839 H 657.256 -0.499236 -0.437789 0
M  V30 6840 H 659.786 -1.8765 -0.815394 0
M  V30 6841 H 659.796 -2.58409 -3.15735 0
M  V30 6842 H 658.471 -3.42099 -2.36519 0
M  V30 6843 H 657.048 -1.82003 -3.25468 0
M  V30 6844 N 659.233 0.902656 -1.29189 0
M  V30 6845 C 660.461 1.68639 -1.19869 0
M  V30 6846 C 660.876 1.87254 0.241121 0
M  V30 6847 O 660.233 1.40745 1.16177 0
M  V30 6848 C 660.284 3.07251 -1.90471 0
M  V30 6849 O 660.005 2.89488 -3.28829 0
M  V30 6850 C 661.506 4.01653 -1.8759 0
M  V30 6851 H 658.726 0.526802 -0.415596 0
M  V30 6852 H 661.27 1.12901 -1.7051 0
M  V30 6853 H 659.425 3.59774 -1.43672 0
M  V30 6854 H 659.839 3.77296 -3.64346 0
M  V30 6855 H 661.313 4.96339 -2.4156 0
M  V30 6856 H 661.79 4.30881 -0.850756 0
M  V30 6857 H 662.396 3.55061 -2.34119 0
M  V30 6858 N 660.711 1.11618 1.11262 0
M  V30 6859 C 661.659 0.771291 2.1944 0
M  V30 6860 C 662.653 -0.238073 1.67719 0
M  V30 6861 O 663.859 -0.0971628 1.79738 0
M  V30 6862 H 660.234 0.231548 0.715465 0
M  V30 6863 H 662.205 1.69226 2.45775 0
M  V30 6864 C 660.954 0.232765 3.4692 0
M  V30 6865 H 660.277 1.00072 3.87073 0
M  V30 6866 H 661.717 0.0296561 4.2399 0
M  V30 6867 C 660.176 -1.03738 3.20531 0
M  V30 6868 O 660.706 -2.11675 3.41404 0
M  V30 6869 N 658.912 -0.960906 2.74253 0
M  V30 6870 H 658.459 -0.0824323 2.57468 0
M  V30 6871 H 658.417 -1.8114 2.56974 0
M  V30 6872 N 662.189 -1.289 0.906776 0
M  V30 6873 C 663.6 -1.77336 0.58384 0
M  V30 6874 C 663.951 -1.74304 -0.900697 0
M  V30 6875 O 663.076 -1.33335 -1.70443 0
M  V30 6876 C 663.671 -3.22019 1.05304 0
M  V30 6877 C 662.23 -3.68205 0.781148 0
M  V30 6878 C 661.377 -2.48837 1.22373 0
M  V30 6879 H 664.328 -1.15462 1.08877 0
M  V30 6880 H 664.349 -3.78481 0.391414 0
M  V30 6881 H 663.861 -3.24194 2.13353 0
M  V30 6882 H 661.962 -3.71497 -0.28643 0
M  V30 6883 H 662.075 -4.58675 1.384 0
M  V30 6884 H 660.439 -2.46461 0.642594 0
M  V30 6885 H 661.222 -2.53736 2.31242 0
M  V30 6886 N 663.667 -0.670007 -1.42649 0
M  V30 6887 C 664.577 0.0114788 -2.34597 0
M  V30 6888 C 665.593 0.794055 -1.54825 0
M  V30 6889 O 666.769 0.737472 -1.87412 0
M  V30 6890 C 663.834 0.954436 -3.33304 0
M  V30 6891 C 662.895 0.166925 -4.28975 0
M  V30 6892 C 662.128 1.06497 -5.22967 0
M  V30 6893 O 662.351 2.30446 -5.21777 0
M  V30 6894 O 661.285 0.528347 -5.99577 0
M  V30 6895 H 665.111 -0.745794 -2.944 0
M  V30 6896 H 662.696 -0.430228 -1.43071 0
M  V30 6897 H 664.578 1.49589 -3.93956 0
M  V30 6898 H 663.253 1.69164 -2.7598 0
M  V30 6899 H 662.16 -0.418515 -3.71752 0
M  V30 6900 H 663.493 -0.531067 -4.89327 0
M  V30 6901 N 665.145 1.52092 -0.413018 0
M  V30 6902 C 666.093 2.28681 0.425199 0
M  V30 6903 C 667.087 1.3353 1.04241 0
M  V30 6904 O 668.293 1.50973 0.980166 0
M  V30 6905 H 664.668 0.735661 0.155906 0
M  V30 6906 H 666.639 2.97418 -0.241926 0
M  V30 6907 C 665.388 3.1235 1.5275 0
M  V30 6908 H 664.711 3.85439 1.06191 0
M  V30 6909 H 666.151 3.69038 2.08774 0
M  V30 6910 C 664.61 2.26161 2.49706 0
M  V30 6911 O 665.14 1.90452 3.53682 0
M  V30 6912 N 663.346 1.89854 2.20008 0
M  V30 6913 H 662.893 2.19092 1.35486 0
M  V30 6914 H 662.851 1.3248 2.85125 0
M  V30 6915 N 666.623 0.143563 1.56945 0
M  V30 6916 C 667.869 -0.50916 1.96304 0
M  V30 6917 C 668.202 -1.64741 1.0283 0
M  V30 6918 O 667.477 -1.94374 0.0700361 0
M  V30 6919 C 667.76 -1.0186 3.45393 0
M  V30 6920 C 667.613 0.117923 4.49645 0
M  V30 6921 C 668.932 -1.90151 3.96901 0
M  V30 6922 H 666.051 -0.183608 0.713763 0
M  V30 6923 H 668.693 0.224095 1.88674 0
M  V30 6924 H 666.843 -1.64345 3.52027 0
M  V30 6925 H 668.515 0.754145 4.55094 0
M  V30 6926 H 666.758 0.777568 4.26774 0
M  V30 6927 H 667.429 -0.280187 5.51288 0
M  V30 6928 H 669.905 -1.375 3.92725 0
M  V30 6929 H 668.781 -2.22707 5.0169 0
M  V30 6930 H 669.042 -2.83718 3.39052 0
M  V30 6931 N 668.101 -1.57061 -0.130224 0
M  V30 6932 C 669.064 -1.98593 -1.14426 0
M  V30 6933 C 670.064 -0.874584 -1.34936 0
M  V30 6934 O 671.254 -1.14086 -1.31643 0
M  V30 6935 C 668.386 -2.31639 -2.50112 0
M  V30 6936 H 669.579 -2.89374 -0.787561 0
M  V30 6937 H 667.132 -1.51756 -0.374146 0
M  V30 6938 H 667.867 -1.43703 -2.90723 0
M  V30 6939 H 667.652 -3.12684 -2.36583 0
M  V30 6940 H 669.142 -2.64551 -3.23114 0
M  V30 6941 N 669.579 0.400081 -1.52437 0
M  V30 6942 C 670.99 0.97851 -1.59003 0
M  V30 6943 C 671.341 1.91293 -0.436068 0
M  V30 6944 O 670.466 2.1183 0.442365 0
M  V30 6945 C 671.061 1.78145 -2.88184 0
M  V30 6946 C 669.62 2.30976 -2.97199 0
M  V30 6947 C 668.767 1.11212 -2.54022 0
M  V30 6948 H 671.718 0.180002 -1.57676 0
M  V30 6949 H 671.739 2.63968 -2.74046 0
M  V30 6950 H 671.251 1.1011 -3.72152 0
M  V30 6951 H 669.352 3.02355 -2.17744 0
M  V30 6952 H 669.465 2.61221 -4.01622 0
M  V30 6953 H 667.829 1.46882 -2.08081 0
M  V30 6954 H 668.612 0.447307 -3.40373 0
M  V30 6955 N 671.057 1.43213 0.657864 0
M  V30 6956 C 671.989 1.43974 1.78337 0
M  V30 6957 C 673.002 0.336482 1.59285 0
M  V30 6958 O 674.191 0.600631 1.68091 0
M  V30 6959 C 671.291 1.23242 3.15697 0
M  V30 6960 C 670.464 2.46319 3.61449 0
M  V30 6961 C 669.523 2.2088 4.77597 0
M  V30 6962 O 668.549 2.942 4.87273 0
M  V30 6963 N 669.751 1.22251 5.67481 0
M  V30 6964 H 672.516 2.40993 1.78164 0
M  V30 6965 H 670.077 1.3831 0.841549 0
M  V30 6966 H 672.069 1.04113 3.91079 0
M  V30 6967 H 670.639 0.346849 3.1067 0
M  V30 6968 H 669.859 2.80904 2.76563 0
M  V30 6969 H 671.147 3.28239 3.88763 0
M  V30 6970 H 670.545 0.616433 5.62331 0
M  V30 6971 H 669.102 1.09107 6.42603 0
M  V30 6972 N 672.536 -0.895792 1.29666 0
M  V30 6973 C 673.764 -1.68001 1.20761 0
M  V30 6974 C 674.179 -1.87379 -0.231187 0
M  V30 6975 O 673.536 -1.41359 -1.15429 0
M  V30 6976 C 673.587 -3.06236 1.92098 0
M  V30 6977 O 673.308 -2.8774 3.30359 0
M  V30 6978 C 674.809 -4.00652 1.89717 0
M  V30 6979 H 672.029 -0.524591 0.418384 0
M  V30 6980 H 674.573 -1.11995 1.71106 0
M  V30 6981 H 672.728 -3.59007 1.45578 0
M  V30 6982 H 673.142 -3.75359 3.66342 0
M  V30 6983 H 674.616 -4.95051 2.44189 0
M  V30 6984 H 675.093 -4.30424 0.873595 0
M  V30 6985 H 675.699 -3.53815 2.35998 0
M  V30 6986 N 674.014 -1.12206 -1.10668 0
M  V30 6987 C 675.425 -0.890657 -1.64086 0
M  V30 6988 C 675.776 0.575502 -1.8757 0
M  V30 6989 O 674.901 1.4394 -1.61587 0
M  V30 6990 C 675.496 -1.61029 -2.98085 0
M  V30 6991 C 674.055 -1.4251 -3.48379 0
M  V30 6992 C 673.202 -1.64778 -2.23033 0
M  V30 6993 H 676.153 -1.27718 -0.94201 0
M  V30 6994 H 676.174 -1.05993 -3.65439 0
M  V30 6995 H 675.686 -2.67735 -2.80962 0
M  V30 6996 H 673.787 -0.380497 -3.70652 0
M  V30 6997 H 673.9 -2.17959 -4.26651 0
M  V30 6998 H 672.264 -1.07171 -2.31055 0
M  V30 6999 H 673.047 -2.72776 -2.08443 0
M  V30 7000 N 675.492 1.28418 -0.913599 0
M  V30 7001 C 676.402 2.31043 -0.406965 0
M  V30 7002 C 677.418 1.66501 0.505298 0
M  V30 7003 O 678.594 1.97558 0.391522 0
M  V30 7004 C 675.659 3.4498 0.344901 0
M  V30 7005 C 674.72 4.25078 -0.600563 0
M  V30 7006 C 673.953 5.33575 0.115516 0
M  V30 7007 O 674.176 5.54503 1.33727 0
M  V30 7008 O 673.11 5.9939 -0.549095 0
M  V30 7009 H 676.936 2.76387 -1.25873 0
M  V30 7010 H 674.521 1.33109 -0.678415 0
M  V30 7011 H 676.403 4.14314 0.769542 0
M  V30 7012 H 675.078 3.01719 1.1725 0
M  V30 7013 H 673.985 3.58334 -1.0746 0
M  V30 7014 H 675.318 4.72018 -1.39497 0
M  V30 7015 N 676.97 0.677563 1.42291 0
M  V30 7016 C 677.902 -0.0380218 2.29168 0
M  V30 7017 C 678.915 -0.762714 1.43828 0
M  V30 7018 O 680.104 -0.616413 1.67519 0
M  V30 7019 C 677.204 -1.07761 3.21311 0
M  V30 7020 C 676.377 -0.42618 4.35319 0
M  V30 7021 C 675.436 -1.36592 5.08162 0
M  V30 7022 O 674.462 -0.865174 5.62586 0
M  V30 7023 N 675.664 -2.69909 5.13935 0
M  V30 7024 H 678.429 0.707766 2.91223 0
M  V30 7025 H 675.99 0.52219 1.53247 0
M  V30 7026 H 677.982 -1.70761 3.6691 0
M  V30 7027 H 676.552 -1.72511 2.60689 0
M  V30 7028 H 675.772 0.383385 3.92331 0
M  V30 7029 H 677.06 0.0275277 5.08793 0
M  V30 7030 H 676.458 -3.13129 4.71134 0
M  V30 7031 H 675.015 -3.2815 5.6317 0
M  V30 7032 N 678.448 -1.51871 0.421078 0
M  V30 7033 C 679.396 -2.28903 -0.413066 0
M  V30 7034 C 680.39 -1.3408 -1.03532 0
M  V30 7035 O 681.596 -1.5149 -0.972146 0
M  V30 7036 H 677.971 -0.736478 -0.152003 0
M  V30 7037 H 679.942 -2.97285 0.257695 0
M  V30 7038 C 678.691 -3.13156 -1.51091 0
M  V30 7039 H 678.014 -3.85997 -1.04145 0
M  V30 7040 H 679.454 -3.7014 -2.06814 0
M  V30 7041 C 677.913 -2.27482 -2.48503 0
M  V30 7042 O 678.443 -1.92325 -3.52667 0
M  V30 7043 N 676.649 -1.91019 -2.18998 0
M  V30 7044 H 676.196 -2.19808 -1.34322 0
M  V30 7045 H 676.154 -1.3399 -2.84419 0
M  V30 7046 N 679.926 -0.151884 -1.56866 0
M  V30 7047 C 680.889 0.771861 -2.15812 0
M  V30 7048 C 681.889 1.17181 -1.10115 0
M  V30 7049 O 683.079 1.09194 -1.35729 0
M  V30 7050 C 680.211 2.04806 -2.7252 0
M  V30 7051 H 681.404 0.259021 -2.98779 0
M  V30 7052 H 678.957 0.097588 -1.55995 0
M  V30 7053 H 679.692 2.60445 -1.93233 0
M  V30 7054 H 679.477 1.77044 -3.49854 0
M  V30 7055 H 680.967 2.70771 -3.1792 0
M  V30 7056 N 681.404 1.57128 0.121893 0
M  V30 7057 C 682.653 1.83888 0.828748 0
M  V30 7058 C 682.966 0.737087 1.81181 0
M  V30 7059 O 684.172 0.891007 2.56463 0
M  V30 7060 C 682.628 3.26014 1.52455 0
M  V30 7061 C 682.236 4.44195 0.58263 0
M  V30 7062 C 683.98 3.62025 2.21671 0
M  V30 7063 C 681.887 5.77349 1.28149 0
M  V30 7064 H 680.817 0.685856 0.313238 0
M  V30 7065 H 683.468 1.83319 0.0814851 0
M  V30 7066 H 681.85 3.21044 2.31834 0
M  V30 7067 H 683.024 4.60457 -0.177729 0
M  V30 7068 H 681.339 4.164 -0.00241228 0
M  V30 7069 H 683.936 4.58776 2.74643 0
M  V30 7070 H 684.279 2.89315 2.99337 0
M  V30 7071 H 684.812 3.68767 1.49184 0
M  V30 7072 H 681.551 6.53221 0.546189 0
M  V30 7073 H 681.071 5.64978 2.01394 0
M  V30 7074 H 682.75 6.21006 1.81549 0
M  V30 7075 N 682.882 -0.391992 1.52647 0
M  V30 7076 C 683.845 -1.46135 1.7657 0
M  V30 7077 C 684.845 -1.47701 0.635698 0
M  V30 7078 O 686.035 -1.48924 0.903728 0
M  V30 7079 C 683.167 -2.85443 1.86374 0
M  V30 7080 H 684.36 -1.26208 2.72051 0
M  V30 7081 H 681.913 -0.623549 1.43323 0
M  V30 7082 H 682.648 -3.10718 0.928685 0
M  V30 7083 H 682.433 -2.85708 2.68539 0
M  V30 7084 H 683.923 -3.62933 2.06566 0
M  V30 7085 N 684.36 -1.4356 -0.65026 0
M  V30 7086 C 685.637 -1.35811 -1.40765 0
M  V30 7087 C 686.017 -0.00736379 -2.11099 0
M  V30 7088 O 685.365 1.00932 -2.05 0
M  V30 7089 C 685.575 -2.54332 -2.3899 0
M  V30 7090 C 686.923 -2.97551 -3.02901 0
M  V30 7091 O 687.947 -2.544 -2.49317 0
M  V30 7092 O 686.806 -3.72311 -4.00059 0
M  V30 7093 H 683.9 -0.536861 -0.629054 0
M  V30 7094 H 686.446 -1.55615 -0.676919 0
M  V30 7095 H 685.218 -3.44274 -1.85986 0
M  V30 7096 H 684.841 -2.36643 -3.19509 0
M  V30 7097 N 685.838 0.888903 -1.30139 0
M  V30 7098 C 687.086 1.63713 -1.18501 0
M  V30 7099 C 687.407 1.9324 0.261399 0
M  V30 7100 O 686.677 1.56608 1.17689 0
M  V30 7101 H 685.257 0.606861 -0.435579 0
M  V30 7102 H 687.919 1.06525 -1.63213 0
M  V30 7103 H 687.015 2.58894 -1.743 0
M  V30 7104 N 687.317 1.12792 1.10072 0
M  V30 7105 C 688.547 0.907189 1.85617 0
M  V30 7106 C 688.955 -0.547181 1.81115 0
M  V30 7107 O 688.298 -1.39024 1.20075 0
M  V30 7108 C 688.36 1.30872 3.34832 0
M  V30 7109 C 688.024 2.77516 3.6309 0
M  V30 7110 C 689.021 3.75696 3.59373 0
M  V30 7111 C 686.706 3.14513 3.91646 0
M  V30 7112 C 688.7 5.08888 3.83812 0
M  V30 7113 C 686.387 4.47886 4.15742 0
M  V30 7114 C 687.385 5.44882 4.11816 0
M  V30 7115 O 687.073 6.7585 4.35295 0
M  V30 7116 H 686.805 0.323855 0.593375 0
M  V30 7117 H 689.359 1.50262 1.40038 0
M  V30 7118 H 687.589 0.656518 3.81086 0
M  V30 7119 H 689.278 1.06153 3.91773 0
M  V30 7120 H 690.044 3.48458 3.37345 0
M  V30 7121 H 685.923 2.39622 3.93831 0
M  V30 7122 H 689.467 5.84586 3.80663 0
M  V30 7123 H 685.364 4.74851 4.37249 0
M  V30 7124 H 686.132 6.81853 4.52791 0
M  V30 7125 N 688.795 -1.27931 0.920396 0
M  V30 7126 C 689.758 -2.25345 0.41858 0
M  V30 7127 C 690.758 -1.54116 -0.458798 0
M  V30 7128 O 691.948 -1.72235 -0.260912 0
M  V30 7129 C 689.08 -3.38556 -0.399104 0
M  V30 7130 H 690.273 -2.71251 1.27918 0
M  V30 7131 H 687.826 -1.39728 0.700406 0
M  V30 7132 H 688.561 -2.98021 -1.27882 0
M  V30 7133 H 688.346 -3.91426 0.229863 0
M  V30 7134 H 689.836 -4.10976 -0.740817 0
M  V30 7135 N 690.273 -0.685099 -1.4193 0
M  V30 7136 C 691.684 -0.287699 -1.8447 0
M  V30 7137 C 692.035 1.17215 -1.57338 0
M  V30 7138 O 691.16 1.89856 -1.03845 0
M  V30 7139 C 691.755 -0.515385 -3.34857 0
M  V30 7140 C 690.314 -0.172006 -3.76007 0
M  V30 7141 C 689.461 -0.802808 -2.65425 0
M  V30 7142 H 692.412 -0.88652 -1.3163 0
M  V30 7143 H 692.433 0.229251 -3.79809 0
M  V30 7144 H 691.945 -1.57796 -3.54573 0
M  V30 7145 H 690.046 0.886716 -3.61895 0
M  V30 7146 H 690.159 -0.619717 -4.75075 0
M  V30 7147 H 688.523 -0.233267 -2.5363 0
M  V30 7148 H 689.306 -1.86904 -2.87961 0
M  V30 7149 N 691.751 1.51645 -0.429126 0
M  V30 7150 C 693.028 1.94579 0.199614 0
M  V30 7151 C 693.408 1.3673 1.60836 0
M  V30 7152 O 692.756 0.551062 2.21756 0
M  V30 7153 C 692.966 3.48506 0.185685 0
M  V30 7154 C 694.314 4.22756 0.395282 0
M  V30 7155 O 695.338 3.55219 0.264165 0
M  V30 7156 O 694.197 5.42555 0.655475 0
M  V30 7157 H 691.291 0.816007 0.134393 0
M  V30 7158 H 693.837 1.62577 -0.486513 0
M  V30 7159 H 692.609 3.83045 -0.799508 0
M  V30 7160 H 692.232 3.86927 0.91507 0
M  V30 7161 N 693.229 0.160201 1.56784 0
M  V30 7162 C 694.454 -0.497373 2.01348 0
M  V30 7163 C 694.879 -1.56757 1.03966 0
M  V30 7164 O 694.237 -1.81292 0.0174455 0
M  V30 7165 C 694.285 -1.0628 3.44582 0
M  V30 7166 O 693.389 -2.17723 3.50244 0
M  V30 7167 H 692.73 -0.120295 0.653012 0
M  V30 7168 H 695.26 0.260821 2.02931 0
M  V30 7169 H 695.27 -1.38819 3.83658 0
M  V30 7170 H 693.945 -0.279166 4.14962 0
M  V30 7171 H 692.522 -1.86313 3.2302 0
M  V30 7172 N 694.707 -1.5719 -0.113559 0
M  V30 7173 C 696.118 -1.74259 -0.670116 0
M  V30 7174 C 696.469 -0.779694 -1.80042 0
M  V30 7175 O 695.594 0.0461353 -2.16351 0
M  V30 7176 C 696.189 -3.15981 -1.22236 0
M  V30 7177 C 694.748 -3.34537 -1.72516 0
M  V30 7178 C 693.895 -2.70116 -0.627098 0
M  V30 7179 H 696.846 -1.58301 0.112396 0
M  V30 7180 H 696.867 -3.17832 -2.09197 0
M  V30 7181 H 696.379 -3.86038 -0.39949 0
M  V30 7182 H 694.48 -2.6953 -2.57263 0
M  V30 7183 H 694.593 -4.42737 -1.83086 0
M  V30 7184 H 692.957 -2.31501 -1.06204 0
M  V30 7185 H 693.74 -3.42802 0.184889 0
M  V30 7186 N 696.185 0.383891 -1.52853 0
M  V30 7187 C 697.148 1.45197 -1.77343 0
M  V30 7188 C 698.148 1.47362 -0.643522 0
M  V30 7189 O 699.338 1.48443 -0.911613 0
M  V30 7190 C 696.47 2.8445 -1.87885 0
M  V30 7191 H 697.663 1.24764 -2.72716 0
M  V30 7192 H 695.216 0.615939 -1.43652 0
M  V30 7193 H 695.951 3.10222 -0.94515 0
M  V30 7194 H 695.736 2.8428 -2.70051 0
M  V30 7195 H 697.226 3.61832 -2.08488 0
M  V30 7196 N 697.663 1.43903 0.642637 0
M  V30 7197 C 699.074 1.40975 1.22404 0
M  V30 7198 C 699.425 0.1192 1.95838 0
M  V30 7199 O 698.55 -0.780939 2.01818 0
M  V30 7200 C 699.145 2.5538 2.22636 0
M  V30 7201 C 697.704 2.55684 2.76229 0
M  V30 7202 C 696.851 2.32556 1.51039 0
M  V30 7203 H 699.802 1.5265 0.434006 0
M  V30 7204 H 699.823 2.27474 3.05017 0
M  V30 7205 H 699.335 3.49294 1.69161 0
M  V30 7206 H 697.436 1.65679 3.33738 0
M  V30 7207 H 697.549 3.53799 3.23053 0
M  V30 7208 H 695.913 1.81427 1.78764 0
M  V30 7209 H 696.696 3.28569 0.99484 0
M  V30 7210 N 699.141 -0.881989 1.30609 0
M  V30 7211 C 700.387 -1.63647 1.19781 0
M  V30 7212 C 700.72 -1.92632 -0.246265 0
M  V30 7213 O 699.995 -1.54938 -1.17577 0
M  V30 7214 C 700.278 -2.97437 2.02985 0
M  V30 7215 C 700.131 -2.75406 3.55628 0
M  V30 7216 C 701.45 -3.98397 1.86997 0
M  V30 7217 H 698.569 -0.593841 0.436488 0
M  V30 7218 H 701.211 -1.02041 1.60273 0
M  V30 7219 H 699.361 -3.50018 1.68581 0
M  V30 7220 H 701.033 -2.2959 4.00107 0
M  V30 7221 H 699.276 -2.09856 3.79662 0
M  V30 7222 H 699.947 -3.70552 4.09139 0
M  V30 7223 H 702.423 -3.54986 2.17081 0
M  V30 7224 H 701.299 -4.89916 2.47536 0
M  V30 7225 H 701.56 -4.3424 0.829943 0
M  V30 7226 N 700.619 -1.13374 -1.09472 0
M  V30 7227 C 701.865 -0.896516 -1.81908 0
M  V30 7228 C 702.198 0.575933 -1.85463 0
M  V30 7229 O 701.473 1.42618 -1.32251 0
M  V30 7230 C 701.756 -1.48445 -3.28079 0
M  V30 7231 C 701.609 -3.02598 -3.32798 0
M  V30 7232 C 702.928 -1.15226 -4.24748 0
M  V30 7233 H 700.047 -0.327127 -0.660422 0
M  V30 7234 H 702.689 -1.40195 -1.2824 0
M  V30 7235 H 700.839 -1.0546 -3.73912 0
M  V30 7236 H 702.511 -3.54335 -2.95372 0
M  V30 7237 H 700.754 -3.37613 -2.72397 0
M  V30 7238 H 701.425 -3.38835 -4.3577 0
M  V30 7239 H 703.901 -1.52369 -3.87199 0
M  V30 7240 H 702.777 -1.59012 -5.25363 0
M  V30 7241 H 703.038 -0.0658891 -4.42051 0
M  V30 7242 N 702.098 1.27442 -0.927168 0
M  V30 7243 C 703.03 2.25975 -0.383158 0
M  V30 7244 C 704.043 1.55382 0.485832 0
M  V30 7245 O 705.232 1.75986 0.298541 0
M  V30 7246 C 702.332 3.35629 0.469688 0
M  V30 7247 C 701.505 4.35747 -0.379886 0
M  V30 7248 C 700.564 5.24598 0.410227 0
M  V30 7249 O 699.59 5.68909 -0.181888 0
M  V30 7250 N 700.792 5.54737 1.71017 0
M  V30 7251 H 703.557 2.7329 -1.23015 0
M  V30 7252 H 701.118 1.41063 -0.794539 0
M  V30 7253 H 703.11 3.92015 1.00532 0
M  V30 7254 H 701.68 2.87919 1.21744 0
M  V30 7255 H 700.9 3.78634 -1.09682 0
M  V30 7256 H 702.188 4.99648 -0.960717 0
M  V30 7257 H 701.586 5.20594 2.21356 0
M  V30 7258 H 700.143 6.13824 2.19234 0
M  V30 7259 N 703.576 0.692616 1.41565 0
M  V30 7260 C 704.508 -0.0137132 2.29196 0
M  V30 7261 C 705.521 -0.747417 1.44629 0
M  V30 7262 O 706.71 -0.598611 1.68163 0
M  V30 7263 C 703.81 -1.04347 3.22436 0
M  V30 7264 C 702.983 -0.379985 4.35746 0
M  V30 7265 C 702.042 -1.31195 5.09583 0
M  V30 7266 O 701.068 -0.805455 5.63472 0
M  V30 7267 N 702.27 -2.64443 5.16769 0
M  V30 7268 H 705.035 0.738614 2.90456 0
M  V30 7269 H 702.596 0.538415 1.52685 0
M  V30 7270 H 704.588 -1.6686 3.687 0
M  V30 7271 H 703.158 -1.69736 2.62504 0
M  V30 7272 H 702.378 0.424975 3.91903 0
M  V30 7273 H 703.666 0.0814904 5.08735 0
M  V30 7274 H 703.064 -3.08114 4.74428 0
M  V30 7275 H 701.621 -3.22159 5.66619 0
M  V30 7276 N 705.054 -1.51416 0.437162 0
M  V30 7277 C 706.282 -2.06503 -0.128045 0
M  V30 7278 C 706.697 -1.30461 -1.36475 0
M  V30 7279 O 706.054 -0.364127 -1.78831 0
M  V30 7280 C 706.105 -3.58683 -0.450437 0
M  V30 7281 O 705.826 -4.31853 0.737186 0
M  V30 7282 C 707.327 -4.30284 -1.06633 0
M  V30 7283 H 704.547 -0.670952 -0.00800269 0
M  V30 7284 H 707.091 -1.94996 0.616193 0
M  V30 7285 H 705.246 -3.70106 -1.14457 0
M  V30 7286 H 705.66 -5.22467 0.461347 0
M  V30 7287 H 707.134 -5.37848 -1.24191 0
M  V30 7288 H 707.611 -3.88564 -2.0473 0
M  V30 7289 H 708.217 -4.23304 -0.411585 0
M  V30 7290 N 706.532 -0.168513 -1.56696 0
M  V30 7291 C 707.757 0.486688 -2.01609 0
M  V30 7292 C 708.182 1.56203 -1.04796 0
M  V30 7293 O 707.54 1.8128 -0.0270596 0
M  V30 7294 C 707.588 1.04451 -3.45141 0
M  V30 7295 O 706.692 2.15862 -3.51393 0
M  V30 7296 H 706.033 0.116831 -0.653641 0
M  V30 7297 H 708.563 -0.271579 -2.0279 0
M  V30 7298 H 708.573 1.36782 -3.84389 0
M  V30 7299 H 707.248 0.257155 -4.15104 0
M  V30 7300 H 705.825 1.84597 -3.24004 0
M  V30 7301 N 708.01 1.57248 0.105221 0
M  V30 7302 C 708.973 2.00388 1.11252 0
M  V30 7303 C 709.973 0.89594 1.33527 0
M  V30 7304 O 711.163 1.16166 1.29811 0
M  V30 7305 C 708.295 2.35589 2.46395 0
M  V30 7306 H 709.488 2.90591 0.741424 0
M  V30 7307 H 707.041 1.52332 0.349956 0
M  V30 7308 H 707.776 1.4831 2.884 0
M  V30 7309 H 707.561 3.16408 2.31578 0
M  V30 7310 H 709.051 2.69658 3.18864 0
M  V30 7311 N 709.488 -0.375779 1.53054 0
M  V30 7312 C 710.904 -0.716764 1.426 0
M  V30 7313 C 711.104 -1.93651 0.556931 0
M  V30 7314 O 710.16 -2.52475 0.0354461 0
M  V30 7315 C 711.473 -0.939499 2.85646 0
M  V30 7316 C 713.021 -1.04015 2.95212 0
M  V30 7317 C 713.496 -1.29543 4.39298 0
M  V30 7318 N 714.987 -1.36335 4.42682 0
M  V30 7319 C 715.722 -1.57778 5.51266 0
M  V30 7320 N 715.218 -1.76604 6.69913 0
M  V30 7321 N 717.011 -1.60065 5.38828 0
M  V30 7322 H 709.162 0.42664 2.08071 0
M  V30 7323 H 711.425 0.128758 0.939215 0
M  V30 7324 H 711.131 -0.115189 3.51511 0
M  V30 7325 H 711.005 -1.85048 3.2869 0
M  V30 7326 H 713.392 -1.85501 2.29507 0
M  V30 7327 H 713.473 -0.106785 2.55577 0
M  V30 7328 H 713.117 -0.485611 5.05573 0
M  V30 7329 H 713.047 -2.24184 4.76497 0
M  V30 7330 H 715.538 -1.23441 3.5717 0
M  V30 7331 H 715.851 -1.9251 7.48438 0
M  V30 7332 H 714.196 -1.73802 6.72917 0
M  V30 7333 H 717.387 -1.44917 4.45103 0
M  V30 7334 H 717.56 -1.76435 6.23518 0
M  V30 7335 N 710.966 -1.44241 -0.634997 0
M  V30 7336 C 712.194 -1.50296 -1.42193 0
M  V30 7337 C 712.609 -0.12658 -1.88375 0
M  V30 7338 O 711.966 0.86678 -1.60603 0
M  V30 7339 C 712.017 -2.46437 -2.64482 0
M  V30 7340 O 711.738 -3.78724 -2.20226 0
M  V30 7341 C 713.239 -2.61918 -3.57651 0
M  V30 7342 H 710.459 -0.509865 -0.43621 0
M  V30 7343 H 713.003 -1.89167 -0.776921 0
M  V30 7344 H 711.158 -2.10712 -3.25083 0
M  V30 7345 H 711.572 -4.30595 -2.9948 0
M  V30 7346 H 713.046 -3.33225 -4.40074 0
M  V30 7347 H 713.523 -1.67017 -4.06204 0
M  V30 7348 H 714.129 -2.98528 -3.02921 0
M  V30 7349 N 712.444 0.87505 -1.31075 0
M  V30 7350 C 713.672 1.66058 -1.23419 0
M  V30 7351 C 714.087 1.87723 0.201347 0
M  V30 7352 O 713.444 1.43178 1.13165 0
M  V30 7353 C 713.495 3.03142 -1.96945 0
M  V30 7354 O 713.216 2.82448 -3.34895 0
M  V30 7355 C 714.717 3.97583 -1.96067 0
M  V30 7356 H 711.937 0.517868 -0.426677 0
M  V30 7357 H 714.481 1.09258 -1.72867 0
M  V30 7358 H 712.636 3.56645 -1.51271 0
M  V30 7359 H 713.05 3.69483 -3.72267 0
M  V30 7360 H 714.524 4.91104 -2.52034 0
M  V30 7361 H 715.001 4.2898 -0.941961 0
M  V30 7362 H 715.607 3.50015 -2.41597 0
M  V30 7363 N 713.922 1.13953 1.08869 0
M  V30 7364 C 715.15 0.92817 1.84912 0
M  V30 7365 C 715.565 -0.523197 1.81406 0
M  V30 7366 O 714.922 -1.36237 1.21432 0
M  V30 7367 C 714.973 1.41509 3.32652 0
M  V30 7368 O 714.694 2.80959 3.36145 0
M  V30 7369 C 716.195 1.243 4.25517 0
M  V30 7370 H 713.415 0.330612 0.583898 0
M  V30 7371 H 715.959 1.51349 1.37527 0
M  V30 7372 H 714.114 0.872648 3.77444 0
M  V30 7373 H 714.528 3.02704 4.28335 0
M  V30 7374 H 716.002 1.63237 5.27312 0
M  V30 7375 H 716.479 0.18532 4.38809 0
M  V30 7376 H 717.085 1.77375 3.86546 0
M  V30 7377 N 715.4 -1.26948 0.933913 0
M  V30 7378 C 716.625 -1.98724 0.593589 0
M  V30 7379 C 717.05 -1.6915 -0.822801 0
M  V30 7380 O 716.408 -0.93533 -1.5531 0
M  V30 7381 C 716.456 -3.50834 0.833542 0
M  V30 7382 O 715.56 -4.12284 -0.0978788 0
M  V30 7383 H 714.901 -0.623683 0.227849 0
M  V30 7384 H 717.431 -1.61599 1.25486 0
M  V30 7385 H 717.441 -4.01018 0.75156 0
M  V30 7386 H 716.116 -3.71691 1.86597 0
M  V30 7387 H 714.693 -3.72884 0.0345443 0
M  V30 7388 N 716.879 -0.700114 -1.41195 0
M  V30 7389 C 717.827 -0.0263301 -2.32585 0
M  V30 7390 C 718.821 0.763683 -1.51209 0
M  V30 7391 O 720.027 0.668793 -1.67114 0
M  V30 7392 H 716.402 0.0102869 -0.75193 0
M  V30 7393 H 718.373 -0.814087 -2.8708 0
M  V30 7394 C 717.122 0.892793 -3.36042 0
M  V30 7395 H 716.445 0.294306 -3.98715 0
M  V30 7396 H 717.885 1.33247 -4.02518 0
M  V30 7397 C 716.344 2.01109 -2.7029 0
M  V30 7398 O 716.874 3.10035 -2.55423 0
M  V30 7399 N 715.08 1.79015 -2.28915 0
M  V30 7400 H 714.627 0.904275 -2.41207 0
M  V30 7401 H 714.585 2.54022 -1.85257 0
M  V30 7402 N 718.357 1.51182 -0.445186 0
M  V30 7403 C 719.605 2.01753 0.11841 0
M  V30 7404 C 719.926 1.33087 1.42523 0
M  V30 7405 O 719.196 0.467891 1.9023 0
M  V30 7406 H 717.776 0.745536 0.0467492 0
M  V30 7407 H 720.438 1.85765 -0.589688 0
M  V30 7408 H 719.534 3.10762 0.288665 0
M  V30 7409 N 719.835 0.176821 1.56605 0
M  V30 7410 C 720.785 -0.763718 2.14829 0
M  V30 7411 C 721.769 -1.18903 1.08401 0
M  V30 7412 O 722.961 -1.15048 1.3451 0
M  V30 7413 C 720.09 -1.99069 2.7969 0
M  V30 7414 C 719.176 -1.58711 3.93283 0
M  V30 7415 N 719.567 -0.893423 4.97847 0
M  V30 7416 C 717.865 -1.87774 4.04545 0
M  V30 7417 C 718.566 -0.693866 5.77547 0
M  V30 7418 N 717.542 -1.23699 5.29339 0
M  V30 7419 H 721.344 -0.224811 2.93039 0
M  V30 7420 H 718.858 -0.0236563 1.62383 0
M  V30 7421 H 720.855 -2.67478 3.19783 0
M  V30 7422 H 719.515 -2.53449 2.02962 0
M  V30 7423 H 720.526 -0.550868 5.14962 0
M  V30 7424 H 717.203 -2.43793 3.38927 0
M  V30 7425 H 718.593 -0.144899 6.71744 0
M  V30 7426 N 721.313 -1.57302 -0.09688 0
M  V30 7427 C 722.261 -2.02942 -1.13654 0
M  V30 7428 C 723.255 -0.930173 -1.41577 0
M  V30 7429 O 724.461 -1.11535 -1.41279 0
M  V30 7430 H 720.836 -0.646726 -0.383731 0
M  V30 7431 H 722.807 -2.89452 -0.725267 0
M  V30 7432 C 721.556 -2.46815 -2.44903 0
M  V30 7433 H 720.879 -3.30979 -2.24261 0
M  V30 7434 H 722.319 -2.82527 -3.16156 0
M  V30 7435 C 720.778 -1.34071 -3.09074 0
M  V30 7436 O 721.308 -0.668856 -3.96092 0
M  V30 7437 N 719.514 -1.09214 -2.69296 0
M  V30 7438 H 719.061 -1.64029 -1.98626 0
M  V30 7439 H 719.019 -0.339785 -3.12559 0
M  V30 7440 N 722.791 0.367657 -1.53252 0
M  V30 7441 C 724.202 0.944563 -1.61043 0
M  V30 7442 C 724.553 1.90325 -0.476546 0
M  V30 7443 O 723.678 2.12721 0.397333 0
M  V30 7444 C 724.273 1.71992 -2.91898 0
M  V30 7445 C 722.832 2.2462 -3.02031 0
M  V30 7446 C 721.979 1.05799 -2.56324 0
M  V30 7447 H 724.93 0.146516 -1.58022 0
M  V30 7448 H 724.951 2.58095 -2.79584 0
M  V30 7449 H 724.463 1.02192 -3.74404 0
M  V30 7450 H 722.564 2.97668 -2.24108 0
M  V30 7451 H 722.677 2.52644 -4.07073 0
M  V30 7452 H 721.041 1.42435 -2.1115 0
M  V30 7453 H 721.824 0.375008 -3.41246 0
M  V30 7454 N 724.269 1.44576 0.627338 0
M  V30 7455 C 725.516 1.47558 1.38682 0
M  V30 7456 C 725.844 0.109636 1.94191 0
M  V30 7457 O 725.099 -0.889092 1.74338 0
M  V30 7458 C 725.398 2.48644 2.56731 0
M  V30 7459 C 725.064 3.93873 2.19489 0
M  V30 7460 C 723.726 4.33421 2.09045 0
M  V30 7461 C 726.078 4.85286 1.90124 0
M  V30 7462 C 723.406 5.62303 1.6743 0
M  V30 7463 C 725.758 6.14559 1.50001 0
M  V30 7464 C 724.422 6.53058 1.38101 0
M  V30 7465 H 723.692 0.539955 0.507474 0
M  V30 7466 H 726.339 1.77811 0.711021 0
M  V30 7467 H 724.644 2.11889 3.29561 0
M  V30 7468 H 726.341 2.48197 3.14959 0
M  V30 7469 H 722.931 3.62587 2.28537 0
M  V30 7470 H 727.115 4.55483 1.971 0
M  V30 7471 H 722.371 5.90945 1.56823 0
M  V30 7472 H 726.545 6.84848 1.26319 0
M  V30 7473 H 724.172 7.52826 1.05628 0
M  V30 7474 N 725.747 -0.868086 1.31537 0
M  V30 7475 C 727.163 -1.15414 1.10235 0
M  V30 7476 C 727.363 -2.01106 -0.125947 0
M  V30 7477 O 726.419 -2.38994 -0.814734 0
M  V30 7478 C 727.732 -1.84445 2.37488 0
M  V30 7479 C 729.28 -1.97139 2.43116 0
M  V30 7480 C 729.755 -2.69585 3.70254 0
M  V30 7481 N 731.246 -2.77119 3.71159 0
M  V30 7482 C 731.981 -3.33791 4.6623 0
M  V30 7483 N 731.477 -3.9138 5.71659 0
M  V30 7484 N 733.27 -3.31767 4.53747 0
M  V30 7485 H 725.421 -0.297109 2.10312 0
M  V30 7486 H 727.684 -0.194227 0.92789 0
M  V30 7487 H 727.39 -1.2893 3.27215 0
M  V30 7488 H 727.264 -2.84709 2.47428 0
M  V30 7489 H 729.651 -2.51818 1.53856 0
M  V30 7490 H 729.732 -0.95912 2.37138 0
M  V30 7491 H 729.376 -2.15572 4.59881 0
M  V30 7492 H 729.306 -3.71223 3.73499 0
M  V30 7493 H 731.797 -2.3625 2.94948 0
M  V30 7494 H 732.11 -4.3274 6.40278 0
M  V30 7495 H 730.455 -3.8975 5.7543 0
M  V30 7496 H 733.646 -2.86016 3.70557 0
M  V30 7497 H 733.819 -3.75636 5.28017 0
M  V30 7498 N 727.225 -1.14528 -1.08264 0
M  V30 7499 C 728.173 -0.829201 -2.17318 0
M  V30 7500 C 729.167 0.193521 -1.68291 0
M  V30 7501 O 730.373 0.0494744 -1.79932 0
M  V30 7502 H 726.748 -0.250435 -0.709074 0
M  V30 7503 H 728.719 -1.75683 -2.41201 0
M  V30 7504 C 727.468 -0.324663 -3.46181 0
M  V30 7505 H 726.791 -1.10299 -3.84284 0
M  V30 7506 H 728.231 -0.142059 -4.23762 0
M  V30 7507 C 726.69 0.952033 -3.23169 0
M  V30 7508 O 727.22 2.02549 -3.46896 0
M  V30 7509 N 725.426 0.887854 -2.76705 0
M  V30 7510 H 724.973 0.0141402 -2.57596 0
M  V30 7511 H 724.931 1.74263 -2.61686 0
M  V30 7512 O 728.742 1.2085 -1.07133 0
M  V30 7513 H 729.433 1.78311 -0.756635 0
M  V30 END ATOM
M  V30 BEGIN BOND
M  V30 END BOND
M  V30 END CTAB
M  END
$$$$
