drugbank_target|P03007 DNA polymerase III subunit epsilon (DB01643)
 OpenBabel12092120223D

  0  0  0     0  0            999 V3000
M  V30 BEGIN CTAB
M  V30 COUNTS 10046 10782 0 0 0
M  V30 BEGIN ATOM
M  V30 1 H -1.547 9.37743 -1.21644 0
M  V30 2 O -1.44 8.89599 -0.40059 0
M  V30 3 P 0 8.91 0 0
M  V30 4 O 0.22 10.1746 0.733838 0
M  V30 5 O 0.79 8.73346 -1.23964 0
M  V30 6 O 0.25 7.66872 0.971405 0
M  V30 7 C -0.69 7.42405 2.04668 0
M  V30 8 C 0.04 6.86059 3.24661 0
M  V30 9 O 0.25 5.42934 3.03695 0
M  V30 10 C 1.44 7.41287 3.50796 0
M  V30 11 O 1.83 7.27073 4.86816 0
M  V30 12 C 2.32 6.5273 2.63741 0
M  V30 13 C 1.61 5.1842 2.73198 0
M  V30 14 N 1.66 4.38762 1.4784 0
M  V30 15 H -1.178 8.36899 2.3252 0
M  V30 16 H -1.45 6.70391 1.71179 0
M  V30 17 H -0.582 7.03638 4.13219 0
M  V30 18 H 2.073 4.59931 3.54016 0
M  V30 19 H 2.353 6.88995 1.59871 0
M  V30 20 H 3.344 6.4684 3.0373 0
M  V30 21 H 1.51 8.47002 3.20749 0
M  V30 22 P 3.37998 7.20834 5.23717 0
M  V30 23 O 3.59998 7.79853 6.57286 0
M  V30 24 O 4.16998 7.79239 4.12957 0
M  V30 25 O 3.62998 5.63315 5.29344 0
M  V30 26 C 2.68998 4.80255 6.01876 0
M  V30 27 C 3.41998 3.64202 6.65911 0
M  V30 28 O 3.62998 2.60694 5.64732 0
M  V30 29 C 4.81998 3.93473 7.1943 0
M  V30 30 O 5.20998 3.02071 8.21205 0
M  V30 31 C 5.69998 3.73047 5.97036 0
M  V30 32 C 4.98998 2.58828 5.25741 0
M  V30 33 N 5.03998 2.68068 3.77503 0
M  V30 34 H 2.20098 5.40332 6.79951 0
M  V30 35 H 1.93098 4.41613 5.32378 0
M  V30 36 H 2.79798 3.26331 7.47797 0
M  V30 37 P 6.75996 2.75334 8.47391 0
M  V30 38 O 6.97996 2.44595 9.90239 0
M  V30 39 O 7.54996 3.87732 7.92204 0
M  V30 40 O 7.00996 1.4459 7.59357 0
M  V30 41 C 6.06996 0.347563 7.69115 0
M  V30 42 C 6.79996 -0.96767 7.52806 0
M  V30 43 O 7.00996 -1.21036 6.1011 0
M  V30 44 C 8.19996 -1.04544 8.13308 0
M  V30 45 O 8.58996 -2.38311 8.41922 0
M  V30 46 C 9.07996 -0.491279 7.02284 0
M  V30 47 C 8.36996 -0.996264 5.77469 0
M  V30 48 N 8.41996 -0.0501808 4.62873 0
M  V30 49 C 8.56996 -0.588177 3.36904 0
M  V30 50 O 8.65996 -1.78598 3.17173 0
M  V30 51 N 8.60996 0.329694 2.33686 0
M  V30 52 C 8.51996 1.6953 2.45079 0
M  V30 53 O 8.56996 2.41926 1.44899 0
M  V30 54 C 8.36996 2.16933 3.80505 0
M  V30 55 C 8.25996 3.65373 3.97621 0
M  V30 56 C 8.31996 1.30326 4.83752 0
M  V30 57 H 5.57996 0.374722 8.67691 0
M  V30 58 H 5.31096 0.443421 6.90177 0
M  V30 59 H 6.17796 -1.75537 7.96793 0
M  V30 60 H 8.83296 -1.94496 5.46629 0
M  V30 61 H 9.11196 0.608651 7.04676 0
M  V30 62 H 10.104 -0.889672 7.08939 0
M  V30 63 H 8.26996 -0.43308 9.04564 0
M  V30 64 H 8.19896 1.68366 5.8516 0
M  V30 65 H 9.22896 4.05985 4.30448 0
M  V30 66 H 7.49196 3.88028 4.72875 0
M  V30 67 H 7.97996 4.11381 3.01609 0
M  V30 68 H 8.71596 -0.0393617 1.41345 0
M  V30 69 P 10.1399 -2.75334 8.47391 0
M  V30 70 O 10.3599 -3.84204 9.44982 0
M  V30 71 O 10.9299 -1.51982 8.68909 0
M  V30 72 O 10.3899 -3.29363 6.99321 0
M  V30 73 C 9.44994 -4.24066 6.42823 0
M  V30 74 C 10.1799 -5.20775 5.52155 0
M  V30 75 O 10.3899 -4.56607 4.22514 0
M  V30 76 C 11.5799 -5.62697 5.96604 0
M  V30 77 O 11.9699 -6.87667 5.41053 0
M  V30 78 C 12.4599 -4.52537 5.39283 0
M  V30 79 C 11.7499 -4.20027 4.08623 0
M  V30 80 N 11.7999 -2.76189 3.71603 0
M  V30 81 C 11.7199 -1.66944 4.54297 0
M  V30 82 N 11.7899 -0.536169 3.91344 0
M  V30 83 C 11.9399 -0.901569 2.58849 0
M  V30 84 C 12.0699 -0.146599 1.40236 0
M  V30 85 N 12.0799 1.18234 1.37046 0
M  V30 86 N 12.1899 -0.822941 0.249738 0
M  V30 87 C 12.1799 -2.15179 0.280525 0
M  V30 88 N 12.0599 -2.96414 1.30822 0
M  V30 89 C 11.9399 -2.25804 2.44748 0
M  V30 90 H 8.96194 -4.79756 7.24086 0
M  V30 91 H 8.68994 -3.69963 5.84682 0
M  V30 92 H 9.55794 -6.10431 5.41508 0
M  V30 93 H 12.2129 -4.78816 3.28024 0
M  V30 94 H 12.4929 -3.64957 6.05871 0
M  V30 95 H 13.4839 -4.88748 5.21323 0
M  V30 96 H 11.6499 -5.66789 7.0643 0
M  V30 97 H 11.6089 -1.74684 5.62396 0
M  V30 98 H 11.9899 1.71949 2.24394 0
M  V30 99 H 12.1789 1.67511 0.470742 0
M  V30 100 H 12.2869 -2.63704 -0.6828 0
M  V30 101 P 13.5199 -7.20834 5.23717 0
M  V30 102 O 13.7399 -8.66104 5.38572 0
M  V30 103 O 14.3099 -6.33544 6.1349 0
M  V30 104 O 13.7699 -6.7751 3.72168 0
M  V30 105 C 12.8299 -7.20825 2.7076 0
M  V30 106 C 13.5599 -7.45864 1.40599 0
M  V30 107 O 13.7699 -6.17651 0.734225 0
M  V30 108 C 14.9599 -8.05808 1.51899 0
M  V30 109 O 15.3499 -8.74358 0.335205 0
M  V30 110 C 15.8399 -6.83093 1.70294 0
M  V30 111 C 15.1299 -5.79992 0.836974 0
M  V30 112 N 15.1799 -4.41864 1.38293 0
M  V30 113 H 12.3409 -8.13644 3.0377 0
M  V30 114 H 12.0709 -6.42788 2.55485 0
M  V30 115 H 12.9379 -8.12039 0.792769 0
M  V30 116 P 16.8999 -8.91 1.09116e-15 0
M  V30 117 O 17.1199 -10.1736 -0.733766 0
M  V30 118 O 17.6899 -8.73247 1.2395 0
M  V30 119 O 17.1499 -7.66872 -0.971405 0
M  V30 120 C 16.2099 -7.42212 -2.04614 0
M  V30 121 C 16.9399 -6.86059 -3.24661 0
M  V30 122 O 17.1499 -5.42847 -3.03646 0
M  V30 123 C 18.3399 -7.41196 -3.50753 0
M  V30 124 O 18.7299 -7.27073 -4.86816 0
M  V30 125 C 19.2199 -6.5273 -2.63741 0
M  V30 126 C 18.5099 -5.1842 -2.73198 0
M  V30 127 N 18.5599 -4.38668 -1.47808 0
M  V30 128 C 18.7099 -3.02239 -1.60048 0
M  V30 129 O 18.7999 -2.46459 -2.67869 0
M  V30 130 N 18.7499 -2.32436 -0.408571 0
M  V30 131 C 18.6599 -2.85471 0.854993 0
M  V30 132 O 18.7099 -2.12566 1.8531 0
M  V30 133 C 18.5099 -4.28918 0.887335 0
M  V30 134 C 18.3999 -4.91066 2.24619 0
M  V30 135 C 18.4599 -5.00349 -0.255399 0
M  V30 136 H 15.7199 -8.36803 -2.32493 0
M  V30 137 H 15.4509 -6.701 -1.71105 0
M  V30 138 H 16.3179 -7.03551 -4.13168 0
M  V30 139 H 18.9729 -4.59773 -3.53894 0
M  V30 140 H 19.2519 -6.88995 -1.59871 0
M  V30 141 H 20.2439 -6.46749 -3.03687 0
M  V30 142 H 18.4099 -8.46908 -3.20714 0
M  V30 143 H 18.3389 -6.08548 -0.206986 0
M  V30 144 H 19.3689 -5.34836 2.53099 0
M  V30 145 H 17.6319 -5.69638 2.2291 0
M  V30 146 H 18.1199 -4.13971 2.98044 0
M  V30 147 H 18.8559 -1.33211 -0.474216 0
M  V30 148 P 20.2799 -7.20834 -5.23717 0
M  V30 149 O 20.4999 -7.79853 -6.57286 0
M  V30 150 O 21.0699 -7.79239 -4.12957 0
M  V30 151 O 20.5299 -5.63315 -5.29344 0
M  V30 152 C 19.5899 -4.80255 -6.01876 0
M  V30 153 C 20.3199 -3.64202 -6.65911 0
M  V30 154 O 20.5299 -2.60694 -5.64732 0
M  V30 155 C 21.7199 -3.93473 -7.1943 0
M  V30 156 O 22.1099 -3.02071 -8.21205 0
M  V30 157 C 22.5999 -3.73047 -5.97036 0
M  V30 158 C 21.8899 -2.58828 -5.25741 0
M  V30 159 N 21.9399 -2.68068 -3.77503 0
M  V30 160 C 21.8599 -3.79715 -2.96723 0
M  V30 161 N 21.9399 -3.5377 -1.68852 0
M  V30 162 C 22.0799 -2.15054 -1.63254 0
M  V30 163 C 22.2099 -1.28964 -0.518571 0
M  V30 164 N 22.3299 0.0538097 -0.918425 0
M  V30 165 C 22.3299 0.494275 -2.22578 0
M  V30 166 N 22.4599 1.81086 -2.40434 0
M  V30 167 N 22.1999 -0.313645 -3.27502 0
M  V30 168 C 22.0799 -1.61829 -2.91033 0
M  V30 169 H 19.1009 -5.40332 -6.79951 0
M  V30 170 H 18.8309 -4.41613 -5.32378 0
M  V30 171 H 19.6979 -3.26331 -7.47797 0
M  V30 172 P 23.6599 -2.75334 -8.47391 0
M  V30 173 O 23.8799 -2.44571 -9.90142 0
M  V30 174 O 24.4499 -3.87688 -7.92115 0
M  V30 175 O 23.9099 -1.4459 -7.59357 0
M  V30 176 C 22.9699 -0.347608 -7.69215 0
M  V30 177 C 23.6999 0.96767 -7.52806 0
M  V30 178 O 23.9099 1.21036 -6.1011 0
M  V30 179 C 25.0999 1.04544 -8.13308 0
M  V30 180 O 25.4899 2.38311 -8.41922 0
M  V30 181 C 25.9799 0.491279 -7.02284 0
M  V30 182 C 25.2699 0.996264 -5.77469 0
M  V30 183 N 25.3199 0.0501916 -4.62973 0
M  V30 184 H 22.4809 -0.374722 -8.67691 0
M  V30 185 H 22.2109 -0.443485 -6.90277 0
M  V30 186 H 23.0779 1.75537 -7.96793 0
M  V30 187 P 27.0398 2.75334 -8.47391 0
M  V30 188 O 27.2598 3.84128 -9.44797 0
M  V30 189 O 27.8298 1.51947 -8.68712 0
M  V30 190 O 27.2898 3.29363 -6.99321 0
M  V30 191 C 26.3498 4.24011 -6.4274 0
M  V30 192 C 27.0798 5.20775 -5.52155 0
M  V30 193 O 27.2898 4.56534 -4.22446 0
M  V30 194 C 28.4798 5.62629 -5.96531 0
M  V30 195 O 28.8698 6.87667 -5.41053 0
M  V30 196 C 29.3598 4.52537 -5.39283 0
M  V30 197 C 28.6498 4.20027 -4.08623 0
M  V30 198 N 28.6998 2.76189 -3.71603 0
M  V30 199 H 25.8608 4.797 -7.24003 0
M  V30 200 H 25.5908 3.69856 -5.84513 0
M  V30 201 H 26.4578 6.10356 -5.41441 0
M  V30 202 P 30.4198 7.20834 -5.23717 0
M  V30 203 O 30.6398 8.66104 -5.38572 0
M  V30 204 O 31.2098 6.33544 -6.1349 0
M  V30 205 O 30.6698 6.7751 -3.72168 0
M  V30 206 C 29.7298 7.20825 -2.7076 0
M  V30 207 C 30.4598 7.45864 -1.40599 0
M  V30 208 O 30.6698 6.17651 -0.734225 0
M  V30 209 C 31.8598 8.05808 -1.51899 0
M  V30 210 O 32.2498 8.74358 -0.335205 0
M  V30 211 C 32.7398 6.83093 -1.70294 0
M  V30 212 C 32.0298 5.79992 -0.836974 0
M  V30 213 N 32.0798 4.41864 -1.38293 0
M  V30 214 H 29.2408 8.13644 -3.0377 0
M  V30 215 H 28.9708 6.42788 -2.55485 0
M  V30 216 H 29.8378 8.12039 -0.792769 0
M  V30 217 P 33.7998 8.91 -2.18232e-15 0
M  V30 218 O 34.0198 10.1726 0.733694 0
M  V30 219 O 34.5898 8.73148 -1.23936 0
M  V30 220 O 34.0498 7.66872 0.971405 0
M  V30 221 C 33.1098 7.42309 2.04641 0
M  V30 222 C 33.8398 6.86059 3.24661 0
M  V30 223 O 34.0498 5.42847 3.03646 0
M  V30 224 C 35.2398 7.41196 3.50753 0
M  V30 225 O 35.6298 7.27073 4.86816 0
M  V30 226 C 36.1198 6.5273 2.63741 0
M  V30 227 C 35.4098 5.1842 2.73198 0
M  V30 228 N 35.4598 4.38762 1.4784 0
M  V30 229 H 32.6208 8.36803 2.32493 0
M  V30 230 H 32.3508 6.70197 1.71129 0
M  V30 231 H 33.2178 7.03551 4.13168 0
M  V30 232 P 37.1798 7.20834 5.23717 0
M  V30 233 O 37.3998 7.79853 6.57286 0
M  V30 234 O 37.9698 7.79239 4.12957 0
M  V30 235 O 37.4298 5.63315 5.29344 0
M  V30 236 C 36.4898 4.80255 6.01876 0
M  V30 237 C 37.2198 3.64202 6.65911 0
M  V30 238 O 37.4298 2.60694 5.64732 0
M  V30 239 C 38.6198 3.93473 7.1943 0
M  V30 240 O 39.0098 3.02071 8.21205 0
M  V30 241 C 39.4998 3.73047 5.97036 0
M  V30 242 C 38.7898 2.58828 5.25741 0
M  V30 243 N 38.8398 2.68068 3.77503 0
M  V30 244 H 36.0008 5.40332 6.79951 0
M  V30 245 H 35.7308 4.41613 5.32378 0
M  V30 246 H 36.5978 3.26331 7.47797 0
M  V30 247 P 40.5598 2.75334 8.47391 0
M  V30 248 O 40.7798 2.44595 9.90239 0
M  V30 249 O 41.3498 3.87732 7.92204 0
M  V30 250 O 40.8098 1.4459 7.59357 0
M  V30 251 C 39.8698 0.347563 7.69115 0
M  V30 252 C 40.5998 -0.96767 7.52806 0
M  V30 253 O 40.8098 -1.21036 6.1011 0
M  V30 254 C 41.9998 -1.04544 8.13308 0
M  V30 255 O 42.3898 -2.38311 8.41922 0
M  V30 256 C 42.8798 -0.491279 7.02284 0
M  V30 257 C 42.1698 -0.996264 5.77469 0
M  V30 258 N 42.2198 -0.0501808 4.62873 0
M  V30 259 C 42.3698 -0.588177 3.36904 0
M  V30 260 O 42.4598 -1.78598 3.17173 0
M  V30 261 N 42.4098 0.329694 2.33686 0
M  V30 262 C 42.3198 1.6953 2.45079 0
M  V30 263 O 42.3698 2.41926 1.44899 0
M  V30 264 C 42.1698 2.16933 3.80505 0
M  V30 265 C 42.0598 3.65373 3.97621 0
M  V30 266 C 42.1198 1.30326 4.83752 0
M  V30 267 H 39.3798 0.374722 8.67691 0
M  V30 268 H 39.1108 0.443421 6.90177 0
M  V30 269 H 39.9778 -1.75537 7.96793 0
M  V30 270 H 42.6328 -1.94496 5.46629 0
M  V30 271 H 42.9118 0.608651 7.04676 0
M  V30 272 H 43.9038 -0.889672 7.08939 0
M  V30 273 H 42.0698 -0.43308 9.04564 0
M  V30 274 H 41.9988 1.68366 5.8516 0
M  V30 275 H 43.0288 4.05985 4.30448 0
M  V30 276 H 41.2918 3.88028 4.72875 0
M  V30 277 H 41.7798 4.11381 3.01609 0
M  V30 278 H 42.5158 -0.0393617 1.41345 0
M  V30 279 P 43.9397 -2.75334 8.47391 0
M  V30 280 O 44.1597 -3.84128 9.44797 0
M  V30 281 O 44.7297 -1.51947 8.68712 0
M  V30 282 O 44.1897 -3.29363 6.99321 0
M  V30 283 C 43.2497 -4.24011 6.4274 0
M  V30 284 C 43.9797 -5.20775 5.52155 0
M  V30 285 O 44.1897 -4.56534 4.22446 0
M  V30 286 C 45.3797 -5.62629 5.96531 0
M  V30 287 O 45.7697 -6.87667 5.41053 0
M  V30 288 C 46.2597 -4.52537 5.39283 0
M  V30 289 C 45.5497 -4.20027 4.08623 0
M  V30 290 N 45.5997 -2.76189 3.71603 0
M  V30 291 H 42.7607 -4.797 7.24003 0
M  V30 292 H 42.4907 -3.69856 5.84513 0
M  V30 293 H 43.3577 -6.10356 5.41441 0
M  V30 294 P 47.3197 -7.20834 5.23717 0
M  V30 295 O 47.5397 -8.66189 5.38625 0
M  V30 296 O 48.1097 -6.33615 6.1356 0
M  V30 297 O 47.5697 -6.7751 3.72168 0
M  V30 298 C 46.6297 -7.20732 2.70725 0
M  V30 299 C 47.3597 -7.45864 1.40599 0
M  V30 300 O 47.5697 -6.17651 0.734225 0
M  V30 301 C 48.7597 -8.05808 1.51899 0
M  V30 302 O 49.1497 -8.74358 0.335205 0
M  V30 303 C 49.6397 -6.83093 1.70294 0
M  V30 304 C 48.9297 -5.79992 0.836974 0
M  V30 305 N 48.9797 -4.41769 1.38263 0
M  V30 306 C 49.1297 -3.38591 0.481702 0
M  V30 307 O 49.2197 -3.56839 -0.718452 0
M  V30 308 N 49.1697 -2.1206 1.03569 0
M  V30 309 C 49.0797 -1.80696 2.36966 0
M  V30 310 O 49.1297 -0.630473 2.74862 0
M  V30 311 C 48.9297 -2.94845 3.23898 0
M  V30 312 C 48.8197 -2.65253 4.70362 0
M  V30 313 C 48.8797 -4.19803 2.73435 0
M  V30 314 H 46.1397 -8.13644 3.0377 0
M  V30 315 H 45.8707 -6.42695 2.55448 0
M  V30 316 H 46.7377 -8.12039 0.792769 0
M  V30 317 H 49.3927 -5.79978 -0.160587 0
M  V30 318 H 49.6717 -6.51379 2.75643 0
M  V30 319 H 50.6637 -7.01734 1.34462 0
M  V30 320 H 48.8297 -8.73674 2.38337 0
M  V30 321 H 48.7587 -5.04492 3.4095 0
M  V30 322 H 49.7887 -2.83924 5.1913 0
M  V30 323 H 48.0517 -3.29824 5.15163 0
M  V30 324 H 48.5397 -1.59723 4.84449 0
M  V30 325 H 49.2757 -1.35644 0.399345 0
M  V30 326 P 50.6997 -8.91 3.27348e-15 0
M  V30 327 O 50.9197 -10.1736 -0.733766 0
M  V30 328 O 51.4897 -8.73247 1.2395 0
M  V30 329 O 50.9497 -7.66872 -0.971405 0
M  V30 330 C 50.0097 -7.42212 -2.04614 0
M  V30 331 C 50.7397 -6.86059 -3.24661 0
M  V30 332 O 50.9497 -5.42847 -3.03646 0
M  V30 333 C 52.1397 -7.41196 -3.50753 0
M  V30 334 O 52.5297 -7.27073 -4.86816 0
M  V30 335 C 53.0197 -6.5273 -2.63741 0
M  V30 336 C 52.3097 -5.1842 -2.73198 0
M  V30 337 N 52.3597 -4.38668 -1.47808 0
M  V30 338 C 52.5097 -3.02239 -1.60048 0
M  V30 339 O 52.5997 -2.46459 -2.67869 0
M  V30 340 N 52.5497 -2.32436 -0.408571 0
M  V30 341 C 52.4597 -2.85471 0.854993 0
M  V30 342 O 52.5097 -2.12566 1.8531 0
M  V30 343 C 52.3097 -4.28918 0.887335 0
M  V30 344 C 52.1997 -4.91066 2.24619 0
M  V30 345 C 52.2597 -5.00349 -0.255399 0
M  V30 346 H 49.5197 -8.36803 -2.32493 0
M  V30 347 H 49.2507 -6.701 -1.71105 0
M  V30 348 H 50.1177 -7.03551 -4.13168 0
M  V30 349 H 52.7727 -4.59773 -3.53894 0
M  V30 350 H 53.0517 -6.88995 -1.59871 0
M  V30 351 H 54.0437 -6.46749 -3.03687 0
M  V30 352 H 52.2097 -8.46908 -3.20714 0
M  V30 353 H 52.1387 -6.08548 -0.206986 0
M  V30 354 H 53.1687 -5.34836 2.53099 0
M  V30 355 H 51.4317 -5.69638 2.2291 0
M  V30 356 H 51.9197 -4.13971 2.98044 0
M  V30 357 H 52.6557 -1.33211 -0.474216 0
M  V30 358 P 54.0797 -7.20834 -5.23717 0
M  V30 359 O 54.2997 -7.79853 -6.57286 0
M  V30 360 O 54.8697 -7.79239 -4.12957 0
M  V30 361 O 54.3297 -5.63315 -5.29344 0
M  V30 362 C 53.3897 -4.80255 -6.01876 0
M  V30 363 C 54.1197 -3.64202 -6.65911 0
M  V30 364 O 54.3297 -2.60694 -5.64732 0
M  V30 365 C 55.5197 -3.93473 -7.1943 0
M  V30 366 O 55.9097 -3.02071 -8.21205 0
M  V30 367 C 56.3997 -3.73047 -5.97036 0
M  V30 368 C 55.6897 -2.58828 -5.25741 0
M  V30 369 N 55.7397 -2.68068 -3.77503 0
M  V30 370 C 55.6597 -3.79715 -2.96723 0
M  V30 371 N 55.7397 -3.5377 -1.68852 0
M  V30 372 C 55.8797 -2.15054 -1.63254 0
M  V30 373 C 56.0097 -1.28964 -0.518571 0
M  V30 374 O 56.0297 -1.56826 0.679156 0
M  V30 375 N 56.1297 0.0538097 -0.918425 0
M  V30 376 C 56.1297 0.494275 -2.22578 0
M  V30 377 N 56.2597 1.81086 -2.40434 0
M  V30 378 N 55.9997 -0.313645 -3.27502 0
M  V30 379 C 55.8797 -1.61829 -2.91033 0
M  V30 380 H 52.9007 -5.40332 -6.79951 0
M  V30 381 H 52.6307 -4.41613 -5.32378 0
M  V30 382 H 53.4977 -3.26331 -7.47797 0
M  V30 383 H 56.1527 -1.63422 -5.56814 0
M  V30 384 H 56.4317 -4.63374 -5.34244 0
M  V30 385 H 57.4237 -3.44728 -6.25838 0
M  V30 386 H 55.5897 -4.96652 -7.57263 0
M  V30 387 H 55.5407 -4.80617 -3.3614 0
M  V30 388 H 56.2227 0.742702 -0.199384 0
M  V30 389 H 56.2597 2.20598 -3.35588 0
M  V30 390 H 56.3607 2.43518 -1.58945 0
M  V30 391 P 57.4597 -2.75334 -8.47391 0
M  V30 392 O 57.6797 -2.44619 -9.90336 0
M  V30 393 O 58.2497 -3.87776 -7.92294 0
M  V30 394 O 57.7097 -1.4459 -7.59357 0
M  V30 395 C 56.7697 -0.347653 -7.69315 0
M  V30 396 C 57.4997 0.96767 -7.52806 0
M  V30 397 O 57.7097 1.21055 -6.10208 0
M  V30 398 C 58.8997 1.04557 -8.13408 0
M  V30 399 O 59.2897 2.38311 -8.41922 0
M  V30 400 C 59.7797 0.491279 -7.02284 0
M  V30 401 C 59.0697 0.996264 -5.77469 0
M  V30 402 N 59.1197 0.0501916 -4.62973 0
M  V30 403 H 56.2817 -0.374765 -8.67791 0
M  V30 404 H 56.0097 -0.443613 -6.90476 0
M  V30 405 H 56.8777 1.75559 -7.96891 0
M  V30 406 H 59.5327 1.94563 -5.46818 0
M  V30 407 H 59.8127 -0.608651 -7.04676 0
M  V30 408 H 60.8037 0.889796 -7.09039 0
M  V30 409 H 58.9697 0.433128 -9.04664 0
M  V30 410 P 60.8396 2.75334 -8.47391 0
M  V30 411 O 61.0596 3.84128 -9.44797 0
M  V30 412 O 61.6296 1.51947 -8.68712 0
M  V30 413 O 61.0896 3.29363 -6.99321 0
M  V30 414 C 60.1496 4.24011 -6.4274 0
M  V30 415 C 60.8796 5.20775 -5.52155 0
M  V30 416 O 61.0896 4.56534 -4.22446 0
M  V30 417 C 62.2796 5.62629 -5.96531 0
M  V30 418 O 62.6696 6.87667 -5.41053 0
M  V30 419 C 63.1596 4.52537 -5.39283 0
M  V30 420 C 62.4496 4.20027 -4.08623 0
M  V30 421 N 62.4996 2.76189 -3.71603 0
M  V30 422 H 59.6606 4.797 -7.24003 0
M  V30 423 H 59.3906 3.69856 -5.84513 0
M  V30 424 H 60.2576 6.10356 -5.41441 0
M  V30 425 P 64.2196 7.20834 -5.23717 0
M  V30 426 O 64.4396 8.66104 -5.38572 0
M  V30 427 O 65.0096 6.33544 -6.1349 0
M  V30 428 O 64.4696 6.7751 -3.72168 0
M  V30 429 C 63.5296 7.20825 -2.7076 0
M  V30 430 C 64.2596 7.45864 -1.40599 0
M  V30 431 O 64.4696 6.17651 -0.734225 0
M  V30 432 C 65.6596 8.05808 -1.51899 0
M  V30 433 O 66.0496 8.74358 -0.335205 0
M  V30 434 C 66.5396 6.83093 -1.70294 0
M  V30 435 C 65.8296 5.79992 -0.836974 0
M  V30 436 N 65.8796 4.41864 -1.38293 0
M  V30 437 H 63.0406 8.13644 -3.0377 0
M  V30 438 H 62.7706 6.42788 -2.55485 0
M  V30 439 H 63.6376 8.12039 -0.792769 0
M  V30 440 P 67.5996 8.91 -4.36464e-15 0
M  V30 441 O 67.8196 10.1726 0.733694 0
M  V30 442 O 68.3896 8.73148 -1.23936 0
M  V30 443 O 67.8496 7.66872 0.971405 0
M  V30 444 C 66.9096 7.42309 2.04641 0
M  V30 445 C 67.6396 6.86059 3.24661 0
M  V30 446 O 67.8496 5.42847 3.03646 0
M  V30 447 C 69.0396 7.41196 3.50753 0
M  V30 448 O 69.4296 7.27073 4.86816 0
M  V30 449 C 69.9196 6.5273 2.63741 0
M  V30 450 C 69.2096 5.1842 2.73198 0
M  V30 451 N 69.2596 4.38762 1.4784 0
M  V30 452 H 66.4206 8.36803 2.32493 0
M  V30 453 H 66.1506 6.70197 1.71129 0
M  V30 454 H 67.0176 7.03551 4.13168 0
M  V30 455 P 70.9796 7.20834 5.23717 0
M  V30 456 O 71.1996 7.79853 6.57286 0
M  V30 457 O 71.7696 7.79239 4.12957 0
M  V30 458 O 71.2296 5.63315 5.29344 0
M  V30 459 C 70.2896 4.80255 6.01876 0
M  V30 460 C 71.0196 3.64202 6.65911 0
M  V30 461 O 71.2296 2.60694 5.64732 0
M  V30 462 C 72.4196 3.93473 7.1943 0
M  V30 463 O 72.8096 3.02071 8.21205 0
M  V30 464 C 73.2996 3.73047 5.97036 0
M  V30 465 C 72.5896 2.58828 5.25741 0
M  V30 466 N 72.6396 2.68068 3.77503 0
M  V30 467 C 72.5596 3.79715 2.96723 0
M  V30 468 N 72.6396 3.5377 1.68852 0
M  V30 469 C 72.7796 2.15054 1.63254 0
M  V30 470 C 72.9096 1.28964 0.518571 0
M  V30 471 O 72.9296 1.56826 -0.679156 0
M  V30 472 N 73.0296 -0.0538097 0.918425 0
M  V30 473 C 73.0296 -0.494275 2.22578 0
M  V30 474 N 73.1596 -1.81086 2.40434 0
M  V30 475 N 72.8996 0.313645 3.27502 0
M  V30 476 C 72.7796 1.61829 2.91033 0
M  V30 477 H 69.8006 5.40332 6.79951 0
M  V30 478 H 69.5306 4.41613 5.32378 0
M  V30 479 H 70.3976 3.26331 7.47797 0
M  V30 480 H 73.0526 1.63422 5.56814 0
M  V30 481 H 73.3316 4.63374 5.34244 0
M  V30 482 H 74.3236 3.44728 6.25838 0
M  V30 483 H 72.4896 4.96652 7.57263 0
M  V30 484 H 72.4406 4.80617 3.3614 0
M  V30 485 H 73.1226 -0.742702 0.199384 0
M  V30 486 H 73.1596 -2.20598 3.35588 0
M  V30 487 H 73.2606 -2.43518 1.58945 0
M  V30 488 P 74.3596 2.75334 8.47391 0
M  V30 489 O 74.5796 2.44619 9.90336 0
M  V30 490 O 75.1496 3.87776 7.92294 0
M  V30 491 O 74.6096 1.4459 7.59357 0
M  V30 492 C 73.6696 0.347653 7.69315 0
M  V30 493 C 74.3996 -0.96767 7.52806 0
M  V30 494 O 74.6096 -1.21055 6.10208 0
M  V30 495 C 75.7996 -1.04557 8.13408 0
M  V30 496 O 76.1896 -2.38311 8.41922 0
M  V30 497 C 76.6796 -0.491279 7.02284 0
M  V30 498 C 75.9696 -0.996264 5.77469 0
M  V30 499 N 76.0196 -0.0501916 4.62973 0
M  V30 500 C 75.9396 1.31969 4.65661 0
M  V30 501 N 76.0096 1.86649 3.48119 0
M  V30 502 C 76.1596 0.792089 2.62406 0
M  V30 503 C 76.2896 0.705684 1.2207 0
M  V30 504 N 76.2996 1.76207 0.413762 0
M  V30 505 N 76.4096 -0.518981 0.685754 0
M  V30 506 C 76.3996 -1.57595 1.49174 0
M  V30 507 N 76.2796 -1.62909 2.80066 0
M  V30 508 C 76.1596 -0.388195 3.3073 0
M  V30 509 H 73.1816 0.374765 8.67791 0
M  V30 510 H 72.9096 0.443613 6.90476 0
M  V30 511 H 73.7776 -1.75559 7.96891 0
M  V30 512 H 76.4326 -1.94563 5.46818 0
M  V30 513 H 76.7126 0.608651 7.04676 0
M  V30 514 H 77.7036 -0.889796 7.09039 0
M  V30 515 H 75.8696 -0.433128 9.04664 0
M  V30 516 H 75.8286 1.89246 5.57664 0
M  V30 517 H 76.2096 2.71005 0.804694 0
M  V30 518 H 76.3986 1.63189 -0.603768 0
M  V30 519 H 76.5066 -2.53475 0.997614 0
M  V30 520 P 77.7395 -2.75334 8.47391 0
M  V30 521 O 77.9595 -3.84204 9.44982 0
M  V30 522 O 78.5295 -1.51982 8.68909 0
M  V30 523 O 77.9895 -3.29363 6.99321 0
M  V30 524 C 77.0495 -4.24066 6.42823 0
M  V30 525 C 77.7795 -5.20775 5.52155 0
M  V30 526 O 77.9895 -4.56607 4.22514 0
M  V30 527 C 79.1795 -5.62697 5.96604 0
M  V30 528 O 79.5695 -6.87667 5.41053 0
M  V30 529 C 80.0595 -4.52537 5.39283 0
M  V30 530 C 79.3495 -4.20027 4.08623 0
M  V30 531 N 79.3995 -2.76189 3.71603 0
M  V30 532 H 76.5615 -4.79756 7.24086 0
M  V30 533 H 76.2895 -3.69963 5.84682 0
M  V30 534 H 77.1575 -6.10431 5.41508 0
M  V30 535 H 79.8125 -4.78816 3.28024 0
M  V30 536 H 80.0925 -3.64957 6.05871 0
M  V30 537 H 81.0835 -4.88748 5.21323 0
M  V30 538 H 79.2495 -5.66789 7.0643 0
M  V30 539 P 81.1195 -7.20834 5.23717 0
M  V30 540 O 81.3395 -8.66189 5.38625 0
M  V30 541 O 81.9095 -6.33615 6.1356 0
M  V30 542 O 81.3695 -6.7751 3.72168 0
M  V30 543 C 80.4295 -7.20732 2.70725 0
M  V30 544 C 81.1595 -7.45864 1.40599 0
M  V30 545 O 81.3695 -6.17651 0.734225 0
M  V30 546 C 82.5595 -8.05808 1.51899 0
M  V30 547 O 82.9495 -8.74358 0.335205 0
M  V30 548 C 83.4395 -6.83093 1.70294 0
M  V30 549 C 82.7295 -5.79992 0.836974 0
M  V30 550 N 82.7795 -4.41769 1.38263 0
M  V30 551 C 82.9295 -3.38591 0.481702 0
M  V30 552 O 83.0195 -3.56839 -0.718452 0
M  V30 553 N 82.9695 -2.1206 1.03569 0
M  V30 554 C 82.8795 -1.80696 2.36966 0
M  V30 555 C 82.7295 -2.94845 3.23898 0
M  V30 556 C 82.6795 -4.19803 2.73435 0
M  V30 557 H 79.9395 -8.13644 3.0377 0
M  V30 558 H 79.6705 -6.42695 2.55448 0
M  V30 559 H 80.5375 -8.12039 0.792769 0
M  V30 560 H 83.1925 -5.79978 -0.160587 0
M  V30 561 H 83.4715 -6.51379 2.75643 0
M  V30 562 H 84.4635 -7.01734 1.34462 0
M  V30 563 H 82.6295 -8.73674 2.38337 0
M  V30 564 H 82.5585 -5.04492 3.4095 0
M  V30 565 P 84.4995 -8.91 5.4558e-15 0
M  V30 566 O 84.7195 -10.1726 -0.733694 0
M  V30 567 O 85.2895 -8.73148 1.23936 0
M  V30 568 O 84.7495 -7.66872 -0.971405 0
M  V30 569 C 83.8095 -7.42309 -2.04641 0
M  V30 570 C 84.5395 -6.86059 -3.24661 0
M  V30 571 O 84.7495 -5.42847 -3.03646 0
M  V30 572 C 85.9395 -7.41196 -3.50753 0
M  V30 573 O 86.3295 -7.27073 -4.86816 0
M  V30 574 C 86.8195 -6.5273 -2.63741 0
M  V30 575 C 86.1095 -5.1842 -2.73198 0
M  V30 576 N 86.1595 -4.38762 -1.4784 0
M  V30 577 H 83.3205 -8.36803 -2.32493 0
M  V30 578 H 83.0505 -6.70197 -1.71129 0
M  V30 579 H 83.9175 -7.03551 -4.13168 0
M  V30 580 P 87.8795 -7.20834 -5.23717 0
M  V30 581 O 88.0995 -7.79853 -6.57286 0
M  V30 582 O 88.6695 -7.79239 -4.12957 0
M  V30 583 O 88.1295 -5.63315 -5.29344 0
M  V30 584 C 87.1895 -4.80255 -6.01876 0
M  V30 585 C 87.9195 -3.64202 -6.65911 0
M  V30 586 O 88.1295 -2.60694 -5.64732 0
M  V30 587 C 89.3195 -3.93473 -7.1943 0
M  V30 588 O 89.7095 -3.02071 -8.21205 0
M  V30 589 C 90.1995 -3.73047 -5.97036 0
M  V30 590 C 89.4895 -2.58828 -5.25741 0
M  V30 591 N 89.5395 -2.68068 -3.77503 0
M  V30 592 C 89.4595 -3.79715 -2.96723 0
M  V30 593 N 89.5395 -3.5377 -1.68852 0
M  V30 594 C 89.6795 -2.15054 -1.63254 0
M  V30 595 C 89.8095 -1.28964 -0.518571 0
M  V30 596 O 89.8295 -1.56826 0.679156 0
M  V30 597 N 89.9295 0.0538097 -0.918425 0
M  V30 598 C 89.9295 0.494275 -2.22578 0
M  V30 599 N 90.0595 1.81086 -2.40434 0
M  V30 600 N 89.7995 -0.313645 -3.27502 0
M  V30 601 C 89.6795 -1.61829 -2.91033 0
M  V30 602 H 86.7005 -5.40332 -6.79951 0
M  V30 603 H 86.4305 -4.41613 -5.32378 0
M  V30 604 H 87.2975 -3.26331 -7.47797 0
M  V30 605 H 89.9525 -1.63422 -5.56814 0
M  V30 606 H 90.2315 -4.63374 -5.34244 0
M  V30 607 H 91.2235 -3.44728 -6.25838 0
M  V30 608 H 89.3895 -4.96652 -7.57263 0
M  V30 609 H 89.3405 -4.80617 -3.3614 0
M  V30 610 H 90.0225 0.742702 -0.199384 0
M  V30 611 H 90.0595 2.20598 -3.35588 0
M  V30 612 H 90.1605 2.43518 -1.58945 0
M  V30 613 P 91.2595 -2.75334 -8.47391 0
M  V30 614 O 91.4795 -2.44619 -9.90336 0
M  V30 615 O 92.0495 -3.87776 -7.92294 0
M  V30 616 O 91.5095 -1.4459 -7.59357 0
M  V30 617 C 90.5695 -0.347653 -7.69315 0
M  V30 618 C 91.2995 0.96767 -7.52806 0
M  V30 619 O 91.5095 1.21055 -6.10208 0
M  V30 620 C 92.6995 1.04557 -8.13408 0
M  V30 621 O 93.0895 2.38311 -8.41922 0
M  V30 622 C 93.5795 0.491279 -7.02284 0
M  V30 623 C 92.8695 0.996264 -5.77469 0
M  V30 624 N 92.9195 0.0501916 -4.62973 0
M  V30 625 H 90.0815 -0.374765 -8.67791 0
M  V30 626 H 89.8095 -0.443613 -6.90476 0
M  V30 627 H 90.6775 1.75559 -7.96891 0
M  V30 628 H 93.3325 1.94563 -5.46818 0
M  V30 629 H 93.6125 -0.608651 -7.04676 0
M  V30 630 H 94.6035 0.889796 -7.09039 0
M  V30 631 H 92.7695 0.433128 -9.04664 0
M  V30 632 P 94.6394 2.75334 -8.47391 0
M  V30 633 O 94.8594 3.84128 -9.44797 0
M  V30 634 O 95.4294 1.51947 -8.68712 0
M  V30 635 O 94.8894 3.29363 -6.99321 0
M  V30 636 C 93.9494 4.24011 -6.4274 0
M  V30 637 C 94.6794 5.20775 -5.52155 0
M  V30 638 O 94.8894 4.56534 -4.22446 0
M  V30 639 C 96.0794 5.62629 -5.96531 0
M  V30 640 O 96.4694 6.87667 -5.41053 0
M  V30 641 C 96.9594 4.52537 -5.39283 0
M  V30 642 C 96.2494 4.20027 -4.08623 0
M  V30 643 N 96.2994 2.76189 -3.71603 0
M  V30 644 H 93.4604 4.797 -7.24003 0
M  V30 645 H 93.1904 3.69856 -5.84513 0
M  V30 646 H 94.0574 6.10356 -5.41441 0
M  V30 647 P 98.0194 7.20834 -5.23717 0
M  V30 648 O 98.2394 8.66104 -5.38572 0
M  V30 649 O 98.8094 6.33544 -6.1349 0
M  V30 650 O 98.2694 6.7751 -3.72168 0
M  V30 651 C 97.3294 7.20825 -2.7076 0
M  V30 652 C 98.0594 7.45864 -1.40599 0
M  V30 653 O 98.2694 6.17651 -0.734225 0
M  V30 654 C 99.4594 8.05808 -1.51899 0
M  V30 655 O 99.8494 8.74358 -0.335205 0
M  V30 656 C 100.339 6.83093 -1.70294 0
M  V30 657 C 99.6294 5.79992 -0.836974 0
M  V30 658 N 99.6794 4.41864 -1.38293 0
M  V30 659 H 96.8404 8.13644 -3.0377 0
M  V30 660 H 96.5704 6.42788 -2.55485 0
M  V30 661 H 97.4374 8.12039 -0.792769 0
M  V30 662 P 101.399 8.91 -6.54696e-15 0
M  V30 663 O 101.619 10.1726 0.733694 0
M  V30 664 O 102.189 8.73148 -1.23936 0
M  V30 665 O 101.649 7.66872 0.971405 0
M  V30 666 C 100.709 7.42309 2.04641 0
M  V30 667 C 101.439 6.86059 3.24661 0
M  V30 668 O 101.649 5.42847 3.03646 0
M  V30 669 C 102.839 7.41196 3.50753 0
M  V30 670 O 103.229 7.27073 4.86816 0
M  V30 671 C 103.719 6.5273 2.63741 0
M  V30 672 C 103.009 5.1842 2.73198 0
M  V30 673 N 103.059 4.38762 1.4784 0
M  V30 674 H 100.22 8.36803 2.32493 0
M  V30 675 H 99.9504 6.70197 1.71129 0
M  V30 676 H 100.817 7.03551 4.13168 0
M  V30 677 P 104.779 7.20834 5.23717 0
M  V30 678 O 104.999 7.79853 6.57286 0
M  V30 679 O 105.569 7.79239 4.12957 0
M  V30 680 O 105.029 5.63315 5.29344 0
M  V30 681 C 104.089 4.80255 6.01876 0
M  V30 682 C 104.819 3.64202 6.65911 0
M  V30 683 O 105.029 2.60694 5.64732 0
M  V30 684 C 106.219 3.93473 7.1943 0
M  V30 685 O 106.609 3.02071 8.21205 0
M  V30 686 C 107.099 3.73047 5.97036 0
M  V30 687 C 106.389 2.58828 5.25741 0
M  V30 688 N 106.439 2.68068 3.77503 0
M  V30 689 H 103.6 5.40332 6.79951 0
M  V30 690 H 103.33 4.41613 5.32378 0
M  V30 691 H 104.197 3.26331 7.47797 0
M  V30 692 P 108.159 2.75334 8.47391 0
M  V30 693 O 108.379 2.44571 9.90142 0
M  V30 694 O 108.949 3.87688 7.92115 0
M  V30 695 O 108.409 1.4459 7.59357 0
M  V30 696 C 107.469 0.347608 7.69215 0
M  V30 697 C 108.199 -0.96767 7.52806 0
M  V30 698 O 108.409 -1.21036 6.1011 0
M  V30 699 C 109.599 -1.04544 8.13308 0
M  V30 700 O 109.989 -2.38311 8.41922 0
M  V30 701 C 110.479 -0.491279 7.02284 0
M  V30 702 C 109.769 -0.996264 5.77469 0
M  V30 703 N 109.819 -0.0501916 4.62973 0
M  V30 704 H 106.98 0.374722 8.67691 0
M  V30 705 H 106.71 0.443485 6.90277 0
M  V30 706 H 107.577 -1.75537 7.96793 0
M  V30 707 P 111.539 -2.75334 8.47391 0
M  V30 708 O 111.759 -3.84128 9.44797 0
M  V30 709 O 112.329 -1.51947 8.68712 0
M  V30 710 O 111.789 -3.29363 6.99321 0
M  V30 711 C 110.849 -4.24011 6.4274 0
M  V30 712 C 111.579 -5.20775 5.52155 0
M  V30 713 O 111.789 -4.56534 4.22446 0
M  V30 714 C 112.979 -5.62629 5.96531 0
M  V30 715 O 113.369 -6.87667 5.41053 0
M  V30 716 C 113.859 -4.52537 5.39283 0
M  V30 717 C 113.149 -4.20027 4.08623 0
M  V30 718 N 113.199 -2.76189 3.71603 0
M  V30 719 C 113.119 -1.64862 4.52822 0
M  V30 720 N 113.199 -0.512671 3.88633 0
M  V30 721 C 113.339 -0.888083 2.54977 0
M  V30 722 C 113.469 -0.094668 1.38677 0
M  V30 723 O 113.489 1.13053 1.28163 0
M  V30 724 N 113.589 -0.890102 0.232633 0
M  V30 725 C 113.589 -2.26958 0.21772 0
M  V30 726 N 113.719 -2.84626 -0.97925 0
M  V30 727 N 113.459 -3.0178 1.31033 0
M  V30 728 C 113.339 -2.26781 2.43843 0
M  V30 729 H 110.36 -4.797 7.24003 0
M  V30 730 H 110.09 -3.69856 5.84513 0
M  V30 731 H 110.957 -6.10356 5.41441 0
M  V30 732 H 113.612 -4.79061 3.27488 0
M  V30 733 H 113.891 -3.64906 6.05785 0
M  V30 734 H 114.883 -4.8868 5.2125 0
M  V30 735 H 113.049 -5.66726 7.06352 0
M  V30 736 H 113 -1.71169 5.60966 0
M  V30 737 H 113.682 -0.419134 -0.644739 0
M  V30 738 H 113.719 -3.87332 -1.06098 0
M  V30 739 H 113.82 -2.26417 -1.82483 0
M  V30 740 P 114.919 -7.20834 5.23717 0
M  V30 741 O 115.139 -8.66274 5.38678 0
M  V30 742 O 115.709 -6.33687 6.13629 0
M  V30 743 O 115.169 -6.7751 3.72168 0
M  V30 744 C 114.229 -7.20919 2.70795 0
M  V30 745 C 114.959 -7.45864 1.40599 0
M  V30 746 O 115.169 -6.17751 0.734343 0
M  V30 747 C 116.359 -8.05906 1.51917 0
M  V30 748 O 116.749 -8.74358 0.335205 0
M  V30 749 C 117.239 -6.83093 1.70294 0
M  V30 750 C 116.529 -5.79992 0.836974 0
M  V30 751 N 116.579 -4.41864 1.38293 0
M  V30 752 C 116.499 -4.02089 2.69407 0
M  V30 753 N 116.569 -2.73403 2.85089 0
M  V30 754 C 116.719 -2.25086 1.5642 0
M  V30 755 C 116.849 -0.942887 1.04836 0
M  V30 756 N 116.859 0.150999 1.80369 0
M  V30 757 N 116.969 -0.812565 -0.28167 0
M  V30 758 C 116.959 -1.90572 -1.03784 0
M  V30 759 N 116.839 -3.167 -0.683905 0
M  V30 760 C 116.719 -3.26538 0.652815 0
M  V30 761 H 113.741 -8.13738 3.03804 0
M  V30 762 H 113.469 -6.42974 2.55559 0
M  V30 763 H 114.337 -8.12139 0.792866 0
M  V30 764 H 116.992 -5.80178 -0.160643 0
M  V30 765 H 117.272 -6.51379 2.75643 0
M  V30 766 H 118.263 -7.01832 1.3448 0
M  V30 767 H 116.429 -8.73771 2.38364 0
M  V30 768 H 116.388 -4.7189 3.52311 0
M  V30 769 H 116.769 0.0721434 2.82608 0
M  V30 770 H 116.958 1.0785 1.36544 0
M  V30 771 H 117.066 -1.73207 -2.10241 0
M  V30 772 P 118.299 -8.91 7.63812e-15 0
M  V30 773 O 118.519 -10.1726 -0.733694 0
M  V30 774 O 119.089 -8.73148 1.23936 0
M  V30 775 O 118.549 -7.66872 -0.971405 0
M  V30 776 C 117.609 -7.42309 -2.04641 0
M  V30 777 C 118.339 -6.86059 -3.24661 0
M  V30 778 O 118.549 -5.42847 -3.03646 0
M  V30 779 C 119.739 -7.41196 -3.50753 0
M  V30 780 O 120.129 -7.27073 -4.86816 0
M  V30 781 C 120.619 -6.5273 -2.63741 0
M  V30 782 C 119.909 -5.1842 -2.73198 0
M  V30 783 N 119.959 -4.38762 -1.4784 0
M  V30 784 H 117.12 -8.36803 -2.32493 0
M  V30 785 H 116.85 -6.70197 -1.71129 0
M  V30 786 H 117.717 -7.03551 -4.13168 0
M  V30 787 P 121.679 -7.20834 -5.23717 0
M  V30 788 O 121.899 -7.79853 -6.57286 0
M  V30 789 O 122.469 -7.79239 -4.12957 0
M  V30 790 O 121.929 -5.63315 -5.29344 0
M  V30 791 C 120.989 -4.80255 -6.01876 0
M  V30 792 C 121.719 -3.64202 -6.65911 0
M  V30 793 O 121.929 -2.60694 -5.64732 0
M  V30 794 C 123.119 -3.93473 -7.1943 0
M  V30 795 O 123.509 -3.02071 -8.21205 0
M  V30 796 C 123.999 -3.73047 -5.97036 0
M  V30 797 C 123.289 -2.58828 -5.25741 0
M  V30 798 N 123.339 -2.68068 -3.77503 0
M  V30 799 H 120.5 -5.40332 -6.79951 0
M  V30 800 H 120.23 -4.41613 -5.32378 0
M  V30 801 H 121.097 -3.26331 -7.47797 0
M  V30 802 P 125.059 -2.75334 -8.47391 0
M  V30 803 O 125.279 -2.44571 -9.90142 0
M  V30 804 O 125.849 -3.87688 -7.92115 0
M  V30 805 O 125.309 -1.4459 -7.59357 0
M  V30 806 C 124.369 -0.347608 -7.69215 0
M  V30 807 C 125.099 0.96767 -7.52806 0
M  V30 808 O 125.309 1.21036 -6.1011 0
M  V30 809 C 126.499 1.04544 -8.13308 0
M  V30 810 O 126.889 2.38311 -8.41922 0
M  V30 811 C 127.379 0.491279 -7.02284 0
M  V30 812 C 126.669 0.996264 -5.77469 0
M  V30 813 N 126.719 0.0501916 -4.62973 0
M  V30 814 H 123.88 -0.374722 -8.67691 0
M  V30 815 H 123.61 -0.443485 -6.90277 0
M  V30 816 H 124.477 1.75537 -7.96793 0
M  V30 817 P 128.439 2.75334 -8.47391 0
M  V30 818 O 128.659 3.84128 -9.44797 0
M  V30 819 O 129.229 1.51947 -8.68712 0
M  V30 820 O 128.689 3.29363 -6.99321 0
M  V30 821 C 127.749 4.24011 -6.4274 0
M  V30 822 C 128.479 5.20775 -5.52155 0
M  V30 823 O 128.689 4.56534 -4.22446 0
M  V30 824 C 129.879 5.62629 -5.96531 0
M  V30 825 O 130.269 6.87667 -5.41053 0
M  V30 826 C 130.759 4.52537 -5.39283 0
M  V30 827 C 130.049 4.20027 -4.08623 0
M  V30 828 N 130.099 2.76189 -3.71603 0
M  V30 829 H 127.26 4.797 -7.24003 0
M  V30 830 H 126.99 3.69856 -5.84513 0
M  V30 831 H 127.857 6.10356 -5.41441 0
M  V30 832 P 131.819 7.20834 -5.23717 0
M  V30 833 O 132.039 8.66104 -5.38572 0
M  V30 834 O 132.609 6.33544 -6.1349 0
M  V30 835 O 132.069 6.7751 -3.72168 0
M  V30 836 C 131.129 7.20825 -2.7076 0
M  V30 837 C 131.859 7.45864 -1.40599 0
M  V30 838 O 132.069 6.17651 -0.734225 0
M  V30 839 C 133.259 8.05808 -1.51899 0
M  V30 840 O 133.649 8.74358 -0.335205 0
M  V30 841 C 134.139 6.83093 -1.70294 0
M  V30 842 C 133.429 5.79992 -0.836974 0
M  V30 843 N 133.479 4.41864 -1.38293 0
M  V30 844 H 130.64 8.13644 -3.0377 0
M  V30 845 H 130.37 6.42788 -2.55485 0
M  V30 846 H 131.237 8.12039 -0.792769 0
M  V30 847 P 135.199 8.91 -8.72928e-15 0
M  V30 848 O 135.419 10.1726 0.733694 0
M  V30 849 O 135.989 8.73148 -1.23936 0
M  V30 850 O 135.449 7.66872 0.971405 0
M  V30 851 C 134.509 7.42309 2.04641 0
M  V30 852 C 135.239 6.86059 3.24661 0
M  V30 853 O 135.449 5.42847 3.03646 0
M  V30 854 C 136.639 7.41196 3.50753 0
M  V30 855 O 137.029 7.27073 4.86816 0
M  V30 856 C 137.519 6.5273 2.63741 0
M  V30 857 C 136.809 5.1842 2.73198 0
M  V30 858 N 136.859 4.38762 1.4784 0
M  V30 859 C 136.779 4.81605 0.168631 0
M  V30 860 N 136.859 3.85454 -0.713363 0
M  V30 861 C 136.999 2.6994 0.0566958 0
M  V30 862 C 137.129 1.34815 -0.338502 0
M  V30 863 N 137.249 0.496304 0.77465 0
M  V30 864 C 137.249 0.908403 2.09122 0
M  V30 865 N 137.379 -0.0517805 3.00955 0
M  V30 866 N 137.119 2.17875 2.46519 0
M  V30 867 C 136.999 3.01988 1.4033 0
M  V30 868 H 134.02 8.36803 2.32493 0
M  V30 869 H 133.75 6.70197 1.71129 0
M  V30 870 H 134.617 7.03551 4.13168 0
M  V30 871 P 138.579 7.20834 5.23717 0
M  V30 872 O 138.799 7.79853 6.57286 0
M  V30 873 O 139.369 7.79239 4.12957 0
M  V30 874 O 138.829 5.63315 5.29344 0
M  V30 875 C 137.889 4.80255 6.01876 0
M  V30 876 C 138.619 3.64202 6.65911 0
M  V30 877 O 138.829 2.60694 5.64732 0
M  V30 878 C 140.019 3.93473 7.1943 0
M  V30 879 O 140.409 3.02071 8.21205 0
M  V30 880 C 140.899 3.73047 5.97036 0
M  V30 881 C 140.189 2.58828 5.25741 0
M  V30 882 N 140.239 2.68068 3.77503 0
M  V30 883 C 140.159 3.79715 2.96723 0
M  V30 884 N 140.239 3.5377 1.68852 0
M  V30 885 C 140.379 2.15054 1.63254 0
M  V30 886 C 140.509 1.28964 0.518571 0
M  V30 887 N 140.629 -0.0538097 0.918425 0
M  V30 888 C 140.629 -0.494275 2.22578 0
M  V30 889 N 140.759 -1.81086 2.40434 0
M  V30 890 N 140.499 0.313645 3.27502 0
M  V30 891 C 140.379 1.61829 2.91033 0
M  V30 892 H 137.4 5.40332 6.79951 0
M  V30 893 H 137.13 4.41613 5.32378 0
M  V30 894 H 137.997 3.26331 7.47797 0
M  V30 895 P 141.959 2.75334 8.47391 0
M  V30 896 O 142.179 2.44571 9.90142 0
M  V30 897 O 142.749 3.87688 7.92115 0
M  V30 898 O 142.209 1.4459 7.59357 0
M  V30 899 C 141.269 0.347608 7.69215 0
M  V30 900 C 141.999 -0.96767 7.52806 0
M  V30 901 O 142.209 -1.21036 6.1011 0
M  V30 902 C 143.399 -1.04544 8.13308 0
M  V30 903 O 143.789 -2.38311 8.41922 0
M  V30 904 C 144.279 -0.491279 7.02284 0
M  V30 905 C 143.569 -0.996264 5.77469 0
M  V30 906 N 143.619 -0.0501916 4.62973 0
M  V30 907 H 140.78 0.374722 8.67691 0
M  V30 908 H 140.51 0.443485 6.90277 0
M  V30 909 H 141.377 -1.75537 7.96793 0
M  V30 910 P 145.339 -2.75334 8.47391 0
M  V30 911 O 145.559 -3.84166 9.4489 0
M  V30 912 O 146.129 -1.51964 8.6881 0
M  V30 913 O 145.589 -3.29363 6.99321 0
M  V30 914 C 144.649 -4.23956 6.42656 0
M  V30 915 C 145.379 -5.20775 5.52155 0
M  V30 916 O 145.589 -4.56534 4.22446 0
M  V30 917 C 146.779 -5.62629 5.96531 0
M  V30 918 O 147.169 -6.87667 5.41053 0
M  V30 919 C 147.659 -4.52537 5.39283 0
M  V30 920 C 146.949 -4.20027 4.08623 0
M  V30 921 N 146.999 -2.7613 3.71522 0
M  V30 922 C 147.149 -2.45612 2.37989 0
M  V30 923 O 147.239 -3.30919 1.51621 0
M  V30 924 N 147.189 -1.10684 2.08435 0
M  V30 925 C 147.099 -0.0690084 2.9792 0
M  V30 926 O 147.149 1.10553 2.59426 0
M  V30 927 C 146.949 -0.481522 4.35345 0
M  V30 928 C 146.839 0.618778 5.36443 0
M  V30 929 C 146.899 -1.78906 4.67968 0
M  V30 930 H 144.159 -4.797 7.24003 0
M  V30 931 H 143.89 -3.69802 5.84429 0
M  V30 932 H 144.757 -6.10356 5.41441 0
M  V30 933 H 147.412 -4.78651 3.27911 0
M  V30 934 H 147.691 -3.64957 6.05871 0
M  V30 935 H 148.683 -4.8868 5.2125 0
M  V30 936 H 146.849 -5.66726 7.06352 0
M  V30 937 H 146.778 -2.07737 5.72367 0
M  V30 938 H 147.808 0.754375 5.86871 0
M  V30 939 H 146.071 0.359721 6.10641 0
M  V30 940 H 146.559 1.55533 4.8581 0
M  V30 941 H 147.295 -0.862651 1.12037 0
M  V30 942 P 148.719 -7.20834 5.23717 0
M  V30 943 O 148.939 -8.66104 5.38572 0
M  V30 944 O 149.509 -6.33544 6.1349 0
M  V30 945 O 148.969 -6.7751 3.72168 0
M  V30 946 C 148.029 -7.20825 2.7076 0
M  V30 947 C 148.759 -7.45864 1.40599 0
M  V30 948 O 148.969 -6.17651 0.734225 0
M  V30 949 C 150.159 -8.05808 1.51899 0
M  V30 950 O 150.549 -8.74358 0.335205 0
M  V30 951 C 151.039 -6.83093 1.70294 0
M  V30 952 C 150.329 -5.79992 0.836974 0
M  V30 953 N 150.379 -4.41864 1.38293 0
M  V30 954 C 150.299 -3.99538 2.69438 0
M  V30 955 N 150.379 -2.69909 2.84277 0
M  V30 956 C 150.519 -2.21719 1.5408 0
M  V30 957 C 150.649 -0.891712 1.06628 0
M  V30 958 O 150.669 0.161298 1.70137 0
M  V30 959 N 150.769 -0.856846 -0.334985 0
M  V30 960 C 150.769 -1.9641 -1.15789 0
M  V30 961 N 150.899 -1.72708 -2.46522 0
M  V30 962 N 150.639 -3.21165 -0.713741 0
M  V30 963 C 150.519 -3.26797 0.639748 0
M  V30 964 H 147.54 -8.13644 3.0377 0
M  V30 965 H 147.27 -6.42788 2.55485 0
M  V30 966 H 148.137 -8.12039 0.792769 0
M  V30 967 H 150.792 -5.80061 -0.166416 0
M  V30 968 H 151.071 -6.51287 2.75604 0
M  V30 969 H 152.063 -7.01734 1.34462 0
M  V30 970 H 150.229 -8.73674 2.38337 0
M  V30 971 H 150.18 -4.68207 3.53221 0
M  V30 972 H 150.862 0.0398818 -0.767965 0
M  V30 973 H 150.899 -2.50995 -3.13503 0
M  V30 974 H 151 -0.759148 -2.80716 0
M  V30 975 P 152.099 -8.91 9.82044e-15 0
M  V30 976 O 152.319 -10.1726 -0.733694 0
M  V30 977 O 152.889 -8.73148 1.23936 0
M  V30 978 O 152.349 -7.66872 -0.971405 0
M  V30 979 C 151.409 -7.42309 -2.04641 0
M  V30 980 C 152.139 -6.86059 -3.24661 0
M  V30 981 O 152.349 -5.42847 -3.03646 0
M  V30 982 C 153.539 -7.41196 -3.50753 0
M  V30 983 O 153.929 -7.27073 -4.86816 0
M  V30 984 C 154.419 -6.5273 -2.63741 0
M  V30 985 C 153.709 -5.1842 -2.73198 0
M  V30 986 N 153.759 -4.38762 -1.4784 0
M  V30 987 H 150.92 -8.36803 -2.32493 0
M  V30 988 H 150.65 -6.70197 -1.71129 0
M  V30 989 H 151.517 -7.03551 -4.13168 0
M  V30 990 P 155.479 -7.20834 -5.23717 0
M  V30 991 O 155.699 -7.79853 -6.57286 0
M  V30 992 O 156.269 -7.79239 -4.12957 0
M  V30 993 O 155.729 -5.63315 -5.29344 0
M  V30 994 C 154.789 -4.80255 -6.01876 0
M  V30 995 C 155.519 -3.64202 -6.65911 0
M  V30 996 O 155.729 -2.60694 -5.64732 0
M  V30 997 C 156.919 -3.93473 -7.1943 0
M  V30 998 O 157.309 -3.02071 -8.21205 0
M  V30 999 C 157.799 -3.73047 -5.97036 0
M  V30 1000 C 157.089 -2.58828 -5.25741 0
M  V30 1001 N 157.139 -2.68068 -3.77503 0
M  V30 1002 H 154.3 -5.40332 -6.79951 0
M  V30 1003 H 154.03 -4.41613 -5.32378 0
M  V30 1004 H 154.897 -3.26331 -7.47797 0
M  V30 1005 P 158.859 -2.75334 -8.47391 0
M  V30 1006 O 159.079 -2.44571 -9.90142 0
M  V30 1007 O 159.649 -3.87688 -7.92115 0
M  V30 1008 O 159.109 -1.4459 -7.59357 0
M  V30 1009 C 158.169 -0.347608 -7.69215 0
M  V30 1010 C 158.899 0.96767 -7.52806 0
M  V30 1011 O 159.109 1.21036 -6.1011 0
M  V30 1012 C 160.299 1.04544 -8.13308 0
M  V30 1013 O 160.689 2.38311 -8.41922 0
M  V30 1014 C 161.179 0.491279 -7.02284 0
M  V30 1015 C 160.469 0.996264 -5.77469 0
M  V30 1016 N 160.519 0.0501916 -4.62973 0
M  V30 1017 H 157.68 -0.374722 -8.67691 0
M  V30 1018 H 157.41 -0.443485 -6.90277 0
M  V30 1019 H 158.277 1.75537 -7.96793 0
M  V30 1020 P 162.239 2.75334 -8.47391 0
M  V30 1021 O 162.459 3.84204 -9.44982 0
M  V30 1022 O 163.029 1.51982 -8.68909 0
M  V30 1023 O 162.489 3.29363 -6.99321 0
M  V30 1024 C 161.549 4.24066 -6.42823 0
M  V30 1025 C 162.279 5.20775 -5.52155 0
M  V30 1026 O 162.489 4.56607 -4.22514 0
M  V30 1027 C 163.679 5.62697 -5.96604 0
M  V30 1028 O 164.069 6.87667 -5.41053 0
M  V30 1029 C 164.559 4.52537 -5.39283 0
M  V30 1030 C 163.849 4.20027 -4.08623 0
M  V30 1031 N 163.899 2.76189 -3.71603 0
M  V30 1032 H 161.061 4.79756 -7.24086 0
M  V30 1033 H 160.789 3.69963 -5.84682 0
M  V30 1034 H 161.657 6.10431 -5.41508 0
M  V30 1035 H 164.312 4.78816 -3.28024 0
M  V30 1036 H 164.592 3.64957 -6.05871 0
M  V30 1037 H 165.583 4.88748 -5.21323 0
M  V30 1038 H 163.749 5.66789 -7.0643 0
M  V30 1039 P 165.619 7.20834 -5.23717 0
M  V30 1040 O 165.839 8.66104 -5.38572 0
M  V30 1041 O 166.409 6.33544 -6.1349 0
M  V30 1042 O 165.869 6.7751 -3.72168 0
M  V30 1043 C 164.929 7.20825 -2.7076 0
M  V30 1044 C 165.659 7.45864 -1.40599 0
M  V30 1045 O 165.869 6.17651 -0.734225 0
M  V30 1046 C 167.059 8.05808 -1.51899 0
M  V30 1047 O 167.449 8.74358 -0.335205 0
M  V30 1048 C 167.939 6.83093 -1.70294 0
M  V30 1049 C 167.229 5.79992 -0.836974 0
M  V30 1050 N 167.279 4.41864 -1.38293 0
M  V30 1051 H 164.44 8.13644 -3.0377 0
M  V30 1052 H 164.17 6.42788 -2.55485 0
M  V30 1053 H 165.037 8.12039 -0.792769 0
M  V30 1054 P 168.999 8.91 -1.09116e-14 0
M  V30 1055 O 169.219 10.1736 0.733766 0
M  V30 1056 O 169.789 8.73247 -1.2395 0
M  V30 1057 O 169.249 7.66872 0.971405 0
M  V30 1058 C 168.309 7.42212 2.04614 0
M  V30 1059 C 169.039 6.86059 3.24661 0
M  V30 1060 O 169.249 5.42847 3.03646 0
M  V30 1061 C 170.439 7.41196 3.50753 0
M  V30 1062 O 170.829 7.27073 4.86816 0
M  V30 1063 C 171.319 6.5273 2.63741 0
M  V30 1064 C 170.609 5.1842 2.73198 0
M  V30 1065 N 170.659 4.38668 1.47808 0
M  V30 1066 C 170.809 3.02239 1.60048 0
M  V30 1067 O 170.899 2.46459 2.67869 0
M  V30 1068 N 170.849 2.32436 0.408571 0
M  V30 1069 C 170.759 2.85471 -0.854993 0
M  V30 1070 C 170.609 4.28918 -0.887335 0
M  V30 1071 C 170.559 5.00349 0.255399 0
M  V30 1072 H 167.819 8.36803 2.32493 0
M  V30 1073 H 167.55 6.701 1.71105 0
M  V30 1074 H 168.417 7.03551 4.13168 0
M  V30 1075 H 171.072 4.59773 3.53894 0
M  V30 1076 H 171.351 6.88995 1.59871 0
M  V30 1077 H 172.343 6.46749 3.03687 0
M  V30 1078 H 170.509 8.46908 3.20714 0
M  V30 1079 H 170.438 6.08548 0.206986 0
M  V30 1080 P 172.379 7.20834 5.23717 0
M  V30 1081 O 172.599 7.79853 6.57286 0
M  V30 1082 O 173.169 7.79239 4.12957 0
M  V30 1083 O 172.629 5.63315 5.29344 0
M  V30 1084 C 171.689 4.80255 6.01876 0
M  V30 1085 C 172.419 3.64202 6.65911 0
M  V30 1086 O 172.629 2.60694 5.64732 0
M  V30 1087 C 173.819 3.93473 7.1943 0
M  V30 1088 O 174.209 3.02071 8.21205 0
M  V30 1089 C 174.699 3.73047 5.97036 0
M  V30 1090 C 173.989 2.58828 5.25741 0
M  V30 1091 N 174.039 2.68068 3.77503 0
M  V30 1092 H 171.2 5.40332 6.79951 0
M  V30 1093 H 170.93 4.41613 5.32378 0
M  V30 1094 H 171.797 3.26331 7.47797 0
M  V30 1095 P 175.759 2.75334 8.47391 0
M  V30 1096 O 175.979 2.44571 9.90142 0
M  V30 1097 O 176.549 3.87688 7.92115 0
M  V30 1098 O 176.009 1.4459 7.59357 0
M  V30 1099 C 175.069 0.347608 7.69215 0
M  V30 1100 C 175.799 -0.96767 7.52806 0
M  V30 1101 O 176.009 -1.21036 6.1011 0
M  V30 1102 C 177.199 -1.04544 8.13308 0
M  V30 1103 O 177.589 -2.38311 8.41922 0
M  V30 1104 C 178.079 -0.491279 7.02284 0
M  V30 1105 C 177.369 -0.996264 5.77469 0
M  V30 1106 N 177.419 -0.0501916 4.62973 0
M  V30 1107 H 174.58 0.374722 8.67691 0
M  V30 1108 H 174.31 0.443485 6.90277 0
M  V30 1109 H 175.177 -1.75537 7.96793 0
M  V30 1110 P 179.139 -2.75334 8.47391 0
M  V30 1111 O 179.359 -3.84128 9.44797 0
M  V30 1112 O 179.929 -1.51947 8.68712 0
M  V30 1113 O 179.389 -3.29363 6.99321 0
M  V30 1114 C 178.449 -4.24011 6.4274 0
M  V30 1115 C 179.179 -5.20775 5.52155 0
M  V30 1116 O 179.389 -4.56534 4.22446 0
M  V30 1117 C 180.579 -5.62629 5.96531 0
M  V30 1118 O 180.969 -6.87667 5.41053 0
M  V30 1119 C 181.459 -4.52537 5.39283 0
M  V30 1120 C 180.749 -4.20027 4.08623 0
M  V30 1121 N 180.799 -2.76189 3.71603 0
M  V30 1122 H 177.96 -4.797 7.24003 0
M  V30 1123 H 177.69 -3.69856 5.84513 0
M  V30 1124 H 178.557 -6.10356 5.41441 0
M  V30 1125 P 182.519 -7.20834 5.23717 0
M  V30 1126 O 182.739 -8.66104 5.38572 0
M  V30 1127 O 183.309 -6.33544 6.1349 0
M  V30 1128 O 182.769 -6.7751 3.72168 0
M  V30 1129 C 181.829 -7.20825 2.7076 0
M  V30 1130 C 182.559 -7.45864 1.40599 0
M  V30 1131 O 182.769 -6.17651 0.734225 0
M  V30 1132 C 183.959 -8.05808 1.51899 0
M  V30 1133 O 184.349 -8.74358 0.335205 0
M  V30 1134 C 184.839 -6.83093 1.70294 0
M  V30 1135 C 184.129 -5.79992 0.836974 0
M  V30 1136 N 184.179 -4.41864 1.38293 0
M  V30 1137 H 181.34 -8.13644 3.0377 0
M  V30 1138 H 181.07 -6.42788 2.55485 0
M  V30 1139 H 181.937 -8.12039 0.792769 0
M  V30 1140 P 185.899 -8.91 -8.29613e-14 0
M  V30 1141 O 186.119 -10.1726 -0.733694 0
M  V30 1142 O 186.689 -8.73148 1.23936 0
M  V30 1143 O 186.149 -7.66872 -0.971405 0
M  V30 1144 C 185.209 -7.42309 -2.04641 0
M  V30 1145 C 185.939 -6.86059 -3.24661 0
M  V30 1146 O 186.149 -5.42847 -3.03646 0
M  V30 1147 C 187.339 -7.41196 -3.50753 0
M  V30 1148 O 187.729 -7.27073 -4.86816 0
M  V30 1149 C 188.219 -6.5273 -2.63741 0
M  V30 1150 C 187.509 -5.1842 -2.73198 0
M  V30 1151 N 187.559 -4.38762 -1.4784 0
M  V30 1152 C 187.479 -4.81605 -0.168631 0
M  V30 1153 N 187.559 -3.85454 0.713363 0
M  V30 1154 C 187.699 -2.6994 -0.0566958 0
M  V30 1155 C 187.829 -1.34815 0.338502 0
M  V30 1156 N 187.949 -0.496304 -0.77465 0
M  V30 1157 C 187.949 -0.908403 -2.09122 0
M  V30 1158 N 188.079 0.0517805 -3.00955 0
M  V30 1159 N 187.819 -2.17875 -2.46519 0
M  V30 1160 C 187.699 -3.01988 -1.4033 0
M  V30 1161 H 184.72 -8.36803 -2.32493 0
M  V30 1162 H 184.45 -6.70197 -1.71129 0
M  V30 1163 H 185.317 -7.03551 -4.13168 0
M  V30 1164 P 189.279 -7.20834 -5.23717 0
M  V30 1165 O 189.499 -7.79853 -6.57286 0
M  V30 1166 O 190.069 -7.79239 -4.12957 0
M  V30 1167 O 189.529 -5.63315 -5.29344 0
M  V30 1168 C 188.589 -4.80255 -6.01876 0
M  V30 1169 C 189.319 -3.64202 -6.65911 0
M  V30 1170 O 189.529 -2.60694 -5.64732 0
M  V30 1171 C 190.719 -3.93473 -7.1943 0
M  V30 1172 O 191.109 -3.02071 -8.21205 0
M  V30 1173 C 191.599 -3.73047 -5.97036 0
M  V30 1174 C 190.889 -2.58828 -5.25741 0
M  V30 1175 N 190.939 -2.68068 -3.77503 0
M  V30 1176 H 188.1 -5.40332 -6.79951 0
M  V30 1177 H 187.83 -4.41613 -5.32378 0
M  V30 1178 H 188.697 -3.26331 -7.47797 0
M  V30 1179 P 192.659 -2.75334 -8.47391 0
M  V30 1180 O 192.879 -2.44571 -9.90142 0
M  V30 1181 O 193.449 -3.87688 -7.92115 0
M  V30 1182 O 192.909 -1.4459 -7.59357 0
M  V30 1183 C 191.969 -0.347608 -7.69215 0
M  V30 1184 C 192.699 0.96767 -7.52806 0
M  V30 1185 O 192.909 1.21036 -6.1011 0
M  V30 1186 C 194.099 1.04544 -8.13308 0
M  V30 1187 O 194.489 2.38311 -8.41922 0
M  V30 1188 C 194.979 0.491279 -7.02284 0
M  V30 1189 C 194.269 0.996264 -5.77469 0
M  V30 1190 N 194.319 0.0501916 -4.62973 0
M  V30 1191 H 191.48 -0.374722 -8.67691 0
M  V30 1192 H 191.21 -0.443485 -6.90277 0
M  V30 1193 H 192.077 1.75537 -7.96793 0
M  V30 1194 P 196.039 2.75334 -8.47391 0
M  V30 1195 O 196.259 3.84128 -9.44797 0
M  V30 1196 O 196.829 1.51947 -8.68712 0
M  V30 1197 O 196.289 3.29363 -6.99321 0
M  V30 1198 C 195.349 4.24011 -6.4274 0
M  V30 1199 C 196.079 5.20775 -5.52155 0
M  V30 1200 O 196.289 4.56534 -4.22446 0
M  V30 1201 C 197.479 5.62629 -5.96531 0
M  V30 1202 O 197.869 6.87667 -5.41053 0
M  V30 1203 C 198.359 4.52537 -5.39283 0
M  V30 1204 C 197.649 4.20027 -4.08623 0
M  V30 1205 N 197.699 2.76189 -3.71603 0
M  V30 1206 H 194.86 4.797 -7.24003 0
M  V30 1207 H 194.59 3.69856 -5.84513 0
M  V30 1208 H 195.457 6.10356 -5.41441 0
M  V30 1209 P 199.419 7.20834 -5.23717 0
M  V30 1210 O 199.639 8.66104 -5.38572 0
M  V30 1211 O 200.209 6.33544 -6.1349 0
M  V30 1212 O 199.669 6.7751 -3.72168 0
M  V30 1213 C 198.729 7.20825 -2.7076 0
M  V30 1214 C 199.459 7.45864 -1.40599 0
M  V30 1215 O 199.669 6.17651 -0.734225 0
M  V30 1216 C 200.859 8.05808 -1.51899 0
M  V30 1217 O 201.249 8.74358 -0.335205 0
M  V30 1218 C 201.739 6.83093 -1.70294 0
M  V30 1219 C 201.029 5.79992 -0.836974 0
M  V30 1220 N 201.079 4.41864 -1.38293 0
M  V30 1221 H 198.24 8.13644 -3.0377 0
M  V30 1222 H 197.97 6.42788 -2.55485 0
M  V30 1223 H 198.837 8.12039 -0.792769 0
M  V30 1224 P 202.799 8.91 2.40144e-13 0
M  V30 1225 O 203.019 10.1726 0.733694 0
M  V30 1226 O 203.589 8.73148 -1.23936 0
M  V30 1227 O 203.049 7.66872 0.971405 0
M  V30 1228 C 202.109 7.42309 2.04641 0
M  V30 1229 C 202.839 6.86059 3.24661 0
M  V30 1230 O 203.049 5.42847 3.03646 0
M  V30 1231 C 204.239 7.41196 3.50753 0
M  V30 1232 O 204.629 7.27073 4.86816 0
M  V30 1233 C 205.119 6.5273 2.63741 0
M  V30 1234 C 204.409 5.1842 2.73198 0
M  V30 1235 N 204.459 4.38762 1.4784 0
M  V30 1236 H 201.62 8.36803 2.32493 0
M  V30 1237 H 201.35 6.70197 1.71129 0
M  V30 1238 H 202.217 7.03551 4.13168 0
M  V30 1239 P 206.179 7.20834 5.23717 0
M  V30 1240 O 206.399 7.80006 6.57415 0
M  V30 1241 O 206.969 7.79416 4.13051 0
M  V30 1242 O 206.429 5.63315 5.29344 0
M  V30 1243 C 205.489 4.80318 6.01954 0
M  V30 1244 C 206.219 3.64202 6.65911 0
M  V30 1245 O 206.429 2.60736 5.64823 0
M  V30 1246 C 207.619 3.93521 7.19518 0
M  V30 1247 O 208.009 3.02071 8.21205 0
M  V30 1248 C 208.499 3.73047 5.97036 0
M  V30 1249 C 207.789 2.58828 5.25741 0
M  V30 1250 N 207.839 2.68068 3.77503 0
M  V30 1251 C 207.759 3.80474 2.99159 0
M  V30 1252 N 207.829 3.55622 1.71925 0
M  V30 1253 C 207.979 2.1832 1.65733 0
M  V30 1254 C 208.109 1.28842 0.572777 0
M  V30 1255 N 208.119 1.66875 -0.70098 0
M  V30 1256 N 208.229 -0.016788 0.859836 0
M  V30 1257 C 208.219 -0.398145 2.13316 0
M  V30 1258 N 208.099 0.328224 3.22333 0
M  V30 1259 C 207.979 1.62992 2.90383 0
M  V30 1260 H 205.001 5.40394 6.8003 0
M  V30 1261 H 204.729 4.41741 5.32532 0
M  V30 1262 H 205.597 3.26371 7.47889 0
M  V30 1263 H 208.252 1.64007 5.56746 0
M  V30 1264 H 208.532 4.63439 5.3432 0
M  V30 1265 H 209.523 3.44776 6.25925 0
M  V30 1266 H 207.689 4.96707 7.57347 0
M  V30 1267 H 207.648 4.8089 3.39924 0
M  V30 1268 H 208.029 2.66547 -0.941919 0
M  V30 1269 H 208.218 0.965341 -1.44766 0
M  V30 1270 H 208.326 -1.46427 2.29697 0
M  V30 1271 P 209.559 2.75334 8.47391 0
M  V30 1272 O 209.779 2.44571 9.90142 0
M  V30 1273 O 210.349 3.87688 7.92115 0
M  V30 1274 O 209.809 1.4459 7.59357 0
M  V30 1275 C 208.869 0.347608 7.69215 0
M  V30 1276 C 209.599 -0.96767 7.52806 0
M  V30 1277 O 209.809 -1.21036 6.1011 0
M  V30 1278 C 210.999 -1.04544 8.13308 0
M  V30 1279 O 211.389 -2.38311 8.41922 0
M  V30 1280 C 211.879 -0.491279 7.02284 0
M  V30 1281 C 211.169 -0.996264 5.77469 0
M  V30 1282 N 211.219 -0.0501916 4.62973 0
M  V30 1283 H 208.38 0.374722 8.67691 0
M  V30 1284 H 208.11 0.443485 6.90277 0
M  V30 1285 H 208.977 -1.75537 7.96793 0
M  V30 1286 P 212.939 -2.75334 8.47391 0
M  V30 1287 O 213.159 -3.84128 9.44797 0
M  V30 1288 O 213.729 -1.51947 8.68712 0
M  V30 1289 O 213.189 -3.29363 6.99321 0
M  V30 1290 C 212.249 -4.24011 6.4274 0
M  V30 1291 C 212.979 -5.20775 5.52155 0
M  V30 1292 O 213.189 -4.56534 4.22446 0
M  V30 1293 C 214.379 -5.62629 5.96531 0
M  V30 1294 O 214.769 -6.87667 5.41053 0
M  V30 1295 C 215.259 -4.52537 5.39283 0
M  V30 1296 C 214.549 -4.20027 4.08623 0
M  V30 1297 N 214.599 -2.76189 3.71603 0
M  V30 1298 C 214.519 -1.64862 4.52822 0
M  V30 1299 N 214.599 -0.512671 3.88633 0
M  V30 1300 C 214.739 -0.888083 2.54977 0
M  V30 1301 C 214.869 -0.094668 1.38677 0
M  V30 1302 O 214.889 1.13053 1.28163 0
M  V30 1303 N 214.989 -0.890102 0.232633 0
M  V30 1304 C 214.989 -2.26958 0.21772 0
M  V30 1305 N 215.119 -2.84626 -0.97925 0
M  V30 1306 N 214.859 -3.0178 1.31033 0
M  V30 1307 C 214.739 -2.26781 2.43843 0
M  V30 1308 H 211.76 -4.797 7.24003 0
M  V30 1309 H 211.49 -3.69856 5.84513 0
M  V30 1310 H 212.357 -6.10356 5.41441 0
M  V30 1311 H 215.012 -4.79061 3.27488 0
M  V30 1312 H 215.291 -3.64906 6.05785 0
M  V30 1313 H 216.283 -4.8868 5.2125 0
M  V30 1314 H 214.449 -5.66726 7.06352 0
M  V30 1315 H 214.4 -1.71169 5.60966 0
M  V30 1316 H 215.082 -0.419134 -0.644739 0
M  V30 1317 H 215.119 -3.87332 -1.06098 0
M  V30 1318 H 215.22 -2.26417 -1.82483 0
M  V30 1319 P 216.319 -7.20834 5.23717 0
M  V30 1320 O 216.539 -8.66104 5.38572 0
M  V30 1321 O 217.109 -6.33544 6.1349 0
M  V30 1322 O 216.569 -6.7751 3.72168 0
M  V30 1323 C 215.629 -7.20825 2.7076 0
M  V30 1324 C 216.359 -7.45864 1.40599 0
M  V30 1325 O 216.569 -6.17651 0.734225 0
M  V30 1326 C 217.759 -8.05808 1.51899 0
M  V30 1327 O 218.149 -8.74358 0.335205 0
M  V30 1328 C 218.639 -6.83093 1.70294 0
M  V30 1329 C 217.929 -5.79992 0.836974 0
M  V30 1330 N 217.979 -4.41864 1.38293 0
M  V30 1331 H 215.14 -8.13644 3.0377 0
M  V30 1332 H 214.87 -6.42788 2.55485 0
M  V30 1333 H 215.737 -8.12039 0.792769 0
M  V30 1334 P 219.699 -8.91 -3.97326e-13 0
M  V30 1335 O 219.919 -10.1746 -0.733838 0
M  V30 1336 O 220.489 -8.73346 1.23964 0
M  V30 1337 O 219.949 -7.66872 -0.971405 0
M  V30 1338 C 219.009 -7.42405 -2.04668 0
M  V30 1339 C 219.739 -6.86059 -3.24661 0
M  V30 1340 O 219.949 -5.42934 -3.03695 0
M  V30 1341 C 221.139 -7.41287 -3.50796 0
M  V30 1342 O 221.529 -7.27073 -4.86816 0
M  V30 1343 C 222.019 -6.5273 -2.63741 0
M  V30 1344 C 221.309 -5.1842 -2.73198 0
M  V30 1345 N 221.359 -4.38762 -1.4784 0
M  V30 1346 H 218.521 -8.36899 -2.3252 0
M  V30 1347 H 218.249 -6.70391 -1.71179 0
M  V30 1348 H 219.117 -7.03638 -4.13219 0
M  V30 1349 H 221.772 -4.59931 -3.54016 0
M  V30 1350 H 222.052 -6.88995 -1.59871 0
M  V30 1351 H 223.043 -6.4684 -3.0373 0
M  V30 1352 H 221.209 -8.47002 -3.20749 0
M  V30 1353 P 223.079 -7.20834 -5.23717 0
M  V30 1354 O 223.299 -7.79853 -6.57286 0
M  V30 1355 O 223.869 -7.79239 -4.12957 0
M  V30 1356 O 223.329 -5.63315 -5.29344 0
M  V30 1357 C 222.389 -4.80255 -6.01876 0
M  V30 1358 C 223.119 -3.64202 -6.65911 0
M  V30 1359 O 223.329 -2.60694 -5.64732 0
M  V30 1360 C 224.519 -3.93473 -7.1943 0
M  V30 1361 O 224.909 -3.02071 -8.21205 0
M  V30 1362 C 225.399 -3.73047 -5.97036 0
M  V30 1363 C 224.689 -2.58828 -5.25741 0
M  V30 1364 N 224.739 -2.68068 -3.77503 0
M  V30 1365 C 224.659 -3.79715 -2.96723 0
M  V30 1366 N 224.739 -3.5377 -1.68852 0
M  V30 1367 C 224.879 -2.15054 -1.63254 0
M  V30 1368 C 225.009 -1.28964 -0.518571 0
M  V30 1369 O 225.029 -1.56826 0.679156 0
M  V30 1370 N 225.129 0.0538097 -0.918425 0
M  V30 1371 C 225.129 0.494275 -2.22578 0
M  V30 1372 N 225.259 1.81086 -2.40434 0
M  V30 1373 N 224.999 -0.313645 -3.27502 0
M  V30 1374 C 224.879 -1.61829 -2.91033 0
M  V30 1375 H 221.9 -5.40332 -6.79951 0
M  V30 1376 H 221.63 -4.41613 -5.32378 0
M  V30 1377 H 222.497 -3.26331 -7.47797 0
M  V30 1378 H 225.152 -1.63422 -5.56814 0
M  V30 1379 H 225.431 -4.63374 -5.34244 0
M  V30 1380 H 226.423 -3.44728 -6.25838 0
M  V30 1381 H 224.589 -4.96652 -7.57263 0
M  V30 1382 H 224.54 -4.80617 -3.3614 0
M  V30 1383 H 225.222 0.742702 -0.199384 0
M  V30 1384 H 225.259 2.20598 -3.35588 0
M  V30 1385 H 225.36 2.43518 -1.58945 0
M  V30 1386 P 226.459 -2.75334 -8.47391 0
M  V30 1387 O 226.679 -2.44571 -9.90142 0
M  V30 1388 O 227.249 -3.87688 -7.92115 0
M  V30 1389 O 226.709 -1.4459 -7.59357 0
M  V30 1390 C 225.769 -0.347608 -7.69215 0
M  V30 1391 C 226.499 0.96767 -7.52806 0
M  V30 1392 O 226.709 1.21036 -6.1011 0
M  V30 1393 C 227.899 1.04544 -8.13308 0
M  V30 1394 O 228.289 2.38311 -8.41922 0
M  V30 1395 C 228.779 0.491279 -7.02284 0
M  V30 1396 C 228.069 0.996264 -5.77469 0
M  V30 1397 N 228.119 0.0501916 -4.62973 0
M  V30 1398 H 225.28 -0.374722 -8.67691 0
M  V30 1399 H 225.01 -0.443485 -6.90277 0
M  V30 1400 H 225.877 1.75537 -7.96793 0
M  V30 1401 P 229.839 2.75334 -8.47391 0
M  V30 1402 O 230.059 3.84204 -9.44982 0
M  V30 1403 O 230.629 1.51982 -8.68909 0
M  V30 1404 O 230.089 3.29363 -6.99321 0
M  V30 1405 C 229.149 4.24066 -6.42823 0
M  V30 1406 C 229.879 5.20775 -5.52155 0
M  V30 1407 O 230.089 4.56607 -4.22514 0
M  V30 1408 C 231.279 5.62697 -5.96604 0
M  V30 1409 O 231.669 6.87667 -5.41053 0
M  V30 1410 C 232.159 4.52537 -5.39283 0
M  V30 1411 C 231.449 4.20027 -4.08623 0
M  V30 1412 N 231.499 2.76189 -3.71603 0
M  V30 1413 C 231.419 1.66944 -4.54297 0
M  V30 1414 N 231.489 0.536169 -3.91344 0
M  V30 1415 C 231.639 0.901569 -2.58849 0
M  V30 1416 C 231.769 0.146599 -1.40236 0
M  V30 1417 N 231.779 -1.18234 -1.37046 0
M  V30 1418 N 231.889 0.822941 -0.249738 0
M  V30 1419 C 231.879 2.15179 -0.280525 0
M  V30 1420 N 231.759 2.96414 -1.30822 0
M  V30 1421 C 231.639 2.25804 -2.44748 0
M  V30 1422 H 228.661 4.79756 -7.24086 0
M  V30 1423 H 228.389 3.69963 -5.84682 0
M  V30 1424 H 229.257 6.10431 -5.41508 0
M  V30 1425 H 231.912 4.78816 -3.28024 0
M  V30 1426 H 232.192 3.64957 -6.05871 0
M  V30 1427 H 233.183 4.88748 -5.21323 0
M  V30 1428 H 231.349 5.66789 -7.0643 0
M  V30 1429 H 231.308 1.74684 -5.62396 0
M  V30 1430 H 231.689 -1.71949 -2.24394 0
M  V30 1431 H 231.878 -1.67511 -0.470742 0
M  V30 1432 H 231.986 2.63704 0.6828 0
M  V30 1433 P 233.219 7.20834 -5.23717 0
M  V30 1434 O 233.439 8.66104 -5.38572 0
M  V30 1435 O 234.009 6.33544 -6.1349 0
M  V30 1436 O 233.469 6.7751 -3.72168 0
M  V30 1437 C 232.529 7.20825 -2.7076 0
M  V30 1438 C 233.259 7.45864 -1.40599 0
M  V30 1439 O 233.469 6.17651 -0.734225 0
M  V30 1440 C 234.659 8.05808 -1.51899 0
M  V30 1441 O 235.049 8.74358 -0.335205 0
M  V30 1442 C 235.539 6.83093 -1.70294 0
M  V30 1443 C 234.829 5.79992 -0.836974 0
M  V30 1444 N 234.879 4.41864 -1.38293 0
M  V30 1445 H 232.04 8.13644 -3.0377 0
M  V30 1446 H 231.77 6.42788 -2.55485 0
M  V30 1447 H 232.637 8.12039 -0.792769 0
M  V30 1448 P 236.599 8.91 5.54508e-13 0
M  V30 1449 O 236.819 10.1726 0.733694 0
M  V30 1450 O 237.389 8.73148 -1.23936 0
M  V30 1451 O 236.849 7.66872 0.971405 0
M  V30 1452 C 235.909 7.42309 2.04641 0
M  V30 1453 C 236.639 6.86059 3.24661 0
M  V30 1454 O 236.849 5.42847 3.03646 0
M  V30 1455 C 238.039 7.41196 3.50753 0
M  V30 1456 O 238.429 7.27073 4.86816 0
M  V30 1457 C 238.919 6.5273 2.63741 0
M  V30 1458 C 238.209 5.1842 2.73198 0
M  V30 1459 N 238.259 4.38762 1.4784 0
M  V30 1460 H 235.42 8.36803 2.32493 0
M  V30 1461 H 235.15 6.70197 1.71129 0
M  V30 1462 H 236.017 7.03551 4.13168 0
M  V30 1463 P 239.979 7.20834 5.23717 0
M  V30 1464 O 240.199 7.79853 6.57286 0
M  V30 1465 O 240.769 7.79239 4.12957 0
M  V30 1466 O 240.229 5.63315 5.29344 0
M  V30 1467 C 239.289 4.80255 6.01876 0
M  V30 1468 C 240.019 3.64202 6.65911 0
M  V30 1469 O 240.229 2.60694 5.64732 0
M  V30 1470 C 241.419 3.93473 7.1943 0
M  V30 1471 O 241.809 3.02071 8.21205 0
M  V30 1472 C 242.299 3.73047 5.97036 0
M  V30 1473 C 241.589 2.58828 5.25741 0
M  V30 1474 N 241.639 2.68068 3.77503 0
M  V30 1475 H 238.8 5.40332 6.79951 0
M  V30 1476 H 238.53 4.41613 5.32378 0
M  V30 1477 H 239.397 3.26331 7.47797 0
M  V30 1478 P 243.359 2.75334 8.47391 0
M  V30 1479 O 243.579 2.44571 9.90142 0
M  V30 1480 O 244.149 3.87688 7.92115 0
M  V30 1481 O 243.609 1.4459 7.59357 0
M  V30 1482 C 242.669 0.347608 7.69215 0
M  V30 1483 C 243.399 -0.96767 7.52806 0
M  V30 1484 O 243.609 -1.21036 6.1011 0
M  V30 1485 C 244.799 -1.04544 8.13308 0
M  V30 1486 O 245.189 -2.38311 8.41922 0
M  V30 1487 C 245.679 -0.491279 7.02284 0
M  V30 1488 C 244.969 -0.996264 5.77469 0
M  V30 1489 N 245.019 -0.0501916 4.62973 0
M  V30 1490 H 242.18 0.374722 8.67691 0
M  V30 1491 H 241.91 0.443485 6.90277 0
M  V30 1492 H 242.777 -1.75537 7.96793 0
M  V30 1493 P 246.739 -2.75334 8.47391 0
M  V30 1494 O 246.959 -3.84128 9.44797 0
M  V30 1495 O 247.529 -1.51947 8.68712 0
M  V30 1496 O 246.989 -3.29363 6.99321 0
M  V30 1497 C 246.049 -4.24011 6.4274 0
M  V30 1498 C 246.779 -5.20775 5.52155 0
M  V30 1499 O 246.989 -4.56534 4.22446 0
M  V30 1500 C 248.179 -5.62629 5.96531 0
M  V30 1501 O 248.569 -6.87667 5.41053 0
M  V30 1502 C 249.059 -4.52537 5.39283 0
M  V30 1503 C 248.349 -4.20027 4.08623 0
M  V30 1504 N 248.399 -2.76189 3.71603 0
M  V30 1505 H 245.56 -4.797 7.24003 0
M  V30 1506 H 245.29 -3.69856 5.84513 0
M  V30 1507 H 246.157 -6.10356 5.41441 0
M  V30 1508 P 250.119 -7.20834 5.23717 0
M  V30 1509 O 250.339 -8.66104 5.38572 0
M  V30 1510 O 250.909 -6.33544 6.1349 0
M  V30 1511 O 250.369 -6.7751 3.72168 0
M  V30 1512 C 249.429 -7.20825 2.7076 0
M  V30 1513 C 250.159 -7.45864 1.40599 0
M  V30 1514 O 250.369 -6.17651 0.734225 0
M  V30 1515 C 251.559 -8.05808 1.51899 0
M  V30 1516 O 251.949 -8.74358 0.335205 0
M  V30 1517 C 252.439 -6.83093 1.70294 0
M  V30 1518 C 251.729 -5.79992 0.836974 0
M  V30 1519 N 251.779 -4.41864 1.38293 0
M  V30 1520 H 248.94 -8.13644 3.0377 0
M  V30 1521 H 248.67 -6.42788 2.55485 0
M  V30 1522 H 249.537 -8.12039 0.792769 0
M  V30 1523 P 253.498 -8.91 -7.1169e-13 0
M  V30 1524 O 253.718 -10.1726 -0.733694 0
M  V30 1525 O 254.288 -8.73148 1.23936 0
M  V30 1526 O 253.748 -7.66872 -0.971405 0
M  V30 1527 C 252.808 -7.42309 -2.04641 0
M  V30 1528 C 253.538 -6.86059 -3.24661 0
M  V30 1529 O 253.748 -5.42847 -3.03646 0
M  V30 1530 C 254.938 -7.41196 -3.50753 0
M  V30 1531 O 255.328 -7.27073 -4.86816 0
M  V30 1532 C 255.818 -6.5273 -2.63741 0
M  V30 1533 C 255.108 -5.1842 -2.73198 0
M  V30 1534 N 255.158 -4.38762 -1.4784 0
M  V30 1535 H 252.319 -8.36803 -2.32493 0
M  V30 1536 H 252.049 -6.70197 -1.71129 0
M  V30 1537 H 252.916 -7.03551 -4.13168 0
M  V30 1538 P 256.878 -7.20834 -5.23717 0
M  V30 1539 O 257.098 -7.79853 -6.57286 0
M  V30 1540 O 257.668 -7.79239 -4.12957 0
M  V30 1541 O 257.128 -5.63315 -5.29344 0
M  V30 1542 C 256.188 -4.80255 -6.01876 0
M  V30 1543 C 256.918 -3.64202 -6.65911 0
M  V30 1544 O 257.128 -2.60694 -5.64732 0
M  V30 1545 C 258.318 -3.93473 -7.1943 0
M  V30 1546 O 258.708 -3.02071 -8.21205 0
M  V30 1547 C 259.198 -3.73047 -5.97036 0
M  V30 1548 C 258.488 -2.58828 -5.25741 0
M  V30 1549 N 258.538 -2.68068 -3.77503 0
M  V30 1550 H 255.699 -5.40332 -6.79951 0
M  V30 1551 H 255.429 -4.41613 -5.32378 0
M  V30 1552 H 256.296 -3.26331 -7.47797 0
M  V30 1553 P 260.258 -2.75334 -8.47391 0
M  V30 1554 O 260.478 -2.44595 -9.90239 0
M  V30 1555 O 261.048 -3.87732 -7.92204 0
M  V30 1556 O 260.508 -1.4459 -7.59357 0
M  V30 1557 C 259.568 -0.347563 -7.69115 0
M  V30 1558 C 260.298 0.96767 -7.52806 0
M  V30 1559 O 260.508 1.21036 -6.1011 0
M  V30 1560 C 261.698 1.04544 -8.13308 0
M  V30 1561 O 262.088 2.38311 -8.41922 0
M  V30 1562 C 262.578 0.491279 -7.02284 0
M  V30 1563 C 261.868 0.996264 -5.77469 0
M  V30 1564 N 261.918 0.0501808 -4.62873 0
M  V30 1565 C 262.068 0.588177 -3.36904 0
M  V30 1566 O 262.158 1.78598 -3.17173 0
M  V30 1567 N 262.108 -0.329694 -2.33686 0
M  V30 1568 C 262.018 -1.6953 -2.45079 0
M  V30 1569 O 262.068 -2.41926 -1.44899 0
M  V30 1570 C 261.868 -2.16933 -3.80505 0
M  V30 1571 C 261.758 -3.65373 -3.97621 0
M  V30 1572 C 261.818 -1.30326 -4.83752 0
M  V30 1573 H 259.078 -0.374722 -8.67691 0
M  V30 1574 H 258.809 -0.443421 -6.90177 0
M  V30 1575 H 259.676 1.75537 -7.96793 0
M  V30 1576 H 262.331 1.94496 -5.46629 0
M  V30 1577 H 262.61 -0.608651 -7.04676 0
M  V30 1578 H 263.602 0.889672 -7.08939 0
M  V30 1579 H 261.768 0.43308 -9.04564 0
M  V30 1580 H 261.697 -1.68366 -5.8516 0
M  V30 1581 H 262.727 -4.05985 -4.30448 0
M  V30 1582 H 260.99 -3.88028 -4.72875 0
M  V30 1583 H 261.478 -4.11381 -3.01609 0
M  V30 1584 H 262.214 0.0393617 -1.41345 0
M  V30 1585 P 263.638 2.75334 -8.47391 0
M  V30 1586 O 263.858 3.84128 -9.44797 0
M  V30 1587 O 264.428 1.51947 -8.68712 0
M  V30 1588 O 263.888 3.29363 -6.99321 0
M  V30 1589 C 262.948 4.24011 -6.4274 0
M  V30 1590 C 263.678 5.20775 -5.52155 0
M  V30 1591 O 263.888 4.56534 -4.22446 0
M  V30 1592 C 265.078 5.62629 -5.96531 0
M  V30 1593 O 265.468 6.87667 -5.41053 0
M  V30 1594 C 265.958 4.52537 -5.39283 0
M  V30 1595 C 265.248 4.20027 -4.08623 0
M  V30 1596 N 265.298 2.76189 -3.71603 0
M  V30 1597 H 262.459 4.797 -7.24003 0
M  V30 1598 H 262.189 3.69856 -5.84513 0
M  V30 1599 H 263.056 6.10356 -5.41441 0
M  V30 1600 P 267.018 7.20834 -5.23717 0
M  V30 1601 O 267.238 8.66274 -5.38678 0
M  V30 1602 O 267.808 6.33687 -6.13629 0
M  V30 1603 O 267.268 6.7751 -3.72168 0
M  V30 1604 C 266.328 7.20919 -2.70795 0
M  V30 1605 C 267.058 7.45864 -1.40599 0
M  V30 1606 O 267.268 6.17751 -0.734343 0
M  V30 1607 C 268.458 8.05906 -1.51917 0
M  V30 1608 O 268.848 8.74358 -0.335205 0
M  V30 1609 C 269.338 6.83093 -1.70294 0
M  V30 1610 C 268.628 5.79992 -0.836974 0
M  V30 1611 N 268.678 4.41864 -1.38293 0
M  V30 1612 C 268.598 4.02089 -2.69407 0
M  V30 1613 N 268.668 2.73403 -2.85089 0
M  V30 1614 C 268.818 2.25086 -1.5642 0
M  V30 1615 C 268.948 0.942887 -1.04836 0
M  V30 1616 N 268.958 -0.150999 -1.80369 0
M  V30 1617 N 269.068 0.812565 0.28167 0
M  V30 1618 C 269.058 1.90572 1.03784 0
M  V30 1619 N 268.938 3.167 0.683905 0
M  V30 1620 C 268.818 3.26538 -0.652815 0
M  V30 1621 H 265.84 8.13738 -3.03804 0
M  V30 1622 H 265.568 6.42974 -2.55559 0
M  V30 1623 H 266.436 8.12139 -0.792866 0
M  V30 1624 H 269.091 5.80178 0.160643 0
M  V30 1625 H 269.371 6.51379 -2.75643 0
M  V30 1626 H 270.362 7.01832 -1.3448 0
M  V30 1627 H 268.528 8.73771 -2.38364 0
M  V30 1628 H 268.487 4.7189 -3.52311 0
M  V30 1629 H 268.868 -0.0721434 -2.82608 0
M  V30 1630 H 269.057 -1.0785 -1.36544 0
M  V30 1631 H 269.165 1.73207 2.10241 0
M  V30 1632 P 270.398 8.91 8.68872e-13 0
M  V30 1633 O 270.618 10.1726 0.733694 0
M  V30 1634 O 271.188 8.73148 -1.23936 0
M  V30 1635 O 270.648 7.66872 0.971405 0
M  V30 1636 C 269.708 7.42309 2.04641 0
M  V30 1637 C 270.438 6.86059 3.24661 0
M  V30 1638 O 270.648 5.42847 3.03646 0
M  V30 1639 C 271.838 7.41196 3.50753 0
M  V30 1640 O 272.228 7.27073 4.86816 0
M  V30 1641 C 272.718 6.5273 2.63741 0
M  V30 1642 C 272.008 5.1842 2.73198 0
M  V30 1643 N 272.058 4.38762 1.4784 0
M  V30 1644 H 269.219 8.36803 2.32493 0
M  V30 1645 H 268.949 6.70197 1.71129 0
M  V30 1646 H 269.816 7.03551 4.13168 0
M  V30 1647 P 273.778 7.20834 5.23717 0
M  V30 1648 O 273.998 7.79853 6.57286 0
M  V30 1649 O 274.568 7.79239 4.12957 0
M  V30 1650 O 274.028 5.63315 5.29344 0
M  V30 1651 C 273.088 4.80255 6.01876 0
M  V30 1652 C 273.818 3.64202 6.65911 0
M  V30 1653 O 274.028 2.60694 5.64732 0
M  V30 1654 C 275.218 3.93473 7.1943 0
M  V30 1655 O 275.608 3.02071 8.21205 0
M  V30 1656 C 276.098 3.73047 5.97036 0
M  V30 1657 C 275.388 2.58828 5.25741 0
M  V30 1658 N 275.438 2.68068 3.77503 0
M  V30 1659 H 272.599 5.40332 6.79951 0
M  V30 1660 H 272.329 4.41613 5.32378 0
M  V30 1661 H 273.196 3.26331 7.47797 0
M  V30 1662 P 277.158 2.75334 8.47391 0
M  V30 1663 O 277.378 2.44619 9.90336 0
M  V30 1664 O 277.948 3.87776 7.92294 0
M  V30 1665 O 277.408 1.4459 7.59357 0
M  V30 1666 C 276.468 0.347653 7.69315 0
M  V30 1667 C 277.198 -0.96767 7.52806 0
M  V30 1668 O 277.408 -1.21055 6.10208 0
M  V30 1669 C 278.598 -1.04557 8.13408 0
M  V30 1670 O 278.988 -2.38311 8.41922 0
M  V30 1671 C 279.478 -0.491279 7.02284 0
M  V30 1672 C 278.768 -0.996264 5.77469 0
M  V30 1673 N 278.818 -0.0501916 4.62973 0
M  V30 1674 C 278.738 1.31969 4.65661 0
M  V30 1675 N 278.808 1.86649 3.48119 0
M  V30 1676 C 278.958 0.792089 2.62406 0
M  V30 1677 C 279.088 0.705684 1.2207 0
M  V30 1678 N 279.098 1.76207 0.413762 0
M  V30 1679 N 279.208 -0.518981 0.685754 0
M  V30 1680 C 279.198 -1.57595 1.49174 0
M  V30 1681 N 279.078 -1.62909 2.80066 0
M  V30 1682 C 278.958 -0.388195 3.3073 0
M  V30 1683 H 275.98 0.374765 8.67791 0
M  V30 1684 H 275.708 0.443613 6.90476 0
M  V30 1685 H 276.576 -1.75559 7.96891 0
M  V30 1686 H 279.231 -1.94563 5.46818 0
M  V30 1687 H 279.511 0.608651 7.04676 0
M  V30 1688 H 280.502 -0.889796 7.09039 0
M  V30 1689 H 278.668 -0.433128 9.04664 0
M  V30 1690 H 278.627 1.89246 5.57664 0
M  V30 1691 H 279.008 2.71005 0.804694 0
M  V30 1692 H 279.197 1.63189 -0.603768 0
M  V30 1693 H 279.305 -2.53475 0.997614 0
M  V30 1694 P 280.538 -2.75334 8.47391 0
M  V30 1695 O 280.758 -3.84128 9.44797 0
M  V30 1696 O 281.328 -1.51947 8.68712 0
M  V30 1697 O 280.788 -3.29363 6.99321 0
M  V30 1698 C 279.848 -4.24011 6.4274 0
M  V30 1699 C 280.578 -5.20775 5.52155 0
M  V30 1700 O 280.788 -4.56534 4.22446 0
M  V30 1701 C 281.978 -5.62629 5.96531 0
M  V30 1702 O 282.368 -6.87667 5.41053 0
M  V30 1703 C 282.858 -4.52537 5.39283 0
M  V30 1704 C 282.148 -4.20027 4.08623 0
M  V30 1705 N 282.198 -2.76189 3.71603 0
M  V30 1706 H 279.359 -4.797 7.24003 0
M  V30 1707 H 279.089 -3.69856 5.84513 0
M  V30 1708 H 279.956 -6.10356 5.41441 0
M  V30 1709 P 283.918 -7.20834 5.23717 0
M  V30 1710 O 284.138 -8.66104 5.38572 0
M  V30 1711 O 284.708 -6.33544 6.1349 0
M  V30 1712 O 284.168 -6.7751 3.72168 0
M  V30 1713 C 283.228 -7.20825 2.7076 0
M  V30 1714 C 283.958 -7.45864 1.40599 0
M  V30 1715 O 284.168 -6.17651 0.734225 0
M  V30 1716 C 285.358 -8.05808 1.51899 0
M  V30 1717 O 285.748 -8.74358 0.335205 0
M  V30 1718 C 286.238 -6.83093 1.70294 0
M  V30 1719 C 285.528 -5.79992 0.836974 0
M  V30 1720 N 285.578 -4.41864 1.38293 0
M  V30 1721 H 282.739 -8.13644 3.0377 0
M  V30 1722 H 282.469 -6.42788 2.55485 0
M  V30 1723 H 283.336 -8.12039 0.792769 0
M  V30 1724 P 287.298 -8.91 -1.02605e-12 0
M  V30 1725 O 287.518 -10.1726 -0.733694 0
M  V30 1726 O 288.088 -8.73148 1.23936 0
M  V30 1727 O 287.548 -7.66872 -0.971405 0
M  V30 1728 C 286.608 -7.42309 -2.04641 0
M  V30 1729 C 287.338 -6.86059 -3.24661 0
M  V30 1730 O 287.548 -5.42847 -3.03646 0
M  V30 1731 C 288.738 -7.41196 -3.50753 0
M  V30 1732 O 289.128 -7.27073 -4.86816 0
M  V30 1733 C 289.618 -6.5273 -2.63741 0
M  V30 1734 C 288.908 -5.1842 -2.73198 0
M  V30 1735 N 288.958 -4.38762 -1.4784 0
M  V30 1736 H 286.119 -8.36803 -2.32493 0
M  V30 1737 H 285.849 -6.70197 -1.71129 0
M  V30 1738 H 286.716 -7.03551 -4.13168 0
M  V30 1739 P 290.678 -7.20834 -5.23717 0
M  V30 1740 O 290.898 -7.80006 -6.57415 0
M  V30 1741 O 291.468 -7.79416 -4.13051 0
M  V30 1742 O 290.928 -5.63315 -5.29344 0
M  V30 1743 C 289.988 -4.80318 -6.01954 0
M  V30 1744 C 290.718 -3.64202 -6.65911 0
M  V30 1745 O 290.928 -2.60736 -5.64823 0
M  V30 1746 C 292.118 -3.93521 -7.19518 0
M  V30 1747 O 292.508 -3.02071 -8.21205 0
M  V30 1748 C 292.998 -3.73047 -5.97036 0
M  V30 1749 C 292.288 -2.58828 -5.25741 0
M  V30 1750 N 292.338 -2.68068 -3.77503 0
M  V30 1751 H 289.5 -5.40394 -6.8003 0
M  V30 1752 H 289.228 -4.41741 -5.32532 0
M  V30 1753 H 290.096 -3.26371 -7.47889 0
M  V30 1754 H 292.751 -1.64007 -5.56746 0
M  V30 1755 H 293.031 -4.63439 -5.3432 0
M  V30 1756 H 294.022 -3.44776 -6.25925 0
M  V30 1757 H 292.188 -4.96707 -7.57347 0
M  V30 1758 P 294.058 -2.75334 -8.47391 0
M  V30 1759 O 294.278 -2.44571 -9.90142 0
M  V30 1760 O 294.848 -3.87688 -7.92115 0
M  V30 1761 O 294.308 -1.4459 -7.59357 0
M  V30 1762 C 293.368 -0.347608 -7.69215 0
M  V30 1763 C 294.098 0.96767 -7.52806 0
M  V30 1764 O 294.308 1.21036 -6.1011 0
M  V30 1765 C 295.498 1.04544 -8.13308 0
M  V30 1766 O 295.888 2.38311 -8.41922 0
M  V30 1767 C 296.378 0.491279 -7.02284 0
M  V30 1768 C 295.668 0.996264 -5.77469 0
M  V30 1769 N 295.718 0.0501916 -4.62973 0
M  V30 1770 H 292.879 -0.374722 -8.67691 0
M  V30 1771 H 292.609 -0.443485 -6.90277 0
M  V30 1772 H 293.476 1.75537 -7.96793 0
M  V30 1773 P 297.438 2.75334 -8.47391 0
M  V30 1774 O 297.658 3.84166 -9.4489 0
M  V30 1775 O 298.228 1.51964 -8.6881 0
M  V30 1776 O 297.688 3.29363 -6.99321 0
M  V30 1777 C 296.748 4.23956 -6.42656 0
M  V30 1778 C 297.478 5.20775 -5.52155 0
M  V30 1779 O 297.688 4.56534 -4.22446 0
M  V30 1780 C 298.878 5.62629 -5.96531 0
M  V30 1781 O 299.268 6.87667 -5.41053 0
M  V30 1782 C 299.758 4.52537 -5.39283 0
M  V30 1783 C 299.048 4.20027 -4.08623 0
M  V30 1784 N 299.098 2.7613 -3.71522 0
M  V30 1785 C 299.248 2.45612 -2.37989 0
M  V30 1786 O 299.338 3.30919 -1.51621 0
M  V30 1787 N 299.288 1.10684 -2.08435 0
M  V30 1788 C 299.198 0.0690084 -2.9792 0
M  V30 1789 C 299.048 0.481522 -4.35345 0
M  V30 1790 C 298.998 1.78906 -4.67968 0
M  V30 1791 H 296.258 4.797 -7.24003 0
M  V30 1792 H 295.989 3.69802 -5.84429 0
M  V30 1793 H 296.856 6.10356 -5.41441 0
M  V30 1794 H 299.511 4.78651 -3.27911 0
M  V30 1795 H 299.79 3.64957 -6.05871 0
M  V30 1796 H 300.782 4.8868 -5.2125 0
M  V30 1797 H 298.948 5.66726 -7.06352 0
M  V30 1798 H 298.877 2.07737 -5.72367 0
M  V30 1799 P 300.818 7.20834 -5.23717 0
M  V30 1800 O 301.038 8.66104 -5.38572 0
M  V30 1801 O 301.608 6.33544 -6.1349 0
M  V30 1802 O 301.068 6.7751 -3.72168 0
M  V30 1803 C 300.128 7.20825 -2.7076 0
M  V30 1804 C 300.858 7.45864 -1.40599 0
M  V30 1805 O 301.068 6.17651 -0.734225 0
M  V30 1806 C 302.258 8.05808 -1.51899 0
M  V30 1807 O 302.648 8.74358 -0.335205 0
M  V30 1808 C 303.138 6.83093 -1.70294 0
M  V30 1809 C 302.428 5.79992 -0.836974 0
M  V30 1810 N 302.478 4.41864 -1.38293 0
M  V30 1811 H 299.639 8.13644 -3.0377 0
M  V30 1812 H 299.369 6.42788 -2.55485 0
M  V30 1813 H 300.236 8.12039 -0.792769 0
M  V30 1814 P 304.198 8.91 1.18324e-12 0
M  V30 1815 O 304.418 10.1726 0.733694 0
M  V30 1816 O 304.988 8.73148 -1.23936 0
M  V30 1817 O 304.448 7.66872 0.971405 0
M  V30 1818 C 303.508 7.42309 2.04641 0
M  V30 1819 C 304.238 6.86059 3.24661 0
M  V30 1820 O 304.448 5.42847 3.03646 0
M  V30 1821 C 305.638 7.41196 3.50753 0
M  V30 1822 O 306.028 7.27073 4.86816 0
M  V30 1823 C 306.518 6.5273 2.63741 0
M  V30 1824 C 305.808 5.1842 2.73198 0
M  V30 1825 N 305.858 4.38762 1.4784 0
M  V30 1826 C 305.778 4.81605 0.168631 0
M  V30 1827 N 305.858 3.85454 -0.713363 0
M  V30 1828 C 305.998 2.6994 0.0566958 0
M  V30 1829 C 306.128 1.34815 -0.338502 0
M  V30 1830 N 306.248 0.496304 0.77465 0
M  V30 1831 C 306.248 0.908403 2.09122 0
M  V30 1832 N 306.378 -0.0517805 3.00955 0
M  V30 1833 N 306.118 2.17875 2.46519 0
M  V30 1834 C 305.998 3.01988 1.4033 0
M  V30 1835 H 303.019 8.36803 2.32493 0
M  V30 1836 H 302.749 6.70197 1.71129 0
M  V30 1837 H 303.616 7.03551 4.13168 0
M  V30 1838 P 307.578 7.20834 5.23717 0
M  V30 1839 O 307.798 7.79853 6.57286 0
M  V30 1840 O 308.368 7.79239 4.12957 0
M  V30 1841 O 307.828 5.63315 5.29344 0
M  V30 1842 C 306.888 4.80255 6.01876 0
M  V30 1843 C 307.618 3.64202 6.65911 0
M  V30 1844 O 307.828 2.60694 5.64732 0
M  V30 1845 C 309.018 3.93473 7.1943 0
M  V30 1846 O 309.408 3.02071 8.21205 0
M  V30 1847 C 309.898 3.73047 5.97036 0
M  V30 1848 C 309.188 2.58828 5.25741 0
M  V30 1849 N 309.238 2.68068 3.77503 0
M  V30 1850 C 309.158 3.79715 2.96723 0
M  V30 1851 N 309.238 3.5377 1.68852 0
M  V30 1852 C 309.378 2.15054 1.63254 0
M  V30 1853 C 309.508 1.28964 0.518571 0
M  V30 1854 O 309.528 1.56826 -0.679156 0
M  V30 1855 N 309.628 -0.0538097 0.918425 0
M  V30 1856 C 309.628 -0.494275 2.22578 0
M  V30 1857 N 309.758 -1.81086 2.40434 0
M  V30 1858 N 309.498 0.313645 3.27502 0
M  V30 1859 C 309.378 1.61829 2.91033 0
M  V30 1860 H 306.399 5.40332 6.79951 0
M  V30 1861 H 306.129 4.41613 5.32378 0
M  V30 1862 H 306.996 3.26331 7.47797 0
M  V30 1863 H 309.651 1.63422 5.56814 0
M  V30 1864 H 309.93 4.63374 5.34244 0
M  V30 1865 H 310.922 3.44728 6.25838 0
M  V30 1866 H 309.088 4.96652 7.57263 0
M  V30 1867 H 309.039 4.80617 3.3614 0
M  V30 1868 H 309.721 -0.742702 0.199384 0
M  V30 1869 H 309.758 -2.20598 3.35588 0
M  V30 1870 H 309.859 -2.43518 1.58945 0
M  V30 1871 P 310.958 2.75334 8.47391 0
M  V30 1872 O 311.178 2.44619 9.90336 0
M  V30 1873 O 311.748 3.87776 7.92294 0
M  V30 1874 O 311.208 1.4459 7.59357 0
M  V30 1875 C 310.268 0.347653 7.69315 0
M  V30 1876 C 310.998 -0.96767 7.52806 0
M  V30 1877 O 311.208 -1.21055 6.10208 0
M  V30 1878 C 312.398 -1.04557 8.13408 0
M  V30 1879 O 312.788 -2.38311 8.41922 0
M  V30 1880 C 313.278 -0.491279 7.02284 0
M  V30 1881 C 312.568 -0.996264 5.77469 0
M  V30 1882 N 312.618 -0.0501916 4.62973 0
M  V30 1883 C 312.538 1.31969 4.65661 0
M  V30 1884 N 312.608 1.86649 3.48119 0
M  V30 1885 C 312.758 0.792089 2.62406 0
M  V30 1886 C 312.888 0.705684 1.2207 0
M  V30 1887 N 312.898 1.76207 0.413762 0
M  V30 1888 N 313.008 -0.518981 0.685754 0
M  V30 1889 C 312.998 -1.57595 1.49174 0
M  V30 1890 N 312.878 -1.62909 2.80066 0
M  V30 1891 C 312.758 -0.388195 3.3073 0
M  V30 1892 H 309.78 0.374765 8.67791 0
M  V30 1893 H 309.508 0.443613 6.90476 0
M  V30 1894 H 310.376 -1.75559 7.96891 0
M  V30 1895 H 313.031 -1.94563 5.46818 0
M  V30 1896 H 313.311 0.608651 7.04676 0
M  V30 1897 H 314.302 -0.889796 7.09039 0
M  V30 1898 H 312.468 -0.433128 9.04664 0
M  V30 1899 H 312.427 1.89246 5.57664 0
M  V30 1900 H 312.808 2.71005 0.804694 0
M  V30 1901 H 312.997 1.63189 -0.603768 0
M  V30 1902 H 313.105 -2.53475 0.997614 0
M  V30 1903 P 314.338 -2.75334 8.47391 0
M  V30 1904 O 314.558 -3.84128 9.44797 0
M  V30 1905 O 315.128 -1.51947 8.68712 0
M  V30 1906 O 314.588 -3.29363 6.99321 0
M  V30 1907 C 313.648 -4.24011 6.4274 0
M  V30 1908 C 314.378 -5.20775 5.52155 0
M  V30 1909 O 314.588 -4.56534 4.22446 0
M  V30 1910 C 315.778 -5.62629 5.96531 0
M  V30 1911 O 316.168 -6.87667 5.41053 0
M  V30 1912 C 316.658 -4.52537 5.39283 0
M  V30 1913 C 315.948 -4.20027 4.08623 0
M  V30 1914 N 315.998 -2.76189 3.71603 0
M  V30 1915 H 313.159 -4.797 7.24003 0
M  V30 1916 H 312.889 -3.69856 5.84513 0
M  V30 1917 H 313.756 -6.10356 5.41441 0
M  V30 1918 P 317.718 -7.20834 5.23717 0
M  V30 1919 O 317.938 -8.66104 5.38572 0
M  V30 1920 O 318.508 -6.33544 6.1349 0
M  V30 1921 O 317.968 -6.7751 3.72168 0
M  V30 1922 C 317.028 -7.20825 2.7076 0
M  V30 1923 C 317.758 -7.45864 1.40599 0
M  V30 1924 O 317.968 -6.17651 0.734225 0
M  V30 1925 C 319.158 -8.05808 1.51899 0
M  V30 1926 O 319.548 -8.74358 0.335205 0
M  V30 1927 C 320.038 -6.83093 1.70294 0
M  V30 1928 C 319.328 -5.79992 0.836974 0
M  V30 1929 N 319.378 -4.41864 1.38293 0
M  V30 1930 H 316.539 -8.13644 3.0377 0
M  V30 1931 H 316.269 -6.42788 2.55485 0
M  V30 1932 H 317.136 -8.12039 0.792769 0
M  V30 1933 P 321.098 -8.91 -1.34042e-12 0
M  V30 1934 O 321.318 -10.1726 -0.733694 0
M  V30 1935 O 321.888 -8.73148 1.23936 0
M  V30 1936 O 321.348 -7.66872 -0.971405 0
M  V30 1937 C 320.408 -7.42309 -2.04641 0
M  V30 1938 C 321.138 -6.86059 -3.24661 0
M  V30 1939 O 321.348 -5.42847 -3.03646 0
M  V30 1940 C 322.538 -7.41196 -3.50753 0
M  V30 1941 O 322.928 -7.27073 -4.86816 0
M  V30 1942 C 323.418 -6.5273 -2.63741 0
M  V30 1943 C 322.708 -5.1842 -2.73198 0
M  V30 1944 N 322.758 -4.38762 -1.4784 0
M  V30 1945 H 319.919 -8.36803 -2.32493 0
M  V30 1946 H 319.649 -6.70197 -1.71129 0
M  V30 1947 H 320.516 -7.03551 -4.13168 0
M  V30 1948 P 324.478 -7.20834 -5.23717 0
M  V30 1949 O 324.698 -7.79853 -6.57286 0
M  V30 1950 O 325.268 -7.79239 -4.12957 0
M  V30 1951 O 324.728 -5.63315 -5.29344 0
M  V30 1952 C 323.788 -4.80255 -6.01876 0
M  V30 1953 C 324.518 -3.64202 -6.65911 0
M  V30 1954 O 324.728 -2.60694 -5.64732 0
M  V30 1955 C 325.918 -3.93473 -7.1943 0
M  V30 1956 O 326.308 -3.02071 -8.21205 0
M  V30 1957 C 326.798 -3.73047 -5.97036 0
M  V30 1958 C 326.088 -2.58828 -5.25741 0
M  V30 1959 N 326.138 -2.68068 -3.77503 0
M  V30 1960 H 323.299 -5.40332 -6.79951 0
M  V30 1961 H 323.029 -4.41613 -5.32378 0
M  V30 1962 H 323.896 -3.26331 -7.47797 0
M  V30 1963 P 327.858 -2.75334 -8.47391 0
M  V30 1964 O 328.078 -2.44619 -9.90336 0
M  V30 1965 O 328.648 -3.87776 -7.92294 0
M  V30 1966 O 328.108 -1.4459 -7.59357 0
M  V30 1967 C 327.168 -0.347653 -7.69315 0
M  V30 1968 C 327.898 0.96767 -7.52806 0
M  V30 1969 O 328.108 1.21055 -6.10208 0
M  V30 1970 C 329.298 1.04557 -8.13408 0
M  V30 1971 O 329.688 2.38311 -8.41922 0
M  V30 1972 C 330.178 0.491279 -7.02284 0
M  V30 1973 C 329.468 0.996264 -5.77469 0
M  V30 1974 N 329.518 0.0501916 -4.62973 0
M  V30 1975 H 326.68 -0.374765 -8.67791 0
M  V30 1976 H 326.408 -0.443613 -6.90476 0
M  V30 1977 H 327.276 1.75559 -7.96891 0
M  V30 1978 H 329.931 1.94563 -5.46818 0
M  V30 1979 H 330.211 -0.608651 -7.04676 0
M  V30 1980 H 331.202 0.889796 -7.09039 0
M  V30 1981 H 329.368 0.433128 -9.04664 0
M  V30 1982 P 331.238 2.75334 -8.47391 0
M  V30 1983 O 331.458 3.84128 -9.44797 0
M  V30 1984 O 332.028 1.51947 -8.68712 0
M  V30 1985 O 331.488 3.29363 -6.99321 0
M  V30 1986 C 330.548 4.24011 -6.4274 0
M  V30 1987 C 331.278 5.20775 -5.52155 0
M  V30 1988 O 331.488 4.56534 -4.22446 0
M  V30 1989 C 332.678 5.62629 -5.96531 0
M  V30 1990 O 333.068 6.87667 -5.41053 0
M  V30 1991 C 333.558 4.52537 -5.39283 0
M  V30 1992 C 332.848 4.20027 -4.08623 0
M  V30 1993 N 332.898 2.76189 -3.71603 0
M  V30 1994 H 330.059 4.797 -7.24003 0
M  V30 1995 H 329.789 3.69856 -5.84513 0
M  V30 1996 H 330.656 6.10356 -5.41441 0
M  V30 1997 P 334.618 7.20834 -5.23717 0
M  V30 1998 O 334.838 8.66274 -5.38678 0
M  V30 1999 O 335.408 6.33687 -6.13629 0
M  V30 2000 O 334.868 6.7751 -3.72168 0
M  V30 2001 C 333.928 7.20919 -2.70795 0
M  V30 2002 C 334.658 7.45864 -1.40599 0
M  V30 2003 O 334.868 6.17751 -0.734343 0
M  V30 2004 C 336.058 8.05906 -1.51917 0
M  V30 2005 O 336.448 8.74358 -0.335205 0
M  V30 2006 C 336.938 6.83093 -1.70294 0
M  V30 2007 C 336.228 5.79992 -0.836974 0
M  V30 2008 N 336.278 4.41864 -1.38293 0
M  V30 2009 C 336.198 4.02089 -2.69407 0
M  V30 2010 N 336.268 2.73403 -2.85089 0
M  V30 2011 C 336.418 2.25086 -1.5642 0
M  V30 2012 C 336.548 0.942887 -1.04836 0
M  V30 2013 N 336.558 -0.150999 -1.80369 0
M  V30 2014 N 336.668 0.812565 0.28167 0
M  V30 2015 C 336.658 1.90572 1.03784 0
M  V30 2016 N 336.538 3.167 0.683905 0
M  V30 2017 C 336.418 3.26538 -0.652815 0
M  V30 2018 H 333.44 8.13738 -3.03804 0
M  V30 2019 H 333.168 6.42974 -2.55559 0
M  V30 2020 H 334.036 8.12139 -0.792866 0
M  V30 2021 H 336.691 5.80178 0.160643 0
M  V30 2022 H 336.971 6.51379 -2.75643 0
M  V30 2023 H 337.962 7.01832 -1.3448 0
M  V30 2024 H 336.128 8.73771 -2.38364 0
M  V30 2025 H 336.087 4.7189 -3.52311 0
M  V30 2026 H 336.468 -0.0721434 -2.82608 0
M  V30 2027 H 336.657 -1.0785 -1.36544 0
M  V30 2028 H 336.765 1.73207 2.10241 0
M  V30 2029 P 337.998 8.91 1.4976e-12 0
M  V30 2030 O 338.218 10.1746 0.733838 0
M  V30 2031 O 338.788 8.73346 -1.23964 0
M  V30 2032 O 338.248 7.66872 0.971405 0
M  V30 2033 C 337.308 7.42405 2.04668 0
M  V30 2034 C 338.038 6.86059 3.24661 0
M  V30 2035 O 338.248 5.42934 3.03695 0
M  V30 2036 C 339.438 7.41287 3.50796 0
M  V30 2037 O 339.828 7.27073 4.86816 0
M  V30 2038 C 340.318 6.5273 2.63741 0
M  V30 2039 C 339.608 5.1842 2.73198 0
M  V30 2040 N 339.658 4.38762 1.4784 0
M  V30 2041 C 339.578 4.83651 0.183876 0
M  V30 2042 N 339.648 3.88759 -0.699393 0
M  V30 2043 C 339.798 2.7404 0.0575568 0
M  V30 2044 C 339.928 1.37902 -0.293928 0
M  V30 2045 N 339.938 0.938021 -1.54797 0
M  V30 2046 N 340.048 0.491817 0.70549 0
M  V30 2047 C 340.038 0.931735 1.95979 0
M  V30 2048 N 339.918 2.16017 2.41481 0
M  V30 2049 C 339.798 3.02547 1.39121 0
M  V30 2050 H 336.82 8.36899 2.3252 0
M  V30 2051 H 336.548 6.70391 1.71179 0
M  V30 2052 H 337.416 7.03638 4.13219 0
M  V30 2053 H 340.071 4.59931 3.54016 0
M  V30 2054 H 340.351 6.88995 1.59871 0
M  V30 2055 H 341.342 6.4684 3.0373 0
M  V30 2056 H 339.508 8.47002 3.20749 0
M  V30 2057 H 339.467 5.8885 -0.0765548 0
M  V30 2058 H 339.848 1.60276 -2.32875 0
M  V30 2059 H 340.037 -0.0699355 -1.73859 0
M  V30 2060 H 340.145 0.165507 2.71897 0
M  V30 2061 P 341.378 7.20834 5.23717 0
M  V30 2062 O 341.598 7.79853 6.57286 0
M  V30 2063 O 342.168 7.79239 4.12957 0
M  V30 2064 O 341.628 5.63315 5.29344 0
M  V30 2065 C 340.688 4.80255 6.01876 0
M  V30 2066 C 341.418 3.64202 6.65911 0
M  V30 2067 O 341.628 2.60694 5.64732 0
M  V30 2068 C 342.818 3.93473 7.1943 0
M  V30 2069 O 343.208 3.02071 8.21205 0
M  V30 2070 C 343.698 3.73047 5.97036 0
M  V30 2071 C 342.988 2.58828 5.25741 0
M  V30 2072 N 343.038 2.68068 3.77503 0
M  V30 2073 H 340.199 5.40332 6.79951 0
M  V30 2074 H 339.929 4.41613 5.32378 0
M  V30 2075 H 340.796 3.26331 7.47797 0
M  V30 2076 P 344.758 2.75334 8.47391 0
M  V30 2077 O 344.978 2.44571 9.90142 0
M  V30 2078 O 345.548 3.87688 7.92115 0
M  V30 2079 O 345.008 1.4459 7.59357 0
M  V30 2080 C 344.068 0.347608 7.69215 0
M  V30 2081 C 344.798 -0.96767 7.52806 0
M  V30 2082 O 345.008 -1.21036 6.1011 0
M  V30 2083 C 346.198 -1.04544 8.13308 0
M  V30 2084 O 346.588 -2.38311 8.41922 0
M  V30 2085 C 347.078 -0.491279 7.02284 0
M  V30 2086 C 346.368 -0.996264 5.77469 0
M  V30 2087 N 346.418 -0.0501916 4.62973 0
M  V30 2088 H 343.579 0.374722 8.67691 0
M  V30 2089 H 343.309 0.443485 6.90277 0
M  V30 2090 H 344.176 -1.75537 7.96793 0
M  V30 2091 P 348.138 -2.75334 8.47391 0
M  V30 2092 O 348.358 -3.84128 9.44797 0
M  V30 2093 O 348.928 -1.51947 8.68712 0
M  V30 2094 O 348.388 -3.29363 6.99321 0
M  V30 2095 C 347.448 -4.24011 6.4274 0
M  V30 2096 C 348.178 -5.20775 5.52155 0
M  V30 2097 O 348.388 -4.56534 4.22446 0
M  V30 2098 C 349.578 -5.62629 5.96531 0
M  V30 2099 O 349.968 -6.87667 5.41053 0
M  V30 2100 C 350.458 -4.52537 5.39283 0
M  V30 2101 C 349.748 -4.20027 4.08623 0
M  V30 2102 N 349.798 -2.76189 3.71603 0
M  V30 2103 H 346.959 -4.797 7.24003 0
M  V30 2104 H 346.689 -3.69856 5.84513 0
M  V30 2105 H 347.556 -6.10356 5.41441 0
M  V30 2106 P 351.518 -7.20834 5.23717 0
M  V30 2107 O 351.738 -8.66104 5.38572 0
M  V30 2108 O 352.308 -6.33544 6.1349 0
M  V30 2109 O 351.768 -6.7751 3.72168 0
M  V30 2110 C 350.828 -7.20825 2.7076 0
M  V30 2111 C 351.558 -7.45864 1.40599 0
M  V30 2112 O 351.768 -6.17651 0.734225 0
M  V30 2113 C 352.958 -8.05808 1.51899 0
M  V30 2114 O 353.348 -8.74358 0.335205 0
M  V30 2115 C 353.838 -6.83093 1.70294 0
M  V30 2116 C 353.128 -5.79992 0.836974 0
M  V30 2117 N 353.178 -4.41864 1.38293 0
M  V30 2118 C 353.098 -3.99538 2.69438 0
M  V30 2119 N 353.178 -2.69909 2.84277 0
M  V30 2120 C 353.318 -2.21719 1.5408 0
M  V30 2121 C 353.448 -0.891712 1.06628 0
M  V30 2122 O 353.468 0.161298 1.70137 0
M  V30 2123 N 353.568 -0.856846 -0.334985 0
M  V30 2124 C 353.568 -1.9641 -1.15789 0
M  V30 2125 N 353.698 -1.72708 -2.46522 0
M  V30 2126 N 353.438 -3.21165 -0.713741 0
M  V30 2127 C 353.318 -3.26797 0.639748 0
M  V30 2128 H 350.339 -8.13644 3.0377 0
M  V30 2129 H 350.069 -6.42788 2.55485 0
M  V30 2130 H 350.936 -8.12039 0.792769 0
M  V30 2131 H 353.591 -5.80061 -0.166416 0
M  V30 2132 H 353.87 -6.51287 2.75604 0
M  V30 2133 H 354.862 -7.01734 1.34462 0
M  V30 2134 H 353.028 -8.73674 2.38337 0
M  V30 2135 H 352.979 -4.68207 3.53221 0
M  V30 2136 H 353.661 0.0398818 -0.767965 0
M  V30 2137 H 353.698 -2.50995 -3.13503 0
M  V30 2138 H 353.799 -0.759148 -2.80716 0
M  V30 2139 P 354.898 -8.91 -1.65478e-12 0
M  V30 2140 O 355.118 -10.1726 -0.733694 0
M  V30 2141 O 355.688 -8.73148 1.23936 0
M  V30 2142 O 355.148 -7.66872 -0.971405 0
M  V30 2143 C 354.208 -7.42309 -2.04641 0
M  V30 2144 C 354.938 -6.86059 -3.24661 0
M  V30 2145 O 355.148 -5.42847 -3.03646 0
M  V30 2146 C 356.338 -7.41196 -3.50753 0
M  V30 2147 O 356.728 -7.27073 -4.86816 0
M  V30 2148 C 357.218 -6.5273 -2.63741 0
M  V30 2149 C 356.508 -5.1842 -2.73198 0
M  V30 2150 N 356.558 -4.38762 -1.4784 0
M  V30 2151 H 353.719 -8.36803 -2.32493 0
M  V30 2152 H 353.449 -6.70197 -1.71129 0
M  V30 2153 H 354.316 -7.03551 -4.13168 0
M  V30 2154 P 358.278 -7.20834 -5.23717 0
M  V30 2155 O 358.498 -7.80006 -6.57415 0
M  V30 2156 O 359.068 -7.79416 -4.13051 0
M  V30 2157 O 358.528 -5.63315 -5.29344 0
M  V30 2158 C 357.588 -4.80318 -6.01954 0
M  V30 2159 C 358.318 -3.64202 -6.65911 0
M  V30 2160 O 358.528 -2.60736 -5.64823 0
M  V30 2161 C 359.718 -3.93521 -7.19518 0
M  V30 2162 O 360.108 -3.02071 -8.21205 0
M  V30 2163 C 360.598 -3.73047 -5.97036 0
M  V30 2164 C 359.888 -2.58828 -5.25741 0
M  V30 2165 N 359.938 -2.68068 -3.77503 0
M  V30 2166 H 357.1 -5.40394 -6.8003 0
M  V30 2167 H 356.828 -4.41741 -5.32532 0
M  V30 2168 H 357.696 -3.26371 -7.47889 0
M  V30 2169 H 360.351 -1.64007 -5.56746 0
M  V30 2170 H 360.631 -4.63439 -5.3432 0
M  V30 2171 H 361.622 -3.44776 -6.25925 0
M  V30 2172 H 359.788 -4.96707 -7.57347 0
M  V30 2173 P 361.658 -2.75334 -8.47391 0
M  V30 2174 O 361.878 -2.44571 -9.90142 0
M  V30 2175 O 362.448 -3.87688 -7.92115 0
M  V30 2176 O 361.908 -1.4459 -7.59357 0
M  V30 2177 C 360.968 -0.347608 -7.69215 0
M  V30 2178 C 361.698 0.96767 -7.52806 0
M  V30 2179 O 361.908 1.21036 -6.1011 0
M  V30 2180 C 363.098 1.04544 -8.13308 0
M  V30 2181 O 363.488 2.38311 -8.41922 0
M  V30 2182 C 363.978 0.491279 -7.02284 0
M  V30 2183 C 363.268 0.996264 -5.77469 0
M  V30 2184 N 363.318 0.0501916 -4.62973 0
M  V30 2185 H 360.479 -0.374722 -8.67691 0
M  V30 2186 H 360.209 -0.443485 -6.90277 0
M  V30 2187 H 361.076 1.75537 -7.96793 0
M  V30 2188 P 365.038 2.75334 -8.47391 0
M  V30 2189 O 365.258 3.84166 -9.4489 0
M  V30 2190 O 365.828 1.51964 -8.6881 0
M  V30 2191 O 365.288 3.29363 -6.99321 0
M  V30 2192 C 364.348 4.23956 -6.42656 0
M  V30 2193 C 365.078 5.20775 -5.52155 0
M  V30 2194 O 365.288 4.56534 -4.22446 0
M  V30 2195 C 366.478 5.62629 -5.96531 0
M  V30 2196 O 366.868 6.87667 -5.41053 0
M  V30 2197 C 367.358 4.52537 -5.39283 0
M  V30 2198 C 366.648 4.20027 -4.08623 0
M  V30 2199 N 366.698 2.7613 -3.71522 0
M  V30 2200 C 366.848 2.45612 -2.37989 0
M  V30 2201 O 366.938 3.30919 -1.51621 0
M  V30 2202 N 366.888 1.10684 -2.08435 0
M  V30 2203 C 366.798 0.0690084 -2.9792 0
M  V30 2204 C 366.648 0.481522 -4.35345 0
M  V30 2205 C 366.598 1.78906 -4.67968 0
M  V30 2206 H 363.858 4.797 -7.24003 0
M  V30 2207 H 363.589 3.69802 -5.84429 0
M  V30 2208 H 364.456 6.10356 -5.41441 0
M  V30 2209 H 367.111 4.78651 -3.27911 0
M  V30 2210 H 367.39 3.64957 -6.05871 0
M  V30 2211 H 368.382 4.8868 -5.2125 0
M  V30 2212 H 366.548 5.66726 -7.06352 0
M  V30 2213 H 366.477 2.07737 -5.72367 0
M  V30 2214 P 368.418 7.20834 -5.23717 0
M  V30 2215 O 368.638 8.66104 -5.38572 0
M  V30 2216 O 369.208 6.33544 -6.1349 0
M  V30 2217 O 368.668 6.7751 -3.72168 0
M  V30 2218 C 367.728 7.20825 -2.7076 0
M  V30 2219 C 368.458 7.45864 -1.40599 0
M  V30 2220 O 368.668 6.17651 -0.734225 0
M  V30 2221 C 369.858 8.05808 -1.51899 0
M  V30 2222 O 370.248 8.74358 -0.335205 0
M  V30 2223 C 370.738 6.83093 -1.70294 0
M  V30 2224 C 370.028 5.79992 -0.836974 0
M  V30 2225 N 370.078 4.41864 -1.38293 0
M  V30 2226 H 367.239 8.13644 -3.0377 0
M  V30 2227 H 366.969 6.42788 -2.55485 0
M  V30 2228 H 367.836 8.12039 -0.792769 0
M  V30 2229 P 371.798 8.91 1.81197e-12 0
M  V30 2230 O 372.018 10.1726 0.733694 0
M  V30 2231 O 372.588 8.73148 -1.23936 0
M  V30 2232 O 372.048 7.66872 0.971405 0
M  V30 2233 C 371.108 7.42309 2.04641 0
M  V30 2234 C 371.838 6.86059 3.24661 0
M  V30 2235 O 372.048 5.42847 3.03646 0
M  V30 2236 C 373.238 7.41196 3.50753 0
M  V30 2237 O 373.628 7.27073 4.86816 0
M  V30 2238 C 374.118 6.5273 2.63741 0
M  V30 2239 C 373.408 5.1842 2.73198 0
M  V30 2240 N 373.458 4.38762 1.4784 0
M  V30 2241 H 370.619 8.36803 2.32493 0
M  V30 2242 H 370.349 6.70197 1.71129 0
M  V30 2243 H 371.216 7.03551 4.13168 0
M  V30 2244 P 375.178 7.20834 5.23717 0
M  V30 2245 O 375.398 7.79853 6.57286 0
M  V30 2246 O 375.968 7.79239 4.12957 0
M  V30 2247 O 375.428 5.63315 5.29344 0
M  V30 2248 C 374.488 4.80255 6.01876 0
M  V30 2249 C 375.218 3.64202 6.65911 0
M  V30 2250 O 375.428 2.60694 5.64732 0
M  V30 2251 C 376.618 3.93473 7.1943 0
M  V30 2252 O 377.008 3.02071 8.21205 0
M  V30 2253 C 377.498 3.73047 5.97036 0
M  V30 2254 C 376.788 2.58828 5.25741 0
M  V30 2255 N 376.838 2.68068 3.77503 0
M  V30 2256 H 373.999 5.40332 6.79951 0
M  V30 2257 H 373.729 4.41613 5.32378 0
M  V30 2258 H 374.596 3.26331 7.47797 0
M  V30 2259 P 378.558 2.75334 8.47391 0
M  V30 2260 O 378.778 2.44571 9.90142 0
M  V30 2261 O 379.348 3.87688 7.92115 0
M  V30 2262 O 378.808 1.4459 7.59357 0
M  V30 2263 C 377.868 0.347608 7.69215 0
M  V30 2264 C 378.598 -0.96767 7.52806 0
M  V30 2265 O 378.808 -1.21036 6.1011 0
M  V30 2266 C 379.998 -1.04544 8.13308 0
M  V30 2267 O 380.388 -2.38311 8.41922 0
M  V30 2268 C 380.878 -0.491279 7.02284 0
M  V30 2269 C 380.168 -0.996264 5.77469 0
M  V30 2270 N 380.218 -0.0501916 4.62973 0
M  V30 2271 H 377.379 0.374722 8.67691 0
M  V30 2272 H 377.109 0.443485 6.90277 0
M  V30 2273 H 377.976 -1.75537 7.96793 0
M  V30 2274 P 381.938 -2.75334 8.47391 0
M  V30 2275 O 382.158 -3.84128 9.44797 0
M  V30 2276 O 382.728 -1.51947 8.68712 0
M  V30 2277 O 382.188 -3.29363 6.99321 0
M  V30 2278 C 381.248 -4.24011 6.4274 0
M  V30 2279 C 381.978 -5.20775 5.52155 0
M  V30 2280 O 382.188 -4.56534 4.22446 0
M  V30 2281 C 383.378 -5.62629 5.96531 0
M  V30 2282 O 383.768 -6.87667 5.41053 0
M  V30 2283 C 384.258 -4.52537 5.39283 0
M  V30 2284 C 383.548 -4.20027 4.08623 0
M  V30 2285 N 383.598 -2.76189 3.71603 0
M  V30 2286 H 380.759 -4.797 7.24003 0
M  V30 2287 H 380.489 -3.69856 5.84513 0
M  V30 2288 H 381.356 -6.10356 5.41441 0
M  V30 2289 P 385.318 -7.20834 5.23717 0
M  V30 2290 O 385.538 -8.66104 5.38572 0
M  V30 2291 O 386.108 -6.33544 6.1349 0
M  V30 2292 O 385.568 -6.7751 3.72168 0
M  V30 2293 C 384.628 -7.20825 2.7076 0
M  V30 2294 C 385.358 -7.45864 1.40599 0
M  V30 2295 O 385.568 -6.17651 0.734225 0
M  V30 2296 C 386.758 -8.05808 1.51899 0
M  V30 2297 O 387.148 -8.74358 0.335205 0
M  V30 2298 C 387.638 -6.83093 1.70294 0
M  V30 2299 C 386.928 -5.79992 0.836974 0
M  V30 2300 N 386.978 -4.41864 1.38293 0
M  V30 2301 H 384.139 -8.13644 3.0377 0
M  V30 2302 H 383.869 -6.42788 2.55485 0
M  V30 2303 H 384.736 -8.12039 0.792769 0
M  V30 2304 P 388.698 -8.91 -1.96915e-12 0
M  V30 2305 O 388.918 -10.1726 -0.733694 0
M  V30 2306 O 389.488 -8.73148 1.23936 0
M  V30 2307 O 388.948 -7.66872 -0.971405 0
M  V30 2308 C 388.008 -7.42309 -2.04641 0
M  V30 2309 C 388.738 -6.86059 -3.24661 0
M  V30 2310 O 388.948 -5.42847 -3.03646 0
M  V30 2311 C 390.138 -7.41196 -3.50753 0
M  V30 2312 O 390.528 -7.27073 -4.86816 0
M  V30 2313 C 391.018 -6.5273 -2.63741 0
M  V30 2314 C 390.308 -5.1842 -2.73198 0
M  V30 2315 N 390.358 -4.38762 -1.4784 0
M  V30 2316 C 390.278 -4.81605 -0.168631 0
M  V30 2317 N 390.358 -3.85454 0.713363 0
M  V30 2318 C 390.498 -2.6994 -0.0566958 0
M  V30 2319 C 390.628 -1.34815 0.338502 0
M  V30 2320 N 390.748 -0.496304 -0.77465 0
M  V30 2321 C 390.748 -0.908403 -2.09122 0
M  V30 2322 N 390.878 0.0517805 -3.00955 0
M  V30 2323 N 390.618 -2.17875 -2.46519 0
M  V30 2324 C 390.498 -3.01988 -1.4033 0
M  V30 2325 H 387.519 -8.36803 -2.32493 0
M  V30 2326 H 387.249 -6.70197 -1.71129 0
M  V30 2327 H 388.116 -7.03551 -4.13168 0
M  V30 2328 P 392.078 -7.20834 -5.23717 0
M  V30 2329 O 392.298 -7.79853 -6.57286 0
M  V30 2330 O 392.868 -7.79239 -4.12957 0
M  V30 2331 O 392.328 -5.63315 -5.29344 0
M  V30 2332 C 391.388 -4.80255 -6.01876 0
M  V30 2333 C 392.118 -3.64202 -6.65911 0
M  V30 2334 O 392.328 -2.60694 -5.64732 0
M  V30 2335 C 393.518 -3.93473 -7.1943 0
M  V30 2336 O 393.908 -3.02071 -8.21205 0
M  V30 2337 C 394.398 -3.73047 -5.97036 0
M  V30 2338 C 393.688 -2.58828 -5.25741 0
M  V30 2339 N 393.738 -2.68068 -3.77503 0
M  V30 2340 H 390.899 -5.40332 -6.79951 0
M  V30 2341 H 390.629 -4.41613 -5.32378 0
M  V30 2342 H 391.496 -3.26331 -7.47797 0
M  V30 2343 P 395.458 -2.75334 -8.47391 0
M  V30 2344 O 395.678 -2.44571 -9.90142 0
M  V30 2345 O 396.248 -3.87688 -7.92115 0
M  V30 2346 O 395.708 -1.4459 -7.59357 0
M  V30 2347 C 394.768 -0.347608 -7.69215 0
M  V30 2348 C 395.498 0.96767 -7.52806 0
M  V30 2349 O 395.708 1.21036 -6.1011 0
M  V30 2350 C 396.898 1.04544 -8.13308 0
M  V30 2351 O 397.288 2.38311 -8.41922 0
M  V30 2352 C 397.778 0.491279 -7.02284 0
M  V30 2353 C 397.068 0.996264 -5.77469 0
M  V30 2354 N 397.118 0.0501916 -4.62973 0
M  V30 2355 H 394.279 -0.374722 -8.67691 0
M  V30 2356 H 394.009 -0.443485 -6.90277 0
M  V30 2357 H 394.876 1.75537 -7.96793 0
M  V30 2358 P 398.838 2.75334 -8.47391 0
M  V30 2359 O 399.058 3.84128 -9.44797 0
M  V30 2360 O 399.628 1.51947 -8.68712 0
M  V30 2361 O 399.088 3.29363 -6.99321 0
M  V30 2362 C 398.148 4.24011 -6.4274 0
M  V30 2363 C 398.878 5.20775 -5.52155 0
M  V30 2364 O 399.088 4.56534 -4.22446 0
M  V30 2365 C 400.278 5.62629 -5.96531 0
M  V30 2366 O 400.668 6.87667 -5.41053 0
M  V30 2367 C 401.158 4.52537 -5.39283 0
M  V30 2368 C 400.448 4.20027 -4.08623 0
M  V30 2369 N 400.498 2.76189 -3.71603 0
M  V30 2370 H 397.659 4.797 -7.24003 0
M  V30 2371 H 397.389 3.69856 -5.84513 0
M  V30 2372 H 398.256 6.10356 -5.41441 0
M  V30 2373 P 402.218 7.20834 -5.23717 0
M  V30 2374 O 402.438 8.66104 -5.38572 0
M  V30 2375 O 403.008 6.33544 -6.1349 0
M  V30 2376 O 402.468 6.7751 -3.72168 0
M  V30 2377 C 401.528 7.20825 -2.7076 0
M  V30 2378 C 402.258 7.45864 -1.40599 0
M  V30 2379 O 402.468 6.17651 -0.734225 0
M  V30 2380 C 403.658 8.05808 -1.51899 0
M  V30 2381 O 404.048 8.74358 -0.335205 0
M  V30 2382 C 404.538 6.83093 -1.70294 0
M  V30 2383 C 403.828 5.79992 -0.836974 0
M  V30 2384 N 403.878 4.41864 -1.38293 0
M  V30 2385 H 401.039 8.13644 -3.0377 0
M  V30 2386 H 400.769 6.42788 -2.55485 0
M  V30 2387 H 401.636 8.12039 -0.792769 0
M  V30 2388 P 405.598 8.91 2.12633e-12 0
M  V30 2389 O 405.818 10.1736 0.733766 0
M  V30 2390 O 406.388 8.73247 -1.2395 0
M  V30 2391 O 405.848 7.66872 0.971405 0
M  V30 2392 C 404.908 7.42212 2.04614 0
M  V30 2393 C 405.638 6.86059 3.24661 0
M  V30 2394 O 405.848 5.42847 3.03646 0
M  V30 2395 C 407.038 7.41196 3.50753 0
M  V30 2396 O 407.428 7.27073 4.86816 0
M  V30 2397 C 407.918 6.5273 2.63741 0
M  V30 2398 C 407.208 5.1842 2.73198 0
M  V30 2399 N 407.258 4.38668 1.47808 0
M  V30 2400 C 407.408 3.02239 1.60048 0
M  V30 2401 O 407.498 2.46459 2.67869 0
M  V30 2402 N 407.448 2.32436 0.408571 0
M  V30 2403 C 407.358 2.85471 -0.854993 0
M  V30 2404 O 407.408 2.12566 -1.8531 0
M  V30 2405 C 407.208 4.28918 -0.887335 0
M  V30 2406 C 407.098 4.91066 -2.24619 0
M  V30 2407 C 407.158 5.00349 0.255399 0
M  V30 2408 H 404.418 8.36803 2.32493 0
M  V30 2409 H 404.149 6.701 1.71105 0
M  V30 2410 H 405.016 7.03551 4.13168 0
M  V30 2411 H 407.671 4.59773 3.53894 0
M  V30 2412 H 407.95 6.88995 1.59871 0
M  V30 2413 H 408.942 6.46749 3.03687 0
M  V30 2414 H 407.108 8.46908 3.20714 0
M  V30 2415 H 407.037 6.08548 0.206986 0
M  V30 2416 H 408.067 5.34836 -2.53099 0
M  V30 2417 H 406.33 5.69638 -2.2291 0
M  V30 2418 H 406.818 4.13971 -2.98044 0
M  V30 2419 H 407.554 1.33211 0.474216 0
M  V30 2420 P 408.978 7.20834 5.23717 0
M  V30 2421 O 409.198 7.79853 6.57286 0
M  V30 2422 O 409.768 7.79239 4.12957 0
M  V30 2423 O 409.228 5.63315 5.29344 0
M  V30 2424 C 408.288 4.80255 6.01876 0
M  V30 2425 C 409.018 3.64202 6.65911 0
M  V30 2426 O 409.228 2.60694 5.64732 0
M  V30 2427 C 410.418 3.93473 7.1943 0
M  V30 2428 O 410.808 3.02071 8.21205 0
M  V30 2429 C 411.298 3.73047 5.97036 0
M  V30 2430 C 410.588 2.58828 5.25741 0
M  V30 2431 N 410.638 2.68068 3.77503 0
M  V30 2432 H 407.799 5.40332 6.79951 0
M  V30 2433 H 407.529 4.41613 5.32378 0
M  V30 2434 H 408.396 3.26331 7.47797 0
M  V30 2435 P 412.358 2.75334 8.47391 0
M  V30 2436 O 412.578 2.44595 9.90239 0
M  V30 2437 O 413.148 3.87732 7.92204 0
M  V30 2438 O 412.608 1.4459 7.59357 0
M  V30 2439 C 411.668 0.347563 7.69115 0
M  V30 2440 C 412.398 -0.96767 7.52806 0
M  V30 2441 O 412.608 -1.21036 6.1011 0
M  V30 2442 C 413.798 -1.04544 8.13308 0
M  V30 2443 O 414.188 -2.38311 8.41922 0
M  V30 2444 C 414.678 -0.491279 7.02284 0
M  V30 2445 C 413.968 -0.996264 5.77469 0
M  V30 2446 N 414.018 -0.0501808 4.62873 0
M  V30 2447 C 414.168 -0.588177 3.36904 0
M  V30 2448 O 414.258 -1.78598 3.17173 0
M  V30 2449 N 414.208 0.329694 2.33686 0
M  V30 2450 C 414.118 1.6953 2.45079 0
M  V30 2451 O 414.168 2.41926 1.44899 0
M  V30 2452 C 413.968 2.16933 3.80505 0
M  V30 2453 C 413.858 3.65373 3.97621 0
M  V30 2454 C 413.918 1.30326 4.83752 0
M  V30 2455 H 411.178 0.374722 8.67691 0
M  V30 2456 H 410.909 0.443421 6.90177 0
M  V30 2457 H 411.776 -1.75537 7.96793 0
M  V30 2458 H 414.431 -1.94496 5.46629 0
M  V30 2459 H 414.71 0.608651 7.04676 0
M  V30 2460 H 415.702 -0.889672 7.08939 0
M  V30 2461 H 413.868 -0.43308 9.04564 0
M  V30 2462 H 413.797 1.68366 5.8516 0
M  V30 2463 H 414.827 4.05985 4.30448 0
M  V30 2464 H 413.09 3.88028 4.72875 0
M  V30 2465 H 413.578 4.11381 3.01609 0
M  V30 2466 H 414.314 -0.0393617 1.41345 0
M  V30 2467 P 415.738 -2.75334 8.47391 0
M  V30 2468 O 415.958 -3.84128 9.44797 0
M  V30 2469 O 416.528 -1.51947 8.68712 0
M  V30 2470 O 415.988 -3.29363 6.99321 0
M  V30 2471 C 415.048 -4.24011 6.4274 0
M  V30 2472 C 415.778 -5.20775 5.52155 0
M  V30 2473 O 415.988 -4.56534 4.22446 0
M  V30 2474 C 417.178 -5.62629 5.96531 0
M  V30 2475 O 417.568 -6.87667 5.41053 0
M  V30 2476 C 418.058 -4.52537 5.39283 0
M  V30 2477 C 417.348 -4.20027 4.08623 0
M  V30 2478 N 417.398 -2.76189 3.71603 0
M  V30 2479 H 414.559 -4.797 7.24003 0
M  V30 2480 H 414.289 -3.69856 5.84513 0
M  V30 2481 H 415.156 -6.10356 5.41441 0
M  V30 2482 P 419.118 -7.20834 5.23717 0
M  V30 2483 O 419.338 -8.66189 5.38625 0
M  V30 2484 O 419.908 -6.33615 6.1356 0
M  V30 2485 O 419.368 -6.7751 3.72168 0
M  V30 2486 C 418.428 -7.20825 2.7076 0
M  V30 2487 C 419.158 -7.45864 1.40599 0
M  V30 2488 O 419.368 -6.17651 0.734225 0
M  V30 2489 C 420.558 -8.05808 1.51899 0
M  V30 2490 O 420.948 -8.74358 0.335205 0
M  V30 2491 C 421.438 -6.83093 1.70294 0
M  V30 2492 C 420.728 -5.79992 0.836974 0
M  V30 2493 N 420.778 -4.41769 1.38263 0
M  V30 2494 C 420.928 -3.36514 0.485617 0
M  V30 2495 O 421.018 -3.61814 -0.724703 0
M  V30 2496 N 420.978 -2.00746 1.14492 0
M  V30 2497 C 420.878 -1.85887 2.27776 0
M  V30 2498 N 420.928 -0.600907 2.69379 0
M  V30 2499 C 420.728 -2.92182 3.22265 0
M  V30 2500 C 420.678 -4.18399 2.71925 0
M  V30 2501 H 417.938 -8.1355 3.03735 0
M  V30 2502 H 417.669 -6.42695 2.55448 0
M  V30 2503 H 418.536 -8.12139 0.792866 0
M  V30 2504 H 421.191 -5.80078 -0.160615 0
M  V30 2505 H 421.47 -6.51379 2.75643 0
M  V30 2506 H 422.462 -7.01734 1.34462 0
M  V30 2507 H 420.628 -8.73674 2.38337 0
M  V30 2508 H 420.556 -5.02669 3.39718 0
M  V30 2509 H 420.658 -2.73001 4.29239 0
M  V30 2510 H 421.046 0.162318 2.01146 0
M  V30 2511 H 420.849 -0.387742 3.69773 0
M  V30 2512 P 422.497 -8.91 -2.28351e-12 0
M  V30 2513 O 422.717 -10.1726 -0.733694 0
M  V30 2514 O 423.287 -8.73148 1.23936 0
M  V30 2515 O 422.747 -7.66872 -0.971405 0
M  V30 2516 C 421.807 -7.42309 -2.04641 0
M  V30 2517 C 422.537 -6.86059 -3.24661 0
M  V30 2518 O 422.747 -5.42847 -3.03646 0
M  V30 2519 C 423.937 -7.41196 -3.50753 0
M  V30 2520 O 424.327 -7.27073 -4.86816 0
M  V30 2521 C 424.817 -6.5273 -2.63741 0
M  V30 2522 C 424.107 -5.1842 -2.73198 0
M  V30 2523 N 424.157 -4.38762 -1.4784 0
M  V30 2524 H 421.318 -8.36803 -2.32493 0
M  V30 2525 H 421.048 -6.70197 -1.71129 0
M  V30 2526 H 421.915 -7.03551 -4.13168 0
M  V30 2527 P 425.877 -7.20834 -5.23717 0
M  V30 2528 O 426.097 -7.79853 -6.57286 0
M  V30 2529 O 426.667 -7.79239 -4.12957 0
M  V30 2530 O 426.127 -5.63315 -5.29344 0
M  V30 2531 C 425.187 -4.80255 -6.01876 0
M  V30 2532 C 425.917 -3.64202 -6.65911 0
M  V30 2533 O 426.127 -2.60694 -5.64732 0
M  V30 2534 C 427.317 -3.93473 -7.1943 0
M  V30 2535 O 427.707 -3.02071 -8.21205 0
M  V30 2536 C 428.197 -3.73047 -5.97036 0
M  V30 2537 C 427.487 -2.58828 -5.25741 0
M  V30 2538 N 427.537 -2.68068 -3.77503 0
M  V30 2539 H 424.698 -5.40332 -6.79951 0
M  V30 2540 H 424.428 -4.41613 -5.32378 0
M  V30 2541 H 425.295 -3.26331 -7.47797 0
M  V30 2542 P 429.257 -2.75334 -8.47391 0
M  V30 2543 O 429.477 -2.44595 -9.90239 0
M  V30 2544 O 430.047 -3.87732 -7.92204 0
M  V30 2545 O 429.507 -1.4459 -7.59357 0
M  V30 2546 C 428.567 -0.347563 -7.69115 0
M  V30 2547 C 429.297 0.96767 -7.52806 0
M  V30 2548 O 429.507 1.21036 -6.1011 0
M  V30 2549 C 430.697 1.04544 -8.13308 0
M  V30 2550 O 431.087 2.38311 -8.41922 0
M  V30 2551 C 431.577 0.491279 -7.02284 0
M  V30 2552 C 430.867 0.996264 -5.77469 0
M  V30 2553 N 430.917 0.0501808 -4.62873 0
M  V30 2554 C 431.067 0.588177 -3.36904 0
M  V30 2555 O 431.157 1.78598 -3.17173 0
M  V30 2556 N 431.107 -0.329694 -2.33686 0
M  V30 2557 C 431.017 -1.6953 -2.45079 0
M  V30 2558 O 431.067 -2.41926 -1.44899 0
M  V30 2559 C 430.867 -2.16933 -3.80505 0
M  V30 2560 C 430.757 -3.65373 -3.97621 0
M  V30 2561 C 430.817 -1.30326 -4.83752 0
M  V30 2562 H 428.077 -0.374722 -8.67691 0
M  V30 2563 H 427.808 -0.443421 -6.90177 0
M  V30 2564 H 428.675 1.75537 -7.96793 0
M  V30 2565 H 431.33 1.94496 -5.46629 0
M  V30 2566 H 431.609 -0.608651 -7.04676 0
M  V30 2567 H 432.601 0.889672 -7.08939 0
M  V30 2568 H 430.767 0.43308 -9.04564 0
M  V30 2569 H 430.696 -1.68366 -5.8516 0
M  V30 2570 H 431.726 -4.05985 -4.30448 0
M  V30 2571 H 429.989 -3.88028 -4.72875 0
M  V30 2572 H 430.477 -4.11381 -3.01609 0
M  V30 2573 H 431.213 0.0393617 -1.41345 0
M  V30 2574 P 432.637 2.75334 -8.47391 0
M  V30 2575 O 432.857 3.84128 -9.44797 0
M  V30 2576 O 433.427 1.51947 -8.68712 0
M  V30 2577 O 432.887 3.29363 -6.99321 0
M  V30 2578 C 431.947 4.24011 -6.4274 0
M  V30 2579 C 432.677 5.20775 -5.52155 0
M  V30 2580 O 432.887 4.56534 -4.22446 0
M  V30 2581 C 434.077 5.62629 -5.96531 0
M  V30 2582 O 434.467 6.87667 -5.41053 0
M  V30 2583 C 434.957 4.52537 -5.39283 0
M  V30 2584 C 434.247 4.20027 -4.08623 0
M  V30 2585 N 434.297 2.76189 -3.71603 0
M  V30 2586 H 431.458 4.797 -7.24003 0
M  V30 2587 H 431.188 3.69856 -5.84513 0
M  V30 2588 H 432.055 6.10356 -5.41441 0
M  V30 2589 P 436.017 7.20834 -5.23717 0
M  V30 2590 O 436.237 8.66104 -5.38572 0
M  V30 2591 O 436.807 6.33544 -6.1349 0
M  V30 2592 O 436.267 6.7751 -3.72168 0
M  V30 2593 C 435.327 7.20825 -2.7076 0
M  V30 2594 C 436.057 7.45864 -1.40599 0
M  V30 2595 O 436.267 6.17651 -0.734225 0
M  V30 2596 C 437.457 8.05808 -1.51899 0
M  V30 2597 O 437.847 8.74358 -0.335205 0
M  V30 2598 C 438.337 6.83093 -1.70294 0
M  V30 2599 C 437.627 5.79992 -0.836974 0
M  V30 2600 N 437.677 4.41864 -1.38293 0
M  V30 2601 H 434.838 8.13644 -3.0377 0
M  V30 2602 H 434.568 6.42788 -2.55485 0
M  V30 2603 H 435.435 8.12039 -0.792769 0
M  V30 2604 P 439.397 8.91 2.44069e-12 0
M  V30 2605 O 439.617 10.1726 0.733694 0
M  V30 2606 O 440.187 8.73148 -1.23936 0
M  V30 2607 O 439.647 7.66872 0.971405 0
M  V30 2608 C 438.707 7.42309 2.04641 0
M  V30 2609 C 439.437 6.86059 3.24661 0
M  V30 2610 O 439.647 5.42847 3.03646 0
M  V30 2611 C 440.837 7.41196 3.50753 0
M  V30 2612 O 441.227 7.27073 4.86816 0
M  V30 2613 C 441.717 6.5273 2.63741 0
M  V30 2614 C 441.007 5.1842 2.73198 0
M  V30 2615 N 441.057 4.38762 1.4784 0
M  V30 2616 H 438.218 8.36803 2.32493 0
M  V30 2617 H 437.948 6.70197 1.71129 0
M  V30 2618 H 438.815 7.03551 4.13168 0
M  V30 2619 P 442.777 7.20834 5.23717 0
M  V30 2620 O 442.997 7.80006 6.57415 0
M  V30 2621 O 443.567 7.79416 4.13051 0
M  V30 2622 O 443.027 5.63315 5.29344 0
M  V30 2623 C 442.087 4.80318 6.01954 0
M  V30 2624 C 442.817 3.64202 6.65911 0
M  V30 2625 O 443.027 2.60736 5.64823 0
M  V30 2626 C 444.217 3.93521 7.19518 0
M  V30 2627 O 444.607 3.02071 8.21205 0
M  V30 2628 C 445.097 3.73047 5.97036 0
M  V30 2629 C 444.387 2.58828 5.25741 0
M  V30 2630 N 444.437 2.68068 3.77503 0
M  V30 2631 C 444.357 3.80474 2.99159 0
M  V30 2632 N 444.427 3.55622 1.71925 0
M  V30 2633 C 444.577 2.1832 1.65733 0
M  V30 2634 C 444.707 1.28842 0.572777 0
M  V30 2635 N 444.717 1.66875 -0.70098 0
M  V30 2636 N 444.827 -0.016788 0.859836 0
M  V30 2637 C 444.817 -0.398145 2.13316 0
M  V30 2638 N 444.697 0.328224 3.22333 0
M  V30 2639 C 444.577 1.62992 2.90383 0
M  V30 2640 H 441.599 5.40394 6.8003 0
M  V30 2641 H 441.327 4.41741 5.32532 0
M  V30 2642 H 442.195 3.26371 7.47889 0
M  V30 2643 H 444.85 1.64007 5.56746 0
M  V30 2644 H 445.13 4.63439 5.3432 0
M  V30 2645 H 446.121 3.44776 6.25925 0
M  V30 2646 H 444.287 4.96707 7.57347 0
M  V30 2647 H 444.246 4.8089 3.39924 0
M  V30 2648 H 444.627 2.66547 -0.941919 0
M  V30 2649 H 444.816 0.965341 -1.44766 0
M  V30 2650 H 444.924 -1.46427 2.29697 0
M  V30 2651 P 446.157 2.75334 8.47391 0
M  V30 2652 O 446.377 2.44571 9.90142 0
M  V30 2653 O 446.947 3.87688 7.92115 0
M  V30 2654 O 446.407 1.4459 7.59357 0
M  V30 2655 C 445.467 0.347608 7.69215 0
M  V30 2656 C 446.197 -0.96767 7.52806 0
M  V30 2657 O 446.407 -1.21036 6.1011 0
M  V30 2658 C 447.597 -1.04544 8.13308 0
M  V30 2659 O 447.987 -2.38311 8.41922 0
M  V30 2660 C 448.477 -0.491279 7.02284 0
M  V30 2661 C 447.767 -0.996264 5.77469 0
M  V30 2662 N 447.817 -0.0501916 4.62973 0
M  V30 2663 H 444.978 0.374722 8.67691 0
M  V30 2664 H 444.708 0.443485 6.90277 0
M  V30 2665 H 445.575 -1.75537 7.96793 0
M  V30 2666 P 449.537 -2.75334 8.47391 0
M  V30 2667 O 449.757 -3.84204 9.44982 0
M  V30 2668 O 450.327 -1.51982 8.68909 0
M  V30 2669 O 449.787 -3.29363 6.99321 0
M  V30 2670 C 448.847 -4.24066 6.42823 0
M  V30 2671 C 449.577 -5.20775 5.52155 0
M  V30 2672 O 449.787 -4.56607 4.22514 0
M  V30 2673 C 450.977 -5.62697 5.96604 0
M  V30 2674 O 451.367 -6.87667 5.41053 0
M  V30 2675 C 451.857 -4.52537 5.39283 0
M  V30 2676 C 451.147 -4.20027 4.08623 0
M  V30 2677 N 451.197 -2.76189 3.71603 0
M  V30 2678 C 451.117 -1.66944 4.54297 0
M  V30 2679 N 451.187 -0.536169 3.91344 0
M  V30 2680 C 451.337 -0.901569 2.58849 0
M  V30 2681 C 451.467 -0.146599 1.40236 0
M  V30 2682 N 451.477 1.18234 1.37046 0
M  V30 2683 N 451.587 -0.822941 0.249738 0
M  V30 2684 C 451.577 -2.15179 0.280525 0
M  V30 2685 N 451.457 -2.96414 1.30822 0
M  V30 2686 C 451.337 -2.25804 2.44748 0
M  V30 2687 H 448.359 -4.79756 7.24086 0
M  V30 2688 H 448.087 -3.69963 5.84682 0
M  V30 2689 H 448.955 -6.10431 5.41508 0
M  V30 2690 H 451.61 -4.78816 3.28024 0
M  V30 2691 H 451.89 -3.64957 6.05871 0
M  V30 2692 H 452.881 -4.88748 5.21323 0
M  V30 2693 H 451.047 -5.66789 7.0643 0
M  V30 2694 H 451.006 -1.74684 5.62396 0
M  V30 2695 H 451.387 1.71949 2.24394 0
M  V30 2696 H 451.576 1.67511 0.470742 0
M  V30 2697 H 451.684 -2.63704 -0.6828 0
M  V30 2698 P 452.917 -7.20834 5.23717 0
M  V30 2699 O 453.137 -8.66104 5.38572 0
M  V30 2700 O 453.707 -6.33544 6.1349 0
M  V30 2701 O 453.167 -6.7751 3.72168 0
M  V30 2702 C 452.227 -7.20825 2.7076 0
M  V30 2703 C 452.957 -7.45864 1.40599 0
M  V30 2704 O 453.167 -6.17651 0.734225 0
M  V30 2705 C 454.357 -8.05808 1.51899 0
M  V30 2706 O 454.747 -8.74358 0.335205 0
M  V30 2707 C 455.237 -6.83093 1.70294 0
M  V30 2708 C 454.527 -5.79992 0.836974 0
M  V30 2709 N 454.577 -4.41864 1.38293 0
M  V30 2710 C 454.497 -3.99538 2.69438 0
M  V30 2711 N 454.577 -2.69909 2.84277 0
M  V30 2712 C 454.717 -2.21719 1.5408 0
M  V30 2713 C 454.847 -0.891712 1.06628 0
M  V30 2714 N 454.967 -0.856846 -0.334985 0
M  V30 2715 C 454.967 -1.9641 -1.15789 0
M  V30 2716 N 455.097 -1.72708 -2.46522 0
M  V30 2717 N 454.837 -3.21165 -0.713741 0
M  V30 2718 C 454.717 -3.26797 0.639748 0
M  V30 2719 H 451.738 -8.13644 3.0377 0
M  V30 2720 H 451.468 -6.42788 2.55485 0
M  V30 2721 H 452.335 -8.12039 0.792769 0
M  V30 2722 P 456.297 -8.91 -2.59788e-12 0
M  V30 2723 O 456.517 -10.1726 -0.733694 0
M  V30 2724 O 457.087 -8.73148 1.23936 0
M  V30 2725 O 456.547 -7.66872 -0.971405 0
M  V30 2726 C 455.607 -7.42309 -2.04641 0
M  V30 2727 C 456.337 -6.86059 -3.24661 0
M  V30 2728 O 456.547 -5.42847 -3.03646 0
M  V30 2729 C 457.737 -7.41196 -3.50753 0
M  V30 2730 O 458.127 -7.27073 -4.86816 0
M  V30 2731 C 458.617 -6.5273 -2.63741 0
M  V30 2732 C 457.907 -5.1842 -2.73198 0
M  V30 2733 N 457.957 -4.38762 -1.4784 0
M  V30 2734 H 455.118 -8.36803 -2.32493 0
M  V30 2735 H 454.848 -6.70197 -1.71129 0
M  V30 2736 H 455.715 -7.03551 -4.13168 0
M  V30 2737 P 459.677 -7.20834 -5.23717 0
M  V30 2738 O 459.897 -7.80006 -6.57415 0
M  V30 2739 O 460.467 -7.79416 -4.13051 0
M  V30 2740 O 459.927 -5.63315 -5.29344 0
M  V30 2741 C 458.987 -4.80318 -6.01954 0
M  V30 2742 C 459.717 -3.64202 -6.65911 0
M  V30 2743 O 459.927 -2.60736 -5.64823 0
M  V30 2744 C 461.117 -3.93521 -7.19518 0
M  V30 2745 O 461.507 -3.02071 -8.21205 0
M  V30 2746 C 461.997 -3.73047 -5.97036 0
M  V30 2747 C 461.287 -2.58828 -5.25741 0
M  V30 2748 N 461.337 -2.68068 -3.77503 0
M  V30 2749 H 458.499 -5.40394 -6.8003 0
M  V30 2750 H 458.227 -4.41741 -5.32532 0
M  V30 2751 H 459.095 -3.26371 -7.47889 0
M  V30 2752 H 461.75 -1.64007 -5.56746 0
M  V30 2753 H 462.03 -4.63439 -5.3432 0
M  V30 2754 H 463.021 -3.44776 -6.25925 0
M  V30 2755 H 461.187 -4.96707 -7.57347 0
M  V30 2756 P 463.057 -2.75334 -8.47391 0
M  V30 2757 O 463.277 -2.44571 -9.90142 0
M  V30 2758 O 463.847 -3.87688 -7.92115 0
M  V30 2759 O 463.307 -1.4459 -7.59357 0
M  V30 2760 C 462.367 -0.347608 -7.69215 0
M  V30 2761 C 463.097 0.96767 -7.52806 0
M  V30 2762 O 463.307 1.21036 -6.1011 0
M  V30 2763 C 464.497 1.04544 -8.13308 0
M  V30 2764 O 464.887 2.38311 -8.41922 0
M  V30 2765 C 465.377 0.491279 -7.02284 0
M  V30 2766 C 464.667 0.996264 -5.77469 0
M  V30 2767 N 464.717 0.0501916 -4.62973 0
M  V30 2768 H 461.878 -0.374722 -8.67691 0
M  V30 2769 H 461.608 -0.443485 -6.90277 0
M  V30 2770 H 462.475 1.75537 -7.96793 0
M  V30 2771 P 466.437 2.75334 -8.47391 0
M  V30 2772 O 466.657 3.84128 -9.44797 0
M  V30 2773 O 467.227 1.51947 -8.68712 0
M  V30 2774 O 466.687 3.29363 -6.99321 0
M  V30 2775 C 465.747 4.24011 -6.4274 0
M  V30 2776 C 466.477 5.20775 -5.52155 0
M  V30 2777 O 466.687 4.56534 -4.22446 0
M  V30 2778 C 467.877 5.62629 -5.96531 0
M  V30 2779 O 468.267 6.87667 -5.41053 0
M  V30 2780 C 468.757 4.52537 -5.39283 0
M  V30 2781 C 468.047 4.20027 -4.08623 0
M  V30 2782 N 468.097 2.76189 -3.71603 0
M  V30 2783 H 465.258 4.797 -7.24003 0
M  V30 2784 H 464.988 3.69856 -5.84513 0
M  V30 2785 H 465.855 6.10356 -5.41441 0
M  V30 2786 P 469.817 7.20834 -5.23717 0
M  V30 2787 O 470.037 8.66104 -5.38572 0
M  V30 2788 O 470.607 6.33544 -6.1349 0
M  V30 2789 O 470.067 6.7751 -3.72168 0
M  V30 2790 C 469.127 7.20825 -2.7076 0
M  V30 2791 C 469.857 7.45864 -1.40599 0
M  V30 2792 O 470.067 6.17651 -0.734225 0
M  V30 2793 C 471.257 8.05808 -1.51899 0
M  V30 2794 O 471.647 8.74358 -0.335205 0
M  V30 2795 C 472.137 6.83093 -1.70294 0
M  V30 2796 C 471.427 5.79992 -0.836974 0
M  V30 2797 N 471.477 4.41864 -1.38293 0
M  V30 2798 C 471.397 3.99538 -2.69438 0
M  V30 2799 N 471.477 2.69909 -2.84277 0
M  V30 2800 C 471.617 2.21719 -1.5408 0
M  V30 2801 C 471.747 0.891712 -1.06628 0
M  V30 2802 O 471.767 -0.161298 -1.70137 0
M  V30 2803 N 471.867 0.856846 0.334985 0
M  V30 2804 C 471.867 1.9641 1.15789 0
M  V30 2805 N 471.997 1.72708 2.46522 0
M  V30 2806 N 471.737 3.21165 0.713741 0
M  V30 2807 C 471.617 3.26797 -0.639748 0
M  V30 2808 H 468.638 8.13644 -3.0377 0
M  V30 2809 H 468.368 6.42788 -2.55485 0
M  V30 2810 H 469.235 8.12039 -0.792769 0
M  V30 2811 H 471.89 5.80061 0.166416 0
M  V30 2812 H 472.169 6.51287 -2.75604 0
M  V30 2813 H 473.161 7.01734 -1.34462 0
M  V30 2814 H 471.327 8.73674 -2.38337 0
M  V30 2815 H 471.278 4.68207 -3.53221 0
M  V30 2816 H 471.96 -0.0398818 0.767965 0
M  V30 2817 H 471.997 2.50995 3.13503 0
M  V30 2818 H 472.098 0.759148 2.80716 0
M  V30 2819 P 473.197 8.91 2.75506e-12 0
M  V30 2820 O 473.417 10.1726 0.733694 0
M  V30 2821 O 473.987 8.73148 -1.23936 0
M  V30 2822 O 473.447 7.66872 0.971405 0
M  V30 2823 C 472.507 7.42309 2.04641 0
M  V30 2824 C 473.237 6.86059 3.24661 0
M  V30 2825 O 473.447 5.42847 3.03646 0
M  V30 2826 C 474.637 7.41196 3.50753 0
M  V30 2827 O 475.027 7.27073 4.86816 0
M  V30 2828 C 475.517 6.5273 2.63741 0
M  V30 2829 C 474.807 5.1842 2.73198 0
M  V30 2830 N 474.857 4.38762 1.4784 0
M  V30 2831 H 472.018 8.36803 2.32493 0
M  V30 2832 H 471.748 6.70197 1.71129 0
M  V30 2833 H 472.615 7.03551 4.13168 0
M  V30 2834 P 476.577 7.20834 5.23717 0
M  V30 2835 O 476.797 7.79853 6.57286 0
M  V30 2836 O 477.367 7.79239 4.12957 0
M  V30 2837 O 476.827 5.63315 5.29344 0
M  V30 2838 C 475.887 4.80255 6.01876 0
M  V30 2839 C 476.617 3.64202 6.65911 0
M  V30 2840 O 476.827 2.60694 5.64732 0
M  V30 2841 C 478.017 3.93473 7.1943 0
M  V30 2842 O 478.407 3.02071 8.21205 0
M  V30 2843 C 478.897 3.73047 5.97036 0
M  V30 2844 C 478.187 2.58828 5.25741 0
M  V30 2845 N 478.237 2.68068 3.77503 0
M  V30 2846 C 478.157 3.79715 2.96723 0
M  V30 2847 N 478.237 3.5377 1.68852 0
M  V30 2848 C 478.377 2.15054 1.63254 0
M  V30 2849 C 478.507 1.28964 0.518571 0
M  V30 2850 N 478.627 -0.0538097 0.918425 0
M  V30 2851 C 478.627 -0.494275 2.22578 0
M  V30 2852 N 478.757 -1.81086 2.40434 0
M  V30 2853 N 478.497 0.313645 3.27502 0
M  V30 2854 C 478.377 1.61829 2.91033 0
M  V30 2855 H 475.398 5.40332 6.79951 0
M  V30 2856 H 475.128 4.41613 5.32378 0
M  V30 2857 H 475.995 3.26331 7.47797 0
M  V30 2858 P 479.957 2.75334 8.47391 0
M  V30 2859 O 480.177 2.44571 9.90142 0
M  V30 2860 O 480.747 3.87688 7.92115 0
M  V30 2861 O 480.207 1.4459 7.59357 0
M  V30 2862 C 479.267 0.347608 7.69215 0
M  V30 2863 C 479.997 -0.96767 7.52806 0
M  V30 2864 O 480.207 -1.21036 6.1011 0
M  V30 2865 C 481.397 -1.04544 8.13308 0
M  V30 2866 O 481.787 -2.38311 8.41922 0
M  V30 2867 C 482.277 -0.491279 7.02284 0
M  V30 2868 C 481.567 -0.996264 5.77469 0
M  V30 2869 N 481.617 -0.0501916 4.62973 0
M  V30 2870 H 478.778 0.374722 8.67691 0
M  V30 2871 H 478.508 0.443485 6.90277 0
M  V30 2872 H 479.375 -1.75537 7.96793 0
M  V30 2873 P 483.337 -2.75334 8.47391 0
M  V30 2874 O 483.557 -3.84128 9.44797 0
M  V30 2875 O 484.127 -1.51947 8.68712 0
M  V30 2876 O 483.587 -3.29363 6.99321 0
M  V30 2877 C 482.647 -4.24011 6.4274 0
M  V30 2878 C 483.377 -5.20775 5.52155 0
M  V30 2879 O 483.587 -4.56534 4.22446 0
M  V30 2880 C 484.777 -5.62629 5.96531 0
M  V30 2881 O 485.167 -6.87667 5.41053 0
M  V30 2882 C 485.657 -4.52537 5.39283 0
M  V30 2883 C 484.947 -4.20027 4.08623 0
M  V30 2884 N 484.997 -2.76189 3.71603 0
M  V30 2885 H 482.158 -4.797 7.24003 0
M  V30 2886 H 481.888 -3.69856 5.84513 0
M  V30 2887 H 482.755 -6.10356 5.41441 0
M  V30 2888 P 486.717 -7.20834 5.23717 0
M  V30 2889 O 486.937 -8.66104 5.38572 0
M  V30 2890 O 487.507 -6.33544 6.1349 0
M  V30 2891 O 486.967 -6.7751 3.72168 0
M  V30 2892 C 486.027 -7.20825 2.7076 0
M  V30 2893 C 486.757 -7.45864 1.40599 0
M  V30 2894 O 486.967 -6.17651 0.734225 0
M  V30 2895 C 488.157 -8.05808 1.51899 0
M  V30 2896 O 488.547 -8.74358 0.335205 0
M  V30 2897 C 489.037 -6.83093 1.70294 0
M  V30 2898 C 488.327 -5.79992 0.836974 0
M  V30 2899 N 488.377 -4.41864 1.38293 0
M  V30 2900 H 485.538 -8.13644 3.0377 0
M  V30 2901 H 485.268 -6.42788 2.55485 0
M  V30 2902 H 486.135 -8.12039 0.792769 0
M  V30 2903 P 490.097 -8.91 -2.91224e-12 0
M  V30 2904 O 490.317 -10.1726 -0.733694 0
M  V30 2905 O 490.887 -8.73148 1.23936 0
M  V30 2906 O 490.347 -7.66872 -0.971405 0
M  V30 2907 C 489.407 -7.42309 -2.04641 0
M  V30 2908 C 490.137 -6.86059 -3.24661 0
M  V30 2909 O 490.347 -5.42847 -3.03646 0
M  V30 2910 C 491.537 -7.41196 -3.50753 0
M  V30 2911 O 491.927 -7.27073 -4.86816 0
M  V30 2912 C 492.417 -6.5273 -2.63741 0
M  V30 2913 C 491.707 -5.1842 -2.73198 0
M  V30 2914 N 491.757 -4.38762 -1.4784 0
M  V30 2915 H 488.918 -8.36803 -2.32493 0
M  V30 2916 H 488.648 -6.70197 -1.71129 0
M  V30 2917 H 489.515 -7.03551 -4.13168 0
M  V30 2918 P 493.477 -7.20834 -5.23717 0
M  V30 2919 O 493.697 -7.80006 -6.57415 0
M  V30 2920 O 494.267 -7.79416 -4.13051 0
M  V30 2921 O 493.727 -5.63315 -5.29344 0
M  V30 2922 C 492.787 -4.80318 -6.01954 0
M  V30 2923 C 493.517 -3.64202 -6.65911 0
M  V30 2924 O 493.727 -2.60736 -5.64823 0
M  V30 2925 C 494.917 -3.93521 -7.19518 0
M  V30 2926 O 495.307 -3.02071 -8.21205 0
M  V30 2927 C 495.797 -3.73047 -5.97036 0
M  V30 2928 C 495.087 -2.58828 -5.25741 0
M  V30 2929 N 495.137 -2.68068 -3.77503 0
M  V30 2930 C 495.057 -3.80474 -2.99159 0
M  V30 2931 N 495.127 -3.55622 -1.71925 0
M  V30 2932 C 495.277 -2.1832 -1.65733 0
M  V30 2933 C 495.407 -1.28842 -0.572777 0
M  V30 2934 N 495.417 -1.66875 0.70098 0
M  V30 2935 N 495.527 0.016788 -0.859836 0
M  V30 2936 C 495.517 0.398145 -2.13316 0
M  V30 2937 N 495.397 -0.328224 -3.22333 0
M  V30 2938 C 495.277 -1.62992 -2.90383 0
M  V30 2939 H 492.299 -5.40394 -6.8003 0
M  V30 2940 H 492.027 -4.41741 -5.32532 0
M  V30 2941 H 492.895 -3.26371 -7.47889 0
M  V30 2942 H 495.55 -1.64007 -5.56746 0
M  V30 2943 H 495.83 -4.63439 -5.3432 0
M  V30 2944 H 496.821 -3.44776 -6.25925 0
M  V30 2945 H 494.987 -4.96707 -7.57347 0
M  V30 2946 H 494.946 -4.8089 -3.39924 0
M  V30 2947 H 495.327 -2.66547 0.941919 0
M  V30 2948 H 495.516 -0.965341 1.44766 0
M  V30 2949 H 495.624 1.46427 -2.29697 0
M  V30 2950 P 496.857 -2.75334 -8.47391 0
M  V30 2951 O 497.077 -2.44571 -9.90142 0
M  V30 2952 O 497.647 -3.87688 -7.92115 0
M  V30 2953 O 497.107 -1.4459 -7.59357 0
M  V30 2954 C 496.167 -0.347608 -7.69215 0
M  V30 2955 C 496.897 0.96767 -7.52806 0
M  V30 2956 O 497.107 1.21036 -6.1011 0
M  V30 2957 C 498.297 1.04544 -8.13308 0
M  V30 2958 O 498.687 2.38311 -8.41922 0
M  V30 2959 C 499.177 0.491279 -7.02284 0
M  V30 2960 C 498.467 0.996264 -5.77469 0
M  V30 2961 N 498.517 0.0501916 -4.62973 0
M  V30 2962 H 495.678 -0.374722 -8.67691 0
M  V30 2963 H 495.408 -0.443485 -6.90277 0
M  V30 2964 H 496.275 1.75537 -7.96793 0
M  V30 2965 P 500.237 2.75334 -8.47391 0
M  V30 2966 O 500.457 3.84166 -9.4489 0
M  V30 2967 O 501.027 1.51964 -8.6881 0
M  V30 2968 O 500.487 3.29363 -6.99321 0
M  V30 2969 C 499.547 4.24011 -6.4274 0
M  V30 2970 C 500.277 5.20775 -5.52155 0
M  V30 2971 O 500.487 4.56534 -4.22446 0
M  V30 2972 C 501.677 5.62629 -5.96531 0
M  V30 2973 O 502.067 6.87667 -5.41053 0
M  V30 2974 C 502.557 4.52537 -5.39283 0
M  V30 2975 C 501.847 4.20027 -4.08623 0
M  V30 2976 N 501.897 2.7613 -3.71522 0
M  V30 2977 C 502.047 2.43702 -2.37085 0
M  V30 2978 O 502.137 3.3531 -1.54039 0
M  V30 2979 N 502.097 0.951103 -2.10621 0
M  V30 2980 C 501.997 0.165021 -2.93537 0
M  V30 2981 N 502.047 -1.09723 -2.53253 0
M  V30 2982 C 501.847 0.469576 -4.32458 0
M  V30 2983 C 501.797 1.78658 -4.65921 0
M  V30 2984 H 499.057 4.79645 -7.23919 0
M  V30 2985 H 498.788 3.69802 -5.84429 0
M  V30 2986 H 499.655 6.10431 -5.41508 0
M  V30 2987 H 502.31 4.78733 -3.27967 0
M  V30 2988 H 502.589 3.64957 -6.05871 0
M  V30 2989 H 503.581 4.8868 -5.2125 0
M  V30 2990 H 501.747 5.66726 -7.06352 0
M  V30 2991 H 501.675 2.06987 -5.70299 0
M  V30 2992 H 501.777 -0.314383 -5.07728 0
M  V30 2993 H 502.165 -1.31363 -1.5319 0
M  V30 2994 H 501.968 -1.85978 -3.21943 0
M  V30 2995 P 503.617 7.20834 -5.23717 0
M  V30 2996 O 503.837 8.66274 -5.38678 0
M  V30 2997 O 504.407 6.33687 -6.13629 0
M  V30 2998 O 503.867 6.7751 -3.72168 0
M  V30 2999 C 502.927 7.20919 -2.70795 0
M  V30 3000 C 503.657 7.45864 -1.40599 0
M  V30 3001 O 503.867 6.17751 -0.734343 0
M  V30 3002 C 505.057 8.05906 -1.51917 0
M  V30 3003 O 505.447 8.74358 -0.335205 0
M  V30 3004 C 505.937 6.83093 -1.70294 0
M  V30 3005 C 505.227 5.79992 -0.836974 0
M  V30 3006 N 505.277 4.41864 -1.38293 0
M  V30 3007 C 505.197 4.02089 -2.69407 0
M  V30 3008 N 505.267 2.73403 -2.85089 0
M  V30 3009 C 505.417 2.25086 -1.5642 0
M  V30 3010 C 505.547 0.942887 -1.04836 0
M  V30 3011 N 505.557 -0.150999 -1.80369 0
M  V30 3012 N 505.667 0.812565 0.28167 0
M  V30 3013 C 505.657 1.90572 1.03784 0
M  V30 3014 N 505.537 3.167 0.683905 0
M  V30 3015 C 505.417 3.26538 -0.652815 0
M  V30 3016 H 502.439 8.13738 -3.03804 0
M  V30 3017 H 502.167 6.42974 -2.55559 0
M  V30 3018 H 503.035 8.12139 -0.792866 0
M  V30 3019 H 505.69 5.80178 0.160643 0
M  V30 3020 H 505.97 6.51379 -2.75643 0
M  V30 3021 H 506.961 7.01832 -1.3448 0
M  V30 3022 H 505.127 8.73771 -2.38364 0
M  V30 3023 H 505.086 4.7189 -3.52311 0
M  V30 3024 H 505.467 -0.0721434 -2.82608 0
M  V30 3025 H 505.656 -1.0785 -1.36544 0
M  V30 3026 H 505.764 1.73207 2.10241 0
M  V30 3027 P 506.997 8.91 3.06942e-12 0
M  V30 3028 O 507.217 10.1726 0.733694 0
M  V30 3029 O 507.787 8.73148 -1.23936 0
M  V30 3030 O 507.247 7.66872 0.971405 0
M  V30 3031 C 506.307 7.42309 2.04641 0
M  V30 3032 C 507.037 6.86059 3.24661 0
M  V30 3033 O 507.247 5.42847 3.03646 0
M  V30 3034 C 508.437 7.41196 3.50753 0
M  V30 3035 O 508.827 7.27073 4.86816 0
M  V30 3036 C 509.317 6.5273 2.63741 0
M  V30 3037 C 508.607 5.1842 2.73198 0
M  V30 3038 N 508.657 4.38762 1.4784 0
M  V30 3039 C 508.577 4.81605 0.168631 0
M  V30 3040 N 508.657 3.85454 -0.713363 0
M  V30 3041 C 508.797 2.6994 0.0566958 0
M  V30 3042 C 508.927 1.34815 -0.338502 0
M  V30 3043 N 509.047 0.496304 0.77465 0
M  V30 3044 C 509.047 0.908403 2.09122 0
M  V30 3045 N 509.177 -0.0517805 3.00955 0
M  V30 3046 N 508.917 2.17875 2.46519 0
M  V30 3047 C 508.797 3.01988 1.4033 0
M  V30 3048 H 505.818 8.36803 2.32493 0
M  V30 3049 H 505.548 6.70197 1.71129 0
M  V30 3050 H 506.415 7.03551 4.13168 0
M  V30 3051 P 510.377 7.20834 5.23717 0
M  V30 3052 O 510.597 7.7993 6.57351 0
M  V30 3053 O 511.167 7.79328 4.13004 0
M  V30 3054 O 510.627 5.63315 5.29344 0
M  V30 3055 C 509.687 4.80193 6.01798 0
M  V30 3056 C 510.417 3.64202 6.65911 0
M  V30 3057 O 510.627 2.60694 5.64732 0
M  V30 3058 C 511.817 3.93473 7.1943 0
M  V30 3059 O 512.207 3.02071 8.21205 0
M  V30 3060 C 512.697 3.73047 5.97036 0
M  V30 3061 C 511.987 2.58828 5.25741 0
M  V30 3062 N 512.037 2.6801 3.77422 0
M  V30 3063 C 512.187 1.50443 3.07133 0
M  V30 3064 O 512.277 0.419406 3.61576 0
M  V30 3065 N 512.227 1.6403 1.69677 0
M  V30 3066 C 512.137 2.81206 0.986255 0
M  V30 3067 C 511.987 3.99158 1.80325 0
M  V30 3068 C 511.937 3.89779 3.1476 0
M  V30 3069 H 509.197 5.40332 6.79951 0
M  V30 3070 H 508.928 4.41549 5.32301 0
M  V30 3071 H 509.795 3.26331 7.47797 0
M  V30 3072 H 512.45 1.6395 5.56554 0
M  V30 3073 H 512.729 4.63439 5.3432 0
M  V30 3074 H 513.721 3.44728 6.25838 0
M  V30 3075 H 511.887 4.96652 7.57263 0
M  V30 3076 H 511.816 4.80159 3.74441 0
M  V30 3077 P 513.757 2.75334 8.47391 0
M  V30 3078 O 513.977 2.44571 9.90142 0
M  V30 3079 O 514.547 3.87688 7.92115 0
M  V30 3080 O 514.007 1.4459 7.59357 0
M  V30 3081 C 513.067 0.347608 7.69215 0
M  V30 3082 C 513.797 -0.96767 7.52806 0
M  V30 3083 O 514.007 -1.21036 6.1011 0
M  V30 3084 C 515.197 -1.04544 8.13308 0
M  V30 3085 O 515.587 -2.38311 8.41922 0
M  V30 3086 C 516.077 -0.491279 7.02284 0
M  V30 3087 C 515.367 -0.996264 5.77469 0
M  V30 3088 N 515.417 -0.0501916 4.62973 0
M  V30 3089 H 512.578 0.374722 8.67691 0
M  V30 3090 H 512.308 0.443485 6.90277 0
M  V30 3091 H 513.175 -1.75537 7.96793 0
M  V30 3092 P 517.137 -2.75334 8.47391 0
M  V30 3093 O 517.357 -3.84128 9.44797 0
M  V30 3094 O 517.927 -1.51947 8.68712 0
M  V30 3095 O 517.387 -3.29363 6.99321 0
M  V30 3096 C 516.447 -4.24011 6.4274 0
M  V30 3097 C 517.177 -5.20775 5.52155 0
M  V30 3098 O 517.387 -4.56534 4.22446 0
M  V30 3099 C 518.577 -5.62629 5.96531 0
M  V30 3100 O 518.967 -6.87667 5.41053 0
M  V30 3101 C 519.457 -4.52537 5.39283 0
M  V30 3102 C 518.747 -4.20027 4.08623 0
M  V30 3103 N 518.797 -2.76189 3.71603 0
M  V30 3104 H 515.958 -4.797 7.24003 0
M  V30 3105 H 515.688 -3.69856 5.84513 0
M  V30 3106 H 516.555 -6.10356 5.41441 0
M  V30 3107 P 520.517 -7.20834 5.23717 0
M  V30 3108 O 520.737 -8.66104 5.38572 0
M  V30 3109 O 521.307 -6.33544 6.1349 0
M  V30 3110 O 520.767 -6.7751 3.72168 0
M  V30 3111 C 519.827 -7.20825 2.7076 0
M  V30 3112 C 520.557 -7.45864 1.40599 0
M  V30 3113 O 520.767 -6.17651 0.734225 0
M  V30 3114 C 521.957 -8.05808 1.51899 0
M  V30 3115 O 522.347 -8.74358 0.335205 0
M  V30 3116 C 522.837 -6.83093 1.70294 0
M  V30 3117 C 522.127 -5.79992 0.836974 0
M  V30 3118 N 522.177 -4.41864 1.38293 0
M  V30 3119 H 519.338 -8.13644 3.0377 0
M  V30 3120 H 519.068 -6.42788 2.55485 0
M  V30 3121 H 519.935 -8.12039 0.792769 0
M  V30 3122 P 523.897 -8.91 -3.22661e-12 0
M  V30 3123 O 524.117 -10.1726 -0.733694 0
M  V30 3124 O 524.687 -8.73148 1.23936 0
M  V30 3125 O 524.147 -7.66872 -0.971405 0
M  V30 3126 C 523.207 -7.42309 -2.04641 0
M  V30 3127 C 523.937 -6.86059 -3.24661 0
M  V30 3128 O 524.147 -5.42847 -3.03646 0
M  V30 3129 C 525.337 -7.41196 -3.50753 0
M  V30 3130 O 525.727 -7.27073 -4.86816 0
M  V30 3131 C 526.217 -6.5273 -2.63741 0
M  V30 3132 C 525.507 -5.1842 -2.73198 0
M  V30 3133 N 525.557 -4.38762 -1.4784 0
M  V30 3134 H 522.718 -8.36803 -2.32493 0
M  V30 3135 H 522.448 -6.70197 -1.71129 0
M  V30 3136 H 523.315 -7.03551 -4.13168 0
M  V30 3137 P 527.277 -7.20834 -5.23717 0
M  V30 3138 O 527.497 -7.79853 -6.57286 0
M  V30 3139 O 528.067 -7.79239 -4.12957 0
M  V30 3140 O 527.527 -5.63315 -5.29344 0
M  V30 3141 C 526.587 -4.80255 -6.01876 0
M  V30 3142 C 527.317 -3.64202 -6.65911 0
M  V30 3143 O 527.527 -2.60694 -5.64732 0
M  V30 3144 C 528.717 -3.93473 -7.1943 0
M  V30 3145 O 529.107 -3.02071 -8.21205 0
M  V30 3146 C 529.597 -3.73047 -5.97036 0
M  V30 3147 C 528.887 -2.58828 -5.25741 0
M  V30 3148 N 528.937 -2.68068 -3.77503 0
M  V30 3149 H 526.098 -5.40332 -6.79951 0
M  V30 3150 H 525.828 -4.41613 -5.32378 0
M  V30 3151 H 526.695 -3.26331 -7.47797 0
M  V30 3152 P 530.657 -2.75334 -8.47391 0
M  V30 3153 O 530.877 -2.44571 -9.90142 0
M  V30 3154 O 531.447 -3.87688 -7.92115 0
M  V30 3155 O 530.907 -1.4459 -7.59357 0
M  V30 3156 C 529.967 -0.347608 -7.69215 0
M  V30 3157 C 530.697 0.96767 -7.52806 0
M  V30 3158 O 530.907 1.21036 -6.1011 0
M  V30 3159 C 532.097 1.04544 -8.13308 0
M  V30 3160 O 532.487 2.38311 -8.41922 0
M  V30 3161 C 532.977 0.491279 -7.02284 0
M  V30 3162 C 532.267 0.996264 -5.77469 0
M  V30 3163 N 532.317 0.0501916 -4.62973 0
M  V30 3164 H 529.478 -0.374722 -8.67691 0
M  V30 3165 H 529.208 -0.443485 -6.90277 0
M  V30 3166 H 530.075 1.75537 -7.96793 0
M  V30 3167 P 534.037 2.75334 -8.47391 0
M  V30 3168 O 534.257 3.84128 -9.44797 0
M  V30 3169 O 534.827 1.51947 -8.68712 0
M  V30 3170 O 534.287 3.29363 -6.99321 0
M  V30 3171 C 533.347 4.24011 -6.4274 0
M  V30 3172 C 534.077 5.20775 -5.52155 0
M  V30 3173 O 534.287 4.56534 -4.22446 0
M  V30 3174 C 535.477 5.62629 -5.96531 0
M  V30 3175 O 535.867 6.87667 -5.41053 0
M  V30 3176 C 536.357 4.52537 -5.39283 0
M  V30 3177 C 535.647 4.20027 -4.08623 0
M  V30 3178 N 535.697 2.76189 -3.71603 0
M  V30 3179 C 535.617 1.64862 -4.52822 0
M  V30 3180 N 535.697 0.512671 -3.88633 0
M  V30 3181 C 535.837 0.888083 -2.54977 0
M  V30 3182 C 535.967 0.094668 -1.38677 0
M  V30 3183 N 536.087 0.890102 -0.232633 0
M  V30 3184 C 536.087 2.26958 -0.21772 0
M  V30 3185 N 536.217 2.84626 0.97925 0
M  V30 3186 N 535.957 3.0178 -1.31033 0
M  V30 3187 C 535.837 2.26781 -2.43843 0
M  V30 3188 H 532.858 4.797 -7.24003 0
M  V30 3189 H 532.588 3.69856 -5.84513 0
M  V30 3190 H 533.455 6.10356 -5.41441 0
M  V30 3191 P 537.417 7.20834 -5.23717 0
M  V30 3192 O 537.637 8.66189 -5.38625 0
M  V30 3193 O 538.207 6.33615 -6.1356 0
M  V30 3194 O 537.667 6.7751 -3.72168 0
M  V30 3195 C 536.727 7.20732 -2.70725 0
M  V30 3196 C 537.457 7.45864 -1.40599 0
M  V30 3197 O 537.667 6.17651 -0.734225 0
M  V30 3198 C 538.857 8.05808 -1.51899 0
M  V30 3199 O 539.247 8.74358 -0.335205 0
M  V30 3200 C 539.737 6.83093 -1.70294 0
M  V30 3201 C 539.027 5.79992 -0.836974 0
M  V30 3202 N 539.077 4.41769 -1.38263 0
M  V30 3203 C 539.227 3.38591 -0.481702 0
M  V30 3204 O 539.317 3.56839 0.718452 0
M  V30 3205 N 539.267 2.1206 -1.03569 0
M  V30 3206 C 539.177 1.80696 -2.36966 0
M  V30 3207 O 539.227 0.630473 -2.74862 0
M  V30 3208 C 539.027 2.94845 -3.23898 0
M  V30 3209 C 538.917 2.65253 -4.70362 0
M  V30 3210 C 538.977 4.19803 -2.73435 0
M  V30 3211 H 536.237 8.13644 -3.0377 0
M  V30 3212 H 535.968 6.42695 -2.55448 0
M  V30 3213 H 536.835 8.12039 -0.792769 0
M  V30 3214 H 539.49 5.79978 0.160587 0
M  V30 3215 H 539.769 6.51379 -2.75643 0
M  V30 3216 H 540.761 7.01734 -1.34462 0
M  V30 3217 H 538.927 8.73674 -2.38337 0
M  V30 3218 H 538.856 5.04492 -3.4095 0
M  V30 3219 H 539.886 2.83924 -5.1913 0
M  V30 3220 H 538.149 3.29824 -5.15163 0
M  V30 3221 H 538.637 1.59723 -4.84449 0
M  V30 3222 H 539.373 1.35644 -0.399345 0
M  V30 3223 P 540.797 8.91 3.38379e-12 0
M  V30 3224 O 541.017 10.1726 0.733694 0
M  V30 3225 O 541.587 8.73148 -1.23936 0
M  V30 3226 O 541.047 7.66872 0.971405 0
M  V30 3227 C 540.107 7.42309 2.04641 0
M  V30 3228 C 540.837 6.86059 3.24661 0
M  V30 3229 O 541.047 5.42847 3.03646 0
M  V30 3230 C 542.237 7.41196 3.50753 0
M  V30 3231 O 542.627 7.27073 4.86816 0
M  V30 3232 C 543.117 6.5273 2.63741 0
M  V30 3233 C 542.407 5.1842 2.73198 0
M  V30 3234 N 542.457 4.38762 1.4784 0
M  V30 3235 H 539.618 8.36803 2.32493 0
M  V30 3236 H 539.348 6.70197 1.71129 0
M  V30 3237 H 540.215 7.03551 4.13168 0
M  V30 3238 P 544.177 7.20834 5.23717 0
M  V30 3239 O 544.397 7.80006 6.57415 0
M  V30 3240 O 544.967 7.79416 4.13051 0
M  V30 3241 O 544.427 5.63315 5.29344 0
M  V30 3242 C 543.487 4.80318 6.01954 0
M  V30 3243 C 544.217 3.64202 6.65911 0
M  V30 3244 O 544.427 2.60736 5.64823 0
M  V30 3245 C 545.617 3.93521 7.19518 0
M  V30 3246 O 546.007 3.02071 8.21205 0
M  V30 3247 C 546.497 3.73047 5.97036 0
M  V30 3248 C 545.787 2.58828 5.25741 0
M  V30 3249 N 545.837 2.68068 3.77503 0
M  V30 3250 H 542.999 5.40394 6.8003 0
M  V30 3251 H 542.727 4.41741 5.32532 0
M  V30 3252 H 543.595 3.26371 7.47889 0
M  V30 3253 H 546.25 1.64007 5.56746 0
M  V30 3254 H 546.53 4.63439 5.3432 0
M  V30 3255 H 547.521 3.44776 6.25925 0
M  V30 3256 H 545.687 4.96707 7.57347 0
M  V30 3257 P 547.557 2.75334 8.47391 0
M  V30 3258 O 547.777 2.44571 9.90142 0
M  V30 3259 O 548.347 3.87688 7.92115 0
M  V30 3260 O 547.807 1.4459 7.59357 0
M  V30 3261 C 546.867 0.347608 7.69215 0
M  V30 3262 C 547.597 -0.96767 7.52806 0
M  V30 3263 O 547.807 -1.21036 6.1011 0
M  V30 3264 C 548.997 -1.04544 8.13308 0
M  V30 3265 O 549.387 -2.38311 8.41922 0
M  V30 3266 C 549.877 -0.491279 7.02284 0
M  V30 3267 C 549.167 -0.996264 5.77469 0
M  V30 3268 N 549.217 -0.0501916 4.62973 0
M  V30 3269 C 549.137 1.32786 4.63244 0
M  V30 3270 N 549.217 1.86957 3.44545 0
M  V30 3271 C 549.357 0.780241 2.58481 0
M  V30 3272 C 549.487 0.738536 1.17757 0
M  V30 3273 O 549.507 1.66794 0.372349 0
M  V30 3274 N 549.607 -0.58337 0.711393 0
M  V30 3275 C 549.607 -1.70816 1.51017 0
M  V30 3276 N 549.737 -2.87826 0.880757 0
M  V30 3277 N 549.477 -1.67126 2.8339 0
M  V30 3278 C 549.357 -0.401421 3.30572 0
M  V30 3279 H 546.378 0.374722 8.67691 0
M  V30 3280 H 546.108 0.443485 6.90277 0
M  V30 3281 H 546.975 -1.75537 7.96793 0
M  V30 3282 H 549.63 -1.95076 5.46529 0
M  V30 3283 H 549.909 0.608565 7.04577 0
M  V30 3284 H 550.901 -0.889672 7.08939 0
M  V30 3285 H 549.067 -0.43308 9.04564 0
M  V30 3286 H 549.018 1.91249 5.54442 0
M  V30 3287 H 549.7 -0.718054 -0.275244 0
M  V30 3288 H 549.737 -3.75721 1.41832 0
M  V30 3289 H 549.838 -2.90436 -0.145468 0
M  V30 3290 P 550.937 -2.75334 8.47391 0
M  V30 3291 O 551.157 -3.84204 9.44982 0
M  V30 3292 O 551.727 -1.51982 8.68909 0
M  V30 3293 O 551.187 -3.29363 6.99321 0
M  V30 3294 C 550.247 -4.24066 6.42823 0
M  V30 3295 C 550.977 -5.20775 5.52155 0
M  V30 3296 O 551.187 -4.56607 4.22514 0
M  V30 3297 C 552.377 -5.62697 5.96604 0
M  V30 3298 O 552.767 -6.87667 5.41053 0
M  V30 3299 C 553.257 -4.52537 5.39283 0
M  V30 3300 C 552.547 -4.20027 4.08623 0
M  V30 3301 N 552.597 -2.76189 3.71603 0
M  V30 3302 C 552.517 -1.66944 4.54297 0
M  V30 3303 N 552.587 -0.536169 3.91344 0
M  V30 3304 C 552.737 -0.901569 2.58849 0
M  V30 3305 C 552.867 -0.146599 1.40236 0
M  V30 3306 N 552.877 1.18234 1.37046 0
M  V30 3307 N 552.987 -0.822941 0.249738 0
M  V30 3308 C 552.977 -2.15179 0.280525 0
M  V30 3309 N 552.857 -2.96414 1.30822 0
M  V30 3310 C 552.737 -2.25804 2.44748 0
M  V30 3311 H 549.759 -4.79756 7.24086 0
M  V30 3312 H 549.487 -3.69963 5.84682 0
M  V30 3313 H 550.355 -6.10431 5.41508 0
M  V30 3314 H 553.01 -4.78816 3.28024 0
M  V30 3315 H 553.29 -3.64957 6.05871 0
M  V30 3316 H 554.281 -4.88748 5.21323 0
M  V30 3317 H 552.447 -5.66789 7.0643 0
M  V30 3318 H 552.406 -1.74684 5.62396 0
M  V30 3319 H 552.787 1.71949 2.24394 0
M  V30 3320 H 552.976 1.67511 0.470742 0
M  V30 3321 H 553.084 -2.63704 -0.6828 0
M  V30 3322 P 554.317 -7.20834 5.23717 0
M  V30 3323 O 554.537 -8.66104 5.38572 0
M  V30 3324 O 555.107 -6.33544 6.1349 0
M  V30 3325 O 554.567 -6.7751 3.72168 0
M  V30 3326 C 553.627 -7.20825 2.7076 0
M  V30 3327 C 554.357 -7.45864 1.40599 0
M  V30 3328 O 554.567 -6.17651 0.734225 0
M  V30 3329 C 555.757 -8.05808 1.51899 0
M  V30 3330 O 556.147 -8.74358 0.335205 0
M  V30 3331 C 556.637 -6.83093 1.70294 0
M  V30 3332 C 555.927 -5.79992 0.836974 0
M  V30 3333 N 555.977 -4.41864 1.38293 0
M  V30 3334 H 553.138 -8.13644 3.0377 0
M  V30 3335 H 552.868 -6.42788 2.55485 0
M  V30 3336 H 553.735 -8.12039 0.792769 0
M  V30 3337 P 557.697 -8.91 -3.54097e-12 0
M  V30 3338 O 557.917 -10.1726 -0.733694 0
M  V30 3339 O 558.487 -8.73148 1.23936 0
M  V30 3340 O 557.947 -7.66872 -0.971405 0
M  V30 3341 C 557.007 -7.42309 -2.04641 0
M  V30 3342 C 557.737 -6.86059 -3.24661 0
M  V30 3343 O 557.947 -5.42847 -3.03646 0
M  V30 3344 C 559.137 -7.41196 -3.50753 0
M  V30 3345 O 559.527 -7.27073 -4.86816 0
M  V30 3346 C 560.017 -6.5273 -2.63741 0
M  V30 3347 C 559.307 -5.1842 -2.73198 0
M  V30 3348 N 559.357 -4.38762 -1.4784 0
M  V30 3349 H 556.518 -8.36803 -2.32493 0
M  V30 3350 H 556.248 -6.70197 -1.71129 0
M  V30 3351 H 557.115 -7.03551 -4.13168 0
M  V30 3352 P 561.077 -7.20834 -5.23717 0
M  V30 3353 O 561.297 -7.79853 -6.57286 0
M  V30 3354 O 561.867 -7.79239 -4.12957 0
M  V30 3355 O 561.327 -5.63315 -5.29344 0
M  V30 3356 C 560.387 -4.80255 -6.01876 0
M  V30 3357 C 561.117 -3.64202 -6.65911 0
M  V30 3358 O 561.327 -2.60694 -5.64732 0
M  V30 3359 C 562.517 -3.93473 -7.1943 0
M  V30 3360 O 562.907 -3.02071 -8.21205 0
M  V30 3361 C 563.397 -3.73047 -5.97036 0
M  V30 3362 C 562.687 -2.58828 -5.25741 0
M  V30 3363 N 562.737 -2.68068 -3.77503 0
M  V30 3364 H 559.898 -5.40332 -6.79951 0
M  V30 3365 H 559.628 -4.41613 -5.32378 0
M  V30 3366 H 560.495 -3.26331 -7.47797 0
M  V30 3367 P 564.457 -2.75334 -8.47391 0
M  V30 3368 O 564.677 -2.44619 -9.90336 0
M  V30 3369 O 565.247 -3.87776 -7.92294 0
M  V30 3370 O 564.707 -1.4459 -7.59357 0
M  V30 3371 C 563.767 -0.347653 -7.69315 0
M  V30 3372 C 564.497 0.96767 -7.52806 0
M  V30 3373 O 564.707 1.21055 -6.10208 0
M  V30 3374 C 565.897 1.04557 -8.13408 0
M  V30 3375 O 566.287 2.38311 -8.41922 0
M  V30 3376 C 566.777 0.491279 -7.02284 0
M  V30 3377 C 566.067 0.996264 -5.77469 0
M  V30 3378 N 566.117 0.0501916 -4.62973 0
M  V30 3379 C 566.037 -1.31969 -4.65661 0
M  V30 3380 N 566.107 -1.86649 -3.48119 0
M  V30 3381 C 566.257 -0.792089 -2.62406 0
M  V30 3382 C 566.387 -0.705684 -1.2207 0
M  V30 3383 N 566.397 -1.76207 -0.413762 0
M  V30 3384 N 566.507 0.518981 -0.685754 0
M  V30 3385 C 566.497 1.57595 -1.49174 0
M  V30 3386 N 566.377 1.62909 -2.80066 0
M  V30 3387 C 566.257 0.388195 -3.3073 0
M  V30 3388 H 563.279 -0.374765 -8.67791 0
M  V30 3389 H 563.007 -0.443613 -6.90476 0
M  V30 3390 H 563.875 1.75559 -7.96891 0
M  V30 3391 H 566.53 1.94563 -5.46818 0
M  V30 3392 H 566.81 -0.608651 -7.04676 0
M  V30 3393 H 567.801 0.889796 -7.09039 0
M  V30 3394 H 565.967 0.433128 -9.04664 0
M  V30 3395 H 565.926 -1.89246 -5.57664 0
M  V30 3396 H 566.307 -2.71005 -0.804694 0
M  V30 3397 H 566.496 -1.63189 0.603768 0
M  V30 3398 H 566.604 2.53475 -0.997614 0
M  V30 3399 P 567.837 2.75334 -8.47391 0
M  V30 3400 O 568.057 3.84128 -9.44797 0
M  V30 3401 O 568.627 1.51947 -8.68712 0
M  V30 3402 O 568.087 3.29363 -6.99321 0
M  V30 3403 C 567.147 4.24011 -6.4274 0
M  V30 3404 C 567.877 5.20775 -5.52155 0
M  V30 3405 O 568.087 4.56534 -4.22446 0
M  V30 3406 C 569.277 5.62629 -5.96531 0
M  V30 3407 O 569.667 6.87667 -5.41053 0
M  V30 3408 C 570.157 4.52537 -5.39283 0
M  V30 3409 C 569.447 4.20027 -4.08623 0
M  V30 3410 N 569.497 2.76189 -3.71603 0
M  V30 3411 H 566.658 4.797 -7.24003 0
M  V30 3412 H 566.388 3.69856 -5.84513 0
M  V30 3413 H 567.255 6.10356 -5.41441 0
M  V30 3414 P 571.217 7.20834 -5.23717 0
M  V30 3415 O 571.437 8.66104 -5.38572 0
M  V30 3416 O 572.007 6.33544 -6.1349 0
M  V30 3417 O 571.467 6.7751 -3.72168 0
M  V30 3418 C 570.527 7.20825 -2.7076 0
M  V30 3419 C 571.257 7.45864 -1.40599 0
M  V30 3420 O 571.467 6.17651 -0.734225 0
M  V30 3421 C 572.657 8.05808 -1.51899 0
M  V30 3422 O 573.047 8.74358 -0.335205 0
M  V30 3423 C 573.537 6.83093 -1.70294 0
M  V30 3424 C 572.827 5.79992 -0.836974 0
M  V30 3425 N 572.877 4.41864 -1.38293 0
M  V30 3426 H 570.038 8.13644 -3.0377 0
M  V30 3427 H 569.768 6.42788 -2.55485 0
M  V30 3428 H 570.635 8.12039 -0.792769 0
M  V30 3429 P 574.597 8.91 3.69815e-12 0
M  V30 3430 O 574.817 10.1726 0.733694 0
M  V30 3431 O 575.387 8.73148 -1.23936 0
M  V30 3432 O 574.847 7.66872 0.971405 0
M  V30 3433 C 573.907 7.42309 2.04641 0
M  V30 3434 C 574.637 6.86059 3.24661 0
M  V30 3435 O 574.847 5.42847 3.03646 0
M  V30 3436 C 576.037 7.41196 3.50753 0
M  V30 3437 O 576.427 7.27073 4.86816 0
M  V30 3438 C 576.917 6.5273 2.63741 0
M  V30 3439 C 576.207 5.1842 2.73198 0
M  V30 3440 N 576.257 4.38762 1.4784 0
M  V30 3441 H 573.418 8.36803 2.32493 0
M  V30 3442 H 573.148 6.70197 1.71129 0
M  V30 3443 H 574.015 7.03551 4.13168 0
M  V30 3444 P 577.977 7.20834 5.23717 0
M  V30 3445 O 578.197 7.80006 6.57415 0
M  V30 3446 O 578.767 7.79416 4.13051 0
M  V30 3447 O 578.227 5.63315 5.29344 0
M  V30 3448 C 577.287 4.80318 6.01954 0
M  V30 3449 C 578.017 3.64202 6.65911 0
M  V30 3450 O 578.227 2.60736 5.64823 0
M  V30 3451 C 579.417 3.93521 7.19518 0
M  V30 3452 O 579.807 3.02071 8.21205 0
M  V30 3453 C 580.297 3.73047 5.97036 0
M  V30 3454 C 579.587 2.58828 5.25741 0
M  V30 3455 N 579.637 2.68068 3.77503 0
M  V30 3456 C 579.557 3.80474 2.99159 0
M  V30 3457 N 579.627 3.55622 1.71925 0
M  V30 3458 C 579.777 2.1832 1.65733 0
M  V30 3459 C 579.907 1.28842 0.572777 0
M  V30 3460 N 579.917 1.66875 -0.70098 0
M  V30 3461 N 580.027 -0.016788 0.859836 0
M  V30 3462 C 580.017 -0.398145 2.13316 0
M  V30 3463 N 579.897 0.328224 3.22333 0
M  V30 3464 C 579.777 1.62992 2.90383 0
M  V30 3465 H 576.799 5.40394 6.8003 0
M  V30 3466 H 576.527 4.41741 5.32532 0
M  V30 3467 H 577.395 3.26371 7.47889 0
M  V30 3468 H 580.05 1.64007 5.56746 0
M  V30 3469 H 580.33 4.63439 5.3432 0
M  V30 3470 H 581.321 3.44776 6.25925 0
M  V30 3471 H 579.487 4.96707 7.57347 0
M  V30 3472 H 579.446 4.8089 3.39924 0
M  V30 3473 H 579.827 2.66547 -0.941919 0
M  V30 3474 H 580.016 0.965341 -1.44766 0
M  V30 3475 H 580.124 -1.46427 2.29697 0
M  V30 3476 P 581.357 2.75334 8.47391 0
M  V30 3477 O 581.577 2.44571 9.90142 0
M  V30 3478 O 582.147 3.87688 7.92115 0
M  V30 3479 O 581.607 1.4459 7.59357 0
M  V30 3480 C 580.667 0.347608 7.69215 0
M  V30 3481 C 581.397 -0.96767 7.52806 0
M  V30 3482 O 581.607 -1.21036 6.1011 0
M  V30 3483 C 582.797 -1.04544 8.13308 0
M  V30 3484 O 583.187 -2.38311 8.41922 0
M  V30 3485 C 583.677 -0.491279 7.02284 0
M  V30 3486 C 582.967 -0.996264 5.77469 0
M  V30 3487 N 583.017 -0.0501916 4.62973 0
M  V30 3488 H 580.178 0.374722 8.67691 0
M  V30 3489 H 579.908 0.443485 6.90277 0
M  V30 3490 H 580.775 -1.75537 7.96793 0
M  V30 3491 P 584.737 -2.75334 8.47391 0
M  V30 3492 O 584.957 -3.84128 9.44797 0
M  V30 3493 O 585.527 -1.51947 8.68712 0
M  V30 3494 O 584.987 -3.29363 6.99321 0
M  V30 3495 C 584.047 -4.24011 6.4274 0
M  V30 3496 C 584.777 -5.20775 5.52155 0
M  V30 3497 O 584.987 -4.56534 4.22446 0
M  V30 3498 C 586.177 -5.62629 5.96531 0
M  V30 3499 O 586.567 -6.87667 5.41053 0
M  V30 3500 C 587.057 -4.52537 5.39283 0
M  V30 3501 C 586.347 -4.20027 4.08623 0
M  V30 3502 N 586.397 -2.76189 3.71603 0
M  V30 3503 H 583.558 -4.797 7.24003 0
M  V30 3504 H 583.288 -3.69856 5.84513 0
M  V30 3505 H 584.155 -6.10356 5.41441 0
M  V30 3506 P 588.117 -7.20834 5.23717 0
M  V30 3507 O 588.337 -8.66189 5.38625 0
M  V30 3508 O 588.907 -6.33615 6.1356 0
M  V30 3509 O 588.367 -6.7751 3.72168 0
M  V30 3510 C 587.427 -7.20732 2.70725 0
M  V30 3511 C 588.157 -7.45864 1.40599 0
M  V30 3512 O 588.367 -6.17651 0.734225 0
M  V30 3513 C 589.557 -8.05808 1.51899 0
M  V30 3514 O 589.947 -8.74358 0.335205 0
M  V30 3515 C 590.437 -6.83093 1.70294 0
M  V30 3516 C 589.727 -5.79992 0.836974 0
M  V30 3517 N 589.777 -4.41769 1.38263 0
M  V30 3518 C 589.927 -3.38591 0.481702 0
M  V30 3519 O 590.017 -3.56839 -0.718452 0
M  V30 3520 N 589.967 -2.1206 1.03569 0
M  V30 3521 C 589.877 -1.80696 2.36966 0
M  V30 3522 C 589.727 -2.94845 3.23898 0
M  V30 3523 C 589.677 -4.19803 2.73435 0
M  V30 3524 H 586.937 -8.13644 3.0377 0
M  V30 3525 H 586.668 -6.42695 2.55448 0
M  V30 3526 H 587.535 -8.12039 0.792769 0
M  V30 3527 H 590.19 -5.79978 -0.160587 0
M  V30 3528 H 590.469 -6.51379 2.75643 0
M  V30 3529 H 591.461 -7.01734 1.34462 0
M  V30 3530 H 589.627 -8.73674 2.38337 0
M  V30 3531 H 589.556 -5.04492 3.4095 0
M  V30 3532 P 591.496 -8.91 -3.85533e-12 0
M  V30 3533 O 591.716 -10.1726 -0.733694 0
M  V30 3534 O 592.286 -8.73148 1.23936 0
M  V30 3535 O 591.746 -7.66872 -0.971405 0
M  V30 3536 C 590.806 -7.42309 -2.04641 0
M  V30 3537 C 591.536 -6.86059 -3.24661 0
M  V30 3538 O 591.746 -5.42847 -3.03646 0
M  V30 3539 C 592.937 -7.41196 -3.50753 0
M  V30 3540 O 593.327 -7.27073 -4.86816 0
M  V30 3541 C 593.817 -6.5273 -2.63741 0
M  V30 3542 C 593.106 -5.1842 -2.73198 0
M  V30 3543 N 593.156 -4.38762 -1.4784 0
M  V30 3544 H 590.317 -8.36803 -2.32493 0
M  V30 3545 H 590.048 -6.70197 -1.71129 0
M  V30 3546 H 590.914 -7.03551 -4.13168 0
M  V30 3547 P 594.876 -7.20834 -5.23717 0
M  V30 3548 O 595.096 -7.80006 -6.57415 0
M  V30 3549 O 595.666 -7.79416 -4.13051 0
M  V30 3550 O 595.126 -5.63315 -5.29344 0
M  V30 3551 C 594.186 -4.80318 -6.01954 0
M  V30 3552 C 594.916 -3.64202 -6.65911 0
M  V30 3553 O 595.126 -2.60736 -5.64823 0
M  V30 3554 C 596.316 -3.93521 -7.19518 0
M  V30 3555 O 596.706 -3.02071 -8.21205 0
M  V30 3556 C 597.196 -3.73047 -5.97036 0
M  V30 3557 C 596.486 -2.58828 -5.25741 0
M  V30 3558 N 596.536 -2.68068 -3.77503 0
M  V30 3559 C 596.456 -3.80474 -2.99159 0
M  V30 3560 N 596.526 -3.55622 -1.71925 0
M  V30 3561 C 596.676 -2.1832 -1.65733 0
M  V30 3562 C 596.806 -1.28842 -0.572777 0
M  V30 3563 N 596.816 -1.66875 0.70098 0
M  V30 3564 N 596.926 0.016788 -0.859836 0
M  V30 3565 C 596.916 0.398145 -2.13316 0
M  V30 3566 N 596.796 -0.328224 -3.22333 0
M  V30 3567 C 596.676 -1.62992 -2.90383 0
M  V30 3568 H 593.698 -5.40394 -6.8003 0
M  V30 3569 H 593.426 -4.41741 -5.32532 0
M  V30 3570 H 594.294 -3.26371 -7.47889 0
M  V30 3571 H 596.949 -1.64007 -5.56746 0
M  V30 3572 H 597.229 -4.63439 -5.3432 0
M  V30 3573 H 598.22 -3.44776 -6.25925 0
M  V30 3574 H 596.386 -4.96707 -7.57347 0
M  V30 3575 H 596.345 -4.8089 -3.39924 0
M  V30 3576 H 596.726 -2.66547 0.941919 0
M  V30 3577 H 596.915 -0.965341 1.44766 0
M  V30 3578 H 597.023 1.46427 -2.29697 0
M  V30 3579 P 598.256 -2.75334 -8.47391 0
M  V30 3580 O 598.476 -2.44619 -9.90336 0
M  V30 3581 O 599.046 -3.87776 -7.92294 0
M  V30 3582 O 598.506 -1.4459 -7.59357 0
M  V30 3583 C 597.566 -0.347653 -7.69315 0
M  V30 3584 C 598.296 0.96767 -7.52806 0
M  V30 3585 O 598.506 1.21055 -6.10208 0
M  V30 3586 C 599.696 1.04557 -8.13408 0
M  V30 3587 O 600.086 2.38311 -8.41922 0
M  V30 3588 C 600.576 0.491279 -7.02284 0
M  V30 3589 C 599.866 0.996264 -5.77469 0
M  V30 3590 N 599.916 0.0501916 -4.62973 0
M  V30 3591 H 597.078 -0.374765 -8.67791 0
M  V30 3592 H 596.806 -0.443613 -6.90476 0
M  V30 3593 H 597.674 1.75559 -7.96891 0
M  V30 3594 H 600.329 1.94563 -5.46818 0
M  V30 3595 H 600.609 -0.608651 -7.04676 0
M  V30 3596 H 601.6 0.889796 -7.09039 0
M  V30 3597 H 599.766 0.433128 -9.04664 0
M  V30 3598 P 601.636 2.75334 -8.47391 0
M  V30 3599 O 601.856 3.84166 -9.4489 0
M  V30 3600 O 602.426 1.51964 -8.6881 0
M  V30 3601 O 601.886 3.29363 -6.99321 0
M  V30 3602 C 600.946 4.23956 -6.42656 0
M  V30 3603 C 601.676 5.20775 -5.52155 0
M  V30 3604 O 601.886 4.56534 -4.22446 0
M  V30 3605 C 603.076 5.62629 -5.96531 0
M  V30 3606 O 603.466 6.87667 -5.41053 0
M  V30 3607 C 603.956 4.52537 -5.39283 0
M  V30 3608 C 603.246 4.20027 -4.08623 0
M  V30 3609 N 603.296 2.7613 -3.71522 0
M  V30 3610 C 603.446 2.45612 -2.37989 0
M  V30 3611 O 603.536 3.30919 -1.51621 0
M  V30 3612 N 603.486 1.10684 -2.08435 0
M  V30 3613 C 603.396 0.0690084 -2.9792 0
M  V30 3614 O 603.446 -1.10553 -2.59426 0
M  V30 3615 C 603.246 0.481522 -4.35345 0
M  V30 3616 C 603.136 -0.618778 -5.36443 0
M  V30 3617 C 603.196 1.78906 -4.67968 0
M  V30 3618 H 600.456 4.797 -7.24003 0
M  V30 3619 H 600.187 3.69802 -5.84429 0
M  V30 3620 H 601.054 6.10356 -5.41441 0
M  V30 3621 H 603.709 4.78651 -3.27911 0
M  V30 3622 H 603.988 3.64957 -6.05871 0
M  V30 3623 H 604.98 4.8868 -5.2125 0
M  V30 3624 H 603.146 5.66726 -7.06352 0
M  V30 3625 H 603.075 2.07737 -5.72367 0
M  V30 3626 H 604.105 -0.754375 -5.86871 0
M  V30 3627 H 602.368 -0.359721 -6.10641 0
M  V30 3628 H 602.856 -1.55533 -4.8581 0
M  V30 3629 H 603.592 0.862651 -1.12037 0
M  V30 3630 P 605.016 7.20834 -5.23717 0
M  V30 3631 O 605.236 8.66104 -5.38572 0
M  V30 3632 O 605.806 6.33544 -6.1349 0
M  V30 3633 O 605.266 6.7751 -3.72168 0
M  V30 3634 C 604.326 7.20825 -2.7076 0
M  V30 3635 C 605.056 7.45864 -1.40599 0
M  V30 3636 O 605.266 6.17651 -0.734225 0
M  V30 3637 C 606.456 8.05808 -1.51899 0
M  V30 3638 O 606.846 8.74358 -0.335205 0
M  V30 3639 C 607.336 6.83093 -1.70294 0
M  V30 3640 C 606.626 5.79992 -0.836974 0
M  V30 3641 N 606.676 4.41864 -1.38293 0
M  V30 3642 C 606.596 3.99538 -2.69438 0
M  V30 3643 N 606.676 2.69909 -2.84277 0
M  V30 3644 C 606.816 2.21719 -1.5408 0
M  V30 3645 C 606.946 0.891712 -1.06628 0
M  V30 3646 O 606.966 -0.161298 -1.70137 0
M  V30 3647 N 607.066 0.856846 0.334985 0
M  V30 3648 C 607.066 1.9641 1.15789 0
M  V30 3649 N 607.196 1.72708 2.46522 0
M  V30 3650 N 606.936 3.21165 0.713741 0
M  V30 3651 C 606.816 3.26797 -0.639748 0
M  V30 3652 H 603.837 8.13644 -3.0377 0
M  V30 3653 H 603.567 6.42788 -2.55485 0
M  V30 3654 H 604.434 8.12039 -0.792769 0
M  V30 3655 H 607.089 5.80061 0.166416 0
M  V30 3656 H 607.368 6.51287 -2.75604 0
M  V30 3657 H 608.36 7.01734 -1.34462 0
M  V30 3658 H 606.526 8.73674 -2.38337 0
M  V30 3659 H 606.477 4.68207 -3.53221 0
M  V30 3660 H 607.159 -0.0398818 0.767965 0
M  V30 3661 H 607.196 2.50995 3.13503 0
M  V30 3662 H 607.297 0.759148 2.80716 0
M  V30 3663 P 608.396 8.91 4.01252e-12 0
M  V30 3664 O 608.616 10.1726 0.733694 0
M  V30 3665 O 609.186 8.73148 -1.23936 0
M  V30 3666 O 608.646 7.66872 0.971405 0
M  V30 3667 C 607.706 7.42309 2.04641 0
M  V30 3668 C 608.436 6.86059 3.24661 0
M  V30 3669 O 608.646 5.42847 3.03646 0
M  V30 3670 C 609.836 7.41196 3.50753 0
M  V30 3671 O 610.226 7.27073 4.86816 0
M  V30 3672 C 610.716 6.5273 2.63741 0
M  V30 3673 C 610.006 5.1842 2.73198 0
M  V30 3674 N 610.056 4.38762 1.4784 0
M  V30 3675 C 609.976 4.81605 0.168631 0
M  V30 3676 N 610.056 3.85454 -0.713363 0
M  V30 3677 C 610.196 2.6994 0.0566958 0
M  V30 3678 C 610.326 1.34815 -0.338502 0
M  V30 3679 O 610.346 0.869548 -1.47125 0
M  V30 3680 N 610.446 0.496304 0.77465 0
M  V30 3681 C 610.446 0.908403 2.09122 0
M  V30 3682 N 610.576 -0.0517805 3.00955 0
M  V30 3683 N 610.316 2.17875 2.46519 0
M  V30 3684 C 610.196 3.01988 1.4033 0
M  V30 3685 H 607.217 8.36803 2.32493 0
M  V30 3686 H 606.947 6.70197 1.71129 0
M  V30 3687 H 607.814 7.03551 4.13168 0
M  V30 3688 H 610.469 4.59498 3.54415 0
M  V30 3689 H 610.748 6.88898 1.59848 0
M  V30 3690 H 611.74 6.46749 3.03687 0
M  V30 3691 H 609.906 8.46908 3.20714 0
M  V30 3692 H 609.857 5.86405 -0.105564 0
M  V30 3693 H 610.539 -0.483664 0.597855 0
M  V30 3694 H 610.576 0.187865 4.0116 0
M  V30 3695 H 610.677 -1.03585 2.71726 0
M  V30 3696 P 611.776 7.20834 5.23717 0
M  V30 3697 O 611.996 7.79853 6.57286 0
M  V30 3698 O 612.566 7.79239 4.12957 0
M  V30 3699 O 612.026 5.63315 5.29344 0
M  V30 3700 C 611.086 4.80255 6.01876 0
M  V30 3701 C 611.816 3.64202 6.65911 0
M  V30 3702 O 612.026 2.60694 5.64732 0
M  V30 3703 C 613.216 3.93473 7.1943 0
M  V30 3704 O 613.606 3.02071 8.21205 0
M  V30 3705 C 614.096 3.73047 5.97036 0
M  V30 3706 C 613.386 2.58828 5.25741 0
M  V30 3707 N 613.436 2.68068 3.77503 0
M  V30 3708 H 610.597 5.40332 6.79951 0
M  V30 3709 H 610.327 4.41613 5.32378 0
M  V30 3710 H 611.194 3.26331 7.47797 0
M  V30 3711 P 615.156 2.75334 8.47391 0
M  V30 3712 O 615.376 2.44595 9.90239 0
M  V30 3713 O 615.946 3.87732 7.92204 0
M  V30 3714 O 615.406 1.4459 7.59357 0
M  V30 3715 C 614.466 0.347563 7.69115 0
M  V30 3716 C 615.196 -0.96767 7.52806 0
M  V30 3717 O 615.406 -1.21036 6.1011 0
M  V30 3718 C 616.596 -1.04544 8.13308 0
M  V30 3719 O 616.986 -2.38311 8.41922 0
M  V30 3720 C 617.476 -0.491279 7.02284 0
M  V30 3721 C 616.766 -0.996264 5.77469 0
M  V30 3722 N 616.816 -0.0501808 4.62873 0
M  V30 3723 C 616.966 -0.588177 3.36904 0
M  V30 3724 O 617.056 -1.78598 3.17173 0
M  V30 3725 N 617.006 0.329694 2.33686 0
M  V30 3726 C 616.916 1.6953 2.45079 0
M  V30 3727 O 616.966 2.41926 1.44899 0
M  V30 3728 C 616.766 2.16933 3.80505 0
M  V30 3729 C 616.656 3.65373 3.97621 0
M  V30 3730 C 616.716 1.30326 4.83752 0
M  V30 3731 H 613.976 0.374722 8.67691 0
M  V30 3732 H 613.707 0.443421 6.90177 0
M  V30 3733 H 614.574 -1.75537 7.96793 0
M  V30 3734 H 617.229 -1.94496 5.46629 0
M  V30 3735 H 617.508 0.608651 7.04676 0
M  V30 3736 H 618.5 -0.889672 7.08939 0
M  V30 3737 H 616.666 -0.43308 9.04564 0
M  V30 3738 H 616.595 1.68366 5.8516 0
M  V30 3739 H 617.625 4.05985 4.30448 0
M  V30 3740 H 615.888 3.88028 4.72875 0
M  V30 3741 H 616.376 4.11381 3.01609 0
M  V30 3742 H 617.112 -0.0393617 1.41345 0
M  V30 3743 P 618.536 -2.75334 8.47391 0
M  V30 3744 O 618.756 -3.84128 9.44797 0
M  V30 3745 O 619.326 -1.51947 8.68712 0
M  V30 3746 O 618.786 -3.29363 6.99321 0
M  V30 3747 C 617.846 -4.24011 6.4274 0
M  V30 3748 C 618.576 -5.20775 5.52155 0
M  V30 3749 O 618.786 -4.56534 4.22446 0
M  V30 3750 C 619.976 -5.62629 5.96531 0
M  V30 3751 O 620.366 -6.87667 5.41053 0
M  V30 3752 C 620.856 -4.52537 5.39283 0
M  V30 3753 C 620.146 -4.20027 4.08623 0
M  V30 3754 N 620.196 -2.76189 3.71603 0
M  V30 3755 H 617.357 -4.797 7.24003 0
M  V30 3756 H 617.087 -3.69856 5.84513 0
M  V30 3757 H 617.954 -6.10356 5.41441 0
M  V30 3758 P 621.916 -7.20834 5.23717 0
M  V30 3759 O 622.136 -8.66274 5.38678 0
M  V30 3760 O 622.706 -6.33687 6.13629 0
M  V30 3761 O 622.166 -6.7751 3.72168 0
M  V30 3762 C 621.226 -7.20919 2.70795 0
M  V30 3763 C 621.956 -7.45864 1.40599 0
M  V30 3764 O 622.166 -6.17751 0.734343 0
M  V30 3765 C 623.356 -8.05906 1.51917 0
M  V30 3766 O 623.746 -8.74358 0.335205 0
M  V30 3767 C 624.236 -6.83093 1.70294 0
M  V30 3768 C 623.526 -5.79992 0.836974 0
M  V30 3769 N 623.576 -4.41864 1.38293 0
M  V30 3770 H 620.738 -8.13738 3.03804 0
M  V30 3771 H 620.466 -6.42974 2.55559 0
M  V30 3772 H 621.334 -8.12139 0.792866 0
M  V30 3773 H 623.989 -5.80178 -0.160643 0
M  V30 3774 H 624.269 -6.51379 2.75643 0
M  V30 3775 H 625.26 -7.01832 1.3448 0
M  V30 3776 H 623.426 -8.73771 2.38364 0
M  V30 3777 P 625.296 -8.91 -4.1697e-12 0
M  V30 3778 O 625.516 -10.1746 -0.733838 0
M  V30 3779 O 626.086 -8.73346 1.23964 0
M  V30 3780 O 625.546 -7.66872 -0.971405 0
M  V30 3781 C 624.606 -7.42405 -2.04668 0
M  V30 3782 C 625.336 -6.86059 -3.24661 0
M  V30 3783 O 625.546 -5.42934 -3.03695 0
M  V30 3784 C 626.736 -7.41287 -3.50796 0
M  V30 3785 O 627.126 -7.27073 -4.86816 0
M  V30 3786 C 627.616 -6.5273 -2.63741 0
M  V30 3787 C 626.906 -5.1842 -2.73198 0
M  V30 3788 N 626.956 -4.38762 -1.4784 0
M  V30 3789 C 626.876 -4.83651 -0.183876 0
M  V30 3790 N 626.946 -3.88759 0.699393 0
M  V30 3791 C 627.096 -2.7404 -0.0575568 0
M  V30 3792 C 627.226 -1.37902 0.293928 0
M  V30 3793 N 627.236 -0.938021 1.54797 0
M  V30 3794 N 627.346 -0.491817 -0.70549 0
M  V30 3795 C 627.336 -0.931735 -1.95979 0
M  V30 3796 N 627.216 -2.16017 -2.41481 0
M  V30 3797 C 627.096 -3.02547 -1.39121 0
M  V30 3798 H 624.118 -8.36899 -2.3252 0
M  V30 3799 H 623.846 -6.70391 -1.71179 0
M  V30 3800 H 624.714 -7.03638 -4.13219 0
M  V30 3801 H 627.369 -4.59931 -3.54016 0
M  V30 3802 H 627.649 -6.88995 -1.59871 0
M  V30 3803 H 628.64 -6.4684 -3.0373 0
M  V30 3804 H 626.806 -8.47002 -3.20749 0
M  V30 3805 H 626.765 -5.8885 0.0765548 0
M  V30 3806 H 627.146 -1.60276 2.32875 0
M  V30 3807 H 627.335 0.0699355 1.73859 0
M  V30 3808 H 627.443 -0.165507 -2.71897 0
M  V30 3809 P 628.676 -7.20834 -5.23717 0
M  V30 3810 O 628.896 -7.79853 -6.57286 0
M  V30 3811 O 629.466 -7.79239 -4.12957 0
M  V30 3812 O 628.926 -5.63315 -5.29344 0
M  V30 3813 C 627.986 -4.80255 -6.01876 0
M  V30 3814 C 628.716 -3.64202 -6.65911 0
M  V30 3815 O 628.926 -2.60694 -5.64732 0
M  V30 3816 C 630.116 -3.93473 -7.1943 0
M  V30 3817 O 630.506 -3.02071 -8.21205 0
M  V30 3818 C 630.996 -3.73047 -5.97036 0
M  V30 3819 C 630.286 -2.58828 -5.25741 0
M  V30 3820 N 630.336 -2.68068 -3.77503 0
M  V30 3821 H 627.497 -5.40332 -6.79951 0
M  V30 3822 H 627.227 -4.41613 -5.32378 0
M  V30 3823 H 628.094 -3.26331 -7.47797 0
M  V30 3824 P 632.056 -2.75334 -8.47391 0
M  V30 3825 O 632.276 -2.44619 -9.90336 0
M  V30 3826 O 632.846 -3.87776 -7.92294 0
M  V30 3827 O 632.306 -1.4459 -7.59357 0
M  V30 3828 C 631.366 -0.347653 -7.69315 0
M  V30 3829 C 632.096 0.96767 -7.52806 0
M  V30 3830 O 632.306 1.21055 -6.10208 0
M  V30 3831 C 633.496 1.04557 -8.13408 0
M  V30 3832 O 633.886 2.38311 -8.41922 0
M  V30 3833 C 634.376 0.491279 -7.02284 0
M  V30 3834 C 633.666 0.996264 -5.77469 0
M  V30 3835 N 633.716 0.0501916 -4.62973 0
M  V30 3836 C 633.636 -1.31969 -4.65661 0
M  V30 3837 N 633.706 -1.86649 -3.48119 0
M  V30 3838 C 633.856 -0.792089 -2.62406 0
M  V30 3839 C 633.986 -0.705684 -1.2207 0
M  V30 3840 N 633.996 -1.76207 -0.413762 0
M  V30 3841 N 634.106 0.518981 -0.685754 0
M  V30 3842 C 634.096 1.57595 -1.49174 0
M  V30 3843 N 633.976 1.62909 -2.80066 0
M  V30 3844 C 633.856 0.388195 -3.3073 0
M  V30 3845 H 630.878 -0.374765 -8.67791 0
M  V30 3846 H 630.606 -0.443613 -6.90476 0
M  V30 3847 H 631.474 1.75559 -7.96891 0
M  V30 3848 H 634.129 1.94563 -5.46818 0
M  V30 3849 H 634.409 -0.608651 -7.04676 0
M  V30 3850 H 635.4 0.889796 -7.09039 0
M  V30 3851 H 633.566 0.433128 -9.04664 0
M  V30 3852 H 633.525 -1.89246 -5.57664 0
M  V30 3853 H 633.906 -2.71005 -0.804694 0
M  V30 3854 H 634.095 -1.63189 0.603768 0
M  V30 3855 H 634.203 2.53475 -0.997614 0
M  V30 3856 P 635.436 2.75334 -8.47391 0
M  V30 3857 O 635.656 3.84204 -9.44982 0
M  V30 3858 O 636.226 1.51982 -8.68909 0
M  V30 3859 O 635.686 3.29363 -6.99321 0
M  V30 3860 C 634.746 4.24066 -6.42823 0
M  V30 3861 C 635.476 5.20775 -5.52155 0
M  V30 3862 O 635.686 4.56607 -4.22514 0
M  V30 3863 C 636.876 5.62697 -5.96604 0
M  V30 3864 O 637.266 6.87667 -5.41053 0
M  V30 3865 C 637.756 4.52537 -5.39283 0
M  V30 3866 C 637.046 4.20027 -4.08623 0
M  V30 3867 N 637.096 2.76189 -3.71603 0
M  V30 3868 H 634.258 4.79756 -7.24086 0
M  V30 3869 H 633.986 3.69963 -5.84682 0
M  V30 3870 H 634.854 6.10431 -5.41508 0
M  V30 3871 H 637.509 4.78816 -3.28024 0
M  V30 3872 H 637.789 3.64957 -6.05871 0
M  V30 3873 H 638.78 4.88748 -5.21323 0
M  V30 3874 H 636.946 5.66789 -7.0643 0
M  V30 3875 P 638.816 7.20834 -5.23717 0
M  V30 3876 O 639.036 8.66104 -5.38572 0
M  V30 3877 O 639.606 6.33544 -6.1349 0
M  V30 3878 O 639.066 6.7751 -3.72168 0
M  V30 3879 C 638.126 7.20825 -2.7076 0
M  V30 3880 C 638.856 7.45864 -1.40599 0
M  V30 3881 O 639.066 6.17651 -0.734225 0
M  V30 3882 C 640.256 8.05808 -1.51899 0
M  V30 3883 O 640.646 8.74358 -0.335205 0
M  V30 3884 C 641.136 6.83093 -1.70294 0
M  V30 3885 C 640.426 5.79992 -0.836974 0
M  V30 3886 N 640.476 4.41864 -1.38293 0
M  V30 3887 H 637.637 8.13644 -3.0377 0
M  V30 3888 H 637.367 6.42788 -2.55485 0
M  V30 3889 H 638.234 8.12039 -0.792769 0
M  V30 3890 P 642.196 8.91 4.32688e-12 0
M  V30 3891 O 642.416 10.1726 0.733694 0
M  V30 3892 O 642.986 8.73148 -1.23936 0
M  V30 3893 O 642.446 7.66872 0.971405 0
M  V30 3894 C 641.506 7.42309 2.04641 0
M  V30 3895 C 642.236 6.86059 3.24661 0
M  V30 3896 O 642.446 5.42847 3.03646 0
M  V30 3897 C 643.636 7.41196 3.50753 0
M  V30 3898 O 644.026 7.27073 4.86816 0
M  V30 3899 C 644.516 6.5273 2.63741 0
M  V30 3900 C 643.806 5.1842 2.73198 0
M  V30 3901 N 643.856 4.38762 1.4784 0
M  V30 3902 C 643.776 4.81605 0.168631 0
M  V30 3903 N 643.856 3.85454 -0.713363 0
M  V30 3904 C 643.996 2.6994 0.0566958 0
M  V30 3905 C 644.126 1.34815 -0.338502 0
M  V30 3906 O 644.146 0.869548 -1.47125 0
M  V30 3907 N 644.246 0.496304 0.77465 0
M  V30 3908 C 644.246 0.908403 2.09122 0
M  V30 3909 N 644.376 -0.0517805 3.00955 0
M  V30 3910 N 644.116 2.17875 2.46519 0
M  V30 3911 C 643.996 3.01988 1.4033 0
M  V30 3912 H 641.017 8.36803 2.32493 0
M  V30 3913 H 640.747 6.70197 1.71129 0
M  V30 3914 H 641.614 7.03551 4.13168 0
M  V30 3915 H 644.269 4.59498 3.54415 0
M  V30 3916 H 644.548 6.88898 1.59848 0
M  V30 3917 H 645.54 6.46749 3.03687 0
M  V30 3918 H 643.706 8.46908 3.20714 0
M  V30 3919 H 643.657 5.86405 -0.105564 0
M  V30 3920 H 644.339 -0.483664 0.597855 0
M  V30 3921 H 644.376 0.187865 4.0116 0
M  V30 3922 H 644.477 -1.03585 2.71726 0
M  V30 3923 P 645.576 7.20834 5.23717 0
M  V30 3924 O 645.796 7.79853 6.57286 0
M  V30 3925 O 646.366 7.79239 4.12957 0
M  V30 3926 O 645.826 5.63315 5.29344 0
M  V30 3927 C 644.886 4.80255 6.01876 0
M  V30 3928 C 645.616 3.64202 6.65911 0
M  V30 3929 O 645.826 2.60694 5.64732 0
M  V30 3930 C 647.016 3.93473 7.1943 0
M  V30 3931 O 647.406 3.02071 8.21205 0
M  V30 3932 C 647.896 3.73047 5.97036 0
M  V30 3933 C 647.186 2.58828 5.25741 0
M  V30 3934 N 647.236 2.68068 3.77503 0
M  V30 3935 H 644.397 5.40332 6.79951 0
M  V30 3936 H 644.127 4.41613 5.32378 0
M  V30 3937 H 644.994 3.26331 7.47797 0
M  V30 3938 P 648.956 2.75334 8.47391 0
M  V30 3939 O 649.176 2.44595 9.90239 0
M  V30 3940 O 649.746 3.87732 7.92204 0
M  V30 3941 O 649.206 1.4459 7.59357 0
M  V30 3942 C 648.266 0.347563 7.69115 0
M  V30 3943 C 648.996 -0.96767 7.52806 0
M  V30 3944 O 649.206 -1.21036 6.1011 0
M  V30 3945 C 650.396 -1.04544 8.13308 0
M  V30 3946 O 650.786 -2.38311 8.41922 0
M  V30 3947 C 651.276 -0.491279 7.02284 0
M  V30 3948 C 650.566 -0.996264 5.77469 0
M  V30 3949 N 650.616 -0.0501808 4.62873 0
M  V30 3950 C 650.766 -0.588177 3.36904 0
M  V30 3951 O 650.856 -1.78598 3.17173 0
M  V30 3952 N 650.806 0.329694 2.33686 0
M  V30 3953 C 650.716 1.6953 2.45079 0
M  V30 3954 O 650.766 2.41926 1.44899 0
M  V30 3955 C 650.566 2.16933 3.80505 0
M  V30 3956 C 650.456 3.65373 3.97621 0
M  V30 3957 C 650.516 1.30326 4.83752 0
M  V30 3958 H 647.776 0.374722 8.67691 0
M  V30 3959 H 647.507 0.443421 6.90177 0
M  V30 3960 H 648.374 -1.75537 7.96793 0
M  V30 3961 H 651.029 -1.94496 5.46629 0
M  V30 3962 H 651.308 0.608651 7.04676 0
M  V30 3963 H 652.3 -0.889672 7.08939 0
M  V30 3964 H 650.466 -0.43308 9.04564 0
M  V30 3965 H 650.395 1.68366 5.8516 0
M  V30 3966 H 651.425 4.05985 4.30448 0
M  V30 3967 H 649.688 3.88028 4.72875 0
M  V30 3968 H 650.176 4.11381 3.01609 0
M  V30 3969 H 650.912 -0.0393617 1.41345 0
M  V30 3970 P 652.336 -2.75334 8.47391 0
M  V30 3971 O 652.556 -3.84128 9.44797 0
M  V30 3972 O 653.126 -1.51947 8.68712 0
M  V30 3973 O 652.586 -3.29363 6.99321 0
M  V30 3974 C 651.646 -4.24011 6.4274 0
M  V30 3975 C 652.376 -5.20775 5.52155 0
M  V30 3976 O 652.586 -4.56534 4.22446 0
M  V30 3977 C 653.776 -5.62629 5.96531 0
M  V30 3978 O 654.166 -6.87667 5.41053 0
M  V30 3979 C 654.656 -4.52537 5.39283 0
M  V30 3980 C 653.946 -4.20027 4.08623 0
M  V30 3981 N 653.996 -2.76189 3.71603 0
M  V30 3982 H 651.157 -4.797 7.24003 0
M  V30 3983 H 650.887 -3.69856 5.84513 0
M  V30 3984 H 651.754 -6.10356 5.41441 0
M  V30 3985 P 655.716 -7.20834 5.23717 0
M  V30 3986 O 655.936 -8.66104 5.38572 0
M  V30 3987 O 656.506 -6.33544 6.1349 0
M  V30 3988 O 655.966 -6.7751 3.72168 0
M  V30 3989 C 655.026 -7.20825 2.7076 0
M  V30 3990 C 655.756 -7.45864 1.40599 0
M  V30 3991 O 655.966 -6.17651 0.734225 0
M  V30 3992 C 657.156 -8.05808 1.51899 0
M  V30 3993 O 657.546 -8.74358 0.335205 0
M  V30 3994 C 658.036 -6.83093 1.70294 0
M  V30 3995 C 657.326 -5.79992 0.836974 0
M  V30 3996 N 657.376 -4.41864 1.38293 0
M  V30 3997 H 654.537 -8.13644 3.0377 0
M  V30 3998 H 654.267 -6.42788 2.55485 0
M  V30 3999 H 655.134 -8.12039 0.792769 0
M  V30 4000 P 659.096 -8.91 -4.48406e-12 0
M  V30 4001 O 659.316 -10.1726 -0.733694 0
M  V30 4002 O 659.886 -8.73148 1.23936 0
M  V30 4003 O 659.346 -7.66872 -0.971405 0
M  V30 4004 C 658.406 -7.42309 -2.04641 0
M  V30 4005 C 659.136 -6.86059 -3.24661 0
M  V30 4006 O 659.346 -5.42847 -3.03646 0
M  V30 4007 C 660.536 -7.41196 -3.50753 0
M  V30 4008 O 660.926 -7.27073 -4.86816 0
M  V30 4009 C 661.416 -6.5273 -2.63741 0
M  V30 4010 C 660.706 -5.1842 -2.73198 0
M  V30 4011 N 660.756 -4.38762 -1.4784 0
M  V30 4012 H 657.917 -8.36803 -2.32493 0
M  V30 4013 H 657.647 -6.70197 -1.71129 0
M  V30 4014 H 658.514 -7.03551 -4.13168 0
M  V30 4015 P 662.476 -7.20834 -5.23717 0
M  V30 4016 O 662.696 -7.79853 -6.57286 0
M  V30 4017 O 663.266 -7.79239 -4.12957 0
M  V30 4018 O 662.726 -5.63315 -5.29344 0
M  V30 4019 C 661.786 -4.80255 -6.01876 0
M  V30 4020 C 662.516 -3.64202 -6.65911 0
M  V30 4021 O 662.726 -2.60694 -5.64732 0
M  V30 4022 C 663.916 -3.93473 -7.1943 0
M  V30 4023 O 664.306 -3.02071 -8.21205 0
M  V30 4024 C 664.796 -3.73047 -5.97036 0
M  V30 4025 C 664.086 -2.58828 -5.25741 0
M  V30 4026 N 664.136 -2.68068 -3.77503 0
M  V30 4027 H 661.297 -5.40332 -6.79951 0
M  V30 4028 H 661.027 -4.41613 -5.32378 0
M  V30 4029 H 661.894 -3.26331 -7.47797 0
M  V30 4030 P 665.856 -2.75334 -8.47391 0
M  V30 4031 O 666.076 -2.44571 -9.90142 0
M  V30 4032 O 666.646 -3.87688 -7.92115 0
M  V30 4033 O 666.106 -1.4459 -7.59357 0
M  V30 4034 C 665.166 -0.347608 -7.69215 0
M  V30 4035 C 665.896 0.96767 -7.52806 0
M  V30 4036 O 666.106 1.21036 -6.1011 0
M  V30 4037 C 667.296 1.04544 -8.13308 0
M  V30 4038 O 667.686 2.38311 -8.41922 0
M  V30 4039 C 668.176 0.491279 -7.02284 0
M  V30 4040 C 667.466 0.996264 -5.77469 0
M  V30 4041 N 667.516 0.0501916 -4.62973 0
M  V30 4042 C 667.436 -1.32786 -4.63244 0
M  V30 4043 N 667.516 -1.86957 -3.44545 0
M  V30 4044 C 667.656 -0.780241 -2.58481 0
M  V30 4045 C 667.786 -0.738536 -1.17757 0
M  V30 4046 O 667.806 -1.66794 -0.372349 0
M  V30 4047 N 667.906 0.58337 -0.711393 0
M  V30 4048 C 667.906 1.70816 -1.51017 0
M  V30 4049 N 668.036 2.87826 -0.880757 0
M  V30 4050 N 667.776 1.67126 -2.8339 0
M  V30 4051 C 667.656 0.401421 -3.30572 0
M  V30 4052 H 664.677 -0.374722 -8.67691 0
M  V30 4053 H 664.407 -0.443485 -6.90277 0
M  V30 4054 H 665.274 1.75537 -7.96793 0
M  V30 4055 H 667.929 1.95076 -5.46529 0
M  V30 4056 H 668.208 -0.608565 -7.04577 0
M  V30 4057 H 669.2 0.889672 -7.08939 0
M  V30 4058 H 667.366 0.43308 -9.04564 0
M  V30 4059 H 667.317 -1.91249 -5.54442 0
M  V30 4060 H 667.999 0.718054 0.275244 0
M  V30 4061 H 668.036 3.75721 -1.41832 0
M  V30 4062 H 668.137 2.90436 0.145468 0
M  V30 4063 P 669.236 2.75334 -8.47391 0
M  V30 4064 O 669.456 3.84128 -9.44797 0
M  V30 4065 O 670.026 1.51947 -8.68712 0
M  V30 4066 O 669.486 3.29363 -6.99321 0
M  V30 4067 C 668.546 4.24011 -6.4274 0
M  V30 4068 C 669.276 5.20775 -5.52155 0
M  V30 4069 O 669.486 4.56534 -4.22446 0
M  V30 4070 C 670.676 5.62629 -5.96531 0
M  V30 4071 O 671.066 6.87667 -5.41053 0
M  V30 4072 C 671.556 4.52537 -5.39283 0
M  V30 4073 C 670.846 4.20027 -4.08623 0
M  V30 4074 N 670.896 2.76189 -3.71603 0
M  V30 4075 H 668.057 4.797 -7.24003 0
M  V30 4076 H 667.787 3.69856 -5.84513 0
M  V30 4077 H 668.654 6.10356 -5.41441 0
M  V30 4078 P 672.616 7.20834 -5.23717 0
M  V30 4079 O 672.836 8.66274 -5.38678 0
M  V30 4080 O 673.406 6.33687 -6.13629 0
M  V30 4081 O 672.866 6.7751 -3.72168 0
M  V30 4082 C 671.926 7.20919 -2.70795 0
M  V30 4083 C 672.656 7.45864 -1.40599 0
M  V30 4084 O 672.866 6.17751 -0.734343 0
M  V30 4085 C 674.056 8.05906 -1.51917 0
M  V30 4086 O 674.446 8.74358 -0.335205 0
M  V30 4087 C 674.936 6.83093 -1.70294 0
M  V30 4088 C 674.226 5.79992 -0.836974 0
M  V30 4089 N 674.276 4.41864 -1.38293 0
M  V30 4090 C 674.196 4.02089 -2.69407 0
M  V30 4091 N 674.266 2.73403 -2.85089 0
M  V30 4092 C 674.416 2.25086 -1.5642 0
M  V30 4093 C 674.546 0.942887 -1.04836 0
M  V30 4094 N 674.556 -0.150999 -1.80369 0
M  V30 4095 N 674.666 0.812565 0.28167 0
M  V30 4096 C 674.656 1.90572 1.03784 0
M  V30 4097 N 674.536 3.167 0.683905 0
M  V30 4098 C 674.416 3.26538 -0.652815 0
M  V30 4099 H 671.438 8.13738 -3.03804 0
M  V30 4100 H 671.166 6.42974 -2.55559 0
M  V30 4101 H 672.034 8.12139 -0.792866 0
M  V30 4102 H 674.689 5.80178 0.160643 0
M  V30 4103 H 674.969 6.51379 -2.75643 0
M  V30 4104 H 675.96 7.01832 -1.3448 0
M  V30 4105 H 674.126 8.73771 -2.38364 0
M  V30 4106 H 674.085 4.7189 -3.52311 0
M  V30 4107 H 674.466 -0.0721434 -2.82608 0
M  V30 4108 H 674.655 -1.0785 -1.36544 0
M  V30 4109 H 674.763 1.73207 2.10241 0
M  V30 4110 P 675.996 8.91 4.64125e-12 0
M  V30 4111 O 676.216 10.1736 0.733766 0
M  V30 4112 O 676.786 8.73247 -1.2395 0
M  V30 4113 O 676.246 7.66872 0.971405 0
M  V30 4114 C 675.306 7.42212 2.04614 0
M  V30 4115 C 676.036 6.86059 3.24661 0
M  V30 4116 O 676.246 5.42847 3.03646 0
M  V30 4117 C 677.436 7.41196 3.50753 0
M  V30 4118 O 677.826 7.27073 4.86816 0
M  V30 4119 C 678.316 6.5273 2.63741 0
M  V30 4120 C 677.606 5.1842 2.73198 0
M  V30 4121 N 677.656 4.38668 1.47808 0
M  V30 4122 C 677.806 3.02239 1.60048 0
M  V30 4123 O 677.896 2.46459 2.67869 0
M  V30 4124 N 677.846 2.32436 0.408571 0
M  V30 4125 C 677.756 2.85471 -0.854993 0
M  V30 4126 O 677.806 2.12566 -1.8531 0
M  V30 4127 C 677.606 4.28918 -0.887335 0
M  V30 4128 C 677.496 4.91066 -2.24619 0
M  V30 4129 C 677.556 5.00349 0.255399 0
M  V30 4130 H 674.816 8.36803 2.32493 0
M  V30 4131 H 674.547 6.701 1.71105 0
M  V30 4132 H 675.414 7.03551 4.13168 0
M  V30 4133 H 678.069 4.59773 3.53894 0
M  V30 4134 H 678.348 6.88995 1.59871 0
M  V30 4135 H 679.34 6.46749 3.03687 0
M  V30 4136 H 677.506 8.46908 3.20714 0
M  V30 4137 H 677.435 6.08548 0.206986 0
M  V30 4138 H 678.465 5.34836 -2.53099 0
M  V30 4139 H 676.728 5.69638 -2.2291 0
M  V30 4140 H 677.216 4.13971 -2.98044 0
M  V30 4141 H 677.952 1.33211 0.474216 0
M  V30 4142 P 679.376 7.20834 5.23717 0
M  V30 4143 O 679.596 7.79853 6.57286 0
M  V30 4144 O 680.166 7.79239 4.12957 0
M  V30 4145 O 679.626 5.63315 5.29344 0
M  V30 4146 C 678.686 4.80255 6.01876 0
M  V30 4147 C 679.416 3.64202 6.65911 0
M  V30 4148 O 679.626 2.60694 5.64732 0
M  V30 4149 C 680.816 3.93473 7.1943 0
M  V30 4150 O 681.206 3.02071 8.21205 0
M  V30 4151 C 681.696 3.73047 5.97036 0
M  V30 4152 C 680.986 2.58828 5.25741 0
M  V30 4153 N 681.036 2.68068 3.77503 0
M  V30 4154 H 678.197 5.40332 6.79951 0
M  V30 4155 H 677.927 4.41613 5.32378 0
M  V30 4156 H 678.794 3.26331 7.47797 0
M  V30 4157 P 682.756 2.75334 8.47391 0
M  V30 4158 O 682.976 2.44571 9.90142 0
M  V30 4159 O 683.546 3.87688 7.92115 0
M  V30 4160 O 683.006 1.4459 7.59357 0
M  V30 4161 C 682.066 0.347608 7.69215 0
M  V30 4162 C 682.796 -0.96767 7.52806 0
M  V30 4163 O 683.006 -1.21036 6.1011 0
M  V30 4164 C 684.196 -1.04544 8.13308 0
M  V30 4165 O 684.586 -2.38311 8.41922 0
M  V30 4166 C 685.076 -0.491279 7.02284 0
M  V30 4167 C 684.366 -0.996264 5.77469 0
M  V30 4168 N 684.416 -0.0501916 4.62973 0
M  V30 4169 H 681.577 0.374722 8.67691 0
M  V30 4170 H 681.307 0.443485 6.90277 0
M  V30 4171 H 682.174 -1.75537 7.96793 0
M  V30 4172 P 686.136 -2.75334 8.47391 0
M  V30 4173 O 686.356 -3.84128 9.44797 0
M  V30 4174 O 686.926 -1.51947 8.68712 0
M  V30 4175 O 686.386 -3.29363 6.99321 0
M  V30 4176 C 685.446 -4.24011 6.4274 0
M  V30 4177 C 686.176 -5.20775 5.52155 0
M  V30 4178 O 686.386 -4.56534 4.22446 0
M  V30 4179 C 687.576 -5.62629 5.96531 0
M  V30 4180 O 687.966 -6.87667 5.41053 0
M  V30 4181 C 688.456 -4.52537 5.39283 0
M  V30 4182 C 687.746 -4.20027 4.08623 0
M  V30 4183 N 687.796 -2.76189 3.71603 0
M  V30 4184 C 687.716 -1.64862 4.52822 0
M  V30 4185 N 687.796 -0.512671 3.88633 0
M  V30 4186 C 687.936 -0.888083 2.54977 0
M  V30 4187 C 688.066 -0.094668 1.38677 0
M  V30 4188 N 688.186 -0.890102 0.232633 0
M  V30 4189 C 688.186 -2.26958 0.21772 0
M  V30 4190 N 688.316 -2.84626 -0.97925 0
M  V30 4191 N 688.056 -3.0178 1.31033 0
M  V30 4192 C 687.936 -2.26781 2.43843 0
M  V30 4193 H 684.957 -4.797 7.24003 0
M  V30 4194 H 684.687 -3.69856 5.84513 0
M  V30 4195 H 685.554 -6.10356 5.41441 0
M  V30 4196 P 689.516 -7.20834 5.23717 0
M  V30 4197 O 689.736 -8.66104 5.38572 0
M  V30 4198 O 690.306 -6.33544 6.1349 0
M  V30 4199 O 689.766 -6.7751 3.72168 0
M  V30 4200 C 688.826 -7.20825 2.7076 0
M  V30 4201 C 689.556 -7.45864 1.40599 0
M  V30 4202 O 689.766 -6.17651 0.734225 0
M  V30 4203 C 690.956 -8.05808 1.51899 0
M  V30 4204 O 691.346 -8.74358 0.335205 0
M  V30 4205 C 691.836 -6.83093 1.70294 0
M  V30 4206 C 691.126 -5.79992 0.836974 0
M  V30 4207 N 691.176 -4.41864 1.38293 0
M  V30 4208 H 688.337 -8.13644 3.0377 0
M  V30 4209 H 688.067 -6.42788 2.55485 0
M  V30 4210 H 688.934 -8.12039 0.792769 0
M  V30 4211 P 692.896 -8.91 -4.67181e-12 0
M  V30 4212 O 693.116 -10.1726 -0.733694 0
M  V30 4213 O 693.686 -8.73148 1.23936 0
M  V30 4214 O 693.146 -7.66872 -0.971405 0
M  V30 4215 C 692.206 -7.42309 -2.04641 0
M  V30 4216 C 692.936 -6.86059 -3.24661 0
M  V30 4217 O 693.146 -5.42847 -3.03646 0
M  V30 4218 C 694.336 -7.41196 -3.50753 0
M  V30 4219 O 694.726 -7.27073 -4.86816 0
M  V30 4220 C 695.216 -6.5273 -2.63741 0
M  V30 4221 C 694.506 -5.1842 -2.73198 0
M  V30 4222 N 694.556 -4.38762 -1.4784 0
M  V30 4223 H 691.717 -8.36803 -2.32493 0
M  V30 4224 H 691.447 -6.70197 -1.71129 0
M  V30 4225 H 692.314 -7.03551 -4.13168 0
M  V30 4226 P 696.276 -7.20834 -5.23717 0
M  V30 4227 O 696.496 -7.79853 -6.57286 0
M  V30 4228 O 697.066 -7.79239 -4.12957 0
M  V30 4229 O 696.526 -5.63315 -5.29344 0
M  V30 4230 C 695.586 -4.80255 -6.01876 0
M  V30 4231 C 696.316 -3.64202 -6.65911 0
M  V30 4232 O 696.526 -2.60694 -5.64732 0
M  V30 4233 C 697.716 -3.93473 -7.1943 0
M  V30 4234 O 698.106 -3.02071 -8.21205 0
M  V30 4235 C 698.596 -3.73047 -5.97036 0
M  V30 4236 C 697.886 -2.58828 -5.25741 0
M  V30 4237 N 697.936 -2.68068 -3.77503 0
M  V30 4238 C 697.856 -3.79715 -2.96723 0
M  V30 4239 N 697.936 -3.5377 -1.68852 0
M  V30 4240 C 698.076 -2.15054 -1.63254 0
M  V30 4241 C 698.206 -1.28964 -0.518571 0
M  V30 4242 N 698.326 0.0538097 -0.918425 0
M  V30 4243 C 698.326 0.494275 -2.22578 0
M  V30 4244 N 698.456 1.81086 -2.40434 0
M  V30 4245 N 698.196 -0.313645 -3.27502 0
M  V30 4246 C 698.076 -1.61829 -2.91033 0
M  V30 4247 H 695.097 -5.40332 -6.79951 0
M  V30 4248 H 694.827 -4.41613 -5.32378 0
M  V30 4249 H 695.694 -3.26331 -7.47797 0
M  V30 4250 P 699.656 -2.75334 -8.47391 0
M  V30 4251 O 699.876 -2.44571 -9.90142 0
M  V30 4252 O 700.446 -3.87688 -7.92115 0
M  V30 4253 O 699.906 -1.4459 -7.59357 0
M  V30 4254 C 698.966 -0.347608 -7.69215 0
M  V30 4255 C 699.696 0.96767 -7.52806 0
M  V30 4256 O 699.906 1.21036 -6.1011 0
M  V30 4257 C 701.096 1.04544 -8.13308 0
M  V30 4258 O 701.486 2.38311 -8.41922 0
M  V30 4259 C 701.976 0.491279 -7.02284 0
M  V30 4260 C 701.266 0.996264 -5.77469 0
M  V30 4261 N 701.316 0.0501916 -4.62973 0
M  V30 4262 H 698.477 -0.374722 -8.67691 0
M  V30 4263 H 698.207 -0.443485 -6.90277 0
M  V30 4264 H 699.074 1.75537 -7.96793 0
M  V30 4265 P 703.036 2.75334 -8.47391 0
M  V30 4266 O 703.256 3.84204 -9.44982 0
M  V30 4267 O 703.826 1.51982 -8.68909 0
M  V30 4268 O 703.286 3.29363 -6.99321 0
M  V30 4269 C 702.346 4.24066 -6.42823 0
M  V30 4270 C 703.076 5.20775 -5.52155 0
M  V30 4271 O 703.286 4.56607 -4.22514 0
M  V30 4272 C 704.476 5.62697 -5.96604 0
M  V30 4273 O 704.866 6.87667 -5.41053 0
M  V30 4274 C 705.356 4.52537 -5.39283 0
M  V30 4275 C 704.646 4.20027 -4.08623 0
M  V30 4276 N 704.696 2.76189 -3.71603 0
M  V30 4277 C 704.616 1.66944 -4.54297 0
M  V30 4278 N 704.686 0.536169 -3.91344 0
M  V30 4279 C 704.836 0.901569 -2.58849 0
M  V30 4280 C 704.966 0.146599 -1.40236 0
M  V30 4281 N 704.976 -1.18234 -1.37046 0
M  V30 4282 N 705.086 0.822941 -0.249738 0
M  V30 4283 C 705.076 2.15179 -0.280525 0
M  V30 4284 N 704.956 2.96414 -1.30822 0
M  V30 4285 C 704.836 2.25804 -2.44748 0
M  V30 4286 H 701.858 4.79756 -7.24086 0
M  V30 4287 H 701.586 3.69963 -5.84682 0
M  V30 4288 H 702.454 6.10431 -5.41508 0
M  V30 4289 H 705.109 4.78816 -3.28024 0
M  V30 4290 H 705.389 3.64957 -6.05871 0
M  V30 4291 H 706.38 4.88748 -5.21323 0
M  V30 4292 H 704.546 5.66789 -7.0643 0
M  V30 4293 H 704.505 1.74684 -5.62396 0
M  V30 4294 H 704.886 -1.71949 -2.24394 0
M  V30 4295 H 705.075 -1.67511 -0.470742 0
M  V30 4296 H 705.183 2.63704 0.6828 0
M  V30 4297 P 706.416 7.20834 -5.23717 0
M  V30 4298 O 706.636 8.66104 -5.38572 0
M  V30 4299 O 707.206 6.33544 -6.1349 0
M  V30 4300 O 706.666 6.7751 -3.72168 0
M  V30 4301 C 705.726 7.20825 -2.7076 0
M  V30 4302 C 706.456 7.45864 -1.40599 0
M  V30 4303 O 706.666 6.17651 -0.734225 0
M  V30 4304 C 707.856 8.05808 -1.51899 0
M  V30 4305 O 708.246 8.74358 -0.335205 0
M  V30 4306 C 708.736 6.83093 -1.70294 0
M  V30 4307 C 708.026 5.79992 -0.836974 0
M  V30 4308 N 708.076 4.41864 -1.38293 0
M  V30 4309 H 705.237 8.13644 -3.0377 0
M  V30 4310 H 704.967 6.42788 -2.55485 0
M  V30 4311 H 705.834 8.12039 -0.792769 0
M  V30 4312 P 709.796 8.91 4.82899e-12 0
M  V30 4313 O 710.016 10.1726 0.733694 0
M  V30 4314 O 710.586 8.73148 -1.23936 0
M  V30 4315 O 710.046 7.66872 0.971405 0
M  V30 4316 C 709.106 7.42309 2.04641 0
M  V30 4317 C 709.836 6.86059 3.24661 0
M  V30 4318 O 710.046 5.42847 3.03646 0
M  V30 4319 C 711.236 7.41196 3.50753 0
M  V30 4320 O 711.626 7.27073 4.86816 0
M  V30 4321 C 712.116 6.5273 2.63741 0
M  V30 4322 C 711.406 5.1842 2.73198 0
M  V30 4323 N 711.456 4.38762 1.4784 0
M  V30 4324 H 708.617 8.36803 2.32493 0
M  V30 4325 H 708.347 6.70197 1.71129 0
M  V30 4326 H 709.214 7.03551 4.13168 0
M  V30 4327 P 713.176 7.20834 5.23717 0
M  V30 4328 O 713.396 7.79853 6.57286 0
M  V30 4329 O 713.966 7.79239 4.12957 0
M  V30 4330 O 713.426 5.63315 5.29344 0
M  V30 4331 C 712.486 4.80255 6.01876 0
M  V30 4332 C 713.216 3.64202 6.65911 0
M  V30 4333 O 713.426 2.60694 5.64732 0
M  V30 4334 C 714.616 3.93473 7.1943 0
M  V30 4335 O 715.006 3.02071 8.21205 0
M  V30 4336 C 715.496 3.73047 5.97036 0
M  V30 4337 C 714.786 2.58828 5.25741 0
M  V30 4338 N 714.836 2.68068 3.77503 0
M  V30 4339 H 711.997 5.40332 6.79951 0
M  V30 4340 H 711.727 4.41613 5.32378 0
M  V30 4341 H 712.594 3.26331 7.47797 0
M  V30 4342 P 716.556 2.75334 8.47391 0
M  V30 4343 O 716.776 2.44571 9.90142 0
M  V30 4344 O 717.346 3.87688 7.92115 0
M  V30 4345 O 716.806 1.4459 7.59357 0
M  V30 4346 C 715.866 0.347608 7.69215 0
M  V30 4347 C 716.596 -0.96767 7.52806 0
M  V30 4348 O 716.806 -1.21036 6.1011 0
M  V30 4349 C 717.996 -1.04544 8.13308 0
M  V30 4350 O 718.386 -2.38311 8.41922 0
M  V30 4351 C 718.876 -0.491279 7.02284 0
M  V30 4352 C 718.166 -0.996264 5.77469 0
M  V30 4353 N 718.216 -0.0501916 4.62973 0
M  V30 4354 C 718.136 1.32786 4.63244 0
M  V30 4355 N 718.216 1.86957 3.44545 0
M  V30 4356 C 718.356 0.780241 2.58481 0
M  V30 4357 C 718.486 0.738536 1.17757 0
M  V30 4358 N 718.606 -0.58337 0.711393 0
M  V30 4359 C 718.606 -1.70816 1.51017 0
M  V30 4360 N 718.736 -2.87826 0.880757 0
M  V30 4361 N 718.476 -1.67126 2.8339 0
M  V30 4362 C 718.356 -0.401421 3.30572 0
M  V30 4363 H 715.377 0.374722 8.67691 0
M  V30 4364 H 715.107 0.443485 6.90277 0
M  V30 4365 H 715.974 -1.75537 7.96793 0
M  V30 4366 P 719.936 -2.75334 8.47391 0
M  V30 4367 O 720.156 -3.84128 9.44797 0
M  V30 4368 O 720.726 -1.51947 8.68712 0
M  V30 4369 O 720.186 -3.29363 6.99321 0
M  V30 4370 C 719.246 -4.24011 6.4274 0
M  V30 4371 C 719.976 -5.20775 5.52155 0
M  V30 4372 O 720.186 -4.56534 4.22446 0
M  V30 4373 C 721.376 -5.62629 5.96531 0
M  V30 4374 O 721.766 -6.87667 5.41053 0
M  V30 4375 C 722.256 -4.52537 5.39283 0
M  V30 4376 C 721.546 -4.20027 4.08623 0
M  V30 4377 N 721.596 -2.76189 3.71603 0
M  V30 4378 H 718.757 -4.797 7.24003 0
M  V30 4379 H 718.487 -3.69856 5.84513 0
M  V30 4380 H 719.354 -6.10356 5.41441 0
M  V30 4381 P 723.316 -7.20834 5.23717 0
M  V30 4382 O 723.536 -8.66104 5.38572 0
M  V30 4383 O 724.106 -6.33544 6.1349 0
M  V30 4384 O 723.566 -6.7751 3.72168 0
M  V30 4385 C 722.626 -7.20825 2.7076 0
M  V30 4386 C 723.356 -7.45864 1.40599 0
M  V30 4387 O 723.566 -6.17651 0.734225 0
M  V30 4388 C 724.756 -8.05808 1.51899 0
M  V30 4389 O 725.146 -8.74358 0.335205 0
M  V30 4390 C 725.636 -6.83093 1.70294 0
M  V30 4391 C 724.926 -5.79992 0.836974 0
M  V30 4392 N 724.976 -4.41864 1.38293 0
M  V30 4393 H 722.137 -8.13644 3.0377 0
M  V30 4394 H 721.867 -6.42788 2.55485 0
M  V30 4395 H 722.734 -8.12039 0.792769 0
M  V30 4396 P 726.696 -8.91 -4.98617e-12 0
M  V30 4397 O 726.916 -10.1726 -0.733694 0
M  V30 4398 O 727.486 -8.73148 1.23936 0
M  V30 4399 O 726.946 -7.66872 -0.971405 0
M  V30 4400 C 726.006 -7.42309 -2.04641 0
M  V30 4401 C 726.736 -6.86059 -3.24661 0
M  V30 4402 O 726.946 -5.42847 -3.03646 0
M  V30 4403 C 728.136 -7.41196 -3.50753 0
M  V30 4404 O 728.526 -7.27073 -4.86816 0
M  V30 4405 C 729.016 -6.5273 -2.63741 0
M  V30 4406 C 728.306 -5.1842 -2.73198 0
M  V30 4407 N 728.356 -4.38762 -1.4784 0
M  V30 4408 H 725.517 -8.36803 -2.32493 0
M  V30 4409 H 725.247 -6.70197 -1.71129 0
M  V30 4410 H 726.114 -7.03551 -4.13168 0
M  V30 4411 P 730.076 -7.20834 -5.23717 0
M  V30 4412 O 730.296 -7.80006 -6.57415 0
M  V30 4413 O 730.866 -7.79416 -4.13051 0
M  V30 4414 O 730.326 -5.63315 -5.29344 0
M  V30 4415 C 729.386 -4.80318 -6.01954 0
M  V30 4416 C 730.116 -3.64202 -6.65911 0
M  V30 4417 O 730.326 -2.60736 -5.64823 0
M  V30 4418 C 731.516 -3.93521 -7.19518 0
M  V30 4419 O 731.906 -3.02071 -8.21205 0
M  V30 4420 C 732.396 -3.73047 -5.97036 0
M  V30 4421 C 731.686 -2.58828 -5.25741 0
M  V30 4422 N 731.736 -2.68068 -3.77503 0
M  V30 4423 C 731.656 -3.80474 -2.99159 0
M  V30 4424 N 731.726 -3.55622 -1.71925 0
M  V30 4425 C 731.876 -2.1832 -1.65733 0
M  V30 4426 C 732.006 -1.28842 -0.572777 0
M  V30 4427 N 732.016 -1.66875 0.70098 0
M  V30 4428 N 732.126 0.016788 -0.859836 0
M  V30 4429 C 732.116 0.398145 -2.13316 0
M  V30 4430 N 731.996 -0.328224 -3.22333 0
M  V30 4431 C 731.876 -1.62992 -2.90383 0
M  V30 4432 H 728.898 -5.40394 -6.8003 0
M  V30 4433 H 728.626 -4.41741 -5.32532 0
M  V30 4434 H 729.494 -3.26371 -7.47889 0
M  V30 4435 H 732.149 -1.64007 -5.56746 0
M  V30 4436 H 732.429 -4.63439 -5.3432 0
M  V30 4437 H 733.42 -3.44776 -6.25925 0
M  V30 4438 H 731.586 -4.96707 -7.57347 0
M  V30 4439 H 731.545 -4.8089 -3.39924 0
M  V30 4440 H 731.926 -2.66547 0.941919 0
M  V30 4441 H 732.115 -0.965341 1.44766 0
M  V30 4442 H 732.223 1.46427 -2.29697 0
M  V30 4443 P 733.456 -2.75334 -8.47391 0
M  V30 4444 O 733.676 -2.44595 -9.90239 0
M  V30 4445 O 734.246 -3.87732 -7.92204 0
M  V30 4446 O 733.706 -1.4459 -7.59357 0
M  V30 4447 C 732.766 -0.347563 -7.69115 0
M  V30 4448 C 733.496 0.96767 -7.52806 0
M  V30 4449 O 733.706 1.21036 -6.1011 0
M  V30 4450 C 734.896 1.04544 -8.13308 0
M  V30 4451 O 735.286 2.38311 -8.41922 0
M  V30 4452 C 735.776 0.491279 -7.02284 0
M  V30 4453 C 735.066 0.996264 -5.77469 0
M  V30 4454 N 735.116 0.0501808 -4.62873 0
M  V30 4455 C 735.266 0.588177 -3.36904 0
M  V30 4456 O 735.356 1.78598 -3.17173 0
M  V30 4457 N 735.306 -0.329694 -2.33686 0
M  V30 4458 C 735.216 -1.6953 -2.45079 0
M  V30 4459 O 735.266 -2.41926 -1.44899 0
M  V30 4460 C 735.066 -2.16933 -3.80505 0
M  V30 4461 C 734.956 -3.65373 -3.97621 0
M  V30 4462 C 735.016 -1.30326 -4.83752 0
M  V30 4463 H 732.276 -0.374722 -8.67691 0
M  V30 4464 H 732.007 -0.443421 -6.90177 0
M  V30 4465 H 732.874 1.75537 -7.96793 0
M  V30 4466 H 735.529 1.94496 -5.46629 0
M  V30 4467 H 735.808 -0.608651 -7.04676 0
M  V30 4468 H 736.8 0.889672 -7.08939 0
M  V30 4469 H 734.966 0.43308 -9.04564 0
M  V30 4470 H 734.895 -1.68366 -5.8516 0
M  V30 4471 H 735.925 -4.05985 -4.30448 0
M  V30 4472 H 734.188 -3.88028 -4.72875 0
M  V30 4473 H 734.676 -4.11381 -3.01609 0
M  V30 4474 H 735.412 0.0393617 -1.41345 0
M  V30 4475 P 736.836 2.75334 -8.47391 0
M  V30 4476 O 737.056 3.84128 -9.44797 0
M  V30 4477 O 737.626 1.51947 -8.68712 0
M  V30 4478 O 737.086 3.29363 -6.99321 0
M  V30 4479 C 736.146 4.24011 -6.4274 0
M  V30 4480 C 736.876 5.20775 -5.52155 0
M  V30 4481 O 737.086 4.56534 -4.22446 0
M  V30 4482 C 738.276 5.62629 -5.96531 0
M  V30 4483 O 738.666 6.87667 -5.41053 0
M  V30 4484 C 739.156 4.52537 -5.39283 0
M  V30 4485 C 738.446 4.20027 -4.08623 0
M  V30 4486 N 738.496 2.76189 -3.71603 0
M  V30 4487 H 735.657 4.797 -7.24003 0
M  V30 4488 H 735.387 3.69856 -5.84513 0
M  V30 4489 H 736.254 6.10356 -5.41441 0
M  V30 4490 P 740.216 7.20834 -5.23717 0
M  V30 4491 O 740.436 8.66104 -5.38572 0
M  V30 4492 O 741.006 6.33544 -6.1349 0
M  V30 4493 O 740.466 6.7751 -3.72168 0
M  V30 4494 C 739.526 7.20825 -2.7076 0
M  V30 4495 C 740.256 7.45864 -1.40599 0
M  V30 4496 O 740.466 6.17651 -0.734225 0
M  V30 4497 C 741.656 8.05808 -1.51899 0
M  V30 4498 O 742.046 8.74358 -0.335205 0
M  V30 4499 C 742.536 6.83093 -1.70294 0
M  V30 4500 C 741.826 5.79992 -0.836974 0
M  V30 4501 N 741.876 4.41864 -1.38293 0
M  V30 4502 H 739.037 8.13644 -3.0377 0
M  V30 4503 H 738.767 6.42788 -2.55485 0
M  V30 4504 H 739.634 8.12039 -0.792769 0
M  V30 4505 P 743.596 8.91 5.14336e-12 0
M  V30 4506 O 743.816 10.1726 0.733694 0
M  V30 4507 O 744.386 8.73148 -1.23936 0
M  V30 4508 O 743.846 7.66872 0.971405 0
M  V30 4509 C 742.906 7.42309 2.04641 0
M  V30 4510 C 743.636 6.86059 3.24661 0
M  V30 4511 O 743.846 5.42847 3.03646 0
M  V30 4512 C 745.036 7.41196 3.50753 0
M  V30 4513 O 745.426 7.27073 4.86816 0
M  V30 4514 C 745.916 6.5273 2.63741 0
M  V30 4515 C 745.206 5.1842 2.73198 0
M  V30 4516 N 745.256 4.38762 1.4784 0
M  V30 4517 H 742.417 8.36803 2.32493 0
M  V30 4518 H 742.147 6.70197 1.71129 0
M  V30 4519 H 743.014 7.03551 4.13168 0
M  V30 4520 P 746.976 7.20834 5.23717 0
M  V30 4521 O 747.196 7.79853 6.57286 0
M  V30 4522 O 747.766 7.79239 4.12957 0
M  V30 4523 O 747.226 5.63315 5.29344 0
M  V30 4524 C 746.286 4.80255 6.01876 0
M  V30 4525 C 747.016 3.64202 6.65911 0
M  V30 4526 O 747.226 2.60694 5.64732 0
M  V30 4527 C 748.416 3.93473 7.1943 0
M  V30 4528 O 748.806 3.02071 8.21205 0
M  V30 4529 C 749.296 3.73047 5.97036 0
M  V30 4530 C 748.586 2.58828 5.25741 0
M  V30 4531 N 748.636 2.68068 3.77503 0
M  V30 4532 H 745.797 5.40332 6.79951 0
M  V30 4533 H 745.527 4.41613 5.32378 0
M  V30 4534 H 746.394 3.26331 7.47797 0
M  V30 4535 P 750.356 2.75334 8.47391 0
M  V30 4536 O 750.576 2.44619 9.90336 0
M  V30 4537 O 751.146 3.87776 7.92294 0
M  V30 4538 O 750.606 1.4459 7.59357 0
M  V30 4539 C 749.666 0.347653 7.69315 0
M  V30 4540 C 750.396 -0.96767 7.52806 0
M  V30 4541 O 750.606 -1.21055 6.10208 0
M  V30 4542 C 751.796 -1.04557 8.13408 0
M  V30 4543 O 752.186 -2.38311 8.41922 0
M  V30 4544 C 752.676 -0.491279 7.02284 0
M  V30 4545 C 751.966 -0.996264 5.77469 0
M  V30 4546 N 752.016 -0.0501916 4.62973 0
M  V30 4547 C 751.936 1.31969 4.65661 0
M  V30 4548 N 752.006 1.86649 3.48119 0
M  V30 4549 C 752.156 0.792089 2.62406 0
M  V30 4550 C 752.286 0.705684 1.2207 0
M  V30 4551 N 752.296 1.76207 0.413762 0
M  V30 4552 N 752.406 -0.518981 0.685754 0
M  V30 4553 C 752.396 -1.57595 1.49174 0
M  V30 4554 N 752.276 -1.62909 2.80066 0
M  V30 4555 C 752.156 -0.388195 3.3073 0
M  V30 4556 H 749.178 0.374765 8.67791 0
M  V30 4557 H 748.906 0.443613 6.90476 0
M  V30 4558 H 749.774 -1.75559 7.96891 0
M  V30 4559 H 752.429 -1.94563 5.46818 0
M  V30 4560 H 752.709 0.608651 7.04676 0
M  V30 4561 H 753.7 -0.889796 7.09039 0
M  V30 4562 H 751.866 -0.433128 9.04664 0
M  V30 4563 H 751.825 1.89246 5.57664 0
M  V30 4564 H 752.206 2.71005 0.804694 0
M  V30 4565 H 752.395 1.63189 -0.603768 0
M  V30 4566 H 752.503 -2.53475 0.997614 0
M  V30 4567 P 753.736 -2.75334 8.47391 0
M  V30 4568 O 753.956 -3.84204 9.44982 0
M  V30 4569 O 754.526 -1.51982 8.68909 0
M  V30 4570 O 753.986 -3.29363 6.99321 0
M  V30 4571 C 753.046 -4.24066 6.42823 0
M  V30 4572 C 753.776 -5.20775 5.52155 0
M  V30 4573 O 753.986 -4.56607 4.22514 0
M  V30 4574 C 755.176 -5.62697 5.96604 0
M  V30 4575 O 755.566 -6.87667 5.41053 0
M  V30 4576 C 756.056 -4.52537 5.39283 0
M  V30 4577 C 755.346 -4.20027 4.08623 0
M  V30 4578 N 755.396 -2.76189 3.71603 0
M  V30 4579 C 755.316 -1.66944 4.54297 0
M  V30 4580 N 755.386 -0.536169 3.91344 0
M  V30 4581 C 755.536 -0.901569 2.58849 0
M  V30 4582 C 755.666 -0.146599 1.40236 0
M  V30 4583 N 755.676 1.18234 1.37046 0
M  V30 4584 N 755.786 -0.822941 0.249738 0
M  V30 4585 C 755.776 -2.15179 0.280525 0
M  V30 4586 N 755.656 -2.96414 1.30822 0
M  V30 4587 C 755.536 -2.25804 2.44748 0
M  V30 4588 H 752.558 -4.79756 7.24086 0
M  V30 4589 H 752.286 -3.69963 5.84682 0
M  V30 4590 H 753.154 -6.10431 5.41508 0
M  V30 4591 H 755.809 -4.78816 3.28024 0
M  V30 4592 H 756.089 -3.64957 6.05871 0
M  V30 4593 H 757.08 -4.88748 5.21323 0
M  V30 4594 H 755.246 -5.66789 7.0643 0
M  V30 4595 H 755.205 -1.74684 5.62396 0
M  V30 4596 H 755.586 1.71949 2.24394 0
M  V30 4597 H 755.775 1.67511 0.470742 0
M  V30 4598 H 755.883 -2.63704 -0.6828 0
M  V30 4599 P 757.116 -7.20834 5.23717 0
M  V30 4600 O 757.336 -8.66274 5.38678 0
M  V30 4601 O 757.906 -6.33687 6.13629 0
M  V30 4602 O 757.366 -6.7751 3.72168 0
M  V30 4603 C 756.426 -7.20919 2.70795 0
M  V30 4604 C 757.156 -7.45864 1.40599 0
M  V30 4605 O 757.366 -6.17751 0.734343 0
M  V30 4606 C 758.556 -8.05906 1.51917 0
M  V30 4607 O 758.946 -8.74358 0.335205 0
M  V30 4608 C 759.436 -6.83093 1.70294 0
M  V30 4609 C 758.726 -5.79992 0.836974 0
M  V30 4610 N 758.776 -4.41864 1.38293 0
M  V30 4611 H 755.938 -8.13738 3.03804 0
M  V30 4612 H 755.666 -6.42974 2.55559 0
M  V30 4613 H 756.534 -8.12139 0.792866 0
M  V30 4614 H 759.189 -5.80178 -0.160643 0
M  V30 4615 H 759.469 -6.51379 2.75643 0
M  V30 4616 H 760.46 -7.01832 1.3448 0
M  V30 4617 H 758.626 -8.73771 2.38364 0
M  V30 4618 P 760.496 -8.91 -5.30054e-12 0
M  V30 4619 O 760.716 -10.1726 -0.733694 0
M  V30 4620 O 761.286 -8.73148 1.23936 0
M  V30 4621 O 760.746 -7.66872 -0.971405 0
M  V30 4622 C 759.806 -7.42309 -2.04641 0
M  V30 4623 C 760.536 -6.86059 -3.24661 0
M  V30 4624 O 760.746 -5.42847 -3.03646 0
M  V30 4625 C 761.936 -7.41196 -3.50753 0
M  V30 4626 O 762.326 -7.27073 -4.86816 0
M  V30 4627 C 762.816 -6.5273 -2.63741 0
M  V30 4628 C 762.106 -5.1842 -2.73198 0
M  V30 4629 N 762.156 -4.38762 -1.4784 0
M  V30 4630 H 759.317 -8.36803 -2.32493 0
M  V30 4631 H 759.047 -6.70197 -1.71129 0
M  V30 4632 H 759.914 -7.03551 -4.13168 0
M  V30 4633 P 763.875 -7.20834 -5.23717 0
M  V30 4634 O 764.095 -7.80006 -6.57415 0
M  V30 4635 O 764.665 -7.79416 -4.13051 0
M  V30 4636 O 764.125 -5.63315 -5.29344 0
M  V30 4637 C 763.185 -4.80318 -6.01954 0
M  V30 4638 C 763.915 -3.64202 -6.65911 0
M  V30 4639 O 764.125 -2.60736 -5.64823 0
M  V30 4640 C 765.315 -3.93521 -7.19518 0
M  V30 4641 O 765.705 -3.02071 -8.21205 0
M  V30 4642 C 766.195 -3.73047 -5.97036 0
M  V30 4643 C 765.485 -2.58828 -5.25741 0
M  V30 4644 N 765.535 -2.68068 -3.77503 0
M  V30 4645 C 765.455 -3.80474 -2.99159 0
M  V30 4646 N 765.525 -3.55622 -1.71925 0
M  V30 4647 C 765.675 -2.1832 -1.65733 0
M  V30 4648 C 765.805 -1.28842 -0.572777 0
M  V30 4649 N 765.815 -1.66875 0.70098 0
M  V30 4650 N 765.925 0.016788 -0.859836 0
M  V30 4651 C 765.915 0.398145 -2.13316 0
M  V30 4652 N 765.795 -0.328224 -3.22333 0
M  V30 4653 C 765.675 -1.62992 -2.90383 0
M  V30 4654 H 762.697 -5.40394 -6.8003 0
M  V30 4655 H 762.425 -4.41741 -5.32532 0
M  V30 4656 H 763.293 -3.26371 -7.47889 0
M  V30 4657 H 765.948 -1.64007 -5.56746 0
M  V30 4658 H 766.228 -4.63439 -5.3432 0
M  V30 4659 H 767.219 -3.44776 -6.25925 0
M  V30 4660 H 765.385 -4.96707 -7.57347 0
M  V30 4661 H 765.344 -4.8089 -3.39924 0
M  V30 4662 H 765.725 -2.66547 0.941919 0
M  V30 4663 H 765.914 -0.965341 1.44766 0
M  V30 4664 H 766.022 1.46427 -2.29697 0
M  V30 4665 P 767.255 -2.75334 -8.47391 0
M  V30 4666 O 767.475 -2.44571 -9.90142 0
M  V30 4667 O 768.045 -3.87688 -7.92115 0
M  V30 4668 O 767.505 -1.4459 -7.59357 0
M  V30 4669 C 766.565 -0.347608 -7.69215 0
M  V30 4670 C 767.295 0.96767 -7.52806 0
M  V30 4671 O 767.505 1.21036 -6.1011 0
M  V30 4672 C 768.695 1.04544 -8.13308 0
M  V30 4673 O 769.085 2.38311 -8.41922 0
M  V30 4674 C 769.575 0.491279 -7.02284 0
M  V30 4675 C 768.865 0.996264 -5.77469 0
M  V30 4676 N 768.915 0.0501916 -4.62973 0
M  V30 4677 C 768.835 -1.32786 -4.63244 0
M  V30 4678 N 768.915 -1.86957 -3.44545 0
M  V30 4679 C 769.055 -0.780241 -2.58481 0
M  V30 4680 C 769.185 -0.738536 -1.17757 0
M  V30 4681 N 769.305 0.58337 -0.711393 0
M  V30 4682 C 769.305 1.70816 -1.51017 0
M  V30 4683 N 769.435 2.87826 -0.880757 0
M  V30 4684 N 769.175 1.67126 -2.8339 0
M  V30 4685 C 769.055 0.401421 -3.30572 0
M  V30 4686 H 766.076 -0.374722 -8.67691 0
M  V30 4687 H 765.806 -0.443485 -6.90277 0
M  V30 4688 H 766.673 1.75537 -7.96793 0
M  V30 4689 P 770.635 2.75334 -8.47391 0
M  V30 4690 O 770.855 3.84128 -9.44797 0
M  V30 4691 O 771.425 1.51947 -8.68712 0
M  V30 4692 O 770.885 3.29363 -6.99321 0
M  V30 4693 C 769.945 4.24011 -6.4274 0
M  V30 4694 C 770.675 5.20775 -5.52155 0
M  V30 4695 O 770.885 4.56534 -4.22446 0
M  V30 4696 C 772.075 5.62629 -5.96531 0
M  V30 4697 O 772.465 6.87667 -5.41053 0
M  V30 4698 C 772.955 4.52537 -5.39283 0
M  V30 4699 C 772.245 4.20027 -4.08623 0
M  V30 4700 N 772.295 2.76189 -3.71603 0
M  V30 4701 H 769.456 4.797 -7.24003 0
M  V30 4702 H 769.186 3.69856 -5.84513 0
M  V30 4703 H 770.053 6.10356 -5.41441 0
M  V30 4704 P 774.015 7.20834 -5.23717 0
M  V30 4705 O 774.235 8.66104 -5.38572 0
M  V30 4706 O 774.805 6.33544 -6.1349 0
M  V30 4707 O 774.265 6.7751 -3.72168 0
M  V30 4708 C 773.325 7.20825 -2.7076 0
M  V30 4709 C 774.055 7.45864 -1.40599 0
M  V30 4710 O 774.265 6.17651 -0.734225 0
M  V30 4711 C 775.455 8.05808 -1.51899 0
M  V30 4712 O 775.845 8.74358 -0.335205 0
M  V30 4713 C 776.335 6.83093 -1.70294 0
M  V30 4714 C 775.625 5.79992 -0.836974 0
M  V30 4715 N 775.675 4.41864 -1.38293 0
M  V30 4716 H 772.836 8.13644 -3.0377 0
M  V30 4717 H 772.566 6.42788 -2.55485 0
M  V30 4718 H 773.433 8.12039 -0.792769 0
M  V30 4719 P 777.395 8.91 5.45772e-12 0
M  V30 4720 O 777.615 10.1726 0.733694 0
M  V30 4721 O 778.185 8.73148 -1.23936 0
M  V30 4722 O 777.645 7.66872 0.971405 0
M  V30 4723 C 776.705 7.42309 2.04641 0
M  V30 4724 C 777.435 6.86059 3.24661 0
M  V30 4725 O 777.645 5.42847 3.03646 0
M  V30 4726 C 778.835 7.41196 3.50753 0
M  V30 4727 O 779.225 7.27073 4.86816 0
M  V30 4728 C 779.715 6.5273 2.63741 0
M  V30 4729 C 779.005 5.1842 2.73198 0
M  V30 4730 N 779.055 4.38762 1.4784 0
M  V30 4731 H 776.216 8.36803 2.32493 0
M  V30 4732 H 775.946 6.70197 1.71129 0
M  V30 4733 H 776.813 7.03551 4.13168 0
M  V30 4734 P 780.775 7.20834 5.23717 0
M  V30 4735 O 780.995 7.79853 6.57286 0
M  V30 4736 O 781.565 7.79239 4.12957 0
M  V30 4737 O 781.025 5.63315 5.29344 0
M  V30 4738 C 780.085 4.80255 6.01876 0
M  V30 4739 C 780.815 3.64202 6.65911 0
M  V30 4740 O 781.025 2.60694 5.64732 0
M  V30 4741 C 782.215 3.93473 7.1943 0
M  V30 4742 O 782.605 3.02071 8.21205 0
M  V30 4743 C 783.095 3.73047 5.97036 0
M  V30 4744 C 782.385 2.58828 5.25741 0
M  V30 4745 N 782.435 2.68068 3.77503 0
M  V30 4746 H 779.596 5.40332 6.79951 0
M  V30 4747 H 779.326 4.41613 5.32378 0
M  V30 4748 H 780.193 3.26331 7.47797 0
M  V30 4749 P 784.155 2.75334 8.47391 0
M  V30 4750 O 784.375 2.44571 9.90142 0
M  V30 4751 O 784.945 3.87688 7.92115 0
M  V30 4752 O 784.405 1.4459 7.59357 0
M  V30 4753 C 783.465 0.347608 7.69215 0
M  V30 4754 C 784.195 -0.96767 7.52806 0
M  V30 4755 O 784.405 -1.21036 6.1011 0
M  V30 4756 C 785.595 -1.04544 8.13308 0
M  V30 4757 O 785.985 -2.38311 8.41922 0
M  V30 4758 C 786.475 -0.491279 7.02284 0
M  V30 4759 C 785.765 -0.996264 5.77469 0
M  V30 4760 N 785.815 -0.0501916 4.62973 0
M  V30 4761 H 782.976 0.374722 8.67691 0
M  V30 4762 H 782.706 0.443485 6.90277 0
M  V30 4763 H 783.573 -1.75537 7.96793 0
M  V30 4764 P 787.535 -2.75334 8.47391 0
M  V30 4765 O 787.755 -3.84128 9.44797 0
M  V30 4766 O 788.325 -1.51947 8.68712 0
M  V30 4767 O 787.785 -3.29363 6.99321 0
M  V30 4768 C 786.845 -4.24011 6.4274 0
M  V30 4769 C 787.575 -5.20775 5.52155 0
M  V30 4770 O 787.785 -4.56534 4.22446 0
M  V30 4771 C 788.975 -5.62629 5.96531 0
M  V30 4772 O 789.365 -6.87667 5.41053 0
M  V30 4773 C 789.855 -4.52537 5.39283 0
M  V30 4774 C 789.145 -4.20027 4.08623 0
M  V30 4775 N 789.195 -2.76189 3.71603 0
M  V30 4776 H 786.356 -4.797 7.24003 0
M  V30 4777 H 786.086 -3.69856 5.84513 0
M  V30 4778 H 786.953 -6.10356 5.41441 0
M  V30 4779 P 790.915 -7.20834 5.23717 0
M  V30 4780 O 791.135 -8.66104 5.38572 0
M  V30 4781 O 791.705 -6.33544 6.1349 0
M  V30 4782 O 791.165 -6.7751 3.72168 0
M  V30 4783 C 790.225 -7.20825 2.7076 0
M  V30 4784 C 790.955 -7.45864 1.40599 0
M  V30 4785 O 791.165 -6.17651 0.734225 0
M  V30 4786 C 792.355 -8.05808 1.51899 0
M  V30 4787 O 792.745 -8.74358 0.335205 0
M  V30 4788 C 793.235 -6.83093 1.70294 0
M  V30 4789 C 792.525 -5.79992 0.836974 0
M  V30 4790 N 792.575 -4.41864 1.38293 0
M  V30 4791 H 789.736 -8.13644 3.0377 0
M  V30 4792 H 789.466 -6.42788 2.55485 0
M  V30 4793 H 790.333 -8.12039 0.792769 0
M  V30 4794 P 794.295 -8.91 -5.6149e-12 0
M  V30 4795 O 794.515 -10.1726 -0.733694 0
M  V30 4796 O 795.085 -8.73148 1.23936 0
M  V30 4797 O 794.545 -7.66872 -0.971405 0
M  V30 4798 C 793.605 -7.42309 -2.04641 0
M  V30 4799 C 794.335 -6.86059 -3.24661 0
M  V30 4800 O 794.545 -5.42847 -3.03646 0
M  V30 4801 C 795.735 -7.41196 -3.50753 0
M  V30 4802 O 796.125 -7.27073 -4.86816 0
M  V30 4803 C 796.615 -6.5273 -2.63741 0
M  V30 4804 C 795.905 -5.1842 -2.73198 0
M  V30 4805 N 795.955 -4.38762 -1.4784 0
M  V30 4806 C 795.875 -4.81605 -0.168631 0
M  V30 4807 N 795.955 -3.85454 0.713363 0
M  V30 4808 C 796.095 -2.6994 -0.0566958 0
M  V30 4809 C 796.225 -1.34815 0.338502 0
M  V30 4810 O 796.245 -0.869548 1.47125 0
M  V30 4811 N 796.345 -0.496304 -0.77465 0
M  V30 4812 C 796.345 -0.908403 -2.09122 0
M  V30 4813 N 796.475 0.0517805 -3.00955 0
M  V30 4814 N 796.215 -2.17875 -2.46519 0
M  V30 4815 C 796.095 -3.01988 -1.4033 0
M  V30 4816 H 793.116 -8.36803 -2.32493 0
M  V30 4817 H 792.846 -6.70197 -1.71129 0
M  V30 4818 H 793.713 -7.03551 -4.13168 0
M  V30 4819 H 796.368 -4.59498 -3.54415 0
M  V30 4820 H 796.647 -6.88898 -1.59848 0
M  V30 4821 H 797.639 -6.46749 -3.03687 0
M  V30 4822 H 795.805 -8.46908 -3.20714 0
M  V30 4823 H 795.756 -5.86405 0.105564 0
M  V30 4824 H 796.438 0.483664 -0.597855 0
M  V30 4825 H 796.475 -0.187865 -4.0116 0
M  V30 4826 H 796.576 1.03585 -2.71726 0
M  V30 4827 P 797.675 -7.20834 -5.23717 0
M  V30 4828 O 797.895 -7.79853 -6.57286 0
M  V30 4829 O 798.465 -7.79239 -4.12957 0
M  V30 4830 O 797.925 -5.63315 -5.29344 0
M  V30 4831 C 796.985 -4.80255 -6.01876 0
M  V30 4832 C 797.715 -3.64202 -6.65911 0
M  V30 4833 O 797.925 -2.60694 -5.64732 0
M  V30 4834 C 799.115 -3.93473 -7.1943 0
M  V30 4835 O 799.505 -3.02071 -8.21205 0
M  V30 4836 C 799.995 -3.73047 -5.97036 0
M  V30 4837 C 799.285 -2.58828 -5.25741 0
M  V30 4838 N 799.335 -2.68068 -3.77503 0
M  V30 4839 C 799.255 -3.79715 -2.96723 0
M  V30 4840 N 799.335 -3.5377 -1.68852 0
M  V30 4841 C 799.475 -2.15054 -1.63254 0
M  V30 4842 C 799.605 -1.28964 -0.518571 0
M  V30 4843 O 799.625 -1.56826 0.679156 0
M  V30 4844 N 799.725 0.0538097 -0.918425 0
M  V30 4845 C 799.725 0.494275 -2.22578 0
M  V30 4846 N 799.855 1.81086 -2.40434 0
M  V30 4847 N 799.595 -0.313645 -3.27502 0
M  V30 4848 C 799.475 -1.61829 -2.91033 0
M  V30 4849 H 796.496 -5.40332 -6.79951 0
M  V30 4850 H 796.226 -4.41613 -5.32378 0
M  V30 4851 H 797.093 -3.26331 -7.47797 0
M  V30 4852 H 799.748 -1.63422 -5.56814 0
M  V30 4853 H 800.027 -4.63374 -5.34244 0
M  V30 4854 H 801.019 -3.44728 -6.25838 0
M  V30 4855 H 799.185 -4.96652 -7.57263 0
M  V30 4856 H 799.136 -4.80617 -3.3614 0
M  V30 4857 H 799.818 0.742702 -0.199384 0
M  V30 4858 H 799.855 2.20598 -3.35588 0
M  V30 4859 H 799.956 2.43518 -1.58945 0
M  V30 4860 P 801.055 -2.75334 -8.47391 0
M  V30 4861 O 801.275 -2.44571 -9.90142 0
M  V30 4862 O 801.845 -3.87688 -7.92115 0
M  V30 4863 O 801.305 -1.4459 -7.59357 0
M  V30 4864 C 800.365 -0.347608 -7.69215 0
M  V30 4865 C 801.095 0.96767 -7.52806 0
M  V30 4866 O 801.305 1.21036 -6.1011 0
M  V30 4867 C 802.495 1.04544 -8.13308 0
M  V30 4868 O 802.885 2.38311 -8.41922 0
M  V30 4869 C 803.375 0.491279 -7.02284 0
M  V30 4870 C 802.665 0.996264 -5.77469 0
M  V30 4871 N 802.715 0.0501916 -4.62973 0
M  V30 4872 H 799.876 -0.374722 -8.67691 0
M  V30 4873 H 799.606 -0.443485 -6.90277 0
M  V30 4874 H 800.473 1.75537 -7.96793 0
M  V30 4875 P 804.435 2.75334 -8.47391 0
M  V30 4876 O 804.655 3.84166 -9.4489 0
M  V30 4877 O 805.225 1.51964 -8.6881 0
M  V30 4878 O 804.685 3.29363 -6.99321 0
M  V30 4879 C 803.745 4.24011 -6.4274 0
M  V30 4880 C 804.475 5.20775 -5.52155 0
M  V30 4881 O 804.685 4.56534 -4.22446 0
M  V30 4882 C 805.875 5.62629 -5.96531 0
M  V30 4883 O 806.265 6.87667 -5.41053 0
M  V30 4884 C 806.755 4.52537 -5.39283 0
M  V30 4885 C 806.045 4.20027 -4.08623 0
M  V30 4886 N 806.095 2.7613 -3.71522 0
M  V30 4887 C 806.245 2.43702 -2.37085 0
M  V30 4888 O 806.335 3.3531 -1.54039 0
M  V30 4889 N 806.295 0.951103 -2.10621 0
M  V30 4890 C 806.195 0.165021 -2.93537 0
M  V30 4891 N 806.245 -1.09723 -2.53253 0
M  V30 4892 C 806.045 0.469576 -4.32458 0
M  V30 4893 C 805.995 1.78658 -4.65921 0
M  V30 4894 H 803.255 4.79645 -7.23919 0
M  V30 4895 H 802.986 3.69802 -5.84429 0
M  V30 4896 H 803.853 6.10431 -5.41508 0
M  V30 4897 H 806.508 4.78733 -3.27967 0
M  V30 4898 H 806.787 3.64957 -6.05871 0
M  V30 4899 H 807.779 4.8868 -5.2125 0
M  V30 4900 H 805.945 5.66726 -7.06352 0
M  V30 4901 H 805.873 2.06987 -5.70299 0
M  V30 4902 H 805.975 -0.314383 -5.07728 0
M  V30 4903 H 806.363 -1.31363 -1.5319 0
M  V30 4904 H 806.166 -1.85978 -3.21943 0
M  V30 4905 P 807.815 7.20834 -5.23717 0
M  V30 4906 O 808.035 8.66104 -5.38572 0
M  V30 4907 O 808.605 6.33544 -6.1349 0
M  V30 4908 O 808.065 6.7751 -3.72168 0
M  V30 4909 C 807.125 7.20825 -2.7076 0
M  V30 4910 C 807.855 7.45864 -1.40599 0
M  V30 4911 O 808.065 6.17651 -0.734225 0
M  V30 4912 C 809.255 8.05808 -1.51899 0
M  V30 4913 O 809.645 8.74358 -0.335205 0
M  V30 4914 C 810.135 6.83093 -1.70294 0
M  V30 4915 C 809.425 5.79992 -0.836974 0
M  V30 4916 N 809.475 4.41864 -1.38293 0
M  V30 4917 H 806.636 8.13644 -3.0377 0
M  V30 4918 H 806.366 6.42788 -2.55485 0
M  V30 4919 H 807.233 8.12039 -0.792769 0
M  V30 4920 P 811.195 8.91 5.77209e-12 0
M  V30 4921 O 811.415 10.1746 0.733838 0
M  V30 4922 O 811.985 8.73346 -1.23964 0
M  V30 4923 O 811.445 7.66872 0.971405 0
M  V30 4924 C 810.505 7.42405 2.04668 0
M  V30 4925 C 811.235 6.86059 3.24661 0
M  V30 4926 O 811.445 5.42934 3.03695 0
M  V30 4927 C 812.635 7.41287 3.50796 0
M  V30 4928 O 813.025 7.27073 4.86816 0
M  V30 4929 C 813.515 6.5273 2.63741 0
M  V30 4930 C 812.805 5.1842 2.73198 0
M  V30 4931 N 812.855 4.38762 1.4784 0
M  V30 4932 H 810.017 8.36899 2.3252 0
M  V30 4933 H 809.745 6.70391 1.71179 0
M  V30 4934 H 810.613 7.03638 4.13219 0
M  V30 4935 H 813.268 4.59931 3.54016 0
M  V30 4936 H 813.548 6.88995 1.59871 0
M  V30 4937 H 814.539 6.4684 3.0373 0
M  V30 4938 H 812.705 8.47002 3.20749 0
M  V30 4939 P 814.575 7.20834 5.23717 0
M  V30 4940 O 814.795 7.79853 6.57286 0
M  V30 4941 O 815.365 7.79239 4.12957 0
M  V30 4942 O 814.825 5.63315 5.29344 0
M  V30 4943 C 813.885 4.80255 6.01876 0
M  V30 4944 C 814.615 3.64202 6.65911 0
M  V30 4945 O 814.825 2.60694 5.64732 0
M  V30 4946 C 816.015 3.93473 7.1943 0
M  V30 4947 O 816.405 3.02071 8.21205 0
M  V30 4948 C 816.895 3.73047 5.97036 0
M  V30 4949 C 816.185 2.58828 5.25741 0
M  V30 4950 N 816.235 2.68068 3.77503 0
M  V30 4951 C 816.155 3.79715 2.96723 0
M  V30 4952 N 816.235 3.5377 1.68852 0
M  V30 4953 C 816.375 2.15054 1.63254 0
M  V30 4954 C 816.505 1.28964 0.518571 0
M  V30 4955 N 816.625 -0.0538097 0.918425 0
M  V30 4956 C 816.625 -0.494275 2.22578 0
M  V30 4957 N 816.755 -1.81086 2.40434 0
M  V30 4958 N 816.495 0.313645 3.27502 0
M  V30 4959 C 816.375 1.61829 2.91033 0
M  V30 4960 H 813.396 5.40332 6.79951 0
M  V30 4961 H 813.126 4.41613 5.32378 0
M  V30 4962 H 813.993 3.26331 7.47797 0
M  V30 4963 P 817.955 2.75334 8.47391 0
M  V30 4964 O 818.175 2.44619 9.90336 0
M  V30 4965 O 818.745 3.87776 7.92294 0
M  V30 4966 O 818.205 1.4459 7.59357 0
M  V30 4967 C 817.265 0.347653 7.69315 0
M  V30 4968 C 817.995 -0.96767 7.52806 0
M  V30 4969 O 818.205 -1.21055 6.10208 0
M  V30 4970 C 819.395 -1.04557 8.13408 0
M  V30 4971 O 819.785 -2.38311 8.41922 0
M  V30 4972 C 820.275 -0.491279 7.02284 0
M  V30 4973 C 819.565 -0.996264 5.77469 0
M  V30 4974 N 819.615 -0.0501916 4.62973 0
M  V30 4975 C 819.535 1.31969 4.65661 0
M  V30 4976 N 819.605 1.86649 3.48119 0
M  V30 4977 C 819.755 0.792089 2.62406 0
M  V30 4978 C 819.885 0.705684 1.2207 0
M  V30 4979 N 819.895 1.76207 0.413762 0
M  V30 4980 N 820.005 -0.518981 0.685754 0
M  V30 4981 C 819.995 -1.57595 1.49174 0
M  V30 4982 N 819.875 -1.62909 2.80066 0
M  V30 4983 C 819.755 -0.388195 3.3073 0
M  V30 4984 H 816.777 0.374765 8.67791 0
M  V30 4985 H 816.505 0.443613 6.90476 0
M  V30 4986 H 817.373 -1.75559 7.96891 0
M  V30 4987 H 820.028 -1.94563 5.46818 0
M  V30 4988 H 820.308 0.608651 7.04676 0
M  V30 4989 H 821.299 -0.889796 7.09039 0
M  V30 4990 H 819.465 -0.433128 9.04664 0
M  V30 4991 H 819.424 1.89246 5.57664 0
M  V30 4992 H 819.805 2.71005 0.804694 0
M  V30 4993 H 819.994 1.63189 -0.603768 0
M  V30 4994 H 820.102 -2.53475 0.997614 0
M  V30 4995 H 819.654 -2.92663 7.63961 0
M  V30 4996 H 823.676 -0.0909867 -9.51056 0
M  V30 4997 O 823.556 -0.778697 -8.86988 0
M  V30 4998 P 822.115 -1.17771 -8.83182 0
M  V30 4999 O 821.895 -2.07206 -9.98732 0
M  V30 5000 O 821.325 0.0743816 -8.81969 0
M  V30 5001 O 821.865 -1.97652 -7.47304 0
M  V30 5002 C 822.805 -3.01055 -7.08599 0
M  V30 5003 C 822.075 -4.12613 -6.37049 0
M  V30 5004 O 821.865 -3.72827 -4.97879 0
M  V30 5005 C 820.675 -4.45719 -6.88164 0
M  V30 5006 O 820.285 -5.7877 -6.5624 0
M  V30 5007 C 819.795 -3.47768 -6.11991 0
M  V30 5008 C 820.505 -3.39356 -4.77615 0
M  V30 5009 N 820.455 -2.04571 -4.15244 0
M  V30 5010 C 820.305 -1.98587 -2.78314 0
M  V30 5011 O 820.215 -2.98134 -2.08835 0
M  V30 5012 N 820.265 -0.714467 -2.24925 0
M  V30 5013 C 820.355 0.470001 -2.94169 0
M  V30 5014 O 820.305 1.55587 -2.35195 0
M  V30 5015 C 820.505 0.312541 -4.36783 0
M  V30 5016 C 820.615 1.57711 -5.16352 0
M  V30 5017 C 820.555 -0.914512 -4.92583 0
M  V30 5018 H 823.296 -3.41169 -7.98575 0
M  V30 5019 H 823.565 -2.58295 -6.41556 0
M  V30 5020 H 822.698 -5.02657 -6.42673 0
M  V30 5021 H 820.043 -4.11637 -4.08885 0
M  V30 5022 H 819.764 -2.49626 -6.61679 0
M  V30 5023 H 818.772 -3.86566 -6.00778 0
M  V30 5024 H 820.606 -4.29943 -7.96918 0
M  V30 5025 H 820.677 -1.00937 -6.00374 0
M  V30 5026 H 819.647 1.80153 -5.63503 0
M  V30 5027 H 821.384 1.4566 -5.94104 0
M  V30 5028 H 820.896 2.40664 -4.49645 0
M  V30 5029 H 820.16 -0.647622 -1.25697 0
M  V30 5030 P 818.735 -6.144 -6.45285 0
M  V30 5031 O 818.515 -7.54673 -6.86199 0
M  V30 5032 O 817.945 -5.12391 -7.179 0
M  V30 5033 O 818.485 -5.99158 -4.88404 0
M  V30 5034 C 819.425 -6.60062 -3.96313 0
M  V30 5035 C 818.695 -7.08259 -2.72856 0
M  V30 5036 O 818.485 -5.9427 -1.83651 0
M  V30 5037 C 817.295 -7.65087 -2.94749 0
M  V30 5038 O 816.905 -8.53963 -1.90717 0
M  V30 5039 C 816.415 -6.41069 -2.90698 0
M  V30 5040 C 817.125 -5.5528 -1.86931 0
M  V30 5041 N 817.075 -4.09575 -2.15696 0
M  V30 5042 C 816.925 -3.24249 -1.08435 0
M  V30 5043 O 816.835 -3.63946 0.0628747 0
M  V30 5044 N 816.885 -1.90009 -1.39973 0
M  V30 5045 C 816.975 -1.34884 -2.65614 0
M  V30 5046 C 817.125 -2.3145 -3.71736 0
M  V30 5047 C 817.175 -3.63518 -3.44754 0
M  V30 5048 H 819.916 -7.45402 -4.45526 0
M  V30 5049 H 820.185 -5.86062 -3.67208 0
M  V30 5050 H 819.318 -7.84412 -2.24479 0
M  V30 5051 H 816.663 -5.73358 -0.888409 0
M  V30 5052 H 816.384 -5.90877 -3.88583 0
M  V30 5053 H 815.392 -6.65867 -2.58821 0
M  V30 5054 H 817.226 -8.16248 -3.92006 0
M  V30 5055 H 817.297 -4.34551 -4.26383 0
M  V30 5056 P 815.355 -8.7635 -1.60911 0
M  V30 5057 O 815.135 -10.1388 -1.11561 0
M  V30 5058 O 814.565 -8.36503 -2.79617 0
M  V30 5059 O 815.105 -7.71806 -0.42951 0
M  V30 5060 C 816.045 -7.67148 0.673689 0
M  V30 5061 C 815.315 -7.33374 1.95559 0
M  V30 5062 O 815.105 -5.88721 2.00726 0
M  V30 5063 C 813.915 -7.92526 2.10483 0
M  V30 5064 O 813.525 -8.02971 3.47653 0
M  V30 5065 C 813.035 -6.89602 1.41652 0
M  V30 5066 C 813.745 -5.59201 1.75185 0
M  V30 5067 N 813.695 -4.58235 0.662552 0
M  V30 5068 H 816.534 -8.65116 0.777161 0
M  V30 5069 H 816.806 -6.90173 0.474152 0
M  V30 5070 H 815.938 -7.66548 2.79458 0
M  V30 5071 P 811.975 -8.03563 3.84925 0
M  V30 5072 O 811.755 -8.85821 5.0569 0
M  V30 5073 O 811.185 -8.41101 2.65469 0
M  V30 5074 O 811.725 -6.4965 4.18908 0
M  V30 5075 C 812.665 -5.81037 5.05421 0
M  V30 5076 C 811.935 -4.78366 5.89277 0
M  V30 5077 O 811.725 -3.58302 5.08433 0
M  V30 5078 C 810.535 -5.17448 6.36119 0
M  V30 5079 O 810.145 -4.45271 7.53232 0
M  V30 5080 C 809.655 -4.74639 5.19936 0
M  V30 5081 C 810.365 -3.49432 4.70418 0
M  V30 5082 N 810.315 -3.31776 3.22945 0
M  V30 5083 H 813.154 -6.54213 5.71376 0
M  V30 5084 H 813.426 -5.30492 4.44033 0
M  V30 5085 H 812.558 -4.55889 6.76652 0
M  V30 5086 P 808.595 -4.23843 7.83734 0
M  V30 5087 O 808.375 -4.19407 9.29784 0
M  V30 5088 O 807.805 -5.24426 7.09156 0
M  V30 5089 O 808.345 -2.7935 7.20758 0
M  V30 5090 C 809.285 -1.7299 7.50419 0
M  V30 5091 C 808.555 -0.406376 7.57911 0
M  V30 5092 O 808.345 0.0897726 6.21935 0
M  V30 5093 C 807.155 -0.447224 8.1878 0
M  V30 5094 O 806.765 0.825065 8.71101 0
M  V30 5095 C 806.275 -0.783801 6.99623 0
M  V30 5096 C 806.985 -0.0619192 5.85967 0
M  V30 5097 N 806.935 -0.7859 4.56281 0
M  V30 5098 C 807.015 -2.14308 4.31736 0
M  V30 5099 N 806.935 -2.46106 3.05116 0
M  V30 5100 C 806.795 -1.23422 2.4014 0
M  V30 5101 C 806.665 -0.938381 1.02409 0
M  V30 5102 O 806.645 -1.70876 0.0650402 0
M  V30 5103 N 806.545 0.444647 0.805413 0
M  V30 5104 C 806.545 1.40829 1.79435 0
M  V30 5105 N 806.415 2.67213 1.38558 0
M  V30 5106 N 806.675 1.12947 3.09005 0
M  V30 5107 C 806.795 -0.204887 3.32369 0
M  V30 5108 H 809.774 -1.93423 8.4679 0
M  V30 5109 H 810.046 -1.68181 6.71046 0
M  V30 5110 H 809.178 0.289041 8.15388 0
M  V30 5111 H 806.523 0.927166 5.72947 0
M  V30 5112 H 806.243 -1.87 6.82132 0
M  V30 5113 H 805.252 -0.404009 7.13457 0
M  V30 5114 H 807.086 -1.20612 8.97633 0
M  V30 5115 H 807.135 -2.88284 5.10874 0
M  V30 5116 H 806.453 0.755087 -0.140242 0
M  V30 5117 H 806.416 3.43967 2.0729 0
M  V30 5118 H 806.315 2.88096 0.380644 0
M  V30 5119 P 805.215 1.17771 8.83182 0
M  V30 5120 O 804.995 2.07206 9.98732 0
M  V30 5121 O 804.425 -0.0743816 8.81969 0
M  V30 5122 O 804.965 1.97652 7.47304 0
M  V30 5123 C 805.905 3.01133 7.08783 0
M  V30 5124 C 805.175 4.12613 6.37049 0
M  V30 5125 O 804.965 3.72827 4.97879 0
M  V30 5126 C 803.775 4.45085 6.88694 0
M  V30 5127 O 803.385 5.7877 6.5624 0
M  V30 5128 C 802.895 3.47817 6.12078 0
M  V30 5129 C 803.605 3.39414 4.77697 0
M  V30 5130 N 803.555 2.04199 4.15538 0
M  V30 5131 H 806.394 3.41248 7.98759 0
M  V30 5132 H 806.666 2.57728 6.42 0
M  V30 5133 H 805.798 5.02657 6.42673 0
M  V30 5134 H 803.143 4.11708 4.08956 0
M  V30 5135 H 802.863 2.49626 6.61679 0
M  V30 5136 H 801.872 3.8662 6.00862 0
M  V30 5137 H 803.706 4.29991 7.97006 0
M  V30 5138 P 801.835 6.144 6.45285 0
M  V30 5139 O 801.615 7.54673 6.86199 0
M  V30 5140 O 801.045 5.12391 7.179 0
M  V30 5141 O 801.585 5.99236 4.88467 0
M  V30 5142 C 802.525 6.60234 3.96415 0
M  V30 5143 C 801.795 7.08079 2.736 0
M  V30 5144 O 801.585 5.94365 1.8368 0
M  V30 5145 C 800.395 7.64886 2.9555 0
M  V30 5146 O 800.005 8.5406 1.90739 0
M  V30 5147 C 799.515 6.4116 2.90739 0
M  V30 5148 C 800.225 5.55375 1.86963 0
M  V30 5149 N 800.175 4.09664 2.15742 0
M  V30 5150 C 800.025 3.22231 1.08477 0
M  V30 5151 O 799.935 3.68951 -0.0600489 0
M  V30 5152 N 799.975 1.76692 1.48799 0
M  V30 5153 C 800.075 1.41695 2.57602 0
M  V30 5154 N 800.025 0.107296 2.75791 0
M  V30 5155 C 800.225 2.29178 3.69733 0
M  V30 5156 C 800.275 3.62753 3.42653 0
M  V30 5157 H 803.015 7.45488 4.45578 0
M  V30 5158 H 803.285 5.86232 3.67314 0
M  V30 5159 H 802.418 7.84508 2.24507 0
M  V30 5160 H 799.763 5.73556 0.888715 0
M  V30 5161 H 799.483 5.9096 3.88638 0
M  V30 5162 H 798.492 6.66053 2.58894 0
M  V30 5163 H 800.326 8.16339 3.92049 0
M  V30 5164 H 800.398 4.33052 4.24913 0
M  V30 5165 H 800.296 1.9103 4.71577 0
M  V30 5166 H 799.908 -0.521221 1.95056 0
M  V30 5167 H 800.104 -0.286429 3.70695 0
M  V30 5168 P 798.455 8.7635 1.60911 0
M  V30 5169 O 798.235 10.1388 1.11561 0
M  V30 5170 O 797.665 8.36503 2.79617 0
M  V30 5171 O 798.205 7.71906 0.429565 0
M  V30 5172 C 799.145 7.67148 -0.673689 0
M  V30 5173 C 798.415 7.33666 -1.94851 0
M  V30 5174 O 798.205 5.88816 -2.00759 0
M  V30 5175 C 797.015 7.92526 -2.10483 0
M  V30 5176 O 796.625 8.03063 -3.47693 0
M  V30 5177 C 796.135 6.89602 -1.41652 0
M  V30 5178 C 796.845 5.59201 -1.75185 0
M  V30 5179 N 796.795 4.58235 -0.662552 0
M  V30 5180 C 796.645 3.24451 -1.01643 0
M  V30 5181 O 796.555 2.94958 -2.21722 0
M  V30 5182 N 796.595 2.30408 0.165238 0
M  V30 5183 C 796.695 2.66048 1.25118 0
M  V30 5184 N 796.645 1.70787 2.16813 0
M  V30 5185 C 796.845 4.02732 1.64413 0
M  V30 5186 C 796.895 4.9488 0.63991 0
M  V30 5187 H 799.635 8.65017 -0.777072 0
M  V30 5188 H 799.905 6.90173 -0.474152 0
M  V30 5189 H 799.038 7.66642 -2.79492 0
M  V30 5190 H 796.383 5.16254 -2.65229 0
M  V30 5191 H 796.103 7.06532 -0.329431 0
M  V30 5192 H 795.112 6.91023 -1.82047 0
M  V30 5193 H 796.946 8.90873 -1.62657 0
M  V30 5194 H 797.018 6.00104 0.892197 0
M  V30 5195 H 796.916 4.31733 2.69229 0
M  V30 5196 H 796.528 0.724835 1.8844 0
M  V30 5197 H 796.724 1.94716 3.16734 0
M  V30 5198 P 795.075 8.03563 -3.84925 0
M  V30 5199 O 794.855 8.85821 -5.0569 0
M  V30 5200 O 794.285 8.41101 -2.65469 0
M  V30 5201 O 794.825 6.4965 -4.18908 0
M  V30 5202 C 795.765 5.81037 -5.05421 0
M  V30 5203 C 795.035 4.78366 -5.89277 0
M  V30 5204 O 794.825 3.58302 -5.08433 0
M  V30 5205 C 793.635 5.17448 -6.36119 0
M  V30 5206 O 793.245 4.45271 -7.53232 0
M  V30 5207 C 792.755 4.74639 -5.19936 0
M  V30 5208 C 793.465 3.49432 -4.70418 0
M  V30 5209 N 793.415 3.32099 -3.22613 0
M  V30 5210 H 796.254 6.54213 -5.71376 0
M  V30 5211 H 796.526 5.30936 -4.43503 0
M  V30 5212 H 795.658 4.55889 -6.76652 0
M  V30 5213 H 793.003 2.61715 -5.17932 0
M  V30 5214 H 792.723 5.52155 -4.41878 0
M  V30 5215 H 791.732 4.51981 -5.53374 0
M  V30 5216 H 793.566 6.25124 -6.55234 0
M  V30 5217 P 791.695 4.23843 -7.83734 0
M  V30 5218 O 791.475 4.19407 -9.29784 0
M  V30 5219 O 790.905 5.24426 -7.09156 0
M  V30 5220 O 791.445 2.7935 -7.20758 0
M  V30 5221 C 792.385 1.7299 -7.50419 0
M  V30 5222 C 791.655 0.406376 -7.57911 0
M  V30 5223 O 791.445 -0.0897726 -6.21935 0
M  V30 5224 C 790.255 0.447224 -8.1878 0
M  V30 5225 O 789.865 -0.825065 -8.71101 0
M  V30 5226 C 789.375 0.783801 -6.99623 0
M  V30 5227 C 790.085 0.0619192 -5.85967 0
M  V30 5228 N 790.035 0.790462 -4.56202 0
M  V30 5229 H 792.874 1.93423 -8.4679 0
M  V30 5230 H 793.146 1.68852 -6.70877 0
M  V30 5231 H 792.278 -0.289041 -8.15388 0
M  V30 5232 H 789.623 -0.927006 -5.72848 0
M  V30 5233 H 789.343 1.86973 -6.82036 0
M  V30 5234 H 788.352 0.403953 -7.13357 0
M  V30 5235 H 790.186 1.20599 -8.97534 0
M  V30 5236 P 788.315 -1.17771 -8.83182 0
M  V30 5237 O 788.095 -2.07206 -9.98732 0
M  V30 5238 O 787.525 0.0743816 -8.81969 0
M  V30 5239 O 788.065 -1.97652 -7.47304 0
M  V30 5240 C 789.005 -3.01133 -7.08783 0
M  V30 5241 C 788.275 -4.12613 -6.37049 0
M  V30 5242 O 788.065 -3.72827 -4.97879 0
M  V30 5243 C 786.875 -4.45085 -6.88694 0
M  V30 5244 O 786.485 -5.7877 -6.5624 0
M  V30 5245 C 785.995 -3.47817 -6.12078 0
M  V30 5246 C 786.705 -3.39414 -4.77697 0
M  V30 5247 N 786.655 -2.04615 -4.15333 0
M  V30 5248 H 789.494 -3.41248 -7.98759 0
M  V30 5249 H 789.766 -2.5837 -6.41742 0
M  V30 5250 H 788.898 -5.02657 -6.42673 0
M  V30 5251 P 784.935 -6.144 -6.45285 0
M  V30 5252 O 784.715 -7.54673 -6.86199 0
M  V30 5253 O 784.145 -5.12391 -7.179 0
M  V30 5254 O 784.685 -5.99158 -4.88404 0
M  V30 5255 C 785.625 -6.60234 -3.96415 0
M  V30 5256 C 784.895 -7.08259 -2.72856 0
M  V30 5257 O 784.685 -5.9427 -1.83651 0
M  V30 5258 C 783.495 -7.64886 -2.9555 0
M  V30 5259 O 783.105 -8.53963 -1.90717 0
M  V30 5260 C 782.615 -6.4116 -2.90739 0
M  V30 5261 C 783.325 -5.55375 -1.86963 0
M  V30 5262 N 783.275 -4.09664 -2.15742 0
M  V30 5263 H 786.114 -7.45574 -4.45629 0
M  V30 5264 H 786.386 -5.86232 -3.67314 0
M  V30 5265 H 785.518 -7.84412 -2.24479 0
M  V30 5266 P 781.555 -8.7635 -1.60911 0
M  V30 5267 O 781.335 -10.1388 -1.11561 0
M  V30 5268 O 780.765 -8.36503 -2.79617 0
M  V30 5269 O 781.305 -7.71806 -0.42951 0
M  V30 5270 C 782.245 -7.67148 0.673689 0
M  V30 5271 C 781.515 -7.33374 1.95559 0
M  V30 5272 O 781.305 -5.88721 2.00726 0
M  V30 5273 C 780.115 -7.92526 2.10483 0
M  V30 5274 O 779.725 -8.02971 3.47653 0
M  V30 5275 C 779.235 -6.89602 1.41652 0
M  V30 5276 C 779.945 -5.59201 1.75185 0
M  V30 5277 N 779.895 -4.58235 0.662552 0
M  V30 5278 H 782.734 -8.65116 0.777161 0
M  V30 5279 H 783.006 -6.90173 0.474152 0
M  V30 5280 H 782.138 -7.66548 2.79458 0
M  V30 5281 P 778.175 -8.03563 3.84925 0
M  V30 5282 O 777.955 -8.85821 5.0569 0
M  V30 5283 O 777.385 -8.41101 2.65469 0
M  V30 5284 O 777.925 -6.4965 4.18908 0
M  V30 5285 C 778.865 -5.81037 5.05421 0
M  V30 5286 C 778.135 -4.78366 5.89277 0
M  V30 5287 O 777.925 -3.58302 5.08433 0
M  V30 5288 C 776.735 -5.17448 6.36119 0
M  V30 5289 O 776.345 -4.45271 7.53232 0
M  V30 5290 C 775.855 -4.74639 5.19936 0
M  V30 5291 C 776.565 -3.49432 4.70418 0
M  V30 5292 N 776.515 -3.32099 3.22613 0
M  V30 5293 H 779.354 -6.54213 5.71376 0
M  V30 5294 H 779.626 -5.30936 4.43503 0
M  V30 5295 H 778.758 -4.55889 6.76652 0
M  V30 5296 H 776.103 -2.61715 5.17932 0
M  V30 5297 H 775.823 -5.52155 4.41878 0
M  V30 5298 H 774.832 -4.51981 5.53374 0
M  V30 5299 H 776.666 -6.25124 6.55234 0
M  V30 5300 P 774.795 -4.23843 7.83734 0
M  V30 5301 O 774.575 -4.19407 9.29784 0
M  V30 5302 O 774.005 -5.24426 7.09156 0
M  V30 5303 O 774.545 -2.7935 7.20758 0
M  V30 5304 C 775.485 -1.7299 7.50419 0
M  V30 5305 C 774.755 -0.406376 7.57911 0
M  V30 5306 O 774.545 0.0897726 6.21935 0
M  V30 5307 C 773.355 -0.447224 8.1878 0
M  V30 5308 O 772.965 0.825065 8.71101 0
M  V30 5309 C 772.475 -0.783801 6.99623 0
M  V30 5310 C 773.185 -0.0619192 5.85967 0
M  V30 5311 N 773.135 -0.7859 4.56281 0
M  V30 5312 H 775.974 -1.93423 8.4679 0
M  V30 5313 H 776.246 -1.68181 6.71046 0
M  V30 5314 H 775.378 0.289041 8.15388 0
M  V30 5315 P 771.415 1.17771 8.83182 0
M  V30 5316 O 771.195 2.07206 9.98732 0
M  V30 5317 O 770.625 -0.0743816 8.81969 0
M  V30 5318 O 771.165 1.97652 7.47304 0
M  V30 5319 C 772.105 3.01055 7.08599 0
M  V30 5320 C 771.375 4.12613 6.37049 0
M  V30 5321 O 771.165 3.72827 4.97879 0
M  V30 5322 C 769.975 4.45719 6.88164 0
M  V30 5323 O 769.585 5.7877 6.5624 0
M  V30 5324 C 769.095 3.47768 6.11991 0
M  V30 5325 C 769.805 3.39356 4.77615 0
M  V30 5326 N 769.755 2.04571 4.15244 0
M  V30 5327 C 769.605 1.98587 2.78314 0
M  V30 5328 O 769.515 2.98134 2.08835 0
M  V30 5329 N 769.565 0.714467 2.24925 0
M  V30 5330 C 769.655 -0.470001 2.94169 0
M  V30 5331 C 769.805 -0.312541 4.36783 0
M  V30 5332 C 769.855 0.914512 4.92583 0
M  V30 5333 H 772.596 3.41169 7.98575 0
M  V30 5334 H 772.865 2.58295 6.41556 0
M  V30 5335 H 771.998 5.02657 6.42673 0
M  V30 5336 H 769.343 4.11637 4.08885 0
M  V30 5337 H 769.064 2.49626 6.61679 0
M  V30 5338 H 768.072 3.86566 6.00778 0
M  V30 5339 H 769.906 4.29943 7.96918 0
M  V30 5340 H 769.977 1.00937 6.00374 0
M  V30 5341 P 768.035 6.144 6.45285 0
M  V30 5342 O 767.815 7.54673 6.86199 0
M  V30 5343 O 767.245 5.12391 7.179 0
M  V30 5344 O 767.785 5.99158 4.88404 0
M  V30 5345 C 768.725 6.60062 3.96313 0
M  V30 5346 C 767.995 7.08259 2.72856 0
M  V30 5347 O 767.785 5.9427 1.83651 0
M  V30 5348 C 766.595 7.65087 2.94749 0
M  V30 5349 O 766.205 8.53963 1.90717 0
M  V30 5350 C 765.715 6.41069 2.90698 0
M  V30 5351 C 766.425 5.5528 1.86931 0
M  V30 5352 N 766.375 4.09575 2.15696 0
M  V30 5353 C 766.225 3.24249 1.08435 0
M  V30 5354 O 766.135 3.63946 -0.0628747 0
M  V30 5355 N 766.185 1.90009 1.39973 0
M  V30 5356 C 766.275 1.34884 2.65614 0
M  V30 5357 O 766.225 0.123716 2.81728 0
M  V30 5358 C 766.425 2.3145 3.71736 0
M  V30 5359 C 766.535 1.75913 5.10438 0
M  V30 5360 C 766.475 3.63518 3.44754 0
M  V30 5361 H 769.216 7.45402 4.45526 0
M  V30 5362 H 769.485 5.86062 3.67208 0
M  V30 5363 H 768.618 7.84412 2.24479 0
M  V30 5364 H 765.963 5.73358 0.888409 0
M  V30 5365 H 765.684 5.90877 3.88583 0
M  V30 5366 H 764.692 6.65867 2.58821 0
M  V30 5367 H 766.526 8.16248 3.92006 0
M  V30 5368 H 766.597 4.34551 4.26383 0
M  V30 5369 H 765.567 1.85471 5.61775 0
M  V30 5370 H 767.304 2.31364 5.66257 0
M  V30 5371 H 766.816 0.695936 5.05229 0
M  V30 5372 H 766.08 1.26277 0.63625 0
M  V30 5373 P 764.656 8.7635 1.60911 0
M  V30 5374 O 764.436 10.1388 1.11561 0
M  V30 5375 O 763.866 8.36503 2.79617 0
M  V30 5376 O 764.406 7.71806 0.42951 0
M  V30 5377 C 765.346 7.67148 -0.673689 0
M  V30 5378 C 764.616 7.33374 -1.95559 0
M  V30 5379 O 764.406 5.88721 -2.00726 0
M  V30 5380 C 763.216 7.92526 -2.10483 0
M  V30 5381 O 762.826 8.02971 -3.47653 0
M  V30 5382 C 762.336 6.89602 -1.41652 0
M  V30 5383 C 763.046 5.59201 -1.75185 0
M  V30 5384 N 762.996 4.58235 -0.662552 0
M  V30 5385 H 765.835 8.65116 -0.777161 0
M  V30 5386 H 766.107 6.90173 -0.474152 0
M  V30 5387 H 765.239 7.66548 -2.79458 0
M  V30 5388 P 761.276 8.03563 -3.84925 0
M  V30 5389 O 761.056 8.85821 -5.0569 0
M  V30 5390 O 760.486 8.41101 -2.65469 0
M  V30 5391 O 761.026 6.4965 -4.18908 0
M  V30 5392 C 761.966 5.81037 -5.05421 0
M  V30 5393 C 761.236 4.78366 -5.89277 0
M  V30 5394 O 761.026 3.58302 -5.08433 0
M  V30 5395 C 759.836 5.17448 -6.36119 0
M  V30 5396 O 759.446 4.45271 -7.53232 0
M  V30 5397 C 758.956 4.74639 -5.19936 0
M  V30 5398 C 759.666 3.49432 -4.70418 0
M  V30 5399 N 759.616 3.31776 -3.22945 0
M  V30 5400 H 762.455 6.54213 -5.71376 0
M  V30 5401 H 762.727 5.30492 -4.44033 0
M  V30 5402 H 761.859 4.55889 -6.76652 0
M  V30 5403 P 757.896 4.23843 -7.83734 0
M  V30 5404 O 757.676 4.19407 -9.29784 0
M  V30 5405 O 757.106 5.24426 -7.09156 0
M  V30 5406 O 757.646 2.7935 -7.20758 0
M  V30 5407 C 758.586 1.72945 -7.50224 0
M  V30 5408 C 757.856 0.406376 -7.57911 0
M  V30 5409 O 757.646 -0.0897726 -6.21935 0
M  V30 5410 C 756.456 0.438983 -8.18724 0
M  V30 5411 O 756.066 -0.825065 -8.71101 0
M  V30 5412 C 755.576 0.783689 -6.99524 0
M  V30 5413 C 756.286 0.0619086 -5.85867 0
M  V30 5414 N 756.236 0.78573 -4.56183 0
M  V30 5415 C 756.086 0.0292889 -3.41887 0
M  V30 5416 O 755.996 -1.18445 -3.4419 0
M  V30 5417 N 756.046 0.744061 -2.23964 0
M  V30 5418 C 756.136 2.10932 -2.10362 0
M  V30 5419 O 756.086 2.64117 -0.98825 0
M  V30 5420 C 756.286 2.8202 -3.34994 0
M  V30 5421 C 756.396 4.31095 -3.25037 0
M  V30 5422 C 756.336 2.15547 -4.52261 0
M  V30 5423 H 759.077 1.93379 -8.46595 0
M  V30 5424 H 759.346 1.68132 -6.70852 0
M  V30 5425 H 758.479 -0.289041 -8.15388 0
M  V30 5426 H 755.824 -0.926847 -5.72749 0
M  V30 5427 H 755.545 1.86973 -6.82036 0
M  V30 5428 H 754.553 0.403896 -7.13257 0
M  V30 5429 H 756.387 1.20585 -8.97435 0
M  V30 5430 H 756.458 2.71231 -5.45042 0
M  V30 5431 H 755.428 4.76966 -3.49992 0
M  V30 5432 H 757.165 4.67047 -3.95024 0
M  V30 5433 H 756.677 4.58996 -2.22312 0
M  V30 5434 H 755.941 0.214893 -1.39758 0
M  V30 5435 P 754.516 -1.17771 -8.83182 0
M  V30 5436 O 754.296 -2.07206 -9.98732 0
M  V30 5437 O 753.726 0.0743816 -8.81969 0
M  V30 5438 O 754.266 -1.97652 -7.47304 0
M  V30 5439 C 755.206 -3.01055 -7.08599 0
M  V30 5440 C 754.476 -4.12613 -6.37049 0
M  V30 5441 O 754.266 -3.72827 -4.97879 0
M  V30 5442 C 753.076 -4.45719 -6.88164 0
M  V30 5443 O 752.686 -5.7877 -6.5624 0
M  V30 5444 C 752.196 -3.47768 -6.11991 0
M  V30 5445 C 752.906 -3.39356 -4.77615 0
M  V30 5446 N 752.856 -2.04571 -4.15244 0
M  V30 5447 C 752.706 -1.98587 -2.78314 0
M  V30 5448 O 752.616 -2.98134 -2.08835 0
M  V30 5449 N 752.666 -0.714467 -2.24925 0
M  V30 5450 C 752.756 0.470001 -2.94169 0
M  V30 5451 O 752.706 1.55587 -2.35195 0
M  V30 5452 C 752.906 0.312541 -4.36783 0
M  V30 5453 C 753.016 1.57711 -5.16352 0
M  V30 5454 C 752.956 -0.914512 -4.92583 0
M  V30 5455 H 755.697 -3.41169 -7.98575 0
M  V30 5456 H 755.966 -2.58295 -6.41556 0
M  V30 5457 H 755.099 -5.02657 -6.42673 0
M  V30 5458 H 752.444 -4.11637 -4.08885 0
M  V30 5459 H 752.165 -2.49626 -6.61679 0
M  V30 5460 H 751.173 -3.86566 -6.00778 0
M  V30 5461 H 753.007 -4.29943 -7.96918 0
M  V30 5462 H 753.078 -1.00937 -6.00374 0
M  V30 5463 H 752.048 1.80153 -5.63503 0
M  V30 5464 H 753.785 1.4566 -5.94104 0
M  V30 5465 H 753.297 2.40664 -4.49645 0
M  V30 5466 H 752.561 -0.647622 -1.25697 0
M  V30 5467 P 751.136 -6.144 -6.45285 0
M  V30 5468 O 750.916 -7.54673 -6.86199 0
M  V30 5469 O 750.346 -5.12391 -7.179 0
M  V30 5470 O 750.886 -5.99158 -4.88404 0
M  V30 5471 C 751.826 -6.60234 -3.96415 0
M  V30 5472 C 751.096 -7.08259 -2.72856 0
M  V30 5473 O 750.886 -5.9427 -1.83651 0
M  V30 5474 C 749.696 -7.64886 -2.9555 0
M  V30 5475 O 749.306 -8.53963 -1.90717 0
M  V30 5476 C 748.816 -6.4116 -2.90739 0
M  V30 5477 C 749.526 -5.55375 -1.86963 0
M  V30 5478 N 749.476 -4.09664 -2.15742 0
M  V30 5479 H 752.315 -7.45574 -4.45629 0
M  V30 5480 H 752.587 -5.86232 -3.67314 0
M  V30 5481 H 751.719 -7.84412 -2.24479 0
M  V30 5482 P 747.756 -8.7635 -1.60911 0
M  V30 5483 O 747.536 -10.1388 -1.11561 0
M  V30 5484 O 746.966 -8.36503 -2.79617 0
M  V30 5485 O 747.506 -7.71806 -0.42951 0
M  V30 5486 C 748.446 -7.67148 0.673689 0
M  V30 5487 C 747.716 -7.33374 1.95559 0
M  V30 5488 O 747.506 -5.88721 2.00726 0
M  V30 5489 C 746.316 -7.92526 2.10483 0
M  V30 5490 O 745.926 -8.02971 3.47653 0
M  V30 5491 C 745.436 -6.89602 1.41652 0
M  V30 5492 C 746.146 -5.59201 1.75185 0
M  V30 5493 N 746.096 -4.58235 0.662552 0
M  V30 5494 H 748.935 -8.65116 0.777161 0
M  V30 5495 H 749.207 -6.90173 0.474152 0
M  V30 5496 H 748.339 -7.66548 2.79458 0
M  V30 5497 P 744.376 -8.03563 3.84925 0
M  V30 5498 O 744.156 -8.85821 5.0569 0
M  V30 5499 O 743.586 -8.41101 2.65469 0
M  V30 5500 O 744.126 -6.4965 4.18908 0
M  V30 5501 C 745.066 -5.81037 5.05421 0
M  V30 5502 C 744.336 -4.78366 5.89277 0
M  V30 5503 O 744.126 -3.58302 5.08433 0
M  V30 5504 C 742.936 -5.17448 6.36119 0
M  V30 5505 O 742.546 -4.45271 7.53232 0
M  V30 5506 C 742.056 -4.74639 5.19936 0
M  V30 5507 C 742.766 -3.49432 4.70418 0
M  V30 5508 N 742.716 -3.31776 3.22945 0
M  V30 5509 H 745.555 -6.54213 5.71376 0
M  V30 5510 H 745.827 -5.30492 4.44033 0
M  V30 5511 H 744.959 -4.55889 6.76652 0
M  V30 5512 P 740.996 -4.23843 7.83734 0
M  V30 5513 O 740.776 -4.19407 9.29784 0
M  V30 5514 O 740.206 -5.24426 7.09156 0
M  V30 5515 O 740.746 -2.7935 7.20758 0
M  V30 5516 C 741.686 -1.7299 7.50419 0
M  V30 5517 C 740.956 -0.406376 7.57911 0
M  V30 5518 O 740.746 0.0897726 6.21935 0
M  V30 5519 C 739.556 -0.447224 8.1878 0
M  V30 5520 O 739.166 0.825065 8.71101 0
M  V30 5521 C 738.676 -0.783801 6.99623 0
M  V30 5522 C 739.386 -0.0619192 5.85967 0
M  V30 5523 N 739.336 -0.790462 4.56202 0
M  V30 5524 H 742.175 -1.93423 8.4679 0
M  V30 5525 H 742.447 -1.68852 6.70877 0
M  V30 5526 H 741.579 0.289041 8.15388 0
M  V30 5527 H 738.924 0.927006 5.72848 0
M  V30 5528 H 738.644 -1.86973 6.82036 0
M  V30 5529 H 737.653 -0.403953 7.13357 0
M  V30 5530 H 739.487 -1.20599 8.97534 0
M  V30 5531 P 737.616 1.17771 8.83182 0
M  V30 5532 O 737.396 2.07206 9.98732 0
M  V30 5533 O 736.826 -0.0743816 8.81969 0
M  V30 5534 O 737.366 1.97652 7.47304 0
M  V30 5535 C 738.306 3.01133 7.08783 0
M  V30 5536 C 737.576 4.12613 6.37049 0
M  V30 5537 O 737.366 3.72827 4.97879 0
M  V30 5538 C 736.176 4.45085 6.88694 0
M  V30 5539 O 735.786 5.7877 6.5624 0
M  V30 5540 C 735.296 3.47817 6.12078 0
M  V30 5541 C 736.006 3.39414 4.77697 0
M  V30 5542 N 735.956 2.04199 4.15538 0
M  V30 5543 C 736.036 0.821545 4.76977 0
M  V30 5544 N 735.966 -0.1794 3.94592 0
M  V30 5545 C 735.816 0.419121 2.70776 0
M  V30 5546 C 735.686 -0.109072 1.40577 0
M  V30 5547 N 735.676 -1.4104 1.1344 0
M  V30 5548 N 735.566 0.764381 0.39411 0
M  V30 5549 C 735.576 2.06587 0.664135 0
M  V30 5550 N 735.696 2.67948 1.82153 0
M  V30 5551 C 735.816 1.77942 2.8147 0
M  V30 5552 H 738.795 3.41248 7.98759 0
M  V30 5553 H 739.067 2.57728 6.42 0
M  V30 5554 H 738.199 5.02657 6.42673 0
M  V30 5555 H 735.544 4.11708 4.08956 0
M  V30 5556 H 735.264 2.49626 6.61679 0
M  V30 5557 H 734.273 3.8662 6.00862 0
M  V30 5558 H 736.107 4.29991 7.97006 0
M  V30 5559 H 736.148 0.702451 5.84696 0
M  V30 5560 H 735.767 -2.09647 1.89651 0
M  V30 5561 H 735.578 -1.73358 0.160575 0
M  V30 5562 H 735.47 2.71695 -0.195838 0
M  V30 5563 P 734.236 6.144 6.45285 0
M  V30 5564 O 734.016 7.54673 6.86199 0
M  V30 5565 O 733.446 5.12391 7.179 0
M  V30 5566 O 733.986 5.99158 4.88404 0
M  V30 5567 C 734.926 6.60062 3.96313 0
M  V30 5568 C 734.196 7.08259 2.72856 0
M  V30 5569 O 733.986 5.9427 1.83651 0
M  V30 5570 C 732.796 7.65087 2.94749 0
M  V30 5571 O 732.406 8.53963 1.90717 0
M  V30 5572 C 731.916 6.41069 2.90698 0
M  V30 5573 C 732.626 5.5528 1.86931 0
M  V30 5574 N 732.576 4.09575 2.15696 0
M  V30 5575 C 732.426 3.24249 1.08435 0
M  V30 5576 O 732.336 3.63946 -0.0628747 0
M  V30 5577 N 732.386 1.90009 1.39973 0
M  V30 5578 C 732.476 1.34884 2.65614 0
M  V30 5579 O 732.426 0.123716 2.81728 0
M  V30 5580 C 732.626 2.3145 3.71736 0
M  V30 5581 C 732.736 1.75913 5.10438 0
M  V30 5582 C 732.676 3.63518 3.44754 0
M  V30 5583 H 735.417 7.45402 4.45526 0
M  V30 5584 H 735.686 5.86062 3.67208 0
M  V30 5585 H 734.819 7.84412 2.24479 0
M  V30 5586 H 732.164 5.73358 0.888409 0
M  V30 5587 H 731.885 5.90877 3.88583 0
M  V30 5588 H 730.893 6.65867 2.58821 0
M  V30 5589 H 732.727 8.16248 3.92006 0
M  V30 5590 H 732.798 4.34551 4.26383 0
M  V30 5591 H 731.768 1.85471 5.61775 0
M  V30 5592 H 733.505 2.31364 5.66257 0
M  V30 5593 H 733.017 0.695936 5.05229 0
M  V30 5594 H 732.281 1.26277 0.63625 0
M  V30 5595 P 730.856 8.7635 1.60911 0
M  V30 5596 O 730.636 10.1388 1.11561 0
M  V30 5597 O 730.066 8.36503 2.79617 0
M  V30 5598 O 730.606 7.71806 0.42951 0
M  V30 5599 C 731.546 7.67148 -0.673689 0
M  V30 5600 C 730.816 7.33374 -1.95559 0
M  V30 5601 O 730.606 5.88721 -2.00726 0
M  V30 5602 C 729.416 7.92526 -2.10483 0
M  V30 5603 O 729.026 8.02971 -3.47653 0
M  V30 5604 C 728.536 6.89602 -1.41652 0
M  V30 5605 C 729.246 5.59201 -1.75185 0
M  V30 5606 N 729.196 4.58235 -0.662552 0
M  V30 5607 H 732.035 8.65116 -0.777161 0
M  V30 5608 H 732.307 6.90173 -0.474152 0
M  V30 5609 H 731.439 7.66548 -2.79458 0
M  V30 5610 P 727.476 8.03563 -3.84925 0
M  V30 5611 O 727.256 8.85821 -5.0569 0
M  V30 5612 O 726.686 8.41101 -2.65469 0
M  V30 5613 O 727.226 6.4965 -4.18908 0
M  V30 5614 C 728.166 5.81037 -5.05421 0
M  V30 5615 C 727.436 4.78366 -5.89277 0
M  V30 5616 O 727.226 3.58302 -5.08433 0
M  V30 5617 C 726.036 5.17448 -6.36119 0
M  V30 5618 O 725.646 4.45271 -7.53232 0
M  V30 5619 C 725.156 4.74639 -5.19936 0
M  V30 5620 C 725.866 3.49432 -4.70418 0
M  V30 5621 N 725.816 3.31776 -3.22945 0
M  V30 5622 H 728.655 6.54213 -5.71376 0
M  V30 5623 H 728.927 5.30492 -4.44033 0
M  V30 5624 H 728.059 4.55889 -6.76652 0
M  V30 5625 P 724.096 4.23843 -7.83734 0
M  V30 5626 O 723.876 4.19407 -9.29784 0
M  V30 5627 O 723.306 5.24426 -7.09156 0
M  V30 5628 O 723.846 2.7935 -7.20758 0
M  V30 5629 C 724.786 1.7299 -7.50419 0
M  V30 5630 C 724.056 0.406376 -7.57911 0
M  V30 5631 O 723.846 -0.0897726 -6.21935 0
M  V30 5632 C 722.656 0.447224 -8.1878 0
M  V30 5633 O 722.266 -0.825065 -8.71101 0
M  V30 5634 C 721.776 0.783801 -6.99623 0
M  V30 5635 C 722.486 0.0619192 -5.85967 0
M  V30 5636 N 722.436 0.7859 -4.56281 0
M  V30 5637 H 725.275 1.93423 -8.4679 0
M  V30 5638 H 725.547 1.68181 -6.71046 0
M  V30 5639 H 724.679 -0.289041 -8.15388 0
M  V30 5640 P 720.716 -1.17771 -8.83182 0
M  V30 5641 O 720.496 -2.07206 -9.98732 0
M  V30 5642 O 719.926 0.0743816 -8.81969 0
M  V30 5643 O 720.466 -1.97652 -7.47304 0
M  V30 5644 C 721.406 -3.01055 -7.08599 0
M  V30 5645 C 720.676 -4.12613 -6.37049 0
M  V30 5646 O 720.466 -3.72827 -4.97879 0
M  V30 5647 C 719.276 -4.45719 -6.88164 0
M  V30 5648 O 718.886 -5.7877 -6.5624 0
M  V30 5649 C 718.396 -3.47768 -6.11991 0
M  V30 5650 C 719.106 -3.39356 -4.77615 0
M  V30 5651 N 719.056 -2.04571 -4.15244 0
M  V30 5652 C 718.906 -1.98587 -2.78314 0
M  V30 5653 O 718.816 -2.98134 -2.08835 0
M  V30 5654 N 718.866 -0.714467 -2.24925 0
M  V30 5655 C 718.956 0.470001 -2.94169 0
M  V30 5656 C 719.106 0.312541 -4.36783 0
M  V30 5657 C 719.156 -0.914512 -4.92583 0
M  V30 5658 H 721.897 -3.41169 -7.98575 0
M  V30 5659 H 722.166 -2.58295 -6.41556 0
M  V30 5660 H 721.299 -5.02657 -6.42673 0
M  V30 5661 H 718.644 -4.11637 -4.08885 0
M  V30 5662 H 718.365 -2.49626 -6.61679 0
M  V30 5663 H 717.373 -3.86566 -6.00778 0
M  V30 5664 H 719.207 -4.29943 -7.96918 0
M  V30 5665 H 719.278 -1.00937 -6.00374 0
M  V30 5666 P 717.336 -6.144 -6.45285 0
M  V30 5667 O 717.116 -7.54673 -6.86199 0
M  V30 5668 O 716.546 -5.12391 -7.179 0
M  V30 5669 O 717.086 -5.99158 -4.88404 0
M  V30 5670 C 718.026 -6.60234 -3.96415 0
M  V30 5671 C 717.296 -7.08259 -2.72856 0
M  V30 5672 O 717.086 -5.9427 -1.83651 0
M  V30 5673 C 715.896 -7.64886 -2.9555 0
M  V30 5674 O 715.506 -8.53963 -1.90717 0
M  V30 5675 C 715.016 -6.4116 -2.90739 0
M  V30 5676 C 715.726 -5.55375 -1.86963 0
M  V30 5677 N 715.676 -4.09664 -2.15742 0
M  V30 5678 H 718.515 -7.45574 -4.45629 0
M  V30 5679 H 718.787 -5.86232 -3.67314 0
M  V30 5680 H 717.919 -7.84412 -2.24479 0
M  V30 5681 P 713.956 -8.7635 -1.60911 0
M  V30 5682 O 713.736 -10.1388 -1.11561 0
M  V30 5683 O 713.166 -8.36503 -2.79617 0
M  V30 5684 O 713.706 -7.71806 -0.42951 0
M  V30 5685 C 714.646 -7.67148 0.673689 0
M  V30 5686 C 713.916 -7.33374 1.95559 0
M  V30 5687 O 713.706 -5.88721 2.00726 0
M  V30 5688 C 712.516 -7.92526 2.10483 0
M  V30 5689 O 712.126 -8.02971 3.47653 0
M  V30 5690 C 711.636 -6.89602 1.41652 0
M  V30 5691 C 712.346 -5.59201 1.75185 0
M  V30 5692 N 712.296 -4.58301 0.657969 0
M  V30 5693 H 715.135 -8.65116 0.777161 0
M  V30 5694 H 715.407 -6.9022 0.46725 0
M  V30 5695 H 714.539 -7.66548 2.79458 0
M  V30 5696 H 711.884 -5.16165 2.65183 0
M  V30 5697 H 711.604 -7.06433 0.329384 0
M  V30 5698 H 710.613 -6.90926 1.82021 0
M  V30 5699 H 712.447 -8.90873 1.62657 0
M  V30 5700 P 710.576 -8.03563 3.84925 0
M  V30 5701 O 710.356 -8.85821 5.0569 0
M  V30 5702 O 709.786 -8.41101 2.65469 0
M  V30 5703 O 710.326 -6.4965 4.18908 0
M  V30 5704 C 711.266 -5.81037 5.05421 0
M  V30 5705 C 710.536 -4.78366 5.89277 0
M  V30 5706 O 710.326 -3.58302 5.08433 0
M  V30 5707 C 709.136 -5.17448 6.36119 0
M  V30 5708 O 708.746 -4.45271 7.53232 0
M  V30 5709 C 708.256 -4.74639 5.19936 0
M  V30 5710 C 708.966 -3.49432 4.70418 0
M  V30 5711 N 708.916 -3.32099 3.22613 0
M  V30 5712 H 711.755 -6.54213 5.71376 0
M  V30 5713 H 712.027 -5.30936 4.43503 0
M  V30 5714 H 711.159 -4.55889 6.76652 0
M  V30 5715 H 708.504 -2.61715 5.17932 0
M  V30 5716 H 708.224 -5.52155 4.41878 0
M  V30 5717 H 707.233 -4.51981 5.53374 0
M  V30 5718 H 709.067 -6.25124 6.55234 0
M  V30 5719 P 707.196 -4.23843 7.83734 0
M  V30 5720 O 706.976 -4.19407 9.29784 0
M  V30 5721 O 706.406 -5.24426 7.09156 0
M  V30 5722 O 706.946 -2.7935 7.20758 0
M  V30 5723 C 707.886 -1.72945 7.50224 0
M  V30 5724 C 707.156 -0.406376 7.57911 0
M  V30 5725 O 706.946 0.0897726 6.21935 0
M  V30 5726 C 705.756 -0.438983 8.18724 0
M  V30 5727 O 705.366 0.825065 8.71101 0
M  V30 5728 C 704.876 -0.783689 6.99524 0
M  V30 5729 C 705.586 -0.0619086 5.85867 0
M  V30 5730 N 705.536 -0.78573 4.56183 0
M  V30 5731 C 705.386 -0.0292889 3.41887 0
M  V30 5732 O 705.296 1.18445 3.4419 0
M  V30 5733 N 705.346 -0.744061 2.23964 0
M  V30 5734 C 705.436 -2.10932 2.10362 0
M  V30 5735 O 705.386 -2.64117 0.98825 0
M  V30 5736 C 705.586 -2.8202 3.34994 0
M  V30 5737 C 705.696 -4.31095 3.25037 0
M  V30 5738 C 705.636 -2.15547 4.52261 0
M  V30 5739 H 708.377 -1.93379 8.46595 0
M  V30 5740 H 708.646 -1.68132 6.70852 0
M  V30 5741 H 707.779 0.289041 8.15388 0
M  V30 5742 H 705.124 0.926847 5.72749 0
M  V30 5743 H 704.845 -1.86973 6.82036 0
M  V30 5744 H 703.853 -0.403896 7.13257 0
M  V30 5745 H 705.687 -1.20585 8.97435 0
M  V30 5746 H 705.758 -2.71231 5.45042 0
M  V30 5747 H 704.728 -4.76966 3.49992 0
M  V30 5748 H 706.465 -4.67047 3.95024 0
M  V30 5749 H 705.977 -4.58996 2.22312 0
M  V30 5750 H 705.241 -0.214893 1.39758 0
M  V30 5751 P 703.816 1.17771 8.83182 0
M  V30 5752 O 703.596 2.07206 9.98732 0
M  V30 5753 O 703.026 -0.0743816 8.81969 0
M  V30 5754 O 703.566 1.97652 7.47304 0
M  V30 5755 C 704.506 3.01133 7.08783 0
M  V30 5756 C 703.776 4.12613 6.37049 0
M  V30 5757 O 703.566 3.72827 4.97879 0
M  V30 5758 C 702.376 4.45085 6.88694 0
M  V30 5759 O 701.986 5.7877 6.5624 0
M  V30 5760 C 701.496 3.47817 6.12078 0
M  V30 5761 C 702.206 3.39414 4.77697 0
M  V30 5762 N 702.156 2.04615 4.15333 0
M  V30 5763 H 704.995 3.41248 7.98759 0
M  V30 5764 H 705.267 2.5837 6.41742 0
M  V30 5765 H 704.399 5.02657 6.42673 0
M  V30 5766 P 700.436 6.144 6.45285 0
M  V30 5767 O 700.216 7.54673 6.86199 0
M  V30 5768 O 699.646 5.12391 7.179 0
M  V30 5769 O 700.186 5.99158 4.88404 0
M  V30 5770 C 701.126 6.60062 3.96313 0
M  V30 5771 C 700.396 7.08259 2.72856 0
M  V30 5772 O 700.186 5.9427 1.83651 0
M  V30 5773 C 698.996 7.65087 2.94749 0
M  V30 5774 O 698.606 8.53963 1.90717 0
M  V30 5775 C 698.116 6.41069 2.90698 0
M  V30 5776 C 698.826 5.5528 1.86931 0
M  V30 5777 N 698.776 4.09575 2.15696 0
M  V30 5778 C 698.626 3.24249 1.08435 0
M  V30 5779 O 698.536 3.63946 -0.0628747 0
M  V30 5780 N 698.586 1.90009 1.39973 0
M  V30 5781 C 698.676 1.34884 2.65614 0
M  V30 5782 C 698.826 2.3145 3.71736 0
M  V30 5783 C 698.876 3.63518 3.44754 0
M  V30 5784 H 701.617 7.45402 4.45526 0
M  V30 5785 H 701.886 5.86062 3.67208 0
M  V30 5786 H 701.019 7.84412 2.24479 0
M  V30 5787 H 698.364 5.73358 0.888409 0
M  V30 5788 H 698.085 5.90877 3.88583 0
M  V30 5789 H 697.093 6.65867 2.58821 0
M  V30 5790 H 698.927 8.16248 3.92006 0
M  V30 5791 H 698.998 4.34551 4.26383 0
M  V30 5792 P 697.056 8.7635 1.60911 0
M  V30 5793 O 696.836 10.1388 1.11561 0
M  V30 5794 O 696.266 8.36503 2.79617 0
M  V30 5795 O 696.806 7.71806 0.42951 0
M  V30 5796 C 697.746 7.67148 -0.673689 0
M  V30 5797 C 697.016 7.33374 -1.95559 0
M  V30 5798 O 696.806 5.88721 -2.00726 0
M  V30 5799 C 695.616 7.92526 -2.10483 0
M  V30 5800 O 695.226 8.02971 -3.47653 0
M  V30 5801 C 694.736 6.89602 -1.41652 0
M  V30 5802 C 695.446 5.59201 -1.75185 0
M  V30 5803 N 695.396 4.58235 -0.662552 0
M  V30 5804 H 698.235 8.65116 -0.777161 0
M  V30 5805 H 698.507 6.90173 -0.474152 0
M  V30 5806 H 697.639 7.66548 -2.79458 0
M  V30 5807 P 693.676 8.03563 -3.84925 0
M  V30 5808 O 693.456 8.85821 -5.0569 0
M  V30 5809 O 692.886 8.41101 -2.65469 0
M  V30 5810 O 693.426 6.4965 -4.18908 0
M  V30 5811 C 694.366 5.81037 -5.05421 0
M  V30 5812 C 693.636 4.78366 -5.89277 0
M  V30 5813 O 693.426 3.58302 -5.08433 0
M  V30 5814 C 692.236 5.17448 -6.36119 0
M  V30 5815 O 691.846 4.45271 -7.53232 0
M  V30 5816 C 691.356 4.74639 -5.19936 0
M  V30 5817 C 692.066 3.49432 -4.70418 0
M  V30 5818 N 692.016 3.31776 -3.22945 0
M  V30 5819 H 694.855 6.54213 -5.71376 0
M  V30 5820 H 695.127 5.30492 -4.44033 0
M  V30 5821 H 694.259 4.55889 -6.76652 0
M  V30 5822 P 690.296 4.23843 -7.83734 0
M  V30 5823 O 690.076 4.19407 -9.29784 0
M  V30 5824 O 689.506 5.24426 -7.09156 0
M  V30 5825 O 690.046 2.7935 -7.20758 0
M  V30 5826 C 690.986 1.72945 -7.50224 0
M  V30 5827 C 690.256 0.406376 -7.57911 0
M  V30 5828 O 690.046 -0.0897726 -6.21935 0
M  V30 5829 C 688.856 0.438983 -8.18724 0
M  V30 5830 O 688.466 -0.825065 -8.71101 0
M  V30 5831 C 687.976 0.783689 -6.99524 0
M  V30 5832 C 688.686 0.0619086 -5.85867 0
M  V30 5833 N 688.636 0.78573 -4.56183 0
M  V30 5834 C 688.486 0.0292889 -3.41887 0
M  V30 5835 O 688.396 -1.18445 -3.4419 0
M  V30 5836 N 688.446 0.744061 -2.23964 0
M  V30 5837 C 688.536 2.10932 -2.10362 0
M  V30 5838 C 688.686 2.8202 -3.34994 0
M  V30 5839 C 688.736 2.15547 -4.52261 0
M  V30 5840 H 691.477 1.93379 -8.46595 0
M  V30 5841 H 691.746 1.68132 -6.70852 0
M  V30 5842 H 690.879 -0.289041 -8.15388 0
M  V30 5843 H 688.224 -0.926847 -5.72749 0
M  V30 5844 H 687.945 1.86973 -6.82036 0
M  V30 5845 H 686.953 0.403896 -7.13257 0
M  V30 5846 H 688.787 1.20585 -8.97435 0
M  V30 5847 H 688.858 2.71231 -5.45042 0
M  V30 5848 P 686.916 -1.17771 -8.83182 0
M  V30 5849 O 686.696 -2.07206 -9.98732 0
M  V30 5850 O 686.126 0.0743816 -8.81969 0
M  V30 5851 O 686.666 -1.97652 -7.47304 0
M  V30 5852 C 687.606 -3.01133 -7.08783 0
M  V30 5853 C 686.876 -4.12613 -6.37049 0
M  V30 5854 O 686.666 -3.72827 -4.97879 0
M  V30 5855 C 685.476 -4.45085 -6.88694 0
M  V30 5856 O 685.086 -5.7877 -6.5624 0
M  V30 5857 C 684.596 -3.47817 -6.12078 0
M  V30 5858 C 685.306 -3.39414 -4.77697 0
M  V30 5859 N 685.256 -2.04615 -4.15333 0
M  V30 5860 H 688.095 -3.41248 -7.98759 0
M  V30 5861 H 688.367 -2.5837 -6.41742 0
M  V30 5862 H 687.499 -5.02657 -6.42673 0
M  V30 5863 P 683.536 -6.144 -6.45285 0
M  V30 5864 O 683.316 -7.54673 -6.86199 0
M  V30 5865 O 682.746 -5.12391 -7.179 0
M  V30 5866 O 683.286 -5.99158 -4.88404 0
M  V30 5867 C 684.226 -6.60234 -3.96415 0
M  V30 5868 C 683.496 -7.08259 -2.72856 0
M  V30 5869 O 683.286 -5.9427 -1.83651 0
M  V30 5870 C 682.096 -7.64886 -2.9555 0
M  V30 5871 O 681.706 -8.53963 -1.90717 0
M  V30 5872 C 681.216 -6.4116 -2.90739 0
M  V30 5873 C 681.926 -5.55375 -1.86963 0
M  V30 5874 N 681.876 -4.09664 -2.15742 0
M  V30 5875 H 684.715 -7.45574 -4.45629 0
M  V30 5876 H 684.987 -5.86232 -3.67314 0
M  V30 5877 H 684.119 -7.84412 -2.24479 0
M  V30 5878 P 680.156 -8.7635 -1.60911 0
M  V30 5879 O 679.936 -10.1388 -1.11561 0
M  V30 5880 O 679.366 -8.36503 -2.79617 0
M  V30 5881 O 679.906 -7.71806 -0.42951 0
M  V30 5882 C 680.846 -7.67148 0.673689 0
M  V30 5883 C 680.116 -7.33374 1.95559 0
M  V30 5884 O 679.906 -5.88721 2.00726 0
M  V30 5885 C 678.716 -7.92526 2.10483 0
M  V30 5886 O 678.326 -8.02971 3.47653 0
M  V30 5887 C 677.836 -6.89602 1.41652 0
M  V30 5888 C 678.546 -5.59201 1.75185 0
M  V30 5889 N 678.496 -4.58301 0.657969 0
M  V30 5890 C 678.576 -4.79019 -0.692603 0
M  V30 5891 N 678.506 -3.69736 -1.38998 0
M  V30 5892 C 678.356 -2.70474 -0.438135 0
M  V30 5893 C 678.226 -1.30327 -0.538142 0
M  V30 5894 N 678.216 -0.64304 -1.69192 0
M  V30 5895 N 678.106 -0.611027 0.605183 0
M  V30 5896 C 678.116 -1.27002 1.75953 0
M  V30 5897 N 678.236 -2.56038 1.98546 0
M  V30 5898 C 678.356 -3.22681 0.822541 0
M  V30 5899 H 681.335 -8.65116 0.777161 0
M  V30 5900 H 681.607 -6.9022 0.46725 0
M  V30 5901 H 680.739 -7.66548 2.79458 0
M  V30 5902 H 678.084 -5.16165 2.65183 0
M  V30 5903 H 677.804 -7.06433 0.329384 0
M  V30 5904 H 676.813 -6.90926 1.82021 0
M  V30 5905 H 678.647 -8.90873 1.62657 0
M  V30 5906 H 678.688 -5.77785 -1.13874 0
M  V30 5907 H 678.307 -1.15585 -2.57991 0
M  V30 5908 H 678.118 0.382989 -1.69835 0
M  V30 5909 H 678.01 -0.653331 2.64449 0
M  V30 5910 P 676.776 -8.03563 3.84925 0
M  V30 5911 O 676.556 -8.85821 5.0569 0
M  V30 5912 O 675.986 -8.41101 2.65469 0
M  V30 5913 O 676.526 -6.4965 4.18908 0
M  V30 5914 C 677.466 -5.80886 5.05289 0
M  V30 5915 C 676.736 -4.78366 5.89277 0
M  V30 5916 O 676.526 -3.58302 5.08433 0
M  V30 5917 C 675.336 -5.16748 6.36559 0
M  V30 5918 O 674.946 -4.45271 7.53232 0
M  V30 5919 C 674.456 -4.74572 5.19863 0
M  V30 5920 C 675.166 -3.49373 4.70338 0
M  V30 5921 N 675.116 -3.31704 3.22876 0
M  V30 5922 C 674.966 -2.03326 2.74871 0
M  V30 5923 O 674.876 -1.06486 3.48076 0
M  V30 5924 N 674.926 -1.91838 1.37456 0
M  V30 5925 C 675.016 -2.94295 0.462035 0
M  V30 5926 O 674.966 -2.71763 -0.752928 0
M  V30 5927 C 675.166 -4.25064 1.05249 0
M  V30 5928 C 675.276 -5.39815 0.095697 0
M  V30 5929 C 675.216 -4.40214 2.39192 0
M  V30 5930 H 677.957 -6.54063 5.71245 0
M  V30 5931 H 678.226 -5.30339 4.43905 0
M  V30 5932 H 677.359 -4.55889 6.76652 0
M  V30 5933 H 674.704 -2.6167 5.17842 0
M  V30 5934 H 674.425 -5.52155 4.41878 0
M  V30 5935 H 673.433 -4.51918 5.53297 0
M  V30 5936 H 675.267 -6.25055 6.55162 0
M  V30 5937 H 675.338 -5.39798 2.81523 0
M  V30 5938 H 674.308 -5.91593 0.0279582 0
M  V30 5939 H 676.045 -6.10038 0.450573 0
M  V30 5940 H 675.557 -5.02007 -0.89937 0
M  V30 5941 H 674.821 -0.995326 1.00435 0
M  V30 5942 P 673.396 -4.23843 7.83734 0
M  V30 5943 O 673.176 -4.19407 9.29784 0
M  V30 5944 O 672.606 -5.24426 7.09156 0
M  V30 5945 O 673.146 -2.7935 7.20758 0
M  V30 5946 C 674.086 -1.7299 7.50419 0
M  V30 5947 C 673.356 -0.406376 7.57911 0
M  V30 5948 O 673.146 0.0897726 6.21935 0
M  V30 5949 C 671.956 -0.447224 8.1878 0
M  V30 5950 O 671.566 0.825065 8.71101 0
M  V30 5951 C 671.076 -0.783801 6.99623 0
M  V30 5952 C 671.786 -0.0619192 5.85967 0
M  V30 5953 N 671.736 -0.7859 4.56281 0
M  V30 5954 H 674.575 -1.93423 8.4679 0
M  V30 5955 H 674.847 -1.68181 6.71046 0
M  V30 5956 H 673.979 0.289041 8.15388 0
M  V30 5957 P 670.016 1.17771 8.83182 0
M  V30 5958 O 669.796 2.07206 9.98732 0
M  V30 5959 O 669.226 -0.0743816 8.81969 0
M  V30 5960 O 669.766 1.97678 7.474 0
M  V30 5961 C 670.706 3.01133 7.08783 0
M  V30 5962 C 669.976 4.1203 6.37546 0
M  V30 5963 O 669.766 3.72887 4.9796 0
M  V30 5964 C 668.576 4.45085 6.88694 0
M  V30 5965 O 668.186 5.78836 6.56315 0
M  V30 5966 C 667.696 3.47817 6.12078 0
M  V30 5967 C 668.406 3.39414 4.77697 0
M  V30 5968 N 668.356 2.04615 4.15333 0
M  V30 5969 C 668.206 1.96929 2.77162 0
M  V30 5970 O 668.116 3.02017 2.12006 0
M  V30 5971 N 668.156 0.55485 2.24237 0
M  V30 5972 C 668.256 -0.367808 2.9169 0
M  V30 5973 N 668.206 -1.53426 2.29427 0
M  V30 5974 C 668.406 -0.319148 4.33828 0
M  V30 5975 C 668.456 0.920672 4.90433 0
M  V30 5976 H 671.196 3.41209 7.98667 0
M  V30 5977 H 671.466 2.5837 6.41742 0
M  V30 5978 H 670.599 5.02718 6.42752 0
M  V30 5979 H 667.944 4.11779 4.09026 0
M  V30 5980 H 667.664 2.49661 6.61772 0
M  V30 5981 H 666.673 3.86674 6.00946 0
M  V30 5982 H 668.507 4.29991 7.97006 0
M  V30 5983 H 668.579 1.00589 5.98303 0
M  V30 5984 H 668.477 -1.22639 4.93799 0
M  V30 5985 H 668.089 -1.56819 1.27167 0
M  V30 5986 H 668.285 -2.41062 2.83063 0
M  V30 5987 P 666.636 6.144 6.45285 0
M  V30 5988 O 666.416 7.54673 6.86199 0
M  V30 5989 O 665.846 5.12391 7.179 0
M  V30 5990 O 666.386 5.99158 4.88404 0
M  V30 5991 C 667.326 6.60234 3.96415 0
M  V30 5992 C 666.596 7.08259 2.72856 0
M  V30 5993 O 666.386 5.9427 1.83651 0
M  V30 5994 C 665.196 7.64886 2.9555 0
M  V30 5995 O 664.806 8.53963 1.90717 0
M  V30 5996 C 664.316 6.4116 2.90739 0
M  V30 5997 C 665.026 5.55375 1.86963 0
M  V30 5998 N 664.976 4.09664 2.15742 0
M  V30 5999 H 667.815 7.45574 4.45629 0
M  V30 6000 H 668.087 5.86232 3.67314 0
M  V30 6001 H 667.219 7.84412 2.24479 0
M  V30 6002 P 663.256 8.7635 1.60911 0
M  V30 6003 O 663.036 10.1388 1.11561 0
M  V30 6004 O 662.466 8.36503 2.79617 0
M  V30 6005 O 663.006 7.71806 0.42951 0
M  V30 6006 C 663.946 7.67148 -0.673689 0
M  V30 6007 C 663.216 7.33374 -1.95559 0
M  V30 6008 O 663.006 5.88721 -2.00726 0
M  V30 6009 C 661.816 7.92526 -2.10483 0
M  V30 6010 O 661.426 8.02971 -3.47653 0
M  V30 6011 C 660.936 6.89602 -1.41652 0
M  V30 6012 C 661.646 5.59201 -1.75185 0
M  V30 6013 N 661.596 4.58235 -0.662552 0
M  V30 6014 H 664.435 8.65116 -0.777161 0
M  V30 6015 H 664.707 6.90173 -0.474152 0
M  V30 6016 H 663.839 7.66548 -2.79458 0
M  V30 6017 P 659.876 8.03563 -3.84925 0
M  V30 6018 O 659.656 8.85821 -5.0569 0
M  V30 6019 O 659.086 8.41101 -2.65469 0
M  V30 6020 O 659.626 6.4965 -4.18908 0
M  V30 6021 C 660.566 5.81037 -5.05421 0
M  V30 6022 C 659.836 4.78366 -5.89277 0
M  V30 6023 O 659.626 3.58302 -5.08433 0
M  V30 6024 C 658.436 5.17448 -6.36119 0
M  V30 6025 O 658.046 4.45271 -7.53232 0
M  V30 6026 C 657.556 4.74639 -5.19936 0
M  V30 6027 C 658.266 3.49432 -4.70418 0
M  V30 6028 N 658.216 3.31776 -3.22945 0
M  V30 6029 H 661.055 6.54213 -5.71376 0
M  V30 6030 H 661.327 5.30492 -4.44033 0
M  V30 6031 H 660.459 4.55889 -6.76652 0
M  V30 6032 P 656.496 4.23843 -7.83734 0
M  V30 6033 O 656.276 4.19407 -9.29784 0
M  V30 6034 O 655.706 5.24426 -7.09156 0
M  V30 6035 O 656.246 2.7935 -7.20758 0
M  V30 6036 C 657.186 1.7299 -7.50419 0
M  V30 6037 C 656.456 0.406376 -7.57911 0
M  V30 6038 O 656.246 -0.0897726 -6.21935 0
M  V30 6039 C 655.056 0.447224 -8.1878 0
M  V30 6040 O 654.666 -0.825065 -8.71101 0
M  V30 6041 C 654.176 0.783801 -6.99623 0
M  V30 6042 C 654.886 0.0619192 -5.85967 0
M  V30 6043 N 654.836 0.7859 -4.56281 0
M  V30 6044 H 657.675 1.93423 -8.4679 0
M  V30 6045 H 657.947 1.68181 -6.71046 0
M  V30 6046 H 657.079 -0.289041 -8.15388 0
M  V30 6047 P 653.116 -1.17771 -8.83182 0
M  V30 6048 O 652.896 -2.07206 -9.98732 0
M  V30 6049 O 652.326 0.0743816 -8.81969 0
M  V30 6050 O 652.866 -1.97652 -7.47304 0
M  V30 6051 C 653.806 -3.01133 -7.08783 0
M  V30 6052 C 653.076 -4.12613 -6.37049 0
M  V30 6053 O 652.866 -3.72827 -4.97879 0
M  V30 6054 C 651.676 -4.45085 -6.88694 0
M  V30 6055 O 651.286 -5.7877 -6.5624 0
M  V30 6056 C 650.796 -3.47817 -6.12078 0
M  V30 6057 C 651.506 -3.39414 -4.77697 0
M  V30 6058 N 651.456 -2.04199 -4.15538 0
M  V30 6059 C 651.536 -0.821545 -4.76977 0
M  V30 6060 N 651.466 0.1794 -3.94592 0
M  V30 6061 C 651.316 -0.419121 -2.70776 0
M  V30 6062 C 651.186 0.109072 -1.40577 0
M  V30 6063 N 651.176 1.4104 -1.1344 0
M  V30 6064 N 651.066 -0.764381 -0.39411 0
M  V30 6065 C 651.076 -2.06587 -0.664135 0
M  V30 6066 N 651.196 -2.67948 -1.82153 0
M  V30 6067 C 651.316 -1.77942 -2.8147 0
M  V30 6068 H 654.295 -3.41248 -7.98759 0
M  V30 6069 H 654.567 -2.57728 -6.42 0
M  V30 6070 H 653.699 -5.02657 -6.42673 0
M  V30 6071 H 651.044 -4.11708 -4.08956 0
M  V30 6072 H 650.764 -2.49626 -6.61679 0
M  V30 6073 H 649.773 -3.8662 -6.00862 0
M  V30 6074 H 651.607 -4.29991 -7.97006 0
M  V30 6075 H 651.648 -0.702451 -5.84696 0
M  V30 6076 H 651.267 2.09647 -1.89651 0
M  V30 6077 H 651.078 1.73358 -0.160575 0
M  V30 6078 H 650.97 -2.71695 0.195838 0
M  V30 6079 P 649.736 -6.144 -6.45285 0
M  V30 6080 O 649.516 -7.54673 -6.86199 0
M  V30 6081 O 648.946 -5.12391 -7.179 0
M  V30 6082 O 649.486 -5.99158 -4.88404 0
M  V30 6083 C 650.426 -6.60234 -3.96415 0
M  V30 6084 C 649.696 -7.08259 -2.72856 0
M  V30 6085 O 649.486 -5.9427 -1.83651 0
M  V30 6086 C 648.296 -7.64886 -2.9555 0
M  V30 6087 O 647.906 -8.53963 -1.90717 0
M  V30 6088 C 647.416 -6.4116 -2.90739 0
M  V30 6089 C 648.126 -5.55375 -1.86963 0
M  V30 6090 N 648.076 -4.09664 -2.15742 0
M  V30 6091 H 650.915 -7.45574 -4.45629 0
M  V30 6092 H 651.187 -5.86232 -3.67314 0
M  V30 6093 H 650.319 -7.84412 -2.24479 0
M  V30 6094 P 646.356 -8.7635 -1.60911 0
M  V30 6095 O 646.136 -10.1388 -1.11561 0
M  V30 6096 O 645.566 -8.36503 -2.79617 0
M  V30 6097 O 646.106 -7.71906 -0.429565 0
M  V30 6098 C 647.046 -7.67148 0.673689 0
M  V30 6099 C 646.316 -7.33666 1.94851 0
M  V30 6100 O 646.106 -5.88816 2.00759 0
M  V30 6101 C 644.916 -7.92526 2.10483 0
M  V30 6102 O 644.526 -8.03063 3.47693 0
M  V30 6103 C 644.036 -6.89602 1.41652 0
M  V30 6104 C 644.746 -5.59201 1.75185 0
M  V30 6105 N 644.696 -4.58235 0.662552 0
M  V30 6106 C 644.546 -3.24451 1.01643 0
M  V30 6107 O 644.456 -2.94958 2.21722 0
M  V30 6108 N 644.496 -2.30408 -0.165238 0
M  V30 6109 C 644.596 -2.66048 -1.25118 0
M  V30 6110 N 644.546 -1.70787 -2.16813 0
M  V30 6111 C 644.746 -4.02732 -1.64413 0
M  V30 6112 C 644.796 -4.9488 -0.63991 0
M  V30 6113 H 647.536 -8.65017 0.777072 0
M  V30 6114 H 647.806 -6.90173 0.474152 0
M  V30 6115 H 646.939 -7.66642 2.79492 0
M  V30 6116 H 644.284 -5.16254 2.65229 0
M  V30 6117 H 644.004 -7.06532 0.329431 0
M  V30 6118 H 643.013 -6.91023 1.82047 0
M  V30 6119 H 644.847 -8.90873 1.62657 0
M  V30 6120 H 644.919 -6.00104 -0.892197 0
M  V30 6121 H 644.817 -4.31733 -2.69229 0
M  V30 6122 H 644.429 -0.724835 -1.8844 0
M  V30 6123 H 644.625 -1.94716 -3.16734 0
M  V30 6124 P 642.976 -8.03563 3.84925 0
M  V30 6125 O 642.756 -8.85821 5.0569 0
M  V30 6126 O 642.186 -8.41101 2.65469 0
M  V30 6127 O 642.726 -6.4965 4.18908 0
M  V30 6128 C 643.666 -5.81037 5.05421 0
M  V30 6129 C 642.936 -4.78366 5.89277 0
M  V30 6130 O 642.726 -3.58302 5.08433 0
M  V30 6131 C 641.536 -5.17448 6.36119 0
M  V30 6132 O 641.146 -4.45271 7.53232 0
M  V30 6133 C 640.656 -4.74639 5.19936 0
M  V30 6134 C 641.366 -3.49432 4.70418 0
M  V30 6135 N 641.316 -3.31776 3.22945 0
M  V30 6136 H 644.155 -6.54213 5.71376 0
M  V30 6137 H 644.427 -5.30492 4.44033 0
M  V30 6138 H 643.559 -4.55889 6.76652 0
M  V30 6139 P 639.596 -4.23843 7.83734 0
M  V30 6140 O 639.376 -4.19407 9.29784 0
M  V30 6141 O 638.806 -5.24426 7.09156 0
M  V30 6142 O 639.346 -2.7935 7.20758 0
M  V30 6143 C 640.286 -1.7299 7.50419 0
M  V30 6144 C 639.556 -0.406376 7.57911 0
M  V30 6145 O 639.346 0.0897726 6.21935 0
M  V30 6146 C 638.156 -0.447224 8.1878 0
M  V30 6147 O 637.766 0.825065 8.71101 0
M  V30 6148 C 637.276 -0.783801 6.99623 0
M  V30 6149 C 637.986 -0.0619192 5.85967 0
M  V30 6150 N 637.936 -0.7859 4.56281 0
M  V30 6151 H 640.775 -1.93423 8.4679 0
M  V30 6152 H 641.047 -1.68181 6.71046 0
M  V30 6153 H 640.179 0.289041 8.15388 0
M  V30 6154 P 636.216 1.17771 8.83182 0
M  V30 6155 O 635.996 2.07206 9.98732 0
M  V30 6156 O 635.426 -0.0743816 8.81969 0
M  V30 6157 O 635.966 1.97652 7.47304 0
M  V30 6158 C 636.906 3.01055 7.08599 0
M  V30 6159 C 636.176 4.12613 6.37049 0
M  V30 6160 O 635.966 3.72827 4.97879 0
M  V30 6161 C 634.776 4.45719 6.88164 0
M  V30 6162 O 634.386 5.7877 6.5624 0
M  V30 6163 C 633.896 3.47768 6.11991 0
M  V30 6164 C 634.606 3.39356 4.77615 0
M  V30 6165 N 634.556 2.04571 4.15244 0
M  V30 6166 C 634.406 1.98587 2.78314 0
M  V30 6167 O 634.316 2.98134 2.08835 0
M  V30 6168 N 634.366 0.714467 2.24925 0
M  V30 6169 C 634.456 -0.470001 2.94169 0
M  V30 6170 O 634.406 -1.55587 2.35195 0
M  V30 6171 C 634.606 -0.312541 4.36783 0
M  V30 6172 C 634.716 -1.57711 5.16352 0
M  V30 6173 C 634.656 0.914512 4.92583 0
M  V30 6174 H 637.397 3.41169 7.98575 0
M  V30 6175 H 637.666 2.58295 6.41556 0
M  V30 6176 H 636.799 5.02657 6.42673 0
M  V30 6177 H 634.144 4.11637 4.08885 0
M  V30 6178 H 633.865 2.49626 6.61679 0
M  V30 6179 H 632.873 3.86566 6.00778 0
M  V30 6180 H 634.707 4.29943 7.96918 0
M  V30 6181 H 634.778 1.00937 6.00374 0
M  V30 6182 H 633.748 -1.80153 5.63503 0
M  V30 6183 H 635.485 -1.4566 5.94104 0
M  V30 6184 H 634.997 -2.40664 4.49645 0
M  V30 6185 H 634.261 0.647622 1.25697 0
M  V30 6186 P 632.836 6.144 6.45285 0
M  V30 6187 O 632.616 7.54673 6.86199 0
M  V30 6188 O 632.046 5.12391 7.179 0
M  V30 6189 O 632.586 5.99158 4.88404 0
M  V30 6190 C 633.526 6.60234 3.96415 0
M  V30 6191 C 632.796 7.08259 2.72856 0
M  V30 6192 O 632.586 5.9427 1.83651 0
M  V30 6193 C 631.396 7.64886 2.9555 0
M  V30 6194 O 631.006 8.53963 1.90717 0
M  V30 6195 C 630.516 6.4116 2.90739 0
M  V30 6196 C 631.226 5.55375 1.86963 0
M  V30 6197 N 631.176 4.09664 2.15742 0
M  V30 6198 H 634.015 7.45574 4.45629 0
M  V30 6199 H 634.287 5.86232 3.67314 0
M  V30 6200 H 633.419 7.84412 2.24479 0
M  V30 6201 P 629.456 8.7635 1.60911 0
M  V30 6202 O 629.236 10.1388 1.11561 0
M  V30 6203 O 628.666 8.36503 2.79617 0
M  V30 6204 O 629.206 7.71806 0.42951 0
M  V30 6205 C 630.146 7.66948 -0.673514 0
M  V30 6206 C 629.416 7.33374 -1.95559 0
M  V30 6207 O 629.206 5.88721 -2.00726 0
M  V30 6208 C 628.016 7.92218 -2.1125 0
M  V30 6209 O 627.626 8.02971 -3.47653 0
M  V30 6210 C 627.136 6.89504 -1.41631 0
M  V30 6211 C 627.846 5.59106 -1.75155 0
M  V30 6212 N 627.796 4.58136 -0.662409 0
M  V30 6213 C 627.646 3.26059 -1.02863 0
M  V30 6214 O 627.556 2.90743 -2.19009 0
M  V30 6215 N 627.606 2.35995 0.0155585 0
M  V30 6216 C 627.696 2.65248 1.35603 0
M  V30 6217 O 627.646 1.75605 2.20651 0
M  V30 6218 C 627.846 4.05747 1.64698 0
M  V30 6219 C 627.956 4.42345 3.09553 0
M  V30 6220 C 627.896 4.96734 0.652411 0
M  V30 6221 H 630.637 8.64917 -0.776982 0
M  V30 6222 H 630.906 6.89974 -0.474015 0
M  V30 6223 H 630.039 7.66548 -2.79458 0
M  V30 6224 H 627.384 5.16076 -2.65138 0
M  V30 6225 H 627.105 7.06433 -0.329384 0
M  V30 6226 H 626.113 6.90829 -1.81996 0
M  V30 6227 H 627.947 8.90774 -1.62639 0
M  V30 6228 H 628.018 6.02181 0.895285 0
M  V30 6229 H 626.988 4.80252 3.45468 0
M  V30 6230 H 628.725 5.20015 3.22119 0
M  V30 6231 H 628.237 3.53269 3.67833 0
M  V30 6232 H 627.501 1.39558 -0.227499 0
M  V30 6233 P 626.076 8.03563 -3.84925 0
M  V30 6234 O 625.856 8.85821 -5.0569 0
M  V30 6235 O 625.286 8.41101 -2.65469 0
M  V30 6236 O 625.826 6.4965 -4.18908 0
M  V30 6237 C 626.766 5.81037 -5.05421 0
M  V30 6238 C 626.036 4.78366 -5.89277 0
M  V30 6239 O 625.826 3.58302 -5.08433 0
M  V30 6240 C 624.636 5.17448 -6.36119 0
M  V30 6241 O 624.246 4.45271 -7.53232 0
M  V30 6242 C 623.756 4.74639 -5.19936 0
M  V30 6243 C 624.466 3.49432 -4.70418 0
M  V30 6244 N 624.416 3.31776 -3.22945 0
M  V30 6245 H 627.255 6.54213 -5.71376 0
M  V30 6246 H 627.527 5.30492 -4.44033 0
M  V30 6247 H 626.659 4.55889 -6.76652 0
M  V30 6248 P 622.696 4.23843 -7.83734 0
M  V30 6249 O 622.476 4.19407 -9.29784 0
M  V30 6250 O 621.906 5.24426 -7.09156 0
M  V30 6251 O 622.446 2.7935 -7.20758 0
M  V30 6252 C 623.386 1.7299 -7.50419 0
M  V30 6253 C 622.656 0.406376 -7.57911 0
M  V30 6254 O 622.446 -0.0897726 -6.21935 0
M  V30 6255 C 621.256 0.447224 -8.1878 0
M  V30 6256 O 620.866 -0.825065 -8.71101 0
M  V30 6257 C 620.376 0.783801 -6.99623 0
M  V30 6258 C 621.086 0.0619192 -5.85967 0
M  V30 6259 N 621.036 0.790462 -4.56202 0
M  V30 6260 H 623.875 1.93423 -8.4679 0
M  V30 6261 H 624.147 1.68852 -6.70877 0
M  V30 6262 H 623.279 -0.289041 -8.15388 0
M  V30 6263 H 620.624 -0.927006 -5.72848 0
M  V30 6264 H 620.344 1.86973 -6.82036 0
M  V30 6265 H 619.353 0.403953 -7.13357 0
M  V30 6266 H 621.187 1.20599 -8.97534 0
M  V30 6267 P 619.316 -1.17771 -8.83182 0
M  V30 6268 O 619.096 -2.07206 -9.98732 0
M  V30 6269 O 618.526 0.0743816 -8.81969 0
M  V30 6270 O 619.066 -1.97652 -7.47304 0
M  V30 6271 C 620.006 -3.01133 -7.08783 0
M  V30 6272 C 619.276 -4.12613 -6.37049 0
M  V30 6273 O 619.066 -3.72827 -4.97879 0
M  V30 6274 C 617.876 -4.45085 -6.88694 0
M  V30 6275 O 617.486 -5.7877 -6.5624 0
M  V30 6276 C 616.996 -3.47817 -6.12078 0
M  V30 6277 C 617.706 -3.39414 -4.77697 0
M  V30 6278 N 617.656 -2.04199 -4.15538 0
M  V30 6279 C 617.736 -0.821545 -4.76977 0
M  V30 6280 N 617.666 0.1794 -3.94592 0
M  V30 6281 C 617.516 -0.419121 -2.70776 0
M  V30 6282 C 617.386 0.109072 -1.40577 0
M  V30 6283 N 617.376 1.4104 -1.1344 0
M  V30 6284 N 617.266 -0.764381 -0.39411 0
M  V30 6285 C 617.276 -2.06587 -0.664135 0
M  V30 6286 N 617.396 -2.67948 -1.82153 0
M  V30 6287 C 617.516 -1.77942 -2.8147 0
M  V30 6288 H 620.495 -3.41248 -7.98759 0
M  V30 6289 H 620.767 -2.57728 -6.42 0
M  V30 6290 H 619.899 -5.02657 -6.42673 0
M  V30 6291 H 617.244 -4.11708 -4.08956 0
M  V30 6292 H 616.964 -2.49626 -6.61679 0
M  V30 6293 H 615.973 -3.8662 -6.00862 0
M  V30 6294 H 617.807 -4.29991 -7.97006 0
M  V30 6295 H 617.848 -0.702451 -5.84696 0
M  V30 6296 H 617.467 2.09647 -1.89651 0
M  V30 6297 H 617.278 1.73358 -0.160575 0
M  V30 6298 H 617.17 -2.71695 0.195838 0
M  V30 6299 P 615.936 -6.144 -6.45285 0
M  V30 6300 O 615.716 -7.54673 -6.86199 0
M  V30 6301 O 615.146 -5.12391 -7.179 0
M  V30 6302 O 615.686 -5.99158 -4.88404 0
M  V30 6303 C 616.626 -6.60234 -3.96415 0
M  V30 6304 C 615.896 -7.08259 -2.72856 0
M  V30 6305 O 615.686 -5.9427 -1.83651 0
M  V30 6306 C 614.496 -7.64886 -2.9555 0
M  V30 6307 O 614.106 -8.53963 -1.90717 0
M  V30 6308 C 613.616 -6.4116 -2.90739 0
M  V30 6309 C 614.326 -5.55375 -1.86963 0
M  V30 6310 N 614.276 -4.09664 -2.15742 0
M  V30 6311 H 617.115 -7.45574 -4.45629 0
M  V30 6312 H 617.387 -5.86232 -3.67314 0
M  V30 6313 H 616.519 -7.84412 -2.24479 0
M  V30 6314 P 612.556 -8.7635 -1.60911 0
M  V30 6315 O 612.336 -10.1388 -1.11561 0
M  V30 6316 O 611.766 -8.36503 -2.79617 0
M  V30 6317 O 612.306 -7.71906 -0.429565 0
M  V30 6318 C 613.246 -7.67148 0.673689 0
M  V30 6319 C 612.516 -7.33666 1.94851 0
M  V30 6320 O 612.306 -5.88816 2.00759 0
M  V30 6321 C 611.116 -7.92526 2.10483 0
M  V30 6322 O 610.726 -8.03063 3.47693 0
M  V30 6323 C 610.236 -6.89602 1.41652 0
M  V30 6324 C 610.946 -5.59201 1.75185 0
M  V30 6325 N 610.896 -4.58235 0.662552 0
M  V30 6326 C 610.746 -3.24451 1.01643 0
M  V30 6327 O 610.656 -2.94958 2.21722 0
M  V30 6328 N 610.696 -2.30408 -0.165238 0
M  V30 6329 C 610.796 -2.66048 -1.25118 0
M  V30 6330 N 610.746 -1.70787 -2.16813 0
M  V30 6331 C 610.946 -4.02732 -1.64413 0
M  V30 6332 C 610.996 -4.9488 -0.63991 0
M  V30 6333 H 613.736 -8.65017 0.777072 0
M  V30 6334 H 614.006 -6.90173 0.474152 0
M  V30 6335 H 613.139 -7.66642 2.79492 0
M  V30 6336 H 610.484 -5.16254 2.65229 0
M  V30 6337 H 610.204 -7.06532 0.329431 0
M  V30 6338 H 609.213 -6.91023 1.82047 0
M  V30 6339 H 611.047 -8.90873 1.62657 0
M  V30 6340 H 611.119 -6.00104 -0.892197 0
M  V30 6341 H 611.017 -4.31733 -2.69229 0
M  V30 6342 H 610.629 -0.724835 -1.8844 0
M  V30 6343 H 610.825 -1.94716 -3.16734 0
M  V30 6344 P 609.176 -8.03563 3.84925 0
M  V30 6345 O 608.956 -8.85821 5.0569 0
M  V30 6346 O 608.386 -8.41101 2.65469 0
M  V30 6347 O 608.926 -6.49734 4.18962 0
M  V30 6348 C 609.866 -5.81037 5.05421 0
M  V30 6349 C 609.136 -4.79018 5.88876 0
M  V30 6350 O 608.926 -3.58359 5.08515 0
M  V30 6351 C 607.736 -5.17448 6.36119 0
M  V30 6352 O 607.346 -4.45322 7.53318 0
M  V30 6353 C 606.856 -4.74639 5.19936 0
M  V30 6354 C 607.566 -3.49432 4.70418 0
M  V30 6355 N 607.516 -3.31776 3.22945 0
M  V30 6356 C 607.366 -2.02742 2.72939 0
M  V30 6357 O 607.276 -1.08301 3.52749 0
M  V30 6358 N 607.316 -1.96117 1.22063 0
M  V30 6359 C 607.416 -2.8878 0.551566 0
M  V30 6360 N 607.366 -2.65609 -0.750198 0
M  V30 6361 C 607.566 -4.22457 1.03707 0
M  V30 6362 C 607.616 -4.37979 2.39113 0
M  V30 6363 H 610.356 -6.54138 5.7131 0
M  V30 6364 H 610.626 -5.30492 4.44033 0
M  V30 6365 H 609.759 -4.55945 6.76735 0
M  V30 6366 H 607.104 -2.6176 5.18021 0
M  V30 6367 H 606.824 -5.52233 4.41941 0
M  V30 6368 H 605.833 -4.52045 5.53452 0
M  V30 6369 H 607.667 -6.25124 6.55234 0
M  V30 6370 H 607.739 -5.37936 2.80552 0
M  V30 6371 H 607.637 -5.07528 0.359553 0
M  V30 6372 H 607.249 -1.69403 -1.09847 0
M  V30 6373 H 607.445 -3.43701 -1.41792 0
M  V30 6374 P 605.796 -4.23843 7.83734 0
M  V30 6375 O 605.576 -4.19407 9.29784 0
M  V30 6376 O 605.006 -5.24426 7.09156 0
M  V30 6377 O 605.546 -2.7935 7.20758 0
M  V30 6378 C 606.486 -1.7299 7.50419 0
M  V30 6379 C 605.756 -0.406376 7.57911 0
M  V30 6380 O 605.546 0.0897726 6.21935 0
M  V30 6381 C 604.356 -0.447224 8.1878 0
M  V30 6382 O 603.966 0.825065 8.71101 0
M  V30 6383 C 603.476 -0.783801 6.99623 0
M  V30 6384 C 604.186 -0.0619192 5.85967 0
M  V30 6385 N 604.136 -0.790462 4.56202 0
M  V30 6386 C 604.216 -2.13895 4.34171 0
M  V30 6387 N 604.146 -2.46449 3.08687 0
M  V30 6388 C 603.996 -1.2525 2.43697 0
M  V30 6389 C 603.866 -0.914535 1.07318 0
M  V30 6390 N 603.856 -1.80782 0.0887348 0
M  V30 6391 N 603.746 0.386745 0.768133 0
M  V30 6392 C 603.756 1.28096 1.75159 0
M  V30 6393 N 603.876 1.09708 3.04861 0
M  V30 6394 C 603.996 -0.214857 3.32306 0
M  V30 6395 H 606.975 -1.93423 8.4679 0
M  V30 6396 H 607.247 -1.68852 6.70877 0
M  V30 6397 H 606.379 0.289041 8.15388 0
M  V30 6398 H 603.724 0.927006 5.72848 0
M  V30 6399 H 603.444 -1.86973 6.82036 0
M  V30 6400 H 602.453 -0.403953 7.13357 0
M  V30 6401 H 604.287 -1.20599 8.97534 0
M  V30 6402 H 604.328 -2.86846 5.14318 0
M  V30 6403 H 603.947 -2.81082 0.302037 0
M  V30 6404 H 603.758 -1.49688 -0.889064 0
M  V30 6405 H 603.65 2.31317 1.43855 0
M  V30 6406 P 602.416 1.17771 8.83182 0
M  V30 6407 O 602.196 2.07206 9.98732 0
M  V30 6408 O 601.626 -0.0743816 8.81969 0
M  V30 6409 O 602.166 1.97652 7.47304 0
M  V30 6410 C 603.106 3.01133 7.08783 0
M  V30 6411 C 602.376 4.12613 6.37049 0
M  V30 6412 O 602.166 3.72827 4.97879 0
M  V30 6413 C 600.976 4.45085 6.88694 0
M  V30 6414 O 600.586 5.7877 6.5624 0
M  V30 6415 C 600.096 3.47817 6.12078 0
M  V30 6416 C 600.806 3.39414 4.77697 0
M  V30 6417 N 600.756 2.04615 4.15333 0
M  V30 6418 H 603.595 3.41248 7.98759 0
M  V30 6419 H 603.867 2.5837 6.41742 0
M  V30 6420 H 602.999 5.02657 6.42673 0
M  V30 6421 P 599.036 6.144 6.45285 0
M  V30 6422 O 598.816 7.54673 6.86199 0
M  V30 6423 O 598.246 5.12391 7.179 0
M  V30 6424 O 598.786 5.99158 4.88404 0
M  V30 6425 C 599.726 6.60062 3.96313 0
M  V30 6426 C 598.996 7.08259 2.72856 0
M  V30 6427 O 598.786 5.9427 1.83651 0
M  V30 6428 C 597.596 7.65087 2.94749 0
M  V30 6429 O 597.206 8.53963 1.90717 0
M  V30 6430 C 596.716 6.41069 2.90698 0
M  V30 6431 C 597.426 5.5528 1.86931 0
M  V30 6432 N 597.376 4.09575 2.15696 0
M  V30 6433 C 597.226 3.24249 1.08435 0
M  V30 6434 O 597.136 3.63946 -0.0628747 0
M  V30 6435 N 597.186 1.90009 1.39973 0
M  V30 6436 C 597.276 1.34884 2.65614 0
M  V30 6437 O 597.226 0.123716 2.81728 0
M  V30 6438 C 597.426 2.3145 3.71736 0
M  V30 6439 C 597.536 1.75913 5.10438 0
M  V30 6440 C 597.476 3.63518 3.44754 0
M  V30 6441 H 600.217 7.45402 4.45526 0
M  V30 6442 H 600.486 5.86062 3.67208 0
M  V30 6443 H 599.619 7.84412 2.24479 0
M  V30 6444 H 596.964 5.73358 0.888409 0
M  V30 6445 H 596.685 5.90877 3.88583 0
M  V30 6446 H 595.693 6.65867 2.58821 0
M  V30 6447 H 597.527 8.16248 3.92006 0
M  V30 6448 H 597.598 4.34551 4.26383 0
M  V30 6449 H 596.568 1.85471 5.61775 0
M  V30 6450 H 598.305 2.31364 5.66257 0
M  V30 6451 H 597.817 0.695936 5.05229 0
M  V30 6452 H 597.081 1.26277 0.63625 0
M  V30 6453 P 595.656 8.7635 1.60911 0
M  V30 6454 O 595.437 10.1388 1.11561 0
M  V30 6455 O 594.866 8.36503 2.79617 0
M  V30 6456 O 595.406 7.71806 0.42951 0
M  V30 6457 C 596.346 7.67148 -0.673689 0
M  V30 6458 C 595.616 7.33374 -1.95559 0
M  V30 6459 O 595.406 5.88721 -2.00726 0
M  V30 6460 C 594.216 7.92526 -2.10483 0
M  V30 6461 O 593.827 8.02971 -3.47653 0
M  V30 6462 C 593.337 6.89602 -1.41652 0
M  V30 6463 C 594.046 5.59201 -1.75185 0
M  V30 6464 N 593.996 4.58235 -0.662552 0
M  V30 6465 H 596.836 8.65116 -0.777161 0
M  V30 6466 H 597.107 6.90173 -0.474152 0
M  V30 6467 H 596.24 7.66548 -2.79458 0
M  V30 6468 P 592.277 8.03563 -3.84925 0
M  V30 6469 O 592.057 8.85821 -5.0569 0
M  V30 6470 O 591.487 8.41101 -2.65469 0
M  V30 6471 O 592.027 6.4965 -4.18908 0
M  V30 6472 C 592.967 5.81037 -5.05421 0
M  V30 6473 C 592.237 4.78366 -5.89277 0
M  V30 6474 O 592.027 3.58302 -5.08433 0
M  V30 6475 C 590.837 5.17448 -6.36119 0
M  V30 6476 O 590.447 4.45271 -7.53232 0
M  V30 6477 C 589.957 4.74639 -5.19936 0
M  V30 6478 C 590.667 3.49432 -4.70418 0
M  V30 6479 N 590.617 3.31776 -3.22945 0
M  V30 6480 C 590.697 4.27147 -2.23315 0
M  V30 6481 N 590.617 3.78447 -1.02186 0
M  V30 6482 C 590.477 2.41001 -1.21732 0
M  V30 6483 C 590.347 1.36111 -0.27694 0
M  V30 6484 N 590.227 0.113683 -0.912949 0
M  V30 6485 C 590.227 -0.0846396 -2.27943 0
M  V30 6486 N 590.097 -1.34737 -2.6916 0
M  V30 6487 N 590.357 0.902521 -3.16379 0
M  V30 6488 C 590.477 2.11937 -2.56849 0
M  V30 6489 H 593.456 6.54213 -5.71376 0
M  V30 6490 H 593.728 5.30492 -4.44033 0
M  V30 6491 H 592.86 4.55889 -6.76652 0
M  V30 6492 P 588.897 4.23843 -7.83734 0
M  V30 6493 O 588.677 4.19407 -9.29784 0
M  V30 6494 O 588.107 5.24426 -7.09156 0
M  V30 6495 O 588.647 2.7935 -7.20758 0
M  V30 6496 C 589.587 1.7299 -7.50419 0
M  V30 6497 C 588.857 0.406376 -7.57911 0
M  V30 6498 O 588.647 -0.0897726 -6.21935 0
M  V30 6499 C 587.457 0.447224 -8.1878 0
M  V30 6500 O 587.067 -0.825065 -8.71101 0
M  V30 6501 C 586.577 0.783801 -6.99623 0
M  V30 6502 C 587.287 0.0619192 -5.85967 0
M  V30 6503 N 587.237 0.7859 -4.56281 0
M  V30 6504 H 590.076 1.93423 -8.4679 0
M  V30 6505 H 590.348 1.68181 -6.71046 0
M  V30 6506 H 589.48 -0.289041 -8.15388 0
M  V30 6507 P 585.517 -1.17771 -8.83182 0
M  V30 6508 O 585.297 -2.07206 -9.98732 0
M  V30 6509 O 584.727 0.0743816 -8.81969 0
M  V30 6510 O 585.267 -1.97652 -7.47304 0
M  V30 6511 C 586.207 -3.01133 -7.08783 0
M  V30 6512 C 585.477 -4.12613 -6.37049 0
M  V30 6513 O 585.267 -3.72827 -4.97879 0
M  V30 6514 C 584.077 -4.45085 -6.88694 0
M  V30 6515 O 583.687 -5.7877 -6.5624 0
M  V30 6516 C 583.197 -3.47817 -6.12078 0
M  V30 6517 C 583.907 -3.39414 -4.77697 0
M  V30 6518 N 583.857 -2.04615 -4.15333 0
M  V30 6519 H 586.696 -3.41248 -7.98759 0
M  V30 6520 H 586.968 -2.5837 -6.41742 0
M  V30 6521 H 586.1 -5.02657 -6.42673 0
M  V30 6522 P 582.137 -6.144 -6.45285 0
M  V30 6523 O 581.917 -7.54673 -6.86199 0
M  V30 6524 O 581.347 -5.12391 -7.179 0
M  V30 6525 O 581.887 -5.99158 -4.88404 0
M  V30 6526 C 582.827 -6.60062 -3.96313 0
M  V30 6527 C 582.097 -7.08259 -2.72856 0
M  V30 6528 O 581.887 -5.9427 -1.83651 0
M  V30 6529 C 580.697 -7.65087 -2.94749 0
M  V30 6530 O 580.307 -8.53963 -1.90717 0
M  V30 6531 C 579.817 -6.41069 -2.90698 0
M  V30 6532 C 580.527 -5.5528 -1.86931 0
M  V30 6533 N 580.477 -4.09575 -2.15696 0
M  V30 6534 C 580.327 -3.24249 -1.08435 0
M  V30 6535 O 580.237 -3.63946 0.0628747 0
M  V30 6536 N 580.287 -1.90009 -1.39973 0
M  V30 6537 C 580.377 -1.34884 -2.65614 0
M  V30 6538 O 580.327 -0.123716 -2.81728 0
M  V30 6539 C 580.527 -2.3145 -3.71736 0
M  V30 6540 C 580.637 -1.75913 -5.10438 0
M  V30 6541 C 580.577 -3.63518 -3.44754 0
M  V30 6542 H 583.318 -7.45402 -4.45526 0
M  V30 6543 H 583.587 -5.86062 -3.67208 0
M  V30 6544 H 582.72 -7.84412 -2.24479 0
M  V30 6545 H 580.065 -5.73358 -0.888409 0
M  V30 6546 H 579.786 -5.90877 -3.88583 0
M  V30 6547 H 578.794 -6.65867 -2.58821 0
M  V30 6548 H 580.628 -8.16248 -3.92006 0
M  V30 6549 H 580.699 -4.34551 -4.26383 0
M  V30 6550 H 579.669 -1.85471 -5.61775 0
M  V30 6551 H 581.406 -2.31364 -5.66257 0
M  V30 6552 H 580.918 -0.695936 -5.05229 0
M  V30 6553 H 580.182 -1.26277 -0.63625 0
M  V30 6554 P 578.757 -8.7635 -1.60911 0
M  V30 6555 O 578.537 -10.1388 -1.11561 0
M  V30 6556 O 577.967 -8.36503 -2.79617 0
M  V30 6557 O 578.507 -7.71806 -0.42951 0
M  V30 6558 C 579.447 -7.67148 0.673689 0
M  V30 6559 C 578.717 -7.33374 1.95559 0
M  V30 6560 O 578.507 -5.88721 2.00726 0
M  V30 6561 C 577.317 -7.92526 2.10483 0
M  V30 6562 O 576.927 -8.02971 3.47653 0
M  V30 6563 C 576.437 -6.89602 1.41652 0
M  V30 6564 C 577.147 -5.59201 1.75185 0
M  V30 6565 N 577.097 -4.58235 0.662552 0
M  V30 6566 H 579.936 -8.65116 0.777161 0
M  V30 6567 H 580.208 -6.90173 0.474152 0
M  V30 6568 H 579.34 -7.66548 2.79458 0
M  V30 6569 P 575.377 -8.03563 3.84925 0
M  V30 6570 O 575.157 -8.85821 5.0569 0
M  V30 6571 O 574.587 -8.41101 2.65469 0
M  V30 6572 O 575.127 -6.4965 4.18908 0
M  V30 6573 C 576.067 -5.81037 5.05421 0
M  V30 6574 C 575.337 -4.78366 5.89277 0
M  V30 6575 O 575.127 -3.58302 5.08433 0
M  V30 6576 C 573.937 -5.17448 6.36119 0
M  V30 6577 O 573.547 -4.45271 7.53232 0
M  V30 6578 C 573.057 -4.74639 5.19936 0
M  V30 6579 C 573.767 -3.49432 4.70418 0
M  V30 6580 N 573.717 -3.31776 3.22945 0
M  V30 6581 H 576.556 -6.54213 5.71376 0
M  V30 6582 H 576.828 -5.30492 4.44033 0
M  V30 6583 H 575.96 -4.55889 6.76652 0
M  V30 6584 P 571.997 -4.23843 7.83734 0
M  V30 6585 O 571.777 -4.19407 9.29784 0
M  V30 6586 O 571.207 -5.24426 7.09156 0
M  V30 6587 O 571.747 -2.7935 7.20758 0
M  V30 6588 C 572.687 -1.7299 7.50419 0
M  V30 6589 C 571.957 -0.406376 7.57911 0
M  V30 6590 O 571.747 0.0897726 6.21935 0
M  V30 6591 C 570.557 -0.447224 8.1878 0
M  V30 6592 O 570.167 0.825065 8.71101 0
M  V30 6593 C 569.677 -0.783801 6.99623 0
M  V30 6594 C 570.387 -0.0619192 5.85967 0
M  V30 6595 N 570.337 -0.7859 4.56281 0
M  V30 6596 H 573.176 -1.93423 8.4679 0
M  V30 6597 H 573.448 -1.68181 6.71046 0
M  V30 6598 H 572.58 0.289041 8.15388 0
M  V30 6599 P 568.617 1.17771 8.83182 0
M  V30 6600 O 568.397 2.07206 9.98732 0
M  V30 6601 O 567.827 -0.0743816 8.81969 0
M  V30 6602 O 568.367 1.97652 7.47304 0
M  V30 6603 C 569.307 3.01055 7.08599 0
M  V30 6604 C 568.577 4.12613 6.37049 0
M  V30 6605 O 568.367 3.72827 4.97879 0
M  V30 6606 C 567.177 4.45719 6.88164 0
M  V30 6607 O 566.787 5.7877 6.5624 0
M  V30 6608 C 566.297 3.47768 6.11991 0
M  V30 6609 C 567.007 3.39356 4.77615 0
M  V30 6610 N 566.957 2.04571 4.15244 0
M  V30 6611 C 566.807 1.98587 2.78314 0
M  V30 6612 O 566.717 2.98134 2.08835 0
M  V30 6613 N 566.767 0.714467 2.24925 0
M  V30 6614 C 566.857 -0.470001 2.94169 0
M  V30 6615 O 566.807 -1.55587 2.35195 0
M  V30 6616 C 567.007 -0.312541 4.36783 0
M  V30 6617 C 567.117 -1.57711 5.16352 0
M  V30 6618 C 567.057 0.914512 4.92583 0
M  V30 6619 H 569.798 3.41169 7.98575 0
M  V30 6620 H 570.067 2.58295 6.41556 0
M  V30 6621 H 569.2 5.02657 6.42673 0
M  V30 6622 H 566.545 4.11637 4.08885 0
M  V30 6623 H 566.266 2.49626 6.61679 0
M  V30 6624 H 565.274 3.86566 6.00778 0
M  V30 6625 H 567.108 4.29943 7.96918 0
M  V30 6626 H 567.179 1.00937 6.00374 0
M  V30 6627 H 566.149 -1.80153 5.63503 0
M  V30 6628 H 567.886 -1.4566 5.94104 0
M  V30 6629 H 567.398 -2.40664 4.49645 0
M  V30 6630 H 566.662 0.647622 1.25697 0
M  V30 6631 P 565.237 6.144 6.45285 0
M  V30 6632 O 565.017 7.54673 6.86199 0
M  V30 6633 O 564.447 5.12391 7.179 0
M  V30 6634 O 564.987 5.99158 4.88404 0
M  V30 6635 C 565.927 6.60234 3.96415 0
M  V30 6636 C 565.197 7.08259 2.72856 0
M  V30 6637 O 564.987 5.9427 1.83651 0
M  V30 6638 C 563.797 7.64886 2.9555 0
M  V30 6639 O 563.407 8.53963 1.90717 0
M  V30 6640 C 562.917 6.4116 2.90739 0
M  V30 6641 C 563.627 5.55375 1.86963 0
M  V30 6642 N 563.577 4.09448 2.16152 0
M  V30 6643 H 566.416 7.45574 4.45629 0
M  V30 6644 H 566.688 5.85864 3.679 0
M  V30 6645 H 565.82 7.84412 2.24479 0
M  V30 6646 H 563.165 5.73457 0.888562 0
M  V30 6647 H 562.885 5.90877 3.88583 0
M  V30 6648 H 561.894 6.6596 2.58858 0
M  V30 6649 H 563.728 8.16339 3.92049 0
M  V30 6650 P 561.857 8.7635 1.60911 0
M  V30 6651 O 561.637 10.1388 1.11561 0
M  V30 6652 O 561.067 8.36503 2.79617 0
M  V30 6653 O 561.607 7.71806 0.42951 0
M  V30 6654 C 562.547 7.67148 -0.673689 0
M  V30 6655 C 561.817 7.33374 -1.95559 0
M  V30 6656 O 561.607 5.88721 -2.00726 0
M  V30 6657 C 560.417 7.92526 -2.10483 0
M  V30 6658 O 560.027 8.02971 -3.47653 0
M  V30 6659 C 559.537 6.89602 -1.41652 0
M  V30 6660 C 560.247 5.59201 -1.75185 0
M  V30 6661 N 560.197 4.58235 -0.662552 0
M  V30 6662 H 563.036 8.65116 -0.777161 0
M  V30 6663 H 563.308 6.90173 -0.474152 0
M  V30 6664 H 562.44 7.66548 -2.79458 0
M  V30 6665 P 558.477 8.03563 -3.84925 0
M  V30 6666 O 558.257 8.85821 -5.0569 0
M  V30 6667 O 557.687 8.41101 -2.65469 0
M  V30 6668 O 558.227 6.4965 -4.18908 0
M  V30 6669 C 559.167 5.81037 -5.05421 0
M  V30 6670 C 558.437 4.78366 -5.89277 0
M  V30 6671 O 558.227 3.58302 -5.08433 0
M  V30 6672 C 557.037 5.17448 -6.36119 0
M  V30 6673 O 556.647 4.45271 -7.53232 0
M  V30 6674 C 556.157 4.74639 -5.19936 0
M  V30 6675 C 556.867 3.49432 -4.70418 0
M  V30 6676 N 556.817 3.31776 -3.22945 0
M  V30 6677 H 559.656 6.54213 -5.71376 0
M  V30 6678 H 559.928 5.30492 -4.44033 0
M  V30 6679 H 559.06 4.55889 -6.76652 0
M  V30 6680 P 555.097 4.23843 -7.83734 0
M  V30 6681 O 554.877 4.19407 -9.29784 0
M  V30 6682 O 554.307 5.24426 -7.09156 0
M  V30 6683 O 554.847 2.7935 -7.20758 0
M  V30 6684 C 555.787 1.72945 -7.50224 0
M  V30 6685 C 555.057 0.406376 -7.57911 0
M  V30 6686 O 554.847 -0.0897726 -6.21935 0
M  V30 6687 C 553.657 0.438983 -8.18724 0
M  V30 6688 O 553.267 -0.825065 -8.71101 0
M  V30 6689 C 552.777 0.783689 -6.99524 0
M  V30 6690 C 553.487 0.0619086 -5.85867 0
M  V30 6691 N 553.437 0.78573 -4.56183 0
M  V30 6692 C 553.287 0.0292889 -3.41887 0
M  V30 6693 O 553.197 -1.18445 -3.4419 0
M  V30 6694 N 553.247 0.744061 -2.23964 0
M  V30 6695 C 553.337 2.10932 -2.10362 0
M  V30 6696 O 553.287 2.64117 -0.98825 0
M  V30 6697 C 553.487 2.8202 -3.34994 0
M  V30 6698 C 553.597 4.31095 -3.25037 0
M  V30 6699 C 553.537 2.15547 -4.52261 0
M  V30 6700 H 556.278 1.93379 -8.46595 0
M  V30 6701 H 556.547 1.68132 -6.70852 0
M  V30 6702 H 555.68 -0.289041 -8.15388 0
M  V30 6703 H 553.025 -0.926847 -5.72749 0
M  V30 6704 H 552.746 1.86973 -6.82036 0
M  V30 6705 H 551.754 0.403896 -7.13257 0
M  V30 6706 H 553.588 1.20585 -8.97435 0
M  V30 6707 H 553.659 2.71231 -5.45042 0
M  V30 6708 H 552.629 4.76966 -3.49992 0
M  V30 6709 H 554.366 4.67047 -3.95024 0
M  V30 6710 H 553.878 4.58996 -2.22312 0
M  V30 6711 H 553.142 0.214893 -1.39758 0
M  V30 6712 P 551.717 -1.17771 -8.83182 0
M  V30 6713 O 551.497 -2.07206 -9.98732 0
M  V30 6714 O 550.927 0.0743816 -8.81969 0
M  V30 6715 O 551.467 -1.97678 -7.474 0
M  V30 6716 C 552.407 -3.01133 -7.08783 0
M  V30 6717 C 551.677 -4.1203 -6.37546 0
M  V30 6718 O 551.467 -3.72887 -4.9796 0
M  V30 6719 C 550.277 -4.45085 -6.88694 0
M  V30 6720 O 549.887 -5.78836 -6.56315 0
M  V30 6721 C 549.397 -3.47817 -6.12078 0
M  V30 6722 C 550.107 -3.39414 -4.77697 0
M  V30 6723 N 550.057 -2.04615 -4.15333 0
M  V30 6724 C 549.907 -1.96929 -2.77162 0
M  V30 6725 O 549.817 -3.02017 -2.12006 0
M  V30 6726 N 549.857 -0.55485 -2.24237 0
M  V30 6727 C 549.957 0.367808 -2.9169 0
M  V30 6728 N 549.907 1.53426 -2.29427 0
M  V30 6729 C 550.107 0.319148 -4.33828 0
M  V30 6730 C 550.157 -0.920672 -4.90433 0
M  V30 6731 H 552.897 -3.41209 -7.98667 0
M  V30 6732 H 553.167 -2.5837 -6.41742 0
M  V30 6733 H 552.3 -5.02718 -6.42752 0
M  V30 6734 H 549.645 -4.11779 -4.09026 0
M  V30 6735 H 549.365 -2.49661 -6.61772 0
M  V30 6736 H 548.374 -3.86674 -6.00946 0
M  V30 6737 H 550.208 -4.29991 -7.97006 0
M  V30 6738 H 550.28 -1.00589 -5.98303 0
M  V30 6739 H 550.178 1.22639 -4.93799 0
M  V30 6740 H 549.79 1.56819 -1.27167 0
M  V30 6741 H 549.986 2.41062 -2.83063 0
M  V30 6742 P 548.337 -6.144 -6.45285 0
M  V30 6743 O 548.117 -7.54673 -6.86199 0
M  V30 6744 O 547.547 -5.12391 -7.179 0
M  V30 6745 O 548.087 -5.99158 -4.88404 0
M  V30 6746 C 549.027 -6.60234 -3.96415 0
M  V30 6747 C 548.297 -7.08259 -2.72856 0
M  V30 6748 O 548.087 -5.9427 -1.83651 0
M  V30 6749 C 546.897 -7.64886 -2.9555 0
M  V30 6750 O 546.507 -8.53963 -1.90717 0
M  V30 6751 C 546.017 -6.4116 -2.90739 0
M  V30 6752 C 546.727 -5.55375 -1.86963 0
M  V30 6753 N 546.677 -4.09664 -2.15742 0
M  V30 6754 H 549.516 -7.45574 -4.45629 0
M  V30 6755 H 549.788 -5.86232 -3.67314 0
M  V30 6756 H 548.92 -7.84412 -2.24479 0
M  V30 6757 P 544.957 -8.7635 -1.60911 0
M  V30 6758 O 544.737 -10.1388 -1.11561 0
M  V30 6759 O 544.167 -8.36503 -2.79617 0
M  V30 6760 O 544.707 -7.71806 -0.42951 0
M  V30 6761 C 545.647 -7.67148 0.673689 0
M  V30 6762 C 544.917 -7.33374 1.95559 0
M  V30 6763 O 544.707 -5.88721 2.00726 0
M  V30 6764 C 543.517 -7.92526 2.10483 0
M  V30 6765 O 543.127 -8.02971 3.47653 0
M  V30 6766 C 542.637 -6.89602 1.41652 0
M  V30 6767 C 543.347 -5.59201 1.75185 0
M  V30 6768 N 543.297 -4.58235 0.662552 0
M  V30 6769 H 546.136 -8.65116 0.777161 0
M  V30 6770 H 546.408 -6.90173 0.474152 0
M  V30 6771 H 545.54 -7.66548 2.79458 0
M  V30 6772 P 541.577 -8.03563 3.84925 0
M  V30 6773 O 541.357 -8.85821 5.0569 0
M  V30 6774 O 540.787 -8.41101 2.65469 0
M  V30 6775 O 541.327 -6.4965 4.18908 0
M  V30 6776 C 542.267 -5.81037 5.05421 0
M  V30 6777 C 541.537 -4.78366 5.89277 0
M  V30 6778 O 541.327 -3.58302 5.08433 0
M  V30 6779 C 540.137 -5.17448 6.36119 0
M  V30 6780 O 539.747 -4.45271 7.53232 0
M  V30 6781 C 539.257 -4.74639 5.19936 0
M  V30 6782 C 539.967 -3.49432 4.70418 0
M  V30 6783 N 539.917 -3.32099 3.22613 0
M  V30 6784 C 539.997 -4.28245 2.25527 0
M  V30 6785 N 539.927 -3.80823 1.04874 0
M  V30 6786 C 539.777 -2.44571 1.23535 0
M  V30 6787 C 539.647 -1.37068 0.330675 0
M  V30 6788 N 539.637 -1.51472 -0.990824 0
M  V30 6789 N 539.527 -0.138614 0.848756 0
M  V30 6790 C 539.537 0.00675923 2.16999 0
M  V30 6791 N 539.657 -0.904372 3.11122 0
M  V30 6792 C 539.777 -2.12707 2.56212 0
M  V30 6793 H 542.756 -6.54213 5.71376 0
M  V30 6794 H 543.028 -5.30936 4.43503 0
M  V30 6795 H 542.16 -4.55889 6.76652 0
M  V30 6796 H 539.505 -2.61715 5.17932 0
M  V30 6797 H 539.225 -5.52155 4.41878 0
M  V30 6798 H 538.234 -4.51981 5.53374 0
M  V30 6799 H 540.068 -6.25124 6.55234 0
M  V30 6800 H 540.109 -5.34372 2.47488 0
M  V30 6801 H 539.728 -2.45153 -1.4078 0
M  V30 6802 H 539.539 -0.688422 -1.59911 0
M  V30 6803 H 539.431 1.02584 2.52346 0
M  V30 6804 P 538.197 -4.23843 7.83734 0
M  V30 6805 O 537.977 -4.19407 9.29784 0
M  V30 6806 O 537.407 -5.24426 7.09156 0
M  V30 6807 O 537.947 -2.7935 7.20758 0
M  V30 6808 C 538.887 -1.72945 7.50224 0
M  V30 6809 C 538.157 -0.406376 7.57911 0
M  V30 6810 O 537.947 0.0897726 6.21935 0
M  V30 6811 C 536.757 -0.438983 8.18724 0
M  V30 6812 O 536.367 0.825065 8.71101 0
M  V30 6813 C 535.877 -0.783689 6.99524 0
M  V30 6814 C 536.587 -0.0619086 5.85867 0
M  V30 6815 N 536.537 -0.78573 4.56183 0
M  V30 6816 C 536.387 -0.0292889 3.41887 0
M  V30 6817 O 536.297 1.18445 3.4419 0
M  V30 6818 N 536.347 -0.744061 2.23964 0
M  V30 6819 C 536.437 -2.10932 2.10362 0
M  V30 6820 C 536.587 -2.8202 3.34994 0
M  V30 6821 C 536.637 -2.15547 4.52261 0
M  V30 6822 H 539.378 -1.93379 8.46595 0
M  V30 6823 H 539.647 -1.68132 6.70852 0
M  V30 6824 H 538.78 0.289041 8.15388 0
M  V30 6825 H 536.125 0.926847 5.72749 0
M  V30 6826 H 535.846 -1.86973 6.82036 0
M  V30 6827 H 534.854 -0.403896 7.13257 0
M  V30 6828 H 536.688 -1.20585 8.97435 0
M  V30 6829 H 536.759 -2.71231 5.45042 0
M  V30 6830 P 534.817 1.17771 8.83182 0
M  V30 6831 O 534.597 2.07206 9.98732 0
M  V30 6832 O 534.027 -0.0743816 8.81969 0
M  V30 6833 O 534.567 1.97652 7.47304 0
M  V30 6834 C 535.507 3.01133 7.08783 0
M  V30 6835 C 534.777 4.12613 6.37049 0
M  V30 6836 O 534.567 3.72827 4.97879 0
M  V30 6837 C 533.377 4.45085 6.88694 0
M  V30 6838 O 532.987 5.7877 6.5624 0
M  V30 6839 C 532.497 3.47817 6.12078 0
M  V30 6840 C 533.207 3.39414 4.77697 0
M  V30 6841 N 533.157 2.04199 4.15538 0
M  V30 6842 H 535.996 3.41248 7.98759 0
M  V30 6843 H 536.268 2.57728 6.42 0
M  V30 6844 H 535.4 5.02657 6.42673 0
M  V30 6845 H 532.745 4.11708 4.08956 0
M  V30 6846 H 532.465 2.49626 6.61679 0
M  V30 6847 H 531.474 3.8662 6.00862 0
M  V30 6848 H 533.308 4.29991 7.97006 0
M  V30 6849 P 531.437 6.144 6.45285 0
M  V30 6850 O 531.217 7.54673 6.86199 0
M  V30 6851 O 530.647 5.12391 7.179 0
M  V30 6852 O 531.187 5.99158 4.88404 0
M  V30 6853 C 532.127 6.60234 3.96415 0
M  V30 6854 C 531.397 7.08259 2.72856 0
M  V30 6855 O 531.187 5.9427 1.83651 0
M  V30 6856 C 529.997 7.64886 2.9555 0
M  V30 6857 O 529.607 8.53963 1.90717 0
M  V30 6858 C 529.117 6.4116 2.90739 0
M  V30 6859 C 529.827 5.55375 1.86963 0
M  V30 6860 N 529.777 4.09448 2.16152 0
M  V30 6861 H 532.616 7.45574 4.45629 0
M  V30 6862 H 532.888 5.85864 3.679 0
M  V30 6863 H 532.02 7.84412 2.24479 0
M  V30 6864 H 529.365 5.73457 0.888562 0
M  V30 6865 H 529.085 5.90877 3.88583 0
M  V30 6866 H 528.094 6.6596 2.58858 0
M  V30 6867 H 529.928 8.16339 3.92049 0
M  V30 6868 P 528.057 8.7635 1.60911 0
M  V30 6869 O 527.837 10.1388 1.11561 0
M  V30 6870 O 527.267 8.36503 2.79617 0
M  V30 6871 O 527.807 7.71806 0.42951 0
M  V30 6872 C 528.747 7.67148 -0.673689 0
M  V30 6873 C 528.017 7.33374 -1.95559 0
M  V30 6874 O 527.807 5.88721 -2.00726 0
M  V30 6875 C 526.617 7.92526 -2.10483 0
M  V30 6876 O 526.227 8.02971 -3.47653 0
M  V30 6877 C 525.737 6.89602 -1.41652 0
M  V30 6878 C 526.447 5.59201 -1.75185 0
M  V30 6879 N 526.397 4.58235 -0.662552 0
M  V30 6880 H 529.236 8.65116 -0.777161 0
M  V30 6881 H 529.508 6.90173 -0.474152 0
M  V30 6882 H 528.64 7.66548 -2.79458 0
M  V30 6883 P 524.677 8.03563 -3.84925 0
M  V30 6884 O 524.457 8.85821 -5.0569 0
M  V30 6885 O 523.887 8.41101 -2.65469 0
M  V30 6886 O 524.427 6.4965 -4.18908 0
M  V30 6887 C 525.367 5.81037 -5.05421 0
M  V30 6888 C 524.637 4.78366 -5.89277 0
M  V30 6889 O 524.427 3.58302 -5.08433 0
M  V30 6890 C 523.237 5.17448 -6.36119 0
M  V30 6891 O 522.847 4.45271 -7.53232 0
M  V30 6892 C 522.357 4.74639 -5.19936 0
M  V30 6893 C 523.067 3.49432 -4.70418 0
M  V30 6894 N 523.017 3.32099 -3.22613 0
M  V30 6895 H 525.856 6.54213 -5.71376 0
M  V30 6896 H 526.128 5.30936 -4.43503 0
M  V30 6897 H 525.26 4.55889 -6.76652 0
M  V30 6898 H 522.605 2.61715 -5.17932 0
M  V30 6899 H 522.325 5.52155 -4.41878 0
M  V30 6900 H 521.334 4.51981 -5.53374 0
M  V30 6901 H 523.168 6.25124 -6.55234 0
M  V30 6902 P 521.297 4.23843 -7.83734 0
M  V30 6903 O 521.077 4.19407 -9.29784 0
M  V30 6904 O 520.507 5.24426 -7.09156 0
M  V30 6905 O 521.047 2.7935 -7.20758 0
M  V30 6906 C 521.987 1.7299 -7.50419 0
M  V30 6907 C 521.257 0.406376 -7.57911 0
M  V30 6908 O 521.047 -0.0897726 -6.21935 0
M  V30 6909 C 519.857 0.447224 -8.1878 0
M  V30 6910 O 519.467 -0.825065 -8.71101 0
M  V30 6911 C 518.977 0.783801 -6.99623 0
M  V30 6912 C 519.687 0.0619192 -5.85967 0
M  V30 6913 N 519.637 0.7859 -4.56281 0
M  V30 6914 H 522.476 1.93423 -8.4679 0
M  V30 6915 H 522.748 1.68181 -6.71046 0
M  V30 6916 H 521.88 -0.289041 -8.15388 0
M  V30 6917 P 517.917 -1.17771 -8.83182 0
M  V30 6918 O 517.697 -2.07206 -9.98732 0
M  V30 6919 O 517.127 0.0743816 -8.81969 0
M  V30 6920 O 517.667 -1.97652 -7.47304 0
M  V30 6921 C 518.607 -3.01133 -7.08783 0
M  V30 6922 C 517.877 -4.12613 -6.37049 0
M  V30 6923 O 517.667 -3.72827 -4.97879 0
M  V30 6924 C 516.477 -4.45085 -6.88694 0
M  V30 6925 O 516.087 -5.7877 -6.5624 0
M  V30 6926 C 515.597 -3.47817 -6.12078 0
M  V30 6927 C 516.307 -3.39414 -4.77697 0
M  V30 6928 N 516.257 -2.04615 -4.15333 0
M  V30 6929 H 519.096 -3.41248 -7.98759 0
M  V30 6930 H 519.368 -2.5837 -6.41742 0
M  V30 6931 H 518.5 -5.02657 -6.42673 0
M  V30 6932 P 514.537 -6.144 -6.45285 0
M  V30 6933 O 514.317 -7.54673 -6.86199 0
M  V30 6934 O 513.747 -5.12391 -7.179 0
M  V30 6935 O 514.287 -5.99158 -4.88404 0
M  V30 6936 C 515.227 -6.60234 -3.96415 0
M  V30 6937 C 514.497 -7.08259 -2.72856 0
M  V30 6938 O 514.287 -5.9427 -1.83651 0
M  V30 6939 C 513.097 -7.64886 -2.9555 0
M  V30 6940 O 512.707 -8.53963 -1.90717 0
M  V30 6941 C 512.217 -6.4116 -2.90739 0
M  V30 6942 C 512.927 -5.55375 -1.86963 0
M  V30 6943 N 512.877 -4.09664 -2.15742 0
M  V30 6944 C 512.957 -3.44381 -3.37233 0
M  V30 6945 N 512.877 -2.14131 -3.28347 0
M  V30 6946 C 512.737 -1.90247 -1.91588 0
M  V30 6947 C 512.607 -0.683992 -1.20892 0
M  V30 6948 N 512.487 -0.903396 0.173998 0
M  V30 6949 C 512.487 -2.14171 0.784879 0
M  V30 6950 N 512.357 -2.1435 2.11317 0
M  V30 6951 N 512.617 -3.28784 0.119316 0
M  V30 6952 C 512.737 -3.0977 -1.22194 0
M  V30 6953 H 515.716 -7.45574 -4.45629 0
M  V30 6954 H 515.988 -5.86232 -3.67314 0
M  V30 6955 H 515.12 -7.84412 -2.24479 0
M  V30 6956 P 511.157 -8.7635 -1.60911 0
M  V30 6957 O 510.937 -10.1388 -1.11561 0
M  V30 6958 O 510.367 -8.36503 -2.79617 0
M  V30 6959 O 510.907 -7.71806 -0.42951 0
M  V30 6960 C 511.847 -7.66948 0.673514 0
M  V30 6961 C 511.117 -7.33374 1.95559 0
M  V30 6962 O 510.907 -5.88721 2.00726 0
M  V30 6963 C 509.717 -7.92218 2.1125 0
M  V30 6964 O 509.327 -8.02971 3.47653 0
M  V30 6965 C 508.837 -6.89504 1.41631 0
M  V30 6966 C 509.547 -5.59106 1.75155 0
M  V30 6967 N 509.497 -4.58136 0.662409 0
M  V30 6968 C 509.347 -3.26059 1.02863 0
M  V30 6969 O 509.257 -2.90743 2.19009 0
M  V30 6970 N 509.307 -2.35995 -0.0155585 0
M  V30 6971 C 509.397 -2.65248 -1.35603 0
M  V30 6972 C 509.547 -4.05747 -1.64698 0
M  V30 6973 C 509.597 -4.96734 -0.652411 0
M  V30 6974 H 512.338 -8.64917 0.776982 0
M  V30 6975 H 512.607 -6.89974 0.474015 0
M  V30 6976 H 511.74 -7.66548 2.79458 0
M  V30 6977 H 509.085 -5.16076 2.65138 0
M  V30 6978 H 508.806 -7.06433 0.329384 0
M  V30 6979 H 507.814 -6.90829 1.81996 0
M  V30 6980 H 509.648 -8.90774 1.62639 0
M  V30 6981 H 509.719 -6.02181 -0.895285 0
M  V30 6982 P 507.777 -8.03563 3.84925 0
M  V30 6983 O 507.557 -8.85821 5.0569 0
M  V30 6984 O 506.987 -8.41101 2.65469 0
M  V30 6985 O 507.527 -6.4965 4.18908 0
M  V30 6986 C 508.467 -5.80886 5.05289 0
M  V30 6987 C 507.737 -4.78366 5.89277 0
M  V30 6988 O 507.527 -3.58302 5.08433 0
M  V30 6989 C 506.337 -5.16748 6.36559 0
M  V30 6990 O 505.947 -4.45271 7.53232 0
M  V30 6991 C 505.457 -4.74572 5.19863 0
M  V30 6992 C 506.167 -3.49373 4.70338 0
M  V30 6993 N 506.117 -3.31704 3.22876 0
M  V30 6994 C 505.967 -2.03326 2.74871 0
M  V30 6995 O 505.877 -1.06486 3.48076 0
M  V30 6996 N 505.927 -1.91838 1.37456 0
M  V30 6997 C 506.017 -2.94295 0.462035 0
M  V30 6998 O 505.967 -2.71763 -0.752928 0
M  V30 6999 C 506.167 -4.25064 1.05249 0
M  V30 7000 C 506.277 -5.39815 0.095697 0
M  V30 7001 C 506.217 -4.40214 2.39192 0
M  V30 7002 H 508.958 -6.54063 5.71245 0
M  V30 7003 H 509.227 -5.30339 4.43905 0
M  V30 7004 H 508.36 -4.55889 6.76652 0
M  V30 7005 H 505.705 -2.6167 5.17842 0
M  V30 7006 H 505.426 -5.52155 4.41878 0
M  V30 7007 H 504.434 -4.51918 5.53297 0
M  V30 7008 H 506.268 -6.25055 6.55162 0
M  V30 7009 H 506.339 -5.39798 2.81523 0
M  V30 7010 H 505.309 -5.91593 0.0279582 0
M  V30 7011 H 507.046 -6.10038 0.450573 0
M  V30 7012 H 506.558 -5.02007 -0.89937 0
M  V30 7013 H 505.822 -0.995326 1.00435 0
M  V30 7014 P 504.397 -4.23843 7.83734 0
M  V30 7015 O 504.177 -4.19407 9.29784 0
M  V30 7016 O 503.607 -5.24426 7.09156 0
M  V30 7017 O 504.147 -2.7935 7.20758 0
M  V30 7018 C 505.087 -1.7299 7.50419 0
M  V30 7019 C 504.357 -0.406376 7.57911 0
M  V30 7020 O 504.147 0.0897726 6.21935 0
M  V30 7021 C 502.957 -0.447224 8.1878 0
M  V30 7022 O 502.567 0.825065 8.71101 0
M  V30 7023 C 502.077 -0.783801 6.99623 0
M  V30 7024 C 502.787 -0.0619192 5.85967 0
M  V30 7025 N 502.737 -0.7859 4.56281 0
M  V30 7026 C 502.817 -2.14308 4.31736 0
M  V30 7027 N 502.737 -2.46106 3.05116 0
M  V30 7028 C 502.597 -1.23422 2.4014 0
M  V30 7029 C 502.467 -0.938381 1.02409 0
M  V30 7030 O 502.447 -1.70876 0.0650402 0
M  V30 7031 N 502.347 0.444647 0.805413 0
M  V30 7032 C 502.347 1.40829 1.79435 0
M  V30 7033 N 502.217 2.67213 1.38558 0
M  V30 7034 N 502.477 1.12947 3.09005 0
M  V30 7035 C 502.597 -0.204887 3.32369 0
M  V30 7036 H 505.576 -1.93423 8.4679 0
M  V30 7037 H 505.848 -1.68181 6.71046 0
M  V30 7038 H 504.98 0.289041 8.15388 0
M  V30 7039 H 502.325 0.927166 5.72947 0
M  V30 7040 H 502.045 -1.87 6.82132 0
M  V30 7041 H 501.054 -0.404009 7.13457 0
M  V30 7042 H 502.888 -1.20612 8.97633 0
M  V30 7043 H 502.937 -2.88284 5.10874 0
M  V30 7044 H 502.255 0.755087 -0.140242 0
M  V30 7045 H 502.218 3.43967 2.0729 0
M  V30 7046 H 502.117 2.88096 0.380644 0
M  V30 7047 P 501.017 1.17771 8.83182 0
M  V30 7048 O 500.797 2.07206 9.98732 0
M  V30 7049 O 500.227 -0.0743816 8.81969 0
M  V30 7050 O 500.767 1.97652 7.47304 0
M  V30 7051 C 501.707 3.01133 7.08783 0
M  V30 7052 C 500.977 4.12613 6.37049 0
M  V30 7053 O 500.767 3.72827 4.97879 0
M  V30 7054 C 499.577 4.45085 6.88694 0
M  V30 7055 O 499.187 5.7877 6.5624 0
M  V30 7056 C 498.697 3.47817 6.12078 0
M  V30 7057 C 499.407 3.39414 4.77697 0
M  V30 7058 N 499.357 2.04615 4.15333 0
M  V30 7059 H 502.196 3.41248 7.98759 0
M  V30 7060 H 502.468 2.5837 6.41742 0
M  V30 7061 H 501.6 5.02657 6.42673 0
M  V30 7062 P 497.637 6.144 6.45285 0
M  V30 7063 O 497.417 7.54673 6.86199 0
M  V30 7064 O 496.847 5.12391 7.179 0
M  V30 7065 O 497.387 5.99158 4.88404 0
M  V30 7066 C 498.327 6.60062 3.96313 0
M  V30 7067 C 497.597 7.08259 2.72856 0
M  V30 7068 O 497.387 5.9427 1.83651 0
M  V30 7069 C 496.197 7.65087 2.94749 0
M  V30 7070 O 495.807 8.53963 1.90717 0
M  V30 7071 C 495.317 6.41069 2.90698 0
M  V30 7072 C 496.027 5.5528 1.86931 0
M  V30 7073 N 495.977 4.09575 2.15696 0
M  V30 7074 C 495.827 3.24249 1.08435 0
M  V30 7075 O 495.737 3.63946 -0.0628747 0
M  V30 7076 N 495.787 1.90009 1.39973 0
M  V30 7077 C 495.877 1.34884 2.65614 0
M  V30 7078 O 495.827 0.123716 2.81728 0
M  V30 7079 C 496.027 2.3145 3.71736 0
M  V30 7080 C 496.137 1.75913 5.10438 0
M  V30 7081 C 496.077 3.63518 3.44754 0
M  V30 7082 H 498.818 7.45402 4.45526 0
M  V30 7083 H 499.087 5.86062 3.67208 0
M  V30 7084 H 498.22 7.84412 2.24479 0
M  V30 7085 H 495.565 5.73358 0.888409 0
M  V30 7086 H 495.286 5.90877 3.88583 0
M  V30 7087 H 494.294 6.65867 2.58821 0
M  V30 7088 H 496.128 8.16248 3.92006 0
M  V30 7089 H 496.199 4.34551 4.26383 0
M  V30 7090 H 495.169 1.85471 5.61775 0
M  V30 7091 H 496.906 2.31364 5.66257 0
M  V30 7092 H 496.418 0.695936 5.05229 0
M  V30 7093 H 495.682 1.26277 0.63625 0
M  V30 7094 P 494.257 8.7635 1.60911 0
M  V30 7095 O 494.037 10.1388 1.11561 0
M  V30 7096 O 493.467 8.36503 2.79617 0
M  V30 7097 O 494.007 7.71806 0.42951 0
M  V30 7098 C 494.947 7.67148 -0.673689 0
M  V30 7099 C 494.217 7.33374 -1.95559 0
M  V30 7100 O 494.007 5.88721 -2.00726 0
M  V30 7101 C 492.817 7.92526 -2.10483 0
M  V30 7102 O 492.427 8.02971 -3.47653 0
M  V30 7103 C 491.937 6.89602 -1.41652 0
M  V30 7104 C 492.647 5.59201 -1.75185 0
M  V30 7105 N 492.597 4.58301 -0.657969 0
M  V30 7106 H 495.436 8.65116 -0.777161 0
M  V30 7107 H 495.708 6.9022 -0.46725 0
M  V30 7108 H 494.84 7.66548 -2.79458 0
M  V30 7109 H 492.185 5.16165 -2.65183 0
M  V30 7110 H 491.905 7.06433 -0.329384 0
M  V30 7111 H 490.914 6.90926 -1.82021 0
M  V30 7112 H 492.748 8.90873 -1.62657 0
M  V30 7113 P 490.877 8.03563 -3.84925 0
M  V30 7114 O 490.657 8.85821 -5.0569 0
M  V30 7115 O 490.087 8.41101 -2.65469 0
M  V30 7116 O 490.627 6.4965 -4.18908 0
M  V30 7117 C 491.567 5.81037 -5.05421 0
M  V30 7118 C 490.837 4.78366 -5.89277 0
M  V30 7119 O 490.627 3.58302 -5.08433 0
M  V30 7120 C 489.437 5.17448 -6.36119 0
M  V30 7121 O 489.047 4.45271 -7.53232 0
M  V30 7122 C 488.557 4.74639 -5.19936 0
M  V30 7123 C 489.267 3.49432 -4.70418 0
M  V30 7124 N 489.217 3.31776 -3.22945 0
M  V30 7125 H 492.056 6.54213 -5.71376 0
M  V30 7126 H 492.328 5.30492 -4.44033 0
M  V30 7127 H 491.46 4.55889 -6.76652 0
M  V30 7128 P 487.497 4.23843 -7.83734 0
M  V30 7129 O 487.277 4.19407 -9.29784 0
M  V30 7130 O 486.707 5.24426 -7.09156 0
M  V30 7131 O 487.247 2.7935 -7.20758 0
M  V30 7132 C 488.187 1.7299 -7.50419 0
M  V30 7133 C 487.457 0.406376 -7.57911 0
M  V30 7134 O 487.247 -0.0897726 -6.21935 0
M  V30 7135 C 486.057 0.447224 -8.1878 0
M  V30 7136 O 485.667 -0.825065 -8.71101 0
M  V30 7137 C 485.177 0.783801 -6.99623 0
M  V30 7138 C 485.887 0.0619192 -5.85967 0
M  V30 7139 N 485.837 0.790462 -4.56202 0
M  V30 7140 H 488.676 1.93423 -8.4679 0
M  V30 7141 H 488.948 1.68852 -6.70877 0
M  V30 7142 H 488.08 -0.289041 -8.15388 0
M  V30 7143 H 485.425 -0.927006 -5.72848 0
M  V30 7144 H 485.145 1.86973 -6.82036 0
M  V30 7145 H 484.154 0.403953 -7.13357 0
M  V30 7146 H 485.988 1.20599 -8.97534 0
M  V30 7147 P 484.117 -1.17771 -8.83182 0
M  V30 7148 O 483.897 -2.07206 -9.98732 0
M  V30 7149 O 483.327 0.0743816 -8.81969 0
M  V30 7150 O 483.867 -1.97652 -7.47304 0
M  V30 7151 C 484.807 -3.01133 -7.08783 0
M  V30 7152 C 484.077 -4.12613 -6.37049 0
M  V30 7153 O 483.867 -3.72827 -4.97879 0
M  V30 7154 C 482.677 -4.45085 -6.88694 0
M  V30 7155 O 482.287 -5.7877 -6.5624 0
M  V30 7156 C 481.797 -3.47817 -6.12078 0
M  V30 7157 C 482.507 -3.39414 -4.77697 0
M  V30 7158 N 482.457 -2.04615 -4.15333 0
M  V30 7159 H 485.296 -3.41248 -7.98759 0
M  V30 7160 H 485.568 -2.5837 -6.41742 0
M  V30 7161 H 484.7 -5.02657 -6.42673 0
M  V30 7162 P 480.737 -6.144 -6.45285 0
M  V30 7163 O 480.517 -7.54673 -6.86199 0
M  V30 7164 O 479.947 -5.12391 -7.179 0
M  V30 7165 O 480.487 -5.99158 -4.88404 0
M  V30 7166 C 481.427 -6.60062 -3.96313 0
M  V30 7167 C 480.697 -7.08259 -2.72856 0
M  V30 7168 O 480.487 -5.9427 -1.83651 0
M  V30 7169 C 479.297 -7.65087 -2.94749 0
M  V30 7170 O 478.907 -8.53963 -1.90717 0
M  V30 7171 C 478.417 -6.41069 -2.90698 0
M  V30 7172 C 479.127 -5.5528 -1.86931 0
M  V30 7173 N 479.077 -4.09575 -2.15696 0
M  V30 7174 C 478.927 -3.24249 -1.08435 0
M  V30 7175 O 478.837 -3.63946 0.0628747 0
M  V30 7176 N 478.887 -1.90009 -1.39973 0
M  V30 7177 C 478.977 -1.34884 -2.65614 0
M  V30 7178 C 479.127 -2.3145 -3.71736 0
M  V30 7179 C 479.177 -3.63518 -3.44754 0
M  V30 7180 H 481.918 -7.45402 -4.45526 0
M  V30 7181 H 482.187 -5.86062 -3.67208 0
M  V30 7182 H 481.32 -7.84412 -2.24479 0
M  V30 7183 H 478.665 -5.73358 -0.888409 0
M  V30 7184 H 478.386 -5.90877 -3.88583 0
M  V30 7185 H 477.394 -6.65867 -2.58821 0
M  V30 7186 H 479.228 -8.16248 -3.92006 0
M  V30 7187 H 479.299 -4.34551 -4.26383 0
M  V30 7188 P 477.357 -8.7635 -1.60911 0
M  V30 7189 O 477.137 -10.1388 -1.11561 0
M  V30 7190 O 476.567 -8.36503 -2.79617 0
M  V30 7191 O 477.107 -7.71806 -0.42951 0
M  V30 7192 C 478.047 -7.67148 0.673689 0
M  V30 7193 C 477.317 -7.33374 1.95559 0
M  V30 7194 O 477.107 -5.88721 2.00726 0
M  V30 7195 C 475.917 -7.92526 2.10483 0
M  V30 7196 O 475.527 -8.02971 3.47653 0
M  V30 7197 C 475.037 -6.89602 1.41652 0
M  V30 7198 C 475.747 -5.59201 1.75185 0
M  V30 7199 N 475.697 -4.58301 0.657969 0
M  V30 7200 H 478.536 -8.65116 0.777161 0
M  V30 7201 H 478.808 -6.9022 0.46725 0
M  V30 7202 H 477.94 -7.66548 2.79458 0
M  V30 7203 H 475.285 -5.16165 2.65183 0
M  V30 7204 H 475.005 -7.06433 0.329384 0
M  V30 7205 H 474.014 -6.90926 1.82021 0
M  V30 7206 H 475.848 -8.90873 1.62657 0
M  V30 7207 P 473.977 -8.03563 3.84925 0
M  V30 7208 O 473.757 -8.85821 5.0569 0
M  V30 7209 O 473.187 -8.41101 2.65469 0
M  V30 7210 O 473.727 -6.49734 4.18962 0
M  V30 7211 C 474.667 -5.81037 5.05421 0
M  V30 7212 C 473.937 -4.79018 5.88876 0
M  V30 7213 O 473.727 -3.58359 5.08515 0
M  V30 7214 C 472.537 -5.17448 6.36119 0
M  V30 7215 O 472.147 -4.45322 7.53318 0
M  V30 7216 C 471.657 -4.74639 5.19936 0
M  V30 7217 C 472.367 -3.49432 4.70418 0
M  V30 7218 N 472.317 -3.31776 3.22945 0
M  V30 7219 C 472.167 -2.02742 2.72939 0
M  V30 7220 O 472.077 -1.08301 3.52749 0
M  V30 7221 N 472.117 -1.96117 1.22063 0
M  V30 7222 C 472.217 -2.8878 0.551566 0
M  V30 7223 N 472.167 -2.65609 -0.750198 0
M  V30 7224 C 472.367 -4.22457 1.03707 0
M  V30 7225 C 472.417 -4.37979 2.39113 0
M  V30 7226 H 475.157 -6.54138 5.7131 0
M  V30 7227 H 475.427 -5.30492 4.44033 0
M  V30 7228 H 474.56 -4.55945 6.76735 0
M  V30 7229 H 471.905 -2.6176 5.18021 0
M  V30 7230 H 471.625 -5.52233 4.41941 0
M  V30 7231 H 470.634 -4.52045 5.53452 0
M  V30 7232 H 472.468 -6.25124 6.55234 0
M  V30 7233 H 472.54 -5.37936 2.80552 0
M  V30 7234 H 472.438 -5.07528 0.359553 0
M  V30 7235 H 472.05 -1.69403 -1.09847 0
M  V30 7236 H 472.246 -3.43701 -1.41792 0
M  V30 7237 P 470.597 -4.23843 7.83734 0
M  V30 7238 O 470.377 -4.19407 9.29784 0
M  V30 7239 O 469.807 -5.24426 7.09156 0
M  V30 7240 O 470.347 -2.7935 7.20758 0
M  V30 7241 C 471.287 -1.7299 7.50419 0
M  V30 7242 C 470.557 -0.406376 7.57911 0
M  V30 7243 O 470.347 0.0897726 6.21935 0
M  V30 7244 C 469.157 -0.447224 8.1878 0
M  V30 7245 O 468.767 0.825065 8.71101 0
M  V30 7246 C 468.277 -0.783801 6.99623 0
M  V30 7247 C 468.987 -0.0619192 5.85967 0
M  V30 7248 N 468.937 -0.7859 4.56281 0
M  V30 7249 H 471.776 -1.93423 8.4679 0
M  V30 7250 H 472.048 -1.68181 6.71046 0
M  V30 7251 H 471.18 0.289041 8.15388 0
M  V30 7252 P 467.217 1.17771 8.83182 0
M  V30 7253 O 466.997 2.07206 9.98732 0
M  V30 7254 O 466.427 -0.0743816 8.81969 0
M  V30 7255 O 466.967 1.97652 7.47304 0
M  V30 7256 C 467.907 3.01133 7.08783 0
M  V30 7257 C 467.177 4.12613 6.37049 0
M  V30 7258 O 466.967 3.72827 4.97879 0
M  V30 7259 C 465.777 4.45085 6.88694 0
M  V30 7260 O 465.387 5.7877 6.5624 0
M  V30 7261 C 464.897 3.47817 6.12078 0
M  V30 7262 C 465.607 3.39414 4.77697 0
M  V30 7263 N 465.557 2.04615 4.15333 0
M  V30 7264 H 468.396 3.41248 7.98759 0
M  V30 7265 H 468.668 2.5837 6.41742 0
M  V30 7266 H 467.8 5.02657 6.42673 0
M  V30 7267 P 463.837 6.144 6.45285 0
M  V30 7268 O 463.617 7.54673 6.86199 0
M  V30 7269 O 463.047 5.12391 7.179 0
M  V30 7270 O 463.587 5.99158 4.88404 0
M  V30 7271 C 464.527 6.60234 3.96415 0
M  V30 7272 C 463.797 7.08259 2.72856 0
M  V30 7273 O 463.587 5.9427 1.83651 0
M  V30 7274 C 462.397 7.64886 2.9555 0
M  V30 7275 O 462.007 8.53963 1.90717 0
M  V30 7276 C 461.517 6.4116 2.90739 0
M  V30 7277 C 462.227 5.55375 1.86963 0
M  V30 7278 N 462.177 4.09664 2.15742 0
M  V30 7279 H 465.016 7.45574 4.45629 0
M  V30 7280 H 465.288 5.86232 3.67314 0
M  V30 7281 H 464.42 7.84412 2.24479 0
M  V30 7282 P 460.457 8.7635 1.60911 0
M  V30 7283 O 460.237 10.1388 1.11561 0
M  V30 7284 O 459.667 8.36503 2.79617 0
M  V30 7285 O 460.207 7.71806 0.42951 0
M  V30 7286 C 461.147 7.67148 -0.673689 0
M  V30 7287 C 460.417 7.33374 -1.95559 0
M  V30 7288 O 460.207 5.88721 -2.00726 0
M  V30 7289 C 459.017 7.92526 -2.10483 0
M  V30 7290 O 458.627 8.02971 -3.47653 0
M  V30 7291 C 458.137 6.89602 -1.41652 0
M  V30 7292 C 458.847 5.59201 -1.75185 0
M  V30 7293 N 458.797 4.58301 -0.657969 0
M  V30 7294 H 461.636 8.65116 -0.777161 0
M  V30 7295 H 461.908 6.9022 -0.46725 0
M  V30 7296 H 461.04 7.66548 -2.79458 0
M  V30 7297 H 458.385 5.16165 -2.65183 0
M  V30 7298 H 458.105 7.06433 -0.329384 0
M  V30 7299 H 457.114 6.90926 -1.82021 0
M  V30 7300 H 458.948 8.90873 -1.62657 0
M  V30 7301 P 457.077 8.03563 -3.84925 0
M  V30 7302 O 456.857 8.85821 -5.0569 0
M  V30 7303 O 456.287 8.41101 -2.65469 0
M  V30 7304 O 456.827 6.4965 -4.18908 0
M  V30 7305 C 457.767 5.80886 -5.05289 0
M  V30 7306 C 457.037 4.78366 -5.89277 0
M  V30 7307 O 456.827 3.58302 -5.08433 0
M  V30 7308 C 455.637 5.16748 -6.36559 0
M  V30 7309 O 455.247 4.45271 -7.53232 0
M  V30 7310 C 454.757 4.74572 -5.19863 0
M  V30 7311 C 455.467 3.49373 -4.70338 0
M  V30 7312 N 455.417 3.31704 -3.22876 0
M  V30 7313 C 455.267 2.03326 -2.74871 0
M  V30 7314 O 455.177 1.06486 -3.48076 0
M  V30 7315 N 455.227 1.91838 -1.37456 0
M  V30 7316 C 455.317 2.94295 -0.462035 0
M  V30 7317 C 455.467 4.25064 -1.05249 0
M  V30 7318 C 455.517 4.40214 -2.39192 0
M  V30 7319 H 458.258 6.54063 -5.71245 0
M  V30 7320 H 458.527 5.30339 -4.43905 0
M  V30 7321 H 457.66 4.55889 -6.76652 0
M  V30 7322 H 455.005 2.6167 -5.17842 0
M  V30 7323 H 454.726 5.52155 -4.41878 0
M  V30 7324 H 453.734 4.51918 -5.53297 0
M  V30 7325 H 455.568 6.25055 -6.55162 0
M  V30 7326 H 455.639 5.39798 -2.81523 0
M  V30 7327 P 453.697 4.23843 -7.83734 0
M  V30 7328 O 453.477 4.19407 -9.29784 0
M  V30 7329 O 452.907 5.24426 -7.09156 0
M  V30 7330 O 453.447 2.7935 -7.20758 0
M  V30 7331 C 454.387 1.72945 -7.50224 0
M  V30 7332 C 453.657 0.406376 -7.57911 0
M  V30 7333 O 453.447 -0.0897726 -6.21935 0
M  V30 7334 C 452.257 0.438983 -8.18724 0
M  V30 7335 O 451.867 -0.825065 -8.71101 0
M  V30 7336 C 451.377 0.783689 -6.99524 0
M  V30 7337 C 452.087 0.0619086 -5.85867 0
M  V30 7338 N 452.037 0.78573 -4.56183 0
M  V30 7339 C 451.887 0.0292889 -3.41887 0
M  V30 7340 O 451.797 -1.18445 -3.4419 0
M  V30 7341 N 451.847 0.744061 -2.23964 0
M  V30 7342 C 451.937 2.10932 -2.10362 0
M  V30 7343 O 451.887 2.64117 -0.98825 0
M  V30 7344 C 452.087 2.8202 -3.34994 0
M  V30 7345 C 452.197 4.31095 -3.25037 0
M  V30 7346 C 452.137 2.15547 -4.52261 0
M  V30 7347 H 454.878 1.93379 -8.46595 0
M  V30 7348 H 455.147 1.68132 -6.70852 0
M  V30 7349 H 454.28 -0.289041 -8.15388 0
M  V30 7350 H 451.625 -0.926847 -5.72749 0
M  V30 7351 H 451.346 1.86973 -6.82036 0
M  V30 7352 H 450.354 0.403896 -7.13257 0
M  V30 7353 H 452.188 1.20585 -8.97435 0
M  V30 7354 H 452.259 2.71231 -5.45042 0
M  V30 7355 H 451.229 4.76966 -3.49992 0
M  V30 7356 H 452.966 4.67047 -3.95024 0
M  V30 7357 H 452.478 4.58996 -2.22312 0
M  V30 7358 H 451.742 0.214893 -1.39758 0
M  V30 7359 P 450.317 -1.17771 -8.83182 0
M  V30 7360 O 450.097 -2.07206 -9.98732 0
M  V30 7361 O 449.527 0.0743816 -8.81969 0
M  V30 7362 O 450.067 -1.97652 -7.47304 0
M  V30 7363 C 451.007 -3.01133 -7.08783 0
M  V30 7364 C 450.277 -4.12613 -6.37049 0
M  V30 7365 O 450.067 -3.72827 -4.97879 0
M  V30 7366 C 448.877 -4.45085 -6.88694 0
M  V30 7367 O 448.487 -5.7877 -6.5624 0
M  V30 7368 C 447.997 -3.47817 -6.12078 0
M  V30 7369 C 448.707 -3.39414 -4.77697 0
M  V30 7370 N 448.657 -2.04615 -4.15333 0
M  V30 7371 H 451.496 -3.41248 -7.98759 0
M  V30 7372 H 451.768 -2.5837 -6.41742 0
M  V30 7373 H 450.9 -5.02657 -6.42673 0
M  V30 7374 P 446.937 -6.144 -6.45285 0
M  V30 7375 O 446.717 -7.54673 -6.86199 0
M  V30 7376 O 446.147 -5.12391 -7.179 0
M  V30 7377 O 446.687 -5.99158 -4.88404 0
M  V30 7378 C 447.627 -6.60062 -3.96313 0
M  V30 7379 C 446.897 -7.08259 -2.72856 0
M  V30 7380 O 446.687 -5.9427 -1.83651 0
M  V30 7381 C 445.497 -7.65087 -2.94749 0
M  V30 7382 O 445.107 -8.53963 -1.90717 0
M  V30 7383 C 444.617 -6.41069 -2.90698 0
M  V30 7384 C 445.327 -5.5528 -1.86931 0
M  V30 7385 N 445.277 -4.09575 -2.15696 0
M  V30 7386 C 445.127 -3.24249 -1.08435 0
M  V30 7387 O 445.037 -3.63946 0.0628747 0
M  V30 7388 N 445.087 -1.90009 -1.39973 0
M  V30 7389 C 445.177 -1.34884 -2.65614 0
M  V30 7390 O 445.127 -0.123716 -2.81728 0
M  V30 7391 C 445.327 -2.3145 -3.71736 0
M  V30 7392 C 445.437 -1.75913 -5.10438 0
M  V30 7393 C 445.377 -3.63518 -3.44754 0
M  V30 7394 H 448.118 -7.45402 -4.45526 0
M  V30 7395 H 448.387 -5.86062 -3.67208 0
M  V30 7396 H 447.52 -7.84412 -2.24479 0
M  V30 7397 H 444.865 -5.73358 -0.888409 0
M  V30 7398 H 444.586 -5.90877 -3.88583 0
M  V30 7399 H 443.594 -6.65867 -2.58821 0
M  V30 7400 H 445.428 -8.16248 -3.92006 0
M  V30 7401 H 445.499 -4.34551 -4.26383 0
M  V30 7402 H 444.469 -1.85471 -5.61775 0
M  V30 7403 H 446.206 -2.31364 -5.66257 0
M  V30 7404 H 445.718 -0.695936 -5.05229 0
M  V30 7405 H 444.982 -1.26277 -0.63625 0
M  V30 7406 P 443.557 -8.7635 -1.60911 0
M  V30 7407 O 443.337 -10.1388 -1.11561 0
M  V30 7408 O 442.767 -8.36503 -2.79617 0
M  V30 7409 O 443.307 -7.71806 -0.42951 0
M  V30 7410 C 444.247 -7.67148 0.673689 0
M  V30 7411 C 443.517 -7.33374 1.95559 0
M  V30 7412 O 443.307 -5.88721 2.00726 0
M  V30 7413 C 442.117 -7.92526 2.10483 0
M  V30 7414 O 441.727 -8.02971 3.47653 0
M  V30 7415 C 441.237 -6.89602 1.41652 0
M  V30 7416 C 441.947 -5.59201 1.75185 0
M  V30 7417 N 441.897 -4.58235 0.662552 0
M  V30 7418 H 444.736 -8.65116 0.777161 0
M  V30 7419 H 445.008 -6.90173 0.474152 0
M  V30 7420 H 444.14 -7.66548 2.79458 0
M  V30 7421 P 440.177 -8.03563 3.84925 0
M  V30 7422 O 439.957 -8.85821 5.0569 0
M  V30 7423 O 439.387 -8.41101 2.65469 0
M  V30 7424 O 439.927 -6.4965 4.18908 0
M  V30 7425 C 440.867 -5.81037 5.05421 0
M  V30 7426 C 440.137 -4.78366 5.89277 0
M  V30 7427 O 439.927 -3.58302 5.08433 0
M  V30 7428 C 438.737 -5.17448 6.36119 0
M  V30 7429 O 438.347 -4.45271 7.53232 0
M  V30 7430 C 437.857 -4.74639 5.19936 0
M  V30 7431 C 438.567 -3.49432 4.70418 0
M  V30 7432 N 438.517 -3.32099 3.22613 0
M  V30 7433 H 441.356 -6.54213 5.71376 0
M  V30 7434 H 441.628 -5.30936 4.43503 0
M  V30 7435 H 440.76 -4.55889 6.76652 0
M  V30 7436 H 438.105 -2.61715 5.17932 0
M  V30 7437 H 437.825 -5.52155 4.41878 0
M  V30 7438 H 436.834 -4.51981 5.53374 0
M  V30 7439 H 438.668 -6.25124 6.55234 0
M  V30 7440 P 436.797 -4.23843 7.83734 0
M  V30 7441 O 436.577 -4.19407 9.29784 0
M  V30 7442 O 436.007 -5.24426 7.09156 0
M  V30 7443 O 436.547 -2.7935 7.20758 0
M  V30 7444 C 437.487 -1.7299 7.50419 0
M  V30 7445 C 436.757 -0.406376 7.57911 0
M  V30 7446 O 436.547 0.0897726 6.21935 0
M  V30 7447 C 435.357 -0.447224 8.1878 0
M  V30 7448 O 434.967 0.825065 8.71101 0
M  V30 7449 C 434.477 -0.783801 6.99623 0
M  V30 7450 C 435.187 -0.0619192 5.85967 0
M  V30 7451 N 435.137 -0.790462 4.56202 0
M  V30 7452 H 437.976 -1.93423 8.4679 0
M  V30 7453 H 438.248 -1.68852 6.70877 0
M  V30 7454 H 437.38 0.289041 8.15388 0
M  V30 7455 H 434.725 0.927006 5.72848 0
M  V30 7456 H 434.445 -1.86973 6.82036 0
M  V30 7457 H 433.454 -0.403953 7.13357 0
M  V30 7458 H 435.288 -1.20599 8.97534 0
M  V30 7459 P 433.417 1.17771 8.83182 0
M  V30 7460 O 433.197 2.07206 9.98732 0
M  V30 7461 O 432.627 -0.0743816 8.81969 0
M  V30 7462 O 433.167 1.97652 7.47304 0
M  V30 7463 C 434.107 3.01133 7.08783 0
M  V30 7464 C 433.377 4.12613 6.37049 0
M  V30 7465 O 433.167 3.72827 4.97879 0
M  V30 7466 C 431.977 4.45085 6.88694 0
M  V30 7467 O 431.587 5.7877 6.5624 0
M  V30 7468 C 431.097 3.47817 6.12078 0
M  V30 7469 C 431.807 3.39414 4.77697 0
M  V30 7470 N 431.757 2.04199 4.15538 0
M  V30 7471 C 431.837 0.821545 4.76977 0
M  V30 7472 N 431.767 -0.1794 3.94592 0
M  V30 7473 C 431.617 0.419121 2.70776 0
M  V30 7474 C 431.487 -0.109072 1.40577 0
M  V30 7475 N 431.477 -1.4104 1.1344 0
M  V30 7476 N 431.367 0.764381 0.39411 0
M  V30 7477 C 431.377 2.06587 0.664135 0
M  V30 7478 N 431.497 2.67948 1.82153 0
M  V30 7479 C 431.617 1.77942 2.8147 0
M  V30 7480 H 434.596 3.41248 7.98759 0
M  V30 7481 H 434.868 2.57728 6.42 0
M  V30 7482 H 434 5.02657 6.42673 0
M  V30 7483 H 431.345 4.11708 4.08956 0
M  V30 7484 H 431.065 2.49626 6.61679 0
M  V30 7485 H 430.074 3.8662 6.00862 0
M  V30 7486 H 431.908 4.29991 7.97006 0
M  V30 7487 H 431.949 0.702451 5.84696 0
M  V30 7488 H 431.568 -2.09647 1.89651 0
M  V30 7489 H 431.379 -1.73358 0.160575 0
M  V30 7490 H 431.271 2.71695 -0.195838 0
M  V30 7491 P 430.037 6.144 6.45285 0
M  V30 7492 O 429.817 7.54673 6.86199 0
M  V30 7493 O 429.247 5.12391 7.179 0
M  V30 7494 O 429.787 5.99158 4.88404 0
M  V30 7495 C 430.727 6.60234 3.96415 0
M  V30 7496 C 429.997 7.08259 2.72856 0
M  V30 7497 O 429.787 5.9427 1.83651 0
M  V30 7498 C 428.597 7.64886 2.9555 0
M  V30 7499 O 428.207 8.53963 1.90717 0
M  V30 7500 C 427.717 6.4116 2.90739 0
M  V30 7501 C 428.427 5.55375 1.86963 0
M  V30 7502 N 428.377 4.09664 2.15742 0
M  V30 7503 H 431.216 7.45574 4.45629 0
M  V30 7504 H 431.488 5.86232 3.67314 0
M  V30 7505 H 430.62 7.84412 2.24479 0
M  V30 7506 P 426.657 8.7635 1.60911 0
M  V30 7507 O 426.437 10.1388 1.11561 0
M  V30 7508 O 425.867 8.36503 2.79617 0
M  V30 7509 O 426.407 7.71806 0.42951 0
M  V30 7510 C 427.347 7.67148 -0.673689 0
M  V30 7511 C 426.617 7.33374 -1.95559 0
M  V30 7512 O 426.407 5.88721 -2.00726 0
M  V30 7513 C 425.217 7.92526 -2.10483 0
M  V30 7514 O 424.827 8.02971 -3.47653 0
M  V30 7515 C 424.337 6.89602 -1.41652 0
M  V30 7516 C 425.047 5.59201 -1.75185 0
M  V30 7517 N 424.997 4.58301 -0.657969 0
M  V30 7518 H 427.836 8.65116 -0.777161 0
M  V30 7519 H 428.108 6.9022 -0.46725 0
M  V30 7520 H 427.24 7.66548 -2.79458 0
M  V30 7521 H 424.585 5.16165 -2.65183 0
M  V30 7522 H 424.305 7.06433 -0.329384 0
M  V30 7523 H 423.314 6.90926 -1.82021 0
M  V30 7524 H 425.148 8.90873 -1.62657 0
M  V30 7525 P 423.278 8.03563 -3.84925 0
M  V30 7526 O 423.058 8.85821 -5.0569 0
M  V30 7527 O 422.488 8.41101 -2.65469 0
M  V30 7528 O 423.028 6.4965 -4.18908 0
M  V30 7529 C 423.968 5.81037 -5.05421 0
M  V30 7530 C 423.238 4.78366 -5.89277 0
M  V30 7531 O 423.028 3.58302 -5.08433 0
M  V30 7532 C 421.838 5.17448 -6.36119 0
M  V30 7533 O 421.448 4.45271 -7.53232 0
M  V30 7534 C 420.958 4.74639 -5.19936 0
M  V30 7535 C 421.668 3.49432 -4.70418 0
M  V30 7536 N 421.618 3.31776 -3.22945 0
M  V30 7537 C 421.698 4.27147 -2.23315 0
M  V30 7538 N 421.618 3.78447 -1.02186 0
M  V30 7539 C 421.478 2.41001 -1.21732 0
M  V30 7540 C 421.348 1.36111 -0.27694 0
M  V30 7541 O 421.328 1.42065 0.951767 0
M  V30 7542 N 421.228 0.113683 -0.912949 0
M  V30 7543 C 421.228 -0.0846396 -2.27943 0
M  V30 7544 N 421.098 -1.34737 -2.6916 0
M  V30 7545 N 421.358 0.902521 -3.16379 0
M  V30 7546 C 421.478 2.11937 -2.56849 0
M  V30 7547 H 424.457 6.54213 -5.71376 0
M  V30 7548 H 424.729 5.30492 -4.44033 0
M  V30 7549 H 423.861 4.55889 -6.76652 0
M  V30 7550 H 421.206 2.6176 -5.18021 0
M  V30 7551 H 420.926 5.52233 -4.41941 0
M  V30 7552 H 419.935 4.52045 -5.53452 0
M  V30 7553 H 421.769 6.25193 -6.55307 0
M  V30 7554 H 421.818 5.3351 -2.43857 0
M  V30 7555 H 421.136 -0.69331 -0.330371 0
M  V30 7556 H 421.099 -1.56433 -3.6988 0
M  V30 7557 H 420.998 -2.10701 -2.00133 0
M  V30 7558 P 419.898 4.23843 -7.83734 0
M  V30 7559 O 419.678 4.19407 -9.29784 0
M  V30 7560 O 419.108 5.24426 -7.09156 0
M  V30 7561 O 419.648 2.7935 -7.20758 0
M  V30 7562 C 420.588 1.7299 -7.50419 0
M  V30 7563 C 419.858 0.406376 -7.57911 0
M  V30 7564 O 419.648 -0.0897726 -6.21935 0
M  V30 7565 C 418.458 0.447224 -8.1878 0
M  V30 7566 O 418.068 -0.825065 -8.71101 0
M  V30 7567 C 417.578 0.783801 -6.99623 0
M  V30 7568 C 418.288 0.0619192 -5.85967 0
M  V30 7569 N 418.238 0.7859 -4.56281 0
M  V30 7570 H 421.077 1.93423 -8.4679 0
M  V30 7571 H 421.349 1.68181 -6.71046 0
M  V30 7572 H 420.481 -0.289041 -8.15388 0
M  V30 7573 P 416.518 -1.17771 -8.83182 0
M  V30 7574 O 416.298 -2.07206 -9.98732 0
M  V30 7575 O 415.728 0.0743816 -8.81969 0
M  V30 7576 O 416.268 -1.97652 -7.47304 0
M  V30 7577 C 417.208 -3.01133 -7.08783 0
M  V30 7578 C 416.478 -4.12613 -6.37049 0
M  V30 7579 O 416.268 -3.72827 -4.97879 0
M  V30 7580 C 415.078 -4.45085 -6.88694 0
M  V30 7581 O 414.688 -5.7877 -6.5624 0
M  V30 7582 C 414.198 -3.47817 -6.12078 0
M  V30 7583 C 414.908 -3.39414 -4.77697 0
M  V30 7584 N 414.858 -2.04199 -4.15538 0
M  V30 7585 C 414.938 -0.821545 -4.76977 0
M  V30 7586 N 414.868 0.1794 -3.94592 0
M  V30 7587 C 414.718 -0.419121 -2.70776 0
M  V30 7588 C 414.588 0.109072 -1.40577 0
M  V30 7589 N 414.578 1.4104 -1.1344 0
M  V30 7590 N 414.468 -0.764381 -0.39411 0
M  V30 7591 C 414.478 -2.06587 -0.664135 0
M  V30 7592 N 414.598 -2.67948 -1.82153 0
M  V30 7593 C 414.718 -1.77942 -2.8147 0
M  V30 7594 H 417.697 -3.41248 -7.98759 0
M  V30 7595 H 417.969 -2.57728 -6.42 0
M  V30 7596 H 417.101 -5.02657 -6.42673 0
M  V30 7597 H 414.446 -4.11708 -4.08956 0
M  V30 7598 H 414.166 -2.49626 -6.61679 0
M  V30 7599 H 413.175 -3.8662 -6.00862 0
M  V30 7600 H 415.009 -4.29991 -7.97006 0
M  V30 7601 H 415.05 -0.702451 -5.84696 0
M  V30 7602 H 414.669 2.09647 -1.89651 0
M  V30 7603 H 414.48 1.73358 -0.160575 0
M  V30 7604 H 414.372 -2.71695 0.195838 0
M  V30 7605 P 413.138 -6.144 -6.45285 0
M  V30 7606 O 412.918 -7.54673 -6.86199 0
M  V30 7607 O 412.348 -5.12391 -7.179 0
M  V30 7608 O 412.888 -5.99158 -4.88404 0
M  V30 7609 C 413.828 -6.60234 -3.96415 0
M  V30 7610 C 413.098 -7.08259 -2.72856 0
M  V30 7611 O 412.888 -5.9427 -1.83651 0
M  V30 7612 C 411.698 -7.64886 -2.9555 0
M  V30 7613 O 411.308 -8.53963 -1.90717 0
M  V30 7614 C 410.818 -6.4116 -2.90739 0
M  V30 7615 C 411.528 -5.55375 -1.86963 0
M  V30 7616 N 411.478 -4.09664 -2.15742 0
M  V30 7617 H 414.317 -7.45574 -4.45629 0
M  V30 7618 H 414.589 -5.86232 -3.67314 0
M  V30 7619 H 413.721 -7.84412 -2.24479 0
M  V30 7620 P 409.758 -8.7635 -1.60911 0
M  V30 7621 O 409.538 -10.1388 -1.11561 0
M  V30 7622 O 408.968 -8.36503 -2.79617 0
M  V30 7623 O 409.508 -7.71806 -0.42951 0
M  V30 7624 C 410.448 -7.67148 0.673689 0
M  V30 7625 C 409.718 -7.33374 1.95559 0
M  V30 7626 O 409.508 -5.88721 2.00726 0
M  V30 7627 C 408.318 -7.92526 2.10483 0
M  V30 7628 O 407.928 -8.02971 3.47653 0
M  V30 7629 C 407.438 -6.89602 1.41652 0
M  V30 7630 C 408.148 -5.59201 1.75185 0
M  V30 7631 N 408.098 -4.58301 0.657969 0
M  V30 7632 C 408.178 -4.79019 -0.692603 0
M  V30 7633 N 408.108 -3.69736 -1.38998 0
M  V30 7634 C 407.958 -2.70474 -0.438135 0
M  V30 7635 C 407.828 -1.30327 -0.538142 0
M  V30 7636 N 407.818 -0.64304 -1.69192 0
M  V30 7637 N 407.708 -0.611027 0.605183 0
M  V30 7638 C 407.718 -1.27002 1.75953 0
M  V30 7639 N 407.838 -2.56038 1.98546 0
M  V30 7640 C 407.958 -3.22681 0.822541 0
M  V30 7641 H 410.937 -8.65116 0.777161 0
M  V30 7642 H 411.209 -6.9022 0.46725 0
M  V30 7643 H 410.341 -7.66548 2.79458 0
M  V30 7644 H 407.686 -5.16165 2.65183 0
M  V30 7645 H 407.406 -7.06433 0.329384 0
M  V30 7646 H 406.415 -6.90926 1.82021 0
M  V30 7647 H 408.249 -8.90873 1.62657 0
M  V30 7648 H 408.29 -5.77785 -1.13874 0
M  V30 7649 H 407.909 -1.15585 -2.57991 0
M  V30 7650 H 407.72 0.382989 -1.69835 0
M  V30 7651 H 407.612 -0.653331 2.64449 0
M  V30 7652 P 406.378 -8.03563 3.84925 0
M  V30 7653 O 406.158 -8.85821 5.0569 0
M  V30 7654 O 405.588 -8.41101 2.65469 0
M  V30 7655 O 406.128 -6.4965 4.18908 0
M  V30 7656 C 407.068 -5.81037 5.05421 0
M  V30 7657 C 406.338 -4.78366 5.89277 0
M  V30 7658 O 406.128 -3.58302 5.08433 0
M  V30 7659 C 404.938 -5.17448 6.36119 0
M  V30 7660 O 404.548 -4.45271 7.53232 0
M  V30 7661 C 404.058 -4.74639 5.19936 0
M  V30 7662 C 404.768 -3.49432 4.70418 0
M  V30 7663 N 404.718 -3.32099 3.22613 0
M  V30 7664 H 407.557 -6.54213 5.71376 0
M  V30 7665 H 407.829 -5.30936 4.43503 0
M  V30 7666 H 406.961 -4.55889 6.76652 0
M  V30 7667 H 404.306 -2.61715 5.17932 0
M  V30 7668 H 404.026 -5.52155 4.41878 0
M  V30 7669 H 403.035 -4.51981 5.53374 0
M  V30 7670 H 404.869 -6.25124 6.55234 0
M  V30 7671 P 402.998 -4.23843 7.83734 0
M  V30 7672 O 402.778 -4.19407 9.29784 0
M  V30 7673 O 402.208 -5.24426 7.09156 0
M  V30 7674 O 402.748 -2.7935 7.20758 0
M  V30 7675 C 403.688 -1.7299 7.50419 0
M  V30 7676 C 402.958 -0.406376 7.57911 0
M  V30 7677 O 402.748 0.0897726 6.21935 0
M  V30 7678 C 401.558 -0.447224 8.1878 0
M  V30 7679 O 401.168 0.825065 8.71101 0
M  V30 7680 C 400.678 -0.783801 6.99623 0
M  V30 7681 C 401.388 -0.0619192 5.85967 0
M  V30 7682 N 401.338 -0.7859 4.56281 0
M  V30 7683 H 404.177 -1.93423 8.4679 0
M  V30 7684 H 404.449 -1.68181 6.71046 0
M  V30 7685 H 403.581 0.289041 8.15388 0
M  V30 7686 P 399.618 1.17771 8.83182 0
M  V30 7687 O 399.398 2.07206 9.98732 0
M  V30 7688 O 398.828 -0.0743816 8.81969 0
M  V30 7689 O 399.368 1.97652 7.47304 0
M  V30 7690 C 400.308 3.01133 7.08783 0
M  V30 7691 C 399.578 4.12613 6.37049 0
M  V30 7692 O 399.368 3.72827 4.97879 0
M  V30 7693 C 398.178 4.45085 6.88694 0
M  V30 7694 O 397.788 5.7877 6.5624 0
M  V30 7695 C 397.298 3.47817 6.12078 0
M  V30 7696 C 398.008 3.39414 4.77697 0
M  V30 7697 N 397.958 2.04615 4.15333 0
M  V30 7698 H 400.797 3.41248 7.98759 0
M  V30 7699 H 401.069 2.5837 6.41742 0
M  V30 7700 H 400.201 5.02657 6.42673 0
M  V30 7701 P 396.238 6.144 6.45285 0
M  V30 7702 O 396.018 7.54673 6.86199 0
M  V30 7703 O 395.448 5.12391 7.179 0
M  V30 7704 O 395.988 5.99158 4.88404 0
M  V30 7705 C 396.928 6.60234 3.96415 0
M  V30 7706 C 396.198 7.08259 2.72856 0
M  V30 7707 O 395.988 5.9427 1.83651 0
M  V30 7708 C 394.798 7.64886 2.9555 0
M  V30 7709 O 394.408 8.53963 1.90717 0
M  V30 7710 C 393.918 6.4116 2.90739 0
M  V30 7711 C 394.628 5.55375 1.86963 0
M  V30 7712 N 394.578 4.09448 2.16152 0
M  V30 7713 H 397.417 7.45574 4.45629 0
M  V30 7714 H 397.689 5.85864 3.679 0
M  V30 7715 H 396.821 7.84412 2.24479 0
M  V30 7716 H 394.166 5.73457 0.888562 0
M  V30 7717 H 393.886 5.90877 3.88583 0
M  V30 7718 H 392.895 6.6596 2.58858 0
M  V30 7719 H 394.729 8.16339 3.92049 0
M  V30 7720 P 392.858 8.7635 1.60911 0
M  V30 7721 O 392.638 10.1388 1.11561 0
M  V30 7722 O 392.068 8.36503 2.79617 0
M  V30 7723 O 392.608 7.71806 0.42951 0
M  V30 7724 C 393.548 7.66948 -0.673514 0
M  V30 7725 C 392.818 7.33374 -1.95559 0
M  V30 7726 O 392.608 5.88721 -2.00726 0
M  V30 7727 C 391.418 7.92218 -2.1125 0
M  V30 7728 O 391.028 8.02971 -3.47653 0
M  V30 7729 C 390.538 6.89504 -1.41631 0
M  V30 7730 C 391.248 5.59106 -1.75155 0
M  V30 7731 N 391.198 4.58136 -0.662409 0
M  V30 7732 C 391.048 3.26059 -1.02863 0
M  V30 7733 O 390.958 2.90743 -2.19009 0
M  V30 7734 N 391.008 2.35995 0.0155585 0
M  V30 7735 C 391.098 2.65248 1.35603 0
M  V30 7736 C 391.248 4.05747 1.64698 0
M  V30 7737 C 391.298 4.96734 0.652411 0
M  V30 7738 H 394.039 8.64917 -0.776982 0
M  V30 7739 H 394.308 6.89974 -0.474015 0
M  V30 7740 H 393.441 7.66548 -2.79458 0
M  V30 7741 H 390.786 5.16076 -2.65138 0
M  V30 7742 H 390.507 7.06433 -0.329384 0
M  V30 7743 H 389.515 6.90829 -1.81996 0
M  V30 7744 H 391.349 8.90774 -1.62639 0
M  V30 7745 H 391.42 6.02181 0.895285 0
M  V30 7746 P 389.478 8.03563 -3.84925 0
M  V30 7747 O 389.258 8.85821 -5.0569 0
M  V30 7748 O 388.688 8.41101 -2.65469 0
M  V30 7749 O 389.228 6.4965 -4.18908 0
M  V30 7750 C 390.168 5.81037 -5.05421 0
M  V30 7751 C 389.438 4.78366 -5.89277 0
M  V30 7752 O 389.228 3.58302 -5.08433 0
M  V30 7753 C 388.038 5.17448 -6.36119 0
M  V30 7754 O 387.648 4.45271 -7.53232 0
M  V30 7755 C 387.158 4.74639 -5.19936 0
M  V30 7756 C 387.868 3.49432 -4.70418 0
M  V30 7757 N 387.818 3.32099 -3.22613 0
M  V30 7758 H 390.657 6.54213 -5.71376 0
M  V30 7759 H 390.929 5.30936 -4.43503 0
M  V30 7760 H 390.061 4.55889 -6.76652 0
M  V30 7761 H 387.406 2.61715 -5.17932 0
M  V30 7762 H 387.126 5.52155 -4.41878 0
M  V30 7763 H 386.135 4.51981 -5.53374 0
M  V30 7764 H 387.969 6.25124 -6.55234 0
M  V30 7765 P 386.098 4.23843 -7.83734 0
M  V30 7766 O 385.878 4.19407 -9.29784 0
M  V30 7767 O 385.308 5.24426 -7.09156 0
M  V30 7768 O 385.848 2.7935 -7.20758 0
M  V30 7769 C 386.788 1.7299 -7.50419 0
M  V30 7770 C 386.058 0.406376 -7.57911 0
M  V30 7771 O 385.848 -0.0897726 -6.21935 0
M  V30 7772 C 384.658 0.447224 -8.1878 0
M  V30 7773 O 384.268 -0.825065 -8.71101 0
M  V30 7774 C 383.778 0.783801 -6.99623 0
M  V30 7775 C 384.488 0.0619192 -5.85967 0
M  V30 7776 N 384.438 0.7859 -4.56281 0
M  V30 7777 H 387.277 1.93423 -8.4679 0
M  V30 7778 H 387.549 1.68181 -6.71046 0
M  V30 7779 H 386.681 -0.289041 -8.15388 0
M  V30 7780 P 382.718 -1.17771 -8.83182 0
M  V30 7781 O 382.498 -2.07206 -9.98732 0
M  V30 7782 O 381.928 0.0743816 -8.81969 0
M  V30 7783 O 382.468 -1.97652 -7.47304 0
M  V30 7784 C 383.408 -3.01133 -7.08783 0
M  V30 7785 C 382.678 -4.12613 -6.37049 0
M  V30 7786 O 382.468 -3.72827 -4.97879 0
M  V30 7787 C 381.278 -4.45085 -6.88694 0
M  V30 7788 O 380.888 -5.7877 -6.5624 0
M  V30 7789 C 380.398 -3.47817 -6.12078 0
M  V30 7790 C 381.108 -3.39414 -4.77697 0
M  V30 7791 N 381.058 -2.04615 -4.15333 0
M  V30 7792 H 383.897 -3.41248 -7.98759 0
M  V30 7793 H 384.169 -2.5837 -6.41742 0
M  V30 7794 H 383.301 -5.02657 -6.42673 0
M  V30 7795 P 379.338 -6.144 -6.45285 0
M  V30 7796 O 379.118 -7.54673 -6.86199 0
M  V30 7797 O 378.548 -5.12391 -7.179 0
M  V30 7798 O 379.088 -5.99158 -4.88404 0
M  V30 7799 C 380.028 -6.60234 -3.96415 0
M  V30 7800 C 379.298 -7.08259 -2.72856 0
M  V30 7801 O 379.088 -5.9427 -1.83651 0
M  V30 7802 C 377.898 -7.64886 -2.9555 0
M  V30 7803 O 377.508 -8.53963 -1.90717 0
M  V30 7804 C 377.018 -6.4116 -2.90739 0
M  V30 7805 C 377.728 -5.55375 -1.86963 0
M  V30 7806 N 377.678 -4.09448 -2.16152 0
M  V30 7807 H 380.517 -7.45574 -4.45629 0
M  V30 7808 H 380.789 -5.85864 -3.679 0
M  V30 7809 H 379.921 -7.84412 -2.24479 0
M  V30 7810 H 377.266 -5.73457 -0.888562 0
M  V30 7811 H 376.986 -5.90877 -3.88583 0
M  V30 7812 H 375.995 -6.6596 -2.58858 0
M  V30 7813 H 377.829 -8.16339 -3.92049 0
M  V30 7814 P 375.958 -8.7635 -1.60911 0
M  V30 7815 O 375.738 -10.1388 -1.11561 0
M  V30 7816 O 375.168 -8.36503 -2.79617 0
M  V30 7817 O 375.708 -7.71806 -0.42951 0
M  V30 7818 C 376.648 -7.67148 0.673689 0
M  V30 7819 C 375.918 -7.33374 1.95559 0
M  V30 7820 O 375.708 -5.88721 2.00726 0
M  V30 7821 C 374.518 -7.92526 2.10483 0
M  V30 7822 O 374.128 -8.02971 3.47653 0
M  V30 7823 C 373.638 -6.89602 1.41652 0
M  V30 7824 C 374.348 -5.59201 1.75185 0
M  V30 7825 N 374.298 -4.58235 0.662552 0
M  V30 7826 H 377.137 -8.65116 0.777161 0
M  V30 7827 H 377.409 -6.90173 0.474152 0
M  V30 7828 H 376.541 -7.66548 2.79458 0
M  V30 7829 P 372.578 -8.03563 3.84925 0
M  V30 7830 O 372.358 -8.85821 5.0569 0
M  V30 7831 O 371.788 -8.41101 2.65469 0
M  V30 7832 O 372.328 -6.4965 4.18908 0
M  V30 7833 C 373.268 -5.81037 5.05421 0
M  V30 7834 C 372.538 -4.78366 5.89277 0
M  V30 7835 O 372.328 -3.58302 5.08433 0
M  V30 7836 C 371.138 -5.17448 6.36119 0
M  V30 7837 O 370.748 -4.45271 7.53232 0
M  V30 7838 C 370.258 -4.74639 5.19936 0
M  V30 7839 C 370.968 -3.49432 4.70418 0
M  V30 7840 N 370.918 -3.31776 3.22945 0
M  V30 7841 H 373.757 -6.54213 5.71376 0
M  V30 7842 H 374.029 -5.30492 4.44033 0
M  V30 7843 H 373.161 -4.55889 6.76652 0
M  V30 7844 P 369.198 -4.23843 7.83734 0
M  V30 7845 O 368.978 -4.19407 9.29784 0
M  V30 7846 O 368.408 -5.24426 7.09156 0
M  V30 7847 O 368.948 -2.7935 7.20758 0
M  V30 7848 C 369.888 -1.7299 7.50419 0
M  V30 7849 C 369.158 -0.406376 7.57911 0
M  V30 7850 O 368.948 0.0897726 6.21935 0
M  V30 7851 C 367.758 -0.447224 8.1878 0
M  V30 7852 O 367.368 0.825065 8.71101 0
M  V30 7853 C 366.878 -0.783801 6.99623 0
M  V30 7854 C 367.588 -0.0619192 5.85967 0
M  V30 7855 N 367.538 -0.7859 4.56281 0
M  V30 7856 C 367.618 -2.14308 4.31736 0
M  V30 7857 N 367.538 -2.46106 3.05116 0
M  V30 7858 C 367.398 -1.23422 2.4014 0
M  V30 7859 C 367.268 -0.938381 1.02409 0
M  V30 7860 N 367.148 0.444647 0.805413 0
M  V30 7861 C 367.148 1.40829 1.79435 0
M  V30 7862 N 367.018 2.67213 1.38558 0
M  V30 7863 N 367.278 1.12947 3.09005 0
M  V30 7864 C 367.398 -0.204887 3.32369 0
M  V30 7865 H 370.377 -1.93423 8.4679 0
M  V30 7866 H 370.649 -1.68181 6.71046 0
M  V30 7867 H 369.781 0.289041 8.15388 0
M  V30 7868 P 365.818 1.17771 8.83182 0
M  V30 7869 O 365.598 2.07206 9.98732 0
M  V30 7870 O 365.028 -0.0743816 8.81969 0
M  V30 7871 O 365.568 1.97652 7.47304 0
M  V30 7872 C 366.508 3.01133 7.08783 0
M  V30 7873 C 365.778 4.12613 6.37049 0
M  V30 7874 O 365.568 3.72827 4.97879 0
M  V30 7875 C 364.378 4.45085 6.88694 0
M  V30 7876 O 363.988 5.7877 6.5624 0
M  V30 7877 C 363.498 3.47817 6.12078 0
M  V30 7878 C 364.208 3.39414 4.77697 0
M  V30 7879 N 364.158 2.04199 4.15538 0
M  V30 7880 H 366.997 3.41248 7.98759 0
M  V30 7881 H 367.269 2.57728 6.42 0
M  V30 7882 H 366.401 5.02657 6.42673 0
M  V30 7883 H 363.746 4.11708 4.08956 0
M  V30 7884 H 363.466 2.49626 6.61679 0
M  V30 7885 H 362.475 3.8662 6.00862 0
M  V30 7886 H 364.309 4.29991 7.97006 0
M  V30 7887 P 362.438 6.144 6.45285 0
M  V30 7888 O 362.218 7.54673 6.86199 0
M  V30 7889 O 361.648 5.12391 7.179 0
M  V30 7890 O 362.188 5.99158 4.88404 0
M  V30 7891 C 363.128 6.60234 3.96415 0
M  V30 7892 C 362.398 7.08259 2.72856 0
M  V30 7893 O 362.188 5.9427 1.83651 0
M  V30 7894 C 360.998 7.64886 2.9555 0
M  V30 7895 O 360.608 8.53963 1.90717 0
M  V30 7896 C 360.118 6.4116 2.90739 0
M  V30 7897 C 360.828 5.55375 1.86963 0
M  V30 7898 N 360.778 4.09664 2.15742 0
M  V30 7899 H 363.617 7.45574 4.45629 0
M  V30 7900 H 363.889 5.86232 3.67314 0
M  V30 7901 H 363.021 7.84412 2.24479 0
M  V30 7902 P 359.058 8.7635 1.60911 0
M  V30 7903 O 358.838 10.1388 1.11561 0
M  V30 7904 O 358.268 8.36503 2.79617 0
M  V30 7905 O 358.808 7.71806 0.42951 0
M  V30 7906 C 359.748 7.67148 -0.673689 0
M  V30 7907 C 359.018 7.33374 -1.95559 0
M  V30 7908 O 358.808 5.88721 -2.00726 0
M  V30 7909 C 357.618 7.92526 -2.10483 0
M  V30 7910 O 357.228 8.02971 -3.47653 0
M  V30 7911 C 356.738 6.89602 -1.41652 0
M  V30 7912 C 357.448 5.59201 -1.75185 0
M  V30 7913 N 357.398 4.58235 -0.662552 0
M  V30 7914 H 360.237 8.65116 -0.777161 0
M  V30 7915 H 360.509 6.90173 -0.474152 0
M  V30 7916 H 359.641 7.66548 -2.79458 0
M  V30 7917 P 355.678 8.03563 -3.84925 0
M  V30 7918 O 355.458 8.85821 -5.0569 0
M  V30 7919 O 354.888 8.41101 -2.65469 0
M  V30 7920 O 355.428 6.49734 -4.18962 0
M  V30 7921 C 356.368 5.81037 -5.05421 0
M  V30 7922 C 355.638 4.79018 -5.88876 0
M  V30 7923 O 355.428 3.58359 -5.08515 0
M  V30 7924 C 354.238 5.17448 -6.36119 0
M  V30 7925 O 353.848 4.45322 -7.53318 0
M  V30 7926 C 353.358 4.74639 -5.19936 0
M  V30 7927 C 354.068 3.49432 -4.70418 0
M  V30 7928 N 354.018 3.31776 -3.22945 0
M  V30 7929 C 353.868 2.02742 -2.72939 0
M  V30 7930 O 353.778 1.08301 -3.52749 0
M  V30 7931 N 353.818 1.96117 -1.22063 0
M  V30 7932 C 353.918 2.8878 -0.551566 0
M  V30 7933 N 353.868 2.65609 0.750198 0
M  V30 7934 C 354.068 4.22457 -1.03707 0
M  V30 7935 C 354.118 4.37979 -2.39113 0
M  V30 7936 H 356.858 6.54138 -5.7131 0
M  V30 7937 H 357.128 5.30492 -4.44033 0
M  V30 7938 H 356.261 4.55945 -6.76735 0
M  V30 7939 H 353.606 2.6176 -5.18021 0
M  V30 7940 H 353.326 5.52233 -4.41941 0
M  V30 7941 H 352.335 4.52045 -5.53452 0
M  V30 7942 H 354.169 6.25124 -6.55234 0
M  V30 7943 H 354.241 5.37936 -2.80552 0
M  V30 7944 H 354.139 5.07528 -0.359553 0
M  V30 7945 H 353.751 1.69403 1.09847 0
M  V30 7946 H 353.947 3.43701 1.41792 0
M  V30 7947 P 352.298 4.23843 -7.83734 0
M  V30 7948 O 352.078 4.19407 -9.29784 0
M  V30 7949 O 351.508 5.24426 -7.09156 0
M  V30 7950 O 352.048 2.7935 -7.20758 0
M  V30 7951 C 352.988 1.7299 -7.50419 0
M  V30 7952 C 352.258 0.406376 -7.57911 0
M  V30 7953 O 352.048 -0.0897726 -6.21935 0
M  V30 7954 C 350.858 0.447224 -8.1878 0
M  V30 7955 O 350.468 -0.825065 -8.71101 0
M  V30 7956 C 349.978 0.783801 -6.99623 0
M  V30 7957 C 350.688 0.0619192 -5.85967 0
M  V30 7958 N 350.638 0.7859 -4.56281 0
M  V30 7959 H 353.477 1.93423 -8.4679 0
M  V30 7960 H 353.749 1.68181 -6.71046 0
M  V30 7961 H 352.881 -0.289041 -8.15388 0
M  V30 7962 P 348.918 -1.17771 -8.83182 0
M  V30 7963 O 348.698 -2.07206 -9.98732 0
M  V30 7964 O 348.128 0.0743816 -8.81969 0
M  V30 7965 O 348.668 -1.97652 -7.47304 0
M  V30 7966 C 349.608 -3.01133 -7.08783 0
M  V30 7967 C 348.878 -4.12613 -6.37049 0
M  V30 7968 O 348.668 -3.72827 -4.97879 0
M  V30 7969 C 347.478 -4.45085 -6.88694 0
M  V30 7970 O 347.088 -5.7877 -6.5624 0
M  V30 7971 C 346.598 -3.47817 -6.12078 0
M  V30 7972 C 347.308 -3.39414 -4.77697 0
M  V30 7973 N 347.258 -2.04199 -4.15538 0
M  V30 7974 H 350.097 -3.41248 -7.98759 0
M  V30 7975 H 350.369 -2.57728 -6.42 0
M  V30 7976 H 349.501 -5.02657 -6.42673 0
M  V30 7977 H 346.846 -4.11708 -4.08956 0
M  V30 7978 H 346.566 -2.49626 -6.61679 0
M  V30 7979 H 345.575 -3.8662 -6.00862 0
M  V30 7980 H 347.409 -4.29991 -7.97006 0
M  V30 7981 P 345.538 -6.144 -6.45285 0
M  V30 7982 O 345.318 -7.54673 -6.86199 0
M  V30 7983 O 344.748 -5.12391 -7.179 0
M  V30 7984 O 345.288 -5.99158 -4.88404 0
M  V30 7985 C 346.228 -6.60234 -3.96415 0
M  V30 7986 C 345.498 -7.08259 -2.72856 0
M  V30 7987 O 345.288 -5.9427 -1.83651 0
M  V30 7988 C 344.098 -7.64886 -2.9555 0
M  V30 7989 O 343.708 -8.53963 -1.90717 0
M  V30 7990 C 343.218 -6.4116 -2.90739 0
M  V30 7991 C 343.928 -5.55375 -1.86963 0
M  V30 7992 N 343.878 -4.09664 -2.15742 0
M  V30 7993 H 346.717 -7.45574 -4.45629 0
M  V30 7994 H 346.989 -5.86232 -3.67314 0
M  V30 7995 H 346.121 -7.84412 -2.24479 0
M  V30 7996 P 342.158 -8.7635 -1.60911 0
M  V30 7997 O 341.938 -10.1388 -1.11561 0
M  V30 7998 O 341.368 -8.36503 -2.79617 0
M  V30 7999 O 341.908 -7.71806 -0.42951 0
M  V30 8000 C 342.848 -7.66948 0.673514 0
M  V30 8001 C 342.118 -7.33374 1.95559 0
M  V30 8002 O 341.908 -5.88721 2.00726 0
M  V30 8003 C 340.718 -7.92218 2.1125 0
M  V30 8004 O 340.328 -8.02971 3.47653 0
M  V30 8005 C 339.838 -6.89504 1.41631 0
M  V30 8006 C 340.548 -5.59106 1.75155 0
M  V30 8007 N 340.498 -4.58136 0.662409 0
M  V30 8008 C 340.348 -3.26059 1.02863 0
M  V30 8009 O 340.258 -2.90743 2.19009 0
M  V30 8010 N 340.308 -2.35995 -0.0155585 0
M  V30 8011 C 340.398 -2.65248 -1.35603 0
M  V30 8012 O 340.348 -1.75605 -2.20651 0
M  V30 8013 C 340.548 -4.05747 -1.64698 0
M  V30 8014 C 340.658 -4.42345 -3.09553 0
M  V30 8015 C 340.598 -4.96734 -0.652411 0
M  V30 8016 H 343.339 -8.64917 0.776982 0
M  V30 8017 H 343.608 -6.89974 0.474015 0
M  V30 8018 H 342.741 -7.66548 2.79458 0
M  V30 8019 H 340.086 -5.16076 2.65138 0
M  V30 8020 H 339.807 -7.06433 0.329384 0
M  V30 8021 H 338.815 -6.90829 1.81996 0
M  V30 8022 H 340.649 -8.90774 1.62639 0
M  V30 8023 H 340.72 -6.02181 -0.895285 0
M  V30 8024 H 339.69 -4.80252 -3.45468 0
M  V30 8025 H 341.427 -5.20015 -3.22119 0
M  V30 8026 H 340.939 -3.53269 -3.67833 0
M  V30 8027 H 340.203 -1.39558 0.227499 0
M  V30 8028 P 338.778 -8.03563 3.84925 0
M  V30 8029 O 338.558 -8.85821 5.0569 0
M  V30 8030 O 337.988 -8.41101 2.65469 0
M  V30 8031 O 338.528 -6.4965 4.18908 0
M  V30 8032 C 339.468 -5.80886 5.05289 0
M  V30 8033 C 338.738 -4.78366 5.89277 0
M  V30 8034 O 338.528 -3.58302 5.08433 0
M  V30 8035 C 337.338 -5.16748 6.36559 0
M  V30 8036 O 336.948 -4.45271 7.53232 0
M  V30 8037 C 336.458 -4.74572 5.19863 0
M  V30 8038 C 337.168 -3.49373 4.70338 0
M  V30 8039 N 337.118 -3.31704 3.22876 0
M  V30 8040 C 336.968 -2.03326 2.74871 0
M  V30 8041 O 336.878 -1.06486 3.48076 0
M  V30 8042 N 336.928 -1.91838 1.37456 0
M  V30 8043 C 337.018 -2.94295 0.462035 0
M  V30 8044 O 336.968 -2.71763 -0.752928 0
M  V30 8045 C 337.168 -4.25064 1.05249 0
M  V30 8046 C 337.278 -5.39815 0.095697 0
M  V30 8047 C 337.218 -4.40214 2.39192 0
M  V30 8048 H 339.959 -6.54063 5.71245 0
M  V30 8049 H 340.228 -5.30339 4.43905 0
M  V30 8050 H 339.361 -4.55889 6.76652 0
M  V30 8051 H 336.706 -2.6167 5.17842 0
M  V30 8052 H 336.427 -5.52155 4.41878 0
M  V30 8053 H 335.435 -4.51918 5.53297 0
M  V30 8054 H 337.269 -6.25055 6.55162 0
M  V30 8055 H 337.34 -5.39798 2.81523 0
M  V30 8056 H 336.31 -5.91593 0.0279582 0
M  V30 8057 H 338.047 -6.10038 0.450573 0
M  V30 8058 H 337.559 -5.02007 -0.89937 0
M  V30 8059 H 336.823 -0.995326 1.00435 0
M  V30 8060 P 335.398 -4.23843 7.83734 0
M  V30 8061 O 335.178 -4.19407 9.29784 0
M  V30 8062 O 334.608 -5.24426 7.09156 0
M  V30 8063 O 335.148 -2.7935 7.20758 0
M  V30 8064 C 336.088 -1.7299 7.50419 0
M  V30 8065 C 335.358 -0.406376 7.57911 0
M  V30 8066 O 335.148 0.0897726 6.21935 0
M  V30 8067 C 333.958 -0.447224 8.1878 0
M  V30 8068 O 333.568 0.825065 8.71101 0
M  V30 8069 C 333.078 -0.783801 6.99623 0
M  V30 8070 C 333.788 -0.0619192 5.85967 0
M  V30 8071 N 333.738 -0.7859 4.56281 0
M  V30 8072 H 336.577 -1.93423 8.4679 0
M  V30 8073 H 336.849 -1.68181 6.71046 0
M  V30 8074 H 335.981 0.289041 8.15388 0
M  V30 8075 P 332.018 1.17771 8.83182 0
M  V30 8076 O 331.798 2.07206 9.98732 0
M  V30 8077 O 331.228 -0.0743816 8.81969 0
M  V30 8078 O 331.768 1.97652 7.47304 0
M  V30 8079 C 332.708 3.01133 7.08783 0
M  V30 8080 C 331.978 4.12613 6.37049 0
M  V30 8081 O 331.768 3.72827 4.97879 0
M  V30 8082 C 330.578 4.45085 6.88694 0
M  V30 8083 O 330.188 5.7877 6.5624 0
M  V30 8084 C 329.698 3.47817 6.12078 0
M  V30 8085 C 330.408 3.39414 4.77697 0
M  V30 8086 N 330.358 2.04615 4.15333 0
M  V30 8087 H 333.197 3.41248 7.98759 0
M  V30 8088 H 333.469 2.5837 6.41742 0
M  V30 8089 H 332.601 5.02657 6.42673 0
M  V30 8090 P 328.638 6.144 6.45285 0
M  V30 8091 O 328.418 7.54673 6.86199 0
M  V30 8092 O 327.848 5.12391 7.179 0
M  V30 8093 O 328.388 5.99158 4.88404 0
M  V30 8094 C 329.328 6.60234 3.96415 0
M  V30 8095 C 328.598 7.08259 2.72856 0
M  V30 8096 O 328.388 5.9427 1.83651 0
M  V30 8097 C 327.198 7.64886 2.9555 0
M  V30 8098 O 326.808 8.53963 1.90717 0
M  V30 8099 C 326.318 6.4116 2.90739 0
M  V30 8100 C 327.028 5.55375 1.86963 0
M  V30 8101 N 326.978 4.09664 2.15742 0
M  V30 8102 H 329.817 7.45574 4.45629 0
M  V30 8103 H 330.089 5.86232 3.67314 0
M  V30 8104 H 329.221 7.84412 2.24479 0
M  V30 8105 P 325.258 8.7635 1.60911 0
M  V30 8106 O 325.038 10.1388 1.11561 0
M  V30 8107 O 324.468 8.36503 2.79617 0
M  V30 8108 O 325.008 7.71806 0.42951 0
M  V30 8109 C 325.948 7.67148 -0.673689 0
M  V30 8110 C 325.218 7.33374 -1.95559 0
M  V30 8111 O 325.008 5.88721 -2.00726 0
M  V30 8112 C 323.818 7.92526 -2.10483 0
M  V30 8113 O 323.428 8.02971 -3.47653 0
M  V30 8114 C 322.938 6.89602 -1.41652 0
M  V30 8115 C 323.648 5.59201 -1.75185 0
M  V30 8116 N 323.598 4.58235 -0.662552 0
M  V30 8117 H 326.437 8.65116 -0.777161 0
M  V30 8118 H 326.709 6.90173 -0.474152 0
M  V30 8119 H 325.841 7.66548 -2.79458 0
M  V30 8120 P 321.878 8.03563 -3.84925 0
M  V30 8121 O 321.658 8.85821 -5.0569 0
M  V30 8122 O 321.088 8.41101 -2.65469 0
M  V30 8123 O 321.628 6.4965 -4.18908 0
M  V30 8124 C 322.568 5.81037 -5.05421 0
M  V30 8125 C 321.838 4.78366 -5.89277 0
M  V30 8126 O 321.628 3.58302 -5.08433 0
M  V30 8127 C 320.438 5.17448 -6.36119 0
M  V30 8128 O 320.048 4.45271 -7.53232 0
M  V30 8129 C 319.558 4.74639 -5.19936 0
M  V30 8130 C 320.268 3.49432 -4.70418 0
M  V30 8131 N 320.218 3.31776 -3.22945 0
M  V30 8132 H 323.057 6.54213 -5.71376 0
M  V30 8133 H 323.329 5.30492 -4.44033 0
M  V30 8134 H 322.461 4.55889 -6.76652 0
M  V30 8135 P 318.498 4.23843 -7.83734 0
M  V30 8136 O 318.278 4.19407 -9.29784 0
M  V30 8137 O 317.708 5.24426 -7.09156 0
M  V30 8138 O 318.248 2.7935 -7.20758 0
M  V30 8139 C 319.188 1.7299 -7.50419 0
M  V30 8140 C 318.458 0.406376 -7.57911 0
M  V30 8141 O 318.248 -0.0897726 -6.21935 0
M  V30 8142 C 317.058 0.447224 -8.1878 0
M  V30 8143 O 316.668 -0.825065 -8.71101 0
M  V30 8144 C 316.178 0.783801 -6.99623 0
M  V30 8145 C 316.888 0.0619192 -5.85967 0
M  V30 8146 N 316.838 0.7859 -4.56281 0
M  V30 8147 H 319.677 1.93423 -8.4679 0
M  V30 8148 H 319.949 1.68181 -6.71046 0
M  V30 8149 H 319.081 -0.289041 -8.15388 0
M  V30 8150 P 315.118 -1.17771 -8.83182 0
M  V30 8151 O 314.898 -2.07206 -9.98732 0
M  V30 8152 O 314.328 0.0743816 -8.81969 0
M  V30 8153 O 314.868 -1.97652 -7.47304 0
M  V30 8154 C 315.808 -3.01055 -7.08599 0
M  V30 8155 C 315.078 -4.12613 -6.37049 0
M  V30 8156 O 314.868 -3.72827 -4.97879 0
M  V30 8157 C 313.678 -4.45719 -6.88164 0
M  V30 8158 O 313.288 -5.7877 -6.5624 0
M  V30 8159 C 312.798 -3.47768 -6.11991 0
M  V30 8160 C 313.508 -3.39356 -4.77615 0
M  V30 8161 N 313.458 -2.04571 -4.15244 0
M  V30 8162 C 313.308 -1.98587 -2.78314 0
M  V30 8163 O 313.218 -2.98134 -2.08835 0
M  V30 8164 N 313.268 -0.714467 -2.24925 0
M  V30 8165 C 313.358 0.470001 -2.94169 0
M  V30 8166 O 313.308 1.55587 -2.35195 0
M  V30 8167 C 313.508 0.312541 -4.36783 0
M  V30 8168 C 313.618 1.57711 -5.16352 0
M  V30 8169 C 313.558 -0.914512 -4.92583 0
M  V30 8170 H 316.299 -3.41169 -7.98575 0
M  V30 8171 H 316.568 -2.58295 -6.41556 0
M  V30 8172 H 315.701 -5.02657 -6.42673 0
M  V30 8173 H 313.046 -4.11637 -4.08885 0
M  V30 8174 H 312.767 -2.49626 -6.61679 0
M  V30 8175 H 311.775 -3.86566 -6.00778 0
M  V30 8176 H 313.609 -4.29943 -7.96918 0
M  V30 8177 H 313.68 -1.00937 -6.00374 0
M  V30 8178 H 312.65 1.80153 -5.63503 0
M  V30 8179 H 314.387 1.4566 -5.94104 0
M  V30 8180 H 313.899 2.40664 -4.49645 0
M  V30 8181 H 313.163 -0.647622 -1.25697 0
M  V30 8182 P 311.738 -6.144 -6.45285 0
M  V30 8183 O 311.518 -7.54673 -6.86199 0
M  V30 8184 O 310.948 -5.12391 -7.179 0
M  V30 8185 O 311.488 -5.99236 -4.88467 0
M  V30 8186 C 312.428 -6.60234 -3.96415 0
M  V30 8187 C 311.698 -7.08079 -2.736 0
M  V30 8188 O 311.488 -5.94365 -1.8368 0
M  V30 8189 C 310.298 -7.64886 -2.9555 0
M  V30 8190 O 309.908 -8.5406 -1.90739 0
M  V30 8191 C 309.418 -6.4116 -2.90739 0
M  V30 8192 C 310.128 -5.55375 -1.86963 0
M  V30 8193 N 310.078 -4.09664 -2.15742 0
M  V30 8194 C 309.928 -3.22231 -1.08477 0
M  V30 8195 O 309.838 -3.68951 0.0600489 0
M  V30 8196 N 309.878 -1.76692 -1.48799 0
M  V30 8197 C 309.978 -1.41695 -2.57602 0
M  V30 8198 N 309.928 -0.107296 -2.75791 0
M  V30 8199 C 310.128 -2.29178 -3.69733 0
M  V30 8200 C 310.178 -3.62753 -3.42653 0
M  V30 8201 H 312.918 -7.45488 -4.45578 0
M  V30 8202 H 313.188 -5.86232 -3.67314 0
M  V30 8203 H 312.321 -7.84508 -2.24507 0
M  V30 8204 H 309.666 -5.73556 -0.888715 0
M  V30 8205 H 309.386 -5.9096 -3.88638 0
M  V30 8206 H 308.395 -6.66053 -2.58894 0
M  V30 8207 H 310.229 -8.16339 -3.92049 0
M  V30 8208 H 310.301 -4.33052 -4.24913 0
M  V30 8209 H 310.199 -1.9103 -4.71577 0
M  V30 8210 H 309.811 0.521221 -1.95056 0
M  V30 8211 H 310.007 0.286429 -3.70695 0
M  V30 8212 P 308.358 -8.7635 -1.60911 0
M  V30 8213 O 308.138 -10.1388 -1.11561 0
M  V30 8214 O 307.568 -8.36503 -2.79617 0
M  V30 8215 O 308.108 -7.71806 -0.42951 0
M  V30 8216 C 309.048 -7.66948 0.673514 0
M  V30 8217 C 308.318 -7.33374 1.95559 0
M  V30 8218 O 308.108 -5.88721 2.00726 0
M  V30 8219 C 306.918 -7.92218 2.1125 0
M  V30 8220 O 306.528 -8.02971 3.47653 0
M  V30 8221 C 306.038 -6.89504 1.41631 0
M  V30 8222 C 306.748 -5.59106 1.75155 0
M  V30 8223 N 306.698 -4.58136 0.662409 0
M  V30 8224 C 306.548 -3.26059 1.02863 0
M  V30 8225 O 306.458 -2.90743 2.19009 0
M  V30 8226 N 306.508 -2.35995 -0.0155585 0
M  V30 8227 C 306.598 -2.65248 -1.35603 0
M  V30 8228 C 306.748 -4.05747 -1.64698 0
M  V30 8229 C 306.798 -4.96734 -0.652411 0
M  V30 8230 H 309.539 -8.64917 0.776982 0
M  V30 8231 H 309.808 -6.89974 0.474015 0
M  V30 8232 H 308.941 -7.66548 2.79458 0
M  V30 8233 H 306.286 -5.16076 2.65138 0
M  V30 8234 H 306.007 -7.06433 0.329384 0
M  V30 8235 H 305.015 -6.90829 1.81996 0
M  V30 8236 H 306.849 -8.90774 1.62639 0
M  V30 8237 H 306.92 -6.02181 -0.895285 0
M  V30 8238 P 304.978 -8.03563 3.84925 0
M  V30 8239 O 304.758 -8.85821 5.0569 0
M  V30 8240 O 304.188 -8.41101 2.65469 0
M  V30 8241 O 304.728 -6.4965 4.18908 0
M  V30 8242 C 305.668 -5.81037 5.05421 0
M  V30 8243 C 304.938 -4.78366 5.89277 0
M  V30 8244 O 304.728 -3.58302 5.08433 0
M  V30 8245 C 303.538 -5.17448 6.36119 0
M  V30 8246 O 303.148 -4.45271 7.53232 0
M  V30 8247 C 302.658 -4.74639 5.19936 0
M  V30 8248 C 303.368 -3.49432 4.70418 0
M  V30 8249 N 303.318 -3.31776 3.22945 0
M  V30 8250 H 306.157 -6.54213 5.71376 0
M  V30 8251 H 306.429 -5.30492 4.44033 0
M  V30 8252 H 305.561 -4.55889 6.76652 0
M  V30 8253 P 301.598 -4.23843 7.83734 0
M  V30 8254 O 301.378 -4.19407 9.29784 0
M  V30 8255 O 300.808 -5.24426 7.09156 0
M  V30 8256 O 301.348 -2.7935 7.20758 0
M  V30 8257 C 302.288 -1.7299 7.50419 0
M  V30 8258 C 301.558 -0.406376 7.57911 0
M  V30 8259 O 301.348 0.0897726 6.21935 0
M  V30 8260 C 300.158 -0.447224 8.1878 0
M  V30 8261 O 299.768 0.825065 8.71101 0
M  V30 8262 C 299.278 -0.783801 6.99623 0
M  V30 8263 C 299.988 -0.0619192 5.85967 0
M  V30 8264 N 299.938 -0.7859 4.56281 0
M  V30 8265 C 300.018 -2.14308 4.31736 0
M  V30 8266 N 299.938 -2.46106 3.05116 0
M  V30 8267 C 299.798 -1.23422 2.4014 0
M  V30 8268 C 299.668 -0.938381 1.02409 0
M  V30 8269 N 299.548 0.444647 0.805413 0
M  V30 8270 C 299.548 1.40829 1.79435 0
M  V30 8271 N 299.418 2.67213 1.38558 0
M  V30 8272 N 299.678 1.12947 3.09005 0
M  V30 8273 C 299.798 -0.204887 3.32369 0
M  V30 8274 H 302.777 -1.93423 8.4679 0
M  V30 8275 H 303.049 -1.68181 6.71046 0
M  V30 8276 H 302.181 0.289041 8.15388 0
M  V30 8277 P 298.218 1.17771 8.83182 0
M  V30 8278 O 297.998 2.07206 9.98732 0
M  V30 8279 O 297.428 -0.0743816 8.81969 0
M  V30 8280 O 297.968 1.97652 7.47304 0
M  V30 8281 C 298.908 3.01133 7.08783 0
M  V30 8282 C 298.178 4.12613 6.37049 0
M  V30 8283 O 297.968 3.72827 4.97879 0
M  V30 8284 C 296.778 4.45085 6.88694 0
M  V30 8285 O 296.388 5.7877 6.5624 0
M  V30 8286 C 295.898 3.47817 6.12078 0
M  V30 8287 C 296.608 3.39414 4.77697 0
M  V30 8288 N 296.558 2.04199 4.15538 0
M  V30 8289 H 299.397 3.41248 7.98759 0
M  V30 8290 H 299.669 2.57728 6.42 0
M  V30 8291 H 298.801 5.02657 6.42673 0
M  V30 8292 H 296.146 4.11708 4.08956 0
M  V30 8293 H 295.866 2.49626 6.61679 0
M  V30 8294 H 294.875 3.8662 6.00862 0
M  V30 8295 H 296.709 4.29991 7.97006 0
M  V30 8296 P 294.838 6.144 6.45285 0
M  V30 8297 O 294.618 7.54673 6.86199 0
M  V30 8298 O 294.048 5.12391 7.179 0
M  V30 8299 O 294.588 5.99158 4.88404 0
M  V30 8300 C 295.528 6.60234 3.96415 0
M  V30 8301 C 294.798 7.08259 2.72856 0
M  V30 8302 O 294.588 5.9427 1.83651 0
M  V30 8303 C 293.398 7.64886 2.9555 0
M  V30 8304 O 293.008 8.53963 1.90717 0
M  V30 8305 C 292.518 6.4116 2.90739 0
M  V30 8306 C 293.228 5.55375 1.86963 0
M  V30 8307 N 293.178 4.09664 2.15742 0
M  V30 8308 H 296.017 7.45574 4.45629 0
M  V30 8309 H 296.289 5.86232 3.67314 0
M  V30 8310 H 295.421 7.84412 2.24479 0
M  V30 8311 P 291.458 8.7635 1.60911 0
M  V30 8312 O 291.238 10.1388 1.11561 0
M  V30 8313 O 290.668 8.36503 2.79617 0
M  V30 8314 O 291.208 7.71806 0.42951 0
M  V30 8315 C 292.148 7.67148 -0.673689 0
M  V30 8316 C 291.418 7.33374 -1.95559 0
M  V30 8317 O 291.208 5.88721 -2.00726 0
M  V30 8318 C 290.018 7.92526 -2.10483 0
M  V30 8319 O 289.628 8.02971 -3.47653 0
M  V30 8320 C 289.138 6.89602 -1.41652 0
M  V30 8321 C 289.848 5.59201 -1.75185 0
M  V30 8322 N 289.798 4.58235 -0.662552 0
M  V30 8323 H 292.637 8.65116 -0.777161 0
M  V30 8324 H 292.909 6.90173 -0.474152 0
M  V30 8325 H 292.041 7.66548 -2.79458 0
M  V30 8326 P 288.078 8.03563 -3.84925 0
M  V30 8327 O 287.858 8.85821 -5.0569 0
M  V30 8328 O 287.288 8.41101 -2.65469 0
M  V30 8329 O 287.828 6.4965 -4.18908 0
M  V30 8330 C 288.768 5.81037 -5.05421 0
M  V30 8331 C 288.038 4.78366 -5.89277 0
M  V30 8332 O 287.828 3.58302 -5.08433 0
M  V30 8333 C 286.638 5.17448 -6.36119 0
M  V30 8334 O 286.248 4.45271 -7.53232 0
M  V30 8335 C 285.758 4.74639 -5.19936 0
M  V30 8336 C 286.468 3.49432 -4.70418 0
M  V30 8337 N 286.418 3.31776 -3.22945 0
M  V30 8338 H 289.257 6.54213 -5.71376 0
M  V30 8339 H 289.529 5.30492 -4.44033 0
M  V30 8340 H 288.661 4.55889 -6.76652 0
M  V30 8341 P 284.698 4.23843 -7.83734 0
M  V30 8342 O 284.478 4.19407 -9.29784 0
M  V30 8343 O 283.908 5.24426 -7.09156 0
M  V30 8344 O 284.448 2.7935 -7.20758 0
M  V30 8345 C 285.388 1.7299 -7.50419 0
M  V30 8346 C 284.658 0.406376 -7.57911 0
M  V30 8347 O 284.448 -0.0897726 -6.21935 0
M  V30 8348 C 283.258 0.447224 -8.1878 0
M  V30 8349 O 282.868 -0.825065 -8.71101 0
M  V30 8350 C 282.378 0.783801 -6.99623 0
M  V30 8351 C 283.088 0.0619192 -5.85967 0
M  V30 8352 N 283.038 0.790462 -4.56202 0
M  V30 8353 H 285.877 1.93423 -8.4679 0
M  V30 8354 H 286.149 1.68852 -6.70877 0
M  V30 8355 H 285.281 -0.289041 -8.15388 0
M  V30 8356 H 282.626 -0.927006 -5.72848 0
M  V30 8357 H 282.346 1.86973 -6.82036 0
M  V30 8358 H 281.355 0.403953 -7.13357 0
M  V30 8359 H 283.189 1.20599 -8.97534 0
M  V30 8360 P 281.318 -1.17771 -8.83182 0
M  V30 8361 O 281.098 -2.07206 -9.98732 0
M  V30 8362 O 280.528 0.0743816 -8.81969 0
M  V30 8363 O 281.068 -1.97652 -7.47304 0
M  V30 8364 C 282.008 -3.01055 -7.08599 0
M  V30 8365 C 281.278 -4.12613 -6.37049 0
M  V30 8366 O 281.068 -3.72827 -4.97879 0
M  V30 8367 C 279.878 -4.45719 -6.88164 0
M  V30 8368 O 279.488 -5.7877 -6.5624 0
M  V30 8369 C 278.998 -3.47768 -6.11991 0
M  V30 8370 C 279.708 -3.39356 -4.77615 0
M  V30 8371 N 279.658 -2.04571 -4.15244 0
M  V30 8372 C 279.508 -1.98587 -2.78314 0
M  V30 8373 O 279.418 -2.98134 -2.08835 0
M  V30 8374 N 279.468 -0.714467 -2.24925 0
M  V30 8375 C 279.558 0.470001 -2.94169 0
M  V30 8376 O 279.508 1.55587 -2.35195 0
M  V30 8377 C 279.708 0.312541 -4.36783 0
M  V30 8378 C 279.818 1.57711 -5.16352 0
M  V30 8379 C 279.758 -0.914512 -4.92583 0
M  V30 8380 H 282.499 -3.41169 -7.98575 0
M  V30 8381 H 282.768 -2.58295 -6.41556 0
M  V30 8382 H 281.901 -5.02657 -6.42673 0
M  V30 8383 H 279.246 -4.11637 -4.08885 0
M  V30 8384 H 278.967 -2.49626 -6.61679 0
M  V30 8385 H 277.975 -3.86566 -6.00778 0
M  V30 8386 H 279.809 -4.29943 -7.96918 0
M  V30 8387 H 279.88 -1.00937 -6.00374 0
M  V30 8388 H 278.85 1.80153 -5.63503 0
M  V30 8389 H 280.587 1.4566 -5.94104 0
M  V30 8390 H 280.099 2.40664 -4.49645 0
M  V30 8391 H 279.363 -0.647622 -1.25697 0
M  V30 8392 P 277.938 -6.144 -6.45285 0
M  V30 8393 O 277.718 -7.54673 -6.86199 0
M  V30 8394 O 277.148 -5.12391 -7.179 0
M  V30 8395 O 277.688 -5.99158 -4.88404 0
M  V30 8396 C 278.628 -6.60234 -3.96415 0
M  V30 8397 C 277.898 -7.08259 -2.72856 0
M  V30 8398 O 277.688 -5.9427 -1.83651 0
M  V30 8399 C 276.498 -7.64886 -2.9555 0
M  V30 8400 O 276.108 -8.53963 -1.90717 0
M  V30 8401 C 275.618 -6.4116 -2.90739 0
M  V30 8402 C 276.328 -5.55375 -1.86963 0
M  V30 8403 N 276.278 -4.09664 -2.15742 0
M  V30 8404 H 279.117 -7.45574 -4.45629 0
M  V30 8405 H 279.389 -5.86232 -3.67314 0
M  V30 8406 H 278.521 -7.84412 -2.24479 0
M  V30 8407 P 274.558 -8.7635 -1.60911 0
M  V30 8408 O 274.338 -10.1388 -1.11561 0
M  V30 8409 O 273.768 -8.36503 -2.79617 0
M  V30 8410 O 274.308 -7.71806 -0.42951 0
M  V30 8411 C 275.248 -7.67148 0.673689 0
M  V30 8412 C 274.518 -7.33374 1.95559 0
M  V30 8413 O 274.308 -5.88721 2.00726 0
M  V30 8414 C 273.118 -7.92526 2.10483 0
M  V30 8415 O 272.728 -8.02971 3.47653 0
M  V30 8416 C 272.238 -6.89602 1.41652 0
M  V30 8417 C 272.948 -5.59201 1.75185 0
M  V30 8418 N 272.898 -4.58235 0.662552 0
M  V30 8419 H 275.737 -8.65116 0.777161 0
M  V30 8420 H 276.009 -6.90173 0.474152 0
M  V30 8421 H 275.141 -7.66548 2.79458 0
M  V30 8422 P 271.178 -8.03563 3.84925 0
M  V30 8423 O 270.958 -8.85821 5.0569 0
M  V30 8424 O 270.388 -8.41101 2.65469 0
M  V30 8425 O 270.928 -6.4965 4.18908 0
M  V30 8426 C 271.868 -5.80886 5.05289 0
M  V30 8427 C 271.138 -4.78366 5.89277 0
M  V30 8428 O 270.928 -3.58302 5.08433 0
M  V30 8429 C 269.738 -5.16748 6.36559 0
M  V30 8430 O 269.348 -4.45271 7.53232 0
M  V30 8431 C 268.858 -4.74572 5.19863 0
M  V30 8432 C 269.568 -3.49373 4.70338 0
M  V30 8433 N 269.518 -3.31704 3.22876 0
M  V30 8434 C 269.368 -2.03326 2.74871 0
M  V30 8435 O 269.278 -1.06486 3.48076 0
M  V30 8436 N 269.328 -1.91838 1.37456 0
M  V30 8437 C 269.418 -2.94295 0.462035 0
M  V30 8438 O 269.368 -2.71763 -0.752928 0
M  V30 8439 C 269.568 -4.25064 1.05249 0
M  V30 8440 C 269.678 -5.39815 0.095697 0
M  V30 8441 C 269.618 -4.40214 2.39192 0
M  V30 8442 H 272.359 -6.54063 5.71245 0
M  V30 8443 H 272.628 -5.30339 4.43905 0
M  V30 8444 H 271.761 -4.55889 6.76652 0
M  V30 8445 H 269.106 -2.6167 5.17842 0
M  V30 8446 H 268.827 -5.52155 4.41878 0
M  V30 8447 H 267.835 -4.51918 5.53297 0
M  V30 8448 H 269.669 -6.25055 6.55162 0
M  V30 8449 H 269.74 -5.39798 2.81523 0
M  V30 8450 H 268.71 -5.91593 0.0279582 0
M  V30 8451 H 270.447 -6.10038 0.450573 0
M  V30 8452 H 269.959 -5.02007 -0.89937 0
M  V30 8453 H 269.223 -0.995326 1.00435 0
M  V30 8454 P 267.798 -4.23843 7.83734 0
M  V30 8455 O 267.578 -4.19407 9.29784 0
M  V30 8456 O 267.008 -5.24426 7.09156 0
M  V30 8457 O 267.548 -2.7935 7.20758 0
M  V30 8458 C 268.488 -1.7299 7.50419 0
M  V30 8459 C 267.758 -0.406376 7.57911 0
M  V30 8460 O 267.548 0.0897726 6.21935 0
M  V30 8461 C 266.358 -0.447224 8.1878 0
M  V30 8462 O 265.968 0.825065 8.71101 0
M  V30 8463 C 265.478 -0.783801 6.99623 0
M  V30 8464 C 266.188 -0.0619192 5.85967 0
M  V30 8465 N 266.138 -0.7859 4.56281 0
M  V30 8466 H 268.977 -1.93423 8.4679 0
M  V30 8467 H 269.249 -1.68181 6.71046 0
M  V30 8468 H 268.381 0.289041 8.15388 0
M  V30 8469 P 264.418 1.17771 8.83182 0
M  V30 8470 O 264.198 2.07206 9.98732 0
M  V30 8471 O 263.628 -0.0743816 8.81969 0
M  V30 8472 O 264.168 1.97652 7.47304 0
M  V30 8473 C 265.108 3.01133 7.08783 0
M  V30 8474 C 264.378 4.12613 6.37049 0
M  V30 8475 O 264.168 3.72827 4.97879 0
M  V30 8476 C 262.978 4.45085 6.88694 0
M  V30 8477 O 262.588 5.7877 6.5624 0
M  V30 8478 C 262.098 3.47817 6.12078 0
M  V30 8479 C 262.808 3.39414 4.77697 0
M  V30 8480 N 262.758 2.04199 4.15538 0
M  V30 8481 C 262.838 0.821545 4.76977 0
M  V30 8482 N 262.768 -0.1794 3.94592 0
M  V30 8483 C 262.618 0.419121 2.70776 0
M  V30 8484 C 262.488 -0.109072 1.40577 0
M  V30 8485 N 262.478 -1.4104 1.1344 0
M  V30 8486 N 262.368 0.764381 0.39411 0
M  V30 8487 C 262.378 2.06587 0.664135 0
M  V30 8488 N 262.498 2.67948 1.82153 0
M  V30 8489 C 262.618 1.77942 2.8147 0
M  V30 8490 H 265.597 3.41248 7.98759 0
M  V30 8491 H 265.869 2.57728 6.42 0
M  V30 8492 H 265.001 5.02657 6.42673 0
M  V30 8493 H 262.346 4.11708 4.08956 0
M  V30 8494 H 262.066 2.49626 6.61679 0
M  V30 8495 H 261.075 3.8662 6.00862 0
M  V30 8496 H 262.909 4.29991 7.97006 0
M  V30 8497 H 262.95 0.702451 5.84696 0
M  V30 8498 H 262.569 -2.09647 1.89651 0
M  V30 8499 H 262.38 -1.73358 0.160575 0
M  V30 8500 H 262.272 2.71695 -0.195838 0
M  V30 8501 P 261.038 6.144 6.45285 0
M  V30 8502 O 260.818 7.54673 6.86199 0
M  V30 8503 O 260.248 5.12391 7.179 0
M  V30 8504 O 260.788 5.99158 4.88404 0
M  V30 8505 C 261.728 6.60234 3.96415 0
M  V30 8506 C 260.998 7.08259 2.72856 0
M  V30 8507 O 260.788 5.9427 1.83651 0
M  V30 8508 C 259.598 7.64886 2.9555 0
M  V30 8509 O 259.208 8.53963 1.90717 0
M  V30 8510 C 258.718 6.4116 2.90739 0
M  V30 8511 C 259.428 5.55375 1.86963 0
M  V30 8512 N 259.378 4.09664 2.15742 0
M  V30 8513 H 262.217 7.45574 4.45629 0
M  V30 8514 H 262.489 5.86232 3.67314 0
M  V30 8515 H 261.621 7.84412 2.24479 0
M  V30 8516 P 257.658 8.7635 1.60911 0
M  V30 8517 O 257.438 10.1388 1.11561 0
M  V30 8518 O 256.868 8.36503 2.79617 0
M  V30 8519 O 257.408 7.71806 0.42951 0
M  V30 8520 C 258.348 7.67148 -0.673689 0
M  V30 8521 C 257.618 7.33374 -1.95559 0
M  V30 8522 O 257.408 5.88721 -2.00726 0
M  V30 8523 C 256.218 7.92526 -2.10483 0
M  V30 8524 O 255.828 8.02971 -3.47653 0
M  V30 8525 C 255.338 6.89602 -1.41652 0
M  V30 8526 C 256.048 5.59201 -1.75185 0
M  V30 8527 N 255.998 4.58301 -0.657969 0
M  V30 8528 H 258.837 8.65116 -0.777161 0
M  V30 8529 H 259.109 6.9022 -0.46725 0
M  V30 8530 H 258.241 7.66548 -2.79458 0
M  V30 8531 H 255.586 5.16165 -2.65183 0
M  V30 8532 H 255.306 7.06433 -0.329384 0
M  V30 8533 H 254.315 6.90926 -1.82021 0
M  V30 8534 H 256.149 8.90873 -1.62657 0
M  V30 8535 P 254.279 8.03563 -3.84925 0
M  V30 8536 O 254.059 8.85821 -5.0569 0
M  V30 8537 O 253.489 8.41101 -2.65469 0
M  V30 8538 O 254.029 6.4965 -4.18908 0
M  V30 8539 C 254.969 5.81037 -5.05421 0
M  V30 8540 C 254.239 4.78366 -5.89277 0
M  V30 8541 O 254.029 3.58302 -5.08433 0
M  V30 8542 C 252.839 5.17448 -6.36119 0
M  V30 8543 O 252.449 4.45271 -7.53232 0
M  V30 8544 C 251.959 4.74639 -5.19936 0
M  V30 8545 C 252.669 3.49432 -4.70418 0
M  V30 8546 N 252.619 3.32099 -3.22613 0
M  V30 8547 H 255.458 6.54213 -5.71376 0
M  V30 8548 H 255.73 5.30936 -4.43503 0
M  V30 8549 H 254.862 4.55889 -6.76652 0
M  V30 8550 H 252.207 2.61715 -5.17932 0
M  V30 8551 H 251.927 5.52155 -4.41878 0
M  V30 8552 H 250.936 4.51981 -5.53374 0
M  V30 8553 H 252.77 6.25124 -6.55234 0
M  V30 8554 P 250.899 4.23843 -7.83734 0
M  V30 8555 O 250.679 4.19407 -9.29784 0
M  V30 8556 O 250.109 5.24426 -7.09156 0
M  V30 8557 O 250.649 2.7935 -7.20758 0
M  V30 8558 C 251.589 1.7299 -7.50419 0
M  V30 8559 C 250.859 0.406376 -7.57911 0
M  V30 8560 O 250.649 -0.0897726 -6.21935 0
M  V30 8561 C 249.459 0.447224 -8.1878 0
M  V30 8562 O 249.069 -0.825065 -8.71101 0
M  V30 8563 C 248.579 0.783801 -6.99623 0
M  V30 8564 C 249.289 0.0619192 -5.85967 0
M  V30 8565 N 249.239 0.7859 -4.56281 0
M  V30 8566 H 252.078 1.93423 -8.4679 0
M  V30 8567 H 252.35 1.68181 -6.71046 0
M  V30 8568 H 251.482 -0.289041 -8.15388 0
M  V30 8569 P 247.519 -1.17771 -8.83182 0
M  V30 8570 O 247.299 -2.07206 -9.98732 0
M  V30 8571 O 246.729 0.0743816 -8.81969 0
M  V30 8572 O 247.269 -1.97652 -7.47304 0
M  V30 8573 C 248.209 -3.01133 -7.08783 0
M  V30 8574 C 247.479 -4.12613 -6.37049 0
M  V30 8575 O 247.269 -3.72827 -4.97879 0
M  V30 8576 C 246.079 -4.45085 -6.88694 0
M  V30 8577 O 245.689 -5.7877 -6.5624 0
M  V30 8578 C 245.199 -3.47817 -6.12078 0
M  V30 8579 C 245.909 -3.39414 -4.77697 0
M  V30 8580 N 245.859 -2.04615 -4.15333 0
M  V30 8581 H 248.698 -3.41248 -7.98759 0
M  V30 8582 H 248.97 -2.5837 -6.41742 0
M  V30 8583 H 248.102 -5.02657 -6.42673 0
M  V30 8584 P 244.139 -6.144 -6.45285 0
M  V30 8585 O 243.919 -7.54673 -6.86199 0
M  V30 8586 O 243.349 -5.12391 -7.179 0
M  V30 8587 O 243.889 -5.99158 -4.88404 0
M  V30 8588 C 244.829 -6.60234 -3.96415 0
M  V30 8589 C 244.099 -7.08259 -2.72856 0
M  V30 8590 O 243.889 -5.9427 -1.83651 0
M  V30 8591 C 242.699 -7.64886 -2.9555 0
M  V30 8592 O 242.309 -8.53963 -1.90717 0
M  V30 8593 C 241.819 -6.4116 -2.90739 0
M  V30 8594 C 242.529 -5.55375 -1.86963 0
M  V30 8595 N 242.479 -4.09664 -2.15742 0
M  V30 8596 H 245.318 -7.45574 -4.45629 0
M  V30 8597 H 245.59 -5.86232 -3.67314 0
M  V30 8598 H 244.722 -7.84412 -2.24479 0
M  V30 8599 P 240.759 -8.7635 -1.60911 0
M  V30 8600 O 240.539 -10.1388 -1.11561 0
M  V30 8601 O 239.969 -8.36503 -2.79617 0
M  V30 8602 O 240.509 -7.71806 -0.42951 0
M  V30 8603 C 241.449 -7.67148 0.673689 0
M  V30 8604 C 240.719 -7.33374 1.95559 0
M  V30 8605 O 240.509 -5.88721 2.00726 0
M  V30 8606 C 239.319 -7.92526 2.10483 0
M  V30 8607 O 238.929 -8.02971 3.47653 0
M  V30 8608 C 238.439 -6.89602 1.41652 0
M  V30 8609 C 239.149 -5.59201 1.75185 0
M  V30 8610 N 239.099 -4.58235 0.662552 0
M  V30 8611 H 241.938 -8.65116 0.777161 0
M  V30 8612 H 242.21 -6.90173 0.474152 0
M  V30 8613 H 241.342 -7.66548 2.79458 0
M  V30 8614 P 237.379 -8.03563 3.84925 0
M  V30 8615 O 237.159 -8.85821 5.0569 0
M  V30 8616 O 236.589 -8.41101 2.65469 0
M  V30 8617 O 237.129 -6.4965 4.18908 0
M  V30 8618 C 238.069 -5.81037 5.05421 0
M  V30 8619 C 237.339 -4.78366 5.89277 0
M  V30 8620 O 237.129 -3.58302 5.08433 0
M  V30 8621 C 235.939 -5.17448 6.36119 0
M  V30 8622 O 235.549 -4.45271 7.53232 0
M  V30 8623 C 235.059 -4.74639 5.19936 0
M  V30 8624 C 235.769 -3.49432 4.70418 0
M  V30 8625 N 235.719 -3.32099 3.22613 0
M  V30 8626 H 238.558 -6.54213 5.71376 0
M  V30 8627 H 238.83 -5.30936 4.43503 0
M  V30 8628 H 237.962 -4.55889 6.76652 0
M  V30 8629 H 235.307 -2.61715 5.17932 0
M  V30 8630 H 235.027 -5.52155 4.41878 0
M  V30 8631 H 234.036 -4.51981 5.53374 0
M  V30 8632 H 235.87 -6.25124 6.55234 0
M  V30 8633 P 233.999 -4.23843 7.83734 0
M  V30 8634 O 233.779 -4.19407 9.29784 0
M  V30 8635 O 233.209 -5.24426 7.09156 0
M  V30 8636 O 233.749 -2.7935 7.20758 0
M  V30 8637 C 234.689 -1.72945 7.50224 0
M  V30 8638 C 233.959 -0.406376 7.57911 0
M  V30 8639 O 233.749 0.0897726 6.21935 0
M  V30 8640 C 232.559 -0.438983 8.18724 0
M  V30 8641 O 232.169 0.825065 8.71101 0
M  V30 8642 C 231.679 -0.783689 6.99524 0
M  V30 8643 C 232.389 -0.0619086 5.85867 0
M  V30 8644 N 232.339 -0.78573 4.56183 0
M  V30 8645 C 232.189 -0.0292889 3.41887 0
M  V30 8646 O 232.099 1.18445 3.4419 0
M  V30 8647 N 232.149 -0.744061 2.23964 0
M  V30 8648 C 232.239 -2.10932 2.10362 0
M  V30 8649 O 232.189 -2.64117 0.98825 0
M  V30 8650 C 232.389 -2.8202 3.34994 0
M  V30 8651 C 232.499 -4.31095 3.25037 0
M  V30 8652 C 232.439 -2.15547 4.52261 0
M  V30 8653 H 235.18 -1.93379 8.46595 0
M  V30 8654 H 235.449 -1.68132 6.70852 0
M  V30 8655 H 234.582 0.289041 8.15388 0
M  V30 8656 H 231.927 0.926847 5.72749 0
M  V30 8657 H 231.648 -1.86973 6.82036 0
M  V30 8658 H 230.656 -0.403896 7.13257 0
M  V30 8659 H 232.49 -1.20585 8.97435 0
M  V30 8660 H 232.561 -2.71231 5.45042 0
M  V30 8661 H 231.531 -4.76966 3.49992 0
M  V30 8662 H 233.268 -4.67047 3.95024 0
M  V30 8663 H 232.78 -4.58996 2.22312 0
M  V30 8664 H 232.044 -0.214893 1.39758 0
M  V30 8665 P 230.619 1.17771 8.83182 0
M  V30 8666 O 230.399 2.07206 9.98732 0
M  V30 8667 O 229.829 -0.0743816 8.81969 0
M  V30 8668 O 230.369 1.97652 7.47304 0
M  V30 8669 C 231.309 3.01133 7.08783 0
M  V30 8670 C 230.579 4.12613 6.37049 0
M  V30 8671 O 230.369 3.72827 4.97879 0
M  V30 8672 C 229.179 4.45085 6.88694 0
M  V30 8673 O 228.789 5.7877 6.5624 0
M  V30 8674 C 228.299 3.47817 6.12078 0
M  V30 8675 C 229.009 3.39414 4.77697 0
M  V30 8676 N 228.959 2.04615 4.15333 0
M  V30 8677 H 231.798 3.41248 7.98759 0
M  V30 8678 H 232.07 2.5837 6.41742 0
M  V30 8679 H 231.202 5.02657 6.42673 0
M  V30 8680 P 227.239 6.144 6.45285 0
M  V30 8681 O 227.019 7.54673 6.86199 0
M  V30 8682 O 226.449 5.12391 7.179 0
M  V30 8683 O 226.989 5.99236 4.88467 0
M  V30 8684 C 227.929 6.60234 3.96415 0
M  V30 8685 C 227.199 7.08079 2.736 0
M  V30 8686 O 226.989 5.94365 1.8368 0
M  V30 8687 C 225.799 7.64886 2.9555 0
M  V30 8688 O 225.409 8.5406 1.90739 0
M  V30 8689 C 224.919 6.4116 2.90739 0
M  V30 8690 C 225.629 5.55375 1.86963 0
M  V30 8691 N 225.579 4.09664 2.15742 0
M  V30 8692 C 225.429 3.22231 1.08477 0
M  V30 8693 O 225.339 3.68951 -0.0600489 0
M  V30 8694 N 225.379 1.76692 1.48799 0
M  V30 8695 C 225.479 1.41695 2.57602 0
M  V30 8696 N 225.429 0.107296 2.75791 0
M  V30 8697 C 225.629 2.29178 3.69733 0
M  V30 8698 C 225.679 3.62753 3.42653 0
M  V30 8699 H 228.419 7.45488 4.45578 0
M  V30 8700 H 228.689 5.86232 3.67314 0
M  V30 8701 H 227.822 7.84508 2.24507 0
M  V30 8702 H 225.167 5.73556 0.888715 0
M  V30 8703 H 224.887 5.9096 3.88638 0
M  V30 8704 H 223.896 6.66053 2.58894 0
M  V30 8705 H 225.73 8.16339 3.92049 0
M  V30 8706 H 225.802 4.33052 4.24913 0
M  V30 8707 H 225.7 1.9103 4.71577 0
M  V30 8708 H 225.312 -0.521221 1.95056 0
M  V30 8709 H 225.508 -0.286429 3.70695 0
M  V30 8710 P 223.859 8.7635 1.60911 0
M  V30 8711 O 223.639 10.1388 1.11561 0
M  V30 8712 O 223.069 8.36503 2.79617 0
M  V30 8713 O 223.609 7.71806 0.42951 0
M  V30 8714 C 224.549 7.67148 -0.673689 0
M  V30 8715 C 223.819 7.33374 -1.95559 0
M  V30 8716 O 223.609 5.88721 -2.00726 0
M  V30 8717 C 222.419 7.92526 -2.10483 0
M  V30 8718 O 222.029 8.02971 -3.47653 0
M  V30 8719 C 221.539 6.89602 -1.41652 0
M  V30 8720 C 222.249 5.59201 -1.75185 0
M  V30 8721 N 222.199 4.58235 -0.662552 0
M  V30 8722 H 225.038 8.65116 -0.777161 0
M  V30 8723 H 225.31 6.90173 -0.474152 0
M  V30 8724 H 224.442 7.66548 -2.79458 0
M  V30 8725 P 220.479 8.03563 -3.84925 0
M  V30 8726 O 220.259 8.85821 -5.0569 0
M  V30 8727 O 219.689 8.41101 -2.65469 0
M  V30 8728 O 220.229 6.4965 -4.18908 0
M  V30 8729 C 221.169 5.81037 -5.05421 0
M  V30 8730 C 220.439 4.78366 -5.89277 0
M  V30 8731 O 220.229 3.58302 -5.08433 0
M  V30 8732 C 219.039 5.17448 -6.36119 0
M  V30 8733 O 218.649 4.45271 -7.53232 0
M  V30 8734 C 218.159 4.74639 -5.19936 0
M  V30 8735 C 218.869 3.49432 -4.70418 0
M  V30 8736 N 218.819 3.31776 -3.22945 0
M  V30 8737 H 221.658 6.54213 -5.71376 0
M  V30 8738 H 221.93 5.30492 -4.44033 0
M  V30 8739 H 221.062 4.55889 -6.76652 0
M  V30 8740 P 217.099 4.23843 -7.83734 0
M  V30 8741 O 216.879 4.19407 -9.29784 0
M  V30 8742 O 216.309 5.24426 -7.09156 0
M  V30 8743 O 216.849 2.79386 -7.20852 0
M  V30 8744 C 217.789 1.7299 -7.50419 0
M  V30 8745 C 217.059 0.41401 -7.5797 0
M  V30 8746 O 216.849 -0.089787 -6.22035 0
M  V30 8747 C 215.659 0.447224 -8.1878 0
M  V30 8748 O 215.269 -0.825159 -8.71201 0
M  V30 8749 C 214.779 0.783801 -6.99623 0
M  V30 8750 C 215.489 0.0619192 -5.85967 0
M  V30 8751 N 215.439 0.7859 -4.56281 0
M  V30 8752 C 215.289 0.0359258 -3.39981 0
M  V30 8753 O 215.199 -1.19723 -3.49038 0
M  V30 8754 N 215.239 0.869151 -2.14025 0
M  V30 8755 C 215.339 2.01207 -2.14363 0
M  V30 8756 N 215.289 2.58978 -0.954287 0
M  V30 8757 C 215.489 2.80817 -3.32215 0
M  V30 8758 C 215.539 2.13785 -4.50884 0
M  V30 8759 H 218.279 1.93401 -8.46693 0
M  V30 8760 H 218.549 1.68181 -6.71046 0
M  V30 8761 H 217.682 -0.289076 -8.15488 0
M  V30 8762 H 215.027 -0.927166 -5.72947 0
M  V30 8763 H 214.747 1.87 -6.82132 0
M  V30 8764 H 213.756 0.404009 -7.13457 0
M  V30 8765 H 215.59 1.20599 -8.97534 0
M  V30 8766 H 215.662 2.70295 -5.43162 0
M  V30 8767 H 215.56 3.89465 -3.27406 0
M  V30 8768 H 215.172 2.01616 -0.107046 0
M  V30 8769 H 215.368 3.61403 -0.873101 0
M  V30 8770 P 213.719 -1.17771 -8.83182 0
M  V30 8771 O 213.499 -2.07206 -9.98732 0
M  V30 8772 O 212.929 0.0743816 -8.81969 0
M  V30 8773 O 213.469 -1.97652 -7.47304 0
M  V30 8774 C 214.409 -3.01133 -7.08783 0
M  V30 8775 C 213.679 -4.12613 -6.37049 0
M  V30 8776 O 213.469 -3.72827 -4.97879 0
M  V30 8777 C 212.279 -4.45085 -6.88694 0
M  V30 8778 O 211.889 -5.7877 -6.5624 0
M  V30 8779 C 211.399 -3.47817 -6.12078 0
M  V30 8780 C 212.109 -3.39414 -4.77697 0
M  V30 8781 N 212.059 -2.04615 -4.15333 0
M  V30 8782 H 214.898 -3.41248 -7.98759 0
M  V30 8783 H 215.17 -2.5837 -6.41742 0
M  V30 8784 H 214.302 -5.02657 -6.42673 0
M  V30 8785 P 210.339 -6.144 -6.45285 0
M  V30 8786 O 210.119 -7.54673 -6.86199 0
M  V30 8787 O 209.549 -5.12391 -7.179 0
M  V30 8788 O 210.089 -5.99158 -4.88404 0
M  V30 8789 C 211.029 -6.60062 -3.96313 0
M  V30 8790 C 210.299 -7.08259 -2.72856 0
M  V30 8791 O 210.089 -5.9427 -1.83651 0
M  V30 8792 C 208.899 -7.65087 -2.94749 0
M  V30 8793 O 208.509 -8.53963 -1.90717 0
M  V30 8794 C 208.019 -6.41069 -2.90698 0
M  V30 8795 C 208.729 -5.5528 -1.86931 0
M  V30 8796 N 208.679 -4.09575 -2.15696 0
M  V30 8797 C 208.529 -3.24249 -1.08435 0
M  V30 8798 O 208.439 -3.63946 0.0628747 0
M  V30 8799 N 208.489 -1.90009 -1.39973 0
M  V30 8800 C 208.579 -1.34884 -2.65614 0
M  V30 8801 O 208.529 -0.123716 -2.81728 0
M  V30 8802 C 208.729 -2.3145 -3.71736 0
M  V30 8803 C 208.839 -1.75913 -5.10438 0
M  V30 8804 C 208.779 -3.63518 -3.44754 0
M  V30 8805 H 211.52 -7.45402 -4.45526 0
M  V30 8806 H 211.789 -5.86062 -3.67208 0
M  V30 8807 H 210.922 -7.84412 -2.24479 0
M  V30 8808 H 208.267 -5.73358 -0.888409 0
M  V30 8809 H 207.988 -5.90877 -3.88583 0
M  V30 8810 H 206.996 -6.65867 -2.58821 0
M  V30 8811 H 208.83 -8.16248 -3.92006 0
M  V30 8812 H 208.901 -4.34551 -4.26383 0
M  V30 8813 H 207.871 -1.85471 -5.61775 0
M  V30 8814 H 209.608 -2.31364 -5.66257 0
M  V30 8815 H 209.12 -0.695936 -5.05229 0
M  V30 8816 H 208.384 -1.26277 -0.63625 0
M  V30 8817 P 206.959 -8.7635 -1.60911 0
M  V30 8818 O 206.739 -10.1388 -1.11561 0
M  V30 8819 O 206.169 -8.36503 -2.79617 0
M  V30 8820 O 206.709 -7.71806 -0.42951 0
M  V30 8821 C 207.649 -7.67148 0.673689 0
M  V30 8822 C 206.919 -7.33374 1.95559 0
M  V30 8823 O 206.709 -5.88721 2.00726 0
M  V30 8824 C 205.519 -7.92526 2.10483 0
M  V30 8825 O 205.129 -8.02971 3.47653 0
M  V30 8826 C 204.639 -6.89602 1.41652 0
M  V30 8827 C 205.349 -5.59201 1.75185 0
M  V30 8828 N 205.299 -4.58235 0.662552 0
M  V30 8829 H 208.138 -8.65116 0.777161 0
M  V30 8830 H 208.41 -6.90173 0.474152 0
M  V30 8831 H 207.542 -7.66548 2.79458 0
M  V30 8832 P 203.579 -8.03563 3.84925 0
M  V30 8833 O 203.359 -8.85821 5.0569 0
M  V30 8834 O 202.789 -8.41101 2.65469 0
M  V30 8835 O 203.329 -6.4965 4.18908 0
M  V30 8836 C 204.269 -5.81037 5.05421 0
M  V30 8837 C 203.539 -4.78366 5.89277 0
M  V30 8838 O 203.329 -3.58302 5.08433 0
M  V30 8839 C 202.139 -5.17448 6.36119 0
M  V30 8840 O 201.749 -4.45271 7.53232 0
M  V30 8841 C 201.259 -4.74639 5.19936 0
M  V30 8842 C 201.969 -3.49432 4.70418 0
M  V30 8843 N 201.919 -3.31776 3.22945 0
M  V30 8844 H 204.758 -6.54213 5.71376 0
M  V30 8845 H 205.03 -5.30492 4.44033 0
M  V30 8846 H 204.162 -4.55889 6.76652 0
M  V30 8847 P 200.199 -4.23843 7.83734 0
M  V30 8848 O 199.979 -4.19407 9.29784 0
M  V30 8849 O 199.409 -5.24426 7.09156 0
M  V30 8850 O 199.949 -2.7935 7.20758 0
M  V30 8851 C 200.889 -1.7299 7.50419 0
M  V30 8852 C 200.159 -0.406376 7.57911 0
M  V30 8853 O 199.949 0.0897726 6.21935 0
M  V30 8854 C 198.759 -0.447224 8.1878 0
M  V30 8855 O 198.369 0.825065 8.71101 0
M  V30 8856 C 197.879 -0.783801 6.99623 0
M  V30 8857 C 198.589 -0.0619192 5.85967 0
M  V30 8858 N 198.539 -0.790462 4.56202 0
M  V30 8859 H 201.378 -1.93423 8.4679 0
M  V30 8860 H 201.65 -1.68852 6.70877 0
M  V30 8861 H 200.782 0.289041 8.15388 0
M  V30 8862 H 198.127 0.927006 5.72848 0
M  V30 8863 H 197.847 -1.86973 6.82036 0
M  V30 8864 H 196.856 -0.403953 7.13357 0
M  V30 8865 H 198.69 -1.20599 8.97534 0
M  V30 8866 P 196.819 1.17771 8.83182 0
M  V30 8867 O 196.599 2.07206 9.98732 0
M  V30 8868 O 196.029 -0.0743816 8.81969 0
M  V30 8869 O 196.569 1.97652 7.47304 0
M  V30 8870 C 197.509 3.01133 7.08783 0
M  V30 8871 C 196.779 4.12613 6.37049 0
M  V30 8872 O 196.569 3.72827 4.97879 0
M  V30 8873 C 195.379 4.45085 6.88694 0
M  V30 8874 O 194.989 5.7877 6.5624 0
M  V30 8875 C 194.499 3.47817 6.12078 0
M  V30 8876 C 195.209 3.39414 4.77697 0
M  V30 8877 N 195.159 2.04615 4.15333 0
M  V30 8878 H 197.998 3.41248 7.98759 0
M  V30 8879 H 198.27 2.5837 6.41742 0
M  V30 8880 H 197.402 5.02657 6.42673 0
M  V30 8881 P 193.439 6.144 6.45285 0
M  V30 8882 O 193.219 7.54673 6.86199 0
M  V30 8883 O 192.649 5.12391 7.179 0
M  V30 8884 O 193.189 5.99158 4.88404 0
M  V30 8885 C 194.129 6.60234 3.96415 0
M  V30 8886 C 193.399 7.08259 2.72856 0
M  V30 8887 O 193.189 5.9427 1.83651 0
M  V30 8888 C 191.999 7.64886 2.9555 0
M  V30 8889 O 191.609 8.53963 1.90717 0
M  V30 8890 C 191.119 6.4116 2.90739 0
M  V30 8891 C 191.829 5.55375 1.86963 0
M  V30 8892 N 191.779 4.09664 2.15742 0
M  V30 8893 H 194.618 7.45574 4.45629 0
M  V30 8894 H 194.89 5.86232 3.67314 0
M  V30 8895 H 194.022 7.84412 2.24479 0
M  V30 8896 P 190.059 8.7635 1.60911 0
M  V30 8897 O 189.839 10.1388 1.11561 0
M  V30 8898 O 189.269 8.36503 2.79617 0
M  V30 8899 O 189.809 7.71806 0.42951 0
M  V30 8900 C 190.749 7.66948 -0.673514 0
M  V30 8901 C 190.019 7.33374 -1.95559 0
M  V30 8902 O 189.809 5.88721 -2.00726 0
M  V30 8903 C 188.619 7.92218 -2.1125 0
M  V30 8904 O 188.229 8.02971 -3.47653 0
M  V30 8905 C 187.739 6.89504 -1.41631 0
M  V30 8906 C 188.449 5.59106 -1.75155 0
M  V30 8907 N 188.399 4.58136 -0.662409 0
M  V30 8908 C 188.249 3.26059 -1.02863 0
M  V30 8909 O 188.159 2.90743 -2.19009 0
M  V30 8910 N 188.209 2.35995 0.0155585 0
M  V30 8911 C 188.299 2.65248 1.35603 0
M  V30 8912 C 188.449 4.05747 1.64698 0
M  V30 8913 C 188.499 4.96734 0.652411 0
M  V30 8914 H 191.24 8.64917 -0.776982 0
M  V30 8915 H 191.509 6.89974 -0.474015 0
M  V30 8916 H 190.642 7.66548 -2.79458 0
M  V30 8917 H 187.987 5.16076 -2.65138 0
M  V30 8918 H 187.708 7.06433 -0.329384 0
M  V30 8919 H 186.716 6.90829 -1.81996 0
M  V30 8920 H 188.55 8.90774 -1.62639 0
M  V30 8921 H 188.621 6.02181 0.895285 0
M  V30 8922 P 186.679 8.03563 -3.84925 0
M  V30 8923 O 186.459 8.85821 -5.0569 0
M  V30 8924 O 185.889 8.41101 -2.65469 0
M  V30 8925 O 186.429 6.4965 -4.18908 0
M  V30 8926 C 187.369 5.81037 -5.05421 0
M  V30 8927 C 186.639 4.78366 -5.89277 0
M  V30 8928 O 186.429 3.58302 -5.08433 0
M  V30 8929 C 185.239 5.17448 -6.36119 0
M  V30 8930 O 184.849 4.45271 -7.53232 0
M  V30 8931 C 184.359 4.74639 -5.19936 0
M  V30 8932 C 185.069 3.49432 -4.70418 0
M  V30 8933 N 185.019 3.32099 -3.22613 0
M  V30 8934 H 187.858 6.54213 -5.71376 0
M  V30 8935 H 188.13 5.30936 -4.43503 0
M  V30 8936 H 187.262 4.55889 -6.76652 0
M  V30 8937 H 184.607 2.61715 -5.17932 0
M  V30 8938 H 184.327 5.52155 -4.41878 0
M  V30 8939 H 183.336 4.51981 -5.53374 0
M  V30 8940 H 185.17 6.25124 -6.55234 0
M  V30 8941 P 183.299 4.23843 -7.83734 0
M  V30 8942 O 183.079 4.19407 -9.29784 0
M  V30 8943 O 182.509 5.24426 -7.09156 0
M  V30 8944 O 183.049 2.7935 -7.20758 0
M  V30 8945 C 183.989 1.7299 -7.50419 0
M  V30 8946 C 183.259 0.406376 -7.57911 0
M  V30 8947 O 183.049 -0.0897726 -6.21935 0
M  V30 8948 C 181.859 0.447224 -8.1878 0
M  V30 8949 O 181.469 -0.825065 -8.71101 0
M  V30 8950 C 180.979 0.783801 -6.99623 0
M  V30 8951 C 181.689 0.0619192 -5.85967 0
M  V30 8952 N 181.639 0.7859 -4.56281 0
M  V30 8953 H 184.478 1.93423 -8.4679 0
M  V30 8954 H 184.75 1.68181 -6.71046 0
M  V30 8955 H 183.882 -0.289041 -8.15388 0
M  V30 8956 P 179.919 -1.17771 -8.83182 0
M  V30 8957 O 179.699 -2.07206 -9.98732 0
M  V30 8958 O 179.129 0.0743816 -8.81969 0
M  V30 8959 O 179.669 -1.97652 -7.47304 0
M  V30 8960 C 180.609 -3.01133 -7.08783 0
M  V30 8961 C 179.879 -4.12613 -6.37049 0
M  V30 8962 O 179.669 -3.72827 -4.97879 0
M  V30 8963 C 178.479 -4.45085 -6.88694 0
M  V30 8964 O 178.089 -5.7877 -6.5624 0
M  V30 8965 C 177.599 -3.47817 -6.12078 0
M  V30 8966 C 178.309 -3.39414 -4.77697 0
M  V30 8967 N 178.259 -2.04199 -4.15538 0
M  V30 8968 H 181.098 -3.41248 -7.98759 0
M  V30 8969 H 181.37 -2.57728 -6.42 0
M  V30 8970 H 180.502 -5.02657 -6.42673 0
M  V30 8971 H 177.847 -4.11708 -4.08956 0
M  V30 8972 H 177.567 -2.49626 -6.61679 0
M  V30 8973 H 176.576 -3.8662 -6.00862 0
M  V30 8974 H 178.41 -4.29991 -7.97006 0
M  V30 8975 P 176.539 -6.144 -6.45285 0
M  V30 8976 O 176.319 -7.54673 -6.86199 0
M  V30 8977 O 175.749 -5.12391 -7.179 0
M  V30 8978 O 176.289 -5.99158 -4.88404 0
M  V30 8979 C 177.229 -6.60234 -3.96415 0
M  V30 8980 C 176.499 -7.08259 -2.72856 0
M  V30 8981 O 176.289 -5.9427 -1.83651 0
M  V30 8982 C 175.099 -7.64886 -2.9555 0
M  V30 8983 O 174.709 -8.53963 -1.90717 0
M  V30 8984 C 174.219 -6.4116 -2.90739 0
M  V30 8985 C 174.929 -5.55375 -1.86963 0
M  V30 8986 N 174.879 -4.09664 -2.15742 0
M  V30 8987 H 177.718 -7.45574 -4.45629 0
M  V30 8988 H 177.99 -5.86232 -3.67314 0
M  V30 8989 H 177.122 -7.84412 -2.24479 0
M  V30 8990 P 173.159 -8.7635 -1.60911 0
M  V30 8991 O 172.939 -10.1388 -1.11561 0
M  V30 8992 O 172.369 -8.36503 -2.79617 0
M  V30 8993 O 172.909 -7.71806 -0.42951 0
M  V30 8994 C 173.849 -7.67148 0.673689 0
M  V30 8995 C 173.119 -7.33374 1.95559 0
M  V30 8996 O 172.909 -5.88721 2.00726 0
M  V30 8997 C 171.719 -7.92526 2.10483 0
M  V30 8998 O 171.329 -8.02971 3.47653 0
M  V30 8999 C 170.839 -6.89602 1.41652 0
M  V30 9000 C 171.549 -5.59201 1.75185 0
M  V30 9001 N 171.499 -4.58235 0.662552 0
M  V30 9002 C 171.579 -4.7683 -0.704049 0
M  V30 9003 N 171.499 -3.66233 -1.39775 0
M  V30 9004 C 171.359 -2.66526 -0.431739 0
M  V30 9005 C 171.229 -1.26394 -0.575992 0
M  V30 9006 N 171.109 -0.62859 0.67177 0
M  V30 9007 C 171.109 -1.27134 1.89385 0
M  V30 9008 N 170.979 -0.492035 2.96951 0
M  V30 9009 N 171.239 -2.58978 2.02907 0
M  V30 9010 C 171.359 -3.22433 0.832218 0
M  V30 9011 H 174.338 -8.65116 0.777161 0
M  V30 9012 H 174.61 -6.90173 0.474152 0
M  V30 9013 H 173.742 -7.66548 2.79458 0
M  V30 9014 P 169.779 -8.03563 3.84925 0
M  V30 9015 O 169.559 -8.85821 5.0569 0
M  V30 9016 O 168.989 -8.41101 2.65469 0
M  V30 9017 O 169.529 -6.4965 4.18908 0
M  V30 9018 C 170.469 -5.81037 5.05421 0
M  V30 9019 C 169.739 -4.78366 5.89277 0
M  V30 9020 O 169.529 -3.58302 5.08433 0
M  V30 9021 C 168.339 -5.17448 6.36119 0
M  V30 9022 O 167.949 -4.45271 7.53232 0
M  V30 9023 C 167.459 -4.74639 5.19936 0
M  V30 9024 C 168.169 -3.49432 4.70418 0
M  V30 9025 N 168.119 -3.31776 3.22945 0
M  V30 9026 H 170.958 -6.54213 5.71376 0
M  V30 9027 H 171.23 -5.30492 4.44033 0
M  V30 9028 H 170.362 -4.55889 6.76652 0
M  V30 9029 P 166.399 -4.23843 7.83734 0
M  V30 9030 O 166.179 -4.19407 9.29784 0
M  V30 9031 O 165.609 -5.24426 7.09156 0
M  V30 9032 O 166.149 -2.7935 7.20758 0
M  V30 9033 C 167.089 -1.7299 7.50419 0
M  V30 9034 C 166.359 -0.406376 7.57911 0
M  V30 9035 O 166.149 0.0897726 6.21935 0
M  V30 9036 C 164.959 -0.447224 8.1878 0
M  V30 9037 O 164.569 0.825065 8.71101 0
M  V30 9038 C 164.079 -0.783801 6.99623 0
M  V30 9039 C 164.789 -0.0619192 5.85967 0
M  V30 9040 N 164.739 -0.7859 4.56281 0
M  V30 9041 H 167.578 -1.93423 8.4679 0
M  V30 9042 H 167.85 -1.68181 6.71046 0
M  V30 9043 H 166.982 0.289041 8.15388 0
M  V30 9044 P 163.019 1.17771 8.83182 0
M  V30 9045 O 162.799 2.07206 9.98732 0
M  V30 9046 O 162.229 -0.0743816 8.81969 0
M  V30 9047 O 162.769 1.97652 7.47304 0
M  V30 9048 C 163.709 3.01133 7.08783 0
M  V30 9049 C 162.979 4.12613 6.37049 0
M  V30 9050 O 162.769 3.72827 4.97879 0
M  V30 9051 C 161.579 4.45085 6.88694 0
M  V30 9052 O 161.189 5.7877 6.5624 0
M  V30 9053 C 160.699 3.47817 6.12078 0
M  V30 9054 C 161.409 3.39414 4.77697 0
M  V30 9055 N 161.359 2.04615 4.15333 0
M  V30 9056 H 164.198 3.41248 7.98759 0
M  V30 9057 H 164.47 2.5837 6.41742 0
M  V30 9058 H 163.602 5.02657 6.42673 0
M  V30 9059 P 159.639 6.144 6.45285 0
M  V30 9060 O 159.419 7.54673 6.86199 0
M  V30 9061 O 158.849 5.12391 7.179 0
M  V30 9062 O 159.389 5.99158 4.88404 0
M  V30 9063 C 160.329 6.60234 3.96415 0
M  V30 9064 C 159.599 7.08259 2.72856 0
M  V30 9065 O 159.389 5.9427 1.83651 0
M  V30 9066 C 158.199 7.64886 2.9555 0
M  V30 9067 O 157.809 8.53963 1.90717 0
M  V30 9068 C 157.319 6.4116 2.90739 0
M  V30 9069 C 158.029 5.55375 1.86963 0
M  V30 9070 N 157.979 4.09664 2.15742 0
M  V30 9071 H 160.818 7.45574 4.45629 0
M  V30 9072 H 161.09 5.86232 3.67314 0
M  V30 9073 H 160.222 7.84412 2.24479 0
M  V30 9074 P 156.259 8.7635 1.60911 0
M  V30 9075 O 156.039 10.1388 1.11561 0
M  V30 9076 O 155.469 8.36503 2.79617 0
M  V30 9077 O 156.009 7.71806 0.42951 0
M  V30 9078 C 156.949 7.67148 -0.673689 0
M  V30 9079 C 156.219 7.33374 -1.95559 0
M  V30 9080 O 156.009 5.88721 -2.00726 0
M  V30 9081 C 154.819 7.92526 -2.10483 0
M  V30 9082 O 154.429 8.02971 -3.47653 0
M  V30 9083 C 153.939 6.89602 -1.41652 0
M  V30 9084 C 154.649 5.59201 -1.75185 0
M  V30 9085 N 154.599 4.58235 -0.662552 0
M  V30 9086 H 157.438 8.65116 -0.777161 0
M  V30 9087 H 157.71 6.90173 -0.474152 0
M  V30 9088 H 156.842 7.66548 -2.79458 0
M  V30 9089 P 152.879 8.03563 -3.84925 0
M  V30 9090 O 152.659 8.85821 -5.0569 0
M  V30 9091 O 152.089 8.41101 -2.65469 0
M  V30 9092 O 152.629 6.49734 -4.18962 0
M  V30 9093 C 153.569 5.81037 -5.05421 0
M  V30 9094 C 152.839 4.79018 -5.88876 0
M  V30 9095 O 152.629 3.58359 -5.08515 0
M  V30 9096 C 151.439 5.17448 -6.36119 0
M  V30 9097 O 151.049 4.45322 -7.53318 0
M  V30 9098 C 150.559 4.74639 -5.19936 0
M  V30 9099 C 151.269 3.49432 -4.70418 0
M  V30 9100 N 151.219 3.31776 -3.22945 0
M  V30 9101 C 151.069 2.02742 -2.72939 0
M  V30 9102 O 150.979 1.08301 -3.52749 0
M  V30 9103 N 151.019 1.96117 -1.22063 0
M  V30 9104 C 151.119 2.8878 -0.551566 0
M  V30 9105 N 151.069 2.65609 0.750198 0
M  V30 9106 C 151.269 4.22457 -1.03707 0
M  V30 9107 C 151.319 4.37979 -2.39113 0
M  V30 9108 H 154.059 6.54138 -5.7131 0
M  V30 9109 H 154.329 5.30492 -4.44033 0
M  V30 9110 H 153.462 4.55945 -6.76735 0
M  V30 9111 H 150.807 2.6176 -5.18021 0
M  V30 9112 H 150.527 5.52233 -4.41941 0
M  V30 9113 H 149.536 4.52045 -5.53452 0
M  V30 9114 H 151.37 6.25124 -6.55234 0
M  V30 9115 H 151.442 5.37936 -2.80552 0
M  V30 9116 H 151.34 5.07528 -0.359553 0
M  V30 9117 H 150.952 1.69403 1.09847 0
M  V30 9118 H 151.148 3.43701 1.41792 0
M  V30 9119 P 149.499 4.23843 -7.83734 0
M  V30 9120 O 149.279 4.19407 -9.29784 0
M  V30 9121 O 148.709 5.24426 -7.09156 0
M  V30 9122 O 149.249 2.7935 -7.20758 0
M  V30 9123 C 150.189 1.7299 -7.50419 0
M  V30 9124 C 149.459 0.406376 -7.57911 0
M  V30 9125 O 149.249 -0.0897726 -6.21935 0
M  V30 9126 C 148.059 0.447224 -8.1878 0
M  V30 9127 O 147.669 -0.825065 -8.71101 0
M  V30 9128 C 147.179 0.783801 -6.99623 0
M  V30 9129 C 147.889 0.0619192 -5.85967 0
M  V30 9130 N 147.839 0.790462 -4.56202 0
M  V30 9131 C 147.919 2.13895 -4.34171 0
M  V30 9132 N 147.849 2.46449 -3.08687 0
M  V30 9133 C 147.699 1.2525 -2.43697 0
M  V30 9134 C 147.569 0.914535 -1.07318 0
M  V30 9135 N 147.559 1.80782 -0.0887348 0
M  V30 9136 N 147.449 -0.386745 -0.768133 0
M  V30 9137 C 147.459 -1.28096 -1.75159 0
M  V30 9138 N 147.579 -1.09708 -3.04861 0
M  V30 9139 C 147.699 0.214857 -3.32306 0
M  V30 9140 H 150.678 1.93423 -8.4679 0
M  V30 9141 H 150.95 1.68852 -6.70877 0
M  V30 9142 H 150.082 -0.289041 -8.15388 0
M  V30 9143 H 147.427 -0.927006 -5.72848 0
M  V30 9144 H 147.147 1.86973 -6.82036 0
M  V30 9145 H 146.156 0.403953 -7.13357 0
M  V30 9146 H 147.99 1.20599 -8.97534 0
M  V30 9147 H 148.031 2.86846 -5.14318 0
M  V30 9148 H 147.65 2.81082 -0.302037 0
M  V30 9149 H 147.461 1.49688 0.889064 0
M  V30 9150 H 147.353 -2.31317 -1.43855 0
M  V30 9151 P 146.119 -1.17771 -8.83182 0
M  V30 9152 O 145.899 -2.07206 -9.98732 0
M  V30 9153 O 145.329 0.0743816 -8.81969 0
M  V30 9154 O 145.869 -1.97652 -7.47304 0
M  V30 9155 C 146.809 -3.01133 -7.08783 0
M  V30 9156 C 146.079 -4.12613 -6.37049 0
M  V30 9157 O 145.869 -3.72827 -4.97879 0
M  V30 9158 C 144.679 -4.45085 -6.88694 0
M  V30 9159 O 144.289 -5.7877 -6.5624 0
M  V30 9160 C 143.799 -3.47817 -6.12078 0
M  V30 9161 C 144.509 -3.39414 -4.77697 0
M  V30 9162 N 144.459 -2.04615 -4.15333 0
M  V30 9163 H 147.298 -3.41248 -7.98759 0
M  V30 9164 H 147.57 -2.5837 -6.41742 0
M  V30 9165 H 146.702 -5.02657 -6.42673 0
M  V30 9166 P 142.739 -6.144 -6.45285 0
M  V30 9167 O 142.519 -7.54673 -6.86199 0
M  V30 9168 O 141.949 -5.12391 -7.179 0
M  V30 9169 O 142.489 -5.99158 -4.88404 0
M  V30 9170 C 143.429 -6.60062 -3.96313 0
M  V30 9171 C 142.699 -7.08259 -2.72856 0
M  V30 9172 O 142.489 -5.9427 -1.83651 0
M  V30 9173 C 141.299 -7.65087 -2.94749 0
M  V30 9174 O 140.909 -8.53963 -1.90717 0
M  V30 9175 C 140.419 -6.41069 -2.90698 0
M  V30 9176 C 141.129 -5.5528 -1.86931 0
M  V30 9177 N 141.079 -4.09575 -2.15696 0
M  V30 9178 C 140.929 -3.24249 -1.08435 0
M  V30 9179 O 140.839 -3.63946 0.0628747 0
M  V30 9180 N 140.889 -1.90009 -1.39973 0
M  V30 9181 C 140.979 -1.34884 -2.65614 0
M  V30 9182 C 141.129 -2.3145 -3.71736 0
M  V30 9183 C 141.179 -3.63518 -3.44754 0
M  V30 9184 H 143.92 -7.45402 -4.45526 0
M  V30 9185 H 144.189 -5.86062 -3.67208 0
M  V30 9186 H 143.322 -7.84412 -2.24479 0
M  V30 9187 H 140.667 -5.73358 -0.888409 0
M  V30 9188 H 140.388 -5.90877 -3.88583 0
M  V30 9189 H 139.396 -6.65867 -2.58821 0
M  V30 9190 H 141.23 -8.16248 -3.92006 0
M  V30 9191 H 141.301 -4.34551 -4.26383 0
M  V30 9192 P 139.359 -8.7635 -1.60911 0
M  V30 9193 O 139.139 -10.1388 -1.11561 0
M  V30 9194 O 138.569 -8.36503 -2.79617 0
M  V30 9195 O 139.109 -7.71806 -0.42951 0
M  V30 9196 C 140.049 -7.66948 0.673514 0
M  V30 9197 C 139.319 -7.33374 1.95559 0
M  V30 9198 O 139.109 -5.88721 2.00726 0
M  V30 9199 C 137.919 -7.92218 2.1125 0
M  V30 9200 O 137.529 -8.02971 3.47653 0
M  V30 9201 C 137.039 -6.89504 1.41631 0
M  V30 9202 C 137.749 -5.59106 1.75155 0
M  V30 9203 N 137.699 -4.58136 0.662409 0
M  V30 9204 C 137.549 -3.26059 1.02863 0
M  V30 9205 O 137.459 -2.90743 2.19009 0
M  V30 9206 N 137.509 -2.35995 -0.0155585 0
M  V30 9207 C 137.599 -2.65248 -1.35603 0
M  V30 9208 C 137.749 -4.05747 -1.64698 0
M  V30 9209 C 137.799 -4.96734 -0.652411 0
M  V30 9210 H 140.54 -8.64917 0.776982 0
M  V30 9211 H 140.809 -6.89974 0.474015 0
M  V30 9212 H 139.942 -7.66548 2.79458 0
M  V30 9213 H 137.287 -5.16076 2.65138 0
M  V30 9214 H 137.008 -7.06433 0.329384 0
M  V30 9215 H 136.016 -6.90829 1.81996 0
M  V30 9216 H 137.85 -8.90774 1.62639 0
M  V30 9217 H 137.921 -6.02181 -0.895285 0
M  V30 9218 P 135.979 -8.03563 3.84925 0
M  V30 9219 O 135.759 -8.85821 5.0569 0
M  V30 9220 O 135.189 -8.41101 2.65469 0
M  V30 9221 O 135.729 -6.4965 4.18908 0
M  V30 9222 C 136.669 -5.81037 5.05421 0
M  V30 9223 C 135.939 -4.78366 5.89277 0
M  V30 9224 O 135.729 -3.58302 5.08433 0
M  V30 9225 C 134.539 -5.17448 6.36119 0
M  V30 9226 O 134.149 -4.45271 7.53232 0
M  V30 9227 C 133.659 -4.74639 5.19936 0
M  V30 9228 C 134.369 -3.49432 4.70418 0
M  V30 9229 N 134.319 -3.31776 3.22945 0
M  V30 9230 H 137.158 -6.54213 5.71376 0
M  V30 9231 H 137.43 -5.30492 4.44033 0
M  V30 9232 H 136.562 -4.55889 6.76652 0
M  V30 9233 P 132.599 -4.23843 7.83734 0
M  V30 9234 O 132.379 -4.19407 9.29784 0
M  V30 9235 O 131.809 -5.24426 7.09156 0
M  V30 9236 O 132.349 -2.7935 7.20758 0
M  V30 9237 C 133.289 -1.7299 7.50419 0
M  V30 9238 C 132.559 -0.406376 7.57911 0
M  V30 9239 O 132.349 0.0897726 6.21935 0
M  V30 9240 C 131.159 -0.447224 8.1878 0
M  V30 9241 O 130.769 0.825065 8.71101 0
M  V30 9242 C 130.279 -0.783801 6.99623 0
M  V30 9243 C 130.989 -0.0619192 5.85967 0
M  V30 9244 N 130.939 -0.7859 4.56281 0
M  V30 9245 H 133.778 -1.93423 8.4679 0
M  V30 9246 H 134.05 -1.68181 6.71046 0
M  V30 9247 H 133.182 0.289041 8.15388 0
M  V30 9248 P 129.219 1.17771 8.83182 0
M  V30 9249 O 128.999 2.07206 9.98732 0
M  V30 9250 O 128.429 -0.0743816 8.81969 0
M  V30 9251 O 128.969 1.97652 7.47304 0
M  V30 9252 C 129.909 3.01133 7.08783 0
M  V30 9253 C 129.179 4.12613 6.37049 0
M  V30 9254 O 128.969 3.72827 4.97879 0
M  V30 9255 C 127.779 4.45085 6.88694 0
M  V30 9256 O 127.389 5.7877 6.5624 0
M  V30 9257 C 126.899 3.47817 6.12078 0
M  V30 9258 C 127.609 3.39414 4.77697 0
M  V30 9259 N 127.559 2.04615 4.15333 0
M  V30 9260 H 130.398 3.41248 7.98759 0
M  V30 9261 H 130.67 2.5837 6.41742 0
M  V30 9262 H 129.802 5.02657 6.42673 0
M  V30 9263 P 125.839 6.144 6.45285 0
M  V30 9264 O 125.619 7.54673 6.86199 0
M  V30 9265 O 125.049 5.12391 7.179 0
M  V30 9266 O 125.589 5.99158 4.88404 0
M  V30 9267 C 126.529 6.60234 3.96415 0
M  V30 9268 C 125.799 7.08259 2.72856 0
M  V30 9269 O 125.589 5.9427 1.83651 0
M  V30 9270 C 124.399 7.64886 2.9555 0
M  V30 9271 O 124.009 8.53963 1.90717 0
M  V30 9272 C 123.519 6.4116 2.90739 0
M  V30 9273 C 124.229 5.55375 1.86963 0
M  V30 9274 N 124.179 4.09664 2.15742 0
M  V30 9275 H 127.018 7.45574 4.45629 0
M  V30 9276 H 127.29 5.86232 3.67314 0
M  V30 9277 H 126.422 7.84412 2.24479 0
M  V30 9278 P 122.459 8.7635 1.60911 0
M  V30 9279 O 122.239 10.1388 1.11561 0
M  V30 9280 O 121.669 8.36503 2.79617 0
M  V30 9281 O 122.209 7.71806 0.42951 0
M  V30 9282 C 123.149 7.67148 -0.673689 0
M  V30 9283 C 122.419 7.33374 -1.95559 0
M  V30 9284 O 122.209 5.88721 -2.00726 0
M  V30 9285 C 121.019 7.92526 -2.10483 0
M  V30 9286 O 120.629 8.02971 -3.47653 0
M  V30 9287 C 120.139 6.89602 -1.41652 0
M  V30 9288 C 120.849 5.59201 -1.75185 0
M  V30 9289 N 120.799 4.58235 -0.662552 0
M  V30 9290 H 123.638 8.65116 -0.777161 0
M  V30 9291 H 123.91 6.90173 -0.474152 0
M  V30 9292 H 123.042 7.66548 -2.79458 0
M  V30 9293 P 119.079 8.03563 -3.84925 0
M  V30 9294 O 118.859 8.85821 -5.0569 0
M  V30 9295 O 118.289 8.41101 -2.65469 0
M  V30 9296 O 118.829 6.4965 -4.18908 0
M  V30 9297 C 119.769 5.80886 -5.05289 0
M  V30 9298 C 119.039 4.78366 -5.89277 0
M  V30 9299 O 118.829 3.58302 -5.08433 0
M  V30 9300 C 117.639 5.16748 -6.36559 0
M  V30 9301 O 117.249 4.45271 -7.53232 0
M  V30 9302 C 116.759 4.74572 -5.19863 0
M  V30 9303 C 117.469 3.49373 -4.70338 0
M  V30 9304 N 117.419 3.31704 -3.22876 0
M  V30 9305 C 117.269 2.03326 -2.74871 0
M  V30 9306 O 117.179 1.06486 -3.48076 0
M  V30 9307 N 117.229 1.91838 -1.37456 0
M  V30 9308 C 117.319 2.94295 -0.462035 0
M  V30 9309 O 117.269 2.71763 0.752928 0
M  V30 9310 C 117.469 4.25064 -1.05249 0
M  V30 9311 C 117.579 5.39815 -0.095697 0
M  V30 9312 C 117.519 4.40214 -2.39192 0
M  V30 9313 H 120.26 6.54063 -5.71245 0
M  V30 9314 H 120.529 5.30339 -4.43905 0
M  V30 9315 H 119.662 4.55889 -6.76652 0
M  V30 9316 H 117.007 2.6167 -5.17842 0
M  V30 9317 H 116.728 5.52155 -4.41878 0
M  V30 9318 H 115.736 4.51918 -5.53297 0
M  V30 9319 H 117.57 6.25055 -6.55162 0
M  V30 9320 H 117.641 5.39798 -2.81523 0
M  V30 9321 H 116.611 5.91593 -0.0279582 0
M  V30 9322 H 118.348 6.10038 -0.450573 0
M  V30 9323 H 117.86 5.02007 0.89937 0
M  V30 9324 H 117.124 0.995326 -1.00435 0
M  V30 9325 P 115.699 4.23843 -7.83734 0
M  V30 9326 O 115.479 4.19407 -9.29784 0
M  V30 9327 O 114.909 5.24426 -7.09156 0
M  V30 9328 O 115.449 2.79386 -7.20852 0
M  V30 9329 C 116.389 1.7299 -7.50419 0
M  V30 9330 C 115.659 0.41401 -7.5797 0
M  V30 9331 O 115.449 -0.089787 -6.22035 0
M  V30 9332 C 114.259 0.447224 -8.1878 0
M  V30 9333 O 113.869 -0.825159 -8.71201 0
M  V30 9334 C 113.379 0.783801 -6.99623 0
M  V30 9335 C 114.089 0.0619192 -5.85967 0
M  V30 9336 N 114.039 0.7859 -4.56281 0
M  V30 9337 C 113.889 0.0359258 -3.39981 0
M  V30 9338 O 113.799 -1.19723 -3.49038 0
M  V30 9339 N 113.839 0.869151 -2.14025 0
M  V30 9340 C 113.939 2.01207 -2.14363 0
M  V30 9341 N 113.889 2.58978 -0.954287 0
M  V30 9342 C 114.089 2.80817 -3.32215 0
M  V30 9343 C 114.139 2.13785 -4.50884 0
M  V30 9344 H 116.879 1.93401 -8.46693 0
M  V30 9345 H 117.149 1.68181 -6.71046 0
M  V30 9346 H 116.282 -0.289076 -8.15488 0
M  V30 9347 H 113.627 -0.927166 -5.72947 0
M  V30 9348 H 113.347 1.87 -6.82132 0
M  V30 9349 H 112.356 0.404009 -7.13457 0
M  V30 9350 H 114.19 1.20599 -8.97534 0
M  V30 9351 H 114.262 2.70295 -5.43162 0
M  V30 9352 H 114.16 3.89465 -3.27406 0
M  V30 9353 H 113.772 2.01616 -0.107046 0
M  V30 9354 H 113.968 3.61403 -0.873101 0
M  V30 9355 P 112.319 -1.17771 -8.83182 0
M  V30 9356 O 112.099 -2.07206 -9.98732 0
M  V30 9357 O 111.529 0.0743816 -8.81969 0
M  V30 9358 O 112.069 -1.97652 -7.47304 0
M  V30 9359 C 113.009 -3.01133 -7.08783 0
M  V30 9360 C 112.279 -4.12613 -6.37049 0
M  V30 9361 O 112.069 -3.72827 -4.97879 0
M  V30 9362 C 110.879 -4.45085 -6.88694 0
M  V30 9363 O 110.489 -5.7877 -6.5624 0
M  V30 9364 C 109.999 -3.47817 -6.12078 0
M  V30 9365 C 110.709 -3.39414 -4.77697 0
M  V30 9366 N 110.659 -2.04615 -4.15333 0
M  V30 9367 H 113.498 -3.41248 -7.98759 0
M  V30 9368 H 113.77 -2.5837 -6.41742 0
M  V30 9369 H 112.902 -5.02657 -6.42673 0
M  V30 9370 P 108.939 -6.144 -6.45285 0
M  V30 9371 O 108.719 -7.54673 -6.86199 0
M  V30 9372 O 108.149 -5.12391 -7.179 0
M  V30 9373 O 108.689 -5.99158 -4.88404 0
M  V30 9374 C 109.629 -6.60234 -3.96415 0
M  V30 9375 C 108.899 -7.08259 -2.72856 0
M  V30 9376 O 108.689 -5.9427 -1.83651 0
M  V30 9377 C 107.499 -7.64886 -2.9555 0
M  V30 9378 O 107.109 -8.53963 -1.90717 0
M  V30 9379 C 106.619 -6.4116 -2.90739 0
M  V30 9380 C 107.329 -5.55375 -1.86963 0
M  V30 9381 N 107.279 -4.09664 -2.15742 0
M  V30 9382 H 110.118 -7.45574 -4.45629 0
M  V30 9383 H 110.39 -5.86232 -3.67314 0
M  V30 9384 H 109.522 -7.84412 -2.24479 0
M  V30 9385 P 105.559 -8.7635 -1.60911 0
M  V30 9386 O 105.339 -10.1388 -1.11561 0
M  V30 9387 O 104.769 -8.36503 -2.79617 0
M  V30 9388 O 105.309 -7.71806 -0.42951 0
M  V30 9389 C 106.249 -7.67148 0.673689 0
M  V30 9390 C 105.519 -7.33374 1.95559 0
M  V30 9391 O 105.309 -5.88721 2.00726 0
M  V30 9392 C 104.119 -7.92526 2.10483 0
M  V30 9393 O 103.729 -8.02971 3.47653 0
M  V30 9394 C 103.239 -6.89602 1.41652 0
M  V30 9395 C 103.949 -5.59201 1.75185 0
M  V30 9396 N 103.899 -4.58235 0.662552 0
M  V30 9397 H 106.738 -8.65116 0.777161 0
M  V30 9398 H 107.01 -6.90173 0.474152 0
M  V30 9399 H 106.142 -7.66548 2.79458 0
M  V30 9400 P 102.179 -8.03563 3.84925 0
M  V30 9401 O 101.959 -8.85821 5.0569 0
M  V30 9402 O 101.389 -8.41101 2.65469 0
M  V30 9403 O 101.929 -6.4965 4.18908 0
M  V30 9404 C 102.869 -5.81037 5.05421 0
M  V30 9405 C 102.139 -4.78366 5.89277 0
M  V30 9406 O 101.929 -3.58302 5.08433 0
M  V30 9407 C 100.739 -5.17448 6.36119 0
M  V30 9408 O 100.349 -4.45271 7.53232 0
M  V30 9409 C 99.8594 -4.74639 5.19936 0
M  V30 9410 C 100.569 -3.49432 4.70418 0
M  V30 9411 N 100.519 -3.31776 3.22945 0
M  V30 9412 H 103.358 -6.54213 5.71376 0
M  V30 9413 H 103.63 -5.30492 4.44033 0
M  V30 9414 H 102.762 -4.55889 6.76652 0
M  V30 9415 P 98.7994 -4.23843 7.83734 0
M  V30 9416 O 98.5794 -4.19407 9.29784 0
M  V30 9417 O 98.0094 -5.24426 7.09156 0
M  V30 9418 O 98.5494 -2.7935 7.20758 0
M  V30 9419 C 99.4894 -1.7299 7.50419 0
M  V30 9420 C 98.7594 -0.406376 7.57911 0
M  V30 9421 O 98.5494 0.0897726 6.21935 0
M  V30 9422 C 97.3594 -0.447224 8.1878 0
M  V30 9423 O 96.9694 0.825065 8.71101 0
M  V30 9424 C 96.4794 -0.783801 6.99623 0
M  V30 9425 C 97.1894 -0.0619192 5.85967 0
M  V30 9426 N 97.1394 -0.790462 4.56202 0
M  V30 9427 H 99.9784 -1.93423 8.4679 0
M  V30 9428 H 100.25 -1.68852 6.70877 0
M  V30 9429 H 99.3824 0.289041 8.15388 0
M  V30 9430 H 96.7274 0.927006 5.72848 0
M  V30 9431 H 96.4474 -1.86973 6.82036 0
M  V30 9432 H 95.4564 -0.403953 7.13357 0
M  V30 9433 H 97.2904 -1.20599 8.97534 0
M  V30 9434 P 95.4195 1.17771 8.83182 0
M  V30 9435 O 95.1995 2.07206 9.98732 0
M  V30 9436 O 94.6295 -0.0743816 8.81969 0
M  V30 9437 O 95.1695 1.97652 7.47304 0
M  V30 9438 C 96.1095 3.01133 7.08783 0
M  V30 9439 C 95.3795 4.12613 6.37049 0
M  V30 9440 O 95.1695 3.72827 4.97879 0
M  V30 9441 C 93.9795 4.45085 6.88694 0
M  V30 9442 O 93.5895 5.7877 6.5624 0
M  V30 9443 C 93.0995 3.47817 6.12078 0
M  V30 9444 C 93.8095 3.39414 4.77697 0
M  V30 9445 N 93.7595 2.04615 4.15333 0
M  V30 9446 H 96.5985 3.41248 7.98759 0
M  V30 9447 H 96.8705 2.5837 6.41742 0
M  V30 9448 H 96.0025 5.02657 6.42673 0
M  V30 9449 P 92.0395 6.144 6.45285 0
M  V30 9450 O 91.8195 7.54673 6.86199 0
M  V30 9451 O 91.2495 5.12391 7.179 0
M  V30 9452 O 91.7895 5.99236 4.88467 0
M  V30 9453 C 92.7295 6.60234 3.96415 0
M  V30 9454 C 91.9995 7.08079 2.736 0
M  V30 9455 O 91.7895 5.94365 1.8368 0
M  V30 9456 C 90.5995 7.64886 2.9555 0
M  V30 9457 O 90.2095 8.5406 1.90739 0
M  V30 9458 C 89.7195 6.4116 2.90739 0
M  V30 9459 C 90.4295 5.55375 1.86963 0
M  V30 9460 N 90.3795 4.09664 2.15742 0
M  V30 9461 C 90.2295 3.22231 1.08477 0
M  V30 9462 O 90.1395 3.68951 -0.0600489 0
M  V30 9463 N 90.1795 1.76692 1.48799 0
M  V30 9464 C 90.2795 1.41695 2.57602 0
M  V30 9465 N 90.2295 0.107296 2.75791 0
M  V30 9466 C 90.4295 2.29178 3.69733 0
M  V30 9467 C 90.4795 3.62753 3.42653 0
M  V30 9468 H 93.2195 7.45488 4.45578 0
M  V30 9469 H 93.4895 5.86232 3.67314 0
M  V30 9470 H 92.6225 7.84508 2.24507 0
M  V30 9471 H 89.9675 5.73556 0.888715 0
M  V30 9472 H 89.6875 5.9096 3.88638 0
M  V30 9473 H 88.6965 6.66053 2.58894 0
M  V30 9474 H 90.5305 8.16339 3.92049 0
M  V30 9475 H 90.6025 4.33052 4.24913 0
M  V30 9476 H 90.5005 1.9103 4.71577 0
M  V30 9477 H 90.1125 -0.521221 1.95056 0
M  V30 9478 H 90.3085 -0.286429 3.70695 0
M  V30 9479 P 88.6595 8.7635 1.60911 0
M  V30 9480 O 88.4395 10.1388 1.11561 0
M  V30 9481 O 87.8695 8.36503 2.79617 0
M  V30 9482 O 88.4095 7.71806 0.42951 0
M  V30 9483 C 89.3495 7.67148 -0.673689 0
M  V30 9484 C 88.6195 7.33374 -1.95559 0
M  V30 9485 O 88.4095 5.88721 -2.00726 0
M  V30 9486 C 87.2195 7.92526 -2.10483 0
M  V30 9487 O 86.8295 8.02971 -3.47653 0
M  V30 9488 C 86.3395 6.89602 -1.41652 0
M  V30 9489 C 87.0495 5.59201 -1.75185 0
M  V30 9490 N 86.9995 4.58235 -0.662552 0
M  V30 9491 H 89.8385 8.65116 -0.777161 0
M  V30 9492 H 90.1105 6.90173 -0.474152 0
M  V30 9493 H 89.2425 7.66548 -2.79458 0
M  V30 9494 P 85.2795 8.03563 -3.84925 0
M  V30 9495 O 85.0595 8.85821 -5.0569 0
M  V30 9496 O 84.4895 8.41101 -2.65469 0
M  V30 9497 O 85.0295 6.4965 -4.18908 0
M  V30 9498 C 85.9695 5.81037 -5.05421 0
M  V30 9499 C 85.2395 4.78366 -5.89277 0
M  V30 9500 O 85.0295 3.58302 -5.08433 0
M  V30 9501 C 83.8395 5.17448 -6.36119 0
M  V30 9502 O 83.4495 4.45271 -7.53232 0
M  V30 9503 C 82.9595 4.74639 -5.19936 0
M  V30 9504 C 83.6695 3.49432 -4.70418 0
M  V30 9505 N 83.6195 3.31776 -3.22945 0
M  V30 9506 C 83.6995 4.27147 -2.23315 0
M  V30 9507 N 83.6195 3.78447 -1.02186 0
M  V30 9508 C 83.4795 2.41001 -1.21732 0
M  V30 9509 C 83.3495 1.36111 -0.27694 0
M  V30 9510 N 83.2295 0.113683 -0.912949 0
M  V30 9511 C 83.2295 -0.0846396 -2.27943 0
M  V30 9512 N 83.0995 -1.34737 -2.6916 0
M  V30 9513 N 83.3595 0.902521 -3.16379 0
M  V30 9514 C 83.4795 2.11937 -2.56849 0
M  V30 9515 H 86.4585 6.54213 -5.71376 0
M  V30 9516 H 86.7305 5.30492 -4.44033 0
M  V30 9517 H 85.8625 4.55889 -6.76652 0
M  V30 9518 P 81.8995 4.23843 -7.83734 0
M  V30 9519 O 81.6795 4.19407 -9.29784 0
M  V30 9520 O 81.1095 5.24426 -7.09156 0
M  V30 9521 O 81.6495 2.7935 -7.20758 0
M  V30 9522 C 82.5895 1.7299 -7.50419 0
M  V30 9523 C 81.8595 0.406376 -7.57911 0
M  V30 9524 O 81.6495 -0.0897726 -6.21935 0
M  V30 9525 C 80.4595 0.447224 -8.1878 0
M  V30 9526 O 80.0695 -0.825065 -8.71101 0
M  V30 9527 C 79.5795 0.783801 -6.99623 0
M  V30 9528 C 80.2895 0.0619192 -5.85967 0
M  V30 9529 N 80.2395 0.7859 -4.56281 0
M  V30 9530 H 83.0785 1.93423 -8.4679 0
M  V30 9531 H 83.3505 1.68181 -6.71046 0
M  V30 9532 H 82.4825 -0.289041 -8.15388 0
M  V30 9533 P 78.5196 -1.17771 -8.83182 0
M  V30 9534 O 78.2996 -2.07206 -9.98732 0
M  V30 9535 O 77.7296 0.0743816 -8.81969 0
M  V30 9536 O 78.2696 -1.97652 -7.47304 0
M  V30 9537 C 79.2096 -3.01055 -7.08599 0
M  V30 9538 C 78.4796 -4.12613 -6.37049 0
M  V30 9539 O 78.2696 -3.72827 -4.97879 0
M  V30 9540 C 77.0796 -4.45719 -6.88164 0
M  V30 9541 O 76.6896 -5.7877 -6.5624 0
M  V30 9542 C 76.1996 -3.47768 -6.11991 0
M  V30 9543 C 76.9096 -3.39356 -4.77615 0
M  V30 9544 N 76.8596 -2.04571 -4.15244 0
M  V30 9545 C 76.7096 -1.98587 -2.78314 0
M  V30 9546 O 76.6196 -2.98134 -2.08835 0
M  V30 9547 N 76.6696 -0.714467 -2.24925 0
M  V30 9548 C 76.7596 0.470001 -2.94169 0
M  V30 9549 O 76.7096 1.55587 -2.35195 0
M  V30 9550 C 76.9096 0.312541 -4.36783 0
M  V30 9551 C 77.0196 1.57711 -5.16352 0
M  V30 9552 C 76.9596 -0.914512 -4.92583 0
M  V30 9553 H 79.7006 -3.41169 -7.98575 0
M  V30 9554 H 79.9696 -2.58295 -6.41556 0
M  V30 9555 H 79.1026 -5.02657 -6.42673 0
M  V30 9556 H 76.4476 -4.11637 -4.08885 0
M  V30 9557 H 76.1686 -2.49626 -6.61679 0
M  V30 9558 H 75.1766 -3.86566 -6.00778 0
M  V30 9559 H 77.0106 -4.29943 -7.96918 0
M  V30 9560 H 77.0816 -1.00937 -6.00374 0
M  V30 9561 H 76.0516 1.80153 -5.63503 0
M  V30 9562 H 77.7886 1.4566 -5.94104 0
M  V30 9563 H 77.3006 2.40664 -4.49645 0
M  V30 9564 H 76.5646 -0.647622 -1.25697 0
M  V30 9565 P 75.1396 -6.144 -6.45285 0
M  V30 9566 O 74.9196 -7.54673 -6.86199 0
M  V30 9567 O 74.3496 -5.12391 -7.179 0
M  V30 9568 O 74.8896 -5.99236 -4.88467 0
M  V30 9569 C 75.8296 -6.60234 -3.96415 0
M  V30 9570 C 75.0996 -7.08079 -2.736 0
M  V30 9571 O 74.8896 -5.94365 -1.8368 0
M  V30 9572 C 73.6996 -7.64886 -2.9555 0
M  V30 9573 O 73.3096 -8.5406 -1.90739 0
M  V30 9574 C 72.8196 -6.4116 -2.90739 0
M  V30 9575 C 73.5296 -5.55375 -1.86963 0
M  V30 9576 N 73.4796 -4.09664 -2.15742 0
M  V30 9577 C 73.3296 -3.22231 -1.08477 0
M  V30 9578 O 73.2396 -3.68951 0.0600489 0
M  V30 9579 N 73.2796 -1.76692 -1.48799 0
M  V30 9580 C 73.3796 -1.41695 -2.57602 0
M  V30 9581 N 73.3296 -0.107296 -2.75791 0
M  V30 9582 C 73.5296 -2.29178 -3.69733 0
M  V30 9583 C 73.5796 -3.62753 -3.42653 0
M  V30 9584 H 76.3196 -7.45488 -4.45578 0
M  V30 9585 H 76.5896 -5.86232 -3.67314 0
M  V30 9586 H 75.7226 -7.84508 -2.24507 0
M  V30 9587 H 73.0676 -5.73556 -0.888715 0
M  V30 9588 H 72.7876 -5.9096 -3.88638 0
M  V30 9589 H 71.7966 -6.66053 -2.58894 0
M  V30 9590 H 73.6306 -8.16339 -3.92049 0
M  V30 9591 H 73.7026 -4.33052 -4.24913 0
M  V30 9592 H 73.6006 -1.9103 -4.71577 0
M  V30 9593 H 73.2126 0.521221 -1.95056 0
M  V30 9594 H 73.4086 0.286429 -3.70695 0
M  V30 9595 P 71.7596 -8.7635 -1.60911 0
M  V30 9596 O 71.5396 -10.1388 -1.11561 0
M  V30 9597 O 70.9696 -8.36503 -2.79617 0
M  V30 9598 O 71.5096 -7.71806 -0.42951 0
M  V30 9599 C 72.4496 -7.67148 0.673689 0
M  V30 9600 C 71.7196 -7.33374 1.95559 0
M  V30 9601 O 71.5096 -5.88721 2.00726 0
M  V30 9602 C 70.3196 -7.92526 2.10483 0
M  V30 9603 O 69.9296 -8.02971 3.47653 0
M  V30 9604 C 69.4396 -6.89602 1.41652 0
M  V30 9605 C 70.1496 -5.59201 1.75185 0
M  V30 9606 N 70.0996 -4.58235 0.662552 0
M  V30 9607 H 72.9386 -8.65116 0.777161 0
M  V30 9608 H 73.2106 -6.90173 0.474152 0
M  V30 9609 H 72.3426 -7.66548 2.79458 0
M  V30 9610 P 68.3796 -8.03563 3.84925 0
M  V30 9611 O 68.1596 -8.85821 5.0569 0
M  V30 9612 O 67.5896 -8.41101 2.65469 0
M  V30 9613 O 68.1296 -6.4965 4.18908 0
M  V30 9614 C 69.0696 -5.81037 5.05421 0
M  V30 9615 C 68.3396 -4.78366 5.89277 0
M  V30 9616 O 68.1296 -3.58302 5.08433 0
M  V30 9617 C 66.9396 -5.17448 6.36119 0
M  V30 9618 O 66.5496 -4.45271 7.53232 0
M  V30 9619 C 66.0596 -4.74639 5.19936 0
M  V30 9620 C 66.7696 -3.49432 4.70418 0
M  V30 9621 N 66.7196 -3.31776 3.22945 0
M  V30 9622 H 69.5586 -6.54213 5.71376 0
M  V30 9623 H 69.8306 -5.30492 4.44033 0
M  V30 9624 H 68.9626 -4.55889 6.76652 0
M  V30 9625 P 64.9996 -4.23843 7.83734 0
M  V30 9626 O 64.7796 -4.19407 9.29784 0
M  V30 9627 O 64.2096 -5.24426 7.09156 0
M  V30 9628 O 64.7496 -2.7935 7.20758 0
M  V30 9629 C 65.6896 -1.7299 7.50419 0
M  V30 9630 C 64.9596 -0.406376 7.57911 0
M  V30 9631 O 64.7496 0.0897726 6.21935 0
M  V30 9632 C 63.5596 -0.447224 8.1878 0
M  V30 9633 O 63.1696 0.825065 8.71101 0
M  V30 9634 C 62.6796 -0.783801 6.99623 0
M  V30 9635 C 63.3896 -0.0619192 5.85967 0
M  V30 9636 N 63.3396 -0.7859 4.56281 0
M  V30 9637 H 66.1786 -1.93423 8.4679 0
M  V30 9638 H 66.4506 -1.68181 6.71046 0
M  V30 9639 H 65.5826 0.289041 8.15388 0
M  V30 9640 P 61.6197 1.17771 8.83182 0
M  V30 9641 O 61.3997 2.07206 9.98732 0
M  V30 9642 O 60.8297 -0.0743816 8.81969 0
M  V30 9643 O 61.3697 1.97652 7.47304 0
M  V30 9644 C 62.3097 3.01133 7.08783 0
M  V30 9645 C 61.5797 4.12613 6.37049 0
M  V30 9646 O 61.3697 3.72827 4.97879 0
M  V30 9647 C 60.1797 4.45085 6.88694 0
M  V30 9648 O 59.7897 5.7877 6.5624 0
M  V30 9649 C 59.2997 3.47817 6.12078 0
M  V30 9650 C 60.0097 3.39414 4.77697 0
M  V30 9651 N 59.9597 2.04615 4.15333 0
M  V30 9652 H 62.7987 3.41248 7.98759 0
M  V30 9653 H 63.0707 2.5837 6.41742 0
M  V30 9654 H 62.2027 5.02657 6.42673 0
M  V30 9655 P 58.2397 6.144 6.45285 0
M  V30 9656 O 58.0197 7.54673 6.86199 0
M  V30 9657 O 57.4497 5.12391 7.179 0
M  V30 9658 O 57.9897 5.99236 4.88467 0
M  V30 9659 C 58.9297 6.60234 3.96415 0
M  V30 9660 C 58.1997 7.08079 2.736 0
M  V30 9661 O 57.9897 5.94365 1.8368 0
M  V30 9662 C 56.7997 7.64886 2.9555 0
M  V30 9663 O 56.4097 8.5406 1.90739 0
M  V30 9664 C 55.9197 6.4116 2.90739 0
M  V30 9665 C 56.6297 5.55375 1.86963 0
M  V30 9666 N 56.5797 4.09664 2.15742 0
M  V30 9667 C 56.4297 3.22231 1.08477 0
M  V30 9668 O 56.3397 3.68951 -0.0600489 0
M  V30 9669 N 56.3797 1.76692 1.48799 0
M  V30 9670 C 56.4797 1.41695 2.57602 0
M  V30 9671 N 56.4297 0.107296 2.75791 0
M  V30 9672 C 56.6297 2.29178 3.69733 0
M  V30 9673 C 56.6797 3.62753 3.42653 0
M  V30 9674 H 59.4197 7.45488 4.45578 0
M  V30 9675 H 59.6897 5.86232 3.67314 0
M  V30 9676 H 58.8227 7.84508 2.24507 0
M  V30 9677 H 56.1677 5.73556 0.888715 0
M  V30 9678 H 55.8877 5.9096 3.88638 0
M  V30 9679 H 54.8967 6.66053 2.58894 0
M  V30 9680 H 56.7307 8.16339 3.92049 0
M  V30 9681 H 56.8027 4.33052 4.24913 0
M  V30 9682 H 56.7007 1.9103 4.71577 0
M  V30 9683 H 56.3127 -0.521221 1.95056 0
M  V30 9684 H 56.5087 -0.286429 3.70695 0
M  V30 9685 P 54.8597 8.7635 1.60911 0
M  V30 9686 O 54.6397 10.1388 1.11561 0
M  V30 9687 O 54.0697 8.36503 2.79617 0
M  V30 9688 O 54.6097 7.71806 0.42951 0
M  V30 9689 C 55.5497 7.67148 -0.673689 0
M  V30 9690 C 54.8197 7.33374 -1.95559 0
M  V30 9691 O 54.6097 5.88721 -2.00726 0
M  V30 9692 C 53.4197 7.92526 -2.10483 0
M  V30 9693 O 53.0297 8.02971 -3.47653 0
M  V30 9694 C 52.5397 6.89602 -1.41652 0
M  V30 9695 C 53.2497 5.59201 -1.75185 0
M  V30 9696 N 53.1997 4.58301 -0.657969 0
M  V30 9697 C 53.2797 4.79019 0.692603 0
M  V30 9698 N 53.2097 3.69736 1.38998 0
M  V30 9699 C 53.0597 2.70474 0.438135 0
M  V30 9700 C 52.9297 1.30327 0.538142 0
M  V30 9701 N 52.9197 0.64304 1.69192 0
M  V30 9702 N 52.8097 0.611027 -0.605183 0
M  V30 9703 C 52.8197 1.27002 -1.75953 0
M  V30 9704 N 52.9397 2.56038 -1.98546 0
M  V30 9705 C 53.0597 3.22681 -0.822541 0
M  V30 9706 H 56.0387 8.65116 -0.777161 0
M  V30 9707 H 56.3107 6.9022 -0.46725 0
M  V30 9708 H 55.4427 7.66548 -2.79458 0
M  V30 9709 H 52.7877 5.16165 -2.65183 0
M  V30 9710 H 52.5077 7.06433 -0.329384 0
M  V30 9711 H 51.5167 6.90926 -1.82021 0
M  V30 9712 H 53.3507 8.90873 -1.62657 0
M  V30 9713 H 53.3917 5.77785 1.13874 0
M  V30 9714 H 53.0107 1.15585 2.57991 0
M  V30 9715 H 52.8217 -0.382989 1.69835 0
M  V30 9716 H 52.7137 0.653331 -2.64449 0
M  V30 9717 P 51.4797 8.03563 -3.84925 0
M  V30 9718 O 51.2597 8.85821 -5.0569 0
M  V30 9719 O 50.6897 8.41101 -2.65469 0
M  V30 9720 O 51.2297 6.4965 -4.18908 0
M  V30 9721 C 52.1697 5.81037 -5.05421 0
M  V30 9722 C 51.4397 4.78366 -5.89277 0
M  V30 9723 O 51.2297 3.58302 -5.08433 0
M  V30 9724 C 50.0397 5.17448 -6.36119 0
M  V30 9725 O 49.6497 4.45271 -7.53232 0
M  V30 9726 C 49.1597 4.74639 -5.19936 0
M  V30 9727 C 49.8697 3.49432 -4.70418 0
M  V30 9728 N 49.8197 3.32099 -3.22613 0
M  V30 9729 C 49.8997 4.28245 -2.25527 0
M  V30 9730 N 49.8297 3.80823 -1.04874 0
M  V30 9731 C 49.6797 2.44571 -1.23535 0
M  V30 9732 C 49.5497 1.37068 -0.330675 0
M  V30 9733 N 49.5397 1.51472 0.990824 0
M  V30 9734 N 49.4297 0.138614 -0.848756 0
M  V30 9735 C 49.4397 -0.00675923 -2.16999 0
M  V30 9736 N 49.5597 0.904372 -3.11122 0
M  V30 9737 C 49.6797 2.12707 -2.56212 0
M  V30 9738 H 52.6587 6.54213 -5.71376 0
M  V30 9739 H 52.9307 5.30936 -4.43503 0
M  V30 9740 H 52.0627 4.55889 -6.76652 0
M  V30 9741 H 49.4077 2.61715 -5.17932 0
M  V30 9742 H 49.1277 5.52155 -4.41878 0
M  V30 9743 H 48.1367 4.51981 -5.53374 0
M  V30 9744 H 49.9707 6.25124 -6.55234 0
M  V30 9745 H 50.0117 5.34372 -2.47488 0
M  V30 9746 H 49.6307 2.45153 1.4078 0
M  V30 9747 H 49.4417 0.688422 1.59911 0
M  V30 9748 H 49.3337 -1.02584 -2.52346 0
M  V30 9749 P 48.0997 4.23843 -7.83734 0
M  V30 9750 O 47.8797 4.19407 -9.29784 0
M  V30 9751 O 47.3097 5.24426 -7.09156 0
M  V30 9752 O 47.8497 2.7935 -7.20758 0
M  V30 9753 C 48.7897 1.7299 -7.50419 0
M  V30 9754 C 48.0597 0.406376 -7.57911 0
M  V30 9755 O 47.8497 -0.0897726 -6.21935 0
M  V30 9756 C 46.6597 0.447224 -8.1878 0
M  V30 9757 O 46.2697 -0.825065 -8.71101 0
M  V30 9758 C 45.7797 0.783801 -6.99623 0
M  V30 9759 C 46.4897 0.0619192 -5.85967 0
M  V30 9760 N 46.4397 0.7859 -4.56281 0
M  V30 9761 H 49.2787 1.93423 -8.4679 0
M  V30 9762 H 49.5507 1.68181 -6.71046 0
M  V30 9763 H 48.6827 -0.289041 -8.15388 0
M  V30 9764 P 44.7198 -1.17771 -8.83182 0
M  V30 9765 O 44.4998 -2.07206 -9.98732 0
M  V30 9766 O 43.9298 0.0743816 -8.81969 0
M  V30 9767 O 44.4698 -1.97652 -7.47304 0
M  V30 9768 C 45.4098 -3.01133 -7.08783 0
M  V30 9769 C 44.6798 -4.12613 -6.37049 0
M  V30 9770 O 44.4698 -3.72827 -4.97879 0
M  V30 9771 C 43.2798 -4.45085 -6.88694 0
M  V30 9772 O 42.8898 -5.7877 -6.5624 0
M  V30 9773 C 42.3998 -3.47817 -6.12078 0
M  V30 9774 C 43.1098 -3.39414 -4.77697 0
M  V30 9775 N 43.0598 -2.04199 -4.15538 0
M  V30 9776 C 43.1398 -0.821545 -4.76977 0
M  V30 9777 N 43.0698 0.1794 -3.94592 0
M  V30 9778 C 42.9198 -0.419121 -2.70776 0
M  V30 9779 C 42.7898 0.109072 -1.40577 0
M  V30 9780 N 42.7798 1.4104 -1.1344 0
M  V30 9781 N 42.6698 -0.764381 -0.39411 0
M  V30 9782 C 42.6798 -2.06587 -0.664135 0
M  V30 9783 N 42.7998 -2.67948 -1.82153 0
M  V30 9784 C 42.9198 -1.77942 -2.8147 0
M  V30 9785 H 45.8988 -3.41248 -7.98759 0
M  V30 9786 H 46.1708 -2.57728 -6.42 0
M  V30 9787 H 45.3028 -5.02657 -6.42673 0
M  V30 9788 H 42.6478 -4.11708 -4.08956 0
M  V30 9789 H 42.3678 -2.49626 -6.61679 0
M  V30 9790 H 41.3768 -3.8662 -6.00862 0
M  V30 9791 H 43.2108 -4.29991 -7.97006 0
M  V30 9792 H 43.2518 -0.702451 -5.84696 0
M  V30 9793 H 42.8708 2.09647 -1.89651 0
M  V30 9794 H 42.6818 1.73358 -0.160575 0
M  V30 9795 H 42.5738 -2.71695 0.195838 0
M  V30 9796 P 41.3398 -6.144 -6.45285 0
M  V30 9797 O 41.1198 -7.54673 -6.86199 0
M  V30 9798 O 40.5498 -5.12391 -7.179 0
M  V30 9799 O 41.0898 -5.99158 -4.88404 0
M  V30 9800 C 42.0298 -6.60234 -3.96415 0
M  V30 9801 C 41.2998 -7.08259 -2.72856 0
M  V30 9802 O 41.0898 -5.9427 -1.83651 0
M  V30 9803 C 39.8998 -7.64886 -2.9555 0
M  V30 9804 O 39.5098 -8.53963 -1.90717 0
M  V30 9805 C 39.0198 -6.4116 -2.90739 0
M  V30 9806 C 39.7298 -5.55375 -1.86963 0
M  V30 9807 N 39.6798 -4.09448 -2.16152 0
M  V30 9808 H 42.5188 -7.45574 -4.45629 0
M  V30 9809 H 42.7908 -5.85864 -3.679 0
M  V30 9810 H 41.9228 -7.84412 -2.24479 0
M  V30 9811 H 39.2678 -5.73457 -0.888562 0
M  V30 9812 H 38.9878 -5.90877 -3.88583 0
M  V30 9813 H 37.9968 -6.6596 -2.58858 0
M  V30 9814 H 39.8308 -8.16339 -3.92049 0
M  V30 9815 P 37.9598 -8.7635 -1.60911 0
M  V30 9816 O 37.7398 -10.1388 -1.11561 0
M  V30 9817 O 37.1698 -8.36503 -2.79617 0
M  V30 9818 O 37.7098 -7.71806 -0.42951 0
M  V30 9819 C 38.6498 -7.67148 0.673689 0
M  V30 9820 C 37.9198 -7.33374 1.95559 0
M  V30 9821 O 37.7098 -5.88721 2.00726 0
M  V30 9822 C 36.5198 -7.92526 2.10483 0
M  V30 9823 O 36.1298 -8.02971 3.47653 0
M  V30 9824 C 35.6398 -6.89602 1.41652 0
M  V30 9825 C 36.3498 -5.59201 1.75185 0
M  V30 9826 N 36.2998 -4.58235 0.662552 0
M  V30 9827 H 39.1388 -8.65116 0.777161 0
M  V30 9828 H 39.4108 -6.90173 0.474152 0
M  V30 9829 H 38.5428 -7.66548 2.79458 0
M  V30 9830 P 34.5798 -8.03563 3.84925 0
M  V30 9831 O 34.3598 -8.85821 5.0569 0
M  V30 9832 O 33.7898 -8.41101 2.65469 0
M  V30 9833 O 34.3298 -6.4965 4.18908 0
M  V30 9834 C 35.2698 -5.81037 5.05421 0
M  V30 9835 C 34.5398 -4.78366 5.89277 0
M  V30 9836 O 34.3298 -3.58302 5.08433 0
M  V30 9837 C 33.1398 -5.17448 6.36119 0
M  V30 9838 O 32.7498 -4.45271 7.53232 0
M  V30 9839 C 32.2598 -4.74639 5.19936 0
M  V30 9840 C 32.9698 -3.49432 4.70418 0
M  V30 9841 N 32.9198 -3.31776 3.22945 0
M  V30 9842 H 35.7588 -6.54213 5.71376 0
M  V30 9843 H 36.0308 -5.30492 4.44033 0
M  V30 9844 H 35.1628 -4.55889 6.76652 0
M  V30 9845 P 31.1998 -4.23843 7.83734 0
M  V30 9846 O 30.9798 -4.19407 9.29784 0
M  V30 9847 O 30.4098 -5.24426 7.09156 0
M  V30 9848 O 30.9498 -2.7935 7.20758 0
M  V30 9849 C 31.8898 -1.7299 7.50419 0
M  V30 9850 C 31.1598 -0.406376 7.57911 0
M  V30 9851 O 30.9498 0.0897726 6.21935 0
M  V30 9852 C 29.7598 -0.447224 8.1878 0
M  V30 9853 O 29.3698 0.825065 8.71101 0
M  V30 9854 C 28.8798 -0.783801 6.99623 0
M  V30 9855 C 29.5898 -0.0619192 5.85967 0
M  V30 9856 N 29.5398 -0.7859 4.56281 0
M  V30 9857 H 32.3788 -1.93423 8.4679 0
M  V30 9858 H 32.6508 -1.68181 6.71046 0
M  V30 9859 H 31.7828 0.289041 8.15388 0
M  V30 9860 P 27.8199 1.17771 8.83182 0
M  V30 9861 O 27.5999 2.07206 9.98732 0
M  V30 9862 O 27.0299 -0.0743816 8.81969 0
M  V30 9863 O 27.5699 1.97652 7.47304 0
M  V30 9864 C 28.5099 3.01133 7.08783 0
M  V30 9865 C 27.7799 4.12613 6.37049 0
M  V30 9866 O 27.5699 3.72827 4.97879 0
M  V30 9867 C 26.3799 4.45085 6.88694 0
M  V30 9868 O 25.9899 5.7877 6.5624 0
M  V30 9869 C 25.4999 3.47817 6.12078 0
M  V30 9870 C 26.2099 3.39414 4.77697 0
M  V30 9871 N 26.1599 2.04615 4.15333 0
M  V30 9872 H 28.9989 3.41248 7.98759 0
M  V30 9873 H 29.2709 2.5837 6.41742 0
M  V30 9874 H 28.4029 5.02657 6.42673 0
M  V30 9875 P 24.4399 6.144 6.45285 0
M  V30 9876 O 24.2199 7.54673 6.86199 0
M  V30 9877 O 23.6499 5.12391 7.179 0
M  V30 9878 O 24.1899 5.99158 4.88404 0
M  V30 9879 C 25.1299 6.60062 3.96313 0
M  V30 9880 C 24.3999 7.08259 2.72856 0
M  V30 9881 O 24.1899 5.9427 1.83651 0
M  V30 9882 C 22.9999 7.65087 2.94749 0
M  V30 9883 O 22.6099 8.53963 1.90717 0
M  V30 9884 C 22.1199 6.41069 2.90698 0
M  V30 9885 C 22.8299 5.5528 1.86931 0
M  V30 9886 N 22.7799 4.09575 2.15696 0
M  V30 9887 C 22.6299 3.24249 1.08435 0
M  V30 9888 O 22.5399 3.63946 -0.0628747 0
M  V30 9889 N 22.5899 1.90009 1.39973 0
M  V30 9890 C 22.6799 1.34884 2.65614 0
M  V30 9891 C 22.8299 2.3145 3.71736 0
M  V30 9892 C 22.8799 3.63518 3.44754 0
M  V30 9893 H 25.6209 7.45402 4.45526 0
M  V30 9894 H 25.8899 5.86062 3.67208 0
M  V30 9895 H 25.0229 7.84412 2.24479 0
M  V30 9896 H 22.3679 5.73358 0.888409 0
M  V30 9897 H 22.0889 5.90877 3.88583 0
M  V30 9898 H 21.0969 6.65867 2.58821 0
M  V30 9899 H 22.9309 8.16248 3.92006 0
M  V30 9900 H 23.0019 4.34551 4.26383 0
M  V30 9901 P 21.0599 8.7635 1.60911 0
M  V30 9902 O 20.8399 10.1388 1.11561 0
M  V30 9903 O 20.2699 8.36503 2.79617 0
M  V30 9904 O 20.8099 7.71806 0.42951 0
M  V30 9905 C 21.7499 7.67148 -0.673689 0
M  V30 9906 C 21.0199 7.33374 -1.95559 0
M  V30 9907 O 20.8099 5.88721 -2.00726 0
M  V30 9908 C 19.6199 7.92526 -2.10483 0
M  V30 9909 O 19.2299 8.02971 -3.47653 0
M  V30 9910 C 18.7399 6.89602 -1.41652 0
M  V30 9911 C 19.4499 5.59201 -1.75185 0
M  V30 9912 N 19.3999 4.58301 -0.657969 0
M  V30 9913 C 19.4799 4.79019 0.692603 0
M  V30 9914 N 19.4099 3.69736 1.38998 0
M  V30 9915 C 19.2599 2.70474 0.438135 0
M  V30 9916 C 19.1299 1.30327 0.538142 0
M  V30 9917 N 19.1199 0.64304 1.69192 0
M  V30 9918 N 19.0099 0.611027 -0.605183 0
M  V30 9919 C 19.0199 1.27002 -1.75953 0
M  V30 9920 N 19.1399 2.56038 -1.98546 0
M  V30 9921 C 19.2599 3.22681 -0.822541 0
M  V30 9922 H 22.2389 8.65116 -0.777161 0
M  V30 9923 H 22.5109 6.9022 -0.46725 0
M  V30 9924 H 21.6429 7.66548 -2.79458 0
M  V30 9925 H 18.9879 5.16165 -2.65183 0
M  V30 9926 H 18.7079 7.06433 -0.329384 0
M  V30 9927 H 17.7169 6.90926 -1.82021 0
M  V30 9928 H 19.5509 8.90873 -1.62657 0
M  V30 9929 H 19.5919 5.77785 1.13874 0
M  V30 9930 H 19.2109 1.15585 2.57991 0
M  V30 9931 H 19.0219 -0.382989 1.69835 0
M  V30 9932 H 18.9139 0.653331 -2.64449 0
M  V30 9933 P 17.6799 8.03563 -3.84925 0
M  V30 9934 O 17.4599 8.85821 -5.0569 0
M  V30 9935 O 16.8899 8.41101 -2.65469 0
M  V30 9936 O 17.4299 6.4965 -4.18908 0
M  V30 9937 C 18.3699 5.81037 -5.05421 0
M  V30 9938 C 17.6399 4.78366 -5.89277 0
M  V30 9939 O 17.4299 3.58302 -5.08433 0
M  V30 9940 C 16.2399 5.17448 -6.36119 0
M  V30 9941 O 15.8499 4.45271 -7.53232 0
M  V30 9942 C 15.3599 4.74639 -5.19936 0
M  V30 9943 C 16.0699 3.49432 -4.70418 0
M  V30 9944 N 16.0199 3.31776 -3.22945 0
M  V30 9945 H 18.8589 6.54213 -5.71376 0
M  V30 9946 H 19.1309 5.30492 -4.44033 0
M  V30 9947 H 18.2629 4.55889 -6.76652 0
M  V30 9948 P 14.2999 4.23843 -7.83734 0
M  V30 9949 O 14.0799 4.19407 -9.29784 0
M  V30 9950 O 13.5099 5.24426 -7.09156 0
M  V30 9951 O 14.0499 2.7935 -7.20758 0
M  V30 9952 C 14.9899 1.72945 -7.50224 0
M  V30 9953 C 14.2599 0.406376 -7.57911 0
M  V30 9954 O 14.0499 -0.0897726 -6.21935 0
M  V30 9955 C 12.8599 0.438983 -8.18724 0
M  V30 9956 O 12.4699 -0.825065 -8.71101 0
M  V30 9957 C 11.9799 0.783689 -6.99524 0
M  V30 9958 C 12.6899 0.0619086 -5.85867 0
M  V30 9959 N 12.6399 0.78573 -4.56183 0
M  V30 9960 C 12.4899 0.0292889 -3.41887 0
M  V30 9961 O 12.3999 -1.18445 -3.4419 0
M  V30 9962 N 12.4499 0.744061 -2.23964 0
M  V30 9963 C 12.5399 2.10932 -2.10362 0
M  V30 9964 O 12.4899 2.64117 -0.98825 0
M  V30 9965 C 12.6899 2.8202 -3.34994 0
M  V30 9966 C 12.7999 4.31095 -3.25037 0
M  V30 9967 C 12.7399 2.15547 -4.52261 0
M  V30 9968 H 15.4809 1.93379 -8.46595 0
M  V30 9969 H 15.7499 1.68132 -6.70852 0
M  V30 9970 H 14.8829 -0.289041 -8.15388 0
M  V30 9971 H 12.2279 -0.926847 -5.72749 0
M  V30 9972 H 11.9489 1.86973 -6.82036 0
M  V30 9973 H 10.9569 0.403896 -7.13257 0
M  V30 9974 H 12.7909 1.20585 -8.97435 0
M  V30 9975 H 12.8619 2.71231 -5.45042 0
M  V30 9976 H 11.8319 4.76966 -3.49992 0
M  V30 9977 H 13.5689 4.67047 -3.95024 0
M  V30 9978 H 13.0809 4.58996 -2.22312 0
M  V30 9979 H 12.3449 0.214893 -1.39758 0
M  V30 9980 P 10.92 -1.17771 -8.83182 0
M  V30 9981 O 10.7 -2.07206 -9.98732 0
M  V30 9982 O 10.13 0.0743816 -8.81969 0
M  V30 9983 O 10.67 -1.97652 -7.47304 0
M  V30 9984 C 11.61 -3.01133 -7.08783 0
M  V30 9985 C 10.88 -4.12613 -6.37049 0
M  V30 9986 O 10.67 -3.72827 -4.97879 0
M  V30 9987 C 9.47996 -4.45085 -6.88694 0
M  V30 9988 O 9.08996 -5.7877 -6.5624 0
M  V30 9989 C 8.59996 -3.47817 -6.12078 0
M  V30 9990 C 9.30996 -3.39414 -4.77697 0
M  V30 9991 N 9.25996 -2.04199 -4.15538 0
M  V30 9992 C 9.33996 -0.821545 -4.76977 0
M  V30 9993 N 9.26996 0.1794 -3.94592 0
M  V30 9994 C 9.11996 -0.419121 -2.70776 0
M  V30 9995 C 8.98996 0.109072 -1.40577 0
M  V30 9996 N 8.97996 1.4104 -1.1344 0
M  V30 9997 N 8.86996 -0.764381 -0.39411 0
M  V30 9998 C 8.87996 -2.06587 -0.664135 0
M  V30 9999 N 8.99996 -2.67948 -1.82153 0
M  V30 10000 C 9.11996 -1.77942 -2.8147 0
M  V30 10001 H 12.099 -3.41248 -7.98759 0
M  V30 10002 H 12.371 -2.57728 -6.42 0
M  V30 10003 H 11.503 -5.02657 -6.42673 0
M  V30 10004 H 8.84796 -4.11708 -4.08956 0
M  V30 10005 H 8.56796 -2.49626 -6.61679 0
M  V30 10006 H 7.57696 -3.8662 -6.00862 0
M  V30 10007 H 9.41096 -4.29991 -7.97006 0
M  V30 10008 H 9.45196 -0.702451 -5.84696 0
M  V30 10009 H 9.07096 2.09647 -1.89651 0
M  V30 10010 H 8.88196 1.73358 -0.160575 0
M  V30 10011 H 8.77396 -2.71695 0.195838 0
M  V30 10012 P 7.53998 -6.144 -6.45285 0
M  V30 10013 O 7.31998 -7.54673 -6.86199 0
M  V30 10014 O 6.74998 -5.12391 -7.179 0
M  V30 10015 O 7.28998 -5.99158 -4.88404 0
M  V30 10016 C 8.22998 -6.60234 -3.96415 0
M  V30 10017 C 7.49998 -7.08259 -2.72856 0
M  V30 10018 O 7.28998 -5.9427 -1.83651 0
M  V30 10019 C 6.09998 -7.64886 -2.9555 0
M  V30 10020 O 5.70998 -8.53963 -1.90717 0
M  V30 10021 C 5.21998 -6.4116 -2.90739 0
M  V30 10022 C 5.92998 -5.55375 -1.86963 0
M  V30 10023 N 5.87998 -4.09448 -2.16152 0
M  V30 10024 H 8.71898 -7.45574 -4.45629 0
M  V30 10025 H 8.99098 -5.85864 -3.679 0
M  V30 10026 H 8.12298 -7.84412 -2.24479 0
M  V30 10027 H 5.46798 -5.73457 -0.888562 0
M  V30 10028 H 5.18798 -5.90877 -3.88583 0
M  V30 10029 H 4.19698 -6.6596 -2.58858 0
M  V30 10030 H 6.03098 -8.16339 -3.92049 0
M  V30 10031 P 4.16 -8.7635 -1.60911 0
M  V30 10032 O 3.94 -10.1388 -1.11561 0
M  V30 10033 O 3.37 -8.36503 -2.79617 0
M  V30 10034 O 3.91 -7.71806 -0.42951 0
M  V30 10035 C 4.85 -7.67148 0.673689 0
M  V30 10036 C 4.12 -7.33374 1.95559 0
M  V30 10037 O 3.91 -5.88721 2.00726 0
M  V30 10038 C 2.72 -7.92526 2.10483 0
M  V30 10039 O 2.33 -8.02971 3.47653 0
M  V30 10040 C 1.84 -6.89602 1.41652 0
M  V30 10041 C 2.55 -5.59201 1.75185 0
M  V30 10042 N 2.5 -4.58235 0.662552 0
M  V30 10043 H 5.339 -8.65116 0.777161 0
M  V30 10044 H 5.611 -6.90173 0.474152 0
M  V30 10045 H 4.743 -7.66548 2.79458 0
M  V30 10046 H 1.613 -8.66322 3.55694 0
M  V30 END ATOM
M  V30 BEGIN BOND
M  V30 END BOND
M  V30 END CTAB
M  END
$$$$
