drugbank_target|P03023 Lactose operon repressor (DB01862; DB08297)
 OpenBabel12092120233D

  0  0  0     0  0            999 V3000
M  V30 BEGIN CTAB
M  V30 COUNTS 5465 5501 0 0 0
M  V30 BEGIN ATOM
M  V30 1 H -0.908 1.98254 -0.117106 0
M  V30 2 N 0 1.576 0 0
M  V30 3 C 0.933 2.03868 1.02534 0
M  V30 4 C 1.911 0.928543 1.3348 0
M  V30 5 O 3.095 1.19667 1.45644 0
M  V30 6 C 0.222 2.43627 2.35294 0
M  V30 7 C -0.732 3.65373 2.2001 0
M  V30 8 S 0.101 5.13292 1.52614 0
M  V30 9 C 1.257 5.56322 2.86805 0
M  V30 10 H 1.49 2.90518 0.631377 0
M  V30 11 H -0.977 1.52953 0.210867 0
M  V30 12 H 0.981 2.67203 3.11629 0
M  V30 13 H -0.358 1.57376 2.7183 0
M  V30 14 H -1.165 3.90944 3.18086 0
M  V30 15 H -1.563 3.418 1.51819 0
M  V30 16 H 0.729 5.58782 3.83104 0
M  V30 17 H 1.672 6.56266 2.65933 0
M  V30 18 H 2.08 4.83886 2.90714 0
M  V30 19 N 1.4781 -0.272755 1.55222 0
M  V30 20 C 2.4251 -1.33716 1.88119 0
M  V30 21 C 3.3951 -1.49066 0.73271 0
M  V30 22 O 4.5801 -1.63469 0.984002 0
M  V30 23 C 1.7201 -2.69238 2.15882 0
M  V30 24 C 0.8331 -2.62108 3.43399 0
M  V30 25 C -0.0319 -3.89811 3.60861 0
M  V30 26 C -0.9929 -3.77193 4.8207 0
M  V30 27 N -1.8559 -4.9673 4.96189 0
M  V30 28 H 2.9841 -1.04962 2.78903 0
M  V30 29 H 0.5211 -0.507088 1.38083 0
M  V30 30 H 2.4791 -3.48089 2.29978 0
M  V30 31 H 1.1091 -2.96194 1.28331 0
M  V30 32 H 0.1611 -1.74967 3.37773 0
M  V30 33 H 1.4731 -2.48685 4.32386 0
M  V30 34 H 0.6271 -4.77103 3.74777 0
M  V30 35 H -0.6339 -4.06102 2.7006 0
M  V30 36 H -1.6289 -2.88284 4.68159 0
M  V30 37 H -0.4039 -3.62421 5.74307 0
M  V30 38 H -2.4579 -5.13431 4.08319 0
M  V30 39 H -2.5409 -4.85839 5.79221 0
M  V30 40 H -1.2729 -5.85594 5.1449 0
M  V30 41 N 2.9562 -1.48159 -0.537278 0
M  V30 42 C 4.3672 -1.49429 -1.11928 0
M  V30 43 C 4.7182 -0.26 -1.9447 0
M  V30 44 O 3.8432 0.633489 -2.0692 0
M  V30 45 C 4.4382 -2.70758 -2.03656 0
M  V30 46 C 2.9972 -2.74923 -2.57088 0
M  V30 47 C 2.1442 -2.42835 -1.3389 0
M  V30 48 H 5.0952 -1.55381 -0.322886 0
M  V30 49 H 5.1162 -2.48861 -2.87834 0
M  V30 50 H 4.6282 -3.60575 -1.43553 0
M  V30 51 H 2.7292 -1.89296 -3.20933 0
M  V30 52 H 2.8422 -3.76157 -2.9672 0
M  V30 53 H 1.2062 -1.93836 -1.65226 0
M  V30 54 H 1.9892 -3.34884 -0.755504 0
M  V30 55 N 4.4343 0.785586 -1.36625 0
M  V30 56 C 5.6803 1.54591 -1.31261 0
M  V30 57 C 6.0133 1.93906 0.106823 0
M  V30 58 O 5.2883 1.63007 1.06108 0
M  V30 59 C 5.5713 2.82038 -2.23889 0
M  V30 60 C 5.4243 2.49066 -3.74548 0
M  V30 61 C 6.7433 3.83887 -2.15217 0
M  V30 62 H 3.8623 0.560846 -0.478143 0
M  V30 63 H 6.5043 0.902278 -1.67209 0
M  V30 64 H 4.6543 3.36961 -1.93363 0
M  V30 65 H 6.3263 2.00164 -4.15611 0
M  V30 66 H 4.5693 1.81954 -3.93796 0
M  V30 67 H 5.2403 3.40109 -4.34776 0
M  V30 68 H 7.7163 3.38421 -2.42096 0
M  V30 69 H 6.5923 4.70806 -2.82193 0
M  V30 70 H 6.8533 4.27131 -1.14068 0
M  V30 71 N 5.9124 1.20967 1.01018 0
M  V30 72 C 7.1404 1.04956 1.78303 0
M  V30 73 C 7.5554 -0.400915 1.84494 0
M  V30 74 O 6.9124 -1.27826 1.30257 0
M  V30 75 C 6.9634 1.63403 3.22462 0
M  V30 76 O 6.6844 3.02775 3.16637 0
M  V30 77 C 8.1854 1.52432 4.16268 0
M  V30 78 H 5.4054 0.368858 0.560522 0
M  V30 79 H 7.9494 1.60193 1.27116 0
M  V30 80 H 6.1044 1.1227 3.70775 0
M  V30 81 H 6.5184 3.30626 4.07169 0
M  V30 82 H 7.9924 1.98078 5.15237 0
M  V30 83 H 8.4694 0.477875 4.36592 0
M  V30 84 H 9.0754 2.02787 3.73841 0
M  V30 85 N 7.3905 -1.2043 1.01659 0
M  V30 86 C 8.3205 -2.25466 0.607226 0
M  V30 87 C 9.3015 -1.65853 -0.377716 0
M  V30 88 O 10.4865 -1.92409 -0.263149 0
M  V30 89 C 7.6165 -3.47256 -0.0552949 0
M  V30 90 C 6.5705 -4.19462 0.850632 0
M  V30 91 C 5.8965 -5.34673 0.0538859 0
M  V30 92 C 7.1965 -4.75603 2.15868 0
M  V30 93 H 8.8905 -2.59962 1.48526 0
M  V30 94 H 6.4365 -1.2496 0.715605 0
M  V30 95 H 8.3895 -4.19917 -0.353233 0
M  V30 96 H 7.1135 -3.11924 -0.968045 0
M  V30 97 H 5.7725 -3.48667 1.13257 0
M  V30 98 H 5.4205 -4.95585 -0.860514 0
M  V30 99 H 5.1205 -5.83913 0.657192 0
M  V30 100 H 6.6445 -6.10138 -0.237598 0
M  V30 101 H 8.0585 -5.40083 1.92311 0
M  V30 102 H 6.4555 -5.3528 2.71284 0
M  V30 103 H 7.5255 -3.94346 2.82169 0
M  V30 104 N 8.8686 -0.792821 -1.36206 0
M  V30 105 C 10.0986 -0.378275 -2.03107 0
M  V30 106 C 10.5066 1.01119 -1.59911 0
M  V30 107 O 9.8496 1.66052 -0.785658 0
M  V30 108 C 9.9116 -0.366535 -3.57627 0
M  V30 109 C 9.5756 -1.70416 -4.24037 0
M  V30 110 C 10.5726 -2.6602 -4.46687 0
M  V30 111 C 8.2576 -1.98439 -4.6144 0
M  V30 112 C 10.2516 -3.8784 -5.05825 0
M  V30 113 C 7.9386 -3.20525 -5.20295 0
M  V30 114 C 8.9366 -4.15044 -5.42427 0
M  V30 115 O 8.6246 -5.34978 -6.00045 0
M  V30 116 H 8.3566 -0.153543 -0.658332 0
M  V30 117 H 10.9106 -1.07383 -1.75094 0
M  V30 118 H 9.1406 0.385539 -3.84773 0
M  V30 119 H 10.8296 0.0238088 -4.05893 0
M  V30 120 H 11.5956 -2.45658 -4.18183 0
M  V30 121 H 7.4746 -1.25686 -4.43536 0
M  V30 122 H 11.0186 -4.61628 -5.23015 0
M  V30 123 H 6.9156 -3.40764 -5.48225 0
M  V30 124 H 7.6836 -5.36088 -6.18508 0
M  V30 125 N 10.3467 1.47872 -0.545128 0
M  V30 126 C 11.6237 1.9554 0.0485222 0
M  V30 127 C 12.0037 1.4876 1.49779 0
M  V30 128 O 11.3517 0.720925 2.16829 0
M  V30 129 C 11.5617 3.48898 -0.084417 0
M  V30 130 C 12.9097 4.24547 0.0671239 0
M  V30 131 O 13.9337 3.56198 -0.0113649 0
M  V30 132 O 12.7927 5.45999 0.233882 0
M  V30 133 H 9.8867 0.823957 0.0708773 0
M  V30 134 H 12.4327 1.58327 -0.610798 0
M  V30 135 H 11.2047 3.75714 -1.09337 0
M  V30 136 H 10.8277 3.92845 0.613066 0
M  V30 137 N 11.8248 0.280983 1.55075 0
M  V30 138 C 13.0708 -0.33461 2.00021 0
M  V30 139 C 13.4038 -1.55063 1.16915 0
M  V30 140 O 12.6788 -1.93006 0.240646 0
M  V30 141 C 12.9618 -0.711007 3.53011 0
M  V30 142 C 12.8148 0.512766 4.46868 0
M  V30 143 C 14.1338 -1.54522 4.12081 0
M  V30 144 H 11.2528 -0.120147 0.727141 0
M  V30 145 H 13.8948 0.389097 1.85973 0
M  V30 146 H 12.0448 -1.32761 3.65112 0
M  V30 147 H 13.7168 1.15131 4.46702 0
M  V30 148 H 11.9598 1.14975 4.18286 0
M  V30 149 H 12.6308 0.205556 5.51617 0
M  V30 150 H 15.1068 -1.02442 4.03293 0
M  V30 151 H 13.9828 -1.77739 5.19327 0
M  V30 152 H 14.2438 -2.52813 3.62682 0
M  V30 153 N 13.3029 -1.57598 0.00835791 0
M  V30 154 C 14.2659 -2.07884 -0.965242 0
M  V30 155 C 15.2659 -0.989825 -1.26725 0
M  V30 156 O 16.4559 -1.25218 -1.21104 0
M  V30 157 C 13.5879 -2.52731 -2.28779 0
M  V30 158 H 14.7809 -2.95178 -0.530112 0
M  V30 159 H 12.3339 -1.54458 -0.239283 0
M  V30 160 H 13.0689 -1.68705 -2.76964 0
M  V30 161 H 12.8539 -3.32272 -2.08177 0
M  V30 162 H 14.3439 -2.91933 -2.98605 0
M  V30 163 N 14.781 0.264519 -1.55364 0
M  V30 164 C 15.691 1.34902 -1.91934 0
M  V30 165 C 16.707 1.53595 -0.817593 0
M  V30 166 O 17.883 1.67558 -1.11742 0
M  V30 167 C 14.948 2.68676 -2.19121 0
M  V30 168 C 14.009 2.58657 -3.4263 0
M  V30 169 C 13.242 3.86051 -3.68511 0
M  V30 170 O 13.465 4.87126 -2.96757 0
M  V30 171 O 12.399 3.85744 -4.62045 0
M  V30 172 H 16.225 1.06883 -2.8427 0
M  V30 173 H 13.81 0.463775 -1.42019 0
M  V30 174 H 15.692 3.47759 -2.37995 0
M  V30 175 H 14.367 2.96463 -1.29966 0
M  V30 176 H 13.274 1.7792 -3.29082 0
M  V30 177 H 14.607 2.35818 -4.32031 0
M  V30 178 N 16.2591 1.48442 0.529413 0
M  V30 179 C 17.4891 1.59919 1.30804 0
M  V30 180 C 17.8971 0.258792 1.87422 0
M  V30 181 O 17.2401 -0.762096 1.67146 0
M  V30 182 C 17.3021 2.58693 2.49636 0
M  V30 183 C 16.9661 4.03745 2.14101 0
M  V30 184 C 17.9631 4.9141 1.6974 0
M  V30 185 C 15.6481 4.49285 2.24607 0
M  V30 186 C 17.6421 6.22645 1.36351 0
M  V30 187 C 15.3291 5.8054 1.9083 0
M  V30 188 C 16.3271 6.67043 1.46773 0
M  V30 189 O 16.0151 7.95856 1.1344 0
M  V30 190 H 15.7471 0.541981 0.404021 0
M  V30 191 H 18.3011 1.95 0.645309 0
M  V30 192 H 16.5311 2.18734 3.18892 0
M  V30 193 H 18.2201 2.59999 3.11698 0
M  V30 194 H 18.9861 4.57465 1.61094 0
M  V30 195 H 14.8651 3.82142 2.57854 0
M  V30 196 H 18.4091 6.90119 1.01891 0
M  V30 197 H 14.3061 6.14022 1.99117 0
M  V30 198 H 15.0741 8.08613 1.26832 0
M  V30 199 N 17.7372 -0.778329 1.37039 0
M  V30 200 C 18.7002 -1.87301 1.32102 0
M  V30 201 C 19.7002 -1.59198 0.226405 0
M  V30 202 O 20.8902 -1.67403 0.481861 0
M  V30 203 C 18.0222 -3.24309 1.05055 0
M  V30 204 H 19.2152 -1.93093 2.29467 0
M  V30 205 H 16.7682 -0.977358 1.21973 0
M  V30 206 H 17.5032 -3.24196 0.0819373 0
M  V30 207 H 17.2882 -3.46098 1.84279 0
M  V30 208 H 18.7782 -4.04382 1.04234 0
M  V30 209 N 19.2153 -1.21501 -1.00376 0
M  V30 210 C 20.4633 -1.03095 -1.73827 0
M  V30 211 C 20.7843 0.436341 -1.90055 0
M  V30 212 O 20.0543 1.31466 -1.45236 0
M  V30 213 H 18.6343 -0.378487 -0.644016 0
M  V30 214 H 21.2963 -1.52831 -1.20949 0
M  V30 215 H 20.3923 -1.49991 -2.73695 0
M  V30 216 N 20.6934 1.19889 -1.02296 0
M  V30 217 C 21.9394 1.89701 -0.717033 0
M  V30 218 C 22.2724 1.7905 0.751989 0
M  V30 219 O 21.5474 1.17891 1.547 0
M  V30 220 C 21.8304 3.40858 -1.16136 0
M  V30 221 C 21.6834 3.60411 -2.69117 0
M  V30 222 C 23.0024 4.33876 -0.737549 0
M  V30 223 H 20.1214 0.688874 -0.261957 0
M  V30 224 H 22.7634 1.41154 -1.27183 0
M  V30 225 H 20.9134 3.82335 -0.689342 0
M  V30 226 H 22.5854 3.28145 -3.2422 0
M  V30 227 H 20.8284 3.03665 -3.0979 0
M  V30 228 H 21.4994 4.66396 -2.95261 0
M  V30 229 H 23.9754 4.00081 -1.14344 0
M  V30 230 H 22.8514 5.38242 -1.0764 0
M  V30 231 H 23.1124 4.40628 0.360436 0
M  V30 232 N 22.1715 0.800033 1.35784 0
M  V30 233 C 23.3965 0.388511 2.03729 0
M  V30 234 C 23.8215 -0.990481 1.5991 0
M  V30 235 O 23.1795 -1.64013 0.772612 0
M  V30 236 C 23.2275 0.4726 3.5749 0
M  V30 237 O 22.3315 -0.51646 4.09153 0
M  V30 238 H 21.6725 0.163271 0.643614 0
M  V30 239 H 24.2025 1.0841 1.73518 0
M  V30 240 H 24.2125 0.34003 4.06581 0
M  V30 241 H 22.8875 1.47848 3.88734 0
M  V30 242 H 21.4645 -0.344673 3.71304 0
M  V30 243 N 23.6496 -1.47581 0.552962 0
M  V30 244 C 24.8796 -2.06575 0.0320091 0
M  V30 245 C 25.2876 -1.4067 -1.26525 0
M  V30 246 O 24.6306 -0.495808 -1.76883 0
M  V30 247 C 24.6926 -3.58705 -0.238913 0
M  V30 248 C 24.3566 -4.46625 0.968272 0
M  V30 249 C 25.3536 -4.85 1.87274 0
M  V30 250 C 23.0386 -4.88201 1.18175 0
M  V30 251 C 25.0326 -5.63745 2.9744 0
M  V30 252 C 22.7196 -5.66712 2.28651 0
M  V30 253 C 23.7176 -6.04394 3.18114 0
M  V30 254 O 23.4056 -6.81324 4.26676 0
M  V30 255 H 23.1376 -0.674763 0.0408689 0
M  V30 256 H 25.6916 -1.90634 0.764719 0
M  V30 257 H 23.9216 -3.72844 -1.02588 0
M  V30 258 H 25.6106 -3.99735 -0.704731 0
M  V30 259 H 26.3766 -4.53482 1.71984 0
M  V30 260 H 22.2556 -4.58339 0.494593 0
M  V30 261 H 25.7996 -5.93077 3.67296 0
M  V30 262 H 21.6966 -5.97642 2.43915 0
M  V30 263 H 22.4646 -6.99712 4.24671 0
M  V30 264 N 25.1277 -0.289203 -1.54924 0
M  V30 265 C 26.0597 0.625583 -2.20497 0
M  V30 266 C 27.0727 1.10667 -1.19402 0
M  V30 267 O 28.2617 1.02615 -1.46056 0
M  V30 268 C 25.3617 1.86702 -2.82835 0
M  V30 269 C 24.5347 1.5304 -4.09753 0
M  V30 270 C 23.5937 2.62576 -4.56005 0
M  V30 271 O 22.6197 2.28167 -5.21468 0
M  V30 272 N 23.8217 3.92901 -4.27328 0
M  V30 273 H 26.5867 0.0642801 -2.99631 0
M  V30 274 H 24.1477 -0.110896 -1.6152 0
M  V30 275 H 26.1397 2.59304 -3.10715 0
M  V30 276 H 24.7097 2.33702 -2.07611 0
M  V30 277 H 23.9297 0.637564 -3.8901 0
M  V30 278 H 25.2177 1.28072 -4.92418 0
M  V30 279 H 24.6157 4.23671 -3.74859 0
M  V30 280 H 23.1727 4.61837 -4.59946 0
M  V30 281 N 26.6058 1.57591 -0.0167156 0
M  V30 282 C 27.8338 1.95575 0.675128 0
M  V30 283 C 28.2488 0.892542 1.6637 0
M  V30 284 O 27.6058 -0.126912 1.82058 0
M  V30 285 C 27.6568 3.33608 1.39239 0
M  V30 286 O 27.3778 4.3585 0.443444 0
M  V30 287 C 28.8788 3.86151 2.17721 0
M  V30 288 H 26.0988 0.644423 0.186978 0
M  V30 289 H 28.6428 2.0437 -0.0728 0
M  V30 290 H 26.7978 3.2607 2.09182 0
M  V30 291 H 27.2118 5.158 0.951358 0
M  V30 292 H 28.6858 4.85114 2.63379 0
M  V30 293 H 29.1628 3.19738 3.01105 0
M  V30 294 H 29.7688 3.96918 1.52761 0
M  V30 295 N 28.0839 -0.256276 1.55502 0
M  V30 296 C 29.3299 -0.987079 1.77157 0
M  V30 297 C 29.6629 -1.85327 0.580315 0
M  V30 298 O 28.9379 -1.89874 -0.421686 0
M  V30 299 C 29.2209 -1.85553 3.08613 0
M  V30 300 C 29.0739 -1.01816 4.38125 0
M  V30 301 C 30.3929 -2.8397 3.36228 0
M  V30 302 H 27.5119 -0.357428 0.644526 0
M  V30 303 H 30.1539 -0.258239 1.88237 0
M  V30 304 H 28.3039 -2.47695 2.99298 0
M  V30 305 H 29.9759 -0.416159 4.59419 0
M  V30 306 H 28.2189 -0.322178 4.32602 0
M  V30 307 H 28.8899 -1.65939 5.26468 0
M  V30 308 H 31.3659 -2.31964 3.45445 0
M  V30 309 H 30.2419 -3.41864 4.29442 0
M  V30 310 H 30.5029 -3.59955 2.56681 0
M  V30 311 N 29.562 -1.4872 -0.521534 0
M  V30 312 C 30.787 -1.61101 -1.30618 0
M  V30 313 C 31.212 -0.274611 -1.86085 0
M  V30 314 O 30.57 0.754937 -1.64834 0
M  V30 315 C 30.618 -2.66709 -2.4269 0
M  V30 316 O 29.722 -2.24456 -3.45967 0
M  V30 317 H 29.063 -0.539921 -0.386499 0
M  V30 318 H 31.593 -1.94767 -0.626645 0
M  V30 319 H 31.603 -2.88245 -2.88754 0
M  V30 320 H 30.278 -3.63727 -2.01682 0
M  V30 321 H 28.855 -2.13168 -3.05964 0
M  V30 322 N 31.0401 0.771051 -1.3745 0
M  V30 323 C 32.4561 1.07171 -1.18265 0
M  V30 324 C 32.6561 2.01491 -0.019287 0
M  V30 325 O 31.7121 2.44244 0.640408 0
M  V30 326 C 33.0251 1.66854 -2.50161 0
M  V30 327 C 34.5731 1.79109 -2.56689 0
M  V30 328 C 35.0481 2.42205 -3.88717 0
M  V30 329 N 36.5391 2.49655 -3.90162 0
M  V30 330 C 37.2741 2.9933 -4.8907 0
M  V30 331 N 36.7701 3.49172 -5.98374 0
M  V30 332 N 38.5631 2.9821 -4.76474 0
M  V30 333 H 30.7141 0.144796 -2.11906 0
M  V30 334 H 32.9771 0.126863 -0.939473 0
M  V30 335 H 32.6831 1.05017 -3.35655 0
M  V30 336 H 32.5571 2.6614 -2.673 0
M  V30 337 H 34.9441 2.40077 -1.71601 0
M  V30 338 H 35.0251 0.785757 -2.43433 0
M  V30 339 H 34.6691 1.81875 -4.74219 0
M  V30 340 H 34.5991 3.43345 -3.99276 0
M  V30 341 H 37.0901 2.14383 -3.11205 0
M  V30 342 H 37.4031 3.8548 -6.69795 0
M  V30 343 H 35.7481 3.47275 -6.02018 0
M  V30 344 H 38.9391 2.58572 -3.90203 0
M  V30 345 H 39.1121 3.36613 -5.53711 0
M  V30 346 N 32.5182 1.22032 0.997298 0
M  V30 347 C 33.7642 1.04376 1.73878 0
M  V30 348 C 34.0972 -0.420716 1.89588 0
M  V30 349 O 33.3722 -1.31202 1.43583 0
M  V30 350 C 33.6552 1.75047 3.14691 0
M  V30 351 C 33.5082 3.29062 3.06656 0
M  V30 352 C 34.8272 1.49928 4.13775 0
M  V30 353 H 31.9462 0.380578 0.631133 0
M  V30 354 H 34.5882 1.50312 1.16217 0
M  V30 355 H 32.7382 1.35996 3.63919 0
M  V30 356 H 34.4102 3.7753 2.65083 0
M  V30 357 H 32.6532 3.58967 2.43568 0
M  V30 358 H 33.3242 3.73683 4.06282 0
M  V30 359 H 35.8002 1.83842 3.73285 0
M  V30 360 H 34.6762 2.01878 5.10428 0
M  V30 361 H 34.9372 0.430929 4.39995 0
M  V30 362 N 33.9963 -1.19345 1.0293 0
M  V30 363 C 35.2423 -1.89318 0.727083 0
M  V30 364 C 35.5753 -1.79446 -0.742483 0
M  V30 365 O 34.8503 -1.1871 -1.54072 0
M  V30 366 C 35.1333 -3.40238 1.17942 0
M  V30 367 C 34.9863 -3.58979 2.71024 0
M  V30 368 C 36.3053 -4.33479 0.760548 0
M  V30 369 H 33.4243 -0.687475 0.265606 0
M  V30 370 H 36.0663 -1.40477 1.2793 0
M  V30 371 H 34.2163 -3.81964 0.709608 0
M  V30 372 H 35.8883 -3.26421 3.25955 0
M  V30 373 H 34.1313 -3.02018 3.11396 0
M  V30 374 H 34.8023 -4.64823 2.9773 0
M  V30 375 H 37.2783 -3.99469 1.16464 0
M  V30 376 H 36.1543 -5.37664 1.10493 0
M  V30 377 H 36.4153 -4.40813 -0.337063 0
M  V30 378 N 35.4744 -0.807222 -1.35358 0
M  V30 379 C 36.4224 -0.20614 -2.31685 0
M  V30 380 C 37.4164 0.644445 -1.56663 0
M  V30 381 O 38.6224 0.537538 -1.71786 0
M  V30 382 H 34.9974 -0.0479006 -0.750473 0
M  V30 383 H 36.9684 -1.03369 -2.79924 0
M  V30 384 C 35.7174 0.630212 -3.41941 0
M  V30 385 H 35.0404 -0.0149558 -3.99797 0
M  V30 386 H 36.4804 1.01716 -4.11619 0
M  V30 387 C 34.9394 1.79601 -2.85035 0
M  V30 388 O 35.4694 2.89351 -2.78637 0
M  V30 389 N 33.6754 1.60774 -2.42074 0
M  V30 390 H 33.2224 0.715009 -2.47478 0
M  V30 391 H 33.1804 2.38933 -2.04349 0
M  V30 392 N 36.9525 1.47285 -0.560781 0
M  V30 393 C 37.8845 2.28118 0.222438 0
M  V30 394 C 38.8975 1.37219 0.876056 0
M  V30 395 O 40.0865 1.62011 0.749307 0
M  V30 396 C 37.1865 3.1159 1.33285 0
M  V30 397 C 36.3595 4.30473 0.77534 0
M  V30 398 C 35.4185 4.95513 1.77069 0
M  V30 399 O 34.4445 5.53792 1.31539 0
M  V30 400 N 35.6465 4.90531 3.10418 0
M  V30 401 H 38.4115 2.95976 -0.470958 0
M  V30 402 H 35.9725 1.56955 -0.39709 0
M  V30 403 H 37.9645 3.51967 1.99752 0
M  V30 404 H 36.5345 2.45951 1.92943 0
M  V30 405 H 35.7545 3.94144 -0.0662113 0
M  V30 406 H 37.0425 5.07362 0.382272 0
M  V30 407 H 36.4405 4.44389 3.5005 0
M  V30 408 H 34.9975 5.34917 3.72434 0
M  V30 409 N 38.4306 0.297415 1.54768 0
M  V30 410 C 39.3936 -0.567375 2.22066 0
M  V30 411 C 40.3936 -1.06409 1.20556 0
M  V30 412 O 41.5836 -0.960691 1.45315 0
M  V30 413 C 38.7156 -1.78517 2.90421 0
M  V30 414 H 39.9086 0.0205534 2.99893 0
M  V30 415 H 37.4616 0.0482163 1.56226 0
M  V30 416 H 38.1966 -2.41303 2.16664 0
M  V30 417 H 37.9816 -1.43669 3.64831 0
M  V30 418 H 39.4716 -2.39964 3.41771 0
M  V30 419 N 39.9087 -1.5758 0.0250728 0
M  V30 420 C 41.1337 -1.96337 -0.668317 0
M  V30 421 C 41.5587 -0.901314 -1.651 0
M  V30 422 O 40.9167 0.138187 -1.80773 0
M  V30 423 C 40.9647 -3.34191 -1.35457 0
M  V30 424 O 40.0687 -3.30269 -2.46974 0
M  V30 425 H 39.4097 -0.640281 -0.175887 0
M  V30 426 H 41.9397 -2.0442 0.0857224 0
M  V30 427 H 41.9497 -3.70331 -1.71228 0
M  V30 428 H 40.6247 -4.11036 -0.634218 0
M  V30 429 H 39.2017 -3.05841 -2.13344 0
M  V30 430 N 41.3868 0.248026 -1.55636 0
M  V30 431 C 42.3368 1.30994 -1.86614 0
M  V30 432 C 43.3208 1.43543 -0.726918 0
M  V30 433 O 44.5128 1.46804 -0.988818 0
M  V30 434 C 41.6418 2.6656 -2.16335 0
M  V30 435 C 40.7278 2.58019 -3.36581 0
M  V30 436 N 41.1188 2.1911 -4.55878 0
M  V30 437 C 39.4168 2.89035 -3.39669 0
M  V30 438 C 40.1178 2.21174 -5.38012 0
M  V30 439 N 39.0938 2.60632 -4.77045 0
M  V30 440 H 42.8958 0.999583 -2.76379 0
M  V30 441 H 40.4098 0.456652 -1.55848 0
M  V30 442 H 42.4068 3.43194 -2.36692 0
M  V30 443 H 41.0668 2.98463 -1.27867 0
M  V30 444 H 42.0778 1.90672 -4.81523 0
M  V30 445 H 38.7548 3.25485 -2.61469 0
M  V30 446 H 40.1448 1.9344 -6.43452 0
M  V30 447 N 42.8649 1.48995 0.513639 0
M  V30 448 C 44.1109 1.58076 1.27042 0
M  V30 449 C 44.4439 0.261026 1.92438 0
M  V30 450 O 43.7189 -0.734393 1.80103 0
M  V30 451 C 44.0019 2.73091 2.34719 0
M  V30 452 C 43.8549 4.14821 1.73907 0
M  V30 453 C 45.1739 2.83796 3.36375 0
M  V30 454 H 42.2929 0.575391 0.460536 0
M  V30 455 H 44.9349 1.81232 0.570516 0
M  V30 456 H 43.0849 2.53479 2.94416 0
M  V30 457 H 44.7569 4.45917 1.18135 0
M  V30 458 H 42.9999 4.21058 1.0437 0
M  V30 459 H 43.6709 4.91147 2.51949 0
M  V30 460 H 46.1469 3.01611 2.86653 0
M  V30 461 H 45.0229 3.65971 4.09093 0
M  V30 462 H 45.2839 1.92624 3.9793 0
M  V30 463 N 44.343 -0.763751 1.37857 0
M  V30 464 C 45.568 -1.55805 1.36893 0
M  V30 465 C 45.993 -1.88054 -0.0416135 0
M  V30 466 O 45.351 -1.49825 -1.02089 0
M  V30 467 C 45.399 -2.84012 2.22192 0
M  V30 468 O 44.503 -3.78732 1.63204 0
M  V30 469 H 43.844 -0.471638 0.46739 0
M  V30 470 H 46.374 -0.944657 1.81487 0
M  V30 471 H 46.384 -3.33037 2.35691 0
M  V30 472 H 45.059 -2.59869 3.24716 0
M  V30 473 H 43.636 -3.37402 1.58791 0
M  V30 474 N 45.8211 -1.22559 -0.990812 0
M  V30 475 C 46.7841 -0.998863 -2.0629 0
M  V30 476 C 47.7841 0.0354834 -1.60761 0
M  V30 477 O 48.9741 -0.203231 -1.7301 0
M  V30 478 C 46.1061 -0.509203 -3.37076 0
M  V30 479 H 47.2991 -1.95014 -2.27837 0
M  V30 480 H 44.8521 -1.04456 -1.16269 0
M  V30 481 H 45.5871 0.446335 -3.21214 0
M  V30 482 H 45.3721 -1.25547 -3.71457 0
M  V30 483 H 46.8621 -0.370888 -4.1595 0
M  V30 484 N 47.2992 1.18797 -1.03562 0
M  V30 485 C 48.2462 2.22253 -0.622259 0
M  V30 486 C 49.2162 1.61987 0.36736 0
M  V30 487 O 50.4012 1.88986 0.262492 0
M  V30 488 C 47.5412 3.45097 0.0138462 0
M  V30 489 C 46.6542 4.19722 -1.02263 0
M  V30 490 C 45.7892 5.30009 -0.355573 0
M  V30 491 C 44.8282 5.96399 -1.37749 0
M  V30 492 N 43.9652 6.98234 -0.735766 0
M  V30 493 H 48.8052 2.56968 -1.50903 0
M  V30 494 H 46.3422 1.26245 -0.755017 0
M  V30 495 H 48.3002 4.15279 0.399948 0
M  V30 496 H 46.9302 3.11018 0.864158 0
M  V30 497 H 45.9822 3.48418 -1.52673 0
M  V30 498 H 47.2942 4.65227 -1.79903 0
M  V30 499 H 46.4482 6.0664 0.0850095 0
M  V30 500 H 45.1872 4.85592 0.452967 0
M  V30 501 H 44.1922 5.18512 -1.82826 0
M  V30 502 H 45.4172 6.42899 -2.18764 0
M  V30 503 H 43.3632 6.55979 0.0525597 0
M  V30 504 H 43.2802 7.41965 -1.44995 0
M  V30 505 H 44.5482 7.78845 -0.31941 0
M  V30 506 N 48.7773 0.814389 1.34928 0
M  V30 507 C 50.0053 0.411136 2.02774 0
M  V30 508 C 50.4203 -0.980316 1.61354 0
M  V30 509 O 49.7773 -1.63299 0.814847 0
M  V30 510 C 49.8283 0.493865 3.58111 0
M  V30 511 O 49.5493 1.83047 3.98027 0
M  V30 512 C 51.0503 0.0844174 4.4322 0
M  V30 513 H 48.2703 0.166037 0.650133 0
M  V30 514 H 50.8143 1.10018 1.72384 0
M  V30 515 H 48.9693 -0.147006 3.87121 0
M  V30 516 H 49.3833 1.79872 4.92693 0
M  V30 517 H 50.8573 0.193404 5.51661 0
M  V30 518 H 51.3343 -0.97113 4.28329 0
M  V30 519 H 51.9403 0.69875 4.19521 0
M  V30 520 N 50.2554 -1.46986 0.568584 0
M  V30 521 C 51.6714 -1.57946 0.229189 0
M  V30 522 C 51.8714 -1.56567 -1.26843 0
M  V30 523 O 50.9274 -1.47511 -2.04931 0
M  V30 524 C 52.2404 -2.87963 0.865909 0
M  V30 525 C 53.7884 -3.01568 0.838188 0
M  V30 526 C 54.2634 -4.34301 1.45419 0
M  V30 527 N 55.7544 -4.40965 1.41788 0
M  V30 528 C 56.4894 -5.42256 1.86403 0
M  V30 529 N 55.9854 -6.50297 2.38926 0
M  V30 530 N 57.7784 -5.3337 1.77405 0
M  V30 531 H 49.9294 -1.46126 1.54146 0
M  V30 532 H 52.1924 -0.696156 0.643484 0
M  V30 533 H 51.8984 -2.94742 1.91886 0
M  V30 534 H 51.7724 -3.75423 0.365687 0
M  V30 535 H 54.1594 -2.94379 -0.206106 0
M  V30 536 H 54.2404 -2.1562 1.37629 0
M  V30 537 H 53.8844 -4.42247 2.49761 0
M  V30 538 H 53.8144 -5.19 0.891435 0
M  V30 539 H 56.3054 -3.63484 1.03381 0
M  V30 540 H 56.6184 -7.23777 2.70863 0
M  V30 541 H 54.9634 -6.51155 2.42944 0
M  V30 542 H 58.1544 -4.47865 1.3614 0
M  V30 543 H 58.3274 -6.12169 2.12492 0
M  V30 544 N 51.7335 -0.305618 -1.54608 0
M  V30 545 C 52.6435 0.57778 -2.27374 0
M  V30 546 C 53.6595 1.14451 -1.31061 0
M  V30 547 O 54.8355 1.16831 -1.6405 0
M  V30 548 C 51.9005 1.73123 -3.00382 0
M  V30 549 C 50.9615 1.19812 -4.12242 0
M  V30 550 C 50.1945 2.2966 -4.81759 0
M  V30 551 O 50.4175 3.49651 -4.50666 0
M  V30 552 O 49.3515 1.96091 -5.69062 0
M  V30 553 H 53.1775 -0.012624 -3.03697 0
M  V30 554 H 50.7625 -0.0719184 -1.49227 0
M  V30 555 H 52.6445 2.40315 -3.4616 0
M  V30 556 H 51.3195 2.30815 -2.26949 0
M  V30 557 H 50.2265 0.491798 -3.70853 0
M  V30 558 H 51.5595 0.666566 -4.87666 0
M  V30 559 N 53.2116 1.57565 -0.0334293 0
M  V30 560 C 54.1586 2.10478 0.946981 0
M  V30 561 C 55.1286 1.00787 1.32027 0
M  V30 562 O 56.3136 1.28232 1.41284 0
M  V30 563 C 53.4536 2.63994 2.22263 0
M  V30 564 C 52.5666 3.87709 1.90541 0
M  V30 565 C 51.7016 4.29604 3.12433 0
M  V30 566 C 50.7406 5.46065 2.76549 0
M  V30 567 N 49.8776 5.83096 3.9108 0
M  V30 568 H 54.7176 2.93963 0.488846 0
M  V30 569 H 52.2546 1.45296 0.22969 0
M  V30 570 H 54.2126 2.93114 2.96884 0
M  V30 571 H 52.8426 1.83333 2.65685 0
M  V30 572 H 51.8946 3.65291 1.06144 0
M  V30 573 H 53.2066 4.72403 1.60116 0
M  V30 574 H 52.3606 4.60182 3.9537 0
M  V30 575 H 51.0996 3.43685 3.46023 0
M  V30 576 H 50.1046 5.15176 1.92026 0
M  V30 577 H 51.3296 6.33685 2.44171 0
M  V30 578 H 49.2756 5.00132 4.24504 0
M  V30 579 H 49.1926 6.6244 3.64293 0
M  V30 580 H 50.4606 6.18282 4.74708 0
M  V30 581 N 54.6897 -0.239769 1.55765 0
M  V30 582 C 55.9357 -0.968234 1.78194 0
M  V30 583 C 56.2687 -1.84701 0.599938 0
M  V30 584 O 55.5437 -1.9031 -0.401524 0
M  V30 585 C 55.8267 -1.8227 3.10564 0
M  V30 586 C 55.6797 -0.971633 4.3918 0
M  V30 587 C 56.9987 -2.80388 3.39221 0
M  V30 588 H 54.1177 -0.350572 0.648281 0
M  V30 589 H 56.7597 -0.238259 1.885 0
M  V30 590 H 54.9097 -2.44507 3.01908 0
M  V30 591 H 56.5817 -0.367408 4.59835 0
M  V30 592 H 54.8247 -0.276276 4.32919 0
M  V30 593 H 55.4957 -1.60346 5.28198 0
M  V30 594 H 57.9717 -2.28287 3.47885 0
M  V30 595 H 56.8477 -3.3729 4.33044 0
M  V30 596 H 57.1087 -3.57212 2.60484 0
M  V30 597 N 56.1678 -1.49265 -0.50573 0
M  V30 598 C 57.0778 -1.68312 -1.63427 0
M  V30 599 C 58.0938 -0.565682 -1.64548 0
M  V30 600 O 59.2698 -0.839801 -1.83055 0
M  V30 601 C 56.3348 -1.74107 -2.99813 0
M  V30 602 C 55.3958 -2.97653 -3.09356 0
M  V30 603 C 54.6288 -3.03163 -4.39236 0
M  V30 604 O 54.8518 -2.16396 -5.27758 0
M  V30 605 O 53.7858 -3.9558 -4.53652 0
M  V30 606 H 57.6118 -2.63907 -1.50289 0
M  V30 607 H 55.1968 -1.32951 -0.681502 0
M  V30 608 H 57.0788 -1.803 -3.80881 0
M  V30 609 H 55.7538 -0.816901 -3.13223 0
M  V30 610 H 54.6608 -2.96981 -2.27493 0
M  V30 611 H 55.9938 -3.89535 -3.00871 0
M  V30 612 N 57.6459 0.756429 -1.3826 0
M  V30 613 C 58.6089 1.85176 -1.35065 0
M  V30 614 C 59.6089 1.58818 -0.251703 0
M  V30 615 O 60.7989 1.66615 -0.508433 0
M  V30 616 C 57.9309 3.22596 -1.10201 0
M  V30 617 H 59.1239 1.89417 -2.3251 0
M  V30 618 H 56.6769 0.95783 -1.23512 0
M  V30 619 H 57.4119 3.24025 -0.133504 0
M  V30 620 H 57.1969 3.43122 -1.89762 0
M  V30 621 H 58.6869 4.02673 -1.10654 0
M  V30 622 N 59.124 1.23083 0.984299 0
M  V30 623 C 60.087 1.00979 2.05757 0
M  V30 624 C 61.087 -0.0269573 1.60777 0
M  V30 625 O 62.277 0.212403 1.729 0
M  V30 626 C 59.409 0.527072 3.36801 0
M  V30 627 H 60.602 1.9622 2.26799 0
M  V30 628 H 58.155 1.05072 1.15714 0
M  V30 629 H 58.89 -0.429294 3.21446 0
M  V30 630 H 58.675 1.27515 3.70786 0
M  V30 631 H 60.165 0.392942 4.15747 0
M  V30 632 N 60.6021 -1.18246 1.0419 0
M  V30 633 C 61.5351 -2.20746 0.578474 0
M  V30 634 C 62.5131 -1.57912 -0.387624 0
M  V30 635 O 63.6971 -1.86071 -0.301634 0
M  V30 636 C 60.8241 -3.38346 -0.154762 0
M  V30 637 C 59.8701 -4.19587 0.764782 0
M  V30 638 S 60.7031 -4.86014 2.24835 0
M  V30 639 C 61.8591 -6.07012 1.526 0
M  V30 640 H 62.0921 -2.59715 1.44691 0
M  V30 641 H 59.6251 -1.287 0.85297 0
M  V30 642 H 61.5831 -4.065 -0.571641 0
M  V30 643 H 60.2441 -2.97786 -0.999105 0
M  V30 644 H 59.4371 -5.03611 0.197976 0
M  V30 645 H 59.0391 -3.56818 1.12057 0
M  V30 646 H 61.3311 -6.72523 0.819733 0
M  V30 647 H 62.2741 -6.68202 2.34333 0
M  V30 648 H 62.6821 -5.55249 1.01779 0
M  V30 649 N 62.0802 -0.821533 -1.34494 0
M  V30 650 C 63.0432 -0.247847 -2.27856 0
M  V30 651 C 64.0432 0.573453 -1.50227 0
M  V30 652 O 65.2332 0.389759 -1.69784 0
M  V30 653 C 62.3652 0.652698 -3.34593 0
M  V30 654 H 63.5582 -1.07146 -2.80107 0
M  V30 655 H 61.1112 -0.593291 -1.44602 0
M  V30 656 H 61.8462 1.49943 -2.87555 0
M  V30 657 H 61.6312 0.065292 -3.92046 0
M  V30 658 H 63.1212 1.04793 -4.04238 0
M  V30 659 N 63.5583 1.46682 -0.576371 0
M  V30 660 C 64.4683 2.34032 0.163141 0
M  V30 661 C 65.4843 1.49367 0.892501 0
M  V30 662 O 66.6603 1.82252 0.857106 0
M  V30 663 C 63.7253 3.26435 1.16795 0
M  V30 664 C 62.7863 4.26998 0.443944 0
M  V30 665 C 62.0193 5.14986 1.40088 0
M  V30 666 O 62.2423 5.05785 2.637 0
M  V30 667 O 61.1763 5.94906 0.914917 0
M  V30 668 H 65.0023 2.98607 -0.55388 0
M  V30 669 H 62.5873 1.45554 -0.336821 0
M  V30 670 H 64.4693 3.83459 1.74748 0
M  V30 671 H 63.1443 2.64465 1.86655 0
M  V30 672 H 62.0513 3.7368 -0.177271 0
M  V30 673 H 63.3843 4.91736 -0.213566 0
M  V30 674 N 65.0364 0.313813 1.54444 0
M  V30 675 C 65.9664 -0.549454 2.26943 0
M  V30 676 C 66.9474 -1.12741 1.27372 0
M  V30 677 O 68.1324 -1.15436 1.56167 0
M  V30 678 C 65.2624 -1.71523 3.01989 0
M  V30 679 C 64.2164 -1.26703 4.08816 0
M  V30 680 C 63.5424 -2.51898 4.71647 0
M  V30 681 C 64.8424 -0.388962 5.2085 0
M  V30 682 H 66.5364 0.0552661 2.99349 0
M  V30 683 H 64.0824 0.0280207 1.43973 0
M  V30 684 H 66.0354 -2.32535 3.51433 0
M  V30 685 H 64.7594 -2.34639 2.27183 0
M  V30 686 H 63.4184 -0.679896 3.6024 0
M  V30 687 H 63.0664 -3.13356 3.93468 0
M  V30 688 H 62.7664 -2.22605 5.43802 0
M  V30 689 H 64.2904 -3.1369 5.23861 0
M  V30 690 H 65.7044 -0.905107 5.6611 0
M  V30 691 H 64.1014 -0.18924 5.99802 0
M  V30 692 H 65.1714 0.582699 4.81386 0
M  V30 693 N 66.5145 -1.57545 0.0417849 0
M  V30 694 C 67.4625 -2.12148 -0.953723 0
M  V30 695 C 68.4565 -1.05104 -1.32852 0
M  V30 696 O 69.6625 -1.23524 -1.30927 0
M  V30 697 H 66.0375 -0.677957 -0.325389 0
M  V30 698 H 68.0085 -2.94707 -0.467991 0
M  V30 699 C 66.7575 -2.6739 -2.22257 0
M  V30 700 H 66.0805 -3.49413 -1.94295 0
M  V30 701 H 67.5205 -3.09227 -2.90094 0
M  V30 702 C 65.9795 -1.60723 -2.96091 0
M  V30 703 O 66.5095 -1.01449 -3.88679 0
M  V30 704 N 64.7155 -1.32466 -2.58652 0
M  V30 705 H 64.2625 -1.80856 -1.83437 0
M  V30 706 H 64.2205 -0.61325 -3.08361 0
M  V30 707 N 67.9926 0.231505 -1.5589 0
M  V30 708 C 69.2226 0.973092 -1.82248 0
M  V30 709 C 69.6306 1.78845 -0.617328 0
M  V30 710 O 68.9736 1.78752 0.423499 0
M  V30 711 C 69.0356 1.94732 -3.02192 0
M  V30 712 C 68.6996 1.31743 -4.37599 0
M  V30 713 C 69.6966 0.712238 -5.14998 0
M  V30 714 C 67.3816 1.33218 -4.84312 0
M  V30 715 C 69.3756 0.130195 -6.37267 0
M  V30 716 C 67.0626 0.746286 -6.06526 0
M  V30 717 C 68.0606 0.146337 -6.82843 0
M  V30 718 O 67.7486 -0.430465 -8.02747 0
M  V30 719 H 67.4806 0.29125 -0.61004 0
M  V30 720 H 70.0346 0.254915 -2.03812 0
M  V30 721 H 68.2646 2.70422 -2.76422 0
M  V30 722 H 69.9536 2.55362 -3.15508 0
M  V30 723 H 70.7196 0.69324 -4.8002 0
M  V30 724 H 66.5986 1.78854 -4.24891 0
M  V30 725 H 70.1426 -0.33871 -6.96777 0
M  V30 726 H 66.0396 0.762663 -6.40979 0
M  V30 727 H 66.8076 -0.323818 -8.17859 0
M  V30 728 N 69.4707 1.49531 0.497807 0
M  V30 729 C 70.7197 1.58426 1.24837 0
M  V30 730 C 71.0327 0.277643 1.93619 0
M  V30 731 O 72.2387 0.24517 2.70391 0
M  V30 732 C 70.6947 2.79538 2.26686 0
M  V30 733 C 70.3027 4.16971 1.63828 0
M  V30 734 C 72.0467 2.97764 3.0255 0
M  V30 735 C 69.9537 5.29301 2.63807 0
M  V30 736 H 68.8837 0.58989 0.469623 0
M  V30 737 H 71.5347 1.75923 0.521857 0
M  V30 738 H 69.9167 2.55542 3.02514 0
M  V30 739 H 71.0907 4.51116 0.939711 0
M  V30 740 H 69.4057 4.04129 1.00342 0
M  V30 741 H 72.0027 3.78856 3.77323 0
M  V30 742 H 72.3457 2.08448 3.60354 0
M  V30 743 H 72.8787 3.21815 2.33838 0
M  V30 744 H 69.6177 6.20687 2.10779 0
M  V30 745 H 69.1377 4.99606 3.31894 0
M  V30 746 H 70.8167 5.58768 3.2617 0
M  V30 747 N 70.9488 -0.749086 1.3866 0
M  V30 748 C 72.3598 -1.32664 1.31366 0
M  V30 749 C 72.7108 -1.96179 -0.028484 0
M  V30 750 O 71.8358 -1.9537 -0.93057 0
M  V30 751 C 72.4308 -2.41219 2.37905 0
M  V30 752 C 70.9898 -2.94684 2.34176 0
M  V30 753 C 70.1368 -1.68108 2.20533 0
M  V30 754 H 73.0878 -0.547628 1.48952 0
M  V30 755 H 73.1088 -3.21268 2.0388 0
M  V30 756 H 72.6208 -1.94962 3.35576 0
M  V30 757 H 70.7218 -3.45258 1.401 0
M  V30 758 H 70.8348 -3.48757 3.2849 0
M  V30 759 H 69.1988 -1.91907 1.67463 0
M  V30 760 H 69.9818 -1.23923 3.20153 0
M  V30 761 N 72.4269 -1.23603 -0.977757 0
M  V30 762 C 73.3749 -1.01704 -2.09187 0
M  V30 763 C 74.3689 0.0448214 -1.69341 0
M  V30 764 O 75.5749 -0.108902 -1.7967 0
M  V30 765 H 71.9499 -0.311803 -0.684312 0
M  V30 766 H 73.9209 -1.96207 -2.24823 0
M  V30 767 C 72.6699 -0.627746 -3.41986 0
M  V30 768 H 71.9929 -1.43656 -3.73099 0
M  V30 769 H 73.4329 -0.514053 -4.20872 0
M  V30 770 C 71.8919 0.664238 -3.30287 0
M  V30 771 O 72.4219 1.71268 -3.6336 0
M  V30 772 N 70.6279 0.641156 -2.83439 0
M  V30 773 H 70.1749 -0.212376 -2.56723 0
M  V30 774 H 70.1329 1.50583 -2.75993 0
M  V30 775 N 73.905 1.17692 -1.04816 0
M  V30 776 C 75.321 1.39863 -0.768794 0
M  V30 777 C 75.521 1.91118 0.638451 0
M  V30 778 O 74.577 2.10036 1.40146 0
M  V30 779 C 75.89 2.39274 -1.82122 0
M  V30 780 C 77.438 2.52987 -1.843 0
M  V30 781 C 77.913 3.55669 -2.88555 0
M  V30 782 N 79.404 3.63183 -2.87493 0
M  V30 783 C 80.139 4.42381 -3.64811 0
M  V30 784 N 79.635 5.25125 -4.51903 0
M  V30 785 N 81.428 4.37217 -3.53267 0
M  V30 786 H 73.579 0.82752 -1.95617 0
M  V30 787 H 75.842 0.426123 -0.846831 0
M  V30 788 H 75.548 2.08678 -2.83102 0
M  V30 789 H 75.422 3.38725 -1.65967 0
M  V30 790 H 77.809 2.82896 -0.839869 0
M  V30 791 H 77.89 1.53623 -2.04532 0
M  V30 792 H 77.534 3.26499 -3.89051 0
M  V30 793 H 77.464 4.54728 -2.65575 0
M  V30 794 H 79.955 3.04103 -2.24343 0
M  V30 795 H 80.268 5.82728 -5.07591 0
M  V30 796 H 78.613 5.24519 -4.55966 0
M  V30 797 H 81.804 3.71626 -2.84625 0
M  V30 798 H 81.977 4.98696 -4.13771 0
M  V30 799 N 75.3831 0.828654 1.34056 0
M  V30 800 C 76.6291 0.42008 1.98402 0
M  V30 801 C 76.9621 -1.01564 1.65525 0
M  V30 802 O 76.2371 -1.70834 0.929831 0
M  V30 803 C 76.5201 0.62927 3.54559 0
M  V30 804 C 76.3731 2.11152 3.97159 0
M  V30 805 C 77.6921 0.0688756 4.40046 0
M  V30 806 H 74.8111 0.154104 0.720709 0
M  V30 807 H 77.4531 1.04228 1.5886 0
M  V30 808 H 75.6031 0.0996418 3.88372 0
M  V30 809 H 77.2751 2.70522 3.73651 0
M  V30 810 H 75.5181 2.59985 3.47261 0
M  V30 811 H 76.1891 2.20868 5.05887 0
M  V30 812 H 78.6651 0.521458 4.1282 0
M  V30 813 H 77.5411 0.245006 5.48353 0
M  V30 814 H 77.8021 -1.0266 4.30015 0
M  V30 815 N 76.8612 -1.46375 0.584142 0
M  V30 816 C 77.8242 -2.28784 -0.138108 0
M  V30 817 C 78.8242 -1.38471 -0.817462 0
M  V30 818 O 80.0142 -1.60833 -0.669199 0
M  V30 819 C 77.1462 -3.18892 -1.20503 0
M  V30 820 H 78.3392 -2.94117 0.586127 0
M  V30 821 H 75.8922 -1.52509 0.342171 0
M  V30 822 H 76.6272 -2.58309 -1.96079 0
M  V30 823 H 76.4122 -3.85388 -0.722384 0
M  V30 824 H 77.9022 -3.80914 -1.71155 0
M  V30 825 N 78.3393 -0.321999 -1.54275 0
M  V30 826 C 79.2713 0.578671 -2.21775 0
M  V30 827 C 80.2843 1.08109 -1.21722 0
M  V30 828 O 81.4733 0.994938 -1.482 0
M  V30 829 C 78.5733 1.80661 -2.86731 0
M  V30 830 C 77.7463 1.44314 -4.12907 0
M  V30 831 C 76.8053 2.52845 -4.61472 0
M  V30 832 O 75.8313 2.17054 -5.2619 0
M  V30 833 N 77.0333 3.83748 -4.35566 0
M  V30 834 H 79.7983 0.000709447 -2.997 0
M  V30 835 H 77.3593 -0.145132 -1.61248 0
M  V30 836 H 79.3513 2.52655 -3.16145 0
M  V30 837 H 77.9213 2.29245 -2.12521 0
M  V30 838 H 77.1413 0.554906 -3.90275 0
M  V30 839 H 78.4293 1.17598 -4.95023 0
M  V30 840 H 77.8273 4.15625 -3.83761 0
M  V30 841 H 76.3843 4.51977 -4.69638 0
M  V30 842 N 79.8174 1.5752 -0.0501392 0
M  V30 843 C 80.7494 2.08413 0.95376 0
M  V30 844 C 81.7624 1.01175 1.27544 0
M  V30 845 O 82.9514 1.28744 1.23641 0
M  V30 846 C 80.0514 2.51138 2.27559 0
M  V30 847 C 79.2244 3.817 2.13598 0
M  V30 848 C 78.2834 4.10749 3.28895 0
M  V30 849 O 77.3094 4.80685 3.04845 0
M  V30 850 N 78.5114 3.62579 4.5334 0
M  V30 851 H 81.2764 2.95165 0.519383 0
M  V30 852 H 78.8374 1.61327 0.136127 0
M  V30 853 H 80.8294 2.67648 3.03557 0
M  V30 854 H 79.3994 1.6964 2.62567 0
M  V30 855 H 78.6194 3.74782 1.22197 0
M  V30 856 H 79.9074 4.67201 2.01496 0
M  V30 857 H 79.3054 3.06039 4.75769 0
M  V30 858 H 77.8624 3.84329 5.26436 0
M  V30 859 N 81.2955 -0.223234 1.56011 0
M  V30 860 C 82.2255 -1.27988 1.95298 0
M  V30 861 C 83.2065 -1.48976 0.820979 0
M  V30 862 O 84.3915 -1.61188 1.08315 0
M  V30 863 C 81.5215 -2.63 2.26822 0
M  V30 864 C 80.4755 -2.56671 3.42497 0
M  V30 865 C 79.8015 -3.95697 3.59622 0
M  V30 866 C 81.1015 -2.11601 4.77517 0
M  V30 867 H 82.7955 -0.953525 2.8381 0
M  V30 868 H 80.3415 -0.457244 1.36548 0
M  V30 869 H 82.2945 -3.37077 2.52898 0
M  V30 870 H 81.0185 -2.9732 1.35161 0
M  V30 871 H 79.6775 -1.85051 3.16467 0
M  V30 872 H 79.3255 -4.27322 2.6534 0
M  V30 873 H 79.0255 -3.92345 4.37424 0
M  V30 874 H 80.5495 -4.71438 3.88044 0
M  V30 875 H 81.9635 -2.7542 5.02809 0
M  V30 876 H 80.3605 -2.19311 5.5859 0
M  V30 877 H 81.4305 -1.06824 4.72987 0
M  V30 878 N 82.7736 -1.49793 -0.48987 0
M  V30 879 C 83.7366 -1.66752 -1.57246 0
M  V30 880 C 84.7366 -0.538867 -1.51502 0
M  V30 881 O 85.9266 -0.805545 -1.54456 0
M  V30 882 C 83.0586 -1.67528 -2.96896 0
M  V30 883 H 84.2516 -2.63321 -1.43534 0
M  V30 884 H 81.8046 -1.38992 -0.714914 0
M  V30 885 H 82.5396 -0.725837 -3.16073 0
M  V30 886 H 82.3246 -2.49504 -3.02473 0
M  V30 887 H 83.8146 -1.82667 -3.7553 0
M  V30 888 N 84.2517 0.741722 -1.39055 0
M  V30 889 C 85.4997 1.49818 -1.35643 0
M  V30 890 C 85.8207 1.94938 0.0491642 0
M  V30 891 O 85.0907 1.68505 0.999141 0
M  V30 892 H 83.6707 0.555755 -0.499144 0
M  V30 893 H 86.3327 0.880957 -1.73854 0
M  V30 894 H 85.4287 2.38348 -2.01486 0
M  V30 895 N 85.7298 1.2412 0.971189 0
M  V30 896 C 86.6768 1.0305 2.06517 0
M  V30 897 C 87.6468 -0.0550666 1.66009 0
M  V30 898 O 88.8318 0.0988688 1.90544 0
M  V30 899 C 85.9718 0.637653 3.39158 0
M  V30 900 C 85.0848 1.79633 3.92882 0
M  V30 901 C 84.2198 1.34939 5.13775 0
M  V30 902 C 83.2588 2.47823 5.59687 0
M  V30 903 N 82.3958 2.04022 6.71803 0
M  V30 904 H 87.2358 1.96685 2.23873 0
M  V30 905 H 84.7728 0.979694 1.09729 0
M  V30 906 H 86.7308 0.390931 4.15364 0
M  V30 907 H 85.3608 -0.261693 3.21737 0
M  V30 908 H 84.4128 2.15681 3.13346 0
M  V30 909 H 85.7248 2.64466 4.22918 0
M  V30 910 H 84.8788 1.06134 5.97345 0
M  V30 911 H 83.6178 0.471557 4.85415 0
M  V30 912 H 82.6228 2.77392 4.74693 0
M  V30 913 H 83.8478 3.36158 5.90063 0
M  V30 914 H 81.7938 1.18632 6.45184 0
M  V30 915 H 81.7108 2.82409 7.01271 0
M  V30 916 H 82.9788 1.78347 7.58823 0
M  V30 917 N 87.2079 -1.17134 1.05439 0
M  V30 918 C 88.1399 -2.2078 0.615539 0
M  V30 919 C 89.1529 -1.59584 -0.322001 0
M  V30 920 O 90.3419 -1.78133 -0.114344 0
M  V30 921 C 87.4419 -3.38691 -0.118938 0
M  V30 922 C 86.6149 -4.29454 0.829924 0
M  V30 923 C 85.6739 -5.26024 0.136258 0
M  V30 924 O 84.6999 -5.63952 0.77115 0
M  V30 925 N 85.9019 -5.69487 -1.1254 0
M  V30 926 H 88.6669 -2.59052 1.50705 0
M  V30 927 H 86.2279 -1.32058 0.936603 0
M  V30 928 H 88.2199 -4.00329 -0.593179 0
M  V30 929 H 86.7899 -2.98996 -0.91215 0
M  V30 930 H 86.0099 -3.65211 1.48373 0
M  V30 931 H 87.2979 -4.86984 1.47392 0
M  V30 932 H 86.6959 -5.4075 -1.6615 0
M  V30 933 H 85.2529 -6.33257 -1.54366 0
M  V30 934 N 88.686 -0.835752 -1.33615 0
M  V30 935 C 89.911 -0.442389 -2.02627 0
M  V30 936 C 90.336 0.947735 -1.62479 0
M  V30 937 O 89.694 1.61907 -0.815826 0
M  V30 938 C 89.742 -0.567216 -3.56111 0
M  V30 939 O 88.846 0.407799 -4.10379 0
M  V30 940 H 88.187 -0.180278 -0.639059 0
M  V30 941 H 90.717 -1.12972 -1.70583 0
M  V30 942 H 90.727 -0.447708 -4.05536 0
M  V30 943 H 89.402 -1.58103 -3.84677 0
M  V30 944 H 87.979 0.246107 -3.72087 0
M  V30 945 N 90.1641 1.46063 -0.591896 0
M  V30 946 C 91.0941 2.33172 0.123673 0
M  V30 947 C 92.0751 1.45897 0.87453 0
M  V30 948 O 93.2601 1.74698 0.848181 0
M  V30 949 C 90.3901 3.28336 1.13194 0
M  V30 950 C 89.3441 4.25124 0.495324 0
M  V30 951 C 88.6701 5.09863 1.61071 0
M  V30 952 C 89.9701 5.19143 -0.573425 0
M  V30 953 H 91.6641 2.93252 -0.603646 0
M  V30 954 H 89.2101 1.41014 -0.291741 0
M  V30 955 H 91.1631 3.88137 1.64097 0
M  V30 956 H 89.8871 2.66383 1.88965 0
M  V30 957 H 88.5461 3.66599 0.00729452 0
M  V30 958 H 88.1941 4.44288 2.35832 0
M  V30 959 H 87.8941 5.75417 1.19035 0
M  V30 960 H 89.4181 5.72529 2.12233 0
M  V30 961 H 90.8321 5.73106 -0.1491 0
M  V30 962 H 89.2291 5.93089 -0.914636 0
M  V30 963 H 90.2991 4.62519 -1.45617 0
M  V30 964 N 91.6422 0.330177 1.54103 0
M  V30 965 C 92.5722 -0.525353 2.27513 0
M  V30 966 C 93.5532 -1.11383 1.2856 0
M  V30 967 O 94.7382 -1.13773 1.57383 0
M  V30 968 C 91.8682 -1.6831 3.03791 0
M  V30 969 C 90.8222 -1.2236 4.10137 0
M  V30 970 C 90.1482 -2.46882 4.74293 0
M  V30 971 C 91.4482 -0.333697 5.21233 0
M  V30 972 H 93.1422 0.087013 2.99274 0
M  V30 973 H 90.6882 0.0432893 1.43935 0
M  V30 974 H 92.6412 -2.28795 3.5388 0
M  V30 975 H 91.3652 -2.32216 2.29659 0
M  V30 976 H 90.0242 -0.64165 3.60941 0
M  V30 977 H 89.6722 -3.09165 3.96769 0
M  V30 978 H 89.3722 -2.16825 5.46133 0
M  V30 979 H 90.8962 -3.08117 5.27159 0
M  V30 980 H 92.3102 -0.845013 5.67038 0
M  V30 981 H 90.7072 -0.125612 5.99969 0
M  V30 982 H 91.7772 0.633724 4.80741 0
M  V30 983 N 93.1203 -1.57491 0.0584922 0
M  V30 984 C 94.3693 -1.92155 -0.613146 0
M  V30 985 C 94.6823 -0.939334 -1.71569 0
M  V30 986 O 95.8883 -1.17829 -2.44599 0
M  V30 987 C 94.3443 -3.41303 -1.14195 0
M  V30 988 C 93.9523 -4.47944 -0.0711265 0
M  V30 989 C 95.6963 -3.84988 -1.78841 0
M  V30 990 C 93.6033 -5.88212 -0.613225 0
M  V30 991 H 92.5333 -0.717162 -0.232796 0
M  V30 992 H 95.1843 -1.83049 0.12857 0
M  V30 993 H 93.5663 -3.45437 -1.93621 0
M  V30 994 H 94.7403 -4.55408 0.702836 0
M  V30 995 H 93.0553 -4.13644 0.478313 0
M  V30 996 H 95.6523 -4.87159 -2.20408 0
M  V30 997 H 95.9953 -3.21632 -2.64308 0
M  V30 998 H 96.5283 -3.83401 -1.06059 0
M  V30 999 H 93.2673 -6.55183 0.203978 0
M  V30 1000 H 92.7873 -5.84294 -1.35501 0
M  V30 1001 H 94.4663 -6.37687 -1.09383 0
M  V30 1002 N 94.5984 0.214957 -1.56127 0
M  V30 1003 C 95.8464 0.936518 -1.79091 0
M  V30 1004 C 96.1674 1.84606 -0.628148 0
M  V30 1005 O 95.4374 1.92664 0.35462 0
M  V30 1006 H 94.0174 0.3488 -0.660566 0
M  V30 1007 H 96.6794 0.22523 -1.93594 0
M  V30 1008 H 95.7754 1.53943 -2.71492 0
M  V30 1009 N 96.0765 1.50051 0.48192 0
M  V30 1010 C 97.3225 1.60736 1.2366 0
M  V30 1011 C 97.6555 0.301786 1.91841 0
M  V30 1012 O 96.9305 -0.696025 1.8162 0
M  V30 1013 C 97.2135 2.78009 2.28874 0
M  V30 1014 C 97.0665 4.18416 1.65069 0
M  V30 1015 C 98.3855 2.90867 3.30279 0
M  V30 1016 H 95.5045 0.585031 0.448228 0
M  V30 1017 H 98.1465 1.82402 0.531946 0
M  V30 1018 H 96.2965 2.59667 2.88973 0
M  V30 1019 H 97.9685 4.48322 1.0865 0
M  V30 1020 H 96.2115 4.23177 0.954148 0
M  V30 1021 H 96.8825 4.96381 2.41474 0
M  V30 1022 H 99.3585 3.07623 2.80191 0
M  V30 1023 H 98.2345 3.74566 4.01238 0
M  V30 1024 H 98.4955 2.01021 3.93755 0
M  V30 1025 N 97.5546 -0.734337 1.39446 0
M  V30 1026 C 98.5176 -1.83004 1.37994 0
M  V30 1027 C 99.5176 -1.58397 0.276938 0
M  V30 1028 O 100.708 -1.65785 0.534875 0
M  V30 1029 C 97.8396 -3.20802 1.1532 0
M  V30 1030 H 99.0326 -1.85694 2.35494 0
M  V30 1031 H 96.5856 -0.938059 1.25021 0
M  V30 1032 H 97.3206 -3.23772 0.185036 0
M  V30 1033 H 97.1056 -3.4006 1.95197 0
M  V30 1034 H 98.5956 -4.00862 1.17046 0
M  V30 1035 N 99.0327 -1.24633 -0.964593 0
M  V30 1036 C 100.261 -1.11501 -1.74285 0
M  V30 1037 C 100.676 0.332165 -1.85855 0
M  V30 1038 O 100.033 1.22903 -1.34911 0
M  V30 1039 C 100.084 -1.75258 -3.16175 0
M  V30 1040 O 99.8047 -3.14318 -3.05182 0
M  V30 1041 C 101.306 -1.67776 -4.10324 0
M  V30 1042 H 98.5257 -0.389407 -0.546446 0
M  V30 1043 H 101.07 -1.64801 -1.21083 0
M  V30 1044 H 99.2247 -1.25954 -3.66353 0
M  V30 1045 H 99.6387 -3.4551 -3.94618 0
M  V30 1046 H 101.113 -2.17064 -5.0753 0
M  V30 1047 H 101.59 -0.639584 -4.34518 0
M  V30 1048 H 102.196 -2.16522 -3.66058 0
M  V30 1049 N 100.511 1.16574 -1.06058 0
M  V30 1050 C 101.736 1.91493 -0.796562 0
M  V30 1051 C 102.161 1.76773 0.642868 0
M  V30 1052 O 101.519 1.09142 1.44768 0
M  V30 1053 C 101.567 3.40293 -1.19303 0
M  V30 1054 O 100.671 4.11074 -0.330394 0
M  V30 1055 H 100.012 0.596678 -0.291326 0
M  V30 1056 H 102.542 1.47708 -1.41575 0
M  V30 1057 H 102.552 3.91057 -1.16356 0
M  V30 1058 H 101.227 3.50326 -2.24153 0
M  V30 1059 H 99.8038 3.70513 -0.421225 0
M  V30 1060 N 101.989 0.842826 1.3317 0
M  V30 1061 C 103.214 0.453129 2.02389 0
M  V30 1062 C 103.639 -0.939105 1.6298 0
M  V30 1063 O 102.997 -1.61472 0.8244 0
M  V30 1064 C 103.045 0.586094 3.55805 0
M  V30 1065 O 102.149 -0.386029 4.10589 0
M  V30 1066 H 101.49 0.183664 0.638094 0
M  V30 1067 H 104.02 1.13875 1.69981 0
M  V30 1068 H 104.03 0.469209 4.05293 0
M  V30 1069 H 102.705 1.6014 3.83833 0
M  V30 1070 H 101.282 -0.226371 3.72212 0
M  V30 1071 N 103.467 -1.45747 0.599634 0
M  V30 1072 C 104.397 -2.33235 -0.111306 0
M  V30 1073 C 105.378 -1.46359 -0.866781 0
M  V30 1074 O 106.563 -1.75146 -0.838904 0
M  V30 1075 C 103.693 -3.28932 -1.11451 0
M  V30 1076 C 102.647 -4.25381 -0.472772 0
M  V30 1077 C 101.973 -5.1071 -1.58365 0
M  V30 1078 C 103.273 -5.18831 0.600948 0
M  V30 1079 H 104.967 -2.92927 0.61919 0
M  V30 1080 H 102.513 -1.40857 0.299215 0
M  V30 1081 H 104.466 -3.89002 -1.62036 0
M  V30 1082 H 103.19 -2.67381 -1.8755 0
M  V30 1083 H 101.849 -3.66598 0.0121472 0
M  V30 1084 H 101.497 -4.45533 -2.33473 0
M  V30 1085 H 101.197 -5.7604 -1.15982 0
M  V30 1086 H 102.721 -5.73647 -2.09194 0
M  V30 1087 H 104.135 -5.73019 0.179491 0
M  V30 1088 H 102.532 -5.92595 0.946076 0
M  V30 1089 H 103.602 -4.6174 1.48068 0
M  V30 1090 N 104.945 -0.338344 -1.53925 0
M  V30 1091 C 105.908 0.508299 -2.23493 0
M  V30 1092 C 106.908 1.03175 -1.23335 0
M  V30 1093 O 108.098 0.921826 -1.47811 0
M  V30 1094 C 105.23 1.70754 -2.95052 0
M  V30 1095 H 106.423 -0.100058 -2.99733 0
M  V30 1096 H 103.976 -0.0896198 -1.56043 0
M  V30 1097 H 104.711 2.35474 -2.22986 0
M  V30 1098 H 104.496 1.33946 -3.68512 0
M  V30 1099 H 105.986 2.30818 -3.48013 0
M  V30 1100 N 106.423 1.57458 -0.0668435 0
M  V30 1101 C 107.353 2.15468 0.899764 0
M  V30 1102 C 108.334 1.08042 1.31381 0
M  V30 1103 O 109.519 1.36054 1.38574 0
M  V30 1104 C 106.649 2.71232 2.16911 0
M  V30 1105 C 105.603 3.83781 1.89463 0
M  V30 1106 C 104.929 4.26127 3.22986 0
M  V30 1107 C 106.229 5.08238 1.20381 0
M  V30 1108 H 107.923 2.96488 0.416529 0
M  V30 1109 H 105.469 1.4262 0.198908 0
M  V30 1110 H 107.422 3.10458 2.84945 0
M  V30 1111 H 106.146 1.87426 2.67468 0
M  V30 1112 H 104.805 3.45051 1.23836 0
M  V30 1113 H 104.453 3.39249 3.71374 0
M  V30 1114 H 104.153 5.01993 3.05413 0
M  V30 1115 H 105.677 4.67966 3.92225 0
M  V30 1116 H 107.091 5.44811 1.78475 0
M  V30 1117 H 105.488 5.89349 1.13083 0
M  V30 1118 H 106.558 4.84558 0.182153 0
M  V30 1119 N 107.901 -0.206675 1.56239 0
M  V30 1120 C 108.851 -1.26 1.90021 0
M  V30 1121 C 109.835 -1.41566 0.764721 0
M  V30 1122 O 111.027 -1.44131 1.02739 0
M  V30 1123 C 108.156 -2.6073 2.23326 0
M  V30 1124 C 107.242 -2.49005 3.43304 0
M  V30 1125 N 107.633 -2.06946 4.61527 0
M  V30 1126 C 105.931 -2.79927 3.47213 0
M  V30 1127 C 106.632 -2.06832 5.43687 0
M  V30 1128 N 105.608 -2.47892 4.83788 0
M  V30 1129 H 109.41 -0.925955 2.78932 0
M  V30 1130 H 106.924 -0.415172 1.57003 0
M  V30 1131 H 108.921 -3.36798 2.45708 0
M  V30 1132 H 107.581 -2.94968 1.35735 0
M  V30 1133 H 108.592 -1.77839 4.86409 0
M  V30 1134 H 105.269 -3.18438 2.70006 0
M  V30 1135 H 106.659 -1.76312 6.48354 0
M  V30 1136 N 109.379 -1.50304 -0.473955 0
M  V30 1137 C 110.342 -1.6841 -1.55469 0
M  V30 1138 C 111.342 -0.554905 -1.50922 0
M  V30 1139 O 112.532 -0.821882 -1.53593 0
M  V30 1140 C 109.664 -1.70667 -2.95102 0
M  V30 1141 H 110.857 -2.64828 -1.40733 0
M  V30 1142 H 108.41 -1.39742 -0.700132 0
M  V30 1143 H 109.145 -0.75932 -3.15285 0
M  V30 1144 H 108.93 -2.52698 -2.9981 0
M  V30 1145 H 110.42 -1.8664 -3.73571 0
M  V30 1146 N 110.857 0.726932 -1.39834 0
M  V30 1147 C 112.268 1.30558 -1.3346 0
M  V30 1148 C 112.619 1.962 -0.00273003 0
M  V30 1149 O 111.744 1.96826 0.899371 0
M  V30 1150 C 112.339 2.37404 -2.41713 0
M  V30 1151 C 110.898 2.90921 -2.38835 0
M  V30 1152 C 110.045 1.64578 -2.2318 0
M  V30 1153 H 112.996 0.523862 -1.49804 0
M  V30 1154 H 113.017 3.17984 -2.08966 0
M  V30 1155 H 112.529 1.89599 -3.38635 0
M  V30 1156 H 110.63 3.42985 -1.45575 0
M  V30 1157 H 110.743 3.43487 -3.33997 0
M  V30 1158 H 109.107 1.89219 -1.70494 0
M  V30 1159 H 109.89 1.18814 -3.22084 0
M  V30 1160 N 112.336 1.25143 0.95797 0
M  V30 1161 C 113.561 1.12521 1.74223 0
M  V30 1162 C 113.986 -0.317402 1.85403 0
M  V30 1163 O 113.344 -1.2299 1.33204 0
M  V30 1164 C 113.392 1.78062 3.1357 0
M  V30 1165 O 112.496 1.058 3.98598 0
M  V30 1166 H 111.837 0.39304 0.535178 0
M  V30 1167 H 114.367 1.65641 1.201 0
M  V30 1168 H 114.377 1.84213 3.64046 0
M  V30 1169 H 113.052 2.83021 3.04749 0
M  V30 1170 H 111.629 1.07506 3.57067 0
M  V30 1171 N 113.814 -1.1601 1.06675 0
M  V30 1172 C 114.746 -2.20115 0.638921 0
M  V30 1173 C 115.759 -1.59916 -0.305057 0
M  V30 1174 O 116.948 -1.78245 -0.0954446 0
M  V30 1175 C 114.048 -3.38798 -0.0830083 0
M  V30 1176 C 113.221 -4.2855 0.875426 0
M  V30 1177 C 112.28 -5.25849 0.192042 0
M  V30 1178 O 111.306 -5.63102 0.830921 0
M  V30 1179 N 112.508 -5.70648 -1.06493 0
M  V30 1180 H 115.273 -2.57439 1.53444 0
M  V30 1181 H 112.834 -1.31057 0.950557 0
M  V30 1182 H 114.826 -4.00936 -0.550685 0
M  V30 1183 H 113.396 -2.99947 -0.880386 0
M  V30 1184 H 112.616 -3.63617 1.52238 0
M  V30 1185 H 113.904 -4.85393 1.52548 0
M  V30 1186 H 113.302 -5.42482 -1.60405 0
M  V30 1187 H 111.859 -6.34859 -1.47641 0
M  V30 1188 N 115.292 -0.849877 -1.32721 0
M  V30 1189 C 116.541 -0.447175 -1.96681 0
M  V30 1190 C 116.854 1.00135 -1.68025 0
M  V30 1191 O 118.06 1.50926 -2.25685 0
M  V30 1192 C 116.516 -0.7487 -3.52026 0
M  V30 1193 C 116.124 -2.21264 -3.89546 0
M  V30 1194 C 117.868 -0.413487 -4.22481 0
M  V30 1195 C 115.775 -2.45763 -5.37917 0
M  V30 1196 H 114.705 -0.163486 -0.736063 0
M  V30 1197 H 117.356 -1.03999 -1.51183 0
M  V30 1198 H 115.738 -0.0853727 -3.95908 0
M  V30 1199 H 116.912 -2.91736 -3.56689 0
M  V30 1200 H 115.227 -2.5119 -3.32103 0
M  V30 1201 H 117.824 -0.574017 -5.3161 0
M  V30 1202 H 118.167 0.644492 -4.11281 0
M  V30 1203 H 118.7 -1.03251 -3.84167 0
M  V30 1204 H 115.439 -3.50168 -5.54132 0
M  V30 1205 H 114.959 -1.79864 -5.72197 0
M  V30 1206 H 116.638 -2.29471 -6.0494 0
M  V30 1207 N 116.77 1.45427 -0.607355 0
M  V30 1208 C 118.016 2.0254 -0.102607 0
M  V30 1209 C 118.349 1.47478 1.26348 0
M  V30 1210 O 117.624 0.64939 1.83339 0
M  V30 1211 C 117.907 3.60044 -0.0634347 0
M  V30 1212 C 117.76 4.2544 -1.46017 0
M  V30 1213 C 119.079 4.35646 0.624514 0
M  V30 1214 H 116.198 0.73598 -0.0387607 0
M  V30 1215 H 118.84 1.73284 -0.779282 0
M  V30 1216 H 116.99 3.85101 0.512808 0
M  V30 1217 H 118.662 4.11569 -2.08347 0
M  V30 1218 H 116.905 3.83849 -2.02094 0
M  V30 1219 H 117.576 5.34342 -1.385 0
M  V30 1220 H 120.052 4.15882 0.134723 0
M  V30 1221 H 118.928 5.45376 0.621028 0
M  V30 1222 H 119.189 4.08501 1.69055 0
M  V30 1223 N 118.248 0.346503 1.53744 0
M  V30 1224 C 119.211 -0.496439 2.23759 0
M  V30 1225 C 120.211 -1.0252 1.2388 0
M  V30 1226 O 121.401 -0.913974 1.48297 0
M  V30 1227 C 118.533 -1.69187 2.95954 0
M  V30 1228 H 119.726 0.115952 2.99676 0
M  V30 1229 H 117.279 0.0978939 1.55993 0
M  V30 1230 H 118.014 -2.34288 2.24231 0
M  V30 1231 H 117.799 -1.31989 3.69217 0
M  V30 1232 H 119.289 -2.28969 3.49232 0
M  V30 1233 N 119.726 -1.57421 0.075193 0
M  V30 1234 C 120.689 -2.11791 -0.876203 0
M  V30 1235 C 121.689 -1.04268 -1.22412 0
M  V30 1236 O 122.879 -1.30242 -1.15684 0
M  V30 1237 C 120.011 -2.62207 -2.17854 0
M  V30 1238 H 121.204 -2.9716 -0.40444 0
M  V30 1239 H 118.757 -1.55333 -0.173557 0
M  V30 1240 H 119.492 -1.803 -2.6956 0
M  V30 1241 H 119.277 -3.40802 -1.93897 0
M  V30 1242 H 120.767 -3.04335 -2.85955 0
M  V30 1243 N 121.204 0.198386 -1.56346 0
M  V30 1244 C 122.453 0.917451 -1.79627 0
M  V30 1245 C 122.766 1.8456 -0.64784 0
M  V30 1246 O 123.972 2.60504 -0.764859 0
M  V30 1247 C 122.428 1.68175 -3.18191 0
M  V30 1248 C 122.036 0.798589 -4.40825 0
M  V30 1249 C 123.78 2.39065 -3.50782 0
M  V30 1250 C 121.687 1.56157 -5.70411 0
M  V30 1251 H 120.617 0.346317 -0.669762 0
M  V30 1252 H 123.268 0.170801 -1.82703 0
M  V30 1253 H 121.65 2.47216 -3.09354 0
M  V30 1254 H 122.824 0.0470665 -4.60776 0
M  V30 1255 H 121.139 0.200686 -4.15916 0
M  V30 1256 H 123.736 2.96692 -4.44835 0
M  V30 1257 H 124.079 3.13091 -2.74371 0
M  V30 1258 H 124.612 1.66993 -3.61052 0
M  V30 1259 H 121.351 0.864142 -6.49779 0
M  V30 1260 H 120.871 2.2871 -5.54483 0
M  V30 1261 H 122.55 2.11622 -6.11412 0
M  V30 1262 N 122.682 1.50554 0.465978 0
M  V30 1263 C 123.629 1.6979 1.56333 0
M  V30 1264 C 124.599 0.539239 1.57103 0
M  V30 1265 O 125.784 0.770401 1.74555 0
M  V30 1266 C 122.924 1.80273 2.94271 0
M  V30 1267 C 122.037 3.07674 3.0325 0
M  V30 1268 C 121.172 3.08922 4.32135 0
M  V30 1269 C 120.211 4.30755 4.34875 0
M  V30 1270 N 119.348 4.29714 5.55239 0
M  V30 1271 H 124.188 2.63472 1.39235 0
M  V30 1272 H 121.725 1.30602 0.676873 0
M  V30 1273 H 123.683 1.84332 3.74269 0
M  V30 1274 H 122.313 0.900258 3.09992 0
M  V30 1275 H 121.365 3.13062 2.16094 0
M  V30 1276 H 122.677 3.97642 3.01135 0
M  V30 1277 H 121.831 3.11738 5.20485 0
M  V30 1278 H 120.57 2.16792 4.36866 0
M  V30 1279 H 119.575 4.28146 3.44922 0
M  V30 1280 H 120.8 5.24117 4.31831 0
M  V30 1281 H 118.746 3.4044 5.60746 0
M  V30 1282 H 118.663 5.13456 5.54886 0
M  V30 1283 H 119.931 4.36683 6.457 0
M  V30 1284 N 124.16 -0.719506 1.40217 0
M  V30 1285 C 125.385 -1.51371 1.4178 0
M  V30 1286 C 125.81 -1.88091 0.0182355 0
M  V30 1287 O 125.168 -1.52997 -0.972707 0
M  V30 1288 C 125.216 -2.768 2.31115 0
M  V30 1289 O 124.32 -3.73349 1.7517 0
M  V30 1290 H 123.661 -0.456529 0.482159 0
M  V30 1291 H 126.191 -0.88644 1.844 0
M  V30 1292 H 126.201 -3.25371 2.46167 0
M  V30 1293 H 124.876 -2.49407 3.3282 0
M  V30 1294 H 123.453 -3.32179 1.69444 0
M  V30 1295 N 125.638 -1.25649 -0.95132 0
M  V30 1296 C 127.054 -1.02542 -1.223 0
M  V30 1297 C 127.254 0.255715 -1.99871 0
M  V30 1298 O 126.31 0.967558 -2.33226 0
M  V30 1299 C 127.623 -2.25065 -1.99415 0
M  V30 1300 C 129.171 -2.29861 -2.12446 0
M  V30 1301 C 129.646 -3.52048 -2.92961 0
M  V30 1302 N 131.137 -3.52465 -3.00538 0
M  V30 1303 C 131.872 -4.43672 -3.63239 0
M  V30 1304 N 131.368 -5.45157 -4.27523 0
M  V30 1305 N 133.161 -4.31346 -3.60412 0
M  V30 1306 H 125.312 -2.07951 -0.432471 0
M  V30 1307 H 127.575 -0.91339 -0.253816 0
M  V30 1308 H 127.281 -3.18194 -1.49817 0
M  V30 1309 H 127.155 -2.28502 -3.00111 0
M  V30 1310 H 129.542 -1.37252 -2.61239 0
M  V30 1311 H 129.623 -2.3044 -1.11044 0
M  V30 1312 H 129.267 -4.44981 -2.44856 0
M  V30 1313 H 129.197 -3.48715 -3.94596 0
M  V30 1314 H 131.688 -2.79056 -2.54826 0
M  V30 1315 H 132.001 -6.10958 -4.73234 0
M  V30 1316 H 130.346 -5.49025 -4.26141 0
M  V30 1317 H 133.537 -3.51288 -3.09377 0
M  V30 1318 H 133.71 -5.02624 -4.0899 0
M  V30 1319 N 127.117 1.15442 -1.07289 0
M  V30 1320 C 128.08 2.18358 -0.696591 0
M  V30 1321 C 129.08 1.58637 0.262837 0
M  V30 1322 O 130.27 1.74145 0.0438809 0
M  V30 1323 C 127.402 3.4089 -0.0266151 0
M  V30 1324 H 128.595 2.53162 -1.60776 0
M  V30 1325 H 126.148 1.29893 -0.869342 0
M  V30 1326 H 126.883 3.11653 0.896822 0
M  V30 1327 H 126.668 3.85495 -0.716657 0
M  V30 1328 H 128.158 4.17009 0.222028 0
M  V30 1329 N 128.595 0.856903 1.32268 0
M  V30 1330 C 129.872 0.382583 1.91822 0
M  V30 1331 C 130.252 -1.13407 1.78051 0
M  V30 1332 O 129.6 -1.95673 1.18001 0
M  V30 1333 C 129.81 0.849446 3.38505 0
M  V30 1334 C 131.158 0.867936 4.15634 0
M  V30 1335 O 132.182 0.794232 3.47232 0
M  V30 1336 O 131.041 0.972286 5.37781 0
M  V30 1337 H 128.135 0.112014 0.819379 0
M  V30 1338 H 130.681 0.943952 1.41024 0
M  V30 1339 H 129.453 1.89267 3.42482 0
M  V30 1340 H 129.076 0.265652 3.96712 0
M  V30 1341 N 130.073 -1.45103 0.615059 0
M  V30 1342 C 131.005 -2.28786 -0.13762 0
M  V30 1343 C 132.018 -1.40376 -0.824525 0
M  V30 1344 O 133.207 -1.64681 -0.688662 0
M  V30 1345 C 130.307 -3.16322 -1.21628 0
M  V30 1346 C 129.48 -4.33054 -0.615039 0
M  V30 1347 C 128.539 -5.01743 -1.58556 0
M  V30 1348 O 127.565 -5.58293 -1.10895 0
M  V30 1349 N 128.767 -5.01714 -2.91998 0
M  V30 1350 H 131.532 -2.94025 0.580483 0
M  V30 1351 H 129.093 -1.55373 0.45507 0
M  V30 1352 H 131.085 -3.59139 -1.86552 0
M  V30 1353 H 129.655 -2.52943 -1.83681 0
M  V30 1354 H 128.875 -3.93627 0.21245 0
M  V30 1355 H 130.163 -5.08431 -0.193704 0
M  V30 1356 H 129.561 -4.57075 -3.33316 0
M  V30 1357 H 128.118 -5.48371 -3.52325 0
M  V30 1358 N 131.551 -0.354651 -1.53558 0
M  V30 1359 C 132.481 0.489091 -2.2832 0
M  V30 1360 C 133.462 1.09324 -1.30316 0
M  V30 1361 O 134.647 1.11255 -1.59173 0
M  V30 1362 C 131.777 1.63456 -3.0643 0
M  V30 1363 C 130.731 1.1582 -4.12031 0
M  V30 1364 C 130.057 2.39305 -4.7816 0
M  V30 1365 C 131.357 0.250731 -5.21698 0
M  V30 1366 H 133.051 -0.134614 -2.99097 0
M  V30 1367 H 130.597 -0.0661826 -1.43848 0
M  V30 1368 H 132.55 2.23136 -3.57475 0
M  V30 1369 H 131.274 2.28533 -2.33325 0
M  V30 1370 H 129.933 0.584146 -3.61916 0
M  V30 1371 H 129.581 3.02814 -4.01637 0
M  V30 1372 H 129.281 2.08109 -5.49513 0
M  V30 1373 H 130.805 2.99691 -5.31994 0
M  V30 1374 H 132.219 0.754695 -5.68311 0
M  V30 1375 H 130.616 0.0301468 -6.00092 0
M  V30 1376 H 131.686 -0.710125 -4.79672 0
M  V30 1377 N 133.029 1.57378 -0.0835403 0
M  V30 1378 C 134.277 1.93547 0.581718 0
M  V30 1379 C 134.598 0.96524 1.69435 0
M  V30 1380 O 133.868 0.0153369 1.95894 0
M  V30 1381 H 132.448 0.714521 0.217874 0
M  V30 1382 H 135.11 1.94366 -0.144158 0
M  V30 1383 H 134.206 2.95665 0.999423 0
M  V30 1384 N 134.507 -0.190092 1.56449 0
M  V30 1385 C 135.47 -1.21925 1.9408 0
M  V30 1386 C 136.47 -1.38176 0.822431 0
M  V30 1387 O 137.66 -1.35903 1.08977 0
M  V30 1388 C 134.792 -2.58773 2.21922 0
M  V30 1389 H 135.985 -0.897464 2.86157 0
M  V30 1390 H 133.538 -0.43181 1.50217 0
M  V30 1391 H 134.273 -2.95998 1.32499 0
M  V30 1392 H 134.058 -2.48348 3.03424 0
M  V30 1393 H 135.548 -3.32978 2.52022 0
M  V30 1394 N 135.985 -1.50799 -0.457987 0
M  V30 1395 C 137.21 -1.66496 -1.23668 0
M  V30 1396 C 137.635 -0.353288 -1.84752 0
M  V30 1397 O 136.993 0.684346 -1.67888 0
M  V30 1398 C 137.041 -2.76763 -2.3116 0
M  V30 1399 O 136.145 -2.38928 -3.36136 0
M  V30 1400 H 135.486 -0.555828 -0.363252 0
M  V30 1401 H 138.016 -1.9725 -0.543474 0
M  V30 1402 H 138.026 -3.00232 -2.76269 0
M  V30 1403 H 136.701 -3.71954 -1.86073 0
M  V30 1404 H 135.278 -2.25953 -2.96647 0
M  V30 1405 N 137.463 0.71206 -1.40597 0
M  V30 1406 C 138.709 1.47416 -1.39271 0
M  V30 1407 C 139.042 1.942 0.00388791 0
M  V30 1408 O 138.317 1.68403 0.973179 0
M  V30 1409 C 138.6 2.69774 -2.38525 0
M  V30 1410 C 138.453 2.28861 -3.87224 0
M  V30 1411 C 139.772 3.71939 -2.35264 0
M  V30 1412 H 136.891 0.534713 -0.5072 0
M  V30 1413 H 139.533 0.812375 -1.71757 0
M  V30 1414 H 137.683 3.26238 -2.10953 0
M  V30 1415 H 139.355 1.77852 -4.25636 0
M  V30 1416 H 137.598 1.60824 -4.02887 0
M  V30 1417 H 138.269 3.16584 -4.52193 0
M  V30 1418 H 140.745 3.25113 -2.59694 0
M  V30 1419 H 139.621 4.55186 -3.06753 0
M  V30 1420 H 139.882 4.20484 -1.36549 0
M  V30 1421 N 138.941 1.26152 0.944643 0
M  V30 1422 C 140.187 1.11657 1.69294 0
M  V30 1423 C 140.52 -0.339926 1.91202 0
M  V30 1424 O 139.795 -1.24994 1.49019 0
M  V30 1425 C 140.078 1.88236 3.06984 0
M  V30 1426 C 139.931 3.41772 2.92424 0
M  V30 1427 C 141.25 1.67343 4.07043 0
M  V30 1428 H 138.369 0.407004 0.614424 0
M  V30 1429 H 141.011 1.55106 1.09737 0
M  V30 1430 H 139.161 1.51308 3.57824 0
M  V30 1431 H 140.833 3.88433 2.48832 0
M  V30 1432 H 139.076 3.68974 2.28124 0
M  V30 1433 H 139.747 3.90579 3.90067 0
M  V30 1434 H 142.223 1.99509 3.65151 0
M  V30 1435 H 141.099 2.23346 5.01406 0
M  V30 1436 H 141.36 0.617158 4.37771 0
M  V30 1437 N 140.419 -1.14872 1.07899 0
M  V30 1438 C 141.665 -1.86064 0.806725 0
M  V30 1439 C 141.998 -1.82434 -0.665706 0
M  V30 1440 O 141.273 -1.25138 -1.48899 0
M  V30 1441 C 141.556 -3.34929 1.32267 0
M  V30 1442 C 141.409 -3.47161 2.86006 0
M  V30 1443 C 142.728 -4.29863 0.943717 0
M  V30 1444 H 139.847 -0.675591 0.294526 0
M  V30 1445 H 142.489 -1.34925 1.33773 0
M  V30 1446 H 140.639 -3.78611 0.870974 0
M  V30 1447 H 142.311 -3.12302 3.39507 0
M  V30 1448 H 140.554 -2.88539 3.23925 0
M  V30 1449 H 141.225 -4.51777 3.17177 0
M  V30 1450 H 143.701 -3.9417 1.33302 0
M  V30 1451 H 142.577 -5.32494 1.33198 0
M  V30 1452 H 142.838 -4.41846 -0.149796 0
M  V30 1453 N 141.898 -0.863906 -1.31812 0
M  V30 1454 C 143.123 -0.48527 -2.01643 0
M  V30 1455 C 143.548 0.913058 -1.64453 0
M  V30 1456 O 142.906 1.6014 -0.849985 0
M  V30 1457 C 142.954 -0.642625 -3.54828 0
M  V30 1458 O 142.058 0.320659 -4.11151 0
M  V30 1459 H 141.399 -0.193793 -0.635091 0
M  V30 1460 H 143.929 -1.16565 -1.68148 0
M  V30 1461 H 143.939 -0.533628 -4.04495 0
M  V30 1462 H 142.614 -1.66227 -3.81237 0
M  V30 1463 H 141.191 0.167126 -3.72525 0
M  V30 1464 N 143.376 1.44774 -0.622745 0
M  V30 1465 C 144.309 2.27792 0.136329 0
M  V30 1466 C 145.287 1.38041 0.859264 0
M  V30 1467 O 146.471 1.67478 0.86506 0
M  V30 1468 C 143.598 3.16776 1.19878 0
M  V30 1469 C 142.644 4.22575 0.57731 0
M  V30 1470 S 143.477 5.31825 -0.626294 0
M  V30 1471 C 144.633 6.24377 0.436378 0
M  V30 1472 H 144.866 2.91824 -0.567967 0
M  V30 1473 H 142.399 1.48838 -0.410677 0
M  V30 1474 H 144.357 3.68596 1.80686 0
M  V30 1475 H 143.018 2.5198 1.87523 0
M  V30 1476 H 142.211 4.84818 1.37721 0
M  V30 1477 H 141.813 3.73974 0.0440439 0
M  V30 1478 H 144.105 6.64689 1.31128 0
M  V30 1479 H 145.048 7.07941 -0.150271 0
M  V30 1480 H 145.456 5.59381 0.758513 0
M  V30 1481 N 144.854 0.36279 1.53368 0
M  V30 1482 C 146.1 -0.228113 2.01513 0
M  V30 1483 C 146.433 -1.48648 1.2497 0
M  V30 1484 O 145.708 -1.91459 0.342616 0
M  V30 1485 C 145.991 -0.522884 3.56284 0
M  V30 1486 C 145.844 0.74892 4.43521 0
M  V30 1487 C 147.163 -1.32461 4.19693 0
M  V30 1488 H 144.282 -0.0814343 0.732487 0
M  V30 1489 H 146.924 0.48713 1.83649 0
M  V30 1490 H 145.074 -1.1322 3.71636 0
M  V30 1491 H 146.746 1.38648 4.39971 0
M  V30 1492 H 144.989 1.36986 4.11603 0
M  V30 1493 H 145.66 0.497667 5.49752 0
M  V30 1494 H 148.136 -0.809203 4.08156 0
M  V30 1495 H 147.012 -1.49961 5.28018 0
M  V30 1496 H 147.273 -2.33232 3.75573 0
M  V30 1497 N 146.332 -1.57332 0.0918853 0
M  V30 1498 C 147.242 -2.17368 -0.882505 0
M  V30 1499 C 148.258 -1.14226 -1.31257 0
M  V30 1500 O 149.434 -1.46582 -1.38115 0
M  V30 1501 C 146.499 -2.73962 -2.12476 0
M  V30 1502 C 145.56 -3.92048 -1.7492 0
M  V30 1503 C 144.793 -4.45933 -2.93223 0
M  V30 1504 O 145.016 -3.98764 -4.07852 0
M  V30 1505 O 143.95 -5.36999 -2.71875 0
M  V30 1506 H 147.776 -3.01031 -0.40172 0
M  V30 1507 H 145.361 -1.48813 -0.132291 0
M  V30 1508 H 147.243 -3.10147 -2.85283 0
M  V30 1509 H 145.918 -1.93347 -2.59613 0
M  V30 1510 H 144.825 -3.6068 -0.993025 0
M  V30 1511 H 146.158 -4.74017 -1.32548 0
M  V30 1512 N 147.81 0.181792 -1.56548 0
M  V30 1513 C 149.226 0.53316 -1.50431 0
M  V30 1514 C 149.426 1.85184 -0.794297 0
M  V30 1515 O 148.482 2.50058 -0.350318 0
M  V30 1516 C 149.795 0.575597 -2.9514 0
M  V30 1517 C 151.343 0.663519 -3.05886 0
M  V30 1518 C 151.818 0.736946 -4.52032 0
M  V30 1519 N 153.309 0.800118 -4.56237 0
M  V30 1520 C 154.044 0.877327 -5.66649 0
M  V30 1521 N 153.54 0.916016 -6.86718 0
M  V30 1522 N 155.333 0.915542 -5.54594 0
M  V30 1523 H 147.484 -0.683025 -2.01118 0
M  V30 1524 H 149.747 -0.244988 -0.915797 0
M  V30 1525 H 149.453 -0.324482 -3.502 0
M  V30 1526 H 149.327 1.42572 -3.49218 0
M  V30 1527 H 151.714 1.55403 -2.50867 0
M  V30 1528 H 151.795 -0.21307 -2.54911 0
M  V30 1529 H 151.439 -0.149262 -5.07681 0
M  V30 1530 H 151.369 1.62953 -5.00753 0
M  V30 1531 H 153.86 0.778926 -3.69785 0
M  V30 1532 H 154.173 0.975813 -7.66614 0
M  V30 1533 H 152.518 0.884469 -6.89349 0
M  V30 1534 H 155.709 0.882245 -4.59711 0
M  V30 1535 H 155.882 0.972253 -6.40665 0
M  V30 1536 N 149.288 1.51039 0.449983 0
M  V30 1537 C 150.513 1.6715 1.22783 0
M  V30 1538 C 150.938 0.363081 1.84563 0
M  V30 1539 O 150.296 -0.675433 1.68249 0
M  V30 1540 C 150.344 2.77985 2.29689 0
M  V30 1541 O 149.448 2.40707 3.34864 0
M  V30 1542 H 148.789 0.557746 0.360299 0
M  V30 1543 H 151.319 1.97535 0.533005 0
M  V30 1544 H 151.329 3.01693 2.74673 0
M  V30 1545 H 150.004 3.72935 1.84098 0
M  V30 1546 H 148.581 2.27523 2.95445 0
M  V30 1547 N 150.766 -0.704594 1.40972 0
M  V30 1548 C 152.014 -1.46169 1.39568 0
M  V30 1549 C 152.335 -1.95 0.00253745 0
M  V30 1550 O 151.605 -1.71095 -0.954114 0
M  V30 1551 H 150.185 -0.542326 0.513704 0
M  V30 1552 H 152.847 -0.834553 1.76128 0
M  V30 1553 H 151.943 -2.32922 2.07735 0
M  V30 1554 N 152.244 -1.26651 -0.937939 0
M  V30 1555 C 153.49 -1.12553 -1.687 0
M  V30 1556 C 153.823 0.329782 -1.91379 0
M  V30 1557 O 153.098 1.24202 -1.4968 0
M  V30 1558 C 153.381 -1.89862 -3.05981 0
M  V30 1559 C 153.234 -3.43318 -2.90607 0
M  V30 1560 C 154.553 -1.69499 -4.0615 0
M  V30 1561 H 151.672 -0.410257 -0.612257 0
M  V30 1562 H 154.314 -1.55685 -1.08913 0
M  V30 1563 H 152.464 -1.53204 -3.57017 0
M  V30 1564 H 154.136 -3.89747 -2.46769 0
M  V30 1565 H 152.379 -3.70179 -2.26164 0
M  V30 1566 H 153.05 -3.92642 -3.8799 0
M  V30 1567 H 155.526 -2.01442 -3.64088 0
M  V30 1568 H 154.402 -2.26002 -5.00214 0
M  V30 1569 H 154.663 -0.640365 -4.37438 0
M  V30 1570 N 153.722 1.14298 -1.08507 0
M  V30 1571 C 154.632 2.23027 -0.727753 0
M  V30 1572 C 155.648 1.71952 0.26619 0
M  V30 1573 O 156.824 2.011 0.109882 0
M  V30 1574 C 153.889 3.46403 -0.143541 0
M  V30 1575 C 152.95 4.12413 -1.19223 0
M  V30 1576 C 152.183 5.29899 -0.635798 0
M  V30 1577 O 152.406 5.67796 0.544393 0
M  V30 1578 O 151.34 5.85717 -1.38634 0
M  V30 1579 H 155.166 2.55945 -1.63481 0
M  V30 1580 H 152.751 1.22248 -0.858817 0
M  V30 1581 H 154.633 4.21018 0.179404 0
M  V30 1582 H 153.308 3.15206 0.736659 0
M  V30 1583 H 152.215 3.39667 -1.56772 0
M  V30 1584 H 153.548 4.47718 -2.04474 0
M  V30 1585 N 155.201 0.870884 1.31352 0
M  V30 1586 C 156.164 0.332243 2.26779 0
M  V30 1587 C 157.164 -0.517302 1.52252 0
M  V30 1588 O 158.354 -0.326477 1.71113 0
M  V30 1589 C 155.486 -0.528066 3.36785 0
M  V30 1590 H 156.679 1.17469 2.75937 0
M  V30 1591 H 154.232 0.64655 1.423 0
M  V30 1592 H 154.967 -1.39167 2.92922 0
M  V30 1593 H 154.752 0.0802582 3.92018 0
M  V30 1594 H 156.242 -0.897179 4.07849 0
M  V30 1595 N 156.679 -1.44442 0.630414 0
M  V30 1596 C 157.919 -2.03934 0.137919 0
M  V30 1597 C 158.283 -1.48509 -1.21692 0
M  V30 1598 O 159.484 -1.99499 -1.80149 0
M  V30 1599 C 157.755 -3.57187 0.123373 0
M  V30 1600 S 159.314 -4.37741 -0.304604 0
M  V30 1601 H 156.132 -0.708401 0.0607353 0
M  V30 1602 H 158.734 -1.76835 0.833643 0
M  V30 1603 H 157.438 -3.95032 1.11256 0
M  V30 1604 H 156.969 -3.88895 -0.59362 0
M  V30 1605 H 158.984 -4.71403 -1.54897 0
M  V30 1606 N 158.157 -0.370918 -1.53173 0
M  V30 1607 C 159.104 0.473035 -2.259 0
M  V30 1608 C 160.074 1.07311 -1.26781 0
M  V30 1609 O 161.259 1.1046 -1.55574 0
M  V30 1610 C 158.399 1.60405 -3.05556 0
M  V30 1611 C 157.512 1.02863 -4.19575 0
M  V30 1612 C 156.647 2.12918 -4.86661 0
M  V30 1613 C 155.686 1.52869 -5.92704 0
M  V30 1614 N 154.823 2.56779 -6.53459 0
M  V30 1615 H 159.663 -0.153649 -2.97604 0
M  V30 1616 H 157.2 -0.0875946 -1.46839 0
M  V30 1617 H 159.158 2.27034 -3.50016 0
M  V30 1618 H 157.788 2.20131 -2.36097 0
M  V30 1619 H 156.84 0.252465 -3.79561 0
M  V30 1620 H 158.152 0.549642 -4.95762 0
M  V30 1621 H 157.306 2.87356 -5.34333 0
M  V30 1622 H 156.045 2.6417 -4.09958 0
M  V30 1623 H 155.05 0.769479 -5.44389 0
M  V30 1624 H 156.275 1.02435 -6.7133 0
M  V30 1625 H 154.221 3.07235 -5.79606 0
M  V30 1626 H 154.138 2.13583 -7.25202 0
M  V30 1627 H 155.406 3.30903 -7.05779 0
M  V30 1628 N 159.635 1.57281 -0.100228 0
M  V30 1629 C 160.598 2.13158 0.842398 0
M  V30 1630 C 161.598 1.06202 1.20738 0
M  V30 1631 O 162.788 1.32066 1.13597 0
M  V30 1632 C 159.92 2.65639 2.13655 0
M  V30 1633 H 161.113 2.97766 0.357114 0
M  V30 1634 H 158.666 1.5559 0.148823 0
M  V30 1635 H 159.401 1.84566 2.66657 0
M  V30 1636 H 159.186 3.43844 1.88451 0
M  V30 1637 H 160.676 3.08846 2.81077 0
M  V30 1638 N 161.113 -0.173488 1.56642 0
M  V30 1639 C 162.076 -1.19859 1.95362 0
M  V30 1640 C 163.076 -1.37296 0.83704 0
M  V30 1641 O 164.266 -1.34739 1.10413 0
M  V30 1642 C 161.398 -2.56405 2.24654 0
M  V30 1643 H 162.591 -0.867062 2.87092 0
M  V30 1644 H 160.144 -0.415853 1.50666 0
M  V30 1645 H 160.879 -2.94576 1.35631 0
M  V30 1646 H 160.664 -2.45115 3.06041 0
M  V30 1647 H 162.154 -3.30287 2.5554 0
M  V30 1648 N 162.591 -1.51276 -0.441967 0
M  V30 1649 C 163.837 -1.63958 -1.19355 0
M  V30 1650 C 164.17 -0.352543 -1.90973 0
M  V30 1651 O 163.445 0.647627 -1.83401 0
M  V30 1652 C 163.728 -2.83979 -2.21422 0
M  V30 1653 C 163.581 -4.22646 -1.53918 0
M  V30 1654 C 164.9 -2.99521 -3.22451 0
M  V30 1655 H 162.019 -0.596709 -0.432559 0
M  V30 1656 H 164.661 -1.83748 -0.483398 0
M  V30 1657 H 162.811 -2.67237 -2.81987 0
M  V30 1658 H 164.483 -4.51045 -0.967256 0
M  V30 1659 H 162.726 -4.25558 -0.841615 0
M  V30 1660 H 163.397 -5.02609 -2.28229 0
M  V30 1661 H 165.873 -3.14944 -2.71937 0
M  V30 1662 H 164.749 -3.85072 -3.91166 0
M  V30 1663 H 165.01 -2.11391 -3.88287 0
M  V30 1664 N 164.069 0.697108 -1.41344 0
M  V30 1665 C 165.019 1.80313 -1.39539 0
M  V30 1666 C 166.003 1.58618 -0.270001 0
M  V30 1667 O 167.195 1.69477 -0.510551 0
M  V30 1668 C 164.324 3.18606 -1.27848 0
M  V30 1669 C 163.41 3.46001 -2.45244 0
M  V30 1670 N 163.801 3.44103 -3.70711 0
M  V30 1671 C 162.099 3.76542 -2.39023 0
M  V30 1672 C 162.8 3.7036 -4.48563 0
M  V30 1673 N 161.776 3.90027 -3.78655 0
M  V30 1674 H 165.578 1.77207 -2.34468 0
M  V30 1675 H 163.092 0.897031 -1.35378 0
M  V30 1676 H 165.089 3.97833 -1.24637 0
M  V30 1677 H 163.749 3.22925 -0.339032 0
M  V30 1678 H 164.76 3.2452 -4.03618 0
M  V30 1679 H 161.437 3.88241 -1.53542 0
M  V30 1680 H 162.827 3.75042 -5.57488 0
M  V30 1681 N 165.547 1.27147 0.931209 0
M  V30 1682 C 166.495 1.09398 2.05268 0
M  V30 1683 C 167.489 0.0180591 1.6939 0
M  V30 1684 O 168.695 0.17551 1.79142 0
M  V30 1685 H 165.07 0.336986 0.672268 0
M  V30 1686 H 167.041 2.04416 2.17386 0
M  V30 1687 C 165.79 0.75424 3.39421 0
M  V30 1688 H 165.113 1.57404 3.67511 0
M  V30 1689 H 166.553 0.669903 4.18674 0
M  V30 1690 C 165.012 -0.541197 3.32525 0
M  V30 1691 O 165.542 -1.57664 3.69466 0
M  V30 1692 N 163.748 -0.535517 2.85623 0
M  V30 1693 H 163.295 0.307511 2.55758 0
M  V30 1694 H 163.253 -1.40236 2.81392 0
M  V30 1695 N 167.025 -1.13721 1.09112 0
M  V30 1696 C 167.955 -2.21148 0.749385 0
M  V30 1697 C 168.936 -1.6792 -0.271475 0
M  V30 1698 O 170.121 -1.93693 -0.140251 0
M  V30 1699 C 167.251 -3.46905 0.165659 0
M  V30 1700 C 166.205 -4.13203 1.11567 0
M  V30 1701 C 165.531 -5.33248 0.393809 0
M  V30 1702 C 166.831 -4.60912 2.45678 0
M  V30 1703 H 168.525 -2.4999 1.64758 0
M  V30 1704 H 166.071 -1.20156 0.793626 0
M  V30 1705 H 168.024 -4.21313 -0.085466 0
M  V30 1706 H 166.748 -3.17449 -0.767714 0
M  V30 1707 H 165.407 -3.40758 1.35202 0
M  V30 1708 H 165.055 -5.00054 -0.543599 0
M  V30 1709 H 164.755 -5.78552 1.02721 0
M  V30 1710 H 166.279 -6.10413 0.150908 0
M  V30 1711 H 167.693 -5.26759 2.26269 0
M  V30 1712 H 166.09 -5.16944 3.04776 0
M  V30 1713 H 167.16 -3.75603 3.06677 0
M  V30 1714 N 168.503 -0.877838 -1.30888 0
M  V30 1715 C 169.433 -0.35534 -2.3078 0
M  V30 1716 C 170.414 0.557994 -1.60687 0
M  V30 1717 O 171.599 0.473355 -1.88343 0
M  V30 1718 C 168.729 0.437221 -3.44537 0
M  V30 1719 C 167.683 -0.383715 -4.26276 0
M  V30 1720 C 167.009 0.535014 -5.32017 0
M  V30 1721 C 168.309 -1.62201 -4.96476 0
M  V30 1722 H 170.003 -1.19007 -2.74732 0
M  V30 1723 H 167.549 -0.573698 -1.32078 0
M  V30 1724 H 169.502 0.813334 -4.13477 0
M  V30 1725 H 168.226 1.30553 -2.99372 0
M  V30 1726 H 166.885 -0.741874 -3.59015 0
M  V30 1727 H 166.533 1.40083 -4.831 0
M  V30 1728 H 166.233 -0.0104211 -5.87599 0
M  V30 1729 H 167.757 0.907799 -6.03814 0
M  V30 1730 H 169.171 -1.31689 -5.5797 0
M  V30 1731 H 167.568 -2.10711 -5.61891 0
M  V30 1732 H 168.638 -2.37044 -4.23011 0
M  V30 1733 N 169.982 1.44106 -0.638065 0
M  V30 1734 C 170.945 2.29138 0.0531013 0
M  V30 1735 C 171.945 1.41409 0.765506 0
M  V30 1736 O 173.135 1.63206 0.609046 0
M  V30 1737 C 170.267 3.23144 1.08584 0
M  V30 1738 H 171.46 2.91739 -0.694883 0
M  V30 1739 H 169.013 1.51134 -0.398538 0
M  V30 1740 H 169.748 2.65408 1.86357 0
M  V30 1741 H 169.533 3.87804 0.578852 0
M  V30 1742 H 171.023 3.87004 1.56899 0
M  V30 1743 N 171.46 0.379036 1.52974 0
M  V30 1744 C 172.392 -0.495963 2.2377 0
M  V30 1745 C 173.405 -1.03517 1.25651 0
M  V30 1746 O 174.594 -0.939249 1.51791 0
M  V30 1747 C 171.694 -1.69894 2.93239 0
M  V30 1748 C 170.867 -1.2889 4.17979 0
M  V30 1749 C 169.926 -2.35543 4.70538 0
M  V30 1750 O 168.952 -1.97375 5.33883 0
M  V30 1751 N 170.154 -3.67318 4.49508 0
M  V30 1752 H 172.919 0.110523 2.99496 0
M  V30 1753 H 170.48 0.204878 1.60598 0
M  V30 1754 H 172.472 -2.40747 3.25304 0
M  V30 1755 H 171.042 -2.212 2.20883 0
M  V30 1756 H 170.262 -0.409676 3.92065 0
M  V30 1757 H 171.55 -0.991443 4.99047 0
M  V30 1758 H 170.948 -4.01095 3.98923 0
M  V30 1759 H 169.505 -4.34235 4.8609 0
M  V30 1760 N 172.938 -1.57226 0.108567 0
M  V30 1761 C 174.354 -1.5766 -0.248058 0
M  V30 1762 C 174.554 -1.12063 -1.67464 0
M  V30 1763 O 173.61 -0.803236 -2.39383 0
M  V30 1764 C 174.923 -3.0069 -0.0242287 0
M  V30 1765 C 176.471 -3.12868 -0.0909372 0
M  V30 1766 C 176.946 -4.57879 0.105067 0
M  V30 1767 N 178.437 -4.63172 0.0506846 0
M  V30 1768 C 179.172 -5.73126 0.177396 0
M  V30 1769 N 178.668 -6.91866 0.359696 0
M  V30 1770 N 180.461 -5.61977 0.117709 0
M  V30 1771 H 172.612 -1.85169 1.04049 0
M  V30 1772 H 174.875 -0.85529 0.40888 0
M  V30 1773 H 174.581 -3.38299 0.961604 0
M  V30 1774 H 174.455 -3.6945 -0.76068 0
M  V30 1775 H 176.842 -2.75124 -1.06729 0
M  V30 1776 H 176.923 -2.46672 0.677225 0
M  V30 1777 H 176.567 -4.96321 1.07834 0
M  V30 1778 H 176.497 -5.22153 -0.682954 0
M  V30 1779 H 178.988 -3.778 -0.0871266 0
M  V30 1780 H 179.301 -7.71503 0.447529 0
M  V30 1781 H 177.646 -6.93874 0.395536 0
M  V30 1782 H 180.837 -4.68094 -0.0236741 0
M  V30 1783 H 181.01 -6.47627 0.219905 0
M  V30 1784 N 174.416 0.165178 -1.56732 0
M  V30 1785 C 175.662 0.882112 -1.82611 0
M  V30 1786 C 175.995 1.81628 -0.687378 0
M  V30 1787 O 175.27 1.92009 0.310267 0
M  V30 1788 C 175.553 1.67245 -3.18906 0
M  V30 1789 C 175.406 0.760987 -4.43316 0
M  V30 1790 C 176.725 2.63884 -3.52212 0
M  V30 1791 H 173.844 0.319242 -0.664269 0
M  V30 1792 H 176.486 0.148052 -1.89422 0
M  V30 1793 H 174.636 2.29824 -3.1323 0
M  V30 1794 H 176.308 0.147596 -4.61064 0
M  V30 1795 H 174.551 0.0694102 -4.33744 0
M  V30 1796 H 175.222 1.34962 -5.35247 0
M  V30 1797 H 177.698 2.11429 -3.58381 0
M  V30 1798 H 176.574 3.16245 -4.48643 0
M  V30 1799 H 176.835 3.44377 -2.77231 0
M  V30 1800 N 175.894 1.51508 0.433938 0
M  V30 1801 C 177.119 1.68443 1.21003 0
M  V30 1802 C 177.544 0.382636 1.84167 0
M  V30 1803 O 176.902 -0.65755 1.68956 0
M  V30 1804 C 176.95 2.80405 2.26727 0
M  V30 1805 O 176.054 2.44245 3.32292 0
M  V30 1806 H 175.395 0.561536 0.354363 0
M  V30 1807 H 177.925 1.9809 0.512024 0
M  V30 1808 H 177.935 3.0459 2.71457 0
M  V30 1809 H 176.61 3.74867 1.80132 0
M  V30 1810 H 175.187 2.30644 2.93015 0
M  V30 1811 N 177.372 -0.689602 1.41712 0
M  V30 1812 C 178.62 -1.4468 1.4111 0
M  V30 1813 C 178.941 -1.94986 0.0232196 0
M  V30 1814 O 178.211 -1.72097 -0.935913 0
M  V30 1815 H 176.791 -0.536847 0.519427 0
M  V30 1816 H 179.453 -0.815825 1.77004 0
M  V30 1817 H 178.549 -2.30706 2.10193 0
M  V30 1818 N 178.85 -1.27639 -0.924453 0
M  V30 1819 C 179.78 -1.13166 -2.04244 0
M  V30 1820 C 180.761 -0.032256 -1.70069 0
M  V30 1821 O 181.946 -0.207328 -1.9309 0
M  V30 1822 C 179.076 -0.781496 -3.38393 0
M  V30 1823 C 178.03 -1.83449 -3.86692 0
M  V30 1824 C 177.356 -1.33822 -5.17683 0
M  V30 1825 C 178.656 -3.23917 -4.09726 0
M  V30 1826 H 180.35 -2.06689 -2.1661 0
M  V30 1827 H 177.896 -0.995136 -1.04082 0
M  V30 1828 H 179.849 -0.667057 -4.16087 0
M  V30 1829 H 178.573 0.189439 -3.2605 0
M  V30 1830 H 177.232 -1.93789 -3.11193 0
M  V30 1831 H 176.88 -0.35665 -5.01734 0
M  V30 1832 H 176.58 -2.04224 -5.50968 0
M  V30 1833 H 178.104 -1.23679 -5.97943 0
M  V30 1834 H 179.518 -3.16559 -4.77978 0
M  V30 1835 H 177.915 -3.92059 -4.54324 0
M  V30 1836 H 178.985 -3.68729 -3.14908 0
M  V30 1837 N 180.328 1.1314 -1.09713 0
M  V30 1838 C 181.577 1.83838 -0.829851 0
M  V30 1839 C 181.89 1.84599 0.646728 0
M  V30 1840 O 183.096 2.51218 1.02965 0
M  V30 1841 C 181.552 3.30069 -1.43466 0
M  V30 1842 C 181.16 3.37688 -2.94399 0
M  V30 1843 C 182.904 4.05788 -1.24645 0
M  V30 1844 C 180.811 4.78209 -3.47952 0
M  V30 1845 H 179.741 0.68877 -0.306777 0
M  V30 1846 H 182.392 1.27448 -1.3202 0
M  V30 1847 H 180.774 3.8628 -0.871996 0
M  V30 1848 H 181.948 2.91456 -3.56918 0
M  V30 1849 H 180.263 2.75436 -3.12289 0
M  V30 1850 H 182.86 5.09535 -1.62107 0
M  V30 1851 H 183.203 4.15878 -0.187357 0
M  V30 1852 H 183.736 3.55915 -1.77678 0
M  V30 1853 H 180.475 4.73311 -4.53495 0
M  V30 1854 H 179.995 5.24924 -2.90198 0
M  V30 1855 H 181.674 5.47133 -3.45332 0
M  V30 1856 N 181.806 0.884767 1.30421 0
M  V30 1857 C 183.055 0.499164 1.95426 0
M  V30 1858 C 183.368 -0.95645 1.70621 0
M  V30 1859 O 184.574 -1.44889 2.29607 0
M  V30 1860 C 183.03 0.84177 3.49917 0
M  V30 1861 C 182.638 2.31514 3.83543 0
M  V30 1862 C 184.382 0.525355 4.21237 0
M  V30 1863 C 182.289 2.59939 5.31212 0
M  V30 1864 H 181.219 0.182944 0.73147 0
M  V30 1865 H 183.87 1.07971 1.48373 0
M  V30 1866 H 182.252 0.190311 3.95542 0
M  V30 1867 H 183.426 3.0109 3.48829 0
M  V30 1868 H 181.741 2.59907 3.25326 0
M  V30 1869 H 184.338 0.714762 5.29901 0
M  V30 1870 H 184.681 -0.535222 4.12845 0
M  V30 1871 H 185.214 1.134 3.81294 0
M  V30 1872 H 181.953 3.64736 5.44654 0
M  V30 1873 H 181.473 1.94972 5.67227 0
M  V30 1874 H 183.152 2.45429 5.98643 0
M  V30 1875 N 183.284 -1.43765 0.645699 0
M  V30 1876 C 184.232 -2.32516 -0.0624849 0
M  V30 1877 C 185.226 -1.48183 -0.820855 0
M  V30 1878 O 186.432 -1.64439 -0.732106 0
M  V30 1879 H 182.807 -0.750989 -0.0389864 0
M  V30 1880 H 184.778 -2.89979 0.703892 0
M  V30 1881 C 183.527 -3.32389 -1.02044 0
M  V30 1882 H 182.85 -3.97301 -0.446312 0
M  V30 1883 H 184.29 -3.97138 -1.48517 0
M  V30 1884 C 182.749 -2.62416 -2.11281 0
M  V30 1885 O 183.279 -2.434 -3.19561 0
M  V30 1886 N 181.485 -2.21913 -1.87624 0
M  V30 1887 H 181.032 -2.37578 -0.995703 0
M  V30 1888 H 180.99 -1.75424 -2.6091 0
M  V30 1889 N 184.763 -0.387143 -1.52771 0
M  V30 1890 C 185.993 0.195585 -2.05672 0
M  V30 1891 C 186.401 1.41241 -1.25887 0
M  V30 1892 O 185.744 1.81265 -0.298081 0
M  V30 1893 C 185.806 0.632327 -3.53895 0
M  V30 1894 C 185.47 -0.470739 -4.54569 0
M  V30 1895 C 186.467 -1.32746 -5.02667 0
M  V30 1896 C 184.152 -0.637151 -4.98243 0
M  V30 1897 C 186.146 -2.33574 -5.93061 0
M  V30 1898 C 183.833 -1.64877 -5.88438 0
M  V30 1899 C 184.831 -2.49649 -6.35739 0
M  V30 1900 O 184.519 -3.49082 -7.24153 0
M  V30 1901 H 184.251 0.033658 -0.675162 0
M  V30 1902 H 186.805 -0.550221 -1.97893 0
M  V30 1903 H 185.035 1.43008 -3.59285 0
M  V30 1904 H 186.724 1.14048 -3.89548 0
M  V30 1905 H 187.49 -1.21019 -4.69659 0
M  V30 1906 H 183.369 0.0129567 -4.60998 0
M  V30 1907 H 186.913 -2.99777 -6.29904 0
M  V30 1908 H 182.81 -1.76643 -6.2086 0
M  V30 1909 H 183.578 -3.45065 -7.42208 0
M  V30 1910 N 186.241 1.57166 -0.116904 0
M  V30 1911 C 187.652 1.82169 0.408809 0
M  V30 1912 C 188.003 1.03393 1.66746 0
M  V30 1913 O 187.128 0.269886 2.1471 0
M  V30 1914 C 187.723 3.30429 0.748466 0
M  V30 1915 C 186.282 3.5612 1.21882 0
M  V30 1916 C 185.429 2.76374 0.226452 0
M  V30 1917 H 188.38 1.5497 -0.342063 0
M  V30 1918 H 188.401 3.44943 1.60607 0
M  V30 1919 H 187.913 3.87737 -0.167784 0
M  V30 1920 H 186.014 3.04168 2.15204 0
M  V30 1921 H 186.127 4.64705 1.16559 0
M  V30 1922 H 184.491 2.44515 0.713063 0
M  V30 1923 H 185.274 3.3644 -0.682859 0
M  V30 1924 N 187.719 -0.156864 1.56817 0
M  V30 1925 C 188.649 -1.19589 2.00551 0
M  V30 1926 C 189.63 -1.4536 0.883426 0
M  V30 1927 O 190.815 -1.56449 1.15054 0
M  V30 1928 C 187.945 -2.53143 2.37773 0
M  V30 1929 C 186.899 -2.41913 3.53075 0
M  V30 1930 C 186.225 -3.80088 3.76081 0
M  V30 1931 C 187.525 -1.91157 4.86062 0
M  V30 1932 H 189.219 -0.832293 2.87599 0
M  V30 1933 H 186.765 -0.398918 1.38364 0
M  V30 1934 H 188.718 -3.26047 2.66967 0
M  V30 1935 H 187.442 -2.91319 1.4765 0
M  V30 1936 H 186.101 -1.71462 3.24031 0
M  V30 1937 H 185.749 -4.15683 2.83225 0
M  V30 1938 H 185.449 -3.73439 4.53671 0
M  V30 1939 H 186.973 -4.54556 4.0769 0
M  V30 1940 H 188.387 -2.53846 5.14038 0
M  V30 1941 H 186.784 -1.95422 5.67389 0
M  V30 1942 H 187.854 -0.866673 4.77092 0
M  V30 1943 N 189.197 -1.51736 -0.425897 0
M  V30 1944 C 190.474 -1.55519 -1.1863 0
M  V30 1945 C 190.854 -0.326219 -2.08564 0
M  V30 1946 O 190.202 0.688012 -2.17896 0
M  V30 1947 C 190.412 -2.87521 -1.9782 0
M  V30 1948 C 191.76 -3.39899 -2.54468 0
M  V30 1949 O 192.784 -2.89148 -2.08019 0
M  V30 1950 O 191.643 -4.2848 -3.39215 0
M  V30 1951 H 188.737 -0.625739 -0.540721 0
M  V30 1952 H 191.283 -1.64055 -0.434038 0
M  V30 1953 H 190.055 -3.68422 -1.31836 0
M  V30 1954 H 189.678 -2.822 -2.80088 0
M  V30 1955 N 190.675 0.682077 -1.42076 0
M  V30 1956 C 191.952 1.43755 -1.32642 0
M  V30 1957 C 192.332 2.11063 0.0396611 0
M  V30 1958 O 191.68 2.02701 1.05474 0
M  V30 1959 C 191.89 2.44596 -2.48946 0
M  V30 1960 C 193.238 3.09454 -2.9073 0
M  V30 1961 O 194.262 2.54922 -2.48783 0
M  V30 1962 O 193.121 4.08253 -3.63307 0
M  V30 1963 H 190.215 0.640857 -0.522715 0
M  V30 1964 H 192.761 0.711415 -1.54068 0
M  V30 1965 H 191.533 1.93609 -3.40046 0
M  V30 1966 H 191.156 3.24701 -2.29467 0
M  V30 1967 N 192.153 1.28127 0.917671 0
M  V30 1968 C 193.085 1.07517 2.02417 0
M  V30 1969 C 194.098 0.0281099 1.62776 0
M  V30 1970 O 195.287 0.270748 1.76435 0
M  V30 1971 C 192.387 0.610957 3.33347 0
M  V30 1972 C 191.56 1.73255 4.01624 0
M  V30 1973 C 190.619 1.26238 5.10833 0
M  V30 1974 O 189.645 1.96389 5.34247 0
M  V30 1975 N 190.847 0.123448 5.80369 0
M  V30 1976 H 193.612 2.02806 2.20658 0
M  V30 1977 H 191.173 1.19827 1.08871 0
M  V30 1978 H 193.165 0.280101 4.0373 0
M  V30 1979 H 191.735 -0.24898 3.11607 0
M  V30 1980 H 190.955 2.23319 3.24842 0
M  V30 1981 H 192.243 2.48503 4.43986 0
M  V30 1982 H 191.641 -0.461847 5.63812 0
M  V30 1983 H 190.198 -0.148158 6.51632 0
M  V30 1984 N 193.631 -1.12557 1.10312 0
M  V30 1985 C 194.908 -1.80363 0.756878 0
M  V30 1986 C 195.288 -1.97067 -0.756824 0
M  V30 1987 O 194.636 -1.54601 -1.68259 0
M  V30 1988 C 194.846 -3.14812 1.50647 0
M  V30 1989 C 196.194 -3.90029 1.67817 0
M  V30 1990 O 197.218 -3.24464 1.46974 0
M  V30 1991 O 196.077 -5.07652 2.02365 0
M  V30 1992 H 193.171 -0.780667 0.272926 0
M  V30 1993 H 195.717 -1.19404 1.20586 0
M  V30 1994 H 194.489 -2.97936 2.53672 0
M  V30 1995 H 194.112 -3.83478 1.05026 0
M  V30 1996 N 195.109 -0.891671 -1.2995 0
M  V30 1997 C 196.072 -0.36828 -2.26222 0
M  V30 1998 C 197.072 0.493014 -1.53056 0
M  V30 1999 O 198.262 0.299213 -1.71611 0
M  V30 2000 C 195.394 0.47442 -3.37583 0
M  V30 2001 H 196.587 -1.21844 -2.74033 0
M  V30 2002 H 194.14 -0.669107 -1.41254 0
M  V30 2003 H 194.875 1.34489 -2.95099 0
M  V30 2004 H 194.66 -0.142615 -3.91841 0
M  V30 2005 H 196.15 0.83218 -4.09224 0
M  V30 2006 N 196.587 1.43421 -0.653314 0
M  V30 2007 C 197.836 2.01032 -0.164076 0
M  V30 2008 C 198.149 1.52147 1.22926 0
M  V30 2009 O 199.355 2.02031 1.81371 0
M  V30 2010 C 197.811 3.59082 -0.24252 0
M  V30 2011 C 197.419 4.1696 -1.63855 0
M  V30 2012 C 199.163 4.24079 0.18911 0
M  V30 2013 C 197.07 5.67304 -1.67092 0
M  V30 2014 H 196 0.751798 -0.0575769 0
M  V30 2015 H 198.651 1.6439 -0.815362 0
M  V30 2016 H 197.033 3.93125 0.476276 0
M  V30 2017 H 198.207 3.94416 -2.38271 0
M  V30 2018 H 196.522 3.64335 -2.01616 0
M  V30 2019 H 199.119 5.34381 0.184775 0
M  V30 2020 H 199.462 3.98005 1.22056 0
M  V30 2021 H 199.995 3.94918 -0.477938 0
M  V30 2022 H 196.734 5.98145 -2.68146 0
M  V30 2023 H 196.254 5.91904 -0.970014 0
M  V30 2024 H 197.933 6.31344 -1.4147 0
M  V30 2025 N 198.065 0.39524 1.52563 0
M  V30 2026 C 199.028 -0.425001 2.25225 0
M  V30 2027 C 200.028 -0.985266 1.27079 0
M  V30 2028 O 201.218 -0.866332 1.5113 0
M  V30 2029 C 198.35 -1.59686 3.01186 0
M  V30 2030 H 199.543 0.211233 2.99155 0
M  V30 2031 H 197.096 0.147472 1.55603 0
M  V30 2032 H 197.831 -2.27035 2.31572 0
M  V30 2033 H 197.616 -1.20176 3.73229 0
M  V30 2034 H 199.106 -2.17743 3.5634 0
M  V30 2035 N 199.544 -1.57102 0.125237 0
M  V30 2036 C 200.79 -1.95697 -0.532035 0
M  V30 2037 C 201.123 -1.009 -1.6593 0
M  V30 2038 O 200.398 -0.047347 -1.94442 0
M  V30 2039 C 200.681 -3.44181 -1.05884 0
M  V30 2040 C 200.534 -4.49752 0.0654392 0
M  V30 2041 C 201.853 -3.94655 -1.9477 0
M  V30 2042 H 198.972 -0.711571 -0.191925 0
M  V30 2043 H 201.614 -1.88923 0.20206 0
M  V30 2044 H 199.764 -3.50085 -1.68442 0
M  V30 2045 H 201.436 -4.55943 0.700982 0
M  V30 2046 H 199.679 -4.27653 0.727709 0
M  V30 2047 H 200.35 -5.50924 -0.344505 0
M  V30 2048 H 202.826 -3.91094 -1.42074 0
M  V30 2049 H 201.702 -4.99057 -2.28546 0
M  V30 2050 H 201.963 -3.35718 -2.87656 0
M  V30 2051 N 201.022 0.148545 -1.56898 0
M  V30 2052 C 201.932 1.20293 -2.01412 0
M  V30 2053 C 202.948 1.47107 -0.929273 0
M  V30 2054 O 204.124 1.58807 -1.23863 0
M  V30 2055 C 201.189 2.51682 -2.38447 0
M  V30 2056 C 200.25 2.32529 -3.60872 0
M  V30 2057 C 199.483 3.57653 -3.96132 0
M  V30 2058 O 199.706 4.63771 -3.32073 0
M  V30 2059 O 198.64 3.50408 -4.89385 0
M  V30 2060 H 202.466 0.855025 -2.91416 0
M  V30 2061 H 200.051 0.357151 -1.45068 0
M  V30 2062 H 201.933 3.29147 -2.63135 0
M  V30 2063 H 200.608 2.86006 -1.51599 0
M  V30 2064 H 199.515 1.53019 -3.41373 0
M  V30 2065 H 200.848 2.03121 -4.48333 0
M  V30 2066 N 202.5 1.5196 0.417844 0
M  V30 2067 C 203.463 1.74065 1.49111 0
M  V30 2068 C 204.463 0.610537 1.48758 0
M  V30 2069 O 205.653 0.87832 1.50437 0
M  V30 2070 C 202.785 1.81502 2.88565 0
M  V30 2071 H 203.978 2.69869 1.30807 0
M  V30 2072 H 201.531 1.42244 0.647785 0
M  V30 2073 H 202.266 0.875813 3.1225 0
M  V30 2074 H 202.051 2.63651 2.90225 0
M  V30 2075 H 203.541 2.00376 3.66387 0
M  V30 2076 N 203.978 -0.674533 1.42435 0
M  V30 2077 C 204.941 -1.76986 1.45632 0
M  V30 2078 C 205.941 -1.5708 0.343871 0
M  V30 2079 O 207.131 -1.63367 0.604709 0
M  V30 2080 C 204.263 -3.15623 1.28822 0
M  V30 2081 H 205.456 -1.75539 2.43158 0
M  V30 2082 H 203.009 -0.884189 1.28887 0
M  V30 2083 H 203.744 -3.22696 0.322193 0
M  V30 2084 H 203.529 -3.31475 2.09444 0
M  V30 2085 H 205.019 -3.95537 1.33942 0
M  V30 2086 N 205.456 -1.28612 -0.910864 0
M  V30 2087 C 206.696 -1.1719 -1.67469 0
M  V30 2088 C 207.06 0.274441 -1.90028 0
M  V30 2089 O 208.261 0.511425 -2.6389 0
M  V30 2090 C 206.532 -1.95137 -2.99427 0
M  V30 2091 S 208.091 -2.00122 -3.90508 0
M  V30 2092 H 204.909 -0.41806 -0.575106 0
M  V30 2093 H 207.511 -1.6275 -1.08317 0
M  V30 2094 H 206.215 -2.99381 -2.80712 0
M  V30 2095 H 205.746 -1.50137 -3.63624 0
M  V30 2096 H 207.761 -1.10981 -4.8363 0
M  V30 2097 N 206.934 1.1197 -1.10907 0
M  V30 2098 C 208.162 1.87402 -0.876824 0
M  V30 2099 C 208.577 1.79894 0.573025 0
M  V30 2100 O 207.934 1.17629 1.39534 0
M  V30 2101 C 207.985 3.36428 -1.32282 0
M  V30 2102 O 207.706 3.43765 -2.71582 0
M  V30 2103 C 209.207 4.28783 -1.12518 0
M  V30 2104 H 206.427 0.592793 -0.314384 0
M  V30 2105 H 208.971 1.41649 -1.47499 0
M  V30 2106 H 207.126 3.79706 -0.768229 0
M  V30 2107 H 207.54 4.3652 -2.90776 0
M  V30 2108 H 209.014 5.31613 -1.48633 0
M  V30 2109 H 209.491 4.39153 -0.0642394 0
M  V30 2110 H 210.097 3.91291 -1.66648 0
M  V30 2111 N 208.412 0.89855 1.29475 0
M  V30 2112 C 209.36 0.365253 2.29714 0
M  V30 2113 C 210.354 -0.534993 1.6073 0
M  V30 2114 O 211.56 -0.417921 1.75081 0
M  V30 2115 H 207.935 0.0994853 0.74539 0
M  V30 2116 H 209.906 1.22406 2.72138 0
M  V30 2117 C 208.655 -0.393159 3.4547 0
M  V30 2118 H 207.978 0.290332 3.98744 0
M  V30 2119 H 209.418 -0.731189 4.17648 0
M  V30 2120 C 207.877 -1.59539 2.9673 0
M  V30 2121 O 208.407 -2.69469 2.97908 0
M  V30 2122 N 206.613 -1.43716 2.52575 0
M  V30 2123 H 206.16 -0.542828 2.51816 0
M  V30 2124 H 206.118 -2.24288 2.20323 0
M  V30 2125 N 209.89 -1.43072 0.660911 0
M  V30 2126 C 211.136 -2.0202 0.177708 0
M  V30 2127 C 211.469 -1.52066 -1.20787 0
M  V30 2128 O 210.744 -0.716987 -1.80802 0
M  V30 2129 C 211.027 -3.59561 0.197019 0
M  V30 2130 C 210.88 -4.19727 1.61706 0
M  V30 2131 C 212.199 -4.37664 -0.462396 0
M  V30 2132 H 209.318 -0.734034 0.0660494 0
M  V30 2133 H 211.96 -1.70272 0.843058 0
M  V30 2134 H 210.11 -3.86739 -0.369527 0
M  V30 2135 H 211.782 -4.03553 2.23479 0
M  V30 2136 H 210.025 -3.76084 2.16201 0
M  V30 2137 H 210.696 -5.28834 1.58237 0
M  V30 2138 H 213.172 -4.16095 0.0197215 0
M  V30 2139 H 212.048 -5.47305 -0.418188 0
M  V30 2140 H 212.309 -4.14493 -1.53778 0
M  V30 2141 N 211.368 -0.403325 -1.52352 0
M  V30 2142 C 212.779 0.0675782 -1.86578 0
M  V30 2143 C 213.13 1.44941 -1.32236 0
M  V30 2144 O 212.255 2.06112 -0.659307 0
M  V30 2145 C 212.85 0.129404 -3.38553 0
M  V30 2146 C 211.409 0.544629 -3.72439 0
M  V30 2147 C 210.556 -0.284551 -2.75836 0
M  V30 2148 H 213.507 -0.620631 -1.46061 0
M  V30 2149 H 213.528 0.94581 -3.68558 0
M  V30 2150 H 213.04 -0.87645 -3.78074 0
M  V30 2151 H 211.141 1.55734 -3.38493 0
M  V30 2152 H 211.254 0.293046 -4.78203 0
M  V30 2153 H 209.618 0.252258 -2.53448 0
M  V30 2154 H 210.401 -1.28865 -3.18196 0
M  V30 2155 N 212.846 1.57033 -0.133567 0
M  V30 2156 C 213.809 2.14897 0.796995 0
M  V30 2157 C 214.809 1.0874 1.18458 0
M  V30 2158 O 215.999 1.34446 1.1077 0
M  V30 2159 C 213.131 2.70112 2.07973 0
M  V30 2160 H 214.324 2.98457 0.293873 0
M  V30 2161 H 211.877 1.55871 0.115787 0
M  V30 2162 H 212.612 1.9018 2.62682 0
M  V30 2163 H 212.397 3.47764 1.81115 0
M  V30 2164 H 213.887 3.14738 2.74462 0
M  V30 2165 N 214.325 -0.140222 1.56975 0
M  V30 2166 C 215.255 -1.17456 2.01808 0
M  V30 2167 C 216.236 -1.44415 0.898794 0
M  V30 2168 O 217.421 -1.5522 1.16707 0
M  V30 2169 C 214.551 -2.50607 2.40444 0
M  V30 2170 C 213.505 -2.38155 3.55621 0
M  V30 2171 C 212.831 -3.76078 3.80091 0
M  V30 2172 C 214.131 -1.85991 4.88062 0
M  V30 2173 H 215.825 -0.801743 2.88466 0
M  V30 2174 H 213.371 -0.38422 1.38779 0
M  V30 2175 H 215.324 -3.23197 2.7041 0
M  V30 2176 H 214.048 -2.89737 1.50732 0
M  V30 2177 H 212.707 -1.68016 3.25832 0
M  V30 2178 H 212.355 -4.12656 2.87618 0
M  V30 2179 H 212.055 -3.68606 4.57606 0
M  V30 2180 H 213.579 -4.50206 4.12488 0
M  V30 2181 H 214.993 -2.4838 5.16701 0
M  V30 2182 H 213.39 -1.89393 5.6943 0
M  V30 2183 H 214.46 -0.816023 4.77984 0
M  V30 2184 N 215.803 -1.52179 -0.40978 0
M  V30 2185 C 217.05 -1.66206 -1.15679 0
M  V30 2186 C 217.378 -0.391674 -1.90516 0
M  V30 2187 O 216.633 0.62533 -1.8544 0
M  V30 2188 C 216.932 -2.83428 -2.17723 0
M  V30 2189 C 216.598 -4.21672 -1.59699 0
M  V30 2190 C 215.26 -4.59274 -1.43599 0
M  V30 2191 C 217.612 -5.07825 -1.17317 0
M  V30 2192 C 214.94 -5.80709 -0.836328 0
M  V30 2193 C 217.292 -6.29864 -0.587691 0
M  V30 2194 C 215.956 -6.66216 -0.413818 0
M  V30 2195 H 215.226 -0.608192 -0.423301 0
M  V30 2196 H 217.873 -1.86279 -0.444097 0
M  V30 2197 H 216.178 -2.57687 -2.95135 0
M  V30 2198 H 217.875 -2.91477 -2.75394 0
M  V30 2199 H 214.465 -3.9204 -1.73213 0
M  V30 2200 H 218.649 -4.79359 -1.28565 0
M  V30 2201 H 213.905 -6.07498 -0.689626 0
M  V30 2202 H 218.079 -6.95948 -0.250894 0
M  V30 2203 H 215.706 -7.60182 0.0529471 0
M  V30 2204 N 217.281 0.66697 -1.42791 0
M  V30 2205 C 218.211 1.79218 -1.49677 0
M  V30 2206 C 219.192 1.66405 -0.352623 0
M  V30 2207 O 220.377 1.85708 -0.567993 0
M  V30 2208 C 217.507 3.17565 -1.40605 0
M  V30 2209 C 216.461 3.45124 -2.53127 0
M  V30 2210 C 215.787 4.83127 -2.29112 0
M  V30 2211 C 217.087 3.41236 -3.95418 0
M  V30 2212 H 218.781 1.73713 -2.43853 0
M  V30 2213 H 216.327 0.83432 -1.17367 0
M  V30 2214 H 218.28 3.96022 -1.44029 0
M  V30 2215 H 217.004 3.23767 -0.429271 0
M  V30 2216 H 215.663 2.69031 -2.49034 0
M  V30 2217 H 215.311 4.85988 -1.29709 0
M  V30 2218 H 215.011 5.02528 -3.04531 0
M  V30 2219 H 216.535 5.63859 -2.34297 0
M  V30 2220 H 217.949 4.09651 -4.01073 0
M  V30 2221 H 216.346 3.72173 -4.70752 0
M  V30 2222 H 217.416 2.39665 -4.21532 0
M  V30 2223 N 218.759 1.29093 0.90403 0
M  V30 2224 C 220.036 1.075 1.63411 0
M  V30 2225 C 220.416 -0.382346 2.07609 0
M  V30 2226 O 219.764 -1.37031 1.82851 0
M  V30 2227 C 219.974 2.05858 2.81822 0
M  V30 2228 C 221.322 2.36539 3.52611 0
M  V30 2229 O 222.346 2.04019 2.91984 0
M  V30 2230 O 221.205 2.92085 4.61897 0
M  V30 2231 H 218.299 0.411547 0.717327 0
M  V30 2232 H 220.845 1.40449 0.952479 0
M  V30 2233 H 219.617 3.04037 2.46327 0
M  V30 2234 H 219.24 1.73613 3.57693 0
M  V30 2235 N 220.237 -1.11381 1.11499 0
M  V30 2236 C 221.483 -1.83403 0.865512 0
M  V30 2237 C 221.816 -1.84459 -0.607329 0
M  V30 2238 O 221.091 -1.29811 -1.44842 0
M  V30 2239 C 221.374 -3.30552 1.42855 0
M  V30 2240 C 221.227 -3.37886 2.96906 0
M  V30 2241 C 222.546 -4.26643 1.08 0
M  V30 2242 H 219.665 -0.665879 0.31587 0
M  V30 2243 H 222.307 -1.30601 1.37998 0
M  V30 2244 H 220.457 -3.75648 0.990985 0
M  V30 2245 H 222.129 -3.01343 3.49271 0
M  V30 2246 H 220.372 -2.78088 3.32941 0
M  V30 2247 H 221.043 -4.41458 3.31389 0
M  V30 2248 H 223.519 -3.89729 1.45775 0
M  V30 2249 H 222.395 -5.27986 1.50072 0
M  V30 2250 H 222.656 -4.42099 -0.00915037 0
M  V30 2251 N 221.715 -0.905404 -1.28997 0
M  V30 2252 C 222.94 -0.549175 -1.99997 0
M  V30 2253 C 223.365 0.860276 -1.67275 0
M  V30 2254 O 222.723 1.57355 -0.900502 0
M  V30 2255 C 222.771 -0.755185 -3.52604 0
M  V30 2256 O 221.875 0.189692 -4.11964 0
M  V30 2257 H 221.216 -0.213899 -0.628604 0
M  V30 2258 H 223.746 -1.21856 -1.64354 0
M  V30 2259 H 223.756 -0.662045 -4.02593 0
M  V30 2260 H 222.431 -1.78271 -3.75755 0
M  V30 2261 H 221.008 0.0485257 -3.72868 0
M  V30 2262 N 223.193 1.4272 -0.668489 0
M  V30 2263 C 224.47 1.95248 -0.117373 0
M  V30 2264 C 224.85 1.60919 1.36632 0
M  V30 2265 O 224.198 0.902095 2.09939 0
M  V30 2266 C 224.408 3.46927 -0.379806 0
M  V30 2267 C 225.756 4.23588 -0.292923 0
M  V30 2268 O 226.78 3.5482 -0.313204 0
M  V30 2269 O 225.639 5.46017 -0.229697 0
M  V30 2270 H 222.733 0.827 0.00079152 0
M  V30 2271 H 225.279 1.52581 -0.742783 0
M  V30 2272 H 224.051 3.65096 -1.40786 0
M  V30 2273 H 223.674 3.96627 0.277923 0
M  V30 2274 N 224.671 0.411399 1.52136 0
M  V30 2275 C 225.603 -0.448386 2.24771 0
M  V30 2276 C 226.616 -1.00828 1.27818 0
M  V30 2277 O 227.805 -0.906841 1.53749 0
M  V30 2278 C 224.905 -1.63636 2.96777 0
M  V30 2279 C 224.078 -1.19995 4.20618 0
M  V30 2280 C 223.137 -2.25509 4.75428 0
M  V30 2281 O 222.163 -1.86007 5.3795 0
M  V30 2282 N 223.365 -3.577 4.57199 0
M  V30 2283 H 226.13 0.174025 2.99194 0
M  V30 2284 H 223.691 0.238897 1.60128 0
M  V30 2285 H 225.683 -2.33793 3.30338 0
M  V30 2286 H 224.253 -2.16465 2.25526 0
M  V30 2287 H 223.473 -0.326421 3.92846 0
M  V30 2288 H 224.761 -0.885365 5.01038 0
M  V30 2289 H 224.159 -3.92543 4.07341 0
M  V30 2290 H 222.716 -4.23827 4.95191 0
M  V30 2291 N 226.149 -1.5696 0.141893 0
M  V30 2292 C 227.377 -2.00322 -0.517579 0
M  V30 2293 C 227.792 -1.02193 -1.58752 0
M  V30 2294 O 227.149 -0.0181619 -1.82491 0
M  V30 2295 C 227.2 -3.43618 -1.12289 0
M  V30 2296 O 226.921 -4.37995 -0.0956929 0
M  V30 2297 C 228.422 -4.02231 -1.86347 0
M  V30 2298 H 225.642 -0.657243 -0.135177 0
M  V30 2299 H 228.186 -2.03146 0.234973 0
M  V30 2300 H 226.341 -3.41662 -1.82609 0
M  V30 2301 H 226.755 -5.21729 -0.538469 0
M  V30 2302 H 228.229 -5.04509 -2.23997 0
M  V30 2303 H 228.706 -3.42655 -2.74744 0
M  V30 2304 H 229.312 -4.07802 -1.20737 0
M  V30 2305 N 227.627 0.131896 -1.57047 0
M  V30 2306 C 229.038 0.690407 -1.73465 0
M  V30 2307 C 229.389 1.8094 -0.758629 0
M  V30 2308 O 228.514 2.16282 0.0713813 0
M  V30 2309 C 229.109 1.25916 -3.14532 0
M  V30 2310 C 227.668 1.76409 -3.32501 0
M  V30 2311 C 226.815 0.658579 -2.69366 0
M  V30 2312 H 229.766 -0.0939144 -1.58422 0
M  V30 2313 H 229.787 2.12892 -3.15369 0
M  V30 2314 H 229.299 0.444515 -3.85546 0
M  V30 2315 H 227.4 2.60391 -2.66509 0
M  V30 2316 H 227.513 1.88241 -4.4057 0
M  V30 2317 H 225.877 1.08899 -2.30246 0
M  V30 2318 H 226.66 -0.14487 -3.42994 0
M  V30 2319 N 229.106 1.52395 0.401703 0
M  V30 2320 C 230.355 1.66044 1.14509 0
M  V30 2321 C 230.668 0.400216 1.91462 0
M  V30 2322 O 231.874 0.416632 2.68284 0
M  V30 2323 C 230.33 2.93388 2.0845 0
M  V30 2324 C 229.938 4.26545 1.36978 0
M  V30 2325 C 231.682 3.16402 2.83001 0
M  V30 2326 C 229.589 5.45007 2.29611 0
M  V30 2327 H 228.519 0.618562 0.431158 0
M  V30 2328 H 231.17 1.78886 0.40892 0
M  V30 2329 H 229.552 2.74263 2.8565 0
M  V30 2330 H 230.726 4.56179 0.650916 0
M  V30 2331 H 229.041 4.09692 0.74438 0
M  V30 2332 H 231.638 4.02085 3.52465 0
M  V30 2333 H 231.981 2.30943 3.46368 0
M  V30 2334 H 232.514 3.36034 2.12898 0
M  V30 2335 H 229.253 6.32835 1.70879 0
M  V30 2336 H 228.773 5.19702 2.9945 0
M  V30 2337 H 230.452 5.7838 2.89974 0
M  V30 2338 N 230.584 -0.659388 1.43143 0
M  V30 2339 C 231.532 -1.79374 1.4808 0
M  V30 2340 C 232.526 -1.65639 0.354988 0
M  V30 2341 O 233.732 -1.7206 0.528704 0
M  V30 2342 H 230.107 -0.591705 0.4641 0
M  V30 2343 H 232.078 -1.72329 2.43609 0
M  V30 2344 C 230.827 -3.17606 1.41499 0
M  V30 2345 H 230.15 -3.28809 2.27431 0
M  V30 2346 H 231.59 -3.96951 1.49015 0
M  V30 2347 C 230.049 -3.36642 0.131765 0
M  V30 2348 O 230.579 -3.93461 -0.809386 0
M  V30 2349 N 228.785 -2.90567 0.0439396 0
M  V30 2350 H 228.332 -2.44513 0.810619 0
M  V30 2351 H 228.29 -3.03681 -0.813969 0
M  V30 2352 N 232.062 -1.29571 -0.897171 0
M  V30 2353 C 233.287 -1.20705 -1.68656 0
M  V30 2354 C 233.712 0.228582 -1.86706 0
M  V30 2355 O 233.07 1.16494 -1.3892 0
M  V30 2356 C 233.118 -1.9282 -3.04717 0
M  V30 2357 O 232.222 -1.24697 -3.93096 0
M  V30 2358 H 231.563 -0.418126 -0.515816 0
M  V30 2359 H 234.093 -1.71183 -1.12061 0
M  V30 2360 H 234.103 -2.01372 -3.54843 0
M  V30 2361 H 232.778 -2.97239 -2.90899 0
M  V30 2362 H 231.355 -1.2442 -3.51531 0
M  V30 2363 N 233.54 1.10788 -1.12088 0
M  V30 2364 C 234.789 1.82036 -0.868659 0
M  V30 2365 C 235.102 1.85929 0.607426 0
M  V30 2366 O 236.308 2.53346 0.97613 0
M  V30 2367 C 234.764 3.26951 -1.50435 0
M  V30 2368 C 234.372 3.31367 -3.01496 0
M  V30 2369 C 236.116 4.03053 -1.33225 0
M  V30 2370 C 234.023 4.7072 -3.58017 0
M  V30 2371 H 232.953 0.682108 -0.321318 0
M  V30 2372 H 235.604 1.24618 -1.34694 0
M  V30 2373 H 233.986 3.84343 -0.953735 0
M  V30 2374 H 235.16 2.83819 -3.6302 0
M  V30 2375 H 233.475 2.6875 -3.18061 0
M  V30 2376 H 236.072 5.05981 -1.72878 0
M  V30 2377 H 236.415 4.15387 -0.275529 0
M  V30 2378 H 236.948 3.52066 -1.85188 0
M  V30 2379 H 233.687 4.63585 -4.63432 0
M  V30 2380 H 233.207 5.1865 -3.01268 0
M  V30 2381 H 234.886 5.39685 -3.56859 0
M  V30 2382 N 235.018 0.912232 1.28515 0
M  V30 2383 C 236.267 0.540504 1.94323 0
M  V30 2384 C 236.58 -0.920044 1.72611 0
M  V30 2385 O 237.786 -1.39986 2.32629 0
M  V30 2386 C 236.242 0.915803 3.48053 0
M  V30 2387 C 235.85 2.39598 3.78546 0
M  V30 2388 C 237.594 0.614588 4.20027 0
M  V30 2389 C 235.501 2.71148 5.25578 0
M  V30 2390 H 234.431 0.198418 0.727424 0
M  V30 2391 H 237.082 1.11094 1.46049 0
M  V30 2392 H 235.464 0.274168 3.9505 0
M  V30 2393 H 236.638 3.08422 3.42364 0
M  V30 2394 H 234.953 2.66749 3.1974 0
M  V30 2395 H 237.55 0.827002 5.28266 0
M  V30 2396 H 237.893 -0.447531 4.13887 0
M  V30 2397 H 238.426 1.21462 3.78803 0
M  V30 2398 H 235.165 3.76207 5.36794 0
M  V30 2399 H 234.685 2.0696 5.62963 0
M  V30 2400 H 236.364 2.58072 5.93302 0
M  V30 2401 N 236.496 -1.42363 0.676048 0
M  V30 2402 C 237.743 -2.01522 0.19883 0
M  V30 2403 C 238.071 -1.53456 -1.19505 0
M  V30 2404 O 237.326 -0.727967 -1.81657 0
M  V30 2405 C 237.625 -3.56929 0.183431 0
M  V30 2406 C 237.291 -4.24431 1.52215 0
M  V30 2407 C 235.953 -4.42585 1.8887 0
M  V30 2408 C 238.305 -4.62459 2.40377 0
M  V30 2409 C 235.633 -4.96039 3.13309 0
M  V30 2410 C 237.985 -5.17294 3.64129 0
M  V30 2411 C 236.649 -5.33661 4.00951 0
M  V30 2412 H 235.919 -0.737419 0.0727571 0
M  V30 2413 H 238.566 -1.70531 0.871281 0
M  V30 2414 H 236.871 -3.87594 -0.572532 0
M  V30 2415 H 238.568 -4.00486 -0.203035 0
M  V30 2416 H 235.158 -4.10661 1.22701 0
M  V30 2417 H 239.342 -4.48105 2.13343 0
M  V30 2418 H 234.598 -5.06896 3.41857 0
M  V30 2419 H 238.772 -5.45704 4.32644 0
M  V30 2420 H 236.399 -5.74845 4.9745 0
M  V30 2421 N 237.974 -0.419461 -1.51915 0
M  V30 2422 C 239.199 0.154572 -2.06823 0
M  V30 2423 C 239.624 1.3722 -1.28656 0
M  V30 2424 O 238.982 1.78461 -0.319583 0
M  V30 2425 C 239.03 0.473172 -3.57482 0
M  V30 2426 O 238.134 1.56255 -3.81652 0
M  V30 2427 H 237.475 0.0096924 -0.663929 0
M  V30 2428 H 240.005 -0.595642 -1.95738 0
M  V30 2429 H 240.015 0.728825 -4.01438 0
M  V30 2430 H 238.69 -0.416873 -4.13805 0
M  V30 2431 H 237.267 1.29825 -3.49571 0
M  V30 2432 N 239.452 1.56882 -0.150215 0
M  V30 2433 C 240.402 2.13501 0.800071 0
M  V30 2434 C 241.386 1.06368 1.20726 0
M  V30 2435 O 242.578 1.32538 1.17314 0
M  V30 2436 C 239.707 2.76271 2.03787 0
M  V30 2437 C 238.793 3.90533 1.65364 0
M  V30 2438 N 239.184 4.96259 0.977794 0
M  V30 2439 C 237.482 4.013 1.94613 0
M  V30 2440 C 238.183 5.76286 0.791794 0
M  V30 2441 N 237.159 5.27163 1.32666 0
M  V30 2442 H 240.961 2.92615 0.274517 0
M  V30 2443 H 238.475 1.62319 0.0512144 0
M  V30 2444 H 240.472 3.15197 2.72867 0
M  V30 2445 H 239.132 1.98631 2.56857 0
M  V30 2446 H 240.143 5.13953 0.638193 0
M  V30 2447 H 236.82 3.3474 2.4951 0
M  V30 2448 H 238.21 6.71401 0.258894 0
M  V30 2449 N 240.93 -0.123565 1.57115 0
M  V30 2450 C 241.84 -1.17074 2.033 0
M  V30 2451 C 242.856 -1.4561 0.952559 0
M  V30 2452 O 244.032 -1.56817 1.26374 0
M  V30 2453 C 241.097 -2.47857 2.42421 0
M  V30 2454 C 240.158 -2.26758 3.64526 0
M  V30 2455 C 239.391 -3.51305 4.01771 0
M  V30 2456 O 239.614 -4.5843 3.39409 0
M  V30 2457 O 238.548 -3.42578 4.94898 0
M  V30 2458 H 242.374 -0.808555 2.92739 0
M  V30 2459 H 239.959 -0.334027 1.45618 0
M  V30 2460 H 241.841 -3.2492 2.68338 0
M  V30 2461 H 240.516 -2.83558 1.5613 0
M  V30 2462 H 239.423 -1.47569 3.43765 0
M  V30 2463 H 240.756 -1.95963 4.51508 0
M  V30 2464 N 242.408 -1.52605 -0.393616 0
M  V30 2465 C 243.685 -1.58001 -1.15304 0
M  V30 2466 C 244.065 -0.370385 -2.07825 0
M  V30 2467 O 243.413 0.641638 -2.19306 0
M  V30 2468 C 243.623 -2.91652 -1.91677 0
M  V30 2469 C 244.971 -3.4522 -2.47201 0
M  V30 2470 O 245.995 -2.93495 -2.01839 0
M  V30 2471 O 244.854 -4.35579 -3.3005 0
M  V30 2472 H 241.948 -0.637068 -0.527327 0
M  V30 2473 H 244.494 -1.64939 -0.399141 0
M  V30 2474 H 243.266 -3.71136 -1.23992 0
M  V30 2475 H 242.889 -2.88077 -2.74039 0
M  V30 2476 N 243.887 0.651787 -1.4349 0
M  V30 2477 C 245.135 1.40888 -1.44897 0
M  V30 2478 C 245.456 1.94856 -0.0749086 0
M  V30 2479 O 244.726 1.74518 0.889956 0
M  V30 2480 H 243.306 0.522887 -0.533478 0
M  V30 2481 H 245.968 0.768609 -1.79104 0
M  V30 2482 H 245.064 2.25052 -2.16236 0
M  V30 2483 N 245.365 1.30045 0.890287 0
M  V30 2484 C 246.593 1.21472 1.67487 0
M  V30 2485 C 247.008 -0.223241 1.87476 0
M  V30 2486 O 246.365 -1.14828 1.41847 0
M  V30 2487 C 246.416 1.93394 3.05419 0
M  V30 2488 O 246.137 3.31576 2.86337 0
M  V30 2489 C 247.638 1.91414 3.99844 0
M  V30 2490 H 244.858 0.420604 0.522813 0
M  V30 2491 H 247.402 1.7158 1.11268 0
M  V30 2492 H 245.557 1.47099 3.58386 0
M  V30 2493 H 245.971 3.67929 3.73802 0
M  V30 2494 H 247.445 2.46285 4.94012 0
M  V30 2495 H 247.922 0.891833 4.3005 0
M  V30 2496 H 248.528 2.37496 3.52811 0
M  V30 2497 N 246.843 -1.10192 1.12674 0
M  V30 2498 C 248.259 -1.34235 0.863317 0
M  V30 2499 C 248.459 -1.95062 -0.505277 0
M  V30 2500 O 247.515 -2.19192 -1.25345 0
M  V30 2501 C 248.828 -2.2616 1.98172 0
M  V30 2502 C 250.376 -2.3969 2.0129 0
M  V30 2503 C 250.851 -3.34946 3.1237 0
M  V30 2504 N 252.342 -3.42515 3.11829 0
M  V30 2505 C 253.077 -4.16199 3.94419 0
M  V30 2506 N 252.573 -4.92747 4.87004 0
M  V30 2507 N 254.366 -4.11843 3.82547 0
M  V30 2508 H 246.517 -0.690798 2.00853 0
M  V30 2509 H 248.78 -0.366774 0.874174 0
M  V30 2510 H 248.486 -1.8868 2.96804 0
M  V30 2511 H 248.36 -3.26488 1.88906 0
M  V30 2512 H 250.747 -2.76438 1.03276 0
M  V30 2513 H 250.828 -1.39169 2.14629 0
M  V30 2514 H 250.472 -2.98923 4.10619 0
M  V30 2515 H 250.402 -4.35353 2.96269 0
M  V30 2516 H 252.893 -2.87926 2.44759 0
M  V30 2517 H 253.206 -5.46376 5.46528 0
M  V30 2518 H 251.551 -4.91862 4.91016 0
M  V30 2519 H 254.742 -3.51136 3.0955 0
M  V30 2520 H 254.915 -4.69007 4.47142 0
M  V30 2521 N 248.321 -0.919034 -1.28029 0
M  V30 2522 C 249.251 -0.428581 -2.29533 0
M  V30 2523 C 250.232 0.50659 -1.62381 0
M  V30 2524 O 251.417 0.413195 -1.89753 0
M  V30 2525 C 248.547 0.327388 -3.45753 0
M  V30 2526 C 247.501 -0.519137 -4.2484 0
M  V30 2527 C 246.827 0.365486 -5.33449 0
M  V30 2528 C 248.127 -1.77914 -4.91064 0
M  V30 2529 H 249.821 -1.27687 -2.70807 0
M  V30 2530 H 247.367 -0.615428 -1.30186 0
M  V30 2531 H 249.32 0.681378 -4.15855 0
M  V30 2532 H 248.044 1.20963 -3.03374 0
M  V30 2533 H 246.703 -0.855717 -3.56473 0
M  V30 2534 H 246.351 1.24642 -4.87312 0
M  V30 2535 H 246.051 -0.197356 -5.87268 0
M  V30 2536 H 247.575 0.715241 -6.06396 0
M  V30 2537 H 248.989 -1.49374 -5.53498 0
M  V30 2538 H 247.386 -2.2848 -5.54903 0
M  V30 2539 H 248.456 -2.50382 -4.15255 0
M  V30 2540 N 249.799 1.42003 -0.683588 0
M  V30 2541 C 251.047 2.01015 -0.209101 0
M  V30 2542 C 251.368 1.54365 1.19149 0
M  V30 2543 O 250.638 0.769083 1.80172 0
M  V30 2544 H 249.218 0.743294 -0.074315 0
M  V30 2545 H 251.88 1.73798 -0.882066 0
M  V30 2546 H 250.976 3.11343 -0.2172 0
M  V30 2547 N 251.277 0.427512 1.51691 0
M  V30 2548 C 252.523 -0.142439 2.02299 0
M  V30 2549 C 252.856 -1.43214 1.31162 0
M  V30 2550 O 252.131 -1.89833 0.423511 0
M  V30 2551 C 252.414 -0.371301 3.58181 0
M  V30 2552 C 252.267 0.936358 4.39946 0
M  V30 2553 C 253.586 -1.14542 4.24933 0
M  V30 2554 H 250.705 -0.0502937 0.735282 0
M  V30 2555 H 253.347 0.564584 1.81418 0
M  V30 2556 H 251.497 -0.973559 3.76104 0
M  V30 2557 H 253.169 1.57184 4.33694 0
M  V30 2558 H 251.412 1.5432 4.05423 0
M  V30 2559 H 252.083 0.730388 5.47147 0
M  V30 2560 H 254.559 -0.635362 4.11221 0
M  V30 2561 H 253.435 -1.27431 5.33903 0
M  V30 2562 H 253.696 -2.17093 3.85127 0
M  V30 2563 N 252.755 -1.56801 0.158532 0
M  V30 2564 C 253.665 -2.20916 -0.789518 0
M  V30 2565 C 254.681 -1.1969 -1.26294 0
M  V30 2566 O 255.857 -1.52308 -1.31773 0
M  V30 2567 C 252.922 -2.82727 -2.00665 0
M  V30 2568 C 251.983 -3.99114 -1.58134 0
M  V30 2569 C 251.216 -4.57968 -2.74045 0
M  V30 2570 O 251.439 -4.15704 -3.90572 0
M  V30 2571 O 250.373 -5.48047 -2.48855 0
M  V30 2572 H 254.199 -3.02464 -0.273681 0
M  V30 2573 H 251.784 -1.4924 -0.0690548 0
M  V30 2574 H 253.666 -3.21968 -2.71872 0
M  V30 2575 H 252.341 -2.04184 -2.51179 0
M  V30 2576 H 251.248 -3.64567 -0.839155 0
M  V30 2577 H 252.581 -4.79212 -1.12325 0
M  V30 2578 N 254.233 0.115231 -1.57178 0
M  V30 2579 C 255.183 1.14707 -1.97044 0
M  V30 2580 C 256.167 1.36866 -0.845957 0
M  V30 2581 O 257.359 1.37895 -1.10968 0
M  V30 2582 C 254.488 2.47266 -2.38148 0
M  V30 2583 C 253.574 2.28566 -3.57237 0
M  V30 2584 N 253.965 1.79685 -4.72807 0
M  V30 2585 C 252.263 2.59208 -3.62943 0
M  V30 2586 C 252.964 1.74781 -5.54821 0
M  V30 2587 N 251.94 2.19264 -4.97417 0
M  V30 2588 H 255.742 0.761754 -2.83857 0
M  V30 2589 H 253.256 0.322928 -1.59157 0
M  V30 2590 H 255.253 3.219 -2.64927 0
M  V30 2591 H 253.913 2.86552 -1.52702 0
M  V30 2592 H 254.924 1.49177 -4.9595 0
M  V30 2593 H 251.601 3.02154 -2.88113 0
M  V30 2594 H 252.991 1.38212 -6.57531 0
M  V30 2595 N 255.711 1.52812 0.385517 0
M  V30 2596 C 256.641 1.80808 1.47752 0
M  V30 2597 C 257.622 0.660318 1.5676 0
M  V30 2598 O 258.807 0.908246 1.71652 0
M  V30 2599 C 255.937 1.98008 2.85324 0
M  V30 2600 C 254.891 3.13709 2.91154 0
M  V30 2601 C 254.217 3.16169 4.31209 0
M  V30 2602 C 255.517 4.52709 2.60483 0
M  V30 2603 H 257.211 2.72253 1.24573 0
M  V30 2604 H 254.757 1.31003 0.597839 0
M  V30 2605 H 256.71 2.16176 3.61726 0
M  V30 2606 H 255.434 1.03255 3.09848 0
M  V30 2607 H 254.093 2.95329 2.17201 0
M  V30 2608 H 253.741 2.19092 4.52778 0
M  V30 2609 H 253.441 3.93894 4.36029 0
M  V30 2610 H 254.965 3.36496 5.09512 0
M  V30 2611 H 256.379 4.71173 3.26602 0
M  V30 2612 H 254.776 5.32528 2.76648 0
M  V30 2613 H 255.846 4.59186 1.55809 0
M  V30 2614 N 257.189 -0.644168 1.43834 0
M  V30 2615 C 258.435 -1.40603 1.46146 0
M  V30 2616 C 258.768 -1.93997 0.0887717 0
M  V30 2617 O 258.043 -1.72854 -0.891724 0
M  V30 2618 C 258.326 -2.58086 2.51124 0
M  V30 2619 C 258.179 -2.10126 3.97702 0
M  V30 2620 C 259.498 -3.60291 2.52742 0
M  V30 2621 H 256.617 -0.509905 0.532134 0
M  V30 2622 H 259.259 -0.729502 1.75437 0
M  V30 2623 H 257.409 -3.15801 2.26278 0
M  V30 2624 H 259.081 -1.57342 4.33637 0
M  V30 2625 H 257.324 -1.41419 4.10101 0
M  V30 2626 H 257.995 -2.94649 4.66783 0
M  V30 2627 H 260.471 -3.12352 2.7491 0
M  V30 2628 H 259.347 -4.40032 3.28121 0
M  V30 2629 H 259.608 -4.1349 1.56455 0
M  V30 2630 N 258.668 -1.30515 -0.883378 0
M  V30 2631 C 259.631 -1.1701 -1.97082 0
M  V30 2632 C 260.631 -0.10089 -1.60483 0
M  V30 2633 O 261.821 -0.349127 -1.70666 0
M  V30 2634 C 258.953 -0.793045 -3.31547 0
M  V30 2635 H 260.146 -2.13622 -2.10489 0
M  V30 2636 H 257.699 -1.13935 -1.06998 0
M  V30 2637 H 258.434 0.172499 -3.23841 0
M  V30 2638 H 258.219 -1.56576 -3.5948 0
M  V30 2639 H 259.709 -0.722073 -4.1131 0
M  V30 2640 N 260.146 1.09593 -1.13257 0
M  V30 2641 C 261.076 2.18214 -0.830946 0
M  V30 2642 C 262.057 1.68812 0.208966 0
M  V30 2643 O 263.242 1.9408 0.0682666 0
M  V30 2644 C 260.372 3.46051 -0.294296 0
M  V30 2645 C 259.326 4.08778 -1.26826 0
M  V30 2646 C 258.652 5.31419 -0.591449 0
M  V30 2647 C 259.952 4.51476 -2.62615 0
M  V30 2648 H 261.646 2.43703 -1.73923 0
M  V30 2649 H 259.192 1.17128 -0.837675 0
M  V30 2650 H 261.145 4.2134 -0.0709606 0
M  V30 2651 H 259.869 3.20079 0.649366 0
M  V30 2652 H 258.528 3.35505 -1.47756 0
M  V30 2653 H 258.176 5.01727 0.357633 0
M  V30 2654 H 257.876 5.74341 -1.24123 0
M  V30 2655 H 259.4 6.09433 -0.377355 0
M  V30 2656 H 260.814 5.17999 -2.45663 0
M  V30 2657 H 259.211 5.05277 -3.23752 0
M  V30 2658 H 260.281 3.63962 -3.20406 0
M  V30 2659 N 261.624 0.925811 1.2754 0
M  V30 2660 C 262.872 0.564138 1.94067 0
M  V30 2661 C 263.193 -0.897188 1.73134 0
M  V30 2662 O 262.463 -1.63573 1.07799 0
M  V30 2663 H 261.043 0.205645 0.718136 0
M  V30 2664 H 263.705 1.1778 1.55287 0
M  V30 2665 H 262.801 0.76881 3.02483 0
M  V30 2666 N 263.102 -1.41638 0.69111 0
M  V30 2667 C 264.052 -2.28 -0.000107832 0
M  V30 2668 C 265.036 -1.41964 -0.757304 0
M  V30 2669 O 266.228 -1.65274 -0.633532 0
M  V30 2670 C 263.357 -3.30209 -0.938983 0
M  V30 2671 C 262.443 -4.23725 -0.17827 0
M  V30 2672 N 262.834 -4.99017 0.825563 0
M  V30 2673 C 261.132 -4.44071 -0.414392 0
M  V30 2674 C 261.833 -5.67431 1.28052 0
M  V30 2675 N 260.809 -5.40197 0.607304 0
M  V30 2676 H 264.611 -2.83644 0.769617 0
M  V30 2677 H 262.125 -1.53797 0.521562 0
M  V30 2678 H 264.122 -3.90898 -1.44929 0
M  V30 2679 H 262.782 -2.76126 -1.70836 0
M  V30 2680 H 263.793 -5.03671 1.20566 0
M  V30 2681 H 260.47 -4.01004 -1.162 0
M  V30 2682 H 261.86 -6.37801 2.11327 0
M  V30 2683 N 264.58 -0.43555 -1.51462 0
M  V30 2684 C 265.512 0.41257 -2.25456 0
M  V30 2685 C 266.525 0.987822 -1.29406 0
M  V30 2686 O 267.714 0.882266 -1.55172 0
M  V30 2687 C 264.814 1.58894 -2.99342 0
M  V30 2688 C 263.987 1.13288 -4.22474 0
M  V30 2689 C 263.046 2.17917 -4.78956 0
M  V30 2690 O 262.072 1.77425 -5.40841 0
M  V30 2691 N 263.274 3.50382 -4.62832 0
M  V30 2692 H 266.039 -0.221603 -2.9888 0
M  V30 2693 H 263.6 -0.264342 -1.59727 0
M  V30 2694 H 265.592 2.28508 -3.34015 0
M  V30 2695 H 264.162 2.12849 -2.28941 0
M  V30 2696 H 263.382 0.263881 -3.93316 0
M  V30 2697 H 264.67 0.805542 -5.02383 0
M  V30 2698 H 264.068 3.86013 -4.13534 0
M  V30 2699 H 262.625 4.15895 -5.01871 0
M  V30 2700 N 266.058 1.56714 -0.166846 0
M  V30 2701 C 266.99 2.14914 0.796537 0
M  V30 2702 C 268.003 1.10357 1.19688 0
M  V30 2703 O 269.192 1.37561 1.13751 0
M  V30 2704 C 266.292 2.67326 2.08303 0
M  V30 2705 C 265.465 3.96493 1.84696 0
M  V30 2706 C 264.524 4.34014 2.97521 0
M  V30 2707 O 263.55 5.01973 2.6835 0
M  V30 2708 N 264.752 3.95208 4.25196 0
M  V30 2709 H 267.517 2.98205 0.299006 0
M  V30 2710 H 265.078 1.61892 0.0160839 0
M  V30 2711 H 267.07 2.89428 2.82867 0
M  V30 2712 H 265.64 1.88649 2.4926 0
M  V30 2713 H 264.86 3.82814 0.940602 0
M  V30 2714 H 266.148 4.8086 1.66285 0
M  V30 2715 H 265.546 3.40487 4.51758 0
M  V30 2716 H 264.103 4.2232 4.96477 0
M  V30 2717 N 267.536 -0.106894 1.57237 0
M  V30 2718 C 268.785 -0.811163 1.8467 0
M  V30 2719 C 269.098 -1.80469 0.754342 0
M  V30 2720 O 270.304 -2.55601 0.915439 0
M  V30 2721 C 268.76 -1.49337 3.27454 0
M  V30 2722 C 268.368 -0.540217 4.44731 0
M  V30 2723 C 270.112 -2.18206 3.64124 0
M  V30 2724 C 268.019 -1.22634 5.78545 0
M  V30 2725 H 266.949 -0.306679 0.688813 0
M  V30 2726 H 269.6 -0.0639887 1.83388 0
M  V30 2727 H 267.982 -2.2876 3.23241 0
M  V30 2728 H 269.156 0.221659 4.60267 0
M  V30 2729 H 267.471 0.042146 4.16379 0
M  V30 2730 H 270.068 -2.70253 4.61376 0
M  V30 2731 H 270.411 -2.96562 2.92158 0
M  V30 2732 H 270.944 -1.45658 3.70174 0
M  V30 2733 H 267.683 -0.483832 6.53712 0
M  V30 2734 H 267.203 -1.95993 5.66874 0
M  V30 2735 H 268.882 -1.75615 6.2271 0
M  V30 2736 N 269.014 -1.53014 -0.377408 0
M  V30 2737 C 269.977 -1.77957 -1.44444 0
M  V30 2738 C 270.977 -0.649763 -1.47087 0
M  V30 2739 O 272.167 -0.917897 -1.48055 0
M  V30 2740 C 269.299 -1.89089 -2.83651 0
M  V30 2741 H 270.492 -2.73243 -1.23606 0
M  V30 2742 H 268.045 -1.43912 -0.609844 0
M  V30 2743 H 268.78 -0.958293 -3.09818 0
M  V30 2744 H 268.565 -2.71254 -2.83132 0
M  V30 2745 H 270.055 -2.1002 -3.60945 0
M  V30 2746 N 270.492 0.636531 -1.44174 0
M  V30 2747 C 271.422 1.76003 -1.53444 0
M  V30 2748 C 272.403 1.65619 -0.387841 0
M  V30 2749 O 273.588 1.84461 -0.607257 0
M  V30 2750 C 270.718 3.14511 -1.4731 0
M  V30 2751 C 269.672 3.39677 -2.60391 0
M  V30 2752 C 268.998 4.78159 -2.39308 0
M  V30 2753 C 270.298 3.32772 -4.02567 0
M  V30 2754 H 271.992 1.68501 -2.47483 0
M  V30 2755 H 269.538 0.809237 -1.19111 0
M  V30 2756 H 271.491 3.92878 -1.52397 0
M  V30 2757 H 270.215 3.22783 -0.49785 0
M  V30 2758 H 268.874 2.63688 -2.54684 0
M  V30 2759 H 268.522 4.83128 -1.39988 0
M  V30 2760 H 268.222 4.95956 -3.15122 0
M  V30 2761 H 269.746 5.58762 -2.46205 0
M  V30 2762 H 271.16 4.01051 -4.09672 0
M  V30 2763 H 269.557 3.62104 -4.7854 0
M  V30 2764 H 270.627 2.30669 -4.2652 0
M  V30 2765 N 271.97 1.30982 0.876444 0
M  V30 2766 C 272.9 1.20668 1.99903 0
M  V30 2767 C 273.881 0.095354 1.69833 0
M  V30 2768 O 275.066 0.27885 1.92188 0
M  V30 2769 C 272.196 0.90655 3.3526 0
M  V30 2770 C 271.15 1.97675 3.79617 0
M  V30 2771 C 270.476 1.52943 5.1236 0
M  V30 2772 C 271.776 3.389 3.97422 0
M  V30 2773 H 273.47 2.14586 2.0879 0
M  V30 2774 H 271.016 1.03308 1.00317 0
M  V30 2775 H 272.969 0.821025 4.13324 0
M  V30 2776 H 271.693 -0.0682969 3.26529 0
M  V30 2777 H 270.352 2.05205 3.03787 0
M  V30 2778 H 270 0.54262 5.00065 0
M  V30 2779 H 269.7 2.24532 5.43009 0
M  V30 2780 H 271.224 1.45786 5.92941 0
M  V30 2781 H 272.638 3.34081 4.659 0
M  V30 2782 H 271.035 4.0865 4.3946 0
M  V30 2783 H 272.105 3.80163 3.01006 0
M  V30 2784 N 273.449 -1.08991 1.13837 0
M  V30 2785 C 274.412 -2.13925 0.822715 0
M  V30 2786 C 275.412 -1.599 -0.1699 0
M  V30 2787 O 276.602 -1.74104 0.0577251 0
M  V30 2788 C 273.734 -3.40155 0.225318 0
M  V30 2789 H 274.927 -2.43358 1.75262 0
M  V30 2790 H 272.48 -1.24603 0.943594 0
M  V30 2791 H 273.215 -3.16352 -0.713594 0
M  V30 2792 H 273 -3.80661 0.940193 0
M  V30 2793 H 274.49 -4.17594 0.0214784 0
M  V30 2794 N 274.927 -0.932562 -1.27047 0
M  V30 2795 C 276.175 -0.574422 -1.93765 0
M  V30 2796 C 276.496 0.887993 -1.73608 0
M  V30 2797 O 275.766 1.62999 -1.08665 0
M  V30 2798 H 274.346 -0.209451 -0.717035 0
M  V30 2799 H 277.008 -1.18601 -1.5466 0
M  V30 2800 H 276.104 -0.784841 -3.02071 0
M  V30 2801 N 276.405 1.4127 -0.698611 0
M  V30 2802 C 277.816 1.84187 -0.305289 0
M  V30 2803 C 278.167 1.58449 1.15708 0
M  V30 2804 O 277.292 1.05651 1.88856 0
M  V30 2805 C 277.887 3.3435 -0.547314 0
M  V30 2806 C 276.446 3.75826 -0.207878 0
M  V30 2807 C 275.593 2.64647 -0.828099 0
M  V30 2808 H 278.544 1.30778 -0.89904 0
M  V30 2809 H 278.565 3.8001 0.192998 0
M  V30 2810 H 278.077 3.53051 -1.61172 0
M  V30 2811 H 276.178 3.62725 0.852143 0
M  V30 2812 H 276.291 4.74462 -0.665021 0
M  V30 2813 H 274.655 2.53395 -0.257458 0
M  V30 2814 H 275.438 2.86165 -1.89643 0
M  V30 2815 N 277.883 0.443576 1.51229 0
M  V30 2816 C 278.813 -0.355142 2.30783 0
M  V30 2817 C 279.794 -1.0154 1.36468 0
M  V30 2818 O 280.979 -1.01785 1.65389 0
M  V30 2819 C 278.109 -1.45312 3.15439 0
M  V30 2820 C 277.063 -0.916002 4.18083 0
M  V30 2821 C 276.389 -2.1102 4.91299 0
M  V30 2822 C 277.689 0.0538602 5.22272 0
M  V30 2823 H 279.383 0.308767 2.97804 0
M  V30 2824 H 276.929 0.149937 1.43217 0
M  V30 2825 H 278.882 -2.01914 3.69876 0
M  V30 2826 H 277.606 -2.14541 2.46252 0
M  V30 2827 H 276.265 -0.372145 3.64706 0
M  V30 2828 H 275.913 -2.78882 4.18609 0
M  V30 2829 H 275.613 -1.75717 5.60712 0
M  V30 2830 H 277.137 -2.68164 5.48562 0
M  V30 2831 H 278.551 -0.422069 5.71744 0
M  V30 2832 H 276.948 0.319776 5.99247 0
M  V30 2833 H 278.018 0.98858 4.74716 0
M  V30 2834 N 279.361 -1.56624 0.175154 0
M  V30 2835 C 280.586 -2.01813 -0.478137 0
M  V30 2836 C 281.011 -1.05457 -1.55757 0
M  V30 2837 O 280.369 -0.0347439 -1.81267 0
M  V30 2838 C 280.417 -3.45581 -1.02987 0
M  V30 2839 O 279.521 -3.52305 -2.14371 0
M  V30 2840 H 278.862 -0.65413 -0.114059 0
M  V30 2841 H 281.392 -2.02673 0.280173 0
M  V30 2842 H 281.402 -3.84965 -1.35151 0
M  V30 2843 H 280.077 -4.1521 -0.239556 0
M  V30 2844 H 278.654 -3.24783 -1.83222 0
M  V30 2845 N 280.839 0.0985539 -1.57292 0
M  V30 2846 C 282.064 0.820196 -1.90493 0
M  V30 2847 C 282.489 1.71658 -0.769094 0
M  V30 2848 O 281.847 1.79133 0.279495 0
M  V30 2849 C 281.895 1.61242 -3.22542 0
M  V30 2850 O 280.999 2.72108 -3.09888 0
M  V30 2851 H 280.34 0.225547 -0.62452 0
M  V30 2852 H 282.87 0.0748159 -2.04463 0
M  V30 2853 H 282.88 1.99737 -3.55766 0
M  V30 2854 H 281.555 0.954535 -4.04798 0
M  V30 2855 H 280.132 2.36667 -2.88172 0
M  V30 2856 N 282.317 1.53212 0.369288 0
M  V30 2857 C 283.563 1.69466 1.11397 0
M  V30 2858 C 283.896 0.443257 1.89074 0
M  V30 2859 O 283.171 -0.559386 1.86282 0
M  V30 2860 C 283.454 2.9422 2.07621 0
M  V30 2861 C 283.307 4.29508 1.33577 0
M  V30 2862 C 284.626 3.14565 3.07794 0
M  V30 2863 H 281.745 0.616667 0.403597 0
M  V30 2864 H 284.387 1.85845 0.395179 0
M  V30 2865 H 282.537 2.80387 2.68916 0
M  V30 2866 H 284.209 4.55147 0.750955 0
M  V30 2867 H 282.452 4.29088 0.637618 0
M  V30 2868 H 283.123 5.12926 2.03989 0
M  V30 2869 H 285.599 3.2756 2.56601 0
M  V30 2870 H 284.475 4.03297 3.72348 0
M  V30 2871 H 284.736 2.29675 3.77759 0
M  V30 2872 N 283.795 -0.628877 1.44509 0
M  V30 2873 C 285.02 -1.42048 1.5112 0
M  V30 2874 C 285.445 -1.87594 0.137818 0
M  V30 2875 O 284.803 -1.58873 -0.873437 0
M  V30 2876 C 284.851 -2.61541 2.48251 0
M  V30 2877 O 283.955 -3.61453 1.98559 0
M  V30 2878 H 283.296 -0.424942 0.510216 0
M  V30 2879 H 285.826 -0.767374 1.89664 0
M  V30 2880 H 285.836 -3.09057 2.66361 0
M  V30 2881 H 284.511 -2.27736 3.48007 0
M  V30 2882 H 283.088 -3.20731 1.90227 0
M  V30 2883 N 285.273 -1.31445 -0.869486 0
M  V30 2884 C 286.236 -1.19094 -1.9583 0
M  V30 2885 C 287.236 -0.117906 -1.60367 0
M  V30 2886 O 288.426 -0.367208 -1.70286 0
M  V30 2887 C 285.558 -0.828165 -3.30688 0
M  V30 2888 H 286.751 -2.15842 -2.08212 0
M  V30 2889 H 284.304 -1.15063 -1.05784 0
M  V30 2890 H 285.039 0.138142 -3.24006 0
M  V30 2891 H 284.824 -1.6038 -3.578 0
M  V30 2892 H 286.314 -0.765658 -4.10521 0
M  V30 2893 N 286.751 1.08385 -1.14413 0
M  V30 2894 C 288.167 1.32844 -0.884563 0
M  V30 2895 C 288.367 1.95841 0.474181 0
M  V30 2896 O 287.423 2.21158 1.21842 0
M  V30 2897 C 288.736 2.22978 -2.01745 0
M  V30 2898 C 290.284 2.36458 -2.05077 0
M  V30 2899 C 290.759 3.29934 -3.1766 0
M  V30 2900 N 292.25 3.37511 -3.17239 0
M  V30 2901 C 292.985 4.09871 -4.0099 0
M  V30 2902 N 292.481 4.84936 -4.94781 0
M  V30 2903 N 294.274 4.05704 -3.89051 0
M  V30 2904 H 286.425 0.658756 -2.01926 0
M  V30 2905 H 288.688 0.352821 -0.879899 0
M  V30 2906 H 288.394 1.83934 -2.99769 0
M  V30 2907 H 288.268 3.23441 -1.94077 0
M  V30 2908 H 290.655 2.7476 -1.0766 0
M  V30 2909 H 290.736 1.35736 -2.16816 0
M  V30 2910 H 290.38 2.92352 -4.15322 0
M  V30 2911 H 290.31 4.30584 -3.03158 0
M  V30 2912 H 292.801 2.83996 -2.49308 0
M  V30 2913 H 293.114 5.37612 -5.55151 0
M  V30 2914 H 291.459 4.83988 -4.98779 0
M  V30 2915 H 294.65 3.46167 -3.15097 0
M  V30 2916 H 294.823 4.61834 -4.54547 0
M  V30 2917 N 288.23 0.939286 1.26551 0
M  V30 2918 C 289.16 0.465044 2.28822 0
M  V30 2919 C 290.141 -0.480692 1.63167 0
M  V30 2920 O 291.326 -0.382955 1.90387 0
M  V30 2921 C 288.456 -0.27234 3.46231 0
M  V30 2922 C 287.41 0.58666 4.2396 0
M  V30 2923 C 286.736 -0.280573 5.33963 0
M  V30 2924 C 288.036 1.85704 4.88171 0
M  V30 2925 H 289.73 1.31979 2.68741 0
M  V30 2926 H 287.276 0.636061 1.29191 0
M  V30 2927 H 289.229 -0.615133 4.16886 0
M  V30 2928 H 287.953 -1.16121 3.0526 0
M  V30 2929 H 286.612 0.91232 3.55067 0
M  V30 2930 H 286.26 -1.16874 4.89234 0
M  V30 2931 H 285.96 0.29076 5.8688 0
M  V30 2932 H 287.484 -0.618678 6.07458 0
M  V30 2933 H 288.898 1.58161 5.51052 0
M  V30 2934 H 287.295 2.37279 5.51197 0
M  V30 2935 H 288.365 2.56957 4.11219 0
M  V30 2936 N 289.708 -1.40897 0.706093 0
M  V30 2937 C 291.124 -1.55042 0.37869 0
M  V30 2938 C 291.324 -1.67944 -1.11342 0
M  V30 2939 O 290.38 -1.66372 -1.89938 0
M  V30 2940 C 291.693 -2.78398 1.13643 0
M  V30 2941 C 293.241 -2.92206 1.12181 0
M  V30 2942 C 293.716 -4.18463 1.86152 0
M  V30 2943 N 295.207 -4.25443 1.83173 0
M  V30 2944 C 295.942 -5.2202 2.37239 0
M  V30 2945 N 295.438 -6.24563 2.99821 0
M  V30 2946 N 297.231 -5.14033 2.27435 0
M  V30 2947 H 289.382 -1.30769 1.67372 0
M  V30 2948 H 291.645 -0.631653 0.706907 0
M  V30 2949 H 291.351 -2.7511 2.19106 0
M  V30 2950 H 291.225 -3.70228 0.721853 0
M  V30 2951 H 293.612 -2.95004 0.0754171 0
M  V30 2952 H 293.693 -2.01521 1.57554 0
M  V30 2953 H 293.337 -4.16427 2.90776 0
M  V30 2954 H 293.267 -5.08141 1.38206 0
M  V30 2955 H 295.758 -3.51976 1.37556 0
M  V30 2956 H 296.071 -6.94665 3.38616 0
M  V30 2957 H 294.416 -6.25035 3.03902 0
M  V30 2958 H 297.607 -4.3285 1.78208 0
M  V30 2959 H 297.78 -5.89129 2.69873 0
M  V30 2960 N 291.186 -0.45159 -1.50991 0
M  V30 2961 C 292.116 0.342898 -2.30969 0
M  V30 2962 C 293.097 1.00815 -1.37005 0
M  V30 2963 O 294.282 1.00907 -1.65926 0
M  V30 2964 C 291.412 1.43637 -3.16205 0
M  V30 2965 C 290.366 0.893818 -4.18563 0
M  V30 2966 C 289.692 2.08411 -4.92411 0
M  V30 2967 C 290.992 -0.0815568 -5.22236 0
M  V30 2968 H 292.686 -0.324556 -2.97636 0
M  V30 2969 H 290.232 -0.157531 -1.43136 0
M  V30 2970 H 292.185 1.9995 -3.70942 0
M  V30 2971 H 290.909 2.13232 -2.47386 0
M  V30 2972 H 289.568 0.352798 -3.64898 0
M  V30 2973 H 289.216 2.76658 -4.20082 0
M  V30 2974 H 288.916 1.72741 -5.61636 0
M  V30 2975 H 290.44 2.65251 -5.49976 0
M  V30 2976 H 291.854 0.391742 -5.7196 0
M  V30 2977 H 290.251 -0.351551 -5.99069 0
M  V30 2978 H 291.321 -1.01374 -4.74185 0
M  V30 2979 N 292.664 1.56529 -0.183458 0
M  V30 2980 C 293.627 2.17324 0.728223 0
M  V30 2981 C 294.627 1.12453 1.14939 0
M  V30 2982 O 295.817 1.37902 1.06437 0
M  V30 2983 C 292.949 2.76591 1.99274 0
M  V30 2984 H 294.142 2.99241 0.198772 0
M  V30 2985 H 291.695 1.5616 0.0661391 0
M  V30 2986 H 292.43 1.98441 2.56499 0
M  V30 2987 H 292.215 3.5335 1.69959 0
M  V30 2988 H 293.705 3.23311 2.6431 0
M  V30 2989 N 294.142 -0.090211 1.57342 0
M  V30 2990 C 295.39 -0.791241 1.85967 0
M  V30 2991 C 295.711 -1.7903 0.772859 0
M  V30 2992 O 294.981 -1.94872 -0.200398 0
M  V30 2993 H 293.561 -0.295205 0.686195 0
M  V30 2994 H 296.223 -0.0706782 1.94772 0
M  V30 2995 H 295.319 -1.31882 2.82867 0
M  V30 2996 N 295.62 -1.53406 -0.361157 0
M  V30 2997 C 296.866 -1.70999 -1.1014 0
M  V30 2998 C 297.221 -0.458425 -1.86859 0
M  V30 2999 O 296.514 0.548654 -1.83577 0
M  V30 3000 C 296.708 -2.90211 -2.08596 0
M  V30 3001 C 296.537 -4.26841 -1.41553 0
M  V30 3002 C 295.307 -4.91621 -1.16778 0
M  V30 3003 C 297.505 -5.07212 -0.850915 0
M  V30 3004 N 295.487 -6.12164 -0.461312 0
M  V30 3005 C 296.858 -6.19394 -0.274046 0
M  V30 3006 C 298.913 -4.92218 -0.750036 0
M  V30 3007 C 297.616 -7.18221 0.393868 0
M  V30 3008 C 299.642 -5.91322 -0.095894 0
M  V30 3009 C 299.004 -7.0283 0.470081 0
M  V30 3010 H 295.103 -0.678939 -0.388028 0
M  V30 3011 H 297.687 -1.90811 -0.38722 0
M  V30 3012 H 295.858 -2.71931 -2.77323 0
M  V30 3013 H 297.59 -2.96606 -2.7533 0
M  V30 3014 H 294.345 -4.50849 -1.45024 0
M  V30 3015 H 294.769 -6.76888 -0.123312 0
M  V30 3016 H 299.411 -4.06192 -1.17337 0
M  V30 3017 H 297.129 -8.03835 0.82914 0
M  V30 3018 H 300.715 -5.81797 -0.0187075 0
M  V30 3019 H 299.595 -7.782 0.968241 0
M  V30 3020 N 297.098 0.621204 -1.44841 0
M  V30 3021 C 298.048 1.72663 -1.48901 0
M  V30 3022 C 299.032 1.56964 -0.353702 0
M  V30 3023 O 300.224 1.66532 -0.599669 0
M  V30 3024 C 297.353 3.11381 -1.44557 0
M  V30 3025 C 296.439 3.32514 -2.6324 0
M  V30 3026 N 296.83 3.23969 -3.8843 0
M  V30 3027 C 295.128 3.63343 -2.58647 0
M  V30 3028 C 295.829 3.46062 -4.67564 0
M  V30 3029 N 294.805 3.69407 -3.98797 0
M  V30 3030 H 298.607 1.64529 -2.43531 0
M  V30 3031 H 296.121 0.82401 -1.39942 0
M  V30 3032 H 298.118 3.90667 -1.4555 0
M  V30 3033 H 296.778 3.20674 -0.509731 0
M  V30 3034 H 297.789 3.02669 -4.20252 0
M  V30 3035 H 294.466 3.79556 -1.73906 0
M  V30 3036 H 295.856 3.44963 -5.76585 0
M  V30 3037 N 298.576 1.31904 0.862503 0
M  V30 3038 C 299.523 1.20182 1.9704 0
M  V30 3039 C 300.493 0.0858247 1.65878 0
M  V30 3040 O 301.678 0.26 1.8902 0
M  V30 3041 C 298.818 0.922797 3.32533 0
M  V30 3042 C 297.931 2.12284 3.76244 0
M  V30 3043 C 297.066 1.77996 5.00491 0
M  V30 3044 C 296.105 2.94366 5.36671 0
M  V30 3045 N 295.242 2.60223 6.52095 0
M  V30 3046 H 300.082 2.14951 2.06398 0
M  V30 3047 H 297.619 1.06917 1.01031 0
M  V30 3048 H 299.577 0.741548 4.10557 0
M  V30 3049 H 298.207 0.0119227 3.22798 0
M  V30 3050 H 297.259 2.41461 2.9394 0
M  V30 3051 H 298.571 2.99357 3.98982 0
M  V30 3052 H 297.725 1.56377 5.862 0
M  V30 3053 H 296.464 0.881252 4.79672 0
M  V30 3054 H 295.469 3.16625 4.49476 0
M  V30 3055 H 296.694 3.84957 5.59451 0
M  V30 3056 H 294.64 1.72884 6.32809 0
M  V30 3057 H 294.557 3.40827 6.74814 0
M  V30 3058 H 295.825 2.42016 7.40978 0
M  V30 3059 N 300.054 -1.07777 1.14986 0
M  V30 3060 C 301.284 -1.83752 0.944402 0
M  V30 3061 C 301.692 -1.8218 -0.51058 0
M  V30 3062 O 301.035 -1.22852 -1.36576 0
M  V30 3063 C 301.097 -3.32128 1.37592 0
M  V30 3064 C 300.761 -3.57425 2.84775 0
M  V30 3065 C 301.758 -3.5173 3.8286 0
M  V30 3066 C 299.443 -3.8523 3.2234 0
M  V30 3067 C 301.437 -3.73482 5.16517 0
M  V30 3068 C 299.124 -4.06634 4.56171 0
M  V30 3069 C 300.122 -4.00754 5.53069 0
M  V30 3070 O 299.81 -4.2159 6.84483 0
M  V30 3071 H 299.542 -0.58673 0.335744 0
M  V30 3072 H 302.096 -1.36982 1.53052 0
M  V30 3073 H 300.326 -3.79686 0.733165 0
M  V30 3074 H 302.015 -3.89555 1.14024 0
M  V30 3075 H 302.781 -3.30256 3.55184 0
M  V30 3076 H 298.66 -3.88923 2.47508 0
M  V30 3077 H 302.204 -3.68808 5.92137 0
M  V30 3078 H 298.101 -4.27593 4.83564 0
M  V30 3079 H 298.869 -4.38961 6.90837 0
M  V30 3080 N 301.532 -0.945985 -1.26051 0
M  V30 3081 C 302.462 -0.477172 -2.28572 0
M  V30 3082 C 303.443 0.472032 -1.63419 0
M  V30 3083 O 304.628 0.372853 -1.90587 0
M  V30 3084 C 301.758 0.253975 -3.4637 0
M  V30 3085 C 300.712 -0.609135 -4.23643 0
M  V30 3086 C 300.038 0.252252 -5.34105 0
M  V30 3087 C 301.338 -1.8829 -4.8718 0
M  V30 3088 H 303.032 -1.33402 -2.68038 0
M  V30 3089 H 300.578 -0.642904 -1.28852 0
M  V30 3090 H 302.531 0.593016 -4.17207 0
M  V30 3091 H 301.255 1.145 -3.05871 0
M  V30 3092 H 299.914 -0.931138 -3.54578 0
M  V30 3093 H 299.562 1.14278 -4.89846 0
M  V30 3094 H 299.262 -0.32188 -5.86718 0
M  V30 3095 H 300.786 0.586454 -6.07777 0
M  V30 3096 H 302.2 -1.61081 -5.50205 0
M  V30 3097 H 300.597 -2.40199 -5.49931 0
M  V30 3098 H 301.667 -2.59134 -4.09851 0
M  V30 3099 N 303.011 1.40521 -0.713556 0
M  V30 3100 C 304.239 2.05237 -0.261775 0
M  V30 3101 C 304.654 1.53755 1.09567 0
M  V30 3102 O 304.011 0.693268 1.6882 0
M  V30 3103 C 304.062 3.60763 -0.230706 0
M  V30 3104 O 303.783 4.10345 -1.53455 0
M  V30 3105 C 305.284 4.42651 0.239874 0
M  V30 3106 H 302.504 0.660533 -0.118057 0
M  V30 3107 H 305.048 1.79967 -0.971192 0
M  V30 3108 H 303.203 3.8501 0.429661 0
M  V30 3109 H 303.617 5.04526 -1.43366 0
M  V30 3110 H 305.091 5.51599 0.210468 0
M  V30 3111 H 305.568 4.20082 1.28171 0
M  V30 3112 H 306.174 4.23507 -0.390142 0
M  V30 3113 N 304.489 0.459591 1.5075 0
M  V30 3114 C 305.905 0.113092 1.59199 0
M  V30 3115 C 306.105 -1.37951 1.46874 0
M  V30 3116 O 305.161 -2.15168 1.32132 0
M  V30 3117 C 306.474 0.653043 2.93523 0
M  V30 3118 C 308.022 0.615449 3.0689 0
M  V30 3119 C 308.497 1.13275 4.43771 0
M  V30 3120 N 309.988 1.09167 4.50152 0
M  V30 3121 C 310.723 1.46256 5.54434 0
M  V30 3122 N 310.219 1.90739 6.66026 0
M  V30 3123 N 312.012 1.37932 5.44914 0
M  V30 3124 H 304.163 1.43049 1.57005 0
M  V30 3125 H 306.426 0.590861 0.741341 0
M  V30 3126 H 306.132 1.69822 3.07983 0
M  V30 3127 H 306.006 0.0902132 3.77092 0
M  V30 3128 H 308.393 -0.420793 2.92084 0
M  V30 3129 H 308.474 1.21495 2.25106 0
M  V30 3130 H 308.118 2.16757 4.59324 0
M  V30 3131 H 308.048 0.509576 5.24129 0
M  V30 3132 H 310.539 0.76528 3.7007 0
M  V30 3133 H 310.852 2.17218 7.41644 0
M  V30 3134 H 309.197 1.94683 6.67176 0
M  V30 3135 H 312.388 1.0303 4.56621 0
M  V30 3136 H 312.561 1.67164 6.26067 0
M  V30 3137 N 305.967 -1.56429 0.191757 0
M  V30 3138 C 306.915 -2.20273 -0.747174 0
M  V30 3139 C 307.909 -1.17288 -1.22229 0
M  V30 3140 O 309.115 -1.35441 -1.18557 0
M  V30 3141 H 305.49 -0.705885 -0.259289 0
M  V30 3142 H 307.461 -2.97826 -0.184963 0
M  V30 3143 C 306.21 -2.87356 -1.95759 0
M  V30 3144 H 305.533 -3.66341 -1.60106 0
M  V30 3145 H 306.973 -3.3547 -2.59299 0
M  V30 3146 C 305.432 -1.88213 -2.79423 0
M  V30 3147 O 305.962 -1.38033 -3.7724 0
M  V30 3148 N 304.168 -1.56516 -2.44849 0
M  V30 3149 H 303.715 -1.97516 -1.65364 0
M  V30 3150 H 303.673 -0.904369 -3.01112 0
M  V30 3151 N 307.445 0.0818655 -1.57387 0
M  V30 3152 C 308.377 1.12484 -1.997 0
M  V30 3153 C 309.39 1.35564 -0.90146 0
M  V30 3154 O 310.579 1.33982 -1.17945 0
M  V30 3155 C 307.679 2.47778 -2.31213 0
M  V30 3156 C 306.852 2.44793 -3.62485 0
M  V30 3157 C 305.911 3.62117 -3.81782 0
M  V30 3158 O 304.937 3.44005 -4.53486 0
M  V30 3159 N 306.139 4.82094 -3.23367 0
M  V30 3160 H 308.904 0.764585 -2.89783 0
M  V30 3161 H 306.465 0.270664 -1.59621 0
M  V30 3162 H 308.457 3.24891 -2.41304 0
M  V30 3163 H 307.027 2.75843 -1.4707 0
M  V30 3164 H 306.247 1.53134 -3.6324 0
M  V30 3165 H 307.535 2.39889 -4.48699 0
M  V30 3166 H 306.933 4.99713 -2.65148 0
M  V30 3167 H 305.49 5.56753 -3.38923 0
M  V30 3168 N 308.923 1.53595 0.353017 0
M  V30 3169 C 310.172 1.69603 1.09168 0
M  V30 3170 C 310.485 0.460925 1.90092 0
M  V30 3171 O 311.691 0.501774 2.66823 0
M  V30 3172 C 310.147 2.99872 1.9901 0
M  V30 3173 C 309.755 4.30687 1.23339 0
M  V30 3174 C 311.499 3.25246 2.72792 0
M  V30 3175 C 309.406 5.52036 2.12156 0
M  V30 3176 H 308.336 0.631966 0.411261 0
M  V30 3177 H 310.987 1.80096 0.351802 0
M  V30 3178 H 309.369 2.83212 2.7678 0
M  V30 3179 H 310.543 4.58019 0.505456 0
M  V30 3180 H 308.858 4.11853 0.613663 0
M  V30 3181 H 311.455 4.13095 3.39495 0
M  V30 3182 H 311.798 2.41846 3.38846 0
M  V30 3183 H 312.331 3.42638 2.021 0
M  V30 3184 H 309.07 6.37951 1.50659 0
M  V30 3185 H 308.59 5.28966 2.82764 0
M  V30 3186 H 310.269 5.87313 2.71427 0
M  V30 3187 N 310.401 -0.613514 1.45168 0
M  V30 3188 C 311.333 -1.73825 1.4939 0
M  V30 3189 C 312.346 -1.58175 0.385304 0
M  V30 3190 O 313.535 -1.66165 0.652036 0
M  V30 3191 C 310.635 -3.11758 1.32891 0
M  V30 3192 C 309.808 -3.53704 2.57317 0
M  V30 3193 C 308.867 -4.70579 2.35462 0
M  V30 3194 O 307.893 -4.77996 3.09044 0
M  V30 3195 N 309.095 -5.63454 1.39644 0
M  V30 3196 H 311.86 -1.70669 2.46358 0
M  V30 3197 H 309.421 -0.79862 1.40832 0
M  V30 3198 H 311.413 -3.87692 1.1609 0
M  V30 3199 H 309.983 -3.09456 0.442218 0
M  V30 3200 H 309.203 -2.67794 2.89275 0
M  V30 3201 H 310.491 -3.78486 3.40038 0
M  V30 3202 H 309.889 -5.6017 0.789062 0
M  V30 3203 H 308.446 -6.38944 1.28816 0
M  V30 3204 N 311.879 -1.3236 -0.855495 0
M  V30 3205 C 313.29 -1.2056 -1.42556 0
M  V30 3206 C 313.641 0.182209 -1.95352 0
M  V30 3207 O 312.766 1.08088 -1.87472 0
M  V30 3208 C 313.361 -2.1826 -2.59129 0
M  V30 3209 C 311.92 -2.10351 -3.12137 0
M  V30 3210 C 311.067 -2.06674 -1.84882 0
M  V30 3211 H 314.018 -1.442 -0.662727 0
M  V30 3212 H 314.039 -1.78064 -3.36264 0
M  V30 3213 H 313.551 -3.19257 -2.20673 0
M  V30 3214 H 311.652 -1.12599 -3.55179 0
M  V30 3215 H 311.765 -3.00135 -3.73438 0
M  V30 3216 H 310.129 -1.51901 -2.04446 0
M  V30 3217 H 310.912 -3.09451 -1.48643 0
M  V30 3218 N 313.357 1.07166 -1.15556 0
M  V30 3219 C 314.606 1.79181 -0.926132 0
M  V30 3220 C 314.919 1.87768 0.547967 0
M  V30 3221 O 316.125 2.56323 0.895036 0
M  V30 3222 C 314.581 3.22 -1.60761 0
M  V30 3223 C 314.189 3.21607 -3.11886 0
M  V30 3224 C 315.933 3.9861 -1.4598 0
M  V30 3225 C 313.84 4.59092 -3.72812 0
M  V30 3226 H 312.77 0.67154 -0.342856 0
M  V30 3227 H 315.421 1.2027 -1.3859 0
M  V30 3228 H 313.803 3.81115 -1.07553 0
M  V30 3229 H 314.977 2.72127 -3.71865 0
M  V30 3230 H 313.292 2.58495 -3.2645 0
M  V30 3231 H 315.889 5.00225 -1.88888 0
M  V30 3232 H 316.232 4.143 -0.407541 0
M  V30 3233 H 316.765 3.45996 -1.96295 0
M  V30 3234 H 313.504 4.48606 -4.77946 0
M  V30 3235 H 313.024 5.08803 -3.17616 0
M  V30 3236 H 314.703 5.28059 -3.73848 0
M  V30 3237 N 314.835 0.952656 1.25548 0
M  V30 3238 C 315.798 0.475794 2.24207 0
M  V30 3239 C 316.798 -0.419428 1.55234 0
M  V30 3240 O 317.988 -0.216994 1.72843 0
M  V30 3241 C 315.12 -0.312814 3.39462 0
M  V30 3242 H 316.313 1.34779 2.67908 0
M  V30 3243 H 313.866 0.735739 1.37901 0
M  V30 3244 H 314.601 -1.20257 3.01179 0
M  V30 3245 H 314.386 0.329404 3.90714 0
M  V30 3246 H 315.876 -0.635986 4.12729 0
M  V30 3247 N 316.313 -1.40141 0.720998 0
M  V30 3248 C 317.223 -2.34486 0.0731031 0
M  V30 3249 C 318.239 -1.57587 -0.737723 0
M  V30 3250 O 319.415 -1.89949 -0.669429 0
M  V30 3251 C 316.48 -3.36528 -0.833656 0
M  V30 3252 C 315.541 -4.29298 -0.0121673 0
M  V30 3253 C 314.774 -5.26466 -0.875742 0
M  V30 3254 O 314.997 -5.29745 -2.11485 0
M  V30 3255 O 313.931 -6.01092 -0.31185 0
M  V30 3256 H 317.757 -2.9152 0.851444 0
M  V30 3257 H 315.342 -1.41427 0.481527 0
M  V30 3258 H 317.224 -3.99093 -1.35289 0
M  V30 3259 H 315.899 -2.81899 -1.59105 0
M  V30 3260 H 314.806 -3.70001 0.552262 0
M  V30 3261 H 316.139 -4.87094 0.707129 0
M  V30 3262 N 317.792 -0.46758 -1.50504 0
M  V30 3263 C 319.208 -0.121533 -1.59137 0
M  V30 3264 C 319.408 1.3717 -1.47603 0
M  V30 3265 O 318.464 2.14464 -1.33272 0
M  V30 3266 C 319.777 -0.6686 -2.93173 0
M  V30 3267 C 321.325 -0.631716 -3.06559 0
M  V30 3268 C 321.8 -1.15627 -4.43164 0
M  V30 3269 N 323.291 -1.11553 -4.49567 0
M  V30 3270 C 324.026 -1.49195 -5.5365 0
M  V30 3271 N 323.522 -1.94269 -6.65005 0
M  V30 3272 N 325.315 -1.4082 -5.44175 0
M  V30 3273 H 317.466 -1.4388 -1.56245 0
M  V30 3274 H 319.729 -0.594784 -0.738198 0
M  V30 3275 H 319.435 -1.71453 -3.07078 0
M  V30 3276 H 319.309 -0.11021 -3.77039 0
M  V30 3277 H 321.696 0.405297 -2.92304 0
M  V30 3278 H 321.777 -1.22687 -2.24458 0
M  V30 3279 H 321.421 -2.1919 -4.58168 0
M  V30 3280 H 321.351 -0.537365 -5.23851 0
M  V30 3281 H 323.842 -0.784895 -3.69659 0
M  V30 3282 H 324.155 -2.21148 -7.40482 0
M  V30 3283 H 322.5 -1.98219 -6.66134 0
M  V30 3284 H 325.691 -1.0545 -4.56068 0
M  V30 3285 H 325.864 -1.70481 -6.25172 0
M  V30 3286 N 319.27 1.56325 -0.20005 0
M  V30 3287 C 320.18 2.22931 0.730668 0
M  V30 3288 C 321.196 1.22997 1.23076 0
M  V30 3289 O 322.372 1.55748 1.27689 0
M  V30 3290 C 319.437 2.87948 1.93098 0
M  V30 3291 C 318.498 4.03166 1.47497 0
M  V30 3292 C 317.731 4.65073 2.61807 0
M  V30 3293 O 317.954 4.25913 3.79413 0
M  V30 3294 O 316.888 5.54452 2.34237 0
M  V30 3295 H 320.714 3.03084 0.193391 0
M  V30 3296 H 318.299 1.49371 0.0294621 0
M  V30 3297 H 320.181 3.29063 2.6324 0
M  V30 3298 H 318.856 2.10771 2.45677 0
M  V30 3299 H 317.763 3.66664 0.742201 0
M  V30 3300 H 319.096 4.82022 0.995796 0
M  V30 3301 N 320.748 -0.0735177 1.57428 0
M  V30 3302 C 321.996 -0.771472 1.86796 0
M  V30 3303 C 322.317 -1.78201 0.791804 0
M  V30 3304 O 321.587 -1.95074 -0.179718 0
M  V30 3305 H 320.167 -0.28791 0.689287 0
M  V30 3306 H 322.829 -0.0500161 1.94836 0
M  V30 3307 H 321.925 -1.28874 2.8425 0
M  V30 3308 N 322.226 -1.5378 -0.344866 0
M  V30 3309 C 323.503 -1.61589 -1.10219 0
M  V30 3310 C 323.883 -0.436316 -2.06542 0
M  V30 3311 O 323.231 0.571543 -2.21237 0
M  V30 3312 C 323.441 -2.97602 -1.82301 0
M  V30 3313 C 324.789 -3.5291 -2.36093 0
M  V30 3314 O 325.813 -2.99768 -1.924 0
M  V30 3315 O 324.672 -4.45859 -3.16026 0
M  V30 3316 H 321.766 -0.653522 -0.506792 0
M  V30 3317 H 324.312 -1.66126 -0.346465 0
M  V30 3318 H 323.084 -3.74893 -1.12121 0
M  V30 3319 H 322.707 -2.9665 -2.64735 0
M  V30 3320 N 323.704 0.605807 -1.45491 0
M  V30 3321 C 324.95 1.36481 -1.50813 0
M  V30 3322 C 325.305 1.91826 -0.148469 0
M  V30 3323 O 324.598 1.72211 0.839869 0
M  V30 3324 C 324.792 2.53012 -2.52428 0
M  V30 3325 C 324.621 2.09078 -3.98141 0
M  V30 3326 C 323.391 1.95167 -4.66088 0
M  V30 3327 C 325.589 1.66438 -4.86624 0
M  V30 3328 N 323.571 1.45062 -5.96515 0
M  V30 3329 C 324.942 1.27761 -6.06694 0
M  V30 3330 C 326.997 1.54046 -4.7347 0
M  V30 3331 C 325.7 0.779286 -7.15066 0
M  V30 3332 C 327.726 1.05618 -5.81892 0
M  V30 3333 C 327.088 0.67906 -7.01119 0
M  V30 3334 H 323.187 0.493267 -0.606805 0
M  V30 3335 H 325.771 0.692347 -1.81974 0
M  V30 3336 H 323.942 3.17851 -2.23215 0
M  V30 3337 H 325.674 3.19897 -2.47887 0
M  V30 3338 H 322.429 2.16407 -4.21266 0
M  V30 3339 H 322.853 1.22237 -6.65873 0
M  V30 3340 H 327.495 1.81827 -3.81705 0
M  V30 3341 H 325.213 0.489026 -8.06619 0
M  V30 3342 H 328.799 0.964529 -5.73749 0
M  V30 3343 H 327.679 0.310091 -7.83587 0
M  V30 3344 N 325.182 1.32811 0.848464 0
M  V30 3345 C 326.407 1.26882 1.6406 0
M  V30 3346 C 326.832 -0.15913 1.87426 0
M  V30 3347 O 326.19 -1.11258 1.43148 0
M  V30 3348 C 326.238 2.03997 2.97351 0
M  V30 3349 O 325.342 1.39201 3.88197 0
M  V30 3350 H 324.683 0.436982 0.499943 0
M  V30 3351 H 327.213 1.75224 1.0563 0
M  V30 3352 H 327.223 2.14403 3.47124 0
M  V30 3353 H 325.898 3.0783 2.79666 0
M  V30 3354 H 324.475 1.37381 3.46671 0
M  V30 3355 N 326.66 -1.06551 1.16123 0
M  V30 3356 C 327.623 -2.12132 0.867906 0
M  V30 3357 C 328.623 -1.60224 -0.135944 0
M  V30 3358 O 329.813 -1.73943 0.0946422 0
M  V30 3359 C 326.945 -3.396 0.297419 0
M  V30 3360 H 328.138 -2.39586 1.80385 0
M  V30 3361 H 325.691 -1.22574 0.969812 0
M  V30 3362 H 326.426 -3.17794 -0.64633 0
M  V30 3363 H 326.211 -3.78581 1.02073 0
M  V30 3364 H 327.701 -4.17455 0.110052 0
M  V30 3365 N 328.138 -0.959301 -1.25041 0
M  V30 3366 C 329.071 -0.427418 -2.24161 0
M  V30 3367 C 330.049 0.493837 -1.54919 0
M  V30 3368 O 331.233 0.427144 -1.83597 0
M  V30 3369 C 328.36 0.383893 -3.36517 0
M  V30 3370 C 327.406 -0.478431 -4.23808 0
M  V30 3371 S 328.239 -1.91353 -5.00144 0
M  V30 3372 C 329.395 -1.11077 -6.15965 0
M  V30 3373 H 329.628 -1.26743 -2.6893 0
M  V30 3374 H 327.161 -0.763714 -1.34189 0
M  V30 3375 H 329.119 0.846039 -4.01687 0
M  V30 3376 H 327.78 1.19878 -2.90324 0
M  V30 3377 H 326.973 0.14406 -5.03794 0
M  V30 3378 H 326.575 -0.87597 -3.63597 0
M  V30 3379 H 328.867 -0.361699 -6.76534 0
M  V30 3380 H 329.81 -1.88472 -6.82557 0
M  V30 3381 H 330.218 -0.638843 -5.60873 0
M  V30 3382 N 329.616 1.39756 -0.72842 0
M  V30 3383 C 330.841 2.05472 -0.282159 0
M  V30 3384 C 331.266 1.54549 1.07221 0
M  V30 3385 O 330.624 0.686372 1.67805 0
M  V30 3386 C 330.672 3.59462 -0.286264 0
M  V30 3387 O 329.776 4.05918 0.728298 0
M  V30 3388 H 329.117 0.651226 -0.129618 0
M  V30 3389 H 331.647 1.78915 -0.992499 0
M  V30 3390 H 331.657 4.07798 -0.128373 0
M  V30 3391 H 330.332 3.95889 -1.27456 0
M  V30 3392 H 328.909 3.69012 0.537081 0
M  V30 3393 N 331.094 0.475555 1.50254 0
M  V30 3394 C 332.342 -0.077738 2.0195 0
M  V30 3395 C 332.663 -1.39813 1.35931 0
M  V30 3396 O 331.933 -1.89249 0.506123 0
M  V30 3397 H 330.513 -0.031719 0.746326 0
M  V30 3398 H 333.175 0.626995 1.84539 0
M  V30 3399 H 332.271 -0.225995 3.11281 0
M  V30 3400 N 332.573 -1.56217 0.208337 0
M  V30 3401 C 333.82 -1.97949 -0.42692 0
M  V30 3402 C 334.148 -1.09562 -1.60706 0
M  V30 3403 O 333.403 -0.137616 -1.95216 0
M  V30 3404 C 333.702 -3.45441 -0.916797 0
M  V30 3405 C 333.368 -4.50646 0.151391 0
M  V30 3406 C 332.03 -4.79139 0.444867 0
M  V30 3407 C 334.382 -5.13811 0.874492 0
M  V30 3408 C 331.71 -5.68084 1.46619 0
M  V30 3409 C 334.062 -6.03861 1.88506 0
M  V30 3410 C 332.726 -6.30704 2.18559 0
M  V30 3411 H 331.996 -0.724345 -0.156221 0
M  V30 3412 H 334.643 -1.89006 0.308084 0
M  V30 3413 H 332.948 -3.51521 -1.73032 0
M  V30 3414 H 334.645 -3.75094 -1.41794 0
M  V30 3415 H 331.235 -4.28511 -0.0875068 0
M  V30 3416 H 335.419 -4.91879 0.660996 0
M  V30 3417 H 330.675 -5.87151 1.7048 0
M  V30 3418 H 334.849 -6.51861 2.45051 0
M  V30 3419 H 332.476 -6.99424 2.97843 0
M  V30 3420 N 334.051 0.0651679 -1.57465 0
M  V30 3421 C 334.983 1.10359 -2.00882 0
M  V30 3422 C 335.996 1.346 -0.915788 0
M  V30 3423 O 337.185 1.32723 -1.1936 0
M  V30 3424 C 334.285 2.45312 -2.33828 0
M  V30 3425 C 333.458 2.40934 -3.65061 0
M  V30 3426 C 332.517 3.58047 -3.85602 0
M  V30 3427 O 331.543 3.39175 -4.57109 0
M  V30 3428 N 332.745 4.78637 -3.28462 0
M  V30 3429 H 335.51 0.733807 -2.90578 0
M  V30 3430 H 333.071 0.253719 -1.599 0
M  V30 3431 H 335.063 3.22314 -2.44737 0
M  V30 3432 H 333.633 2.74267 -1.49988 0
M  V30 3433 H 332.853 1.49273 -3.64844 0
M  V30 3434 H 334.141 2.35117 -4.51218 0
M  V30 3435 H 333.539 4.96872 -2.70433 0
M  V30 3436 H 332.096 5.53127 -3.44809 0
M  V30 3437 N 335.529 1.53961 0.336706 0
M  V30 3438 C 336.461 1.78751 1.4346 0
M  V30 3439 C 337.474 0.669019 1.48418 0
M  V30 3440 O 338.663 0.945884 1.51378 0
M  V30 3441 C 335.763 1.87844 2.82078 0
M  V30 3442 C 334.936 3.17854 3.00479 0
M  V30 3443 C 333.995 3.17816 4.19379 0
M  V30 3444 O 333.021 3.91511 4.13168 0
M  V30 3445 N 334.223 2.40669 5.2826 0
M  V30 3446 H 336.988 2.73493 1.22563 0
M  V30 3447 H 334.549 1.53096 0.526625 0
M  V30 3448 H 336.541 1.85261 3.59806 0
M  V30 3449 H 335.111 1.00257 2.96086 0
M  V30 3450 H 334.331 3.33504 2.10163 0
M  V30 3451 H 335.619 4.03718 3.0966 0
M  V30 3452 H 335.017 1.8036 5.36178 0
M  V30 3453 H 333.574 2.43877 6.04456 0
M  V30 3454 N 337.007 -0.598083 1.45811 0
M  V30 3455 C 338.235 -1.38322 1.53866 0
M  V30 3456 C 338.65 -1.87992 0.174479 0
M  V30 3457 O 338.007 -1.62756 -0.825627 0
M  V30 3458 C 338.058 -2.58125 2.53089 0
M  V30 3459 O 337.779 -2.10516 3.84206 0
M  V30 3460 C 339.28 -3.50869 2.70935 0
M  V30 3461 H 336.5 -0.423093 0.520801 0
M  V30 3462 H 339.044 -0.728527 1.91083 0
M  V30 3463 H 337.199 -3.19615 2.18917 0
M  V30 3464 H 337.613 -2.88425 4.38077 0
M  V30 3465 H 339.087 -4.31451 3.44317 0
M  V30 3466 H 339.564 -4.01822 1.77301 0
M  V30 3467 H 340.17 -2.95225 3.06141 0
M  V30 3468 N 338.485 -1.33259 -0.841409 0
M  V30 3469 C 339.418 -1.1764 -1.95541 0
M  V30 3470 C 340.396 -0.072501 -1.62438 0
M  V30 3471 O 341.58 -0.23427 -1.87039 0
M  V30 3472 C 338.707 -0.803794 -3.29024 0
M  V30 3473 C 337.753 -1.91482 -3.81099 0
M  V30 3474 S 338.586 -3.52538 -4.03085 0
M  V30 3475 C 339.742 -3.17279 -5.39523 0
M  V30 3476 H 339.975 -2.11941 -2.08491 0
M  V30 3477 H 337.508 -1.18072 -0.9949 0
M  V30 3478 H 339.466 -0.595592 -4.06156 0
M  V30 3479 H 338.127 0.120574 -3.13868 0
M  V30 3480 H 337.32 -1.60742 -4.7768 0
M  V30 3481 H 336.922 -2.07956 -3.10854 0
M  V30 3482 H 339.214 -2.67946 -6.22263 0
M  V30 3483 H 340.157 -4.1293 -5.75234 0
M  V30 3484 H 340.565 -2.53943 -5.04156 0
M  V30 3485 N 339.963 1.05934 -1.16686 0
M  V30 3486 C 340.895 2.13468 -0.834503 0
M  V30 3487 C 341.908 1.62013 0.15984 0
M  V30 3488 O 343.097 1.7838 -0.0654228 0
M  V30 3489 C 340.197 3.3817 -0.222361 0
M  V30 3490 C 339.37 4.18928 -1.25771 0
M  V30 3491 C 338.429 5.21985 -0.664703 0
M  V30 3492 O 337.455 5.53334 -1.33453 0
M  V30 3493 N 338.657 5.77919 0.546834 0
M  V30 3494 H 341.422 2.42578 -1.75999 0
M  V30 3495 H 338.983 1.21967 -1.06469 0
M  V30 3496 H 340.975 4.04266 0.187472 0
M  V30 3497 H 339.545 3.06655 0.606758 0
M  V30 3498 H 338.765 3.48433 -1.84358 0
M  V30 3499 H 340.053 4.69687 -1.95631 0
M  V30 3500 H 339.451 5.54721 1.10912 0
M  V30 3501 H 338.008 6.45573 0.898829 0
M  V30 3502 N 341.441 0.965919 1.2453 0
M  V30 3503 C 342.374 0.4393 2.23932 0
M  V30 3504 C 343.352 -0.485615 1.55179 0
M  V30 3505 O 344.536 -0.417402 1.83821 0
M  V30 3506 C 341.663 -0.366042 3.36716 0
M  V30 3507 C 340.709 0.5009 4.23548 0
M  V30 3508 S 341.542 1.94002 4.99123 0
M  V30 3509 C 342.698 1.14342 6.15367 0
M  V30 3510 H 342.931 1.28167 2.68254 0
M  V30 3511 H 340.464 0.770819 1.33782 0
M  V30 3512 H 342.422 -0.824724 4.0213 0
M  V30 3513 H 341.083 -1.18337 2.90956 0
M  V30 3514 H 340.276 -0.117341 5.03863 0
M  V30 3515 H 339.878 0.89524 3.63127 0
M  V30 3516 H 342.17 0.397572 6.76332 0
M  V30 3517 H 343.113 1.92089 6.81548 0
M  V30 3518 H 343.521 0.668579 5.60527 0
M  V30 3519 N 342.919 -1.39368 0.735821 0
M  V30 3520 C 343.849 -2.33234 0.111506 0
M  V30 3521 C 344.83 -1.53954 -0.723334 0
M  V30 3522 O 346.015 -1.82344 -0.668147 0
M  V30 3523 C 343.145 -3.38057 -0.795917 0
M  V30 3524 C 342.099 -4.2795 -0.065172 0
M  V30 3525 C 341.425 -5.23479 -1.08967 0
M  V30 3526 C 342.725 -5.10741 1.09273 0
M  V30 3527 H 344.419 -2.85692 0.895571 0
M  V30 3528 H 341.965 -1.37364 0.432109 0
M  V30 3529 H 343.918 -4.02675 -1.24221 0
M  V30 3530 H 342.642 -2.8404 -1.61211 0
M  V30 3531 H 341.301 -3.64813 0.361511 0
M  V30 3532 H 340.949 -4.65758 -1.89944 0
M  V30 3533 H 340.649 -5.84472 -0.605489 0
M  V30 3534 H 342.173 -5.90974 -1.53565 0
M  V30 3535 H 343.587 -5.68699 0.724841 0
M  V30 3536 H 341.984 -5.8088 1.50659 0
M  V30 3537 H 343.054 -4.45525 1.91404 0
M  V30 3538 N 344.397 -0.483516 -1.5 0
M  V30 3539 C 345.345 0.318061 -2.30415 0
M  V30 3540 C 346.339 0.978988 -1.38247 0
M  V30 3541 O 347.545 0.908673 -1.55381 0
M  V30 3542 H 343.92 0.121419 -0.742133 0
M  V30 3543 H 345.891 -0.380403 -2.95965 0
M  V30 3544 C 344.64 1.38013 -3.19136 0
M  V30 3545 H 343.963 0.880952 -3.89973 0
M  V30 3546 H 345.403 1.91332 -3.78375 0
M  V30 3547 C 343.862 2.38884 -2.37563 0
M  V30 3548 O 344.392 3.44412 -2.06744 0
M  V30 3549 N 342.598 2.10912 -1.99911 0
M  V30 3550 H 342.145 1.25118 -2.25174 0
M  V30 3551 H 342.103 2.78635 -1.45636 0
M  V30 3552 N 345.875 1.56104 -0.216619 0
M  V30 3553 C 346.785 2.23694 0.706982 0
M  V30 3554 C 347.801 1.24295 1.21765 0
M  V30 3555 O 348.977 1.57094 1.2603 0
M  V30 3556 C 346.042 2.8998 1.90033 0
M  V30 3557 C 345.103 4.04708 1.43213 0
M  V30 3558 C 344.336 4.67824 2.56859 0
M  V30 3559 O 344.559 4.29913 3.74874 0
M  V30 3560 O 343.493 5.56905 2.28343 0
M  V30 3561 H 347.319 3.03272 0.161235 0
M  V30 3562 H 344.904 1.49394 0.0136177 0
M  V30 3563 H 346.786 3.31837 2.59735 0
M  V30 3564 H 345.461 2.13365 2.43428 0
M  V30 3565 H 344.368 3.6743 0.70327 0
M  V30 3566 H 345.701 4.83051 0.944615 0
M  V30 3567 N 347.353 -0.0568162 1.57498 0
M  V30 3568 C 348.601 -0.751617 1.87604 0
M  V30 3569 C 348.922 -1.77351 0.81066 0
M  V30 3570 O 348.192 -1.95254 -0.159018 0
M  V30 3571 H 346.772 -0.280583 0.692302 0
M  V30 3572 H 349.434 -0.0293483 1.94878 0
M  V30 3573 H 348.53 -1.25852 2.856 0
M  V30 3574 N 348.832 -1.54138 -0.328536 0
M  V30 3575 C 350.081 -1.71318 -1.06456 0
M  V30 3576 C 350.394 -0.491109 -1.89334 0
M  V30 3577 O 351.6 -0.54416 -2.65991 0
M  V30 3578 C 350.056 -3.03 -1.94214 0
M  V30 3579 C 349.664 -4.32595 -1.16471 0
M  V30 3580 C 351.408 -3.29544 -2.67583 0
M  V30 3581 C 349.315 -5.55341 -2.03347 0
M  V30 3582 H 348.245 -0.638429 -0.401155 0
M  V30 3583 H 350.896 -1.80633 -0.323106 0
M  V30 3584 H 349.278 -2.87579 -2.72239 0
M  V30 3585 H 350.452 -4.58766 -0.432525 0
M  V30 3586 H 348.767 -4.12777 -0.548063 0
M  V30 3587 H 351.364 -4.18444 -3.3288 0
M  V30 3588 H 351.707 -2.47206 -3.34955 0
M  V30 3589 H 352.24 -3.45809 -1.96623 0
M  V30 3590 H 348.979 -6.40268 -1.40491 0
M  V30 3591 H 348.499 -5.33397 -2.74313 0
M  V30 3592 H 350.178 -5.91557 -2.62049 0
M  V30 3593 N 350.31 0.590341 -1.46126 0
M  V30 3594 C 351.556 1.35082 -1.51264 0
M  V30 3595 C 351.889 1.93534 -0.160711 0
M  V30 3596 O 351.164 1.76045 0.826956 0
M  V30 3597 C 351.447 2.48588 -2.6053 0
M  V30 3598 C 351.3 1.95221 -4.05227 0
M  V30 3599 C 352.619 3.50662 -2.6594 0
M  V30 3600 H 349.738 0.489803 -0.550692 0
M  V30 3601 H 352.38 0.663887 -1.78024 0
M  V30 3602 H 350.53 3.07186 -2.37843 0
M  V30 3603 H 352.202 1.41139 -4.39178 0
M  V30 3604 H 350.445 1.26101 -4.15068 0
M  V30 3605 H 351.116 2.77121 -4.77397 0
M  V30 3606 H 353.592 3.01934 -2.86313 0
M  V30 3607 H 352.468 4.27551 -3.44226 0
M  V30 3608 H 352.729 4.07399 -1.71694 0
M  V30 3609 N 351.788 1.33704 0.83433 0
M  V30 3610 C 353.199 1.22813 1.4062 0
M  V30 3611 C 353.55 -0.151107 1.95617 0
M  V30 3612 O 352.675 -1.05092 1.89168 0
M  V30 3613 C 353.27 2.22355 2.55624 0
M  V30 3614 C 351.829 2.1529 3.08751 0
M  V30 3615 C 350.976 2.09589 1.8157 0
M  V30 3616 H 353.927 1.45236 0.639702 0
M  V30 3617 H 353.948 1.83391 3.33389 0
M  V30 3618 H 353.46 3.22728 2.15566 0
M  V30 3619 H 351.561 1.18235 3.53343 0
M  V30 3620 H 351.674 3.06038 3.68616 0
M  V30 3621 H 350.038 1.55134 2.02004 0
M  V30 3622 H 350.821 3.11777 1.43701 0
M  V30 3623 N 353.266 -1.05314 1.17247 0
M  V30 3624 C 354.494 -1.81971 0.984593 0
M  V30 3625 C 354.909 -1.82929 -0.467166 0
M  V30 3626 O 354.266 -1.25564 -1.32438 0
M  V30 3627 C 354.317 -3.28143 1.51672 0
M  V30 3628 O 354.038 -3.27347 2.91163 0
M  V30 3629 C 355.539 -4.21493 1.37326 0
M  V30 3630 H 352.759 -0.573455 0.348411 0
M  V30 3631 H 355.303 -1.32808 1.55506 0
M  V30 3632 H 353.458 -3.74582 0.988302 0
M  V30 3633 H 353.872 -4.18824 3.15732 0
M  V30 3634 H 355.346 -5.22043 1.79375 0
M  V30 3635 H 355.823 -4.38031 0.320169 0
M  V30 3636 H 356.429 -3.80909 1.89178 0
M  V30 3637 N 354.744 -0.972509 -1.24016 0
M  V30 3638 C 355.707 -0.511403 -2.23422 0
M  V30 3639 C 356.707 0.394679 -1.55881 0
M  V30 3640 O 357.897 0.189469 -1.73167 0
M  V30 3641 C 355.029 0.258769 -3.39916 0
M  V30 3642 H 356.222 -1.39024 -2.6573 0
M  V30 3643 H 353.775 -0.757585 -1.36713 0
M  V30 3644 H 354.51 1.1545 -3.03054 0
M  V30 3645 H 354.295 -0.391522 -3.9014 0
M  V30 3646 H 355.785 0.570244 -4.13688 0
M  V30 3647 N 356.222 1.38976 -0.743202 0
M  V30 3648 C 357.155 2.28128 -0.0572165 0
M  V30 3649 C 358.133 1.44827 0.739182 0
M  V30 3650 O 359.317 1.74207 0.720009 0
M  V30 3651 C 356.444 3.25796 0.926001 0
M  V30 3652 C 355.49 4.25947 0.217099 0
M  V30 3653 S 356.323 5.24604 -1.07477 0
M  V30 3654 C 357.479 6.25829 -0.0943545 0
M  V30 3655 H 357.712 2.85961 -0.813246 0
M  V30 3656 H 355.245 1.44822 -0.535341 0
M  V30 3657 H 357.203 3.82583 1.48797 0
M  V30 3658 H 355.864 2.66966 1.65493 0
M  V30 3659 H 355.057 4.94746 0.961372 0
M  V30 3660 H 354.659 3.73002 -0.273059 0
M  V30 3661 H 356.951 6.73411 0.743239 0
M  V30 3662 H 357.894 7.0412 -0.749713 0
M  V30 3663 H 358.302 5.63797 0.281706 0
M  V30 3664 N 357.7 0.491464 1.49741 0
M  V30 3665 C 358.63 -0.28154 2.31796 0
M  V30 3666 C 359.611 -0.971473 1.3963 0
M  V30 3667 O 360.796 -0.964719 1.68543 0
M  V30 3668 C 357.926 -1.35203 3.19902 0
M  V30 3669 C 356.88 -0.782529 4.20786 0
M  V30 3670 C 356.206 -1.95283 4.97764 0
M  V30 3671 C 357.506 0.21999 5.21837 0
M  V30 3672 H 359.2 0.403355 2.96671 0
M  V30 3673 H 356.746 0.195425 1.42668 0
M  V30 3674 H 358.699 -1.90045 3.76113 0
M  V30 3675 H 357.423 -2.06598 2.52953 0
M  V30 3676 H 356.082 -0.255928 3.65706 0
M  V30 3677 H 355.73 -2.65423 4.2727 0
M  V30 3678 H 355.43 -1.57789 5.66018 0
M  V30 3679 H 356.954 -2.50577 5.56816 0
M  V30 3680 H 358.368 -0.23996 5.72798 0
M  V30 3681 H 356.765 0.51026 5.97927 0
M  V30 3682 H 357.835 1.13911 4.7133 0
M  V30 3683 N 359.178 -1.55987 0.224894 0
M  V30 3684 C 360.424 -1.98684 -0.406502 0
M  V30 3685 C 360.757 -1.11248 -1.59177 0
M  V30 3686 O 360.032 -0.170909 -1.93748 0
M  V30 3687 C 360.315 -3.50218 -0.837808 0
M  V30 3688 C 360.168 -4.48426 0.351332 0
M  V30 3689 C 361.487 -4.06243 -1.69278 0
M  V30 3690 H 358.606 -0.722337 -0.146283 0
M  V30 3691 H 361.248 -1.87255 0.321799 0
M  V30 3692 H 359.398 -3.60089 -1.45837 0
M  V30 3693 H 361.07 -4.50562 0.989526 0
M  V30 3694 H 359.313 -4.22159 0.998207 0
M  V30 3695 H 359.984 -5.52 0.00655905 0
M  V30 3696 H 362.46 -3.99337 -1.16914 0
M  V30 3697 H 361.336 -5.12581 -1.96346 0
M  V30 3698 H 361.597 -3.53332 -2.65723 0
M  V30 3699 N 360.656 0.0484629 -1.57525 0
M  V30 3700 C 361.619 1.03956 -2.04269 0
M  V30 3701 C 362.619 1.30211 -0.943496 0
M  V30 3702 O 363.809 1.25539 -1.20771 0
M  V30 3703 C 360.941 2.37742 -2.44319 0
M  V30 3704 H 362.134 0.636182 -2.93075 0
M  V30 3705 H 359.687 0.294811 -1.53494 0
M  V30 3706 H 360.422 2.82866 -1.5861 0
M  V30 3707 H 360.207 2.20021 -3.24551 0
M  V30 3708 H 361.697 3.08936 -2.80978 0
M  V30 3709 N 362.134 1.5431 0.320358 0
M  V30 3710 C 363.082 1.84647 1.4145 0
M  V30 3711 C 364.076 0.718624 1.53402 0
M  V30 3712 O 365.282 0.902335 1.5575 0
M  V30 3713 H 361.657 0.585349 0.472091 0
M  V30 3714 H 363.628 2.7614 1.13089 0
M  V30 3715 C 362.377 2.09341 2.77617 0
M  V30 3716 H 361.7 2.9559 2.69196 0
M  V30 3717 H 363.14 2.3452 3.53237 0
M  V30 3718 C 361.599 0.885939 3.25043 0
M  V30 3719 O 362.129 0.0967891 4.01583 0
M  V30 3720 N 360.335 0.696682 2.82125 0
M  V30 3721 H 359.882 1.34006 2.2 0
M  V30 3722 H 359.84 -0.109712 3.14209 0
M  V30 3723 N 363.613 -0.582584 1.46437 0
M  V30 3724 C 364.89 -1.34276 1.4223 0
M  V30 3725 C 365.27 -2.10835 0.10583 0
M  V30 3726 O 364.618 -2.09485 -0.912596 0
M  V30 3727 C 364.828 -2.26865 2.65204 0
M  V30 3728 C 366.176 -2.88691 3.11356 0
M  V30 3729 O 367.2 -2.37178 2.65753 0
M  V30 3730 O 366.059 -3.82255 3.90568 0
M  V30 3731 H 363.153 -0.603326 0.565621 0
M  V30 3732 H 365.699 -0.603591 1.58603 0
M  V30 3733 H 364.471 -1.69724 3.52576 0
M  V30 3734 H 364.094 -3.08122 2.5129 0
M  V30 3735 N 365.091 -1.34144 -0.827227 0
M  V30 3736 C 366.023 -1.21206 -1.9453 0
M  V30 3737 C 367.036 -0.140176 -1.62195 0
M  V30 3738 O 368.225 -0.391647 -1.7415 0
M  V30 3739 C 365.325 -0.839141 -3.28347 0
M  V30 3740 C 364.498 -2.0051 -3.88734 0
M  V30 3741 C 363.557 -1.61128 -5.00923 0
M  V30 3742 O 362.583 -2.32726 -5.19449 0
M  V30 3743 N 363.785 -0.522958 -5.7814 0
M  V30 3744 H 366.55 -2.17525 -2.06162 0
M  V30 3745 H 364.111 -1.27043 -1.00358 0
M  V30 3746 H 366.103 -0.557556 -4.00841 0
M  V30 3747 H 364.673 0.0337293 -3.12582 0
M  V30 3748 H 363.893 -2.45166 -3.08686 0
M  V30 3749 H 365.181 -2.78498 -4.25812 0
M  V30 3750 H 364.579 0.0723518 -5.65654 0
M  V30 3751 H 363.136 -0.301089 -6.51104 0
M  V30 3752 N 366.569 1.04691 -1.17803 0
M  V30 3753 C 367.502 2.12068 -0.842765 0
M  V30 3754 C 368.48 1.61455 0.192608 0
M  V30 3755 O 369.664 1.88359 0.072995 0
M  V30 3756 C 366.791 3.37715 -0.258063 0
M  V30 3757 C 365.837 4.07164 -1.26962 0
M  V30 3758 S 366.67 4.55047 -2.82299 0
M  V30 3759 C 367.826 5.83935 -2.25323 0
M  V30 3760 H 368.059 2.4018 -1.75217 0
M  V30 3761 H 365.592 1.17366 -1.00323 0
M  V30 3762 H 367.55 4.10435 0.0727935 0
M  V30 3763 H 366.211 3.0773 0.629357 0
M  V30 3764 H 365.404 4.9746 -0.809263 0
M  V30 3765 H 365.006 3.40533 -1.54639 0
M  V30 3766 H 367.298 6.57552 -1.63192 0
M  V30 3767 H 368.241 6.34725 -3.13894 0
M  V30 3768 H 368.649 5.3874 -1.68582 0
M  V30 3769 N 368.047 0.979072 1.23499 0
M  V30 3770 C 369.01 0.523244 2.23147 0
M  V30 3771 C 370.01 -0.386406 1.56088 0
M  V30 3772 O 371.2 -0.180283 1.73265 0
M  V30 3773 C 368.332 -0.240739 3.40049 0
M  V30 3774 H 369.525 1.40432 2.64989 0
M  V30 3775 H 367.078 0.764824 1.36309 0
M  V30 3776 H 367.813 -1.13841 3.03662 0
M  V30 3777 H 367.598 0.412207 3.89927 0
M  V30 3778 H 369.088 -0.548297 4.13985 0
M  V30 3779 N 369.525 -1.3858 0.750561 0
M  V30 3780 C 370.455 -2.33102 0.136237 0
M  V30 3781 C 371.436 -1.54713 -0.706965 0
M  V30 3782 O 372.621 -1.83043 -0.648769 0
M  V30 3783 C 369.751 -3.38882 -0.760017 0
M  V30 3784 C 368.705 -4.27995 -0.0197785 0
M  V30 3785 C 368.031 -5.24605 -1.03408 0
M  V30 3786 C 369.331 -5.09554 1.14684 0
M  V30 3787 H 371.025 -2.84726 0.925822 0
M  V30 3788 H 368.571 -1.36898 0.446654 0
M  V30 3789 H 370.524 -4.0397 -1.19943 0
M  V30 3790 H 369.248 -2.85734 -1.58189 0
M  V30 3791 H 367.907 -3.64409 0.400184 0
M  V30 3792 H 367.555 -4.67746 -1.84994 0
M  V30 3793 H 367.255 -5.85081 -0.543464 0
M  V30 3794 H 368.779 -5.9257 -1.47288 0
M  V30 3795 H 370.193 -5.67899 0.785118 0
M  V30 3796 H 368.59 -5.7925 1.56812 0
M  V30 3797 H 369.66 -4.4347 1.96118 0
M  V30 3798 N 371.003 -0.499398 -1.49478 0
M  V30 3799 C 372.251 0.0455996 -2.02049 0
M  V30 3800 C 372.572 1.37633 -1.38138 0
M  V30 3801 O 371.842 1.8842 -0.536166 0
M  V30 3802 H 370.422 0.0198416 -0.746736 0
M  V30 3803 H 373.084 -0.656274 -1.83519 0
M  V30 3804 H 372.18 0.176445 -3.11601 0
M  V30 3805 N 372.481 1.55866 -0.233164 0
M  V30 3806 C 373.444 2.1953 0.658715 0
M  V30 3807 C 374.444 1.16053 1.11303 0
M  V30 3808 O 375.634 1.41218 1.01996 0
M  V30 3809 C 372.766 2.82791 1.90373 0
M  V30 3810 H 373.959 2.99721 0.10347 0
M  V30 3811 H 371.512 1.56291 0.0164245 0
M  V30 3812 H 372.247 2.06501 2.50056 0
M  V30 3813 H 372.032 3.58578 1.58632 0
M  V30 3814 H 373.522 3.31556 2.53891 0
M  V30 3815 N 373.959 -0.0401083 1.57549 0
M  V30 3816 C 374.892 -1.07689 2.01192 0
M  V30 3817 C 375.87 -1.358 0.894273 0
M  V30 3818 O 377.054 -1.48642 1.15921 0
M  V30 3819 C 374.181 -2.41418 2.3756 0
M  V30 3820 C 373.227 -2.29237 3.59656 0
M  V30 3821 S 374.06 -1.65628 5.09242 0
M  V30 3822 C 375.216 -3.0087 5.48843 0
M  V30 3823 H 375.449 -0.705108 2.88817 0
M  V30 3824 H 372.982 -0.249724 1.52367 0
M  V30 3825 H 374.94 -3.18329 2.59186 0
M  V30 3826 H 373.601 -2.75747 1.50407 0
M  V30 3827 H 372.794 -3.27932 3.82722 0
M  V30 3828 H 372.396 -1.60469 3.37825 0
M  V30 3829 H 374.688 -3.97201 5.48851 0
M  V30 3830 H 375.631 -2.82549 6.49286 0
M  V30 3831 H 376.039 -3.02934 4.76331 0
M  V30 3832 N 375.437 -1.54477 -0.31217 0
M  V30 3833 C 376.853 -1.45442 -0.657185 0
M  V30 3834 C 377.053 -0.63653 -1.91182 0
M  V30 3835 O 376.109 -0.139815 -2.52113 0
M  V30 3836 C 377.422 -2.89287 -0.82058 0
M  V30 3837 C 378.97 -2.9926 -0.917188 0
M  V30 3838 C 379.445 -4.44279 -1.11267 0
M  V30 3839 N 380.936 -4.4794 -1.17914 0
M  V30 3840 C 381.671 -5.57318 -1.34848 0
M  V30 3841 N 381.167 -6.76642 -1.48752 0
M  V30 3842 N 382.96 -5.44986 -1.37647 0
M  V30 3843 H 375.111 -2.06129 0.512313 0
M  V30 3844 H 377.374 -0.933088 0.167485 0
M  V30 3845 H 377.08 -3.51687 0.0302604 0
M  V30 3846 H 376.954 -3.36061 -1.71298 0
M  V30 3847 H 379.341 -2.36981 -1.75852 0
M  V30 3848 H 379.422 -2.558 -0.00101257 0
M  V30 3849 H 379.066 -5.07149 -0.27614 0
M  V30 3850 H 378.996 -4.85359 -2.04289 0
M  V30 3851 H 381.487 -3.61969 -1.08567 0
M  V30 3852 H 381.8 -7.55758 -1.61397 0
M  V30 3853 H 380.145 -6.79529 -1.45828 0
M  V30 3854 H 383.336 -4.50715 -1.26388 0
M  V30 3855 H 383.509 -6.3028 -1.50501 0
M  V30 3856 N 376.915 0.57481 -1.46744 0
M  V30 3857 C 377.878 1.66533 -1.57478 0
M  V30 3858 C 378.878 1.54338 -0.451263 0
M  V30 3859 O 380.068 1.58814 -0.715813 0
M  V30 3860 C 377.2 3.05999 -1.50259 0
M  V30 3861 H 378.393 1.58372 -2.54673 0
M  V30 3862 H 375.946 0.793301 -1.34672 0
M  V30 3863 H 376.681 3.19709 -0.543725 0
M  V30 3864 H 376.466 3.16259 -2.31781 0
M  V30 3865 H 377.956 3.8537 -1.60872 0
M  V30 3866 N 378.394 1.34581 0.820102 0
M  V30 3867 C 379.643 1.26437 1.57151 0
M  V30 3868 C 379.956 -0.163111 1.94919 0
M  V30 3869 O 381.162 -0.366722 2.69012 0
M  V30 3870 C 379.618 2.21658 2.83541 0
M  V30 3871 C 379.226 3.69679 2.53065 0
M  V30 3872 C 380.97 2.22428 3.61561 0
M  V30 3873 C 378.877 4.56761 3.75664 0
M  V30 3874 H 377.807 0.469707 0.589823 0
M  V30 3875 H 380.458 1.59763 0.902656 0
M  V30 3876 H 378.84 1.81287 3.52067 0
M  V30 3877 H 380.014 4.18605 1.92631 0
M  V30 3878 H 378.329 3.71384 1.88316 0
M  V30 3879 H 380.926 2.8471 4.52597 0
M  V30 3880 H 381.269 1.22434 3.97889 0
M  V30 3881 H 381.802 2.61259 2.99981 0
M  V30 3882 H 378.541 5.57702 3.44454 0
M  V30 3883 H 378.061 4.12568 4.35371 0
M  V30 3884 H 379.74 4.71509 4.43044 0
M  V30 3885 N 379.872 -1.04064 1.18357 0
M  V30 3886 C 381.1 -1.80916 1.00384 0
M  V30 3887 C 381.515 -1.83414 -0.447738 0
M  V30 3888 O 380.872 -1.26962 -1.31099 0
M  V30 3889 C 380.923 -3.26516 1.55144 0
M  V30 3890 O 380.644 -3.2424 2.94618 0
M  V30 3891 C 382.145 -4.20013 1.41789 0
M  V30 3892 H 379.365 -0.569728 0.354474 0
M  V30 3893 H 381.909 -1.31151 1.56906 0
M  V30 3894 H 380.064 -3.73512 1.02798 0
M  V30 3895 H 380.478 -4.15452 3.20156 0
M  V30 3896 H 381.952 -5.20111 1.84901 0
M  V30 3897 H 382.429 -4.37667 0.36661 0
M  V30 3898 H 383.035 -3.78881 1.93207 0
M  V30 3899 N 381.35 -0.985608 -1.22978 0
M  V30 3900 C 382.26 -0.538548 -2.28335 0
M  V30 3901 C 383.276 0.409163 -1.69121 0
M  V30 3902 O 384.452 0.277797 -1.99475 0
M  V30 3903 C 381.517 0.146867 -3.46389 0
M  V30 3904 C 380.578 -0.842896 -4.20944 0
M  V30 3905 C 379.811 -0.190095 -5.33361 0
M  V30 3906 O 380.034 1.01767 -5.61248 0
M  V30 3907 O 378.968 -0.891289 -5.95264 0
M  V30 3908 H 382.794 -1.41487 -2.68729 0
M  V30 3909 H 380.379 -0.753495 -1.29007 0
M  V30 3910 H 382.261 0.531125 -4.1804 0
M  V30 3911 H 380.936 0.997871 -3.07935 0
M  V30 3912 H 379.843 -1.27795 -3.51595 0
M  V30 3913 H 381.176 -1.66287 -4.6326 0
M  V30 3914 N 382.828 1.3818 -0.7579 0
M  V30 3915 C 384.053 2.04827 -0.325679 0
M  V30 3916 C 384.478 1.56788 1.03919 0
M  V30 3917 O 383.836 0.721811 1.66312 0
M  V30 3918 C 383.884 3.58774 -0.362447 0
M  V30 3919 O 382.988 4.07372 0.642033 0
M  V30 3920 H 382.329 0.64833 -0.143402 0
M  V30 3921 H 384.859 1.7677 -1.03023 0
M  V30 3922 H 384.869 4.07434 -0.214844 0
M  V30 3923 H 383.544 3.93096 -1.35824 0
M  V30 3924 H 382.121 3.70068 0.458688 0
M  V30 3925 N 384.306 0.507319 1.49211 0
M  V30 3926 C 385.554 -0.0348839 2.0207 0
M  V30 3927 C 385.875 -1.36898 1.38866 0
M  V30 3928 O 385.145 -1.88133 0.546151 0
M  V30 3929 H 383.725 -0.0158812 0.746831 0
M  V30 3930 H 386.387 0.665998 1.83168 0
M  V30 3931 H 385.483 -0.159917 3.1169 0
M  V30 3932 N 385.784 -1.5574 0.241426 0
M  V30 3933 C 386.714 -2.24133 -0.654722 0
M  V30 3934 C 387.695 -1.21974 -1.1856 0
M  V30 3935 O 388.88 -1.50612 -1.22595 0
M  V30 3936 C 386.01 -2.93659 -1.85423 0
M  V30 3937 C 384.964 -4.0246 -1.45636 0
M  V30 3938 C 384.29 -4.59383 -2.73626 0
M  V30 3939 C 385.59 -5.18468 -0.631506 0
M  V30 3940 H 387.284 -2.99281 -0.0844353 0
M  V30 3941 H 384.83 -1.43947 -0.0391707 0
M  V30 3942 H 386.783 -3.40203 -2.48676 0
M  V30 3943 H 385.507 -2.15991 -2.44981 0
M  V30 3944 H 384.166 -3.56676 -0.847202 0
M  V30 3945 H 383.814 -3.78422 -3.3137 0
M  V30 3946 H 383.514 -5.32826 -2.4773 0
M  V30 3947 H 385.038 -5.08658 -3.37786 0
M  V30 3948 H 386.452 -5.61272 -1.1682 0
M  V30 3949 H 384.849 -5.98266 -0.468831 0
M  V30 3950 H 385.919 -4.8358 0.357506 0
M  V30 3951 N 387.262 0.0317525 -1.57568 0
M  V30 3952 C 388.678 0.38735 -1.54828 0
M  V30 3953 C 388.878 1.7677 -0.967187 0
M  V30 3954 O 387.934 2.45581 -0.587063 0
M  V30 3955 C 389.247 0.291667 -2.99282 0
M  V30 3956 C 390.795 0.368946 -3.10818 0
M  V30 3957 C 391.27 0.302741 -4.56998 0
M  V30 3958 N 392.761 0.361617 -4.61786 0
M  V30 3959 C 393.496 0.333238 -5.72431 0
M  V30 3960 N 392.992 0.257308 -6.92322 0
M  V30 3961 N 394.785 0.382769 -5.60795 0
M  V30 3962 H 386.936 -0.871609 -1.93692 0
M  V30 3963 H 389.199 -0.331161 -0.888277 0
M  V30 3964 H 388.905 -0.656794 -3.45513 0
M  V30 3965 H 388.779 1.08638 -3.61217 0
M  V30 3966 H 391.166 1.30784 -2.64536 0
M  V30 3967 H 391.247 -0.455066 -2.5172 0
M  V30 3968 H 390.891 -0.632473 -5.03947 0
M  V30 3969 H 390.821 1.14482 -5.14005 0
M  V30 3970 H 393.312 0.422923 -3.75526 0
M  V30 3971 H 393.625 0.24068 -7.72425 0
M  V30 3972 H 391.97 0.223396 -6.94641 0
M  V30 3973 H 395.161 0.44006 -4.66027 0
M  V30 3974 H 395.334 0.357184 -6.47015 0
M  V30 3975 N 388.74 1.54641 0.303973 0
M  V30 3976 C 389.986 1.74038 1.04109 0
M  V30 3977 C 390.319 0.523051 1.87024 0
M  V30 3978 O 389.594 -0.479874 1.88487 0
M  V30 3979 C 389.877 3.02761 1.94955 0
M  V30 3980 C 389.73 4.34787 1.1524 0
M  V30 3981 C 391.049 3.27336 2.94175 0
M  V30 3982 H 388.168 0.63323 0.377079 0
M  V30 3983 H 390.81 1.87354 0.316001 0
M  V30 3984 H 388.96 2.9154 2.56782 0
M  V30 3985 H 390.632 4.57922 0.557236 0
M  V30 3986 H 388.875 4.31407 0.455053 0
M  V30 3987 H 389.546 5.21116 1.8205 0
M  V30 3988 H 392.022 3.38148 2.42477 0
M  V30 3989 H 390.898 4.18726 3.54908 0
M  V30 3990 H 391.159 2.45491 3.67677 0
M  V30 3991 N 390.218 -0.567019 1.47046 0
M  V30 3992 C 391.466 -1.322 1.52864 0
M  V30 3993 C 391.787 -1.94088 0.188388 0
M  V30 3994 O 391.057 -1.7941 -0.786693 0
M  V30 3995 H 389.637 -0.490894 0.563056 0
M  V30 3996 H 392.299 -0.662879 1.83281 0
M  V30 3997 H 391.395 -2.12062 2.2899 0
M  V30 3998 N 391.696 -1.35014 -0.812953 0
M  V30 3999 C 392.659 -1.27292 -1.90602 0
M  V30 4000 C 393.659 -0.185817 -1.59723 0
M  V30 4001 O 394.849 -0.439102 -1.68575 0
M  V30 4002 C 391.981 -0.967676 -3.26877 0
M  V30 4003 H 393.174 -2.24479 -1.9887 0
M  V30 4004 H 390.727 -1.19446 -1.00808 0
M  V30 4005 H 391.462 0.0005954 -3.243 0
M  V30 4006 H 391.247 -1.75412 -3.50675 0
M  V30 4007 H 392.737 -0.939085 -4.06904 0
M  V30 4008 N 393.175 1.03435 -1.18907 0
M  V30 4009 C 394.452 1.73778 -0.89781 0
M  V30 4010 C 394.832 2.02458 0.597832 0
M  V30 4011 O 394.18 1.67482 1.55441 0
M  V30 4012 C 394.39 3.01845 -1.75187 0
M  V30 4013 C 395.738 3.7546 -1.9828 0
M  V30 4014 O 396.762 3.11759 -1.72293 0
M  V30 4015 O 395.621 4.89966 -2.42065 0
M  V30 4016 H 392.715 0.75651 -0.334098 0
M  V30 4017 H 395.261 1.09444 -1.29693 0
M  V30 4018 H 394.033 2.76836 -2.76545 0
M  V30 4019 H 393.656 3.73919 -1.35167 0
M  V30 4020 N 394.653 0.992116 1.22453 0
M  V30 4021 C 395.902 0.662992 1.90492 0
M  V30 4022 C 396.215 -0.808407 1.78113 0
M  V30 4023 O 397.421 -1.24908 2.41061 0
M  V30 4024 C 395.877 1.1353 3.41524 0
M  V30 4025 C 395.485 2.63187 3.62542 0
M  V30 4026 C 397.229 0.880465 4.15269 0
M  V30 4027 C 395.136 3.04024 5.0727 0
M  V30 4028 H 394.066 0.244278 0.713333 0
M  V30 4029 H 396.717 1.20157 1.38688 0
M  V30 4030 H 395.099 0.52485 3.92506 0
M  V30 4031 H 396.273 3.2957 3.22056 0
M  V30 4032 H 394.588 2.86543 3.02129 0
M  V30 4033 H 397.185 1.16128 5.21937 0
M  V30 4034 H 397.528 -0.183408 4.15896 0
M  V30 4035 H 398.061 1.45307 3.70312 0
M  V30 4036 H 394.8 4.09584 5.11782 0
M  V30 4037 H 394.32 2.42343 5.48662 0
M  V30 4038 H 395.999 2.95282 5.75689 0
M  V30 4039 N 396.131 -1.37776 0.765217 0
M  V30 4040 C 397.356 -2.04651 0.336537 0
M  V30 4041 C 397.781 -1.57337 -1.03086 0
M  V30 4042 O 397.139 -0.730621 -1.65927 0
M  V30 4043 C 397.187 -3.58577 0.381468 0
M  V30 4044 O 396.291 -4.07706 -0.62042 0
M  V30 4045 H 395.632 -0.64756 0.146838 0
M  V30 4046 H 398.162 -1.76221 1.03959 0
M  V30 4047 H 398.172 -4.07314 0.236448 0
M  V30 4048 H 396.847 -3.9237 1.37907 0
M  V30 4049 H 395.424 -3.70306 -0.439056 0
M  V30 4050 N 397.609 -0.515225 -1.4894 0
M  V30 4051 C 398.855 0.0242508 -2.02785 0
M  V30 4052 C 399.188 1.35323 -1.39289 0
M  V30 4053 O 398.463 1.87041 -0.533469 0
M  V30 4054 C 398.746 0.16184 -3.59736 0
M  V30 4055 C 398.599 -1.19127 -4.33738 0
M  V30 4056 C 399.918 0.895719 -4.30888 0
M  V30 4057 H 397.037 0.00733914 -0.736963 0
M  V30 4058 H 399.679 -0.669395 -1.77818 0
M  V30 4059 H 397.829 0.752624 -3.8114 0
M  V30 4060 H 399.501 -1.82202 -4.23792 0
M  V30 4061 H 397.744 -1.77695 -3.95736 0
M  V30 4062 H 398.415 -1.04815 -5.41957 0
M  V30 4063 H 400.891 0.394528 -4.14225 0
M  V30 4064 H 399.767 0.960859 -5.40425 0
M  V30 4065 H 400.028 1.9427 -3.97129 0
M  V30 4066 N 399.087 1.5561 -0.249682 0
M  V30 4067 C 400.333 1.99306 0.374841 0
M  V30 4068 C 400.666 1.13767 1.57387 0
M  V30 4069 O 399.941 0.201711 1.93451 0
M  V30 4070 C 400.224 3.51507 0.781986 0
M  V30 4071 C 400.077 4.4781 -0.422629 0
M  V30 4072 C 401.396 4.08884 1.62793 0
M  V30 4073 H 398.515 0.724572 0.134773 0
M  V30 4074 H 401.157 1.86719 -0.351549 0
M  V30 4075 H 399.307 3.62363 1.4009 0
M  V30 4076 H 400.979 4.48931 -1.06108 0
M  V30 4077 H 399.222 4.20518 -1.06524 0
M  V30 4078 H 399.893 5.51919 -0.0943766 0
M  V30 4079 H 402.369 4.01147 1.10547 0
M  V30 4080 H 401.245 5.1564 1.88166 0
M  V30 4081 H 401.506 3.57515 2.60068 0
M  V30 4082 N 400.565 -0.0233959 1.57583 0
M  V30 4083 C 401.813 -0.711654 1.89156 0
M  V30 4084 C 402.134 -1.75591 0.848096 0
M  V30 4085 O 401.404 -1.95547 -0.117566 0
M  V30 4086 H 399.984 -0.265835 0.698098 0
M  V30 4087 H 402.646 0.0119948 1.94896 0
M  V30 4088 H 401.742 -1.19766 2.88206 0
M  V30 4089 N 402.043 -1.548 -0.295768 0
M  V30 4090 C 403.273 -1.78069 -1.04762 0
M  V30 4091 C 403.681 -0.542847 -1.81245 0
M  V30 4092 O 403.024 0.497051 -1.76848 0
M  V30 4093 C 403.086 -2.93881 -2.07061 0
M  V30 4094 C 402.75 -4.31777 -1.49725 0
M  V30 4095 C 403.747 -5.11613 -0.924581 0
M  V30 4096 C 401.432 -4.78389 -1.5313 0
M  V30 4097 C 403.426 -6.36184 -0.393594 0
M  V30 4098 C 401.113 -6.02921 -0.996447 0
M  V30 4099 C 402.111 -6.81654 -0.428569 0
M  V30 4100 O 401.799 -8.0384 0.0981593 0
M  V30 4101 H 401.531 -0.597475 -0.316226 0
M  V30 4102 H 404.085 -2.02584 -0.338973 0
M  V30 4103 H 402.315 -2.65003 -2.81621 0
M  V30 4104 H 404.004 -3.04679 -2.6819 0
M  V30 4105 H 404.77 -4.76743 -0.891136 0
M  V30 4106 H 400.649 -4.17132 -1.9627 0
M  V30 4107 H 404.193 -6.97582 0.0503014 0
M  V30 4108 H 400.09 -6.37277 -1.02706 0
M  V30 4109 H 400.858 -8.18499 -0.0146455 0
M  V30 4110 N 403.521 0.559213 -1.47345 0
M  V30 4111 C 404.798 1.31997 -1.44348 0
M  V30 4112 C 405.178 2.1064 -0.139358 0
M  V30 4113 O 404.526 2.1091 0.879153 0
M  V30 4114 C 404.736 2.22618 -2.68779 0
M  V30 4115 C 406.084 2.83701 -3.1591 0
M  V30 4116 O 407.108 2.32921 -2.69493 0
M  V30 4117 O 405.967 3.75993 -3.966 0
M  V30 4118 H 403.061 0.594251 -0.575147 0
M  V30 4119 H 405.607 0.578282 -1.59543 0
M  V30 4120 H 404.379 1.64093 -3.55231 0
M  V30 4121 H 404.002 3.04085 -2.5616 0
M  V30 4122 N 404.999 1.35443 0.805782 0
M  V30 4123 C 406.276 1.19325 1.54987 0
M  V30 4124 C 406.656 -0.227294 2.09873 0
M  V30 4125 O 406.004 -1.2309 1.92512 0
M  V30 4126 C 406.214 2.26196 2.65775 0
M  V30 4127 C 407.562 2.62043 3.34094 0
M  V30 4128 O 408.586 2.25115 2.76046 0
M  V30 4129 O 407.445 3.25542 4.38958 0
M  V30 4130 H 404.539 0.463623 0.684823 0
M  V30 4131 H 407.085 1.47127 0.845674 0
M  V30 4132 H 405.857 3.21471 2.23096 0
M  V30 4133 H 405.48 1.99667 3.43829 0
M  V30 4134 N 406.477 -1.02803 1.19454 0
M  V30 4135 C 407.705 -1.79841 1.02297 0
M  V30 4136 C 408.12 -1.83879 -0.428259 0
M  V30 4137 O 407.477 -1.28345 -1.29745 0
M  V30 4138 C 407.528 -3.24852 1.58598 0
M  V30 4139 O 407.249 -3.21097 2.98041 0
M  V30 4140 C 408.75 -4.18485 1.46236 0
M  V30 4141 H 405.97 -0.565936 0.360496 0
M  V30 4142 H 408.514 -1.2948 1.58288 0
M  V30 4143 H 406.669 -3.72401 1.06753 0
M  V30 4144 H 407.083 -4.12033 3.24545 0
M  V30 4145 H 408.557 -5.18121 1.90407 0
M  V30 4146 H 409.034 -4.37254 0.41301 0
M  V30 4147 H 409.64 -3.76811 1.97215 0
M  V30 4148 N 407.956 -0.998596 -1.21925 0
M  V30 4149 C 408.866 -0.562736 -2.27751 0
M  V30 4150 C 409.882 0.391203 -1.69545 0
M  V30 4151 O 411.058 0.256625 -1.99758 0
M  V30 4152 C 408.123 0.11012 -3.46525 0
M  V30 4153 C 407.184 -0.887495 -4.20026 0
M  V30 4154 C 406.417 -0.246654 -5.3313 0
M  V30 4155 O 406.64 0.958088 -5.62296 0
M  V30 4156 O 405.574 -0.954374 -5.94286 0
M  V30 4157 H 409.4 -1.44329 -2.67213 0
M  V30 4158 H 406.985 -0.767135 -1.28201 0
M  V30 4159 H 408.867 0.486756 -4.18579 0
M  V30 4160 H 407.542 0.965154 -3.08976 0
M  V30 4161 H 406.449 -1.31517 -3.5022 0
M  V30 4162 H 407.782 -1.71191 -4.6147 0
M  V30 4163 N 409.434 1.37368 -0.772513 0
M  V30 4164 C 410.711 1.93839 -0.26188 0
M  V30 4165 C 411.091 1.7061 1.24319 0
M  V30 4166 O 410.439 1.05534 2.02669 0
M  V30 4167 C 410.649 3.43154 -0.636102 0
M  V30 4168 C 411.997 4.20249 -0.606324 0
M  V30 4169 O 413.021 3.5152 -0.575538 0
M  V30 4170 O 411.88 5.42809 -0.634086 0
M  V30 4171 H 408.974 0.82478 -0.0605555 0
M  V30 4172 H 411.52 1.4665 -0.853917 0
M  V30 4173 H 410.292 3.53647 -1.6748 0
M  V30 4174 H 409.915 3.97596 -0.0170516 0
M  V30 4175 N 410.912 0.523116 1.48665 0
M  V30 4176 C 412.137 -0.0117284 2.07397 0
M  V30 4177 C 412.562 -1.28031 1.37803 0
M  V30 4178 O 411.92 -1.75836 0.441762 0
M  V30 4179 C 411.968 -0.225786 3.59892 0
M  V30 4180 O 411.072 -1.29592 3.91509 0
M  V30 4181 H 410.413 0.0360673 0.66302 0
M  V30 4182 H 412.943 0.729066 1.9117 0
M  V30 4183 H 412.953 -0.450552 4.05505 0
M  V30 4184 H 411.628 0.700944 4.09951 0
M  V30 4185 H 410.205 -1.05436 3.57684 0
M  V30 4186 N 412.39 -1.55475 0.257931 0
M  V30 4187 C 413.615 -2.04064 -0.370488 0
M  V30 4188 C 414.04 -1.13565 -1.49948 0
M  V30 4189 O 413.398 -0.130781 -1.80828 0
M  V30 4190 C 413.446 -3.50554 -0.845237 0
M  V30 4191 O 412.55 -3.63173 -1.95394 0
M  V30 4192 H 411.891 -0.659257 -0.0792243 0
M  V30 4193 H 414.421 -2.00903 0.387212 0
M  V30 4194 H 414.431 -3.91588 -1.14555 0
M  V30 4195 H 413.106 -4.15896 -0.0191259 0
M  V30 4196 H 411.683 -3.34039 -1.65748 0
M  V30 4197 N 413.868 0.0150385 -1.57593 0
M  V30 4198 C 415.108 0.70768 -1.91758 0
M  V30 4199 C 415.472 1.71764 -0.857974 0
M  V30 4200 O 416.673 2.45956 -1.0844 0
M  V30 4201 C 414.944 1.34736 -3.3103 0
M  V30 4202 S 416.503 2.06721 -3.87056 0
M  V30 4203 H 413.321 0.234119 -0.671349 0
M  V30 4204 H 415.923 -0.0380373 -1.95463 0
M  V30 4205 H 414.627 0.59926 -4.06001 0
M  V30 4206 H 414.158 2.13133 -3.30663 0
M  V30 4207 H 416.173 3.34047 -3.66915 0
M  V30 4208 N 415.346 1.54954 0.287554 0
M  V30 4209 C 416.576 1.78622 1.03816 0
M  V30 4210 C 416.984 0.552451 1.80955 0
M  V30 4211 O 416.327 -0.487665 1.77109 0
M  V30 4212 C 416.389 2.94975 2.055 0
M  V30 4213 C 416.053 4.32565 1.47433 0
M  V30 4214 C 417.05 5.12096 0.897436 0
M  V30 4215 C 414.735 4.79195 1.50591 0
M  V30 4216 C 416.729 6.36383 0.359851 0
M  V30 4217 C 414.416 6.03441 0.964459 0
M  V30 4218 C 415.414 6.81872 0.392413 0
M  V30 4219 O 415.102 8.03777 -0.140788 0
M  V30 4220 H 414.834 0.599144 0.313053 0
M  V30 4221 H 417.388 2.02761 0.328225 0
M  V30 4222 H 415.618 2.66493 2.80211 0
M  V30 4223 H 417.307 3.06097 2.6657 0
M  V30 4224 H 418.073 4.77209 0.865841 0
M  V30 4225 H 413.952 4.18167 1.94055 0
M  V30 4226 H 417.496 6.97545 -0.0872951 0
M  V30 4227 H 413.393 6.37813 0.993246 0
M  V30 4228 H 414.161 8.18495 -0.0287617 0
M  V30 4229 N 416.824 -0.551391 1.4764 0
M  V30 4230 C 418.073 -1.30467 1.53822 0
M  V30 4231 C 418.386 -1.94495 0.207661 0
M  V30 4232 O 419.592 -2.71099 0.147533 0
M  V30 4233 C 418.048 -2.36616 2.71184 0
M  V30 4234 C 417.656 -1.78754 4.10793 0
M  V30 4235 C 419.4 -3.13088 2.86663 0
M  V30 4236 C 417.307 -2.82717 5.19447 0
M  V30 4237 H 416.237 -0.490584 0.572576 0
M  V30 4238 H 418.888 -0.58494 1.73927 0
M  V30 4239 H 417.27 -3.11529 2.4447 0
M  V30 4240 H 418.444 -1.10173 4.47435 0
M  V30 4241 H 416.759 -1.14846 4.00249 0
M  V30 4242 H 419.356 -3.90736 3.65007 0
M  V30 4243 H 419.699 -3.67635 1.95321 0
M  V30 4244 H 420.232 -2.45288 3.13175 0
M  V30 4245 H 416.971 -2.33018 6.12685 0
M  V30 4246 H 416.491 -3.4969 4.87316 0
M  V30 4247 H 418.17 -3.46102 5.46646 0
M  V30 4248 N 418.302 -1.35869 -0.798587 0
M  V30 4249 C 419.713 -1.26498 -1.37314 0
M  V30 4250 C 420.064 0.0991899 -1.95949 0
M  V30 4251 O 419.189 1.0004 -1.91888 0
M  V30 4252 C 419.784 -2.29054 -2.49639 0
M  V30 4253 C 418.343 -2.234 -3.02935 0
M  V30 4254 C 417.49 -2.14329 -1.75949 0
M  V30 4255 H 420.441 -1.46881 -0.600971 0
M  V30 4256 H 420.462 -1.92166 -3.28409 0
M  V30 4257 H 419.974 -3.2833 -2.06933 0
M  V30 4258 H 418.075 -1.27562 -3.50084 0
M  V30 4259 H 418.188 -3.15703 -3.60372 0
M  V30 4260 H 416.552 -1.60435 -1.9782 0
M  V30 4261 H 417.335 -3.15477 -1.35384 0
M  V30 4262 N 419.78 1.02168 -1.19998 0
M  V30 4263 C 421.191 1.57135 -1.00825 0
M  V30 4264 C 421.542 1.91276 0.436818 0
M  V30 4265 O 420.667 1.71679 1.3174 0
M  V30 4266 C 421.262 2.85514 -1.82393 0
M  V30 4267 C 419.821 3.37027 -1.67601 0
M  V30 4268 C 418.968 2.10388 -1.80644 0
M  V30 4269 H 421.919 0.846106 -1.34264 0
M  V30 4270 H 421.94 3.56711 -1.32429 0
M  V30 4271 H 421.452 2.60634 -2.87561 0
M  V30 4272 H 419.553 3.66878 -0.650485 0
M  V30 4273 H 419.666 4.09572 -2.4857 0
M  V30 4274 H 418.03 2.22601 -1.23778 0
M  V30 4275 H 418.813 1.8794 -2.87286 0
M  V30 4276 N 421.258 1.00505 1.21394 0
M  V30 4277 C 422.188 0.585684 2.26035 0
M  V30 4278 C 423.169 -0.393525 1.65485 0
M  V30 4279 O 424.354 -0.281497 1.92149 0
M  V30 4280 C 421.484 -0.0884283 3.47187 0
M  V30 4281 C 420.438 0.810567 4.20254 0
M  V30 4282 C 419.764 0.00286382 5.347 0
M  V30 4283 C 421.064 2.1132 4.77641 0
M  V30 4284 H 422.758 1.46039 2.61368 0
M  V30 4285 H 420.304 0.703648 1.25638 0
M  V30 4286 H 422.257 -0.393286 4.19561 0
M  V30 4287 H 420.981 -0.997766 3.10986 0
M  V30 4288 H 419.64 1.09925 3.49731 0
M  V30 4289 H 419.288 -0.907765 4.94741 0
M  V30 4290 H 418.988 0.601444 5.84514 0
M  V30 4291 H 420.512 -0.295808 6.09883 0
M  V30 4292 H 421.926 1.87148 5.41893 0
M  V30 4293 H 420.323 2.66164 5.37845 0
M  V30 4294 H 421.393 2.78393 3.9702 0
M  V30 4295 N 422.737 -1.36956 0.779787 0
M  V30 4296 C 423.965 -2.03755 0.359398 0
M  V30 4297 C 424.38 -1.58807 -1.02106 0
M  V30 4298 O 423.737 -0.773024 -1.6532 0
M  V30 4299 C 423.788 -3.59251 0.402568 0
M  V30 4300 O 423.509 -4.02557 1.72858 0
M  V30 4301 C 425.01 -4.43291 -0.0284068 0
M  V30 4302 H 422.23 -0.654148 0.149437 0
M  V30 4303 H 424.774 -1.75128 1.05595 0
M  V30 4304 H 422.929 -3.86621 -0.245478 0
M  V30 4305 H 423.343 -4.97111 1.67275 0
M  V30 4306 H 424.817 -5.51975 0.0529466 0
M  V30 4307 H 425.294 -4.25719 -1.07982 0
M  V30 4308 H 425.9 -4.21163 0.591758 0
M  V30 4309 N 424.215 -0.530993 -1.48385 0
M  V30 4310 C 425.443 -0.00134122 -2.069 0
M  V30 4311 C 425.858 1.2805 -1.3874 0
M  V30 4312 O 425.215 1.76204 -0.475244 0
M  V30 4313 C 425.266 0.225256 -3.60798 0
M  V30 4314 O 424.987 -1.0058 -4.26398 0
M  V30 4315 C 426.488 0.795172 -4.3611 0
M  V30 4316 H 423.708 -0.0339704 -0.67014 0
M  V30 4317 H 426.252 -0.736926 -1.90761 0
M  V30 4318 H 424.407 0.910891 -3.76539 0
M  V30 4319 H 424.821 -0.787165 -5.1856 0
M  V30 4320 H 426.295 0.903143 -5.44562 0
M  V30 4321 H 426.772 1.80031 -4.00606 0
M  V30 4322 H 427.378 0.146069 -4.25049 0
M  V30 4323 N 425.693 1.55336 -0.266172 0
M  V30 4324 C 426.942 1.98574 0.353749 0
M  V30 4325 C 427.255 1.15789 1.57646 0
M  V30 4326 O 428.461 1.49129 2.26876 0
M  V30 4327 C 426.917 3.53403 0.680747 0
M  V30 4328 C 426.525 4.44953 -0.52165 0
M  V30 4329 C 428.269 4.05251 1.26379 0
M  V30 4330 C 426.176 5.91156 -0.169736 0
M  V30 4331 H 425.106 0.741643 0.135949 0
M  V30 4332 H 427.757 1.79743 -0.369421 0
M  V30 4333 H 426.139 3.68001 1.46257 0
M  V30 4334 H 427.313 4.42121 -1.29869 0
M  V30 4335 H 425.628 4.03691 -1.02093 0
M  V30 4336 H 428.225 5.12021 1.54074 0
M  V30 4337 H 428.568 3.53749 2.19471 0
M  V30 4338 H 429.101 3.94057 0.544447 0
M  V30 4339 H 425.84 6.46736 -1.0683 0
M  V30 4340 H 425.36 5.97079 0.570717 0
M  V30 4341 H 427.039 6.4655 0.241245 0
M  V30 4342 N 427.171 -0.0066808 1.57599 0
M  V30 4343 C 428.118 -1.00024 2.08 0
M  V30 4344 C 429.088 -1.34549 0.973943 0
M  V30 4345 O 430.273 -1.44502 1.24595 0
M  V30 4346 C 427.413 -2.2891 2.58252 0
M  V30 4347 C 426.526 -2.00346 3.82734 0
M  V30 4348 C 425.661 -3.23265 4.21513 0
M  V30 4349 C 424.7 -2.90357 5.3885 0
M  V30 4350 N 423.837 -4.05793 5.72954 0
M  V30 4351 H 428.677 -0.563499 2.92624 0
M  V30 4352 H 426.214 -0.266592 1.44664 0
M  V30 4353 H 428.172 -3.04247 2.85464 0
M  V30 4354 H 426.802 -2.70265 1.76512 0
M  V30 4355 H 425.854 -1.15406 3.62471 0
M  V30 4356 H 427.166 -1.72086 4.68175 0
M  V30 4357 H 426.32 -4.06953 4.49971 0
M  V30 4358 H 425.059 -3.54657 3.34768 0
M  V30 4359 H 424.064 -2.05075 5.10122 0
M  V30 4360 H 425.289 -2.60219 6.27266 0
M  V30 4361 H 423.235 -4.37094 4.89167 0
M  V30 4362 H 423.152 -3.81034 6.52954 0
M  V30 4363 H 424.42 -4.90289 6.06001 0
M  V30 4364 N 428.649 -1.55105 -0.279332 0
M  V30 4365 C 429.581 -1.83952 -1.36727 0
M  V30 4366 C 430.594 -0.723642 -1.45833 0
M  V30 4367 O 431.783 -1.00141 -1.47763 0
M  V30 4368 C 428.883 -1.98183 -2.74912 0
M  V30 4369 C 428.056 -3.28787 -2.88475 0
M  V30 4370 C 427.115 -3.33162 -4.07295 0
M  V30 4371 O 426.141 -4.06576 -3.98353 0
M  V30 4372 N 427.343 -2.60109 -5.18964 0
M  V30 4373 H 430.108 -2.77853 -1.12328 0
M  V30 4374 H 427.669 -1.54945 -0.469442 0
M  V30 4375 H 429.661 -1.98488 -3.52682 0
M  V30 4376 H 428.231 -1.11177 -2.92162 0
M  V30 4377 H 427.451 -3.41075 -1.97641 0
M  V30 4378 H 428.739 -4.14933 -2.94463 0
M  V30 4379 H 428.137 -2.00136 -5.29115 0
M  V30 4380 H 426.694 -2.66143 -5.94988 0
M  V30 4381 N 430.127 0.543554 -1.4793 0
M  V30 4382 C 431.404 1.30458 -1.4574 0
M  V30 4383 C 431.784 2.1048 -0.161692 0
M  V30 4384 O 431.132 2.11831 0.856734 0
M  V30 4385 C 431.342 2.19754 -2.71126 0
M  V30 4386 C 432.69 2.80334 -3.18901 0
M  V30 4387 O 433.714 2.30049 -2.71948 0
M  V30 4388 O 432.573 3.71766 -4.00565 0
M  V30 4389 H 429.667 0.588117 -0.581418 0
M  V30 4390 H 432.213 0.561328 -1.60147 0
M  V30 4391 H 430.985 1.60316 -3.56952 0
M  V30 4392 H 430.608 3.01351 -2.59371 0
M  V30 4393 N 431.605 1.3629 0.791371 0
M  V30 4394 C 432.852 1.30412 1.54916 0
M  V30 4395 C 433.18 -0.117162 1.94147 0
M  V30 4396 O 432.435 -1.08599 1.62803 0
M  V30 4397 C 432.734 2.17068 2.8393 0
M  V30 4398 C 432.4 3.65645 2.63846 0
M  V30 4399 C 431.062 4.0614 2.58077 0
M  V30 4400 C 433.414 4.59855 2.45322 0
M  V30 4401 C 430.742 5.3899 2.31748 0
M  V30 4402 C 433.094 5.9292 2.2052 0
M  V30 4403 C 431.758 6.32542 2.13183 0
M  V30 4404 H 431.028 0.47721 0.566879 0
M  V30 4405 H 433.675 1.68325 0.913172 0
M  V30 4406 H 431.98 1.72085 3.51986 0
M  V30 4407 H 433.677 2.09846 3.4171 0
M  V30 4408 H 430.267 3.33518 2.69191 0
M  V30 4409 H 434.451 4.29443 2.48782 0
M  V30 4410 H 429.707 5.68672 2.24548 0
M  V30 4411 H 433.881 6.65487 2.05182 0
M  V30 4412 H 431.508 7.35412 1.92544 0
M  V30 4413 N 433.083 -1.0153 1.20538 0
M  V30 4414 C 434.499 -1.27461 0.96051 0
M  V30 4415 C 434.699 -1.98273 -0.359193 0
M  V30 4416 O 433.755 -2.27886 -1.0874 0
M  V30 4417 C 435.068 -2.10837 2.14402 0
M  V30 4418 C 436.616 -2.24099 2.18515 0
M  V30 4419 C 437.091 -3.10852 3.36355 0
M  V30 4420 N 438.582 -3.18441 3.36377 0
M  V30 4421 C 439.317 -3.85795 4.24205 0
M  V30 4422 N 438.813 -4.55264 5.22213 0
M  V30 4423 N 440.606 -3.82331 4.12043 0
M  V30 4424 H 432.757 -0.539907 2.05423 0
M  V30 4425 H 435.02 -0.30092 0.898972 0
M  V30 4426 H 434.726 -1.66144 3.09983 0
M  V30 4427 H 434.6 -3.11576 2.12604 0
M  V30 4428 H 436.987 -2.68016 1.23497 0
M  V30 4429 H 437.068 -1.22865 2.24361 0
M  V30 4430 H 436.712 -2.6764 4.31661 0
M  V30 4431 H 436.642 -4.12177 3.27746 0
M  V30 4432 H 439.133 -2.68978 2.65442 0
M  V30 4433 H 439.446 -5.04331 5.85551 0
M  V30 4434 H 437.791 -4.54085 5.26148 0
M  V30 4435 H 440.982 -3.27207 3.34743 0
M  V30 4436 H 441.155 -4.34547 4.807 0
M  V30 4437 N 434.561 -1.01147 -1.20859 0
M  V30 4438 C 435.491 -0.597663 -2.25722 0
M  V30 4439 C 436.472 0.384744 -1.65692 0
M  V30 4440 O 437.657 0.271303 -1.92296 0
M  V30 4441 C 434.787 0.0700149 -3.47229 0
M  V30 4442 C 433.741 -0.832843 -4.19819 0
M  V30 4443 C 433.067 -0.0312202 -5.34691 0
M  V30 4444 C 434.367 -2.1385 -4.76514 0
M  V30 4445 H 436.061 -1.47423 -2.60589 0
M  V30 4446 H 433.607 -0.710301 -1.25263 0
M  V30 4447 H 435.56 0.37103 -4.19763 0
M  V30 4448 H 434.284 0.981259 -3.11511 0
M  V30 4449 H 432.943 -1.11778 -3.49144 0
M  V30 4450 H 432.591 0.881515 -4.95215 0
M  V30 4451 H 432.291 -0.632434 -5.84187 0
M  V30 4452 H 433.815 0.26346 -6.10031 0
M  V30 4453 H 435.229 -1.9002 -5.40893 0
M  V30 4454 H 433.626 -2.69012 -5.36426 0
M  V30 4455 H 434.696 -2.80495 -3.95538 0
M  V30 4456 N 436.039 1.36541 -0.78704 0
M  V30 4457 C 436.969 2.32659 -0.197992 0
M  V30 4458 C 437.95 1.56533 0.665697 0
M  V30 4459 O 439.135 1.84698 0.60001 0
M  V30 4460 C 436.265 3.40778 0.669901 0
M  V30 4461 C 435.219 4.27897 -0.0937039 0
M  V30 4462 C 434.545 5.27163 0.894629 0
M  V30 4463 C 435.845 5.06334 -1.28154 0
M  V30 4464 H 437.539 2.82171 -1.00099 0
M  V30 4465 H 435.085 1.35665 -0.482793 0
M  V30 4466 H 437.038 4.07008 1.09191 0
M  V30 4467 H 435.762 2.89827 1.50558 0
M  V30 4468 H 434.421 3.6322 -0.49666 0
M  V30 4469 H 434.069 4.72486 1.72527 0
M  V30 4470 H 433.769 5.86317 0.388149 0
M  V30 4471 H 435.293 5.96266 1.31525 0
M  V30 4472 H 436.707 5.65617 -0.93541 0
M  V30 4473 H 435.104 5.74888 -1.72115 0
M  V30 4474 H 436.174 4.38114 -2.07807 0
M  V30 4475 N 437.518 0.538854 1.48102 0
M  V30 4476 C 438.766 0.00798599 2.02098 0
M  V30 4477 C 439.087 -1.33922 1.41739 0
M  V30 4478 O 438.357 -1.86932 0.585934 0
M  V30 4479 H 436.937 -3.62179e-05 0.747 0
M  V30 4480 H 439.599 0.7047 1.81714 0
M  V30 4481 H 438.695 -0.0937672 3.11959 0
M  V30 4482 N 438.996 -1.55193 0.274407 0
M  V30 4483 C 439.928 -2.1989 -0.646595 0
M  V30 4484 C 440.941 -1.1834 -1.11801 0
M  V30 4485 O 442.13 -1.4507 -1.04004 0
M  V30 4486 C 439.23 -2.8104 -1.89393 0
M  V30 4487 C 438.403 -4.08274 -1.56943 0
M  V30 4488 C 437.462 -4.53478 -2.66916 0
M  V30 4489 O 436.488 -5.19267 -2.33132 0
M  V30 4490 N 437.69 -4.2356 -3.9696 0
M  V30 4491 H 440.455 -2.99556 -0.0928686 0
M  V30 4492 H 438.016 -1.61618 0.0954783 0
M  V30 4493 H 440.008 -3.08226 -2.62257 0
M  V30 4494 H 438.578 -2.05372 -2.35672 0
M  V30 4495 H 437.798 -3.88384 -0.674655 0
M  V30 4496 H 439.086 -4.91173 -1.32764 0
M  V30 4497 H 438.484 -3.70799 -4.27229 0
M  V30 4498 H 437.041 -4.55518 -4.66205 0
M  V30 4499 N 440.474 -0.00167713 -1.576 0
M  V30 4500 C 441.702 0.693759 -1.94922 0
M  V30 4501 C 442.117 1.67215 -0.876626 0
M  V30 4502 O 441.474 1.81929 0.144279 0
M  V30 4503 C 441.525 1.42416 -3.32265 0
M  V30 4504 O 441.246 0.485014 -4.35407 0
M  V30 4505 C 442.747 2.21395 -3.84056 0
M  V30 4506 H 439.967 0.193118 -0.642609 0
M  V30 4507 H 442.511 -0.0532952 -2.04431 0
M  V30 4508 H 440.666 2.12284 -3.24059 0
M  V30 4509 H 441.08 1.00053 -5.14868 0
M  V30 4510 H 442.554 2.67996 -4.82578 0
M  V30 4511 H 443.031 3.04142 -3.16851 0
M  V30 4512 H 443.637 1.56542 -3.95443 0
M  V30 4513 N 441.952 1.55251 0.271103 0
M  V30 4514 C 443.177 1.80306 1.02491 0
M  V30 4515 C 443.602 0.575457 1.79081 0
M  V30 4516 O 442.96 -0.474987 1.74967 0
M  V30 4517 C 443.008 3.02832 1.95768 0
M  V30 4518 O 442.112 2.78051 3.04568 0
M  V30 4519 H 441.453 0.595896 0.292923 0
M  V30 4520 H 443.983 2.02397 0.299436 0
M  V30 4521 H 443.993 3.31616 2.37686 0
M  V30 4522 H 442.668 3.9183 1.39434 0
M  V30 4523 H 441.245 2.60369 2.66951 0
M  V30 4524 N 443.43 -0.535701 1.48216 0
M  V30 4525 C 444.676 -1.29375 1.56173 0
M  V30 4526 C 445.009 -1.92804 0.232429 0
M  V30 4527 O 444.284 -1.78992 -0.761048 0
M  V30 4528 C 444.567 -2.38747 2.69577 0
M  V30 4529 C 444.42 -1.80046 4.12193 0
M  V30 4530 C 445.739 -3.40551 2.78771 0
M  V30 4531 H 442.858 -0.469027 0.568491 0
M  V30 4532 H 445.5 -0.597358 1.80365 0
M  V30 4533 H 443.65 -2.98147 2.4908 0
M  V30 4534 H 445.322 -1.24742 4.44114 0
M  V30 4535 H 443.565 -1.10609 4.19462 0
M  V30 4536 H 444.236 -2.59212 4.87353 0
M  V30 4537 H 446.712 -2.91099 2.97322 0
M  V30 4538 H 445.588 -4.1448 3.59857 0
M  V30 4539 H 445.849 -4.00746 1.86696 0
M  V30 4540 N 444.908 -1.36708 -0.784132 0
M  V30 4541 C 446.185 -1.21776 -1.53069 0
M  V30 4542 C 446.565 0.193876 -2.10208 0
M  V30 4543 O 445.913 1.20012 -1.94446 0
M  V30 4544 C 446.123 -2.30395 -2.62143 0
M  V30 4545 C 447.471 -2.67325 -3.29882 0
M  V30 4546 O 448.495 -2.29478 -2.7243 0
M  V30 4547 O 447.354 -3.32485 -4.33724 0
M  V30 4548 H 444.448 -0.474459 -0.677361 0
M  V30 4549 H 446.994 -1.48454 -0.82216 0
M  V30 4550 H 445.766 -3.2498 -2.17953 0
M  V30 4551 H 445.389 -2.05112 -3.40609 0
M  V30 4552 N 446.386 1.0089 -1.21074 0
M  V30 4553 C 447.802 1.2695 -0.967257 0
M  V30 4554 C 448.002 1.9846 0.348673 0
M  V30 4555 O 447.058 2.28459 1.0753 0
M  V30 4556 C 448.371 2.09697 -2.15517 0
M  V30 4557 C 449.919 2.22937 -2.197 0
M  V30 4558 C 450.394 3.09064 -3.37999 0
M  V30 4559 N 451.885 3.16653 -3.38061 0
M  V30 4560 C 452.62 3.8354 -4.26245 0
M  V30 4561 N 452.116 4.52488 -5.2462 0
M  V30 4562 N 453.909 3.80141 -4.14064 0
M  V30 4563 H 446.06 0.529005 -2.05707 0
M  V30 4564 H 448.323 0.296148 -0.900556 0
M  V30 4565 H 448.029 1.64497 -3.10859 0
M  V30 4566 H 447.903 3.10444 -2.14253 0
M  V30 4567 H 450.29 2.67357 -1.24916 0
M  V30 4568 H 450.371 1.21673 -2.2501 0
M  V30 4569 H 450.015 2.65347 -4.33074 0
M  V30 4570 H 449.945 4.10433 -3.29928 0
M  V30 4571 H 452.436 2.67566 -2.66865 0
M  V30 4572 H 452.749 5.01219 -5.88217 0
M  V30 4573 H 451.094 4.51288 -5.28549 0
M  V30 4574 H 454.285 3.25427 -3.36474 0
M  V30 4575 H 454.458 4.31992 -4.82998 0
M  V30 4576 N 447.864 1.01787 1.20321 0
M  V30 4577 C 448.794 0.609625 2.25401 0
M  V30 4578 C 449.775 -0.375951 1.65893 0
M  V30 4579 O 450.96 -0.261101 1.92437 0
M  V30 4580 C 448.09 -0.0515995 3.47262 0
M  V30 4581 C 447.044 0.855095 4.19371 0
M  V30 4582 C 446.37 0.0595757 5.34667 0
M  V30 4583 C 447.67 2.16374 4.75373 0
M  V30 4584 H 449.364 1.48803 2.59804 0
M  V30 4585 H 446.91 0.716934 1.24884 0
M  V30 4586 H 448.863 -0.348764 4.19954 0
M  V30 4587 H 447.587 -0.964726 3.12027 0
M  V30 4588 H 446.246 1.13628 3.48546 0
M  V30 4589 H 445.894 -0.85524 4.95676 0
M  V30 4590 H 445.594 0.663406 5.83843 0
M  V30 4591 H 447.118 -0.231105 6.10162 0
M  V30 4592 H 448.532 1.92885 5.39878 0
M  V30 4593 H 446.929 2.71853 5.34991 0
M  V30 4594 H 447.999 2.82589 3.94045 0
M  V30 4595 N 449.342 -1.36122 0.79427 0
M  V30 4596 C 450.272 -2.32551 0.210328 0
M  V30 4597 C 451.253 -1.56884 -0.657386 0
M  V30 4598 O 452.438 -1.85014 -0.590207 0
M  V30 4599 C 449.568 -3.41128 -0.651819 0
M  V30 4600 C 448.522 -4.27842 0.116395 0
M  V30 4601 C 447.848 -5.2763 -0.86666 0
M  V30 4602 C 449.148 -5.05647 1.30837 0
M  V30 4603 H 450.842 -2.81636 1.01594 0
M  V30 4604 H 448.388 -1.35407 0.489981 0
M  V30 4605 H 450.341 -4.07581 -1.07031 0
M  V30 4606 H 449.065 -2.90622 -1.49019 0
M  V30 4607 H 447.724 -3.62952 0.515915 0
M  V30 4608 H 447.372 -4.73395 -1.70019 0
M  V30 4609 H 447.072 -5.86514 -0.35705 0
M  V30 4610 H 448.596 -5.96955 -1.28361 0
M  V30 4611 H 450.01 -5.65113 0.965393 0
M  V30 4612 H 448.407 -5.73967 1.75161 0
M  V30 4613 H 449.477 -4.37006 2.10128 0
M  V30 4614 N 450.82 -0.546701 -1.47814 0
M  V30 4615 C 451.752 0.244196 -2.27895 0
M  V30 4616 C 452.765 0.88911 -1.36377 0
M  V30 4617 O 453.954 0.764733 -1.61289 0
M  V30 4618 C 451.054 1.36252 -3.10304 0
M  V30 4619 C 450.227 0.816382 -4.29714 0
M  V30 4620 C 449.286 1.81789 -4.93801 0
M  V30 4621 O 448.312 1.36818 -5.52512 0
M  V30 4622 N 449.514 3.15085 -4.87547 0
M  V30 4623 H 452.279 -0.442694 -2.96412 0
M  V30 4624 H 449.84 -0.382095 -1.57327 0
M  V30 4625 H 451.832 2.03102 -3.50045 0
M  V30 4626 H 450.402 1.95281 -2.44099 0
M  V30 4627 H 449.622 -0.0285981 -3.9419 0
M  V30 4628 H 450.91 0.430668 -5.06974 0
M  V30 4629 H 450.308 3.54275 -4.41028 0
M  V30 4630 H 448.865 3.77522 -5.31339 0
M  V30 4631 N 452.299 1.55045 -0.282633 0
M  V30 4632 C 453.229 2.2579 0.595066 0
M  V30 4633 C 454.21 1.25074 1.15284 0
M  V30 4634 O 455.395 1.5381 1.18559 0
M  V30 4635 C 452.525 2.98472 1.77572 0
M  V30 4636 C 451.479 4.0618 1.34914 0
M  V30 4637 C 450.805 4.66477 2.6135 0
M  V30 4638 C 452.105 5.1996 0.493821 0
M  V30 4639 H 453.799 2.994 0.00505653 0
M  V30 4640 H 451.345 1.44 0.000992001 0
M  V30 4641 H 453.298 3.46677 2.39568 0
M  V30 4642 H 452.022 2.2241 2.39168 0
M  V30 4643 H 450.681 3.58797 0.752338 0
M  V30 4644 H 450.329 3.87074 3.2122 0
M  V30 4645 H 450.029 5.39207 2.33516 0
M  V30 4646 H 451.553 5.17435 3.24181 0
M  V30 4647 H 452.967 5.64172 1.01898 0
M  V30 4648 H 451.364 5.99299 0.310047 0
M  V30 4649 H 452.434 4.82462 -0.485593 0
M  V30 4650 N 453.777 0.010035 1.57597 0
M  V30 4651 C 455.002 -0.687021 1.95691 0
M  V30 4652 C 455.427 -1.65952 0.885519 0
M  V30 4653 O 454.785 -1.80633 -0.15543 0
M  V30 4654 C 454.833 -1.3864 3.32884 0
M  V30 4655 O 453.937 -2.50115 3.27897 0
M  V30 4656 H 453.278 -0.181989 0.638573 0
M  V30 4657 H 455.808 0.0662122 2.04493 0
M  V30 4658 H 455.818 -1.74754 3.6868 0
M  V30 4659 H 454.493 -0.673411 4.10412 0
M  V30 4660 H 453.07 -2.16253 3.03791 0
M  V30 4661 N 455.255 -1.55392 -0.262866 0
M  V30 4662 C 456.187 -1.85392 -1.34768 0
M  V30 4663 C 457.2 -0.739069 -1.45057 0
M  V30 4664 O 458.389 -1.01703 -1.46693 0
M  V30 4665 C 455.489 -2.01088 -2.72795 0
M  V30 4666 C 454.662 -3.31828 -2.84972 0
M  V30 4667 C 453.721 -3.37464 -4.03738 0
M  V30 4668 O 452.747 -4.10778 -3.94018 0
M  V30 4669 N 453.949 -2.65599 -5.16176 0
M  V30 4670 H 456.714 -2.79029 -1.09375 0
M  V30 4671 H 454.275 -1.55434 -0.452981 0
M  V30 4672 H 456.267 -2.02217 -3.50557 0
M  V30 4673 H 454.837 -1.1427 -2.90966 0
M  V30 4674 H 454.057 -3.43152 -1.94012 0
M  V30 4675 H 455.345 -4.18032 -2.90045 0
M  V30 4676 H 454.743 -2.05736 -5.26962 0
M  V30 4677 H 453.3 -2.72439 -5.92132 0
M  V30 4678 N 456.733 0.527833 -1.48498 0
M  V30 4679 C 457.981 1.28101 -1.56316 0
M  V30 4680 C 458.302 1.9352 -0.239781 0
M  V30 4681 O 457.572 1.81433 0.738849 0
M  V30 4682 H 456.152 0.475793 -0.575873 0
M  V30 4683 H 458.814 0.614052 -1.84974 0
M  V30 4684 H 457.91 2.05916 -2.34532 0
M  V30 4685 N 458.211 1.37122 0.776871 0
M  V30 4686 C 459.143 1.28342 1.89897 0
M  V30 4687 C 460.156 0.200277 1.61563 0
M  V30 4688 O 461.345 0.456012 1.72577 0
M  V30 4689 C 458.445 0.960427 3.25006 0
M  V30 4690 C 457.618 2.148 3.81025 0
M  V30 4691 C 456.677 1.79608 4.94598 0
M  V30 4692 O 455.703 2.51845 5.10454 0
M  V30 4693 N 456.905 0.737171 5.758 0
M  V30 4694 H 459.67 2.25027 1.97947 0
M  V30 4695 H 457.231 1.3068 0.955739 0
M  V30 4696 H 459.223 0.705942 3.98495 0
M  V30 4697 H 457.793 0.0823066 3.12492 0
M  V30 4698 H 457.013 2.56454 2.99374 0
M  V30 4699 H 458.301 2.9411 4.15183 0
M  V30 4700 H 457.699 0.137637 5.65533 0
M  V30 4701 H 456.256 0.542534 6.49538 0
M  V30 4702 N 459.689 -1.00246 1.21608 0
M  V30 4703 C 460.652 -2.07233 0.979133 0
M  V30 4704 C 461.652 -1.6072 -0.0508219 0
M  V30 4705 O 462.842 -1.73196 0.186712 0
M  V30 4706 C 459.974 -3.37546 0.477016 0
M  V30 4707 H 461.167 -2.29687 1.92831 0
M  V30 4708 H 458.72 -1.17261 1.03342 0
M  V30 4709 H 459.455 -3.20773 -0.476966 0
M  V30 4710 H 459.24 -3.72638 1.21997 0
M  V30 4711 H 460.73 -4.16285 0.331181 0
M  V30 4712 N 461.167 -1.02423 -1.1978 0
M  V30 4713 C 462.413 -0.719051 -1.89625 0
M  V30 4714 C 462.746 0.750083 -1.7913 0
M  V30 4715 O 462.021 1.54574 -1.18056 0
M  V30 4716 C 462.304 -1.16499 -3.40735 0
M  V30 4717 C 462.157 -2.695 -3.60125 0
M  V30 4718 C 463.476 -0.742166 -4.33797 0
M  V30 4719 H 460.595 -0.26269 -0.688595 0
M  V30 4720 H 463.237 -1.27333 -1.41018 0
M  V30 4721 H 461.387 -0.69341 -3.82262 0
M  V30 4722 H 463.059 -3.24569 -3.278 0
M  V30 4723 H 461.302 -3.10113 -3.03336 0
M  V30 4724 H 461.973 -2.95757 -4.66081 0
M  V30 4725 H 464.449 -1.1477 -3.99959 0
M  V30 4726 H 463.325 -1.08213 -5.38127 0
M  V30 4727 H 463.586 0.355747 -4.40666 0
M  V30 4728 N 462.645 1.35699 -0.801477 0
M  V30 4729 C 463.592 2.29876 -0.206294 0
M  V30 4730 C 464.562 1.52565 0.656752 0
M  V30 4731 O 465.747 1.81024 0.602906 0
M  V30 4732 C 462.887 3.39052 0.643272 0
M  V30 4733 C 462 4.31335 -0.239644 0
M  V30 4734 C 461.135 5.27599 0.61744 0
M  V30 4735 C 460.174 6.11521 -0.26619 0
M  V30 4736 N 459.311 6.99938 0.550571 0
M  V30 4737 H 464.151 2.80187 -1.01484 0
M  V30 4738 H 461.688 1.37902 -0.511997 0
M  V30 4739 H 463.646 4.0101 1.15094 0
M  V30 4740 H 462.276 2.9003 1.41713 0
M  V30 4741 H 461.328 3.70426 -0.865381 0
M  V30 4742 H 462.64 4.90243 -0.919985 0
M  V30 4743 H 461.794 5.94906 1.19045 0
M  V30 4744 H 460.533 4.69176 1.33137 0
M  V30 4745 H 459.538 5.43166 -0.851507 0
M  V30 4746 H 460.763 6.72022 -0.9779 0
M  V30 4747 H 458.709 6.44008 1.24856 0
M  V30 4748 H 458.626 7.55966 -0.071832 0
M  V30 4749 H 459.894 7.71599 1.10702 0
M  V30 4750 N 464.123 0.554532 1.47522 0
M  V30 4751 C 465.371 0.0294208 2.02079 0
M  V30 4752 C 465.692 -1.32411 1.43151 0
M  V30 4753 O 464.962 -1.863 0.605728 0
M  V30 4754 H 463.542 0.00788672 0.746958 0
M  V30 4755 H 466.204 0.723934 1.80956 0
M  V30 4756 H 465.3 -0.0606745 3.12041 0
M  V30 4757 N 465.601 -1.54893 0.290851 0
M  V30 4758 C 466.549 -2.24579 -0.605576 0
M  V30 4759 C 467.543 -1.24824 -1.14522 0
M  V30 4760 O 468.749 -1.42706 -1.09704 0
M  V30 4761 H 465.124 -0.720946 -0.213872 0
M  V30 4762 H 467.095 -2.984 0.0048173 0
M  V30 4763 C 465.844 -2.99224 -1.77088 0
M  V30 4764 H 465.167 -3.75782 -1.36484 0
M  V30 4765 H 466.607 -3.51281 -2.3744 0
M  V30 4766 C 465.066 -2.05602 -2.66888 0
M  V30 4767 O 465.596 -1.61745 -3.67698 0
M  V30 4768 N 463.802 -1.71771 -2.34399 0
M  V30 4769 H 463.349 -2.07633 -1.52468 0
M  V30 4770 H 463.307 -1.09403 -2.94751 0
M  V30 4771 N 467.08 -0.0183926 -1.57589 0
M  V30 4772 C 468.012 0.995557 -2.06449 0
M  V30 4773 C 469.025 1.29556 -0.985849 0
M  V30 4774 O 470.214 1.2621 -1.26227 0
M  V30 4775 C 467.314 2.32572 -2.46502 0
M  V30 4776 C 466.487 2.21245 -3.77319 0
M  V30 4777 C 465.546 3.37104 -4.04039 0
M  V30 4778 O 464.572 3.14468 -4.74445 0
M  V30 4779 N 465.774 4.60553 -3.53372 0
M  V30 4780 H 468.539 0.578746 -2.94059 0
M  V30 4781 H 466.1 0.168603 -1.6102 0
M  V30 4782 H 468.092 3.08887 -2.61478 0
M  V30 4783 H 466.662 2.65931 -1.64315 0
M  V30 4784 H 465.882 1.29723 -3.72244 0
M  V30 4785 H 467.17 2.10868 -4.63047 0
M  V30 4786 H 466.568 4.81839 -2.96391 0
M  V30 4787 H 465.125 5.34072 -3.73644 0
M  V30 4788 N 468.558 1.5553 0.254621 0
M  V30 4789 C 469.488 1.9268 1.31897 0
M  V30 4790 C 470.469 0.790797 1.506 0
M  V30 4791 O 471.654 1.05045 1.63337 0
M  V30 4792 C 468.784 2.21477 2.67517 0
M  V30 4793 C 467.738 3.37256 2.63519 0
M  V30 4794 C 467.064 3.51576 4.02862 0
M  V30 4795 C 468.364 4.73157 2.21179 0
M  V30 4796 H 470.058 2.81832 1.01051 0
M  V30 4797 H 467.604 1.35599 0.484662 0
M  V30 4798 H 469.557 2.46055 3.42104 0
M  V30 4799 H 468.281 1.29144 2.99982 0
M  V30 4800 H 466.94 3.12675 1.9139 0
M  V30 4801 H 466.588 2.56676 4.32581 0
M  V30 4802 H 466.288 4.2943 4.01078 0
M  V30 4803 H 467.812 3.78467 4.79161 0
M  V30 4804 H 469.226 4.97158 2.85494 0
M  V30 4805 H 467.623 5.54058 2.30521 0
M  V30 4806 H 468.693 4.70739 1.16332 0
M  V30 4807 N 470.036 -0.519951 1.48776 0
M  V30 4808 C 470.966 -1.63253 1.66945 0
M  V30 4809 C 471.947 -1.62014 0.518224 0
M  V30 4810 O 473.132 -1.79053 0.751919 0
M  V30 4811 C 470.262 -3.0181 1.71836 0
M  V30 4812 C 469.216 -3.17911 2.8656 0
M  V30 4813 C 468.542 -4.5763 2.76548 0
M  V30 4814 C 469.842 -2.99729 4.27738 0
M  V30 4815 H 471.536 -1.48302 2.6009 0
M  V30 4816 H 469.082 -0.712026 1.25165 0
M  V30 4817 H 471.035 -3.79525 1.83135 0
M  V30 4818 H 469.759 -3.17806 0.752775 0
M  V30 4819 H 468.418 -2.42616 2.74833 0
M  V30 4820 H 468.066 -4.70476 1.77937 0
M  V30 4821 H 467.766 -4.69346 3.53536 0
M  V30 4822 H 469.29 -5.37431 2.89828 0
M  V30 4823 H 470.704 -3.67228 4.40246 0
M  V30 4824 H 469.101 -3.22932 5.05801 0
M  V30 4825 H 470.171 -1.96047 4.43502 0
M  V30 4826 N 471.514 -1.37532 -0.769588 0
M  V30 4827 C 472.925 -1.29382 -1.346 0
M  V30 4828 C 473.276 0.0576039 -1.96115 0
M  V30 4829 O 472.401 0.95947 -1.93967 0
M  V30 4830 C 472.996 -2.34298 -2.44724 0
M  V30 4831 C 471.555 -2.29776 -2.98128 0
M  V30 4832 C 470.702 -2.18013 -1.71364 0
M  V30 4833 H 473.653 -1.48123 -0.56968 0
M  V30 4834 H 473.674 -1.99089 -3.24259 0
M  V30 4835 H 473.186 -3.32645 -1.99922 0
M  V30 4836 H 471.287 -1.34959 -3.47299 0
M  V30 4837 H 471.4 -3.23276 -3.53595 0
M  V30 4838 H 469.764 -1.64595 -1.94372 0
M  V30 4839 H 470.547 -3.18278 -1.28662 0
M  V30 4840 N 472.992 0.995999 -1.22138 0
M  V30 4841 C 474.238 1.73767 -1.04561 0
M  V30 4842 C 474.571 1.89633 0.418698 0
M  V30 4843 O 473.846 1.43723 1.3105 0
M  V30 4844 C 474.129 3.14505 -1.75382 0
M  V30 4845 C 473.982 3.06306 -3.29388 0
M  V30 4846 C 475.301 4.13615 -1.50369 0
M  V30 4847 H 472.42 0.630728 -0.38125 0
M  V30 4848 H 475.062 1.16057 -1.50435 0
M  V30 4849 H 473.212 3.63775 -1.36383 0
M  V30 4850 H 474.884 2.64681 -3.77812 0
M  V30 4851 H 473.127 2.43186 -3.59226 0
M  V30 4852 H 473.798 4.05884 -3.74116 0
M  V30 4853 H 476.274 3.73089 -1.84239 0
M  V30 4854 H 475.15 5.10212 -2.02421 0
M  V30 4855 H 475.411 4.39949 -0.435611 0
M  V30 4856 N 474.47 1.03057 1.19235 0
M  V30 4857 C 475.695 0.74757 1.93458 0
M  V30 4858 C 476.12 -0.687648 1.7508 0
M  V30 4859 O 475.478 -1.47499 1.05422 0
M  V30 4860 C 475.526 1.10604 3.43219 0
M  V30 4861 O 474.63 0.225671 4.11782 0
M  V30 4862 H 473.971 0.276047 0.603899 0
M  V30 4863 H 476.501 1.3777 1.51263 0
M  V30 4864 H 476.511 1.06366 3.93891 0
M  V30 4865 H 475.186 2.15165 3.55917 0
M  V30 4866 H 473.763 0.326795 3.71465 0
M  V30 4867 N 475.948 -1.35272 0.808662 0
M  V30 4868 C 476.878 -2.32315 0.234981 0
M  V30 4869 C 477.859 -1.57572 -0.64071 0
M  V30 4870 O 479.044 -1.8563 -0.570551 0
M  V30 4871 C 476.174 -3.41801 -0.615601 0
M  V30 4872 C 475.128 -4.27694 0.161767 0
M  V30 4873 C 474.454 -5.28519 -0.810649 0
M  V30 4874 C 475.754 -5.04231 1.36193 0
M  V30 4875 H 477.448 -2.80543 1.04575 0
M  V30 4876 H 474.994 -1.3488 0.504315 0
M  V30 4877 H 476.947 -4.08693 -1.02702 0
M  V30 4878 H 475.671 -2.92186 -1.45928 0
M  V30 4879 H 474.33 -3.62384 0.554382 0
M  V30 4880 H 473.978 -4.75171 -1.64988 0
M  V30 4881 H 473.678 -5.8686 -0.294822 0
M  V30 4882 H 475.202 -5.98283 -1.22023 0
M  V30 4883 H 476.616 -5.64058 1.02528 0
M  V30 4884 H 475.013 -5.72077 1.81239 0
M  V30 4885 H 476.083 -4.34753 2.14751 0
M  V30 4886 N 477.426 -0.562348 -1.47226 0
M  V30 4887 C 478.672 -0.0402761 -2.0276 0
M  V30 4888 C 479.005 1.30823 -1.43523 0
M  V30 4889 O 478.28 1.85249 -0.592705 0
M  V30 4890 C 478.563 0.047311 -3.60069 0
M  V30 4891 C 478.416 -1.32865 -4.29729 0
M  V30 4892 C 479.735 0.758182 -4.3352 0
M  V30 4893 H 476.854 -0.0161105 -0.736824 0
M  V30 4894 H 479.496 -0.725628 -1.75598 0
M  V30 4895 H 477.646 0.630986 -3.83342 0
M  V30 4896 H 479.318 -1.95593 -4.17781 0
M  V30 4897 H 477.561 -1.90195 -3.89882 0
M  V30 4898 H 478.232 -1.22004 -5.38349 0
M  V30 4899 H 480.708 0.262546 -4.15271 0
M  V30 4900 H 479.584 0.78844 -5.43208 0
M  V30 4901 H 479.845 1.81537 -4.03109 0
M  V30 4902 N 478.904 1.54736 -0.299062 0
M  V30 4903 C 479.851 2.23448 0.577899 0
M  V30 4904 C 480.821 1.21637 1.13109 0
M  V30 4905 O 482.006 1.50252 1.17597 0
M  V30 4906 C 479.146 2.9774 1.74484 0
M  V30 4907 C 478.259 4.1432 1.22323 0
M  V30 4908 C 477.394 4.76199 2.35388 0
M  V30 4909 C 476.433 5.84927 1.80351 0
M  V30 4910 N 475.57 6.4077 2.86982 0
M  V30 4911 H 480.41 2.97996 -0.0146545 0
M  V30 4912 H 477.947 1.47088 -0.0190013 0
M  V30 4913 H 479.905 3.39045 2.43114 0
M  V30 4914 H 478.535 2.25572 2.30905 0
M  V30 4915 H 477.587 3.7797 0.429249 0
M  V30 4916 H 478.899 4.92659 0.780309 0
M  V30 4917 H 478.053 5.20346 3.11969 0
M  V30 4918 H 476.792 3.97188 2.83006 0
M  V30 4919 H 475.797 5.40207 1.02259 0
M  V30 4920 H 477.022 6.65821 1.3364 0
M  V30 4921 H 474.968 5.64643 3.33938 0
M  V30 4922 H 474.885 7.1445 2.4718 0
M  V30 4923 H 476.153 6.89574 3.63466 0
M  V30 4924 N 480.382 0.0267497 1.57577 0
M  V30 4925 C 481.798 -0.32962 1.56159 0
M  V30 4926 C 481.998 -1.73059 1.03213 0
M  V30 4927 O 481.054 -2.43233 0.677804 0
M  V30 4928 C 482.367 -0.18039 3.00158 0
M  V30 4929 C 483.915 -0.253334 3.11973 0
M  V30 4930 C 484.39 -0.132921 4.57807 0
M  V30 4931 N 485.881 -0.189979 4.6281 0
M  V30 4932 C 486.616 -0.120554 5.73273 0
M  V30 4933 N 486.112 -0.000180315 6.928 0
M  V30 4934 N 487.905 -0.174369 5.61829 0
M  V30 4935 H 480.056 0.942896 1.90324 0
M  V30 4936 H 482.319 0.3639 0.875375 0
M  V30 4937 H 482.025 0.784576 3.42837 0
M  V30 4938 H 481.899 -0.951565 3.65 0
M  V30 4939 H 484.286 -1.20876 2.69208 0
M  V30 4940 H 484.367 0.548177 2.49857 0
M  V30 4941 H 484.011 0.819073 5.01252 0
M  V30 4942 H 483.941 -0.953264 5.179 0
M  V30 4943 H 486.432 -0.283257 3.76837 0
M  V30 4944 H 486.745 0.0461666 7.72786 0
M  V30 4945 H 485.09 0.034569 6.94991 0
M  V30 4946 H 488.281 -0.266794 4.67339 0
M  V30 4947 H 488.454 -0.116802 6.47895 0
M  V30 4948 N 481.861 -1.55662 -0.24637 0
M  V30 4949 C 482.808 -1.90361 -1.30504 0
M  V30 4950 C 483.778 -0.757905 -1.47801 0
M  V30 4951 O 484.963 -1.01161 -1.61775 0
M  V30 4952 C 482.103 -2.2042 -2.65535 0
M  V30 4953 C 481.216 -3.47799 -2.56242 0
M  V30 4954 C 480.351 -3.67426 -3.8363 0
M  V30 4955 C 479.39 -4.88403 -3.68956 0
M  V30 4956 N 478.527 -5.04548 -4.88237 0
M  V30 4957 H 483.367 -2.80645 -1.00213 0
M  V30 4958 H 480.904 -1.38924 -0.483577 0
M  V30 4959 H 482.862 -2.35853 -3.44135 0
M  V30 4960 H 481.492 -1.3334 -2.93973 0
M  V30 4961 H 480.544 -3.40694 -1.69208 0
M  V30 4962 H 481.856 -4.36544 -2.4131 0
M  V30 4963 H 481.01 -3.82821 -4.70673 0
M  V30 4964 H 479.749 -2.76914 -4.01459 0
M  V30 4965 H 478.754 -4.72984 -2.80296 0
M  V30 4966 H 479.979 -5.80375 -3.52621 0
M  V30 4967 H 477.925 -4.16974 -5.06427 0
M  V30 4968 H 477.842 -5.87384 -4.75937 0
M  V30 4969 H 479.11 -5.24355 -5.76777 0
M  V30 4970 N 483.339 0.512053 -1.4905 0
M  V30 4971 C 484.567 1.29116 -1.61669 0
M  V30 4972 C 484.982 1.86655 -0.283787 0
M  V30 4973 O 484.339 1.67293 0.729331 0
M  V30 4974 C 484.39 2.4293 -2.67707 0
M  V30 4975 O 484.111 1.87758 -3.95826 0
M  V30 4976 C 485.612 3.34476 -2.90931 0
M  V30 4977 H 482.832 0.392009 -0.544583 0
M  V30 4978 H 485.376 0.615881 -1.95006 0
M  V30 4979 H 483.531 3.06308 -2.37179 0
M  V30 4980 H 483.945 2.62393 -4.54148 0
M  V30 4981 H 485.419 4.10642 -3.68886 0
M  V30 4982 H 485.896 3.90801 -2.00427 0
M  V30 4983 H 486.502 2.76874 -3.22832 0
M  V30 4984 N 484.817 1.37938 0.762283 0
M  V30 4985 C 486.045 1.36883 1.55147 0
M  V30 4986 C 486.46 -0.0435348 1.8875 0
M  V30 4987 O 485.817 -1.00786 1.52146 0
M  V30 4988 C 485.868 2.21624 2.85596 0
M  V30 4989 O 485.589 3.57358 2.5343 0
M  V30 4990 C 487.09 2.28653 3.7978 0
M  V30 4991 H 484.31 0.468521 0.480343 0
M  V30 4992 H 486.854 1.81404 0.944079 0
M  V30 4993 H 485.009 1.80588 3.42734 0
M  V30 4994 H 485.423 4.01883 3.37032 0
M  V30 4995 H 486.897 2.9225 4.68288 0
M  V30 4996 H 487.374 1.29767 4.19592 0
M  V30 4997 H 487.98 2.70043 3.28568 0
M  V30 4998 N 486.295 -0.989507 1.22664 0
M  V30 4999 C 487.225 -2.09847 1.02404 0
M  V30 5000 C 488.206 -1.70007 -0.0561303 0
M  V30 5001 O 489.391 -1.93906 0.106748 0
M  V30 5002 C 486.521 -3.41996 0.604663 0
M  V30 5003 C 485.475 -3.95699 1.63115 0
M  V30 5004 C 484.801 -5.23936 1.0675 0
M  V30 5005 C 486.101 -4.25999 3.02196 0
M  V30 5006 H 487.795 -2.27054 1.95158 0
M  V30 5007 H 485.341 -1.09111 0.939727 0
M  V30 5008 H 487.294 -4.1899 0.45002 0
M  V30 5009 H 486.018 -3.24626 -0.35855 0
M  V30 5010 H 484.677 -3.2084 1.77362 0
M  V30 5011 H 484.325 -5.02909 0.0955422 0
M  V30 5012 H 484.025 -5.60833 1.75328 0
M  V30 5013 H 485.549 -6.0356 0.924516 0
M  V30 5014 H 486.963 -4.93777 2.91303 0
M  V30 5015 H 485.36 -4.74076 3.67929 0
M  V30 5016 H 486.43 -3.33636 3.51873 0
M  V30 5017 N 487.773 -1.03688 -1.18687 0
M  V30 5018 C 488.736 -0.629115 -2.20397 0
M  V30 5019 C 489.736 0.311495 -1.57754 0
M  V30 5020 O 490.926 0.0974107 -1.73927 0
M  V30 5021 C 488.058 0.0782231 -3.4081 0
M  V30 5022 H 489.251 -1.52915 -2.57987 0
M  V30 5023 H 486.804 -0.828988 -1.32505 0
M  V30 5024 H 487.539 0.992233 -3.08748 0
M  V30 5025 H 487.324 -0.597776 -3.87517 0
M  V30 5026 H 488.814 0.350156 -4.16129 0
M  V30 5027 N 489.251 1.34841 -0.815825 0
M  V30 5028 C 490.662 1.80937 -0.46029 0
M  V30 5029 C 491.013 1.67685 1.01863 0
M  V30 5030 O 490.138 1.21277 1.79223 0
M  V30 5031 C 490.733 3.28509 -0.828708 0
M  V30 5032 C 489.292 3.72712 -0.525644 0
M  V30 5033 C 488.439 2.56676 -1.04941 0
M  V30 5034 H 491.39 1.22688 -1.00664 0
M  V30 5035 H 491.411 3.80279 -0.129757 0
M  V30 5036 H 490.923 3.38122 -1.90513 0
M  V30 5037 H 489.024 3.68642 0.541666 0
M  V30 5038 H 489.137 4.67119 -1.06474 0
M  V30 5039 H 487.501 2.50302 -0.471286 0
M  V30 5040 H 488.284 2.69063 -2.13214 0
M  V30 5041 N 490.729 0.570148 1.46925 0
M  V30 5042 C 491.677 -0.183181 2.31878 0
M  V30 5043 C 492.671 -0.896721 1.43719 0
M  V30 5044 O 493.877 -0.816536 1.60414 0
M  V30 5045 H 490.252 -0.077944 0.74795 0
M  V30 5046 H 492.223 0.552312 2.93244 0
M  V30 5047 C 490.972 -1.19172 3.2664 0
M  V30 5048 H 490.295 -0.652088 3.94446 0
M  V30 5049 H 491.735 -1.68946 3.88887 0
M  V30 5050 C 490.194 -2.24627 2.51086 0
M  V30 5051 O 490.724 -3.31773 2.26472 0
M  V30 5052 N 488.93 -1.98898 2.11867 0
M  V30 5053 H 488.477 -1.11777 2.32086 0
M  V30 5054 H 488.435 -2.6967 1.61634 0
M  V30 5055 N 492.207 -1.54576 0.307264 0
M  V30 5056 C 493.435 -2.04675 -0.302597 0
M  V30 5057 C 493.85 -1.18425 -1.47041 0
M  V30 5058 O 493.207 -0.211257 -1.81273 0
M  V30 5059 C 493.258 -3.53575 -0.752801 0
M  V30 5060 O 492.979 -4.36547 0.368536 0
M  V30 5061 C 494.48 -4.19699 -1.42717 0
M  V30 5062 H 491.7 -0.66786 -0.0648374 0
M  V30 5063 H 494.244 -1.99516 0.448716 0
M  V30 5064 H 492.399 -3.59074 -1.45412 0
M  V30 5065 H 492.813 -5.24497 0.0168937 0
M  V30 5066 H 494.287 -5.25388 -1.69327 0
M  V30 5067 H 494.764 -3.69815 -2.36925 0
M  V30 5068 H 495.37 -4.18293 -0.768856 0
M  V30 5069 N 493.685 -0.035106 -1.57561 0
M  V30 5070 C 494.617 0.973604 -2.07494 0
M  V30 5071 C 495.63 1.28504 -0.999534 0
M  V30 5072 O 496.819 1.24864 -1.27559 0
M  V30 5073 C 493.919 2.29945 -2.48955 0
M  V30 5074 C 493.092 2.1723 -3.79644 0
M  V30 5075 C 492.151 3.328 -4.07592 0
M  V30 5076 O 491.177 3.09418 -4.77754 0
M  V30 5077 N 492.379 4.56779 -3.58236 0
M  V30 5078 H 495.144 0.547525 -2.94656 0
M  V30 5079 H 492.705 0.151515 -1.61189 0
M  V30 5080 H 494.697 3.06097 -2.64739 0
M  V30 5081 H 493.267 2.64173 -1.67126 0
M  V30 5082 H 492.487 1.25768 -3.73599 0
M  V30 5083 H 493.775 2.05945 -4.65257 0
M  V30 5084 H 493.173 4.78668 -3.01485 0
M  V30 5085 H 491.73 5.30079 -3.79288 0
M  V30 5086 N 495.163 1.55791 0.238111 0
M  V30 5087 C 496.391 1.82098 0.982233 0
M  V30 5088 C 496.806 0.612025 1.78605 0
M  V30 5089 O 496.163 -0.419381 1.77616 0
M  V30 5090 C 496.214 3.0673 1.91309 0
M  V30 5091 O 495.935 4.2296 1.14179 0
M  V30 5092 C 497.436 3.45903 2.77248 0
M  V30 5093 H 494.656 0.605748 0.288635 0
M  V30 5094 H 497.2 2.02862 0.258341 0
M  V30 5095 H 495.355 2.87991 2.59114 0
M  V30 5096 H 495.769 4.93653 1.7722 0
M  V30 5097 H 497.243 4.36189 3.38295 0
M  V30 5098 H 497.72 2.66891 3.48806 0
M  V30 5099 H 498.326 3.67024 2.14881 0
M  V30 5100 N 496.642 -0.504142 1.49319 0
M  V30 5101 C 497.605 -1.5883 1.65244 0
M  V30 5102 C 498.605 -1.52009 0.524386 0
M  V30 5103 O 499.795 -1.55218 0.79077 0
M  V30 5104 C 496.927 -2.98481 1.64687 0
M  V30 5105 H 498.12 -1.4604 2.61939 0
M  V30 5106 H 495.673 -0.728144 1.38303 0
M  V30 5107 H 496.408 -3.16751 0.695644 0
M  V30 5108 H 496.193 -3.0484 2.46607 0
M  V30 5109 H 497.683 -3.77256 1.79075 0
M  V30 5110 N 498.12 -1.38341 -0.754957 0
M  V30 5111 C 499.345 -1.37882 -1.5493 0
M  V30 5112 C 499.77 0.0296385 -1.88077 0
M  V30 5113 O 499.128 1.01133 -1.50472 0
M  V30 5114 C 499.176 -2.23996 -2.82592 0
M  V30 5115 O 498.28 -1.65612 -3.77686 0
M  V30 5116 H 497.621 -0.470384 -0.468652 0
M  V30 5117 H 500.151 -1.82084 -0.933082 0
M  V30 5118 H 500.161 -2.37806 -3.3153 0
M  V30 5119 H 498.836 -3.26365 -2.57796 0
M  V30 5120 H 497.413 -1.60936 -3.36384 0
M  V30 5121 N 499.598 0.982988 -1.23187 0
M  V30 5122 C 501.009 1.53847 -1.05773 0
M  V30 5123 C 501.36 1.92568 0.375744 0
M  V30 5124 O 500.485 1.75783 1.26211 0
M  V30 5125 C 501.08 2.79567 -1.91384 0
M  V30 5126 C 499.639 3.31524 -1.78238 0
M  V30 5127 C 498.786 2.04534 -1.87246 0
M  V30 5128 H 501.737 0.802962 -1.36888 0
M  V30 5129 H 501.758 3.52317 -1.43711 0
M  V30 5130 H 501.27 2.51353 -2.95708 0
M  V30 5131 H 499.371 3.64623 -0.766875 0
M  V30 5132 H 499.484 4.01457 -2.61475 0
M  V30 5133 H 497.848 2.1855 -1.30797 0
M  V30 5134 H 498.631 1.78706 -2.9312 0
M  V30 5135 N 501.076 1.04316 1.18135 0
M  V30 5136 C 502.492 0.762858 1.40188 0
M  V30 5137 C 502.692 -0.646547 1.90846 0
M  V30 5138 O 501.748 -1.41036 2.0944 0
M  V30 5139 C 503.061 1.81106 2.40044 0
M  V30 5140 C 504.609 1.83226 2.53766 0
M  V30 5141 C 505.084 2.87044 3.56889 0
M  V30 5142 N 506.575 2.85951 3.64398 0
M  V30 5143 C 507.31 3.62932 4.43923 0
M  V30 5144 N 506.806 4.49672 5.27036 0
M  V30 5145 N 508.599 3.51411 4.38711 0
M  V30 5146 H 500.75 1.95264 0.835805 0
M  V30 5147 H 503.013 0.845017 0.429709 0
M  V30 5148 H 502.719 2.82214 2.09876 0
M  V30 5149 H 502.593 1.64529 3.39426 0
M  V30 5150 H 504.98 0.827869 2.8325 0
M  V30 5151 H 505.061 2.03879 1.54489 0
M  V30 5152 H 504.705 3.87663 3.28145 0
M  V30 5153 H 504.635 2.63645 4.5585 0
M  V30 5154 H 507.126 2.23051 3.05052 0
M  V30 5155 H 507.439 5.05116 5.84874 0
M  V30 5156 H 505.784 4.53738 5.26447 0
M  V30 5157 H 508.975 2.83047 3.72829 0
M  V30 5158 H 509.148 4.11654 5.00445 0
M  V30 5159 N 502.554 -1.34406 0.822964 0
M  V30 5160 C 503.517 -2.2783 0.250271 0
M  V30 5161 C 504.517 -1.50288 -0.571854 0
M  V30 5162 O 505.707 -1.69825 -0.387952 0
M  V30 5163 C 502.839 -3.34663 -0.649137 0
M  V30 5164 H 504.032 -2.79992 1.07444 0
M  V30 5165 H 501.585 -1.44539 0.594829 0
M  V30 5166 H 502.32 -2.87714 -1.49637 0
M  V30 5167 H 502.105 -3.92052 -0.0611199 0
M  V30 5168 H 503.595 -4.04349 -1.04363 0
M  V30 5169 N 504.032 -0.577932 -1.46621 0
M  V30 5170 C 504.962 0.145917 -2.33044 0
M  V30 5171 C 505.943 0.888412 -1.45056 0
M  V30 5172 O 507.128 0.864812 -1.73881 0
M  V30 5173 C 504.258 1.16322 -3.27241 0
M  V30 5174 C 503.212 0.535868 -4.24632 0
M  V30 5175 C 502.538 1.65929 -5.08303 0
M  V30 5176 C 503.838 -0.523861 -5.19666 0
M  V30 5177 H 505.532 -0.575636 -2.93814 0
M  V30 5178 H 503.078 -0.278272 -1.41286 0
M  V30 5179 H 505.031 1.67793 -3.86553 0
M  V30 5180 H 503.755 1.91498 -2.64567 0
M  V30 5181 H 502.414 0.0422759 -3.66576 0
M  V30 5182 H 502.062 2.40061 -4.42018 0
M  V30 5183 H 501.762 1.2452 -5.74255 0
M  V30 5184 H 503.286 2.17686 -5.70478 0
M  V30 5185 H 504.7 -0.0944059 -5.73222 0
M  V30 5186 H 503.097 -0.858 -5.93935 0
M  V30 5187 H 504.167 -1.41197 -4.63887 0
M  V30 5188 N 505.51 1.54411 -0.315457 0
M  V30 5189 C 506.473 2.22713 0.54142 0
M  V30 5190 C 507.473 1.2179 1.04995 0
M  V30 5191 O 508.663 1.46426 0.943667 0
M  V30 5192 C 505.795 2.92485 1.75116 0
M  V30 5193 H 506.988 2.99849 -0.0555508 0
M  V30 5194 H 504.541 1.56159 -0.0664453 0
M  V30 5195 H 505.276 2.19466 2.38758 0
M  V30 5196 H 505.061 3.66483 1.39401 0
M  V30 5197 H 506.551 3.44548 2.35959 0
M  V30 5198 N 506.988 0.0434614 1.5754 0
M  V30 5199 C 508.265 -0.671479 1.83713 0
M  V30 5200 C 508.645 -1.89495 0.930315 0
M  V30 5201 O 507.993 -2.28498 -0.0105639 0
M  V30 5202 C 508.203 -1.0361 3.33266 0
M  V30 5203 C 509.551 -1.42167 4.00092 0
M  V30 5204 O 510.575 -1.12866 3.37846 0
M  V30 5205 O 509.434 -1.96817 5.09829 0
M  V30 5206 H 506.528 -0.330726 0.75799 0
M  V30 5207 H 509.074 0.0722373 1.69546 0
M  V30 5208 H 507.846 -0.165938 3.90948 0
M  V30 5209 H 507.469 -1.83751 3.52592 0
M  V30 5210 N 508.466 -1.55915 -0.229846 0
M  V30 5211 C 509.691 -1.8296 -0.976743 0
M  V30 5212 C 510.116 -0.622735 -1.77493 0
M  V30 5213 O 509.474 0.428431 -1.76165 0
M  V30 5214 C 509.522 -3.07916 -1.8767 0
M  V30 5215 O 508.626 -2.86028 -2.97088 0
M  V30 5216 H 507.967 -0.603453 -0.277021 0
M  V30 5217 H 510.497 -2.0312 -0.245669 0
M  V30 5218 H 510.507 -3.37802 -2.2881 0
M  V30 5219 H 509.182 -3.95389 -1.28996 0
M  V30 5220 H 507.759 -2.67355 -2.59954 0
M  V30 5221 N 509.944 0.496216 -1.49584 0
M  V30 5222 C 510.874 1.60576 -1.69521 0
M  V30 5223 C 511.855 1.61169 -0.543933 0
M  V30 5224 O 513.04 1.77834 -0.78031 0
M  V30 5225 C 510.17 2.99038 -1.76616 0
M  V30 5226 C 509.124 3.13312 -2.91581 0
M  V30 5227 C 508.45 4.53172 -2.83794 0
M  V30 5228 C 509.75 2.92886 -4.32452 0
M  V30 5229 H 511.444 1.44146 -2.62416 0
M  V30 5230 H 508.99 0.692024 -1.26282 0
M  V30 5231 H 510.943 3.76564 -1.8915 0
M  V30 5232 H 509.667 3.16568 -0.80324 0
M  V30 5233 H 508.326 2.38213 -2.78658 0
M  V30 5234 H 507.974 4.67585 -1.854 0
M  V30 5235 H 507.674 4.63662 -3.60958 0
M  V30 5236 H 509.198 5.32752 -2.98342 0
M  V30 5237 H 510.612 3.60178 -4.46032 0
M  V30 5238 H 509.009 3.14844 -5.10875 0
M  V30 5239 H 510.079 1.88966 -4.46565 0
M  V30 5240 N 511.423 1.38739 0.74761 0
M  V30 5241 C 512.356 1.3083 1.86972 0
M  V30 5242 C 513.334 0.184229 1.61553 0
M  V30 5243 O 514.518 0.36256 1.8498 0
M  V30 5244 C 511.645 1.02854 3.22705 0
M  V30 5245 C 510.691 2.17281 3.67003 0
M  V30 5246 S 511.524 3.79468 3.77842 0
M  V30 5247 C 512.68 3.53692 5.16385 0
M  V30 5248 H 512.913 2.258 1.93395 0
M  V30 5249 H 510.446 1.24646 0.911199 0
M  V30 5250 H 512.404 0.87397 4.01089 0
M  V30 5251 H 511.065 0.0959295 3.13953 0
M  V30 5252 H 510.258 1.93267 4.65472 0
M  V30 5253 H 509.86 2.28876 2.9579 0
M  V30 5254 H 512.152 3.10176 6.02327 0
M  V30 5255 H 513.095 4.51576 5.45422 0
M  V30 5256 H 513.503 2.8807 4.85464 0
M  V30 5257 N 512.901 -0.976442 1.23707 0
M  V30 5258 C 513.833 -2.07212 0.979574 0
M  V30 5259 C 514.846 -1.6273 -0.0478528 0
M  V30 5260 O 516.035 -1.77506 0.18815 0
M  V30 5261 C 513.135 -3.35835 0.45479 0
M  V30 5262 C 512.308 -4.09268 1.54331 0
M  V30 5263 C 511.367 -5.16166 1.02271 0
M  V30 5264 O 510.393 -5.42827 1.71254 0
M  V30 5265 N 511.595 -5.80313 -0.147419 0
M  V30 5266 H 514.36 -2.29878 1.92292 0
M  V30 5267 H 511.921 -1.14343 1.14618 0
M  V30 5268 H 513.913 -4.04597 0.0914631 0
M  V30 5269 H 512.483 -3.10106 -0.394068 0
M  V30 5270 H 511.703 -3.34906 2.07923 0
M  V30 5271 H 512.991 -4.55095 2.27522 0
M  V30 5272 H 512.389 -5.61043 -0.724353 0
M  V30 5273 H 510.946 -6.50231 -0.451972 0
M  V30 5274 N 514.379 -1.04941 -1.1758 0
M  V30 5275 C 515.309 -0.669172 -2.23706 0
M  V30 5276 C 516.29 0.331835 -1.66832 0
M  V30 5277 O 517.475 0.209988 -1.93061 0
M  V30 5278 C 514.605 -0.0404889 -3.47276 0
M  V30 5279 C 513.559 -0.965983 -4.16957 0
M  V30 5280 C 512.885 -0.201312 -5.34321 0
M  V30 5281 C 514.185 -2.28902 -4.69469 0
M  V30 5282 H 515.879 -1.55639 -2.55767 0
M  V30 5283 H 513.425 -0.749793 -1.22939 0
M  V30 5284 H 515.378 0.237298 -4.20731 0
M  V30 5285 H 514.102 0.881658 -3.14475 0
M  V30 5286 H 512.761 -1.22829 -3.45411 0
M  V30 5287 H 512.409 0.723519 -4.97769 0
M  V30 5288 H 512.109 -0.817968 -5.81879 0
M  V30 5289 H 513.633 0.0692499 -6.10561 0
M  V30 5290 H 515.047 -2.07132 -5.34574 0
M  V30 5291 H 513.444 -2.85942 -5.27596 0
M  V30 5292 H 514.514 -2.92937 -3.86414 0
M  V30 5293 N 515.857 1.33968 -0.830081 0
M  V30 5294 C 516.82 2.27694 -0.26235 0
M  V30 5295 C 517.82 1.50589 0.563876 0
M  V30 5296 O 519.01 1.70028 0.378941 0
M  V30 5297 C 516.142 3.35002 0.63138 0
M  V30 5298 H 517.335 2.79419 -1.08928 0
M  V30 5299 H 514.888 1.44221 -0.602486 0
M  V30 5300 H 515.623 2.88504 1.48109 0
M  V30 5301 H 515.408 3.92079 0.0403276 0
M  V30 5302 H 516.898 4.04897 1.02217 0
M  V30 5303 N 517.335 0.585699 1.46312 0
M  V30 5304 C 518.751 0.247607 1.57668 0
M  V30 5305 C 518.951 -1.25007 1.58037 0
M  V30 5306 O 518.007 -2.03196 1.49893 0
M  V30 5307 C 519.32 0.899456 2.86933 0
M  V30 5308 C 520.868 0.873326 3.00569 0
M  V30 5309 C 521.343 1.50477 4.32574 0
M  V30 5310 N 522.834 1.46925 4.3928 0
M  V30 5311 C 523.569 1.92719 5.40044 0
M  V30 5312 N 523.065 2.46499 6.47464 0
M  V30 5313 N 524.858 1.83617 5.31264 0
M  V30 5314 H 517.009 1.55841 1.44317 0
M  V30 5315 H 519.272 0.651564 0.688599 0
M  V30 5316 H 518.978 1.95313 2.92482 0
M  V30 5317 H 518.852 0.409476 3.74971 0
M  V30 5318 H 521.239 -0.171736 2.946 0
M  V30 5319 H 521.32 1.40136 2.13999 0
M  V30 5320 H 520.964 2.54905 4.39302 0
M  V30 5321 H 520.894 0.951944 5.17924 0
M  V30 5322 H 523.385 1.07616 3.62253 0
M  V30 5323 H 523.698 2.79291 7.20567 0
M  V30 5324 H 522.043 2.50526 6.48276 0
M  V30 5325 H 525.234 1.41358 4.46246 0
M  V30 5326 H 525.407 2.19622 6.09648 0
M  V30 5327 N 518.813 -1.54241 0.323641 0
M  V30 5328 C 519.745 -2.21836 -0.576311 0
M  V30 5329 C 520.758 -1.21837 -1.07979 0
M  V30 5330 O 521.947 -1.48306 -0.99336 0
M  V30 5331 C 519.047 -2.86923 -1.80356 0
M  V30 5332 C 518.22 -4.1306 -1.43875 0
M  V30 5333 C 517.279 -4.6174 -2.52353 0
M  V30 5334 O 516.305 -5.26421 -2.16494 0
M  V30 5335 N 517.507 -4.35974 -3.83284 0
M  V30 5336 H 520.272 -2.997 0.00247987 0
M  V30 5337 H 517.833 -1.61233 0.146848 0
M  V30 5338 H 519.825 -3.16414 -2.52318 0
M  V30 5339 H 518.395 -2.12765 -2.29019 0
M  V30 5340 H 517.615 -3.90334 -0.550752 0
M  V30 5341 H 518.903 -4.95148 -1.17071 0
M  V30 5342 H 518.301 -3.84203 -4.15216 0
M  V30 5343 H 516.858 -4.70119 -4.51477 0
M  V30 5344 N 520.291 -0.0518155 -1.57515 0
M  V30 5345 C 521.537 0.622745 -1.93002 0
M  V30 5346 C 521.87 1.70456 -0.930499 0
M  V30 5347 O 521.145 1.94452 0.0434086 0
M  V30 5348 C 521.428 1.21824 -3.38867 0
M  V30 5349 C 521.281 0.144434 -4.49568 0
M  V30 5350 C 522.6 2.12968 -3.8514 0
M  V30 5351 H 519.719 0.22491 -0.701844 0
M  V30 5352 H 522.361 -0.113711 -1.89659 0
M  V30 5353 H 520.511 1.8459 -3.41846 0
M  V30 5354 H 522.183 -0.48753 -4.58717 0
M  V30 5355 H 520.426 -0.527424 -4.30582 0
M  V30 5356 H 521.097 0.601127 -5.48717 0
M  V30 5357 H 523.573 1.60163 -3.8404 0
M  V30 5358 H 522.449 2.51578 -4.87852 0
M  V30 5359 H 522.71 3.03004 -3.21934 0
M  V30 5360 N 521.769 1.56035 0.221574 0
M  V30 5361 C 522.994 1.83476 0.967026 0
M  V30 5362 C 523.419 0.632139 1.7716 0
M  V30 5363 O 522.777 -0.419082 1.7639 0
M  V30 5364 C 522.825 3.08907 1.86034 0
M  V30 5365 O 521.929 2.876 2.95567 0
M  V30 5366 H 521.27 0.604913 0.273817 0
M  V30 5367 H 523.8 2.03247 0.234893 0
M  V30 5368 H 523.81 3.3901 2.27016 0
M  V30 5369 H 522.485 3.96068 1.26898 0
M  V30 5370 H 521.062 2.6873 2.58532 0
M  V30 5371 N 523.247 -0.488276 1.49845 0
M  V30 5372 C 524.663 -0.820566 1.3689 0
M  V30 5373 C 524.863 -1.97248 0.411752 0
M  V30 5374 O 523.919 -2.52042 -0.151931 0
M  V30 5375 C 525.232 -1.1488 2.77891 0
M  V30 5376 C 526.78 -1.25626 2.86683 0
M  V30 5377 C 527.255 -1.61772 4.28479 0
M  V30 5378 N 528.746 -1.68797 4.31349 0
M  V30 5379 C 529.481 -1.98235 5.38043 0
M  V30 5380 N 528.977 -2.2581 6.54967 0
M  V30 5381 N 530.77 -1.99593 5.2547 0
M  V30 5382 H 522.921 0.271123 2.10662 0
M  V30 5383 H 525.184 0.058735 0.946179 0
M  V30 5384 H 524.89 -0.375614 3.49688 0
M  V30 5385 H 524.764 -2.08919 3.14058 0
M  V30 5386 H 527.151 -2.02014 2.15114 0
M  V30 5387 H 527.232 -0.296072 2.54081 0
M  V30 5388 H 526.876 -0.859295 5.00578 0
M  V30 5389 H 526.806 -2.58912 4.58554 0
M  V30 5390 H 529.297 -1.49595 3.4703 0
M  V30 5391 H 529.61 -2.47497 7.32096 0
M  V30 5392 H 527.955 -2.23239 6.58171 0
M  V30 5393 H 531.146 -1.77535 4.33127 0
M  V30 5394 H 531.319 -2.222 6.08713 0
M  V30 5395 N 524.725 -1.39134 -0.740242 0
M  V30 5396 C 525.655 -1.40165 -1.86751 0
M  V30 5397 C 526.636 -0.265708 -1.68012 0
M  V30 5398 O 527.821 -0.47076 -1.88408 0
M  V30 5399 C 524.951 -1.2392 -3.2444 0
M  V30 5400 C 523.905 -2.34858 -3.57807 0
M  V30 5401 C 523.231 -2.03707 -4.94376 0
M  V30 5402 C 524.531 -3.77159 -3.61315 0
M  V30 5403 H 526.225 -2.345 -1.86145 0
M  V30 5404 H 523.771 -1.12875 -0.89416 0
M  V30 5405 H 525.724 -1.23263 -4.02969 0
M  V30 5406 H 524.448 -0.26051 -3.25559 0
M  V30 5407 H 523.107 -2.34723 -2.81604 0
M  V30 5408 H 522.755 -1.04289 -4.9207 0
M  V30 5409 H 522.455 -2.78016 -5.17669 0
M  V30 5410 H 523.979 -2.04691 -5.75268 0
M  V30 5411 H 525.393 -3.79252 -4.29931 0
M  V30 5412 H 523.79 -4.50784 -3.96124 0
M  V30 5413 H 524.86 -4.08513 -2.61238 0
M  V30 5414 N 526.204 0.969867 -1.24223 0
M  V30 5415 C 527.114 2.09806 -1.0497 0
M  V30 5416 C 528.13 1.73998 0.00886455 0
M  V30 5417 O 529.306 2.00513 -0.188848 0
M  V30 5418 C 526.371 3.40467 -0.654452 0
M  V30 5419 C 525.432 3.90236 -1.78926 0
M  V30 5420 C 524.665 5.14662 -1.41277 0
M  V30 5421 O 524.888 5.69602 -0.301632 0
M  V30 5422 O 523.822 5.58761 -2.23763 0
M  V30 5423 H 527.648 2.28942 -1.99548 0
M  V30 5424 H 525.233 1.08197 -1.03023 0
M  V30 5425 H 527.115 4.19039 -0.445452 0
M  V30 5426 H 525.79 3.22636 0.262216 0
M  V30 5427 H 524.697 3.12735 -2.05299 0
M  V30 5428 H 526.03 4.1254 -2.68462 0
M  V30 5429 N 527.682 1.05563 1.17022 0
M  V30 5430 C 528.907 0.788437 1.91829 0
M  V30 5431 C 529.332 -0.650356 1.76499 0
M  V30 5432 O 528.69 -1.45229 1.08527 0
M  V30 5433 C 528.738 1.1786 3.40795 0
M  V30 5434 O 527.842 0.312965 4.11211 0
M  V30 5435 H 527.183 0.288794 0.597908 0
M  V30 5436 H 529.713 1.40948 1.48307 0
M  V30 5437 H 529.723 1.14697 3.91546 0
M  V30 5438 H 528.398 2.22666 3.51273 0
M  V30 5439 H 526.975 0.405515 3.70689 0
M  V30 5440 N 529.16 -1.33526 0.837174 0
M  V30 5441 C 530.408 -1.97446 0.431211 0
M  V30 5442 C 530.729 -1.6665 -1.01255 0
M  V30 5443 O 529.999 -0.964559 -1.70508 0
M  V30 5444 H 528.579 -0.73043 0.156463 0
M  V30 5445 H 531.241 -1.62918 1.06976 0
M  V30 5446 H 530.337 -3.07001 0.561877 0
M  V30 5447 N 530.638 -0.59345 -1.46 0
M  V30 5448 C 531.57 0.171569 -2.28557 0
M  V30 5449 C 532.583 0.845273 -1.39137 0
M  V30 5450 O 533.772 0.713033 -1.6364 0
M  V30 5451 C 530.872 1.26311 -3.14482 0
M  V30 5452 C 530.045 0.679258 -4.32094 0
M  V30 5453 C 529.104 1.65987 -4.99334 0
M  V30 5454 O 528.13 1.19171 -5.56585 0
M  V30 5455 N 529.332 2.99414 -4.97324 0
M  V30 5456 H 532.097 -0.536771 -2.94854 0
M  V30 5457 H 529.658 -0.431954 -1.56031 0
M  V30 5458 H 531.65 1.91863 -3.5633 0
M  V30 5459 H 530.22 1.87416 -2.50188 0
M  V30 5460 H 529.44 -0.153992 -3.93899 0
M  V30 5461 H 530.728 0.26916 -5.08088 0
M  V30 5462 H 530.126 3.40064 -4.52076 0
M  V30 5463 H 528.683 3.60426 -5.4308 0
M  V30 5464 O 532.155 1.54388 -0.473979 0
M  V30 5465 H 532.846 1.93634 0.0506067 0
M  V30 END ATOM
M  V30 BEGIN BOND
M  V30 END BOND
M  V30 END CTAB
M  END
$$$$
