drugbank_target|P03276 Penton protein (DB02643)
 OpenBabel12092119563D

  0  0  0     0  0            999 V3000
M  V30 BEGIN CTAB
M  V30 COUNTS 8775 8882 0 0 0
M  V30 BEGIN ATOM
M  V30 1 H -0.908 1.98254 -0.117106 0
M  V30 2 N 0 1.576 0 0
M  V30 3 C 0.933 2.03868 1.02534 0
M  V30 4 C 1.911 0.928543 1.3348 0
M  V30 5 O 3.095 1.19667 1.45644 0
M  V30 6 C 0.222 2.43627 2.35294 0
M  V30 7 C -0.732 3.65373 2.2001 0
M  V30 8 S 0.101 5.13292 1.52614 0
M  V30 9 C 1.257 5.56322 2.86805 0
M  V30 10 H 1.49 2.90518 0.631377 0
M  V30 11 H -0.977 1.52953 0.210867 0
M  V30 12 H 0.981 2.67203 3.11629 0
M  V30 13 H -0.358 1.57376 2.7183 0
M  V30 14 H -1.165 3.90944 3.18086 0
M  V30 15 H -1.563 3.418 1.51819 0
M  V30 16 H 0.729 5.58782 3.83104 0
M  V30 17 H 1.672 6.56266 2.65933 0
M  V30 18 H 2.08 4.83886 2.90714 0
M  V30 19 N 1.4781 -0.272755 1.55222 0
M  V30 20 C 2.4101 -1.35946 1.8453 0
M  V30 21 C 3.4231 -1.45525 0.729818 0
M  V30 22 O 4.6121 -1.47337 1.00767 0
M  V30 23 C 1.7121 -2.74069 1.99347 0
M  V30 24 C 0.8851 -2.87079 3.30007 0
M  V30 25 C -0.0559 -4.05879 3.34886 0
M  V30 26 O -1.0299 -3.96626 4.08261 0
M  V30 27 N 0.1721 -5.17857 2.62307 0
M  V30 28 H 2.9371 -1.11149 2.78327 0
M  V30 29 H 0.4981 -0.462869 1.55142 0
M  V30 30 H 2.4901 -3.51838 1.99981 0
M  V30 31 H 1.0601 -2.91688 1.12415 0
M  V30 32 H 0.2801 -1.96193 3.41909 0
M  V30 33 H 1.5681 -2.92701 4.16177 0
M  V30 34 H 0.9661 -5.28261 2.02377 0
M  V30 35 H -0.4769 -5.93855 2.68663 0
M  V30 36 N 2.9562 -1.48159 -0.537278 0
M  V30 37 C 4.3722 -1.34118 -0.865129 0
M  V30 38 C 4.5722 -0.346678 -1.98495 0
M  V30 39 O 3.6282 0.234715 -2.51407 0
M  V30 40 C 4.9412 -2.73963 -1.23954 0
M  V30 41 C 6.4892 -2.82397 -1.34984 0
M  V30 42 C 6.9642 -4.22928 -1.75772 0
M  V30 43 N 8.4552 -4.25566 -1.82887 0
M  V30 44 C 9.1902 -5.31235 -2.15817 0
M  V30 45 N 8.6862 -6.47189 -2.47222 0
M  V30 46 N 10.4792 -5.18624 -2.16761 0
M  V30 47 H 2.6302 -2.1144 0.201715 0
M  V30 48 H 4.8932 -0.947598 0.0275949 0
M  V30 49 H 4.5992 -3.48264 -0.490381 0
M  V30 50 H 4.4732 -3.0702 -2.19132 0
M  V30 51 H 6.8602 -2.08356 -2.08978 0
M  V30 52 H 6.9412 -2.5297 -0.379448 0
M  V30 53 H 6.5852 -4.97482 -1.02341 0
M  V30 54 H 6.5152 -4.49794 -2.73848 0
M  V30 55 H 9.0062 -3.41924 -1.60924 0
M  V30 56 H 9.3192 -7.23564 -2.71433 0
M  V30 57 H 7.6642 -6.50476 -2.44757 0
M  V30 58 H 10.8552 -4.27056 -1.91679 0
M  V30 59 H 11.0282 -6.01078 -2.42093 0
M  V30 60 N 4.4343 0.785586 -1.36625 0
M  V30 61 C 5.3973 1.87999 -1.31107 0
M  V30 62 C 6.3973 1.59316 -0.217959 0
M  V30 63 O 7.5873 1.67656 -0.472977 0
M  V30 64 C 4.7193 3.24861 -1.03334 0
M  V30 65 H 5.9123 1.94307 -2.2844 0
M  V30 66 H 3.4653 0.983813 -1.21453 0
M  V30 67 H 4.2003 3.24235 -0.0647432 0
M  V30 68 H 3.9853 3.4707 -1.82441 0
M  V30 69 H 5.4753 4.04929 -1.02088 0
M  V30 70 N 5.9124 1.20967 1.01018 0
M  V30 71 C 6.8754 0.965918 2.07853 0
M  V30 72 C 7.8754 -0.0610545 1.60684 0
M  V30 73 O 9.0654 0.175681 1.73312 0
M  V30 74 C 6.1974 0.455513 3.37843 0
M  V30 75 H 7.3904 1.91365 2.3091 0
M  V30 76 H 4.9434 1.02594 1.17916 0
M  V30 77 H 5.6784 -0.497381 3.20463 0
M  V30 78 H 5.4634 1.19622 3.73407 0
M  V30 79 H 6.9534 0.304667 4.16487 0
M  V30 80 N 7.3905 -1.2043 1.01659 0
M  V30 81 C 8.3235 -2.21924 0.531521 0
M  V30 82 C 9.3015 -1.57054 -0.421032 0
M  V30 83 O 10.4855 -1.85389 -0.341035 0
M  V30 84 C 7.6125 -3.37942 -0.226496 0
M  V30 85 C 6.6585 -4.21115 0.67561 0
M  V30 86 S 7.4915 -4.90674 2.14475 0
M  V30 87 C 8.6475 -6.10113 1.3969 0
M  V30 88 H 8.8805 -2.62725 1.3915 0
M  V30 89 H 6.4135 -1.30481 0.825479 0
M  V30 90 H 8.3715 -4.05196 -0.657738 0
M  V30 91 H 7.0325 -2.956 -1.06205 0
M  V30 92 H 6.2255 -5.03918 0.091108 0
M  V30 93 H 5.8275 -3.59115 1.04463 0
M  V30 94 H 8.1195 -6.7411 0.676897 0
M  V30 95 H 9.0625 -6.73022 2.20107 0
M  V30 96 H 9.4705 -5.57283 0.899786 0
M  V30 97 N 8.8686 -0.792821 -1.36206 0
M  V30 98 C 10.0986 -0.378275 -2.03107 0
M  V30 99 C 10.5066 1.01119 -1.59911 0
M  V30 100 O 9.8496 1.66052 -0.785658 0
M  V30 101 C 9.9116 -0.366535 -3.57627 0
M  V30 102 C 9.5756 -1.70416 -4.24037 0
M  V30 103 C 10.5726 -2.6602 -4.46687 0
M  V30 104 C 8.2576 -1.98439 -4.6144 0
M  V30 105 C 10.2516 -3.8784 -5.05825 0
M  V30 106 C 7.9386 -3.20525 -5.20295 0
M  V30 107 C 8.9366 -4.15044 -5.42427 0
M  V30 108 O 8.6246 -5.34978 -6.00045 0
M  V30 109 H 8.3566 -0.153543 -0.658332 0
M  V30 110 H 10.9106 -1.07383 -1.75094 0
M  V30 111 H 9.1406 0.385539 -3.84773 0
M  V30 112 H 10.8296 0.0238088 -4.05893 0
M  V30 113 H 11.5956 -2.45658 -4.18183 0
M  V30 114 H 7.4746 -1.25686 -4.43536 0
M  V30 115 H 11.0186 -4.61628 -5.23015 0
M  V30 116 H 6.9156 -3.40764 -5.48225 0
M  V30 117 H 7.6836 -5.36088 -6.18508 0
M  V30 118 N 10.3467 1.47872 -0.545128 0
M  V30 119 C 11.2567 2.33633 0.212746 0
M  V30 120 C 12.2727 1.4744 0.923983 0
M  V30 121 O 13.4487 1.80393 0.895572 0
M  V30 122 C 10.5137 3.23884 1.23693 0
M  V30 123 C 9.5747 4.25961 0.534417 0
M  V30 124 C 8.8077 5.11899 1.5098 0
M  V30 125 O 9.0307 5.00077 2.7437 0
M  V30 126 O 7.9647 5.92831 1.0409 0
M  V30 127 H 11.7907 2.99714 -0.490416 0
M  V30 128 H 9.3757 1.46235 -0.305871 0
M  V30 129 H 11.2577 3.79666 1.82843 0
M  V30 130 H 9.9327 2.60446 1.92222 0
M  V30 131 H 8.8397 3.73972 -0.0979679 0
M  V30 132 H 10.1727 4.92079 -0.109213 0
M  V30 133 N 11.8248 0.280983 1.55075 0
M  V30 134 C 12.7348 -0.61388 2.26426 0
M  V30 135 C 13.7508 -1.16521 1.29224 0
M  V30 136 O 14.9268 -1.19426 1.62171 0
M  V30 137 C 11.9918 -1.7788 2.9759 0
M  V30 138 C 11.0528 -1.26355 4.10284 0
M  V30 139 C 10.2858 -2.37295 4.78045 0
M  V30 140 O 10.5088 -3.56777 4.45047 0
M  V30 141 O 9.4428 -2.05119 5.65871 0
M  V30 142 H 13.2688 -0.0356932 3.03679 0
M  V30 143 H 10.8538 0.0481686 1.49322 0
M  V30 144 H 12.7358 -2.45791 3.42293 0
M  V30 145 H 11.4108 -2.34397 2.23249 0
M  V30 146 H 10.3178 -0.550735 3.70024 0
M  V30 147 H 11.6508 -0.744065 4.86543 0
M  V30 148 N 13.3029 -1.57598 0.00835791 0
M  V30 149 C 14.5509 -1.90551 -0.6734 0
M  V30 150 C 14.8719 -0.883301 -1.73847 0
M  V30 151 O 14.1419 0.0781442 -1.95744 0
M  V30 152 H 12.7219 -0.703312 -0.251717 0
M  V30 153 H 15.3839 -1.94833 0.0512592 0
M  V30 154 H 14.4799 -2.9056 -1.13935 0
M  V30 155 N 14.781 0.264519 -1.55364 0
M  V30 156 C 16.192 0.834936 -1.6699 0
M  V30 157 C 16.543 1.86718 -0.602552 0
M  V30 158 O 15.668 2.14899 0.254425 0
M  V30 159 C 16.263 1.5212 -3.02729 0
M  V30 160 C 14.822 2.03954 -3.16354 0
M  V30 161 C 13.969 0.884498 -2.62815 0
M  V30 162 H 16.92 0.0406869 -1.58648 0
M  V30 163 H 16.941 2.38853 -2.96191 0
M  V30 164 H 16.453 0.769668 -3.80392 0
M  V30 165 H 14.554 2.82041 -2.43482 0
M  V30 166 H 14.667 2.24902 -4.23032 0
M  V30 167 H 13.031 1.2802 -2.20188 0
M  V30 168 H 13.814 0.14634 -3.42988 0
M  V30 169 N 16.2591 1.48442 0.529413 0
M  V30 170 C 17.6701 1.5002 1.11134 0
M  V30 171 C 18.0211 0.27031 1.94329 0
M  V30 172 O 17.1461 -0.622507 2.07253 0
M  V30 173 C 17.7411 2.71834 2.02217 0
M  V30 174 C 16.3001 2.76283 2.55627 0
M  V30 175 C 15.4471 2.43542 1.326 0
M  V30 176 H 18.3981 1.5555 0.314641 0
M  V30 177 H 18.4191 2.50384 2.8651 0
M  V30 178 H 17.9311 3.61331 1.41639 0
M  V30 179 H 16.0321 1.90995 3.19924 0
M  V30 180 H 16.1451 3.77725 2.94721 0
M  V30 181 H 14.5091 1.94709 1.64196 0
M  V30 182 H 15.2921 3.3528 0.737734 0
M  V30 183 N 17.7372 -0.778329 1.37039 0
M  V30 184 C 19.1482 -1.35421 1.28523 0
M  V30 185 C 19.4992 -1.96075 -0.0700901 0
M  V30 186 O 18.6242 -1.93352 -0.971801 0
M  V30 187 C 19.2192 -2.46211 2.32735 0
M  V30 188 C 17.7782 -2.99585 2.27873 0
M  V30 189 C 16.9252 -1.72748 2.16918 0
M  V30 190 H 19.8762 -0.5791 1.47757 0
M  V30 191 H 19.8972 -3.2552 1.9702 0
M  V30 192 H 19.4092 -2.02036 3.31365 0
M  V30 193 H 17.5102 -3.48152 1.32745 0
M  V30 194 H 17.6232 -3.55646 3.21018 0
M  V30 195 H 15.9872 -1.95416 1.63354 0
M  V30 196 H 16.7702 -1.30686 3.17452 0
M  V30 197 N 19.2153 -1.21501 -1.00376 0
M  V30 198 C 20.4403 -1.05977 -1.78279 0
M  V30 199 C 20.8653 0.385994 -1.84097 0
M  V30 200 O 20.2233 1.27849 -1.28547 0
M  V30 201 C 20.2713 -1.66302 -3.19963 0
M  V30 202 O 19.3753 -0.909333 -4.0225 0
M  V30 203 H 18.7163 -0.372906 -0.549397 0
M  V30 204 H 21.2463 -1.6107 -1.26165 0
M  V30 205 H 21.2563 -1.70574 -3.70632 0
M  V30 206 H 19.9313 -2.71515 -3.15043 0
M  V30 207 H 18.5083 -0.941795 -3.60811 0
M  V30 208 N 20.6934 1.19889 -1.02296 0
M  V30 209 C 21.9234 1.93109 -0.734332 0
M  V30 210 C 22.3314 1.75377 0.709889 0
M  V30 211 O 21.6744 1.06912 1.49384 0
M  V30 212 C 21.7364 3.45362 -0.99827 0
M  V30 213 C 21.4004 3.8686 -2.43287 0
M  V30 214 C 22.3974 3.92102 -3.41397 0
M  V30 215 C 20.0824 4.18668 -2.77529 0
M  V30 216 C 22.0764 4.28573 -4.71809 0
M  V30 217 C 19.7634 4.54813 -4.08153 0
M  V30 218 C 20.7614 4.59739 -5.05103 0
M  V30 219 O 20.4494 4.95051 -6.33388 0
M  V30 220 H 20.1814 0.620409 -0.268456 0
M  V30 221 H 22.7354 1.53144 -1.3688 0
M  V30 222 H 20.9654 3.85482 -0.306645 0
M  V30 223 H 22.6544 3.99814 -0.700234 0
M  V30 224 H 23.4204 3.67685 -3.1628 0
M  V30 225 H 19.2994 4.14021 -2.0275 0
M  V30 226 H 22.8434 4.32333 -5.4748 0
M  V30 227 H 18.7404 4.78687 -4.33047 0
M  V30 228 H 19.5084 5.1302 -6.37772 0
M  V30 229 N 22.1715 0.800033 1.35784 0
M  V30 230 C 23.0815 0.207204 2.33683 0
M  V30 231 C 24.0975 -0.64631 1.61551 0
M  V30 232 O 25.2735 -0.559604 1.93469 0
M  V30 233 C 22.3385 -0.639659 3.40748 0
M  V30 234 C 21.3995 0.233585 4.28664 0
M  V30 235 C 20.6325 -0.572954 5.30616 0
M  V30 236 O 20.8555 -1.80816 5.40982 0
M  V30 237 O 19.7895 0.0327285 6.01891 0
M  V30 238 H 23.6155 1.01692 2.86169 0
M  V30 239 H 21.2005 0.561691 1.38439 0
M  V30 240 H 23.0825 -1.12223 4.06182 0
M  V30 241 H 21.7575 -1.42708 2.90544 0
M  V30 242 H 20.6645 0.763147 3.66233 0
M  V30 243 H 21.9975 0.984784 4.82248 0
M  V30 244 N 23.6496 -1.47581 0.552962 0
M  V30 245 C 24.8746 -2.07378 0.0300593 0
M  V30 246 C 25.2996 -1.40355 -1.25229 0
M  V30 247 O 24.6576 -0.477099 -1.7491 0
M  V30 248 C 24.7056 -3.60274 -0.153231 0
M  V30 249 O 23.8096 -3.94041 -1.21678 0
M  V30 250 H 23.1506 -0.662158 0.0494182 0
M  V30 251 H 25.6806 -1.89662 0.767434 0
M  V30 252 H 25.6906 -4.0633 -0.368761 0
M  V30 253 H 24.3656 -4.08455 0.783397 0
M  V30 254 H 22.9426 -3.59735 -0.982079 0
M  V30 255 N 25.1277 -0.289203 -1.54924 0
M  V30 256 C 26.3737 0.323998 -2.00195 0
M  V30 257 C 26.7067 1.54441 -1.17735 0
M  V30 258 O 25.9817 1.92875 -0.250878 0
M  V30 259 C 26.2647 0.692276 -3.53383 0
M  V30 260 C 26.1177 -0.536457 -4.46589 0
M  V30 261 C 27.4367 1.52335 -4.12895 0
M  V30 262 H 24.5557 0.116289 -0.727768 0
M  V30 263 H 27.1977 -0.398954 -1.85764 0
M  V30 264 H 25.3477 1.30822 -3.65811 0
M  V30 265 H 27.0197 -1.17499 -4.46085 0
M  V30 266 H 25.2627 -1.17192 -4.1767 0
M  V30 267 H 25.9337 -0.234806 -5.515 0
M  V30 268 H 28.4097 1.00302 -4.0383 0
M  V30 269 H 27.2857 1.74982 -5.20262 0
M  V30 270 H 27.5467 2.50886 -3.64018 0
M  V30 271 N 26.6058 1.57591 -0.0167156 0
M  V30 272 C 27.8518 1.91567 0.665582 0
M  V30 273 C 28.1848 0.892298 1.72487 0
M  V30 274 O 27.4598 -0.0867127 1.94307 0
M  V30 275 C 27.7428 3.36069 1.29342 0
M  V30 276 C 27.5958 4.49135 0.244541 0
M  V30 277 C 28.9148 3.803 2.21495 0
M  V30 278 H 26.0338 0.69666 0.240488 0
M  V30 279 H 28.6758 1.89866 -0.0714356 0
M  V30 280 H 26.8258 3.3765 1.92158 0
M  V30 281 H 28.4978 4.59689 -0.385228 0
M  V30 282 H 26.7408 4.3165 -0.431379 0
M  V30 283 H 27.4118 5.47242 0.723207 0
M  V30 284 H 29.8878 3.80377 1.68678 0
M  V30 285 H 28.7638 4.82127 2.62382 0
M  V30 286 H 29.0248 3.15104 3.101 0
M  V30 287 N 28.0839 -0.256276 1.55502 0
M  V30 288 C 29.3089 -1.00766 1.81276 0
M  V30 289 C 29.7339 -1.78524 0.59252 0
M  V30 290 O 29.0919 -1.75413 -0.45827 0
M  V30 291 C 29.1399 -1.92869 3.04687 0
M  V30 292 O 28.2439 -3.019 2.80945 0
M  V30 293 H 27.5849 -0.287224 0.598664 0
M  V30 294 H 30.1149 -0.280109 2.02674 0
M  V30 295 H 30.1249 -2.34511 3.33869 0
M  V30 296 H 28.7999 -1.35689 3.93143 0
M  V30 297 H 27.3769 -2.64454 2.62904 0
M  V30 298 N 29.562 -1.4872 -0.521534 0
M  V30 299 C 30.525 -1.63379 -1.60748 0
M  V30 300 C 31.525 -0.50661 -1.52611 0
M  V30 301 O 32.715 -0.772601 -1.5613 0
M  V30 302 C 29.847 -1.61192 -3.00383 0
M  V30 303 H 31.04 -2.60217 -1.49087 0
M  V30 304 H 28.593 -1.37444 -0.744235 0
M  V30 305 H 29.328 -0.65863 -3.17541 0
M  V30 306 H 29.113 -2.43032 -3.07698 0
M  V30 307 H 30.603 -1.7466 -3.7932 0
M  V30 308 N 31.0401 0.771051 -1.3745 0
M  V30 309 C 32.0031 1.86598 -1.33093 0
M  V30 310 C 33.0031 1.59076 -0.234845 0
M  V30 311 O 34.1931 1.67145 -0.490732 0
M  V30 312 C 31.3251 3.23747 -1.06773 0
M  V30 313 H 32.5181 1.91873 -2.30488 0
M  V30 314 H 30.0711 0.970876 -1.2249 0
M  V30 315 H 30.8061 3.24148 -0.099129 0
M  V30 316 H 30.5911 3.45115 -1.86112 0
M  V30 317 H 32.0811 4.03824 -1.06377 0
M  V30 318 N 32.5182 1.22032 0.997298 0
M  V30 319 C 33.9292 1.0397 1.55071 0
M  V30 320 C 34.2802 -0.398192 1.92117 0
M  V30 321 O 33.4052 -1.28254 1.74298 0
M  V30 322 C 34.0002 1.88109 2.81781 0
M  V30 323 C 32.5592 1.74357 3.33581 0
M  V30 324 C 31.7062 1.84846 2.06706 0
M  V30 325 H 34.6572 1.35941 0.818883 0
M  V30 326 H 34.6782 1.39589 3.53971 0
M  V30 327 H 34.1902 2.92754 2.54787 0
M  V30 328 H 32.2912 0.72427 3.65493 0
M  V30 329 H 32.4042 2.56772 4.04481 0
M  V30 330 H 30.7682 1.28238 2.20062 0
M  V30 331 H 31.5512 2.91014 1.82114 0
M  V30 332 N 33.9963 -1.19345 1.0293 0
M  V30 333 C 35.2423 -1.89318 0.727083 0
M  V30 334 C 35.5753 -1.79446 -0.742483 0
M  V30 335 O 34.8503 -1.1871 -1.54072 0
M  V30 336 C 35.1333 -3.40238 1.17942 0
M  V30 337 C 34.9863 -3.58979 2.71024 0
M  V30 338 C 36.3053 -4.33479 0.760548 0
M  V30 339 H 33.4243 -0.687475 0.265606 0
M  V30 340 H 36.0663 -1.40477 1.2793 0
M  V30 341 H 34.2163 -3.81964 0.709608 0
M  V30 342 H 35.8883 -3.26421 3.25955 0
M  V30 343 H 34.1313 -3.02018 3.11396 0
M  V30 344 H 34.8023 -4.64823 2.9773 0
M  V30 345 H 37.2783 -3.99469 1.16464 0
M  V30 346 H 36.1543 -5.37664 1.10493 0
M  V30 347 H 36.4153 -4.40813 -0.337063 0
M  V30 348 N 35.4744 -0.807222 -1.35358 0
M  V30 349 C 36.4374 -0.223665 -2.28106 0
M  V30 350 C 37.4374 0.589354 -1.4961 0
M  V30 351 O 38.6274 0.407745 -1.69361 0
M  V30 352 C 35.7594 0.688149 -3.33882 0
M  V30 353 H 36.9524 -1.04169 -2.81227 0
M  V30 354 H 34.5054 -0.577921 -1.45223 0
M  V30 355 H 35.2404 1.52984 -2.85948 0
M  V30 356 H 35.0254 0.10687 -3.91954 0
M  V30 357 H 36.5154 1.09075 -4.03104 0
M  V30 358 N 36.9525 1.47285 -0.560781 0
M  V30 359 C 37.9155 2.28535 0.174488 0
M  V30 360 C 38.9155 1.37153 0.839388 0
M  V30 361 O 40.1055 1.59748 0.694702 0
M  V30 362 C 37.2375 3.16934 1.25561 0
M  V30 363 H 38.4305 2.95012 -0.539262 0
M  V30 364 H 35.9835 1.53034 -0.317865 0
M  V30 365 H 36.7185 2.55157 2.00164 0
M  V30 366 H 36.5035 3.8419 0.783604 0
M  V30 367 H 37.9935 3.78143 1.77193 0
M  V30 368 N 38.4306 0.297415 1.54768 0
M  V30 369 C 39.3936 -0.567375 2.22066 0
M  V30 370 C 40.3936 -1.06409 1.20556 0
M  V30 371 O 41.5836 -0.960691 1.45315 0
M  V30 372 C 38.7156 -1.78517 2.90421 0
M  V30 373 H 39.9086 0.0205534 2.99893 0
M  V30 374 H 37.4616 0.0482163 1.56226 0
M  V30 375 H 38.1966 -2.41303 2.16664 0
M  V30 376 H 37.9816 -1.43669 3.64831 0
M  V30 377 H 39.4716 -2.39964 3.41771 0
M  V30 378 N 39.9087 -1.5758 0.0250728 0
M  V30 379 C 40.8387 -2.13007 -0.956575 0
M  V30 380 C 41.8197 -1.0452 -1.342 0
M  V30 381 O 43.0047 -1.32332 -1.42133 0
M  V30 382 C 40.1347 -2.65386 -2.24026 0
M  V30 383 C 39.0887 -3.78623 -1.99571 0
M  V30 384 C 38.4147 -4.17414 -3.3417 0
M  V30 385 C 39.7147 -5.04867 -1.33814 0
M  V30 386 H 41.4087 -2.9528 -0.494991 0
M  V30 387 H 38.9547 -1.42042 -0.236651 0
M  V30 388 H 40.9077 -3.02794 -2.93076 0
M  V30 389 H 39.6317 -1.80268 -2.72343 0
M  V30 390 H 38.2907 -3.41646 -1.32941 0
M  V30 391 H 37.9387 -3.29284 -3.80238 0
M  V30 392 H 37.6387 -4.93719 -3.18615 0
M  V30 393 H 39.1627 -4.57402 -4.04495 0
M  V30 394 H 40.5767 -5.39888 -1.92857 0
M  V30 395 H 38.9737 -5.86144 -1.28669 0
M  V30 396 H 40.0437 -4.83904 -0.310561 0
M  V30 397 N 41.3868 0.248026 -1.55636 0
M  V30 398 C 42.6348 0.974295 -1.77065 0
M  V30 399 C 42.9558 1.85897 -0.588849 0
M  V30 400 O 42.2258 1.91868 0.395407 0
M  V30 401 H 40.8058 0.362733 -0.653019 0
M  V30 402 H 43.4678 0.266244 -1.93073 0
M  V30 403 H 42.5638 1.59667 -2.68166 0
M  V30 404 N 42.8649 1.48995 0.513639 0
M  V30 405 C 44.0899 1.61792 1.29762 0
M  V30 406 C 44.5149 0.284475 1.85936 0
M  V30 407 O 43.8729 -0.746185 1.65232 0
M  V30 408 C 43.9209 2.67993 2.41272 0
M  V30 409 O 43.0249 2.26287 3.44772 0
M  V30 410 H 42.3659 0.541963 0.38363 0
M  V30 411 H 44.8959 1.95097 0.616307 0
M  V30 412 H 44.9059 2.89772 2.87221 0
M  V30 413 H 43.5809 3.64791 1.9975 0
M  V30 414 H 42.1579 2.14788 3.04829 0
M  V30 415 N 44.343 -0.763751 1.37857 0
M  V30 416 C 45.754 -1.3405 1.29952 0
M  V30 417 C 46.105 -1.96138 -0.0492898 0
M  V30 418 O 45.23 -1.94372 -0.951239 0
M  V30 419 C 45.825 -2.43729 2.35333 0
M  V30 420 C 44.384 -2.97151 2.31037 0
M  V30 421 C 43.531 -1.70438 2.18738 0
M  V30 422 H 46.482 -0.563396 1.48363 0
M  V30 423 H 46.503 -3.23412 2.00462 0
M  V30 424 H 46.015 -1.9851 3.33489 0
M  V30 425 H 44.116 -3.46724 1.3643 0
M  V30 426 H 44.229 -3.52221 3.24772 0
M  V30 427 H 42.593 -1.93673 1.65418 0
M  V30 428 H 43.376 -1.27312 3.18821 0
M  V30 429 N 45.8211 -1.22559 -0.990812 0
M  V30 430 C 47.0681 -1.05141 -1.73065 0
M  V30 431 C 47.3961 0.413191 -1.9006 0
M  V30 432 O 46.6511 1.32257 -1.44245 0
M  V30 433 C 46.9501 -1.71011 -3.13831 0
M  V30 434 C 46.6161 -3.20911 -3.16745 0
M  V30 435 C 45.2781 -3.61812 -3.17247 0
M  V30 436 C 47.6301 -4.16846 -3.12872 0
M  V30 437 C 44.9581 -4.97127 -3.1158 0
M  V30 438 C 47.3101 -5.5214 -3.08746 0
M  V30 439 C 45.9741 -5.92419 -3.07565 0
M  V30 440 H 45.2441 -0.384738 -0.633291 0
M  V30 441 H 47.8911 -1.5235 -1.16025 0
M  V30 442 H 46.1961 -1.16133 -3.74193 0
M  V30 443 H 47.8931 -1.55023 -3.69823 0
M  V30 444 H 44.4831 -2.88344 -3.17105 0
M  V30 445 H 48.6671 -3.86263 -3.11632 0
M  V30 446 H 43.9231 -5.27562 -3.09012 0
M  V30 447 H 48.0971 -6.26201 -3.04705 0
M  V30 448 H 45.7241 -6.97236 -3.02929 0
M  V30 449 N 47.2992 1.18797 -1.03562 0
M  V30 450 C 48.5762 1.84469 -0.650434 0
M  V30 451 C 48.9562 1.92319 0.870433 0
M  V30 452 O 48.3042 1.44528 1.76986 0
M  V30 453 C 48.5142 3.2306 -1.32036 0
M  V30 454 C 49.8622 3.9915 -1.44792 0
M  V30 455 O 50.8862 3.32481 -1.27806 0
M  V30 456 O 49.7452 5.18587 -1.72423 0
M  V30 457 H 46.8392 0.795251 -0.226946 0
M  V30 458 H 49.3852 1.26231 -1.13419 0
M  V30 459 H 48.1572 3.1222 -2.3587 0
M  V30 460 H 47.7802 3.88949 -0.8249 0
M  V30 461 N 48.7773 0.814389 1.34928 0
M  V30 462 C 49.7403 0.235759 2.27984 0
M  V30 463 C 50.7403 -0.581412 1.49921 0
M  V30 464 O 51.9303 -0.398758 1.69575 0
M  V30 465 C 49.0623 -0.670433 3.34242 0
M  V30 466 H 50.2553 1.05659 2.80671 0
M  V30 467 H 47.8083 0.585614 1.44915 0
M  V30 468 H 48.5433 -1.51466 2.86755 0
M  V30 469 H 48.3283 -0.0860822 3.92005 0
M  V30 470 H 49.8183 -1.06935 4.03676 0
M  V30 471 N 50.2554 -1.46986 0.568584 0
M  V30 472 C 51.6664 -1.86188 0.138219 0
M  V30 473 C 52.0174 -1.47388 -1.29504 0
M  V30 474 O 51.1424 -0.88219 -1.97602 0
M  V30 475 C 51.7374 -3.3792 0.244065 0
M  V30 476 C 50.2964 -3.76171 -0.131335 0
M  V30 477 C 49.4434 -2.71027 0.586465 0
M  V30 478 H 52.3944 -1.38342 0.777645 0
M  V30 479 H 52.4154 -3.76729 -0.534351 0
M  V30 480 H 51.9274 -3.66128 1.28731 0
M  V30 481 H 50.0284 -3.5358 -1.17526 0
M  V30 482 H 50.1414 -4.78523 0.235146 0
M  V30 483 H 48.5054 -2.54684 0.0282722 0
M  V30 484 H 49.2884 -3.02077 1.63109 0
M  V30 485 N 51.7335 -0.305618 -1.54608 0
M  V30 486 C 52.6635 0.561482 -2.26649 0
M  V30 487 C 53.6445 1.13415 -1.26772 0
M  V30 488 O 54.8295 1.16262 -1.55553 0
M  V30 489 C 51.9595 1.73122 -3.01075 0
M  V30 490 C 50.9135 1.2887 -4.08138 0
M  V30 491 C 50.2395 2.54396 -4.70305 0
M  V30 492 C 51.5395 0.416578 -5.20636 0
M  V30 493 H 53.2335 -0.0393902 -2.99374 0
M  V30 494 H 50.7795 -0.020385 -1.43986 0
M  V30 495 H 52.7325 2.34396 -3.50195 0
M  V30 496 H 51.4565 2.3584 -2.25936 0
M  V30 497 H 50.1155 0.698991 -3.59875 0
M  V30 498 H 49.7635 3.15439 -3.918 0
M  V30 499 H 49.4635 2.25486 -5.42614 0
M  V30 500 H 50.9875 3.16464 -5.2219 0
M  V30 501 H 52.4015 0.935116 -5.65622 0
M  V30 502 H 50.7985 0.221046 -5.99693 0
M  V30 503 H 51.8685 -0.557162 -4.81688 0
M  V30 504 N 53.2116 1.57565 -0.0334293 0
M  V30 505 C 54.4886 1.83282 0.683163 0
M  V30 506 C 54.8686 0.91823 1.90084 0
M  V30 507 O 54.2166 -0.025113 2.28486 0
M  V30 508 C 54.4266 3.32599 1.0573 0
M  V30 509 C 55.7746 3.99179 1.44711 0
M  V30 510 O 56.7986 3.3712 1.15015 0
M  V30 511 O 55.6576 5.08565 2.0006 0
M  V30 512 H 52.7516 0.755869 0.335546 0
M  V30 513 H 55.2976 1.69589 -0.0614402 0
M  V30 514 H 54.0696 3.90834 0.190828 0
M  V30 515 H 53.6926 3.51415 1.85993 0
M  V30 516 N 54.6897 -0.239769 1.55765 0
M  V30 517 C 56.1007 -0.808263 1.68297 0
M  V30 518 C 56.4517 -1.85736 0.632181 0
M  V30 519 O 55.5767 -2.15277 -0.220204 0
M  V30 520 C 56.1717 -1.47284 3.05111 0
M  V30 521 C 54.7307 -1.98895 3.19559 0
M  V30 522 C 53.8777 -0.842575 2.64189 0
M  V30 523 H 56.8287 -0.0154422 1.58692 0
M  V30 524 H 56.8497 -2.34111 2.99954 0
M  V30 525 H 56.3617 -0.709053 3.81568 0
M  V30 526 H 54.4627 -2.78132 2.47938 0
M  V30 527 H 54.5757 -2.18143 4.26556 0
M  V30 528 H 52.9397 -1.24501 2.22197 0
M  V30 529 H 53.7227 -0.0917552 3.43177 0
M  V30 530 N 56.1678 -1.49265 -0.50573 0
M  V30 531 C 57.5788 -1.51769 -1.08734 0
M  V30 532 C 57.9298 -0.301192 -1.93874 0
M  V30 533 O 57.0548 0.589456 -2.08217 0
M  V30 534 C 57.6498 -2.75017 -1.97867 0
M  V30 535 C 56.2088 -2.80314 -2.51199 0
M  V30 536 C 55.3558 -2.4562 -1.28709 0
M  V30 537 H 58.3068 -1.56031 -0.289855 0
M  V30 538 H 58.3278 -2.5491 -2.82491 0
M  V30 539 H 57.8398 -3.63539 -1.35873 0
M  V30 540 H 55.9408 -1.96061 -3.16845 0
M  V30 541 H 56.0538 -3.82366 -2.88675 0
M  V30 542 H 54.4178 -1.97297 -1.61078 0
M  V30 543 H 55.2008 -3.36411 -0.6843 0
M  V30 544 N 57.6459 0.756429 -1.3826 0
M  V30 545 C 58.8929 1.51547 -1.34312 0
M  V30 546 C 59.2209 1.94382 0.0677144 0
M  V30 547 O 58.4759 1.65514 1.04421 0
M  V30 548 C 58.7749 2.78313 -2.24224 0
M  V30 549 C 58.4409 2.54455 -3.72241 0
M  V30 550 C 57.1029 2.47657 -4.12576 0
M  V30 551 C 59.4549 2.3354 -4.65949 0
M  V30 552 C 56.7829 2.17956 -5.44713 0
M  V30 553 C 59.1349 2.05359 -5.9834 0
M  V30 554 C 57.7989 1.97016 -6.37762 0
M  V30 555 H 57.0689 0.55455 -0.491482 0
M  V30 556 H 59.7159 0.870039 -1.70595 0
M  V30 557 H 58.0209 3.47492 -1.80987 0
M  V30 558 H 59.7179 3.36259 -2.18474 0
M  V30 559 H 56.3079 2.60616 -3.40261 0
M  V30 560 H 60.4919 2.37772 -4.35635 0
M  V30 561 H 55.7479 2.10003 -5.74203 0
M  V30 562 H 59.9219 1.88179 -6.70494 0
M  V30 563 H 57.5489 1.73766 -7.40074 0
M  V30 564 N 59.124 1.23083 0.984299 0
M  V30 565 C 60.37 1.06214 1.72761 0
M  V30 566 C 60.703 -0.400584 1.90024 0
M  V30 567 O 59.978 -1.29672 1.44967 0
M  V30 568 C 60.261 1.78375 3.12817 0
M  V30 569 C 60.114 3.32296 3.03149 0
M  V30 570 C 61.433 1.54309 4.12161 0
M  V30 571 H 58.552 0.387251 0.627061 0
M  V30 572 H 61.194 1.51536 1.14616 0
M  V30 573 H 59.344 1.39848 3.62457 0
M  V30 574 H 61.016 3.8032 2.61064 0
M  V30 575 H 59.259 3.6153 2.39747 0
M  V30 576 H 59.93 3.77972 4.02295 0
M  V30 577 H 62.406 1.87791 3.71314 0
M  V30 578 H 61.282 2.07281 5.08258 0
M  V30 579 H 61.543 0.477572 4.39513 0
M  V30 580 N 60.6021 -1.18246 1.0419 0
M  V30 581 C 62.0131 -1.69914 0.773698 0
M  V30 582 C 62.3641 -1.83085 -0.705297 0
M  V30 583 O 61.4891 -1.51123 -1.5489 0
M  V30 584 C 62.0841 -3.08619 1.39784 0
M  V30 585 C 60.6431 -3.57494 1.17792 0
M  V30 586 C 59.7901 -2.34013 1.48773 0
M  V30 587 H 62.7411 -1.02904 1.20816 0
M  V30 588 H 62.7621 -3.71958 0.801714 0
M  V30 589 H 62.2741 -2.99001 2.47426 0
M  V30 590 H 60.3751 -3.72406 0.120295 0
M  V30 591 H 60.4881 -4.40852 1.87581 0
M  V30 592 H 58.8521 -2.37986 0.907463 0
M  V30 593 H 59.6351 -2.27013 2.57527 0
M  V30 594 N 62.0802 -0.821533 -1.34494 0
M  V30 595 C 63.4912 -0.467956 -1.8074 0
M  V30 596 C 63.8422 1.01151 -1.68116 0
M  V30 597 O 62.9672 1.78707 -1.22036 0
M  V30 598 C 63.5622 -0.842627 -3.28154 0
M  V30 599 C 62.1212 -0.541439 -3.72485 0
M  V30 600 C 61.2682 -1.06028 -2.56229 0
M  V30 601 H 64.2192 -1.01183 -1.22261 0
M  V30 602 H 64.2402 -0.145876 -3.8022 0
M  V30 603 H 63.7522 -1.91945 -3.37311 0
M  V30 604 H 61.8532 0.526034 -3.68868 0
M  V30 605 H 61.9662 -1.08453 -4.66663 0
M  V30 606 H 60.3302 -0.481892 -2.501 0
M  V30 607 H 61.1132 -2.14352 -2.68157 0
M  V30 608 N 63.5583 1.46682 -0.576371 0
M  V30 609 C 64.9743 1.57822 -0.237562 0
M  V30 610 C 65.1743 1.57237 1.26011 0
M  V30 611 O 64.2303 1.48596 2.04146 0
M  V30 612 C 65.5433 2.87499 -0.881168 0
M  V30 613 C 67.0913 3.01119 -0.85417 0
M  V30 614 C 67.5663 4.33524 -1.4772 0
M  V30 615 N 69.0573 4.40207 -1.44125 0
M  V30 616 C 69.7923 5.4126 -1.89276 0
M  V30 617 N 69.2883 6.49021 -2.42371 0
M  V30 618 N 71.0813 5.32422 -1.80231 0
M  V30 619 H 63.2323 1.45306 -1.54919 0
M  V30 620 H 65.4953 0.692733 -0.647167 0
M  V30 621 H 65.2013 2.9372 -1.93447 0
M  V30 622 H 65.0753 3.75224 -0.385592 0
M  V30 623 H 67.4623 2.94485 0.190491 0
M  V30 624 H 67.5433 2.14887 -1.3877 0
M  V30 625 H 67.1873 4.40916 -2.52103 0
M  V30 626 H 67.1173 5.1852 -0.918947 0
M  V30 627 H 69.6083 3.62931 -1.05307 0
M  V30 628 H 69.9213 7.2233 -2.74698 0
M  V30 629 H 68.2663 6.49858 -2.46393 0
M  V30 630 H 71.4573 4.47137 -1.38514 0
M  V30 631 H 71.6303 6.11034 -2.15735 0
M  V30 632 N 65.0364 0.313813 1.54444 0
M  V30 633 C 66.2664 -0.293491 2.04505 0
M  V30 634 C 66.6744 -1.47086 1.19005 0
M  V30 635 O 66.0174 -1.82481 0.211257 0
M  V30 636 C 66.0794 -0.800455 3.50475 0
M  V30 637 C 65.7434 0.253322 4.56297 0
M  V30 638 C 66.7404 1.08612 5.08428 0
M  V30 639 C 64.4254 0.398708 5.00715 0
M  V30 640 C 66.4194 2.05013 6.0353 0
M  V30 641 C 64.1064 1.36614 5.95634 0
M  V30 642 C 65.1044 2.19033 6.46926 0
M  V30 643 O 64.7924 3.14134 7.39983 0
M  V30 644 H 64.5244 -0.0658325 0.672787 0
M  V30 645 H 67.0784 0.455177 2.00293 0
M  V30 646 H 65.3084 -1.59987 3.52053 0
M  V30 647 H 66.9974 -1.32504 3.83663 0
M  V30 648 H 67.7634 0.984736 4.74898 0
M  V30 649 H 63.6424 -0.23289 4.60411 0
M  V30 650 H 67.1864 2.69382 6.4349 0
M  V30 651 H 63.0834 1.4682 6.28581 0
M  V30 652 H 63.8514 3.0926 7.57826 0
M  V30 653 N 66.5145 -1.57545 0.0417849 0
M  V30 654 C 67.4445 -2.14009 -0.933929 0
M  V30 655 C 68.4255 -1.05938 -1.33083 0
M  V30 656 O 69.6105 -1.33833 -1.40721 0
M  V30 657 C 66.7405 -2.67747 -2.21199 0
M  V30 658 C 65.6945 -3.80718 -1.95544 0
M  V30 659 C 65.0205 -4.20935 -3.29724 0
M  V30 660 C 66.3205 -5.06258 -1.28452 0
M  V30 661 H 68.0145 -2.95788 -0.463645 0
M  V30 662 H 65.5605 -1.42285 -0.221573 0
M  V30 663 H 67.5135 -3.05886 -2.89848 0
M  V30 664 H 66.2375 -1.83147 -2.70416 0
M  V30 665 H 64.8965 -3.43037 -1.2931 0
M  V30 666 H 64.5445 -3.33298 -3.76724 0
M  V30 667 H 64.2445 -4.9707 -3.13361 0
M  V30 668 H 65.7685 -4.61666 -3.9962 0
M  V30 669 H 67.1825 -5.41903 -1.8712 0
M  V30 670 H 65.5795 -5.87475 -1.22445 0
M  V30 671 H 66.6495 -4.84207 -0.259219 0
M  V30 672 N 67.9926 0.231505 -1.5589 0
M  V30 673 C 69.4086 0.580748 -1.48659 0
M  V30 674 C 69.6086 1.87617 -0.73498 0
M  V30 675 O 68.6646 2.51046 -0.270586 0
M  V30 676 C 69.9776 0.669202 -2.93159 0
M  V30 677 C 71.5256 0.760499 -3.03621 0
M  V30 678 C 72.0006 0.880383 -4.49459 0
M  V30 679 N 73.4916 0.944861 -4.53461 0
M  V30 680 C 74.2266 1.05716 -5.63571 0
M  V30 681 N 73.7226 1.13403 -6.83456 0
M  V30 682 N 75.5156 1.09152 -5.514 0
M  V30 683 H 67.6666 -0.618695 -2.03189 0
M  V30 684 H 69.9296 -0.215728 -0.923128 0
M  V30 685 H 69.6356 -0.212904 -3.51055 0
M  V30 686 H 69.5096 1.5361 -3.44505 0
M  V30 687 H 71.8966 1.63305 -2.45796 0
M  V30 688 H 71.9776 -0.131864 -2.5546 0
M  V30 689 H 71.6216 0.0123284 -5.07899 0
M  V30 690 H 71.5516 1.78802 -4.95316 0
M  V30 691 H 74.0426 0.896176 -3.6712 0
M  V30 692 H 74.3556 1.21921 -7.63122 0
M  V30 693 H 72.7006 1.10333 -6.86186 0
M  V30 694 H 75.8916 1.02805 -4.56671 0
M  V30 695 H 76.0646 1.17558 -6.37247 0
M  V30 696 N 69.4707 1.49531 0.497807 0
M  V30 697 C 70.8817 1.52344 1.07927 0
M  V30 698 C 71.2327 0.311469 1.93712 0
M  V30 699 O 70.3577 -0.578405 2.08527 0
M  V30 700 C 70.9527 2.76062 1.96405 0
M  V30 701 C 69.5117 2.81643 2.49709 0
M  V30 702 C 68.6587 2.46299 1.27404 0
M  V30 703 H 71.6097 1.56182 0.281576 0
M  V30 704 H 71.6307 2.56405 2.81135 0
M  V30 705 H 71.1427 3.64254 1.33943 0
M  V30 706 H 69.2437 1.97739 3.15801 0
M  V30 707 H 69.3567 3.83891 2.86643 0
M  V30 708 H 67.7207 1.98148 1.60029 0
M  V30 709 H 68.5037 3.36769 0.66645 0
M  V30 710 N 70.9488 -0.749086 1.3866 0
M  V30 711 C 72.1768 -1.53834 1.38358 0
M  V30 712 C 72.5918 -1.88783 -0.0255219 0
M  V30 713 O 71.9488 -1.53101 -0.993292 0
M  V30 714 C 71.9998 -2.83468 2.2434 0
M  V30 715 O 71.7208 -2.50008 3.5976 0
M  V30 716 C 73.2218 -3.7758 2.32267 0
M  V30 717 H 70.4418 -0.47585 0.473083 0
M  V30 718 H 72.9858 -0.926726 1.82297 0
M  V30 719 H 71.1408 -3.40995 1.83851 0
M  V30 720 H 71.5548 -3.33182 4.05081 0
M  V30 721 H 73.0288 -4.65478 2.96706 0
M  V30 722 H 73.5058 -4.18334 1.33765 0
M  V30 723 H 74.1118 -3.25976 2.73166 0
M  V30 724 N 72.4269 -1.23603 -0.977757 0
M  V30 725 C 73.6749 -1.06759 -1.71601 0
M  V30 726 C 73.9959 0.395929 -1.90938 0
M  V30 727 O 73.2659 1.28356 -1.47992 0
M  V30 728 H 71.8459 -0.392062 -0.635843 0
M  V30 729 H 74.5079 -1.55362 -1.1768 0
M  V30 730 H 73.6039 -1.55763 -2.70452 0
M  V30 731 N 73.905 1.17692 -1.04816 0
M  V30 732 C 75.153 1.87488 -0.754497 0
M  V30 733 C 75.474 1.81205 0.720407 0
M  V30 734 O 74.744 1.23544 1.52032 0
M  V30 735 H 73.324 0.694101 -0.276102 0
M  V30 736 H 75.986 1.42793 -1.32651 0
M  V30 737 H 75.082 2.93328 -1.06606 0
M  V30 738 N 75.3831 0.828654 1.34056 0
M  V30 739 C 76.7991 0.515135 1.51058 0
M  V30 740 C 76.9991 -0.959581 1.77184 0
M  V30 741 O 76.0551 -1.74382 1.82612 0
M  V30 742 C 77.3681 1.37963 2.67183 0
M  V30 743 C 78.9161 1.37735 2.81066 0
M  V30 744 C 79.3911 2.22645 4.00241 0
M  V30 745 N 80.8821 2.203 4.07458 0
M  V30 746 C 81.6171 2.82744 4.98842 0
M  V30 747 N 81.1131 3.54201 5.9541 0
M  V30 748 N 82.9061 2.72268 4.91759 0
M  V30 749 H 75.0571 1.78343 1.15358 0
M  V30 750 H 77.3201 0.760304 0.566252 0
M  V30 751 H 77.0261 2.42714 2.54525 0
M  V30 752 H 76.9001 1.0484 3.62338 0
M  V30 753 H 79.2871 0.337593 2.93163 0
M  V30 754 H 79.3681 1.74859 1.86703 0
M  V30 755 H 79.0121 3.26674 3.88905 0
M  V30 756 H 78.9421 1.82869 4.93829 0
M  V30 757 H 81.4331 1.68327 3.38341 0
M  V30 758 H 81.7461 3.9908 6.61782 0
M  V30 759 H 80.0911 3.58308 5.95517 0
M  V30 760 H 83.2821 2.16014 4.15278 0
M  V30 761 H 83.4551 3.21219 5.62781 0
M  V30 762 N 76.8612 -1.46375 0.584142 0
M  V30 763 C 77.8092 -2.32042 -0.161047 0
M  V30 764 C 78.8032 -1.44569 -0.882966 0
M  V30 765 O 80.0092 -1.61186 -0.801191 0
M  V30 766 H 76.3842 -0.748659 -0.0708033 0
M  V30 767 H 78.3552 -2.92704 0.580269 0
M  V30 768 C 77.1042 -3.27762 -1.1605 0
M  V30 769 H 76.4272 -3.95051 -0.614419 0
M  V30 770 H 77.8672 -3.90481 -1.65228 0
M  V30 771 C 76.3262 -2.53218 -2.22221 0
M  V30 772 O 76.8562 -2.29628 -3.29597 0
M  V30 773 N 75.0622 -2.13756 -1.96868 0
M  V30 774 H 74.6092 -2.33142 -1.09557 0
M  V30 775 H 74.5672 -1.642 -2.68115 0
M  V30 776 N 78.3393 -0.321999 -1.54275 0
M  V30 777 C 79.5643 0.285791 -2.05422 0
M  V30 778 C 79.9893 1.45124 -1.19669 0
M  V30 779 O 79.3473 1.80132 -0.205441 0
M  V30 780 C 79.3953 0.69956 -3.53749 0
M  V30 781 O 78.4993 1.8021 -3.70942 0
M  V30 782 H 77.8403 0.0518962 -0.661969 0
M  V30 783 H 80.3703 -0.469954 -1.9913 0
M  V30 784 H 80.3803 0.982649 -3.9599 0
M  V30 785 H 79.0553 -0.152864 -4.15619 0
M  V30 786 H 77.6323 1.51794 -3.40607 0
M  V30 787 N 79.8174 1.5752 -0.0501392 0
M  V30 788 C 81.0664 1.91827 0.623328 0
M  V30 789 C 81.3794 0.930222 1.72065 0
M  V30 790 O 82.5854 1.1653 2.4522 0
M  V30 791 C 81.0414 3.40692 1.16003 0
M  V30 792 C 80.6494 4.479 0.0948811 0
M  V30 793 C 82.3934 3.84034 1.80881 0
M  V30 794 C 80.3004 5.87879 0.644411 0
M  V30 795 H 79.2304 0.715918 0.236596 0
M  V30 796 H 81.8814 1.83115 -0.118861 0
M  V30 797 H 80.2634 3.44405 1.9545 0
M  V30 798 H 81.4374 4.55775 -0.678675 0
M  V30 799 H 79.7524 4.13892 -0.45637 0
M  V30 800 H 82.3494 4.85984 2.22988 0
M  V30 801 H 82.6924 3.20225 2.6601 0
M  V30 802 H 83.2254 3.82833 1.0809 0
M  V30 803 H 79.9644 6.55282 -0.169229 0
M  V30 804 H 79.4844 5.83567 1.38598 0
M  V30 805 H 81.1634 6.37098 1.12763 0
M  V30 806 N 81.2955 -0.223234 1.56011 0
M  V30 807 C 82.7115 -0.572856 1.48965 0
M  V30 808 C 82.9115 -1.87225 0.74492 0
M  V30 809 O 81.9675 -2.50899 0.283896 0
M  V30 810 C 83.2805 -0.653646 2.9351 0
M  V30 811 C 84.8285 -0.744386 3.0402 0
M  V30 812 C 85.3035 -0.856535 4.49919 0
M  V30 813 N 86.7945 -0.9208 4.53955 0
M  V30 814 C 87.5295 -1.02726 5.64123 0
M  V30 815 N 87.0255 -1.09777 6.84047 0
M  V30 816 N 88.8185 -1.06226 5.51971 0
M  V30 817 H 80.9695 0.629462 2.02858 0
M  V30 818 H 83.2325 0.220621 0.921971 0
M  V30 819 H 82.9385 0.231518 3.50937 0
M  V30 820 H 82.8125 -1.51781 3.45315 0
M  V30 821 H 85.1995 -1.61999 2.46658 0
M  V30 822 H 85.2805 0.14541 2.55386 0
M  V30 823 H 84.9245 0.0146069 5.07898 0
M  V30 824 H 84.8545 -1.76172 4.96257 0
M  V30 825 H 87.3455 -0.876694 3.6759 0
M  V30 826 H 87.6585 -1.17872 7.63758 0
M  V30 827 H 86.0035 -1.06693 6.86762 0
M  V30 828 H 89.1945 -1.00382 4.5721 0
M  V30 829 H 89.3675 -1.14177 6.37862 0
M  V30 830 N 82.7736 -1.49793 -0.48987 0
M  V30 831 C 84.0036 -1.6333 -1.26518 0
M  V30 832 C 84.4116 -0.308392 -1.8667 0
M  V30 833 O 83.7546 0.717512 -1.69108 0
M  V30 834 C 83.8166 -2.6522 -2.4269 0
M  V30 835 C 83.4806 -4.09279 -2.03321 0
M  V30 836 C 84.4776 -4.95738 -1.56652 0
M  V30 837 C 82.1626 -4.55082 -2.12616 0
M  V30 838 C 84.1566 -6.26041 -1.19795 0
M  V30 839 C 81.8436 -5.85396 -1.75371 0
M  V30 840 C 82.8416 -6.707 -1.29036 0
M  V30 841 O 82.5296 -7.98584 -0.92299 0
M  V30 842 H 82.2616 -0.552502 -0.389509 0
M  V30 843 H 84.8156 -1.96642 -0.593381 0
M  V30 844 H 83.0456 -2.27112 -3.12981 0
M  V30 845 H 84.7346 -2.68171 -3.04695 0
M  V30 846 H 85.5006 -4.61575 -1.48908 0
M  V30 847 H 81.3796 -3.88844 -2.47631 0
M  V30 848 H 84.9236 -6.92578 -0.835582 0
M  V30 849 H 80.8206 -6.19085 -1.82768 0
M  V30 850 H 81.5886 -8.11692 -1.05349 0
M  V30 851 N 84.2517 0.741722 -1.39055 0
M  V30 852 C 85.4767 1.53607 -1.39354 0
M  V30 853 C 85.9017 1.88096 0.0116905 0
M  V30 854 O 85.2597 1.5143 0.996924 0
M  V30 855 C 85.3077 2.80441 -2.26682 0
M  V30 856 O 84.4117 3.76088 -1.69208 0
M  V30 857 H 83.7527 0.464142 -0.474835 0
M  V30 858 H 86.2827 0.915665 -1.82967 0
M  V30 859 H 86.2927 3.29246 -2.40959 0
M  V30 860 H 84.9677 2.5467 -3.2881 0
M  V30 861 H 83.5447 3.34833 -1.64138 0
M  V30 862 N 85.7298 1.2412 0.971189 0
M  V30 863 C 86.6398 1.04747 2.09917 0
M  V30 864 C 87.6558 -0.0107162 1.73997 0
M  V30 865 O 88.8318 0.186714 2.00533 0
M  V30 866 C 85.8968 0.650828 3.40537 0
M  V30 867 C 84.9578 1.7851 3.90426 0
M  V30 868 C 84.1908 1.40729 5.14812 0
M  V30 869 O 84.4138 0.29557 5.69634 0
M  V30 870 O 83.3478 2.23168 5.58999 0
M  V30 871 H 87.1738 1.99304 2.29154 0
M  V30 872 H 84.7588 1.02908 1.08307 0
M  V30 873 H 86.6408 0.440992 4.19086 0
M  V30 874 H 85.3158 -0.265649 3.22608 0
M  V30 875 H 84.2228 2.04966 3.12953 0
M  V30 876 H 85.5558 2.68023 4.12825 0
M  V30 877 N 87.2079 -1.17134 1.05439 0
M  V30 878 C 88.1379 -2.2342 0.678649 0
M  V30 879 C 89.1189 -1.66971 -0.32476 0
M  V30 880 O 90.3039 -1.93149 -0.201802 0
M  V30 881 C 87.4339 -3.47256 0.0552099 0
M  V30 882 C 86.3879 -4.16543 0.98365 0
M  V30 883 C 85.7139 -5.34231 0.223961 0
M  V30 884 C 87.0139 -4.68495 2.3089 0
M  V30 885 H 88.7079 -2.55105 1.56722 0
M  V30 886 H 86.2539 -1.2262 0.754998 0
M  V30 887 H 88.2069 -4.20828 -0.21946 0
M  V30 888 H 86.9309 -3.14846 -0.868319 0
M  V30 889 H 85.5899 -3.44887 1.24293 0
M  V30 890 H 85.2379 -4.98071 -0.702412 0
M  V30 891 H 84.9379 -5.81527 0.842627 0
M  V30 892 H 86.4619 -6.10585 -0.0433671 0
M  V30 893 H 87.8759 -5.33691 2.09396 0
M  V30 894 H 86.2729 -5.26379 2.88176 0
M  V30 895 H 87.3429 -3.85169 2.94572 0
M  V30 896 N 88.686 -0.835752 -1.33615 0
M  V30 897 C 89.649 -0.272 -2.2758 0
M  V30 898 C 90.649 0.557487 -1.50827 0
M  V30 899 O 91.839 0.37173 -1.70188 0
M  V30 900 C 88.971 0.617173 -3.35267 0
M  V30 901 H 90.164 -1.10111 -2.78954 0
M  V30 902 H 87.717 -0.608594 -1.43965 0
M  V30 903 H 88.452 1.46884 -2.89129 0
M  V30 904 H 88.237 0.0237066 -3.92093 0
M  V30 905 H 89.727 1.005 -4.05326 0
M  V30 906 N 90.1641 1.46063 -0.591896 0
M  V30 907 C 91.5751 1.85944 -0.167822 0
M  V30 908 C 91.9261 1.49429 1.27143 0
M  V30 909 O 91.0511 0.913515 1.96173 0
M  V30 910 C 91.6461 3.37489 -0.297794 0
M  V30 911 C 90.2051 3.76332 0.0714732 0
M  V30 912 C 89.3521 2.7006 -0.629509 0
M  V30 913 H 92.3031 1.37087 -0.799555 0
M  V30 914 H 92.3241 3.77532 0.474349 0
M  V30 915 H 91.8361 3.64034 -1.3454 0
M  V30 916 H 89.9371 3.55405 1.11886 0
M  V30 917 H 90.0501 4.78088 -0.311245 0
M  V30 918 H 88.4141 2.54607 -0.0687867 0
M  V30 919 H 89.1971 2.99444 -1.67894 0
M  V30 920 N 91.6422 0.330177 1.54103 0
M  V30 921 C 92.5722 -0.525353 2.27513 0
M  V30 922 C 93.5532 -1.11383 1.2856 0
M  V30 923 O 94.7382 -1.13773 1.57383 0
M  V30 924 C 91.8682 -1.6831 3.03791 0
M  V30 925 C 90.8222 -1.2236 4.10137 0
M  V30 926 C 90.1482 -2.46882 4.74293 0
M  V30 927 C 91.4482 -0.333697 5.21233 0
M  V30 928 H 93.1422 0.087013 2.99274 0
M  V30 929 H 90.6882 0.0432893 1.43935 0
M  V30 930 H 92.6412 -2.28795 3.5388 0
M  V30 931 H 91.3652 -2.32216 2.29659 0
M  V30 932 H 90.0242 -0.64165 3.60941 0
M  V30 933 H 89.6722 -3.09165 3.96769 0
M  V30 934 H 89.3722 -2.16825 5.46133 0
M  V30 935 H 90.8962 -3.08117 5.27159 0
M  V30 936 H 92.3102 -0.845013 5.67038 0
M  V30 937 H 90.7072 -0.125612 5.99969 0
M  V30 938 H 91.7772 0.633724 4.80741 0
M  V30 939 N 93.1203 -1.57491 0.0584922 0
M  V30 940 C 94.3673 -1.92978 -0.613648 0
M  V30 941 C 94.6953 -0.937461 -1.70417 0
M  V30 942 O 93.9503 0.049078 -1.95638 0
M  V30 943 C 94.2493 -3.3513 -1.24188 0
M  V30 944 C 93.9153 -4.50037 -0.278826 0
M  V30 945 C 92.5773 -4.81198 -0.0138447 0
M  V30 946 C 94.9293 -5.19807 0.380777 0
M  V30 947 C 92.2573 -5.79473 0.918052 0
M  V30 948 C 94.6093 -6.19079 1.30091 0
M  V30 949 C 93.2733 -6.48665 1.57449 0
M  V30 950 H 92.5433 -0.706157 -0.22455 0
M  V30 951 H 95.1903 -1.91082 0.126533 0
M  V30 952 H 93.4953 -3.33429 -2.05749 0
M  V30 953 H 95.1923 -3.59871 -1.769 0
M  V30 954 H 91.7823 -4.25726 -0.495539 0
M  V30 955 H 95.9663 -4.95939 0.189158 0
M  V30 956 H 91.2223 -6.00727 1.1374 0
M  V30 957 H 95.3963 -6.7225 1.81804 0
M  V30 958 H 93.0233 -7.24628 2.29822 0
M  V30 959 N 94.5984 0.214957 -1.56127 0
M  V30 960 C 95.8754 0.963093 -1.70247 0
M  V30 961 C 96.2554 2.02166 -0.60764 0
M  V30 962 O 95.6034 2.25244 0.384385 0
M  V30 963 C 95.8134 1.56756 -3.11815 0
M  V30 964 C 97.1614 2.0573 -3.7143 0
M  V30 965 O 98.1854 1.66637 -3.14818 0
M  V30 966 O 97.0444 2.77603 -4.70743 0
M  V30 967 H 94.1384 0.450321 -0.693643 0
M  V30 968 H 96.6844 0.206219 -1.68442 0
M  V30 969 H 95.4564 0.803533 -3.82961 0
M  V30 970 H 95.0794 2.3898 -3.17765 0
M  V30 971 N 96.0765 1.50051 0.48192 0
M  V30 972 C 97.3045 1.64237 1.25832 0
M  V30 973 C 97.7195 0.321336 1.86045 0
M  V30 974 O 97.0765 -0.695478 1.68729 0
M  V30 975 C 97.1275 2.72548 2.37487 0
M  V30 976 O 96.8485 3.99529 1.79745 0
M  V30 977 C 98.3495 2.9761 3.28547 0
M  V30 978 H 95.5695 0.55237 0.380957 0
M  V30 979 H 98.1135 1.96207 0.576467 0
M  V30 980 H 96.2685 2.43303 3.01467 0
M  V30 981 H 96.6825 4.59342 2.5319 0
M  V30 982 H 98.1565 3.77084 4.03127 0
M  V30 983 H 98.6335 2.0826 3.86684 0
M  V30 984 H 99.2395 3.28345 2.70314 0
M  V30 985 N 97.5546 -0.734337 1.39446 0
M  V30 986 C 98.7826 -1.52358 1.39981 0
M  V30 987 C 99.1976 -1.88799 -0.0054975 0
M  V30 988 O 98.5546 -1.54146 -0.976998 0
M  V30 989 C 98.6056 -2.81072 2.27333 0
M  V30 990 O 98.3266 -2.46178 3.62392 0
M  V30 991 C 99.8276 -3.75096 2.36259 0
M  V30 992 H 97.0476 -0.470806 0.478103 0
M  V30 993 H 99.5916 -0.907339 1.83269 0
M  V30 994 H 97.7466 -3.39026 1.87457 0
M  V30 995 H 98.1606 -3.28866 4.08592 0
M  V30 996 H 99.6346 -4.62305 3.01626 0
M  V30 997 H 100.112 -4.16892 1.38194 0
M  V30 998 H 100.718 -3.23061 2.76608 0
M  V30 999 N 99.0327 -1.24633 -0.964593 0
M  V30 1000 C 100.449 -1.01239 -1.2338 0
M  V30 1001 C 100.649 0.2769 -1.99588 0
M  V30 1002 O 99.7047 0.992241 -2.32187 0
M  V30 1003 C 101.018 -2.22937 -2.01791 0
M  V30 1004 C 102.566 -2.27594 -2.14872 0
M  V30 1005 C 103.041 -3.48921 -2.96678 0
M  V30 1006 N 104.532 -3.49257 -3.04259 0
M  V30 1007 C 105.267 -4.39795 -3.67924 0
M  V30 1008 N 104.763 -5.40591 -4.33281 0
M  V30 1009 N 106.556 -4.275 -3.64966 0
M  V30 1010 H 98.7067 -2.0748 -0.454502 0
M  V30 1011 H 100.97 -0.910647 -0.26349 0
M  V30 1012 H 100.676 -3.16587 -1.53184 0
M  V30 1013 H 100.55 -2.25306 -3.02518 0
M  V30 1014 H 102.937 -1.34473 -2.6268 0
M  V30 1015 H 103.018 -2.2925 -1.13482 0
M  V30 1016 H 102.662 -4.42359 -2.49562 0
M  V30 1017 H 102.592 -3.4451 -3.98272 0
M  V30 1018 H 105.083 -2.76337 -2.57771 0
M  V30 1019 H 105.396 -6.05904 -4.79687 0
M  V30 1020 H 103.741 -5.44475 -4.3194 0
M  V30 1021 H 106.932 -3.47987 -3.13086 0
M  V30 1022 H 107.105 -4.98258 -4.14298 0
M  V30 1023 N 100.511 1.16574 -1.06058 0
M  V30 1024 C 101.757 1.87324 -0.777022 0
M  V30 1025 C 102.09 1.81351 0.694645 0
M  V30 1026 O 101.365 1.22753 1.50871 0
M  V30 1027 C 101.648 3.36991 -1.26922 0
M  V30 1028 C 101.501 3.51667 -2.80447 0
M  V30 1029 C 102.82 4.3131 -0.87521 0
M  V30 1030 H 99.9388 0.680191 -0.28374 0
M  V30 1031 H 102.581 1.37036 -1.3161 0
M  V30 1032 H 100.731 3.79949 -0.81063 0
M  V30 1033 H 102.403 3.17664 -3.34495 0
M  V30 1034 H 100.646 2.93656 -3.19294 0
M  V30 1035 H 101.317 4.56766 -3.0995 0
M  V30 1036 H 103.793 3.9624 -1.27014 0
M  V30 1037 H 102.669 5.34545 -1.2471 0
M  V30 1038 H 102.93 4.41552 0.220071 0
M  V30 1039 N 101.989 0.842826 1.3317 0
M  V30 1040 C 103.219 0.453397 2.01564 0
M  V30 1041 C 103.627 -0.951147 1.63554 0
M  V30 1042 O 102.97 -1.63021 0.846746 0
M  V30 1043 C 103.032 0.499013 3.5602 0
M  V30 1044 C 102.696 1.86037 4.1742 0
M  V30 1045 C 103.693 2.82416 4.36506 0
M  V30 1046 C 101.378 2.15428 4.53757 0
M  V30 1047 C 103.372 4.06346 4.91082 0
M  V30 1048 C 101.059 3.39615 5.0804 0
M  V30 1049 C 102.057 4.3489 5.26649 0
M  V30 1050 O 101.745 5.5688 5.79776 0
M  V30 1051 H 101.477 0.177871 0.652179 0
M  V30 1052 H 104.031 1.13808 1.70988 0
M  V30 1053 H 102.261 -0.242467 3.85939 0
M  V30 1054 H 103.95 0.126852 4.05702 0
M  V30 1055 H 104.716 2.6101 4.08777 0
M  V30 1056 H 100.595 1.42061 4.38565 0
M  V30 1057 H 104.139 4.80722 5.05522 0
M  V30 1058 H 100.036 3.60876 5.352 0
M  V30 1059 H 100.804 5.58674 5.98185 0
M  V30 1060 N 103.467 -1.45747 0.599634 0
M  V30 1061 C 104.397 -2.33235 -0.111306 0
M  V30 1062 C 105.378 -1.46359 -0.866781 0
M  V30 1063 O 106.563 -1.75146 -0.838904 0
M  V30 1064 C 103.693 -3.28932 -1.11451 0
M  V30 1065 C 102.647 -4.25381 -0.472772 0
M  V30 1066 C 101.973 -5.1071 -1.58365 0
M  V30 1067 C 103.273 -5.18831 0.600948 0
M  V30 1068 H 104.967 -2.92927 0.61919 0
M  V30 1069 H 102.513 -1.40857 0.299215 0
M  V30 1070 H 104.466 -3.89002 -1.62036 0
M  V30 1071 H 103.19 -2.67381 -1.8755 0
M  V30 1072 H 101.849 -3.66598 0.0121472 0
M  V30 1073 H 101.497 -4.45533 -2.33473 0
M  V30 1074 H 101.197 -5.7604 -1.15982 0
M  V30 1075 H 102.721 -5.73647 -2.09194 0
M  V30 1076 H 104.135 -5.73019 0.179491 0
M  V30 1077 H 102.532 -5.92595 0.946076 0
M  V30 1078 H 103.602 -4.6174 1.48068 0
M  V30 1079 N 104.945 -0.338344 -1.53925 0
M  V30 1080 C 106.191 0.260143 -2.01125 0
M  V30 1081 C 106.524 1.50617 -1.22589 0
M  V30 1082 O 105.799 1.91979 -0.312113 0
M  V30 1083 C 106.082 0.579499 -3.55407 0
M  V30 1084 C 105.935 -0.678264 -4.44657 0
M  V30 1085 C 107.254 1.39122 -4.17532 0
M  V30 1086 H 104.373 0.0930772 -0.731099 0
M  V30 1087 H 107.015 -0.457852 -1.84401 0
M  V30 1088 H 105.165 1.19118 -3.69788 0
M  V30 1089 H 106.837 -1.31631 -4.42121 0
M  V30 1090 H 105.08 -1.3042 -4.13731 0
M  V30 1091 H 105.751 -0.410143 -5.50474 0
M  V30 1092 H 108.227 0.874035 -4.06817 0
M  V30 1093 H 107.103 1.58342 -5.25565 0
M  V30 1094 H 107.364 2.39178 -3.71815 0
M  V30 1095 N 106.423 1.57458 -0.0668435 0
M  V30 1096 C 107.7 1.8469 0.644132 0
M  V30 1097 C 108.08 0.958343 1.88093 0
M  V30 1098 O 107.428 0.0233579 2.28488 0
M  V30 1099 C 107.638 3.34767 0.986509 0
M  V30 1100 C 108.986 4.02159 1.36212 0
M  V30 1101 O 110.01 3.39484 1.07839 0
M  V30 1102 O 108.869 5.12694 1.89227 0
M  V30 1103 H 105.963 0.762816 0.319437 0
M  V30 1104 H 108.509 1.6942 -0.0973986 0
M  V30 1105 H 107.281 3.91151 0.107883 0
M  V30 1106 H 106.904 3.55281 1.78497 0
M  V30 1107 N 107.901 -0.206675 1.56239 0
M  V30 1108 C 108.849 -1.27571 1.94495 0
M  V30 1109 C 109.843 -1.47737 0.828862 0
M  V30 1110 O 111.049 -1.48735 1.0138 0
M  V30 1111 H 107.424 -0.428029 0.6183 0
M  V30 1112 H 109.395 -0.925961 2.8367 0
M  V30 1113 C 108.144 -2.61568 2.29079 0
M  V30 1114 H 107.467 -2.46863 3.14482 0
M  V30 1115 H 108.907 -3.35144 2.5972 0
M  V30 1116 C 107.366 -3.17695 1.12123 0
M  V30 1117 O 107.896 -3.99801 0.390153 0
M  V30 1118 N 106.102 -2.76276 0.901097 0
M  V30 1119 H 105.649 -2.09613 1.49733 0
M  V30 1120 H 105.607 -3.1417 0.120319 0
M  V30 1121 N 109.379 -1.50304 -0.473955 0
M  V30 1122 C 110.326 -1.68959 -1.57231 0
M  V30 1123 C 111.296 -0.530899 -1.57387 0
M  V30 1124 O 112.481 -0.761133 -1.74961 0
M  V30 1125 C 109.621 -1.7871 -2.95223 0
M  V30 1126 C 108.734 -3.06061 -3.04878 0
M  V30 1127 C 107.869 -3.06626 -4.33767 0
M  V30 1128 C 106.908 -4.28443 -4.37154 0
M  V30 1129 N 106.045 -4.26763 -5.5751 0
M  V30 1130 H 110.885 -2.6273 -1.40631 0
M  V30 1131 H 108.422 -1.30241 -0.683789 0
M  V30 1132 H 110.38 -1.82344 -3.75242 0
M  V30 1133 H 109.01 -0.883806 -3.10465 0
M  V30 1134 H 108.062 -3.11911 -2.17751 0
M  V30 1135 H 109.374 -3.96039 -3.0324 0
M  V30 1136 H 108.528 -3.08973 -5.22131 0
M  V30 1137 H 107.267 -2.14473 -4.3801 0
M  V30 1138 H 106.272 -4.2631 -3.47188 0
M  V30 1139 H 107.497 -5.2182 -4.34605 0
M  V30 1140 H 105.443 -3.37462 -5.62544 0
M  V30 1141 H 105.36 -5.10507 -5.57601 0
M  V30 1142 H 106.628 -4.33253 -6.48006 0
M  V30 1143 N 110.857 0.726932 -1.39834 0
M  V30 1144 C 112.082 1.52121 -1.40976 0
M  V30 1145 C 112.507 1.88098 -0.00826029 0
M  V30 1146 O 111.865 1.52479 0.980807 0
M  V30 1147 C 111.913 2.78021 -2.29644 0
M  V30 1148 O 111.017 3.74272 -1.73188 0
M  V30 1149 H 110.358 0.45908 -0.479731 0
M  V30 1150 H 112.888 0.896207 -1.83927 0
M  V30 1151 H 112.898 3.26671 -2.44438 0
M  V30 1152 H 111.573 2.51169 -3.31492 0
M  V30 1153 H 110.15 3.33073 -1.6768 0
M  V30 1154 N 112.336 1.25143 0.95797 0
M  V30 1155 C 113.564 1.12424 1.73691 0
M  V30 1156 C 113.979 -0.322304 1.86029 0
M  V30 1157 O 113.336 -1.22186 1.35561 0
M  V30 1158 C 113.387 1.76933 3.15241 0
M  V30 1159 O 113.108 3.15932 3.03511 0
M  V30 1160 C 114.609 1.6995 4.09429 0
M  V30 1161 H 111.829 0.3923 0.544373 0
M  V30 1162 H 114.373 1.6544 1.20207 0
M  V30 1163 H 112.528 1.27895 3.6568 0
M  V30 1164 H 112.942 3.47598 3.9278 0
M  V30 1165 H 114.416 2.19753 5.06372 0
M  V30 1166 H 114.893 0.662619 4.34173 0
M  V30 1167 H 115.499 2.18461 3.64904 0
M  V30 1168 N 113.814 -1.1601 1.06675 0
M  V30 1169 C 115.091 -1.82679 0.699114 0
M  V30 1170 C 115.471 -1.94559 -0.819137 0
M  V30 1171 O 114.819 -1.49169 -1.73092 0
M  V30 1172 C 115.029 -3.19445 1.40555 0
M  V30 1173 C 116.377 -3.95171 1.55323 0
M  V30 1174 O 117.401 -3.28976 1.36577 0
M  V30 1175 O 116.26 -5.13833 1.86112 0
M  V30 1176 H 113.354 -0.788954 0.247951 0
M  V30 1177 H 115.9 -1.23179 1.16726 0
M  V30 1178 H 114.672 -3.05856 2.44065 0
M  V30 1179 H 114.295 -3.86625 0.927733 0
M  V30 1180 N 115.292 -0.849877 -1.32721 0
M  V30 1181 C 116.538 -0.451591 -1.97708 0
M  V30 1182 C 116.871 0.989175 -1.6712 0
M  V30 1183 O 116.146 1.69334 -0.956891 0
M  V30 1184 C 116.429 -0.685598 -3.53513 0
M  V30 1185 C 116.282 -2.17444 -3.93749 0
M  V30 1186 C 117.601 -0.138874 -4.39881 0
M  V30 1187 H 114.72 -0.16555 -0.718166 0
M  V30 1188 H 117.362 -1.06742 -1.57182 0
M  V30 1189 H 115.512 -0.161416 -3.88165 0
M  V30 1190 H 117.184 -2.76433 -3.693 0
M  V30 1191 H 115.427 -2.65476 -3.43081 0
M  V30 1192 H 116.098 -2.28888 -5.02309 0
M  V30 1193 H 118.574 -0.587068 -4.11938 0
M  V30 1194 H 117.45 -0.332213 -5.47894 0
M  V30 1195 H 117.711 0.95806 -4.31594 0
M  V30 1196 N 116.77 1.45427 -0.607355 0
M  V30 1197 C 117.733 2.28974 0.101693 0
M  V30 1198 C 118.733 1.39754 0.795329 0
M  V30 1199 O 119.923 1.61878 0.643527 0
M  V30 1200 C 117.055 3.20768 1.15414 0
M  V30 1201 H 118.248 2.93147 -0.632844 0
M  V30 1202 H 115.801 1.51945 -0.366391 0
M  V30 1203 H 116.536 2.61395 1.91945 0
M  V30 1204 H 116.321 3.86489 0.66098 0
M  V30 1205 H 117.811 3.83589 1.65073 0
M  V30 1206 N 118.248 0.346503 1.53744 0
M  V30 1207 C 119.473 -0.253074 2.0585 0
M  V30 1208 C 119.898 -1.43202 1.21962 0
M  V30 1209 O 119.256 -1.79783 0.234073 0
M  V30 1210 C 119.304 -0.643193 3.54817 0
M  V30 1211 O 118.408 -1.74286 3.73762 0
M  V30 1212 H 117.749 -0.0413583 0.662711 0
M  V30 1213 H 120.279 0.501574 1.98357 0
M  V30 1214 H 120.289 -0.919526 3.97503 0
M  V30 1215 H 118.964 0.218966 4.15323 0
M  V30 1216 H 117.541 -1.46356 3.42979 0
M  V30 1217 N 119.726 -1.57421 0.075193 0
M  V30 1218 C 120.656 -2.15942 -0.888324 0
M  V30 1219 C 121.637 -1.08737 -1.30806 0
M  V30 1220 O 122.822 -1.36787 -1.37851 0
M  V30 1221 C 119.952 -2.72379 -2.1547 0
M  V30 1222 C 118.906 -3.8478 -1.87425 0
M  V30 1223 C 118.232 -4.27834 -3.20721 0
M  V30 1224 C 119.532 -5.08869 -1.17684 0
M  V30 1225 H 121.226 -2.96705 -0.400799 0
M  V30 1226 H 118.772 -1.42723 -0.191342 0
M  V30 1227 H 120.725 -3.11965 -2.83295 0
M  V30 1228 H 119.449 -1.88841 -2.6647 0
M  V30 1229 H 118.108 -3.45703 -1.22004 0
M  V30 1230 H 117.756 -3.41214 -3.6957 0
M  V30 1231 H 117.456 -5.03605 -3.02746 0
M  V30 1232 H 118.98 -4.70039 -3.89738 0
M  V30 1233 H 120.394 -5.4575 -1.75584 0
M  V30 1234 H 118.791 -5.8994 -1.09956 0
M  V30 1235 H 119.861 -4.84648 -0.156453 0
M  V30 1236 N 121.204 0.198386 -1.56346 0
M  V30 1237 C 122.152 1.26538 -1.95169 0
M  V30 1238 C 123.146 1.47295 -0.836685 0
M  V30 1239 O 124.352 1.48195 -1.02167 0
M  V30 1240 H 120.727 0.424744 -0.620561 0
M  V30 1241 H 122.698 0.910904 -2.84157 0
M  V30 1242 C 121.447 2.6035 -2.30463 0
M  V30 1243 H 120.77 2.45192 -3.15786 0
M  V30 1244 H 122.21 3.33762 -2.61494 0
M  V30 1245 C 120.669 3.17096 -1.13806 0
M  V30 1246 O 121.199 3.99588 -0.41135 0
M  V30 1247 N 119.405 2.75795 -0.915736 0
M  V30 1248 H 118.952 2.08816 -1.50843 0
M  V30 1249 H 118.91 3.14101 -0.136979 0
M  V30 1250 N 122.682 1.50554 0.465978 0
M  V30 1251 C 123.912 1.65323 1.23903 0
M  V30 1252 C 124.32 0.338051 1.86155 0
M  V30 1253 O 123.663 -0.690518 1.70228 0
M  V30 1254 C 123.725 2.69048 2.3844 0
M  V30 1255 C 123.389 4.12462 1.96784 0
M  V30 1256 C 124.386 4.98168 1.48745 0
M  V30 1257 C 122.071 4.58407 2.05349 0
M  V30 1258 C 124.065 6.27868 1.0982 0
M  V30 1259 C 121.752 5.88112 1.66035 0
M  V30 1260 C 122.75 6.72668 1.18349 0
M  V30 1261 O 122.438 7.99951 0.795825 0
M  V30 1262 H 122.17 0.558629 0.38067 0
M  V30 1263 H 124.724 1.97561 0.562022 0
M  V30 1264 H 122.954 2.32062 3.09328 0
M  V30 1265 H 124.643 2.72985 3.0039 0
M  V30 1266 H 125.409 4.63885 1.41546 0
M  V30 1267 H 121.288 3.92735 2.41414 0
M  V30 1268 H 124.832 6.93819 0.725293 0
M  V30 1269 H 120.729 6.21914 1.72895 0
M  V30 1270 H 121.497 8.13265 0.924222 0
M  V30 1271 N 124.16 -0.719506 1.40217 0
M  V30 1272 C 125.092 -1.84428 1.36084 0
M  V30 1273 C 126.105 -1.60597 0.266913 0
M  V30 1274 O 127.294 -1.70544 0.526983 0
M  V30 1275 C 124.394 -3.20757 1.094 0
M  V30 1276 C 123.567 -3.71817 2.30372 0
M  V30 1277 C 122.626 -4.86748 1.99907 0
M  V30 1278 O 121.652 -4.99603 2.72737 0
M  V30 1279 N 122.854 -5.7226 0.974635 0
M  V30 1280 H 125.619 -1.88473 2.33019 0
M  V30 1281 H 123.18 -0.900885 1.3452 0
M  V30 1282 H 125.172 -3.95235 0.870116 0
M  V30 1283 H 123.742 -3.11884 0.211452 0
M  V30 1284 H 122.962 -2.88514 2.68614 0
M  V30 1285 H 124.25 -4.02666 3.11026 0
M  V30 1286 H 123.648 -5.6448 0.371368 0
M  V30 1287 H 122.205 -6.46739 0.810656 0
M  V30 1288 N 125.638 -1.25649 -0.95132 0
M  V30 1289 C 126.586 -1.06118 -2.06982 0
M  V30 1290 C 127.58 0.00889169 -1.69398 0
M  V30 1291 O 128.786 -0.146988 -1.79399 0
M  V30 1292 H 125.161 -0.326248 -0.677544 0
M  V30 1293 H 127.132 -2.00932 -2.2061 0
M  V30 1294 C 125.881 -0.700145 -3.40578 0
M  V30 1295 H 125.204 -1.51537 -3.69968 0
M  V30 1296 H 126.644 -0.603211 -4.19687 0
M  V30 1297 C 125.103 0.59403 -3.31622 0
M  V30 1298 O 125.633 1.63522 -3.66911 0
M  V30 1299 N 123.839 0.58089 -2.84735 0
M  V30 1300 H 123.386 -0.266783 -2.56215 0
M  V30 1301 H 123.344 1.44695 -2.79125 0
M  V30 1302 N 127.117 1.15442 -1.07289 0
M  V30 1303 C 128.394 1.82306 -0.708792 0
M  V30 1304 C 128.774 1.94991 0.808807 0
M  V30 1305 O 128.122 1.50085 1.72298 0
M  V30 1306 C 128.332 3.18695 -1.42247 0
M  V30 1307 C 129.68 3.94341 -1.57417 0
M  V30 1308 O 130.704 3.28247 -1.38319 0
M  V30 1309 O 129.563 5.12839 -1.88834 0
M  V30 1310 H 126.657 0.787628 -0.252132 0
M  V30 1311 H 129.203 1.22559 -1.17377 0
M  V30 1312 H 127.975 3.04557 -2.45684 0
M  V30 1313 H 127.598 3.86128 -0.948223 0
M  V30 1314 N 128.595 0.856903 1.32268 0
M  V30 1315 C 129.545 0.274899 2.26337 0
M  V30 1316 C 130.529 -0.580543 1.50062 0
M  V30 1317 O 131.721 -0.429559 1.71708 0
M  V30 1318 C 128.85 -0.533841 3.39124 0
M  V30 1319 C 127.936 0.334114 4.22782 0
M  V30 1320 N 128.327 1.42143 4.85416 0
M  V30 1321 C 126.625 0.124256 4.45827 0
M  V30 1322 C 127.326 1.95559 5.47843 0
M  V30 1323 N 126.302 1.25444 5.28928 0
M  V30 1324 H 130.104 1.10612 2.72291 0
M  V30 1325 H 127.618 0.703258 1.46383 0
M  V30 1326 H 129.615 -0.96722 4.05525 0
M  V30 1327 H 128.275 -1.36283 2.94715 0
M  V30 1328 H 129.286 1.80436 4.85451 0
M  V30 1329 H 125.963 -0.669837 4.12092 0
M  V30 1330 H 127.353 2.86714 6.07655 0
M  V30 1331 N 130.073 -1.45103 0.615059 0
M  V30 1332 C 131.298 -2.07064 0.117988 0
M  V30 1333 C 131.723 -1.4554 -1.19163 0
M  V30 1334 O 131.081 -0.550855 -1.72729 0
M  V30 1335 C 131.129 -3.606 -0.000288387 0
M  V30 1336 O 130.233 -3.98847 -1.04856 0
M  V30 1337 H 129.574 -0.659467 0.0774581 0
M  V30 1338 H 132.104 -1.86236 0.847186 0
M  V30 1339 H 132.114 -4.07529 -0.196091 0
M  V30 1340 H 130.789 -4.04765 0.955932 0
M  V30 1341 H 129.366 -3.63577 -0.828619 0
M  V30 1342 N 131.551 -0.354651 -1.53558 0
M  V30 1343 C 132.499 0.512195 -2.26891 0
M  V30 1344 C 133.493 1.09263 -1.29452 0
M  V30 1345 O 134.699 1.03709 -1.47121 0
M  V30 1346 H 131.074 0.183878 -0.729173 0
M  V30 1347 H 133.045 -0.128202 -2.98124 0
M  V30 1348 C 131.794 1.64563 -3.06291 0
M  V30 1349 H 131.117 1.20829 -3.81104 0
M  V30 1350 H 132.557 2.22711 -3.60799 0
M  V30 1351 C 131.016 2.58158 -2.16462 0
M  V30 1352 O 131.546 3.60695 -1.76811 0
M  V30 1353 N 129.752 2.27096 -1.81317 0
M  V30 1354 H 129.299 1.43751 -2.1376 0
M  V30 1355 H 129.257 2.89975 -1.21498 0
M  V30 1356 N 133.029 1.57378 -0.0835403 0
M  V30 1357 C 134.276 1.9393 0.58287 0
M  V30 1358 C 134.604 0.964455 1.68904 0
M  V30 1359 O 133.859 -0.0179474 1.95692 0
M  V30 1360 C 134.158 3.37063 1.1884 0
M  V30 1361 C 133.824 4.50424 0.207194 0
M  V30 1362 C 132.486 4.81159 -0.0627115 0
M  V30 1363 C 134.838 5.19136 -0.463426 0
M  V30 1364 C 132.166 5.77939 -1.01012 0
M  V30 1365 C 134.518 6.16931 -1.39924 0
M  V30 1366 C 133.182 6.46078 -1.67749 0
M  V30 1367 H 132.452 0.70964 0.213287 0
M  V30 1368 H 135.099 1.90856 -0.156916 0
M  V30 1369 H 133.404 3.3666 2.00418 0
M  V30 1370 H 135.101 3.6264 1.71153 0
M  V30 1371 H 131.691 4.2646 0.427747 0
M  V30 1372 H 135.875 4.95576 -0.268034 0
M  V30 1373 H 131.131 5.98842 -1.23283 0
M  V30 1374 H 135.305 6.69273 -1.92476 0
M  V30 1375 H 132.932 7.2088 -2.41321 0
M  V30 1376 N 134.507 -0.190092 1.56449 0
M  V30 1377 C 135.437 -1.23816 1.97969 0
M  V30 1378 C 136.418 -1.47201 0.852395 0
M  V30 1379 O 137.603 -1.58854 1.1171 0
M  V30 1380 C 134.733 -2.5813 2.3235 0
M  V30 1381 C 133.687 -2.49348 3.47864 0
M  V30 1382 C 133.013 -3.8798 3.67934 0
M  V30 1383 C 134.313 -2.01424 4.81898 0
M  V30 1384 H 136.007 -0.89311 2.85769 0
M  V30 1385 H 133.553 -0.428177 1.37487 0
M  V30 1386 H 135.506 -3.31637 2.59991 0
M  V30 1387 H 134.23 -2.94386 1.41438 0
M  V30 1388 H 132.889 -1.78297 3.20321 0
M  V30 1389 H 132.537 -4.21597 2.74344 0
M  V30 1390 H 132.237 -3.82978 4.45648 0
M  V30 1391 H 133.761 -4.63101 3.97957 0
M  V30 1392 H 135.175 -2.64693 5.08538 0
M  V30 1393 H 133.572 -2.07413 5.63116 0
M  V30 1394 H 134.642 -0.967677 4.75146 0
M  V30 1395 N 135.985 -1.50799 -0.457987 0
M  V30 1396 C 137.213 -1.66218 -1.23203 0
M  V30 1397 C 137.628 -0.350894 -1.85511 0
M  V30 1398 O 136.985 0.668546 -1.69814 0
M  V30 1399 C 137.036 -2.76291 -2.33121 0
M  V30 1400 O 136.757 -4.02338 -1.73366 0
M  V30 1401 C 138.258 -3.028 -3.2377 0
M  V30 1402 H 135.478 -0.558361 -0.372121 0
M  V30 1403 H 138.022 -1.97099 -0.545179 0
M  V30 1404 H 136.177 -2.48068 -2.97558 0
M  V30 1405 H 136.591 -4.63312 -2.4585 0
M  V30 1406 H 138.065 -3.8345 -3.97077 0
M  V30 1407 H 138.542 -2.14385 -3.83322 0
M  V30 1408 H 139.148 -3.32604 -2.65056 0
M  V30 1409 N 137.463 0.71206 -1.40597 0
M  V30 1410 C 138.691 1.50111 -1.42388 0
M  V30 1411 C 139.106 1.88784 -0.0245395 0
M  V30 1412 O 138.463 1.55681 0.952351 0
M  V30 1413 C 138.514 2.7742 -2.31776 0
M  V30 1414 O 138.235 2.40382 -3.66262 0
M  V30 1415 C 139.736 3.7129 -2.42196 0
M  V30 1416 H 136.956 0.46314 -0.485533 0
M  V30 1417 H 139.5 0.878068 -1.8469 0
M  V30 1418 H 137.655 3.36001 -1.92827 0
M  V30 1419 H 138.069 3.22324 -4.13772 0
M  V30 1420 H 139.543 4.57448 -3.08943 0
M  V30 1421 H 140.02 4.14641 -1.44809 0
M  V30 1422 H 140.626 3.18619 -2.81712 0
M  V30 1423 N 138.941 1.26152 0.944643 0
M  V30 1424 C 140.187 1.11657 1.69294 0
M  V30 1425 C 140.52 -0.339926 1.91202 0
M  V30 1426 O 139.795 -1.24994 1.49019 0
M  V30 1427 C 140.078 1.88236 3.06984 0
M  V30 1428 C 139.931 3.41772 2.92424 0
M  V30 1429 C 141.25 1.67343 4.07043 0
M  V30 1430 H 138.369 0.407004 0.614424 0
M  V30 1431 H 141.011 1.55106 1.09737 0
M  V30 1432 H 139.161 1.51308 3.57824 0
M  V30 1433 H 140.833 3.88433 2.48832 0
M  V30 1434 H 139.076 3.68974 2.28124 0
M  V30 1435 H 139.747 3.90579 3.90067 0
M  V30 1436 H 142.223 1.99509 3.65151 0
M  V30 1437 H 141.099 2.23346 5.01406 0
M  V30 1438 H 141.36 0.617158 4.37771 0
M  V30 1439 N 140.419 -1.14872 1.07899 0
M  V30 1440 C 141.668 -1.85135 0.800499 0
M  V30 1441 C 141.981 -1.83547 -0.676014 0
M  V30 1442 O 143.187 -2.49548 -1.06948 0
M  V30 1443 C 141.643 -3.3231 1.38197 0
M  V30 1444 C 141.251 -3.42329 2.8899 0
M  V30 1445 C 142.995 -4.0772 1.18174 0
M  V30 1446 C 140.902 -4.83684 3.403 0
M  V30 1447 H 139.832 -0.693563 0.29578 0
M  V30 1448 H 142.483 -1.29532 1.29976 0
M  V30 1449 H 140.865 -3.87618 0.810431 0
M  V30 1450 H 142.039 -2.97097 3.52236 0
M  V30 1451 H 140.354 -2.80369 3.07867 0
M  V30 1452 H 142.951 -5.12049 1.5398 0
M  V30 1453 H 143.294 -4.16124 0.12117 0
M  V30 1454 H 143.827 -3.58696 1.71994 0
M  V30 1455 H 140.566 -4.80465 4.45907 0
M  V30 1456 H 140.086 -5.29474 2.81811 0
M  V30 1457 H 141.765 -5.52558 3.36584 0
M  V30 1458 N 141.898 -0.863906 -1.31812 0
M  V30 1459 C 142.83 -0.272485 -2.27575 0
M  V30 1460 C 143.843 0.56104 -1.52827 0
M  V30 1461 O 145.032 0.384021 -1.7432 0
M  V30 1462 C 142.132 0.63283 -3.32939 0
M  V30 1463 C 141.305 -0.166902 -4.37081 0
M  V30 1464 C 140.364 0.665608 -5.21973 0
M  V30 1465 O 139.39 0.0958091 -5.69119 0
M  V30 1466 N 140.592 1.9787 -5.45736 0
M  V30 1467 H 143.357 -1.0954 -2.78964 0
M  V30 1468 H 140.918 -0.724791 -1.4477 0
M  V30 1469 H 142.91 1.19532 -3.86645 0
M  V30 1470 H 141.48 1.35642 -2.81638 0
M  V30 1471 H 140.7 -0.910838 -3.83533 0
M  V30 1472 H 141.988 -0.715874 -5.03739 0
M  V30 1473 H 141.386 2.46484 -5.09178 0
M  V30 1474 H 139.943 2.48911 -6.024 0
M  V30 1475 N 143.376 1.44774 -0.622745 0
M  V30 1476 C 144.324 2.32387 0.0994683 0
M  V30 1477 C 145.318 1.46859 0.844326 0
M  V30 1478 O 146.524 1.63254 0.758174 0
M  V30 1479 H 142.899 0.750273 0.0509291 0
M  V30 1480 H 144.87 2.91062 -0.65767 0
M  V30 1481 C 143.619 3.30723 1.07319 0
M  V30 1482 H 142.942 3.96541 0.509462 0
M  V30 1483 H 144.382 3.94725 1.54817 0
M  V30 1484 C 142.841 2.59021 2.15429 0
M  V30 1485 O 143.371 2.38286 3.23393 0
M  V30 1486 N 141.577 2.189 1.91131 0
M  V30 1487 H 141.124 2.35964 1.03337 0
M  V30 1488 H 141.082 1.71251 2.63668 0
M  V30 1489 N 144.854 0.36279 1.53368 0
M  V30 1490 C 145.802 -0.500155 2.27159 0
M  V30 1491 C 146.796 -1.08575 1.3003 0
M  V30 1492 O 148.002 -1.02927 1.47668 0
M  V30 1493 H 144.377 -0.180009 0.730138 0
M  V30 1494 H 146.348 0.14401 2.98052 0
M  V30 1495 C 145.097 -1.62937 3.07159 0
M  V30 1496 H 144.42 -1.18806 3.8174 0
M  V30 1497 H 145.86 -2.20795 3.61975 0
M  V30 1498 C 144.319 -2.57007 2.17829 0
M  V30 1499 O 144.849 -3.59752 1.78721 0
M  V30 1500 N 143.055 -2.26131 1.82518 0
M  V30 1501 H 142.602 -1.42616 2.14519 0
M  V30 1502 H 142.56 -2.89327 1.23034 0
M  V30 1503 N 146.332 -1.57332 0.0918853 0
M  V30 1504 C 147.609 -1.85691 -0.614668 0
M  V30 1505 C 147.989 -0.988146 -1.86545 0
M  V30 1506 O 147.337 -0.0597055 -2.28422 0
M  V30 1507 C 147.547 -3.36294 -0.933126 0
M  V30 1508 C 148.895 -4.04275 -1.29796 0
M  V30 1509 O 149.919 -3.41157 -1.02424 0
M  V30 1510 O 148.778 -5.1564 -1.81047 0
M  V30 1511 H 145.872 -0.767802 -0.307261 0
M  V30 1512 H 148.418 -1.69244 0.12434 0
M  V30 1513 H 147.19 -3.91273 -0.0456404 0
M  V30 1514 H 146.813 -3.58076 -1.72822 0
M  V30 1515 N 147.81 0.181792 -1.56548 0
M  V30 1516 C 149.04 0.914618 -1.85252 0
M  V30 1517 C 149.448 1.76791 -0.673914 0
M  V30 1518 O 148.791 1.80009 0.366416 0
M  V30 1519 C 148.853 1.85019 -3.08234 0
M  V30 1520 C 148.517 1.17754 -4.41569 0
M  V30 1521 C 149.514 0.548035 -5.17003 0
M  V30 1522 C 147.199 1.17742 -4.88305 0
M  V30 1523 C 149.193 -0.0726128 -6.37359 0
M  V30 1524 C 146.88 0.552946 -6.08593 0
M  V30 1525 C 147.878 -0.070978 -6.82963 0
M  V30 1526 O 147.566 -0.685635 -8.00971 0
M  V30 1527 H 147.298 0.271695 -0.618998 0
M  V30 1528 H 149.852 0.189944 -2.0452 0
M  V30 1529 H 148.082 2.61491 -2.84885 0
M  V30 1530 H 149.771 2.45195 -3.23472 0
M  V30 1531 H 150.537 0.540174 -4.81982 0
M  V30 1532 H 146.416 1.65246 -4.30366 0
M  V30 1533 H 149.96 -0.560213 -6.95347 0
M  V30 1534 H 145.857 0.558354 -6.43081 0
M  V30 1535 H 146.625 -0.58385 -8.16415 0
M  V30 1536 N 149.288 1.51039 0.449983 0
M  V30 1537 C 150.513 1.6715 1.22783 0
M  V30 1538 C 150.938 0.363081 1.84563 0
M  V30 1539 O 150.296 -0.675433 1.68249 0
M  V30 1540 C 150.344 2.77985 2.29689 0
M  V30 1541 O 149.448 2.40707 3.34864 0
M  V30 1542 H 148.789 0.557746 0.360299 0
M  V30 1543 H 151.319 1.97535 0.533005 0
M  V30 1544 H 151.329 3.01693 2.74673 0
M  V30 1545 H 150.004 3.72935 1.84098 0
M  V30 1546 H 148.581 2.27523 2.95445 0
M  V30 1547 N 150.766 -0.704594 1.40972 0
M  V30 1548 C 152.177 -1.28418 1.3552 0
M  V30 1549 C 152.528 -1.96171 0.0339434 0
M  V30 1550 O 151.653 -1.98231 -0.867944 0
M  V30 1551 C 152.248 -2.33528 2.45459 0
M  V30 1552 C 150.807 -2.87085 2.43433 0
M  V30 1553 C 149.954 -1.61007 2.2577 0
M  V30 1554 H 152.905 -0.499963 1.50619 0
M  V30 1555 H 152.926 -3.14619 2.13998 0
M  V30 1556 H 152.438 -1.84187 3.41609 0
M  V30 1557 H 150.539 -3.40626 1.51013 0
M  V30 1558 H 150.652 -3.3813 3.39419 0
M  V30 1559 H 149.016 -1.86482 1.73483 0
M  V30 1560 H 149.799 -1.13675 3.23933 0
M  V30 1561 N 152.244 -1.26651 -0.937939 0
M  V30 1562 C 153.492 -1.12165 -1.68118 0
M  V30 1563 C 153.813 0.334983 -1.92101 0
M  V30 1564 O 153.083 1.23583 -1.52 0
M  V30 1565 H 151.663 -0.412093 -0.623048 0
M  V30 1566 H 154.325 -1.59027 -1.12678 0
M  V30 1567 H 153.421 -1.64289 -2.6536 0
M  V30 1568 N 153.722 1.14298 -1.08507 0
M  V30 1569 C 154.632 2.23027 -0.727753 0
M  V30 1570 C 155.648 1.71952 0.26619 0
M  V30 1571 O 156.824 2.011 0.109882 0
M  V30 1572 C 153.889 3.46403 -0.143541 0
M  V30 1573 C 152.95 4.12413 -1.19223 0
M  V30 1574 C 152.183 5.29899 -0.635798 0
M  V30 1575 O 152.406 5.67796 0.544393 0
M  V30 1576 O 151.34 5.85717 -1.38634 0
M  V30 1577 H 155.166 2.55945 -1.63481 0
M  V30 1578 H 152.751 1.22248 -0.858817 0
M  V30 1579 H 154.633 4.21018 0.179404 0
M  V30 1580 H 153.308 3.15206 0.736659 0
M  V30 1581 H 152.215 3.39667 -1.56772 0
M  V30 1582 H 153.548 4.47718 -2.04474 0
M  V30 1583 N 155.201 0.870884 1.31352 0
M  V30 1584 C 156.164 0.332243 2.26779 0
M  V30 1585 C 157.164 -0.517302 1.52252 0
M  V30 1586 O 158.354 -0.326477 1.71113 0
M  V30 1587 C 155.486 -0.528066 3.36785 0
M  V30 1588 H 156.679 1.17469 2.75937 0
M  V30 1589 H 154.232 0.64655 1.423 0
M  V30 1590 H 154.967 -1.39167 2.92922 0
M  V30 1591 H 154.752 0.0802582 3.92018 0
M  V30 1592 H 156.242 -0.897179 4.07849 0
M  V30 1593 N 156.679 -1.44442 0.630414 0
M  V30 1594 C 157.904 -2.06927 0.139944 0
M  V30 1595 C 158.329 -1.46795 -1.17613 0
M  V30 1596 O 157.687 -0.569144 -1.72135 0
M  V30 1597 C 157.735 -3.6058 0.0379581 0
M  V30 1598 O 156.839 -3.99937 -1.0062 0
M  V30 1599 H 156.18 -0.658608 0.0844483 0
M  V30 1600 H 158.71 -1.85327 0.866891 0
M  V30 1601 H 158.72 -4.07714 -0.152856 0
M  V30 1602 H 157.395 -4.03728 0.998809 0
M  V30 1603 H 155.972 -3.64436 -0.79001 0
M  V30 1604 N 158.157 -0.370918 -1.53173 0
M  V30 1605 C 159.385 0.217704 -2.05751 0
M  V30 1606 C 159.8 1.42018 -1.24404 0
M  V30 1607 O 159.157 1.80245 -0.286033 0
M  V30 1608 C 159.208 0.605954 -3.56385 0
M  V30 1609 O 158.929 -0.548734 -4.3465 0
M  V30 1610 C 160.43 1.2524 -4.25241 0
M  V30 1611 H 157.65 0.0371659 -0.66997 0
M  V30 1612 H 160.194 -0.530832 -1.9749 0
M  V30 1613 H 158.349 1.3044 -3.6478 0
M  V30 1614 H 158.763 -0.23376 -5.23979 0
M  V30 1615 H 160.237 1.47458 -5.3194 0
M  V30 1616 H 160.714 2.2143 -3.79296 0
M  V30 1617 H 161.32 0.595233 -4.21114 0
M  V30 1618 N 159.635 1.57281 -0.100228 0
M  V30 1619 C 160.567 2.11342 0.886972 0
M  V30 1620 C 161.58 1.05182 1.24261 0
M  V30 1621 O 162.769 1.32613 1.19483 0
M  V30 1622 C 159.869 2.5825 2.19454 0
M  V30 1623 C 159.042 3.88302 2.01346 0
M  V30 1624 C 158.101 4.21004 3.15661 0
M  V30 1625 O 157.127 4.9014 2.89398 0
M  V30 1626 N 158.329 3.76818 4.41575 0
M  V30 1627 H 161.094 2.96668 0.425216 0
M  V30 1628 H 158.655 1.61678 0.0847334 0
M  V30 1629 H 160.647 2.7717 2.94888 0
M  V30 1630 H 159.217 1.77907 2.57037 0
M  V30 1631 H 158.437 3.7848 1.10212 0
M  V30 1632 H 159.725 4.73375 1.8653 0
M  V30 1633 H 159.123 3.2102 4.65792 0
M  V30 1634 H 157.68 4.00882 5.13942 0
M  V30 1635 N 161.113 -0.173488 1.56642 0
M  V30 1636 C 162.341 -0.906095 1.86004 0
M  V30 1637 C 162.756 -1.75921 0.685355 0
M  V30 1638 O 162.113 -1.79198 -0.345578 0
M  V30 1639 C 162.164 -1.78462 3.14378 0
M  V30 1640 O 161.885 -0.965914 4.27319 0
M  V30 1641 C 163.386 -2.62707 3.57071 0
M  V30 1642 H 160.606 -0.263341 0.617165 0
M  V30 1643 H 163.15 -0.174236 2.03756 0
M  V30 1644 H 161.305 -2.46984 2.98459 0
M  V30 1645 H 161.719 -1.56655 5.00559 0
M  V30 1646 H 163.193 -3.19969 4.49804 0
M  V30 1647 H 163.67 -3.37472 2.81086 0
M  V30 1648 H 164.276 -1.99521 3.75595 0
M  V30 1649 N 162.591 -1.51276 -0.441967 0
M  V30 1650 C 163.84 -1.6295 -1.18871 0
M  V30 1651 C 164.153 -0.349312 -1.92456 0
M  V30 1652 O 165.359 -0.345355 -2.69295 0
M  V30 1653 C 163.815 -2.87759 -2.16155 0
M  V30 1654 C 163.423 -4.22764 -1.48239 0
M  V30 1655 C 165.167 -3.08788 -2.91291 0
M  V30 1656 C 163.074 -5.38728 -2.4398 0
M  V30 1657 H 162.004 -0.606913 -0.447406 0
M  V30 1658 H 164.655 -1.77739 -0.456205 0
M  V30 1659 H 163.037 -2.66593 -2.92821 0
M  V30 1660 H 164.211 -4.54293 -0.771635 0
M  V30 1661 H 162.526 -4.07575 -0.852741 0
M  V30 1662 H 165.123 -3.92599 -3.63002 0
M  V30 1663 H 165.466 -2.21679 -3.5237 0
M  V30 1664 H 165.999 -3.30272 -2.21733 0
M  V30 1665 H 162.738 -6.28082 -1.87598 0
M  V30 1666 H 162.258 -5.1158 -3.13123 0
M  V30 1667 H 163.937 -5.70489 -3.05207 0
M  V30 1668 N 164.069 0.697108 -1.41344 0
M  V30 1669 C 165.017 1.83237 -1.43272 0
M  V30 1670 C 166.011 1.66522 -0.310947 0
M  V30 1671 O 167.217 1.73402 -0.482899 0
M  V30 1672 H 163.592 0.603802 -0.448249 0
M  V30 1673 H 165.563 1.78727 -2.38954 0
M  V30 1674 C 164.312 3.21245 -1.33029 0
M  V30 1675 H 163.635 3.34723 -2.18633 0
M  V30 1676 H 165.075 4.00763 -1.38439 0
M  V30 1677 C 163.534 3.36873 -0.0424635 0
M  V30 1678 O 164.064 3.91177 0.913421 0
M  V30 1679 N 162.27 2.90581 0.0331145 0
M  V30 1680 H 161.817 2.46577 -0.745506 0
M  V30 1681 H 161.775 3.01416 0.894199 0
M  V30 1682 N 165.547 1.27147 0.931209 0
M  V30 1683 C 166.477 1.12081 2.04842 0
M  V30 1684 C 167.458 0.0232364 1.70084 0
M  V30 1685 O 168.643 0.197085 1.93197 0
M  V30 1686 C 165.773 0.76354 3.38803 0
M  V30 1687 C 164.727 1.81396 3.87659 0
M  V30 1688 C 164.053 1.31075 5.18385 0
M  V30 1689 C 165.353 3.21739 4.11438 0
M  V30 1690 H 167.047 2.05537 2.17703 0
M  V30 1691 H 164.593 0.989603 1.04608 0
M  V30 1692 H 166.546 0.644982 4.16435 0
M  V30 1693 H 165.27 -0.206727 3.25945 0
M  V30 1694 H 163.929 1.92136 3.12217 0
M  V30 1695 H 163.577 0.330037 5.01916 0
M  V30 1696 H 163.277 2.013 5.52044 0
M  V30 1697 H 164.801 1.20506 5.98591 0
M  V30 1698 H 166.215 3.14019 4.79651 0
M  V30 1699 H 164.612 3.89644 4.56397 0
M  V30 1700 H 165.682 3.67054 3.16859 0
M  V30 1701 N 167.025 -1.13721 1.09112 0
M  V30 1702 C 168.302 -1.81155 0.737706 0
M  V30 1703 C 168.682 -1.96253 -0.777683 0
M  V30 1704 O 168.03 -1.52807 -1.69889 0
M  V30 1705 C 168.24 -3.16392 1.47299 0
M  V30 1706 C 169.588 -3.91787 1.63671 0
M  V30 1707 O 170.612 -3.26005 1.43524 0
M  V30 1708 O 169.471 -5.0977 1.96969 0
M  V30 1709 H 166.565 -0.783518 0.26463 0
M  V30 1710 H 169.111 -1.20676 1.19312 0
M  V30 1711 H 167.883 -3.0061 2.50498 0
M  V30 1712 H 167.506 -3.8457 1.00953 0
M  V30 1713 N 168.503 -0.877838 -1.30888 0
M  V30 1714 C 169.78 -0.413052 -1.91189 0
M  V30 1715 C 170.16 1.1056 -1.79832 0
M  V30 1716 O 169.508 1.93771 -1.21099 0
M  V30 1717 C 169.718 -0.903191 -3.3711 0
M  V30 1718 C 171.066 -0.93395 -4.14201 0
M  V30 1719 O 172.09 -0.849373 -3.45925 0
M  V30 1720 O 170.949 -1.05772 -5.36167 0
M  V30 1721 H 168.043 -0.125035 -0.817493 0
M  V30 1722 H 170.589 -0.966269 -1.39504 0
M  V30 1723 H 169.361 -1.94692 -3.39427 0
M  V30 1724 H 168.984 -0.328732 -3.96239 0
M  V30 1725 N 169.982 1.44106 -0.638065 0
M  V30 1726 C 171.398 1.56672 -0.304286 0
M  V30 1727 C 171.598 1.6244 1.19228 0
M  V30 1728 O 170.654 1.57121 1.9766 0
M  V30 1729 C 171.967 2.83503 -1.00231 0
M  V30 1730 C 173.515 2.97226 -0.981116 0
M  V30 1731 C 173.99 4.26868 -1.65974 0
M  V30 1732 N 175.481 4.33698 -1.62666 0
M  V30 1733 C 176.216 5.32745 -2.12063 0
M  V30 1734 N 175.712 6.38157 -2.6968 0
M  V30 1735 N 177.505 5.24299 -2.02651 0
M  V30 1736 H 169.656 1.38605 -1.60942 0
M  V30 1737 H 171.919 0.664661 -0.675965 0
M  V30 1738 H 171.625 2.85251 -2.0573 0
M  V30 1739 H 171.499 3.73251 -0.54439 0
M  V30 1740 H 173.886 2.95027 0.0654188 0
M  V30 1741 H 173.967 2.08808 -1.47759 0
M  V30 1742 H 173.611 4.29826 -2.70576 0
M  V30 1743 H 173.541 5.14156 -1.13804 0
M  V30 1744 H 176.032 3.58138 -1.20606 0
M  V30 1745 H 176.345 7.10029 -3.05087 0
M  V30 1746 H 174.69 6.38823 -2.73734 0
M  V30 1747 H 177.881 4.4086 -1.57353 0
M  V30 1748 H 178.054 6.01334 -2.41457 0
M  V30 1749 N 171.46 0.379036 1.52974 0
M  V30 1750 C 172.685 -0.209353 2.06341 0
M  V30 1751 C 173.11 -1.40583 1.24972 0
M  V30 1752 O 172.468 -1.79246 0.272155 0
M  V30 1753 C 172.516 -0.567786 3.56102 0
M  V30 1754 O 171.62 -1.66318 3.77375 0
M  V30 1755 H 170.961 -0.0272919 0.663439 0
M  V30 1756 H 173.491 0.543536 1.97248 0
M  V30 1757 H 173.501 -0.835003 3.99364 0
M  V30 1758 H 172.176 0.307013 4.14765 0
M  V30 1759 H 170.753 -1.39048 3.46006 0
M  V30 1760 N 172.938 -1.57226 0.108567 0
M  V30 1761 C 173.888 -2.11305 -0.856396 0
M  V30 1762 C 174.872 -1.03129 -1.23504 0
M  V30 1763 O 176.064 -1.29381 -1.20787 0
M  V30 1764 C 173.193 -2.70771 -2.11041 0
M  V30 1765 C 172.279 -3.86011 -1.7566 0
M  V30 1766 N 172.67 -4.93492 -1.10902 0
M  V30 1767 C 170.968 -3.95999 -2.05185 0
M  V30 1768 C 171.669 -5.73984 -0.944308 0
M  V30 1769 N 170.645 -5.2346 -1.46596 0
M  V30 1770 H 174.447 -2.91784 -0.352002 0
M  V30 1771 H 171.961 -1.62126 -0.0942324 0
M  V30 1772 H 173.958 -3.07851 -2.81128 0
M  V30 1773 H 172.618 -1.91751 -2.62034 0
M  V30 1774 H 173.629 -5.1208 -0.774235 0
M  V30 1775 H 170.306 -3.28007 -2.58298 0
M  V30 1776 H 171.696 -6.70479 -0.436813 0
M  V30 1777 N 174.416 0.165178 -1.56732 0
M  V30 1778 C 175.662 0.877389 -1.83503 0
M  V30 1779 C 176.017 1.79602 -0.689996 0
M  V30 1780 O 175.31 1.89023 0.313205 0
M  V30 1781 C 175.504 1.70405 -3.1416 0
M  V30 1782 C 175.333 0.866961 -4.41264 0
M  V30 1783 C 174.103 0.539646 -5.0241 0
M  V30 1784 C 176.301 0.205671 -5.13889 0
M  V30 1785 N 174.283 -0.312946 -6.13102 0
M  V30 1786 C 175.654 -0.507823 -6.17917 0
M  V30 1787 C 177.709 0.124468 -4.97744 0
M  V30 1788 C 176.412 -1.29483 -7.0755 0
M  V30 1789 C 178.438 -0.649222 -5.87826 0
M  V30 1790 C 177.8 -1.35106 -6.91322 0
M  V30 1791 H 173.899 0.299477 -0.722383 0
M  V30 1792 H 176.483 0.143949 -1.94167 0
M  V30 1793 H 174.654 2.40887 -3.04677 0
M  V30 1794 H 176.386 2.35804 -3.28905 0
M  V30 1795 H 173.141 0.871176 -4.65519 0
M  V30 1796 H 173.565 -0.729731 -6.73056 0
M  V30 1797 H 178.207 0.652724 -4.17731 0
M  V30 1798 H 175.925 -1.83441 -7.87004 0
M  V30 1799 H 179.511 -0.713804 -5.77405 0
M  V30 1800 H 178.391 -1.94013 -7.59821 0
M  V30 1801 N 175.894 1.51508 0.433938 0
M  V30 1802 C 177.142 1.6402 1.18075 0
M  V30 1803 C 177.463 0.360328 1.91642 0
M  V30 1804 O 176.733 -0.623945 1.85698 0
M  V30 1805 H 175.313 0.6045 0.43885 0
M  V30 1806 H 177.975 1.88452 0.497178 0
M  V30 1807 H 177.071 2.46949 1.90847 0
M  V30 1808 N 177.372 -0.689602 1.41712 0
M  V30 1809 C 178.62 -1.4468 1.4111 0
M  V30 1810 C 178.941 -1.94986 0.0232196 0
M  V30 1811 O 178.211 -1.72097 -0.935913 0
M  V30 1812 H 176.791 -0.536847 0.519427 0
M  V30 1813 H 179.453 -0.815825 1.77004 0
M  V30 1814 H 178.549 -2.30706 2.10193 0
M  V30 1815 N 178.85 -1.27639 -0.924453 0
M  V30 1816 C 180.127 -1.04887 -1.651 0
M  V30 1817 C 180.507 0.415327 -2.06974 0
M  V30 1818 O 179.855 1.39923 -1.80648 0
M  V30 1819 C 180.065 -2.01348 -2.85061 0
M  V30 1820 C 181.413 -2.30899 -3.56329 0
M  V30 1821 O 182.437 -1.99348 -2.95193 0
M  V30 1822 O 181.296 -2.84699 -4.66485 0
M  V30 1823 H 178.39 -0.400083 -0.723784 0
M  V30 1824 H 180.936 -1.38916 -0.974703 0
M  V30 1825 H 179.708 -3.0008 -2.51133 0
M  V30 1826 H 179.331 -1.679 -3.6041 0
M  V30 1827 N 180.328 1.1314 -1.09713 0
M  V30 1828 C 181.258 2.20748 -0.761102 0
M  V30 1829 C 182.239 1.68061 0.262566 0
M  V30 1830 O 183.424 1.93765 0.129977 0
M  V30 1831 C 180.554 3.46812 -0.184054 0
M  V30 1832 C 179.508 4.12606 -1.13757 0
M  V30 1833 C 178.834 5.33031 -0.422083 0
M  V30 1834 C 180.134 4.59603 -2.48118 0
M  V30 1835 H 181.828 2.49113 -1.66082 0
M  V30 1836 H 179.374 1.19734 -0.799987 0
M  V30 1837 H 181.327 4.21353 0.0631215 0
M  V30 1838 H 180.051 3.17851 0.750868 0
M  V30 1839 H 178.71 3.40036 -1.37007 0
M  V30 1840 H 178.358 5.00335 0.517072 0
M  V30 1841 H 178.058 5.77999 -1.05788 0
M  V30 1842 H 179.582 6.10325 -0.183277 0
M  V30 1843 H 180.996 5.25552 -2.29059 0
M  V30 1844 H 179.393 5.15321 -3.07514 0
M  V30 1845 H 180.463 3.73971 -3.08665 0
M  V30 1846 N 181.806 0.884767 1.30421 0
M  V30 1847 C 182.753 0.349642 2.28136 0
M  V30 1848 C 183.723 -0.560061 1.56373 0
M  V30 1849 O 184.908 -0.488524 1.8444 0
M  V30 1850 C 182.048 -0.42999 3.42411 0
M  V30 1851 C 181.161 0.508907 4.28992 0
M  V30 1852 C 180.296 -0.286301 5.30428 0
M  V30 1853 C 179.335 0.648079 6.08659 0
M  V30 1854 N 178.472 -0.111792 7.02011 0
M  V30 1855 H 183.312 1.18807 2.73293 0
M  V30 1856 H 180.849 0.597231 1.3443 0
M  V30 1857 H 182.807 -0.897923 4.07423 0
M  V30 1858 H 181.437 -1.23299 2.98324 0
M  V30 1859 H 180.489 1.09533 3.64289 0
M  V30 1860 H 181.801 1.22475 4.8353 0
M  V30 1861 H 180.955 -0.816098 6.01186 0
M  V30 1862 H 179.694 -1.03536 4.76583 0
M  V30 1863 H 178.699 1.18951 5.36778 0
M  V30 1864 H 179.924 1.39623 6.64592 0
M  V30 1865 H 177.87 -0.843395 6.50556 0
M  V30 1866 H 177.787 0.544429 7.54037 0
M  V30 1867 H 179.055 -0.622339 7.77012 0
M  V30 1868 N 183.284 -1.43765 0.645699 0
M  V30 1869 C 184.512 -2.06253 0.163556 0
M  V30 1870 C 184.927 -1.48352 -1.16778 0
M  V30 1871 O 184.284 -0.611932 -1.71935 0
M  V30 1872 C 184.335 -3.61453 0.0583186 0
M  V30 1873 O 184.056 -4.172 1.33702 0
M  V30 1874 C 185.557 -4.41002 -0.450795 0
M  V30 1875 H 182.777 -0.665413 0.0864077 0
M  V30 1876 H 185.321 -1.84396 0.884222 0
M  V30 1877 H 183.476 -3.82522 -0.612865 0
M  V30 1878 H 183.89 -5.10791 1.19131 0
M  V30 1879 H 185.364 -5.49966 -0.473403 0
M  V30 1880 H 185.841 -4.13488 -1.48068 0
M  V30 1881 H 186.447 -4.24886 0.187637 0
M  V30 1882 N 184.763 -0.387143 -1.52771 0
M  V30 1883 C 186.012 0.19697 -2.00736 0
M  V30 1884 C 186.325 1.48082 -1.27793 0
M  V30 1885 O 187.531 2.14485 -1.66458 0
M  V30 1886 C 185.987 0.401568 -3.57653 0
M  V30 1887 C 185.595 -0.868907 -4.39493 0
M  V30 1888 C 187.339 0.942164 -4.13912 0
M  V30 1889 C 185.246 -0.632705 -5.88006 0
M  V30 1890 H 184.176 0.0773827 -0.750019 0
M  V30 1891 H 186.827 -0.50921 -1.76293 0
M  V30 1892 H 185.209 1.16954 -3.78335 0
M  V30 1893 H 186.383 -1.64133 -4.30577 0
M  V30 1894 H 184.698 -1.33429 -3.94443 0
M  V30 1895 H 187.295 1.13455 -5.22525 0
M  V30 1896 H 187.638 1.9106 -3.69867 0
M  V30 1897 H 188.171 0.233814 -3.97112 0
M  V30 1898 H 184.91 -1.57208 -6.36369 0
M  V30 1899 H 184.43 0.100825 -5.99715 0
M  V30 1900 H 186.109 -0.26642 -6.46451 0
M  V30 1901 N 186.241 1.57166 -0.116904 0
M  V30 1902 C 187.171 2.18222 0.830759 0
M  V30 1903 C 188.152 1.12167 1.27877 0
M  V30 1904 O 189.337 1.40394 1.34176 0
M  V30 1905 C 186.467 2.77996 2.08172 0
M  V30 1906 C 185.421 3.89614 1.77157 0
M  V30 1907 C 184.747 4.36187 3.09265 0
M  V30 1908 C 186.047 5.1181 1.04151 0
M  V30 1909 H 187.741 2.97664 0.321992 0
M  V30 1910 H 185.287 1.4318 0.153434 0
M  V30 1911 H 187.24 3.19366 2.74924 0
M  V30 1912 H 185.964 1.9584 2.6137 0
M  V30 1913 H 184.623 3.48816 1.12796 0
M  V30 1914 H 184.271 3.50893 3.60393 0
M  V30 1915 H 183.971 5.11455 2.89288 0
M  V30 1916 H 185.495 4.80207 3.77139 0
M  V30 1917 H 186.909 5.50214 1.61052 0
M  V30 1918 H 185.306 5.92648 0.942762 0
M  V30 1919 H 186.376 4.84892 0.0279022 0
M  V30 1920 N 187.719 -0.156864 1.56817 0
M  V30 1921 C 188.669 -1.19891 1.93934 0
M  V30 1922 C 189.653 -1.39061 0.809372 0
M  V30 1923 O 190.845 -1.40789 1.07273 0
M  V30 1924 C 187.974 -2.53493 2.31508 0
M  V30 1925 C 187.06 -2.37957 3.51052 0
M  V30 1926 N 187.451 -1.92158 4.67877 0
M  V30 1927 C 185.749 -2.68739 3.55943 0
M  V30 1928 C 186.45 -1.8943 5.49992 0
M  V30 1929 N 185.426 -2.32375 4.91429 0
M  V30 1930 H 189.228 -0.836746 2.81737 0
M  V30 1931 H 186.742 -0.365012 1.58245 0
M  V30 1932 H 188.739 -3.28811 2.56299 0
M  V30 1933 H 187.399 -2.905 1.45051 0
M  V30 1934 H 188.41 -1.62274 4.91821 0
M  V30 1935 H 185.087 -3.09687 2.80001 0
M  V30 1936 H 186.477 -1.55596 6.53636 0
M  V30 1937 N 189.197 -1.51736 -0.425897 0
M  V30 1938 C 190.425 -1.68794 -1.1965 0
M  V30 1939 C 190.84 -0.390164 -1.84725 0
M  V30 1940 O 190.197 0.632376 -1.71194 0
M  V30 1941 C 190.248 -2.81174 -2.27208 0
M  V30 1942 O 189.969 -4.05925 -1.64793 0
M  V30 1943 C 191.47 -3.09599 -3.17275 0
M  V30 1944 H 188.69 -0.566128 -0.360194 0
M  V30 1945 H 191.234 -1.98211 -0.503249 0
M  V30 1946 H 189.389 -2.54324 -2.9223 0
M  V30 1947 H 189.803 -4.68423 -2.35967 0
M  V30 1948 H 191.277 -3.91786 -3.88854 0
M  V30 1949 H 191.754 -2.22468 -3.78688 0
M  V30 1950 H 192.36 -3.38151 -2.57941 0
M  V30 1951 N 190.675 0.682077 -1.42076 0
M  V30 1952 C 191.623 1.81707 -1.45208 0
M  V30 1953 C 192.617 1.66183 -0.328591 0
M  V30 1954 O 193.823 1.7288 -0.501264 0
M  V30 1955 H 190.198 0.599014 -0.454628 0
M  V30 1956 H 192.169 1.76183 -2.40836 0
M  V30 1957 C 190.918 3.19816 -1.36428 0
M  V30 1958 H 190.241 3.32385 -2.22171 0
M  V30 1959 H 191.681 3.99272 -1.42681 0
M  V30 1960 C 190.14 3.36809 -0.078191 0
M  V30 1961 O 190.67 3.92124 0.87188 0
M  V30 1962 N 188.876 2.906 0.00229266 0
M  V30 1963 H 188.423 2.45772 -0.771616 0
M  V30 1964 H 188.381 3.02347 0.862179 0
M  V30 1965 N 192.153 1.28127 0.917671 0
M  V30 1966 C 193.086 1.06039 2.02067 0
M  V30 1967 C 194.064 -0.0223285 1.62585 0
M  V30 1968 O 195.248 0.124823 1.88086 0
M  V30 1969 C 192.375 0.610596 3.33151 0
M  V30 1970 C 191.421 1.68937 3.91615 0
M  V30 1971 S 192.254 3.28437 4.22953 0
M  V30 1972 C 193.41 2.85283 5.57103 0
M  V30 1973 H 193.643 1.99425 2.20493 0
M  V30 1974 H 191.176 1.12071 1.06205 0
M  V30 1975 H 193.134 0.357778 4.08938 0
M  V30 1976 H 191.795 -0.303364 3.12632 0
M  V30 1977 H 190.988 1.32619 4.86239 0
M  V30 1978 H 190.59 1.89478 3.2245 0
M  V30 1979 H 192.882 2.3121 6.36827 0
M  V30 1980 H 193.825 3.7869 5.98331 0
M  V30 1981 H 194.233 2.24118 5.18104 0
M  V30 1982 N 193.631 -1.12557 1.10312 0
M  V30 1983 C 195.042 -1.65574 0.862678 0
M  V30 1984 C 195.393 -1.86566 -0.607256 0
M  V30 1985 O 194.518 -1.59121 -1.46662 0
M  V30 1986 C 195.113 -3.00776 1.55947 0
M  V30 1987 C 193.672 -3.50748 1.36576 0
M  V30 1988 C 192.819 -2.25797 1.60968 0
M  V30 1989 H 195.77 -0.963552 1.26101 0
M  V30 1990 H 195.791 -3.67185 0.997753 0
M  V30 1991 H 195.303 -2.85465 2.62928 0
M  V30 1992 H 193.404 -3.71245 0.317531 0
M  V30 1993 H 193.517 -4.30289 2.10686 0
M  V30 1994 H 191.881 -2.32841 1.03234 0
M  V30 1995 H 192.664 -2.13043 2.69198 0
M  V30 1996 N 195.109 -0.891671 -1.2995 0
M  V30 1997 C 196.057 -0.353066 -2.29905 0
M  V30 1998 C 197.051 0.543509 -1.60444 0
M  V30 1999 O 198.257 0.4272 -1.74857 0
M  V30 2000 H 194.632 -0.095531 -0.745907 0
M  V30 2001 H 196.603 -1.20961 -2.72784 0
M  V30 2002 C 195.352 0.411475 -3.45257 0
M  V30 2003 H 194.675 -0.269182 -3.98893 0
M  V30 2004 H 196.115 0.753328 -4.17254 0
M  V30 2005 C 194.574 1.6111 -2.9588 0
M  V30 2006 O 195.104 2.71045 -2.96475 0
M  V30 2007 N 193.31 1.45054 -2.51809 0
M  V30 2008 H 192.857 0.556175 -2.51524 0
M  V30 2009 H 192.815 2.25453 -2.1913 0
M  V30 2010 N 196.587 1.43421 -0.653314 0
M  V30 2011 C 197.833 2.02111 -0.166992 0
M  V30 2012 C 198.166 1.51423 1.21592 0
M  V30 2013 O 197.441 0.707389 1.8118 0
M  V30 2014 C 197.724 3.5966 -0.177948 0
M  V30 2015 C 197.577 4.20579 -1.59478 0
M  V30 2016 C 198.896 4.37413 0.4856 0
M  V30 2017 H 196.015 0.734374 -0.0621557 0
M  V30 2018 H 198.657 1.70717 -0.834016 0
M  V30 2019 H 196.807 3.86537 0.390032 0
M  V30 2020 H 198.479 4.04732 -2.21336 0
M  V30 2021 H 196.722 3.77226 -2.14204 0
M  V30 2022 H 197.393 5.29665 -1.5543 0
M  V30 2023 H 199.869 4.161 0.00234528 0
M  V30 2024 H 198.745 5.47075 0.447207 0
M  V30 2025 H 199.006 4.13672 1.55974 0
M  V30 2026 N 198.065 0.39524 1.52563 0
M  V30 2027 C 199.013 -0.451859 2.28169 0
M  V30 2028 C 200.007 -1.05792 1.32304 0
M  V30 2029 O 201.213 -0.997718 1.49818 0
M  V30 2030 H 197.588 -0.164481 0.733792 0
M  V30 2031 H 199.559 0.207199 2.9768 0
M  V30 2032 C 198.308 -1.56385 3.10546 0
M  V30 2033 H 197.631 -1.10682 3.84174 0
M  V30 2034 H 199.071 -2.13067 3.66577 0
M  V30 2035 C 197.53 -2.52328 2.23231 0
M  V30 2036 O 198.06 -3.5588 1.86312 0
M  V30 2037 N 196.266 -2.22209 1.87274 0
M  V30 2038 H 195.813 -1.38033 2.17496 0
M  V30 2039 H 195.771 -2.86652 1.29143 0
M  V30 2040 N 199.544 -1.57102 0.125237 0
M  V30 2041 C 200.454 -2.19191 -0.8362 0
M  V30 2042 C 201.47 -1.16985 -1.28805 0
M  V30 2043 O 202.646 -1.49479 -1.34974 0
M  V30 2044 C 199.711 -2.78407 -2.06617 0
M  V30 2045 C 198.772 -3.9567 -1.66565 0
M  V30 2046 C 198.005 -4.52052 -2.83698 0
M  V30 2047 O 198.228 -4.07326 -3.99302 0
M  V30 2048 O 197.162 -5.42645 -2.60423 0
M  V30 2049 H 200.988 -3.01816 -0.337776 0
M  V30 2050 H 198.573 -1.4906 -0.100695 0
M  V30 2051 H 200.455 -3.16129 -2.7864 0
M  V30 2052 H 199.13 -1.9881 -2.55453 0
M  V30 2053 H 198.037 -3.62705 -0.916296 0
M  V30 2054 H 199.37 -4.76722 -1.22464 0
M  V30 2055 N 201.022 0.148545 -1.56898 0
M  V30 2056 C 202.269 0.861418 -1.83264 0
M  V30 2057 C 202.597 1.81239 -0.705883 0
M  V30 2058 O 201.852 1.93305 0.305212 0
M  V30 2059 C 202.151 1.67064 -3.1595 0
M  V30 2060 C 201.817 0.866591 -4.42494 0
M  V30 2061 C 200.479 0.644762 -4.76861 0
M  V30 2062 C 202.831 0.30418 -5.20312 0
M  V30 2063 C 200.159 -0.15021 -5.86508 0
M  V30 2064 C 202.511 -0.477824 -6.30793 0
M  V30 2065 C 201.175 -0.710244 -6.63711 0
M  V30 2066 H 200.445 0.315215 -0.670612 0
M  V30 2067 H 203.092 0.125142 -1.91091 0
M  V30 2068 H 201.397 2.47698 -3.03567 0
M  V30 2069 H 203.094 2.22566 -3.33565 0
M  V30 2070 H 199.684 1.04955 -4.15551 0
M  V30 2071 H 203.868 0.462844 -4.94137 0
M  V30 2072 H 199.124 -0.339796 -6.10455 0
M  V30 2073 H 203.298 -0.92076 -6.90286 0
M  V30 2074 H 200.925 -1.3281 -7.48509 0
M  V30 2075 N 202.5 1.5196 0.417844 0
M  V30 2076 C 203.433 1.69387 1.52916 0
M  V30 2077 C 204.411 0.541419 1.53321 0
M  V30 2078 O 205.595 0.767695 1.72159 0
M  V30 2079 C 202.722 1.72525 2.91467 0
M  V30 2080 C 201.768 2.93967 3.09008 0
M  V30 2081 S 202.601 4.54461 2.83242 0
M  V30 2082 C 203.757 4.60372 4.24038 0
M  V30 2083 H 203.99 2.63382 1.37903 0
M  V30 2084 H 201.523 1.41889 0.608845 0
M  V30 2085 H 203.481 1.75018 3.7132 0
M  V30 2086 H 202.142 0.796733 3.03827 0
M  V30 2087 H 201.335 2.92619 4.10353 0
M  V30 2088 H 200.937 2.89316 2.37007 0
M  V30 2089 H 203.229 4.37213 5.17544 0
M  V30 2090 H 204.172 5.62273 4.30412 0
M  V30 2091 H 204.58 3.89492 4.08602 0
M  V30 2092 N 203.978 -0.674533 1.42435 0
M  V30 2093 C 205.225 -1.43459 1.42919 0
M  V30 2094 C 205.553 -1.94446 0.0457312 0
M  V30 2095 O 204.808 -1.7132 -0.94593 0
M  V30 2096 C 205.107 -2.64767 2.40069 0
M  V30 2097 C 204.773 -2.3232 3.86443 0
M  V30 2098 C 203.435 -2.23182 4.26314 0
M  V30 2099 C 205.787 -2.05977 4.78773 0
M  V30 2100 C 203.115 -1.85827 5.56494 0
M  V30 2101 C 205.467 -1.70125 6.09295 0
M  V30 2102 C 204.131 -1.59498 6.48164 0
M  V30 2103 H 203.401 -0.524952 0.522978 0
M  V30 2104 H 206.048 -0.769097 1.75377 0
M  V30 2105 H 204.353 -3.36349 2.00939 0
M  V30 2106 H 206.05 -3.22949 2.37707 0
M  V30 2107 H 202.64 -2.40334 3.54877 0
M  V30 2108 H 206.824 -2.11969 4.48757 0
M  V30 2109 H 202.08 -1.76168 5.8547 0
M  V30 2110 H 206.254 -1.48767 6.80324 0
M  V30 2111 H 203.881 -1.30322 7.48946 0
M  V30 2112 N 205.456 -1.28612 -0.910864 0
M  V30 2113 C 206.684 -1.18792 -1.69399 0
M  V30 2114 C 207.099 0.253039 -1.87097 0
M  V30 2115 O 206.456 1.17071 -1.40003 0
M  V30 2116 C 206.507 -1.88511 -3.08457 0
M  V30 2117 O 206.228 -3.26979 -2.91576 0
M  V30 2118 C 207.729 -1.85029 -4.02839 0
M  V30 2119 H 204.949 -0.412233 -0.529438 0
M  V30 2120 H 207.493 -1.69788 -1.13984 0
M  V30 2121 H 205.648 -1.41379 -3.60681 0
M  V30 2122 H 206.062 -3.61936 -3.79608 0
M  V30 2123 H 207.536 -2.38395 -4.97867 0
M  V30 2124 H 208.013 -0.823303 -4.31414 0
M  V30 2125 H 208.619 -2.31853 -3.56545 0
M  V30 2126 N 206.934 1.1197 -1.10907 0
M  V30 2127 C 207.882 2.19927 -0.757303 0
M  V30 2128 C 208.876 1.67564 0.248747 0
M  V30 2129 O 210.082 1.79672 0.108605 0
M  V30 2130 H 206.457 0.716925 -0.226987 0
M  V30 2131 H 208.428 2.46847 -1.67658 0
M  V30 2132 C 207.177 3.47061 -0.210671 0
M  V30 2133 H 206.5 3.87703 -0.976049 0
M  V30 2134 H 207.94 4.24 -0.0026584 0
M  V30 2135 C 206.399 3.19864 1.05777 0
M  V30 2136 O 206.929 3.40049 2.13845 0
M  V30 2137 N 205.135 2.73636 0.978349 0
M  V30 2138 H 204.682 2.5741 0.0988246 0
M  V30 2139 H 204.64 2.55815 1.82773 0
M  V30 2140 N 208.412 0.89855 1.29475 0
M  V30 2141 C 209.359 0.373819 2.27753 0
M  V30 2142 C 210.329 -0.543444 1.56958 0
M  V30 2143 O 211.514 -0.468934 1.84948 0
M  V30 2144 C 208.654 -0.393648 3.42848 0
M  V30 2145 C 207.767 0.554379 4.28428 0
M  V30 2146 C 206.902 -0.230026 5.30702 0
M  V30 2147 C 205.941 0.712599 6.07938 0
M  V30 2148 N 205.078 -0.0373283 7.0209 0
M  V30 2149 H 209.918 1.21699 2.72017 0
M  V30 2150 H 207.455 0.611456 1.33789 0
M  V30 2151 H 209.413 -0.85466 4.08352 0
M  V30 2152 H 208.043 -1.20128 2.99615 0
M  V30 2153 H 207.095 1.13391 3.63107 0
M  V30 2154 H 208.407 1.27597 4.82204 0
M  V30 2155 H 207.561 -0.752288 6.02018 0
M  V30 2156 H 206.3 -0.984758 4.77654 0
M  V30 2157 H 205.305 1.24637 5.35486 0
M  V30 2158 H 206.53 1.46664 6.63074 0
M  V30 2159 H 204.476 -0.774348 6.51414 0
M  V30 2160 H 204.393 0.624374 7.53417 0
M  V30 2161 H 205.661 -0.539891 7.77628 0
M  V30 2162 N 209.89 -1.43072 0.660911 0
M  V30 2163 C 211.137 -2.01721 0.177445 0
M  V30 2164 C 211.465 -1.5218 -1.21126 0
M  V30 2165 O 210.72 -0.708659 -1.82419 0
M  V30 2166 C 211.019 -3.57103 0.145563 0
M  V30 2167 C 210.685 -4.26021 1.47705 0
M  V30 2168 C 209.347 -4.44563 1.84165 0
M  V30 2169 C 211.699 -4.64983 2.35458 0
M  V30 2170 C 209.027 -4.99334 3.0803 0
M  V30 2171 C 211.379 -5.21127 3.58622 0
M  V30 2172 C 210.043 -5.37884 3.95268 0
M  V30 2173 H 209.313 -0.73815 0.0649317 0
M  V30 2174 H 211.96 -1.71446 0.853144 0
M  V30 2175 H 210.265 -3.86965 -0.61361 0
M  V30 2176 H 211.962 -4.00248 -0.2455 0
M  V30 2177 H 208.552 -4.11939 1.18339 0
M  V30 2178 H 212.736 -4.50343 2.08579 0
M  V30 2179 H 207.992 -5.10493 3.36462 0
M  V30 2180 H 212.166 -5.50262 4.26831 0
M  V30 2181 H 209.793 -5.80089 4.91325 0
M  V30 2182 N 211.368 -0.403325 -1.52352 0
M  V30 2183 C 212.315 0.425011 -2.26853 0
M  V30 2184 C 213.285 1.04598 -1.29029 0
M  V30 2185 O 214.47 1.07135 -1.57882 0
M  V30 2186 C 211.61 1.53888 -3.08889 0
M  V30 2187 C 210.723 0.939396 -4.21663 0
M  V30 2188 C 209.858 2.02547 -4.91068 0
M  V30 2189 C 208.897 1.40263 -5.95813 0
M  V30 2190 N 208.034 2.4286 -6.58759 0
M  V30 2191 H 212.874 -0.21674 -2.97211 0
M  V30 2192 H 210.411 -0.118722 -1.4662 0
M  V30 2193 H 212.369 2.19558 -3.54753 0
M  V30 2194 H 210.999 2.15074 -2.40714 0
M  V30 2195 H 210.051 0.171898 -3.80011 0
M  V30 2196 H 211.363 0.44436 -4.96817 0
M  V30 2197 H 210.517 2.75958 -5.40308 0
M  V30 2198 H 209.256 2.55415 -4.15469 0
M  V30 2199 H 208.261 0.653833 -5.45898 0
M  V30 2200 H 209.486 0.881719 -6.73352 0
M  V30 2201 H 207.432 2.94871 -5.85992 0
M  V30 2202 H 207.349 1.98152 -7.2957 0
M  V30 2203 H 208.617 3.15858 -7.12639 0
M  V30 2204 N 212.846 1.57033 -0.133567 0
M  V30 2205 C 213.809 2.14897 0.796995 0
M  V30 2206 C 214.809 1.0874 1.18458 0
M  V30 2207 O 215.999 1.34446 1.1077 0
M  V30 2208 C 213.131 2.70112 2.07973 0
M  V30 2209 H 214.324 2.98457 0.293873 0
M  V30 2210 H 211.877 1.55871 0.115787 0
M  V30 2211 H 212.612 1.9018 2.62682 0
M  V30 2212 H 212.397 3.47764 1.81115 0
M  V30 2213 H 213.887 3.14738 2.74462 0
M  V30 2214 N 214.325 -0.140222 1.56975 0
M  V30 2215 C 215.741 -0.493088 1.51792 0
M  V30 2216 C 215.941 -1.83013 0.843116 0
M  V30 2217 O 214.997 -2.49041 0.416493 0
M  V30 2218 C 216.31 -0.497144 2.96562 0
M  V30 2219 C 217.858 -0.582186 3.07538 0
M  V30 2220 C 218.333 -0.616838 4.53827 0
M  V30 2221 N 219.824 -0.678873 4.58198 0
M  V30 2222 C 220.559 -0.726782 5.68775 0
M  V30 2223 N 220.055 -0.733623 6.88905 0
M  V30 2224 N 221.848 -0.768179 5.56826 0
M  V30 2225 H 213.999 0.736108 1.99237 0
M  V30 2226 H 216.262 0.269182 0.90898 0
M  V30 2227 H 215.968 0.417217 3.49217 0
M  V30 2228 H 215.842 -1.33263 3.52875 0
M  V30 2229 H 218.229 -1.48697 2.54899 0
M  V30 2230 H 218.31 0.280581 2.54257 0
M  V30 2231 H 217.954 0.283812 5.07106 0
M  V30 2232 H 217.884 -1.49619 5.04898 0
M  V30 2233 H 220.375 -0.68061 3.7172 0
M  V30 2234 H 220.688 -0.772215 7.68932 0
M  V30 2235 H 219.033 -0.701389 6.91452 0
M  V30 2236 H 222.224 -0.760051 4.61888 0
M  V30 2237 H 222.397 -0.80205 6.43017 0
M  V30 2238 N 215.803 -1.52179 -0.40978 0
M  V30 2239 C 217.049 -1.66453 -1.15851 0
M  V30 2240 C 217.382 -0.392972 -1.90182 0
M  V30 2241 O 216.657 0.608579 -1.84734 0
M  V30 2242 C 216.94 -2.88612 -2.15349 0
M  V30 2243 C 216.793 -4.25815 -1.44918 0
M  V30 2244 C 218.112 -3.06294 -3.16026 0
M  V30 2245 H 215.231 -0.60575 -0.419805 0
M  V30 2246 H 217.873 -1.84732 -0.444314 0
M  V30 2247 H 216.023 -2.73158 -2.76255 0
M  V30 2248 H 217.695 -4.52995 -0.871365 0
M  V30 2249 H 215.938 -4.27247 -0.751159 0
M  V30 2250 H 216.609 -5.07337 -2.17516 0
M  V30 2251 H 219.085 -3.20641 -2.65195 0
M  V30 2252 H 217.961 -3.93283 -3.8291 0
M  V30 2253 H 218.222 -2.19579 -3.83715 0
M  V30 2254 N 217.281 0.66697 -1.42791 0
M  V30 2255 C 218.214 1.79177 -1.41318 0
M  V30 2256 C 219.192 1.60234 -0.276401 0
M  V30 2257 O 220.376 1.82602 -0.46785 0
M  V30 2258 C 217.503 3.16289 -1.21157 0
M  V30 2259 C 216.549 3.53964 -2.37932 0
M  V30 2260 S 217.382 3.55501 -4.00474 0
M  V30 2261 C 218.538 4.95292 -3.8267 0
M  V30 2262 H 218.771 1.80153 -2.365 0
M  V30 2263 H 216.304 0.838357 -1.29657 0
M  V30 2264 H 218.262 3.95428 -1.10212 0
M  V30 2265 H 216.923 3.1289 -0.275481 0
M  V30 2266 H 216.116 4.53646 -2.19594 0
M  V30 2267 H 215.718 2.82204 -2.45432 0
M  V30 2268 H 218.01 5.83584 -3.44145 0
M  V30 2269 H 218.953 5.18679 -4.82055 0
M  V30 2270 H 219.361 4.68179 -3.15386 0
M  V30 2271 N 218.759 1.29093 0.90403 0
M  V30 2272 C 220.005 1.16986 1.65656 0
M  V30 2273 C 220.338 -0.278925 1.92186 0
M  V30 2274 O 219.613 -1.2019 1.5292 0
M  V30 2275 C 219.896 1.97908 3.0084 0
M  V30 2276 C 219.749 3.50903 2.81403 0
M  V30 2277 C 221.068 1.80208 4.01513 0
M  V30 2278 H 218.187 0.426346 0.601164 0
M  V30 2279 H 220.829 1.58518 1.04747 0
M  V30 2280 H 218.979 1.62616 3.52829 0
M  V30 2281 H 220.651 3.96153 2.36348 0
M  V30 2282 H 218.894 3.76045 2.1627 0
M  V30 2283 H 219.565 4.02791 3.77443 0
M  V30 2284 H 222.041 2.11025 3.58619 0
M  V30 2285 H 220.917 2.39184 4.94047 0
M  V30 2286 H 221.178 0.756119 4.35586 0
M  V30 2287 N 220.237 -1.11381 1.11499 0
M  V30 2288 C 221.462 -1.87475 0.887019 0
M  V30 2289 C 221.887 -1.79639 -0.557796 0
M  V30 2290 O 221.245 -1.15924 -1.39396 0
M  V30 2291 C 221.293 -3.34213 1.35403 0
M  V30 2292 O 220.397 -4.0903 0.526146 0
M  V30 2293 H 219.738 -0.582099 0.319463 0
M  V30 2294 H 222.268 -1.40785 1.48461 0
M  V30 2295 H 222.278 -3.8506 1.34881 0
M  V30 2296 H 220.953 -3.39232 2.40612 0
M  V30 2297 H 219.53 -3.68082 0.597522 0
M  V30 2298 N 221.715 -0.905404 -1.28997 0
M  V30 2299 C 223.131 -0.60233 -1.47798 0
M  V30 2300 C 223.331 0.854645 -1.82478 0
M  V30 2301 O 222.387 1.63439 -1.92468 0
M  V30 2302 C 223.7 -1.53306 -2.58685 0
M  V30 2303 C 225.248 -1.53887 -2.72558 0
M  V30 2304 C 225.723 -2.45602 -3.86579 0
M  V30 2305 N 227.214 -2.43681 -3.93921 0
M  V30 2306 C 227.949 -3.11347 -4.81509 0
M  V30 2307 N 227.445 -3.88313 -5.73746 0
M  V30 2308 N 229.238 -3.00476 -4.75048 0
M  V30 2309 H 221.389 -1.84765 -1.04764 0
M  V30 2310 H 223.652 -0.792025 -0.520961 0
M  V30 2311 H 223.358 -2.57141 -2.39941 0
M  V30 2312 H 223.232 -1.25787 -3.55609 0
M  V30 2313 H 225.619 -0.507941 -2.90696 0
M  V30 2314 H 225.7 -1.85447 -1.76191 0
M  V30 2315 H 225.344 -3.48792 -3.69197 0
M  V30 2316 H 225.274 -2.11349 -4.82327 0
M  V30 2317 H 227.765 -1.87767 -3.27951 0
M  V30 2318 H 228.078 -4.36985 -6.37389 0
M  V30 2319 H 226.423 -3.92419 -5.73614 0
M  V30 2320 H 229.614 -2.39858 -4.01977 0
M  V30 2321 H 229.787 -3.53485 -5.43095 0
M  V30 2322 N 223.193 1.4272 -0.668489 0
M  V30 2323 C 224.418 2.06484 -0.194758 0
M  V30 2324 C 224.843 1.49862 1.13679 0
M  V30 2325 O 224.201 0.614582 1.70565 0
M  V30 2326 C 224.249 3.60353 -0.133546 0
M  V30 2327 O 223.353 4.02464 0.899806 0
M  V30 2328 H 222.694 0.656137 -0.10188 0
M  V30 2329 H 225.224 1.82964 -0.915722 0
M  V30 2330 H 225.234 4.07976 0.0447041 0
M  V30 2331 H 223.909 4.00938 -1.1055 0
M  V30 2332 H 222.486 3.66402 0.693109 0
M  V30 2333 N 224.671 0.411399 1.52136 0
M  V30 2334 C 225.601 -0.404015 2.29978 0
M  V30 2335 C 226.582 -1.04412 1.34284 0
M  V30 2336 O 227.767 -1.0527 1.63192 0
M  V30 2337 C 224.897 -1.5197 3.12286 0
M  V30 2338 C 223.851 -1.00448 4.16046 0
M  V30 2339 C 223.177 -2.21393 4.86712 0
M  V30 2340 C 224.477 -0.0569336 5.22269 0
M  V30 2341 H 226.171 0.245529 2.98392 0
M  V30 2342 H 223.717 0.119525 1.43503 0
M  V30 2343 H 225.67 -2.09715 3.6551 0
M  V30 2344 H 224.394 -2.19716 2.41646 0
M  V30 2345 H 223.053 -0.449421 3.63835 0
M  V30 2346 H 222.701 -2.87699 4.12599 0
M  V30 2347 H 222.401 -1.87571 5.56858 0
M  V30 2348 H 223.925 -2.7974 5.4275 0
M  V30 2349 H 225.339 -0.54325 5.7072 0
M  V30 2350 H 223.736 0.192594 5.99791 0
M  V30 2351 H 224.806 0.887663 4.76706 0
M  V30 2352 N 226.149 -1.5696 0.141893 0
M  V30 2353 C 227.377 -2.00322 -0.517579 0
M  V30 2354 C 227.792 -1.02193 -1.58752 0
M  V30 2355 O 227.149 -0.0181619 -1.82491 0
M  V30 2356 C 227.2 -3.43618 -1.12289 0
M  V30 2357 O 226.921 -4.37995 -0.0956929 0
M  V30 2358 C 228.422 -4.02231 -1.86347 0
M  V30 2359 H 225.642 -0.657243 -0.135177 0
M  V30 2360 H 228.186 -2.03146 0.234973 0
M  V30 2361 H 226.341 -3.41662 -1.82609 0
M  V30 2362 H 226.755 -5.21729 -0.538469 0
M  V30 2363 H 228.229 -5.04509 -2.23997 0
M  V30 2364 H 228.706 -3.42655 -2.74744 0
M  V30 2365 H 229.312 -4.07802 -1.20737 0
M  V30 2366 N 227.627 0.131896 -1.57047 0
M  V30 2367 C 228.574 1.16236 -1.99393 0
M  V30 2368 C 229.544 1.41863 -0.863943 0
M  V30 2369 O 230.729 1.53946 -1.12718 0
M  V30 2370 C 227.869 2.48708 -2.39245 0
M  V30 2371 C 226.982 2.30127 -3.65603 0
M  V30 2372 C 226.117 3.55738 -3.94492 0
M  V30 2373 C 225.156 3.32259 -5.14073 0
M  V30 2374 N 224.293 4.50039 -5.38896 0
M  V30 2375 H 229.133 0.794251 -2.87221 0
M  V30 2376 H 226.67 0.380707 -1.42088 0
M  V30 2377 H 228.628 3.25969 -2.60384 0
M  V30 2378 H 227.258 2.83437 -1.54478 0
M  V30 2379 H 226.31 1.43845 -3.52154 0
M  V30 2380 H 227.622 2.08746 -4.5302 0
M  V30 2381 H 226.776 4.41423 -4.1621 0
M  V30 2382 H 225.515 3.80138 -3.05526 0
M  V30 2383 H 224.52 2.44963 -4.92212 0
M  V30 2384 H 225.745 3.09242 -6.04604 0
M  V30 2385 H 223.691 4.74584 -4.52886 0
M  V30 2386 H 223.608 4.31716 -6.2061 0
M  V30 2387 H 224.876 5.36895 -5.65123 0
M  V30 2388 N 229.106 1.52395 0.401703 0
M  V30 2389 C 230.383 1.57387 1.16141 0
M  V30 2390 C 230.763 0.359359 2.08019 0
M  V30 2391 O 230.111 -0.65326 2.18963 0
M  V30 2392 C 230.321 2.90631 1.93221 0
M  V30 2393 C 231.669 3.43904 2.49028 0
M  V30 2394 O 232.693 2.92421 2.03393 0
M  V30 2395 O 231.552 4.33823 3.32356 0
M  V30 2396 H 228.646 0.634262 0.530698 0
M  V30 2397 H 231.192 1.64725 0.407883 0
M  V30 2398 H 229.964 3.70473 1.25958 0
M  V30 2399 H 229.587 2.8662 2.75563 0
M  V30 2400 N 230.584 -0.659388 1.43143 0
M  V30 2401 C 231.531 -1.77249 1.47822 0
M  V30 2402 C 232.501 -1.62818 0.328558 0
M  V30 2403 O 233.686 -1.83151 0.534838 0
M  V30 2404 C 230.826 -3.15371 1.40126 0
M  V30 2405 C 229.939 -3.4098 2.65249 0
M  V30 2406 C 229.074 -4.68915 2.49584 0
M  V30 2407 C 228.113 -4.87608 3.70006 0
M  V30 2408 N 227.25 -6.06796 3.53189 0
M  V30 2409 H 232.09 -1.72584 2.42938 0
M  V30 2410 H 229.627 -0.842297 1.20598 0
M  V30 2411 H 231.585 -3.9521 1.33659 0
M  V30 2412 H 230.215 -3.19121 0.485964 0
M  V30 2413 H 229.267 -2.55282 2.8202 0
M  V30 2414 H 230.579 -3.50681 3.54717 0
M  V30 2415 H 229.733 -5.56871 2.4079 0
M  V30 2416 H 228.472 -4.61524 1.5763 0
M  V30 2417 H 227.477 -3.9809 3.79215 0
M  V30 2418 H 228.702 -4.96834 4.62961 0
M  V30 2419 H 226.648 -6.00549 2.63965 0
M  V30 2420 H 226.565 -6.17428 4.36255 0
M  V30 2421 H 227.833 -6.9739 3.48236 0
M  V30 2422 N 232.062 -1.29571 -0.897171 0
M  V30 2423 C 232.994 -1.10724 -2.00681 0
M  V30 2424 C 234.007 -0.0540026 -1.6271 0
M  V30 2425 O 235.196 -0.298783 -1.75982 0
M  V30 2426 C 232.296 -0.663912 -3.32333 0
M  V30 2427 C 231.469 -1.79622 -3.98816 0
M  V30 2428 C 230.528 -1.34349 -5.0876 0
M  V30 2429 O 229.554 -2.04864 -5.31055 0
M  V30 2430 N 230.756 -0.215764 -5.80099 0
M  V30 2431 H 233.521 -2.06291 -2.17403 0
M  V30 2432 H 231.082 -1.21544 -1.06951 0
M  V30 2433 H 233.074 -0.344295 -4.03233 0
M  V30 2434 H 231.644 0.199375 -3.11964 0
M  V30 2435 H 230.864 -2.28459 -3.21248 0
M  V30 2436 H 232.152 -2.55535 -4.39976 0
M  V30 2437 H 231.55 0.372091 -5.64475 0
M  V30 2438 H 230.107 0.0444707 -6.51785 0
M  V30 2439 N 233.54 1.10788 -1.12088 0
M  V30 2440 C 234.786 1.82942 -0.875226 0
M  V30 2441 C 235.119 1.84779 0.597538 0
M  V30 2442 O 234.394 1.30578 1.44152 0
M  V30 2443 C 234.677 3.29789 -1.44606 0
M  V30 2444 C 234.53 3.36307 -2.98693 0
M  V30 2445 C 235.849 4.26064 -1.10261 0
M  V30 2446 H 232.968 0.664195 -0.319397 0
M  V30 2447 H 235.61 1.29867 -1.38689 0
M  V30 2448 H 233.76 3.75118 -1.01089 0
M  V30 2449 H 235.432 2.99487 -3.50864 0
M  V30 2450 H 233.675 2.76318 -3.34411 0
M  V30 2451 H 234.346 4.39694 -3.33726 0
M  V30 2452 H 236.822 3.88951 -1.4784 0
M  V30 2453 H 235.698 5.27183 -1.52869 0
M  V30 2454 H 235.959 4.42098 -0.0142953 0
M  V30 2455 N 235.018 0.912232 1.28515 0
M  V30 2456 C 235.928 0.404506 2.31086 0
M  V30 2457 C 236.944 -0.50707 1.66448 0
M  V30 2458 O 238.12 -0.393624 1.97516 0
M  V30 2459 C 235.185 -0.348572 3.44943 0
M  V30 2460 C 234.246 0.59604 4.25142 0
M  V30 2461 C 233.479 -0.121194 5.33562 0
M  V30 2462 O 233.702 -1.34317 5.5436 0
M  V30 2463 O 232.636 0.542716 5.99448 0
M  V30 2464 H 236.462 1.25579 2.76521 0
M  V30 2465 H 234.047 0.676998 1.33181 0
M  V30 2466 H 235.929 -0.77395 4.14232 0
M  V30 2467 H 234.604 -1.17571 3.01594 0
M  V30 2468 H 233.511 1.07079 3.58448 0
M  V30 2469 H 234.844 1.38995 4.72167 0
M  V30 2470 N 236.496 -1.42363 0.676048 0
M  V30 2471 C 237.426 -2.33497 0.0124832 0
M  V30 2472 C 238.407 -1.50748 -0.787981 0
M  V30 2473 O 239.592 -1.79346 -0.744884 0
M  V30 2474 C 236.722 -3.34377 -0.938582 0
M  V30 2475 C 235.676 -4.27289 -0.246622 0
M  V30 2476 C 235.002 -5.18386 -1.31071 0
M  V30 2477 C 236.302 -5.14916 0.875125 0
M  V30 2478 H 237.996 -2.89233 0.773593 0
M  V30 2479 H 235.542 -1.39073 0.37346 0
M  V30 2480 H 237.495 -3.97044 -1.41188 0
M  V30 2481 H 236.219 -2.76947 -1.73113 0
M  V30 2482 H 234.878 -3.66018 0.206456 0
M  V30 2483 H 234.526 -4.57282 -2.09528 0
M  V30 2484 H 234.226 -5.81378 -0.852839 0
M  V30 2485 H 235.75 -5.83929 -1.78492 0
M  V30 2486 H 237.164 -5.71262 0.482983 0
M  V30 2487 H 235.561 -5.86747 1.25887 0
M  V30 2488 H 236.631 -4.53242 1.72335 0
M  V30 2489 N 237.974 -0.419461 -1.51915 0
M  V30 2490 C 238.921 0.400927 -2.27291 0
M  V30 2491 C 239.891 1.03224 -1.30131 0
M  V30 2492 O 241.076 1.05455 -1.59009 0
M  V30 2493 C 238.216 1.50603 -3.10504 0
M  V30 2494 C 237.329 0.89462 -4.22635 0
M  V30 2495 C 236.464 1.97328 -4.93189 0
M  V30 2496 C 235.503 1.33935 -5.97267 0
M  V30 2497 N 234.64 2.3586 -6.61298 0
M  V30 2498 H 239.48 -0.248251 -2.96964 0
M  V30 2499 H 237.017 -0.134266 -1.46486 0
M  V30 2500 H 238.975 2.15783 -3.57062 0
M  V30 2501 H 237.605 2.12509 -2.42981 0
M  V30 2502 H 236.657 0.131583 -3.80172 0
M  V30 2503 H 237.969 0.391641 -4.9726 0
M  V30 2504 H 237.123 2.70211 -5.43204 0
M  V30 2505 H 235.862 2.50994 -4.18155 0
M  V30 2506 H 234.867 0.595896 -5.46561 0
M  V30 2507 H 236.092 0.810252 -6.74249 0
M  V30 2508 H 234.038 2.88639 -5.89087 0
M  V30 2509 H 233.955 1.90403 -7.3163 0
M  V30 2510 H 235.223 3.08282 -7.15949 0
M  V30 2511 N 239.452 1.56882 -0.150215 0
M  V30 2512 C 240.682 2.00302 0.506213 0
M  V30 2513 C 241.09 1.02934 1.58749 0
M  V30 2514 O 240.433 0.0188384 1.8369 0
M  V30 2515 C 240.495 3.40156 1.16337 0
M  V30 2516 C 240.159 4.56439 0.226311 0
M  V30 2517 C 241.156 5.17012 -0.547265 0
M  V30 2518 C 238.841 5.02136 0.128279 0
M  V30 2519 C 240.835 6.21693 -1.40629 0
M  V30 2520 C 238.522 6.06672 -0.734345 0
M  V30 2521 C 239.52 6.6632 -1.50023 0
M  V30 2522 O 239.208 7.68831 -2.34848 0
M  V30 2523 H 238.94 0.662182 0.135984 0
M  V30 2524 H 241.494 2.03961 -0.242746 0
M  V30 2525 H 239.724 3.33346 1.96004 0
M  V30 2526 H 241.413 3.67663 1.71985 0
M  V30 2527 H 242.179 4.82603 -0.48158 0
M  V30 2528 H 238.058 4.55435 0.714157 0
M  V30 2529 H 241.602 6.68179 -2.00455 0
M  V30 2530 H 237.499 6.40507 -0.801309 0
M  V30 2531 H 238.267 7.86065 -2.28131 0
M  V30 2532 N 240.93 -0.123565 1.57115 0
M  V30 2533 C 241.84 -1.17074 2.033 0
M  V30 2534 C 242.856 -1.4561 0.952559 0
M  V30 2535 O 244.032 -1.56817 1.26374 0
M  V30 2536 C 241.097 -2.47857 2.42421 0
M  V30 2537 C 240.158 -2.26758 3.64526 0
M  V30 2538 C 239.391 -3.51305 4.01771 0
M  V30 2539 O 239.614 -4.5843 3.39409 0
M  V30 2540 O 238.548 -3.42578 4.94898 0
M  V30 2541 H 242.374 -0.808555 2.92739 0
M  V30 2542 H 239.959 -0.334027 1.45618 0
M  V30 2543 H 241.841 -3.2492 2.68338 0
M  V30 2544 H 240.516 -2.83558 1.5613 0
M  V30 2545 H 239.423 -1.47569 3.43765 0
M  V30 2546 H 240.756 -1.95963 4.51508 0
M  V30 2547 N 242.408 -1.52605 -0.393616 0
M  V30 2548 C 243.654 -1.68624 -1.13743 0
M  V30 2549 C 244.009 -0.418687 -1.87789 0
M  V30 2550 O 243.302 0.58747 -1.82371 0
M  V30 2551 C 243.496 -2.85721 -2.14705 0
M  V30 2552 C 243.325 -4.23742 -1.50575 0
M  V30 2553 C 242.095 -4.89033 -1.2718 0
M  V30 2554 C 244.293 -5.05293 -0.958311 0
M  V30 2555 N 242.275 -6.11048 -0.591058 0
M  V30 2556 C 243.646 -6.18673 -0.405367 0
M  V30 2557 C 245.701 -4.90517 -0.854274 0
M  V30 2558 C 244.404 -7.18895 0.241434 0
M  V30 2559 C 246.43 -5.90986 -0.221301 0
M  V30 2560 C 245.792 -7.03669 0.320894 0
M  V30 2561 H 241.891 -0.670556 -0.402342 0
M  V30 2562 H 244.475 -1.89946 -0.427607 0
M  V30 2563 H 242.646 -2.65987 -2.83029 0
M  V30 2564 H 244.378 -2.90699 -2.8156 0
M  V30 2565 H 241.133 -4.47672 -1.54554 0
M  V30 2566 H 241.557 -6.76474 -0.266862 0
M  V30 2567 H 246.199 -4.03612 -1.25926 0
M  V30 2568 H 243.917 -8.05413 0.658448 0
M  V30 2569 H 247.503 -5.81626 -0.142111 0
M  V30 2570 H 246.383 -7.80078 0.802956 0
M  V30 2571 N 243.887 0.651787 -1.4349 0
M  V30 2572 C 245.133 1.41376 -1.45398 0
M  V30 2573 C 245.466 1.94041 -0.0784823 0
M  V30 2574 O 244.741 1.72379 0.900878 0
M  V30 2575 C 245.024 2.59414 -2.49752 0
M  V30 2576 C 244.877 2.12232 -3.96582 0
M  V30 2577 C 246.196 3.61626 -2.50827 0
M  V30 2578 H 243.315 0.512719 -0.529422 0
M  V30 2579 H 245.957 0.738796 -1.75048 0
M  V30 2580 H 244.107 3.16997 -2.246 0
M  V30 2581 H 245.779 1.59639 -4.32797 0
M  V30 2582 H 244.022 1.43592 -4.09346 0
M  V30 2583 H 244.693 2.9712 -4.65214 0
M  V30 2584 H 247.169 3.13805 -2.7325 0
M  V30 2585 H 246.045 4.41766 -3.25783 0
M  V30 2586 H 246.306 4.14314 -1.5426 0
M  V30 2587 N 245.365 1.30045 0.890287 0
M  V30 2588 C 246.275 1.17885 2.02831 0
M  V30 2589 C 247.291 0.0999609 1.73713 0
M  V30 2590 O 248.467 0.313867 1.98939 0
M  V30 2591 C 245.532 0.866079 3.35708 0
M  V30 2592 C 244.593 2.02979 3.78283 0
M  V30 2593 C 243.826 1.73184 5.0482 0
M  V30 2594 O 244.049 0.657237 5.66601 0
M  V30 2595 O 242.983 2.58267 5.43674 0
M  V30 2596 H 246.809 2.13474 2.16015 0
M  V30 2597 H 244.394 1.09587 1.01543 0
M  V30 2598 H 246.276 0.706623 4.15433 0
M  V30 2599 H 244.951 -0.0599443 3.23644 0
M  V30 2600 H 243.858 2.24454 2.99285 0
M  V30 2601 H 245.191 2.93734 3.94944 0
M  V30 2602 N 246.843 -1.10192 1.12674 0
M  V30 2603 C 248.09 -1.82205 0.883606 0
M  V30 2604 C 248.418 -1.8532 -0.590492 0
M  V30 2605 O 247.673 -1.31137 -1.45264 0
M  V30 2606 C 247.972 -3.28552 1.4067 0
M  V30 2607 C 247.638 -3.45582 2.89627 0
M  V30 2608 C 246.3 -3.49937 3.30299 0
M  V30 2609 C 248.652 -3.50768 3.85501 0
M  V30 2610 C 245.98 -3.57049 4.65546 0
M  V30 2611 C 248.332 -3.59414 5.20581 0
M  V30 2612 C 246.996 -3.62034 5.60792 0
M  V30 2613 H 246.266 -0.666735 0.323334 0
M  V30 2614 H 248.913 -1.29868 1.40736 0
M  V30 2615 H 247.218 -3.83473 0.80347 0
M  V30 2616 H 248.915 -3.82788 1.19475 0
M  V30 2617 H 245.505 -3.42871 2.57172 0
M  V30 2618 H 249.689 -3.46651 3.55171 0
M  V30 2619 H 244.945 -3.57361 4.96088 0
M  V30 2620 H 249.119 -3.62371 5.94693 0
M  V30 2621 H 246.746 -3.67298 6.6558 0
M  V30 2622 N 248.321 -0.919034 -1.28029 0
M  V30 2623 C 249.549 -0.570971 -1.98866 0
M  V30 2624 C 249.964 0.848996 -1.68634 0
M  V30 2625 O 249.321 1.56307 -0.942036 0
M  V30 2626 C 249.372 -0.776876 -3.53054 0
M  V30 2627 O 249.093 -2.14097 -3.82222 0
M  V30 2628 C 250.594 -0.436356 -4.41147 0
M  V30 2629 H 247.814 -0.217175 -0.634883 0
M  V30 2630 H 250.358 -1.23368 -1.63097 0
M  V30 2631 H 248.513 -0.161085 -3.87065 0
M  V30 2632 H 248.927 -2.18455 -4.76841 0
M  V30 2633 H 250.401 -0.63117 -5.4838 0
M  V30 2634 H 250.878 0.627686 -4.34692 0
M  V30 2635 H 251.484 -1.02991 -4.12641 0
M  V30 2636 N 249.799 1.42003 -0.683588 0
M  V30 2637 C 250.729 2.33487 -0.024866 0
M  V30 2638 C 251.71 1.51163 0.779975 0
M  V30 2639 O 252.895 1.79739 0.735362 0
M  V30 2640 C 250.025 3.3487 0.920836 0
M  V30 2641 C 248.979 4.27414 0.223958 0
M  V30 2642 C 248.305 5.19074 1.2832 0
M  V30 2643 C 249.605 5.14445 -0.90242 0
M  V30 2644 H 251.299 2.88819 -0.788921 0
M  V30 2645 H 248.845 1.38873 -0.38083 0
M  V30 2646 H 250.798 3.97787 1.39081 0
M  V30 2647 H 249.522 2.77861 1.71642 0
M  V30 2648 H 248.181 3.65904 -0.225864 0
M  V30 2649 H 247.829 4.58387 2.071 0
M  V30 2650 H 247.529 5.81822 0.821995 0
M  V30 2651 H 249.053 5.84867 1.75392 0
M  V30 2652 H 250.467 5.70998 -0.513272 0
M  V30 2653 H 248.864 5.86072 -1.28997 0
M  V30 2654 H 249.934 4.52322 -1.74737 0
M  V30 2655 N 251.277 0.427512 1.51691 0
M  V30 2656 C 252.688 -0.0378867 1.86662 0
M  V30 2657 C 253.039 -1.42819 1.34525 0
M  V30 2658 O 252.164 -2.05037 0.692014 0
M  V30 2659 C 252.759 -0.0755266 3.38716 0
M  V30 2660 C 251.318 -0.485309 3.73258 0
M  V30 2661 C 250.465 0.328399 2.75349 0
M  V30 2662 H 253.416 0.64379 1.45055 0
M  V30 2663 H 253.437 -0.887056 3.70016 0
M  V30 2664 H 252.949 0.936487 3.76632 0
M  V30 2665 H 251.05 -1.50329 3.40928 0
M  V30 2666 H 251.163 -0.21693 4.78609 0
M  V30 2667 H 249.527 -0.211905 2.53817 0
M  V30 2668 H 250.31 1.3391 3.16106 0
M  V30 2669 N 252.755 -1.56801 0.158532 0
M  V30 2670 C 253.665 -2.20916 -0.789518 0
M  V30 2671 C 254.681 -1.1969 -1.26294 0
M  V30 2672 O 255.857 -1.52308 -1.31773 0
M  V30 2673 C 252.922 -2.82727 -2.00665 0
M  V30 2674 C 251.983 -3.99114 -1.58134 0
M  V30 2675 C 251.216 -4.57968 -2.74045 0
M  V30 2676 O 251.439 -4.15704 -3.90572 0
M  V30 2677 O 250.373 -5.48047 -2.48855 0
M  V30 2678 H 254.199 -3.02464 -0.273681 0
M  V30 2679 H 251.784 -1.4924 -0.0690548 0
M  V30 2680 H 253.666 -3.21968 -2.71872 0
M  V30 2681 H 252.341 -2.04184 -2.51179 0
M  V30 2682 H 251.248 -3.64567 -0.839155 0
M  V30 2683 H 252.581 -4.79212 -1.12325 0
M  V30 2684 N 254.233 0.115231 -1.57178 0
M  V30 2685 C 255.481 0.820727 -1.84685 0
M  V30 2686 C 255.802 1.80237 -0.744279 0
M  V30 2687 O 255.072 1.94529 0.231375 0
M  V30 2688 H 253.652 0.306084 -0.681411 0
M  V30 2689 H 256.314 0.101656 -1.94635 0
M  V30 2690 H 255.41 1.36366 -2.80733 0
M  V30 2691 N 255.711 1.52812 0.385517 0
M  V30 2692 C 256.659 1.78482 1.49155 0
M  V30 2693 C 257.653 0.652914 1.56312 0
M  V30 2694 O 258.859 0.835464 1.59436 0
M  V30 2695 H 255.234 0.5648 0.496493 0
M  V30 2696 H 257.205 2.71095 1.24699 0
M  V30 2697 C 255.954 1.97378 2.86247 0
M  V30 2698 H 255.277 2.83907 2.81491 0
M  V30 2699 H 256.717 2.19327 3.62866 0
M  V30 2700 C 255.176 0.74728 3.28508 0
M  V30 2701 O 255.706 -0.0736232 4.01633 0
M  V30 2702 N 253.912 0.576396 2.84826 0
M  V30 2703 H 253.459 1.24555 2.25486 0
M  V30 2704 H 253.417 -0.24288 3.1346 0
M  V30 2705 N 257.189 -0.644168 1.43834 0
M  V30 2706 C 258.419 -1.42939 1.49171 0
M  V30 2707 C 258.827 -1.88874 0.111048 0
M  V30 2708 O 258.17 -1.60656 -0.8908 0
M  V30 2709 C 258.232 -2.69151 2.38324 0
M  V30 2710 C 257.896 -2.45097 3.85715 0
M  V30 2711 C 258.893 -2.07747 4.76589 0
M  V30 2712 C 256.578 -2.59141 4.30292 0
M  V30 2713 C 258.572 -1.8475 6.10038 0
M  V30 2714 C 256.259 -2.35759 5.63792 0
M  V30 2715 C 257.257 -1.9862 6.53482 0
M  V30 2716 O 256.945 -1.75489 7.84512 0
M  V30 2717 H 256.677 -0.445271 0.508635 0
M  V30 2718 H 259.231 -0.79621 1.8934 0
M  V30 2719 H 257.461 -3.3506 1.93058 0
M  V30 2720 H 259.15 -3.31123 2.3476 0
M  V30 2721 H 259.916 -1.96465 4.43426 0
M  V30 2722 H 255.795 -2.87022 3.60749 0
M  V30 2723 H 259.339 -1.55686 6.80006 0
M  V30 2724 H 255.236 -2.46646 5.9652 0
M  V30 2725 H 256.004 -1.89841 7.9618 0
M  V30 2726 N 258.668 -1.30515 -0.883378 0
M  V30 2727 C 259.893 -1.22487 -1.67367 0
M  V30 2728 C 260.318 0.208767 -1.86938 0
M  V30 2729 O 259.676 1.15015 -1.40148 0
M  V30 2730 C 259.724 -1.96041 -3.02655 0
M  V30 2731 O 258.828 -1.28859 -3.91751 0
M  V30 2732 H 258.169 -0.423573 -0.511353 0
M  V30 2733 H 260.699 -1.72362 -1.10239 0
M  V30 2734 H 260.709 -2.05124 -3.52687 0
M  V30 2735 H 259.384 -3.00307 -2.8773 0
M  V30 2736 H 257.961 -1.28141 -3.50192 0
M  V30 2737 N 260.146 1.09593 -1.13257 0
M  V30 2738 C 261.056 2.19739 -0.821691 0
M  V30 2739 C 262.072 1.72926 0.19302 0
M  V30 2740 O 263.248 2.01385 0.0244895 0
M  V30 2741 C 260.313 3.45482 -0.290333 0
M  V30 2742 C 259.374 4.06985 -1.36607 0
M  V30 2743 C 258.607 5.26726 -0.859975 0
M  V30 2744 O 258.83 5.69594 0.303082 0
M  V30 2745 O 257.764 5.7931 -1.63351 0
M  V30 2746 H 261.59 2.48781 -1.74189 0
M  V30 2747 H 259.175 1.18496 -0.909894 0
M  V30 2748 H 261.057 4.214 0.000674022 0
M  V30 2749 H 259.732 3.18047 0.602306 0
M  V30 2750 H 258.639 3.32712 -1.71037 0
M  V30 2751 H 259.972 4.38643 -2.23279 0
M  V30 2752 N 261.624 0.925811 1.2754 0
M  V30 2753 C 262.852 0.581509 1.9856 0
M  V30 2754 C 263.267 -0.840041 1.69082 0
M  V30 2755 O 262.624 -1.55805 0.950312 0
M  V30 2756 C 262.675 0.795589 3.52637 0
M  V30 2757 O 262.396 2.16121 3.81082 0
M  V30 2758 C 263.897 0.459744 4.4091 0
M  V30 2759 H 261.117 0.220538 0.633722 0
M  V30 2760 H 263.661 1.24232 1.6244 0
M  V30 2761 H 261.816 0.18161 3.86974 0
M  V30 2762 H 262.23 2.2098 4.75676 0
M  V30 2763 H 263.704 0.660244 5.48037 0
M  V30 2764 H 264.181 -0.604625 4.35018 0
M  V30 2765 H 264.787 1.05178 4.12089 0
M  V30 2766 N 263.102 -1.41638 0.69111 0
M  V30 2767 C 264.035 -2.28183 -0.0274913 0
M  V30 2768 C 265.013 -1.41984 -0.792424 0
M  V30 2769 O 266.197 -1.71415 -0.784169 0
M  V30 2770 C 263.324 -3.22135 -1.04628 0
M  V30 2771 C 262.37 -4.24848 -0.375037 0
M  V30 2772 S 263.203 -5.28231 0.879321 0
M  V30 2773 C 264.359 -6.25748 -0.137983 0
M  V30 2774 H 264.592 -2.88782 0.706553 0
M  V30 2775 H 262.125 -1.46709 0.481222 0
M  V30 2776 H 264.083 -3.76797 -1.62894 0
M  V30 2777 H 262.744 -2.6064 -1.75287 0
M  V30 2778 H 261.937 -4.90837 -1.14433 0
M  V30 2779 H 261.539 -3.73758 0.134434 0
M  V30 2780 H 263.831 -6.70188 -0.992659 0
M  V30 2781 H 264.774 -7.06417 0.487867 0
M  V30 2782 H 265.182 -5.62363 -0.490762 0
M  V30 2783 N 264.58 -0.43555 -1.51462 0
M  V30 2784 C 265.808 0.130242 -2.0649 0
M  V30 2785 C 266.223 1.36614 -1.30315 0
M  V30 2786 O 265.58 1.78869 -0.362223 0
M  V30 2787 C 265.631 0.454253 -3.58635 0
M  V30 2788 O 265.352 -0.73259 -4.31931 0
M  V30 2789 C 266.853 1.07091 -4.3017 0
M  V30 2790 H 264.073 0.00871669 -0.670943 0
M  V30 2791 H 266.617 -0.614117 -1.95061 0
M  V30 2792 H 264.772 1.14851 -3.69984 0
M  V30 2793 H 265.186 -0.455787 -5.22516 0
M  V30 2794 H 266.66 1.24764 -5.37716 0
M  V30 2795 H 267.137 2.05144 -3.88346 0
M  V30 2796 H 267.743 0.416089 -4.2326 0
M  V30 2797 N 266.058 1.56714 -0.166846 0
M  V30 2798 C 267.307 1.95922 0.479318 0
M  V30 2799 C 267.62 1.05529 1.6469 0
M  V30 2800 O 268.826 1.34399 2.35901 0
M  V30 2801 C 267.282 3.48359 0.90412 0
M  V30 2802 C 266.89 4.47369 -0.237621 0
M  V30 2803 C 268.634 3.96394 1.51896 0
M  V30 2804 C 266.541 5.91039 0.206561 0
M  V30 2805 H 265.471 0.731495 0.18284 0
M  V30 2806 H 268.122 1.81728 -0.254363 0
M  V30 2807 H 266.504 3.57955 1.69365 0
M  V30 2808 H 267.678 4.49485 -1.01489 0
M  V30 2809 H 265.993 4.09366 -0.762128 0
M  V30 2810 H 268.59 5.01186 1.86325 0
M  V30 2811 H 268.933 3.39075 2.41524 0
M  V30 2812 H 269.466 3.89796 0.79395 0
M  V30 2813 H 266.205 6.52221 -0.654834 0
M  V30 2814 H 265.725 5.9224 0.949282 0
M  V30 2815 H 267.404 6.43707 0.651939 0
M  V30 2816 N 267.536 -0.106894 1.57237 0
M  V30 2817 C 268.813 -0.843526 1.76477 0
M  V30 2818 C 269.193 -1.97499 0.745464 0
M  V30 2819 O 268.541 -2.27357 -0.228306 0
M  V30 2820 C 268.751 -1.34903 3.21873 0
M  V30 2821 C 270.099 -1.79654 3.8472 0
M  V30 2822 O 271.123 -1.44554 3.2555 0
M  V30 2823 O 269.982 -2.44515 4.88748 0
M  V30 2824 H 267.076 -0.401468 0.723016 0
M  V30 2825 H 269.622 -0.0896927 1.69463 0
M  V30 2826 H 268.394 -0.53781 3.87586 0
M  V30 2827 H 268.017 -2.16522 3.33473 0
M  V30 2828 N 269.014 -1.53014 -0.377408 0
M  V30 2829 C 269.944 -1.81589 -1.46791 0
M  V30 2830 C 270.925 -0.668622 -1.56408 0
M  V30 2831 O 272.11 -0.917337 -1.71168 0
M  V30 2832 C 269.24 -1.99519 -2.8427 0
M  V30 2833 C 268.194 -3.15249 -2.89486 0
M  V30 2834 C 267.52 -3.18451 -4.29527 0
M  V30 2835 C 268.82 -4.54084 -2.58079 0
M  V30 2836 H 270.514 -2.7291 -1.23127 0
M  V30 2837 H 268.06 -1.31319 -0.590883 0
M  V30 2838 H 270.013 -2.18092 -3.60575 0
M  V30 2839 H 268.737 -1.04897 -3.09296 0
M  V30 2840 H 267.396 -2.96477 -2.15631 0
M  V30 2841 H 267.044 -2.2149 -4.5161 0
M  V30 2842 H 266.744 -3.962 -4.33934 0
M  V30 2843 H 268.268 -3.39193 -5.07721 0
M  V30 2844 H 269.682 -4.72899 -3.24098 0
M  V30 2845 H 268.079 -5.33987 -2.7382 0
M  V30 2846 H 269.149 -4.60006 -1.53372 0
M  V30 2847 N 270.492 0.636531 -1.44174 0
M  V30 2848 C 271.425 1.76139 -1.45087 0
M  V30 2849 C 272.403 1.59611 -0.310326 0
M  V30 2850 O 273.587 1.81568 -0.506477 0
M  V30 2851 C 270.714 3.13648 -1.27839 0
M  V30 2852 C 269.76 3.48838 -2.45386 0
M  V30 2853 S 270.593 3.46927 -4.07924 0
M  V30 2854 C 271.749 4.87064 -3.9309 0
M  V30 2855 H 271.982 1.75096 -2.40268 0
M  V30 2856 H 269.515 0.810666 -1.31406 0
M  V30 2857 H 271.473 3.93002 -1.18575 0
M  V30 2858 H 270.134 3.12235 -0.341787 0
M  V30 2859 H 269.327 4.48886 -2.29167 0
M  V30 2860 H 268.929 2.76935 -2.51362 0
M  V30 2861 H 271.221 5.76153 -3.56446 0
M  V30 2862 H 272.164 5.08337 -4.92949 0
M  V30 2863 H 272.572 4.61384 -3.25246 0
M  V30 2864 N 271.97 1.30982 0.876444 0
M  V30 2865 C 272.918 1.18006 2.00443 0
M  V30 2866 C 273.912 0.0898871 1.69161 0
M  V30 2867 O 275.118 0.251333 1.78237 0
M  V30 2868 H 271.493 0.365196 0.65737 0
M  V30 2869 H 273.464 2.13453 2.0852 0
M  V30 2870 C 272.213 0.897521 3.35916 0
M  V30 2871 H 271.536 1.7285 3.60504 0
M  V30 2872 H 272.976 0.846874 4.15456 0
M  V30 2873 C 271.435 -0.399674 3.34521 0
M  V30 2874 O 271.965 -1.41852 3.7582 0
M  V30 2875 N 270.171 -0.413893 2.87637 0
M  V30 2876 H 269.718 0.41571 2.54224 0
M  V30 2877 H 269.676 -1.28175 2.87086 0
M  V30 2878 N 273.449 -1.08991 1.13837 0
M  V30 2879 C 274.397 -2.17841 0.815347 0
M  V30 2880 C 275.391 -1.68164 -0.204233 0
M  V30 2881 O 276.597 -1.79897 -0.0609304 0
M  V30 2882 H 272.972 -0.710654 0.245915 0
M  V30 2883 H 274.943 -2.42315 1.74143 0
M  V30 2884 C 273.692 -3.46381 0.302614 0
M  V30 2885 H 273.015 -3.84979 1.0785 0
M  V30 2886 H 274.455 -4.23844 0.115074 0
M  V30 2887 C 272.914 -3.22556 -0.972591 0
M  V30 2888 O 273.444 -3.45599 -2.04754 0
M  V30 2889 N 271.65 -2.76134 -0.905455 0
M  V30 2890 H 271.197 -2.57582 -0.0305421 0
M  V30 2891 H 271.155 -2.60571 -1.75926 0
M  V30 2892 N 274.927 -0.932562 -1.27047 0
M  V30 2893 C 275.89 -0.440064 -2.24936 0
M  V30 2894 C 276.89 0.444071 -1.54547 0
M  V30 2895 O 278.08 0.244465 -1.72476 0
M  V30 2896 C 275.212 0.36678 -3.38921 0
M  V30 2897 H 276.405 -1.305 -2.70018 0
M  V30 2898 H 273.958 -0.713707 -1.39054 0
M  V30 2899 H 274.693 1.25033 -2.99228 0
M  V30 2900 H 274.478 -0.267204 -3.91188 0
M  V30 2901 H 275.968 0.701567 -4.11665 0
M  V30 2902 N 276.405 1.4127 -0.698611 0
M  V30 2903 C 277.654 2.00408 -0.227949 0
M  V30 2904 C 277.967 1.55981 1.18023 0
M  V30 2905 O 279.173 2.07699 1.74852 0
M  V30 2906 C 277.629 3.58129 -0.356636 0
M  V30 2907 C 277.237 4.11536 -1.77037 0
M  V30 2908 C 278.981 4.24466 0.0540969 0
M  V30 2909 C 276.888 5.61701 -1.85055 0
M  V30 2910 H 275.818 0.749586 -0.0814657 0
M  V30 2911 H 278.469 1.61713 -0.867249 0
M  V30 2912 H 276.851 3.94442 0.350965 0
M  V30 2913 H 278.025 3.86636 -2.50698 0
M  V30 2914 H 276.34 3.57736 -2.13105 0
M  V30 2915 H 278.937 5.34698 0.0146723 0
M  V30 2916 H 279.28 4.01687 1.09332 0
M  V30 2917 H 279.813 3.93198 -0.603337 0
M  V30 2918 H 276.552 5.89312 -2.8704 0
M  V30 2919 H 276.072 5.88519 -1.15783 0
M  V30 2920 H 277.751 6.26524 -1.61484 0
M  V30 2921 N 277.883 0.443576 1.51229 0
M  V30 2922 C 279.129 -0.120975 2.02439 0
M  V30 2923 C 279.462 -1.41815 1.32674 0
M  V30 2924 O 278.737 -1.89373 0.443622 0
M  V30 2925 C 279.02 -0.333291 3.58554 0
M  V30 2926 C 278.873 0.982968 4.38928 0
M  V30 2927 C 280.192 -1.10028 4.26124 0
M  V30 2928 H 277.311 -0.0424923 0.735774 0
M  V30 2929 H 279.953 0.583794 1.80809 0
M  V30 2930 H 278.103 -0.933614 3.77115 0
M  V30 2931 H 279.775 1.61775 4.32003 0
M  V30 2932 H 278.018 1.58611 4.03763 0
M  V30 2933 H 278.689 0.788379 5.46341 0
M  V30 2934 H 281.165 -0.591711 4.11871 0
M  V30 2935 H 280.041 -1.21761 5.35225 0
M  V30 2936 H 280.302 -2.12996 3.87408 0
M  V30 2937 N 279.361 -1.56624 0.175154 0
M  V30 2938 C 280.271 -2.21741 -0.766042 0
M  V30 2939 C 281.287 -1.21023 -1.25018 0
M  V30 2940 O 282.463 -1.53697 -1.3015 0
M  V30 2941 C 279.528 -2.84839 -1.97655 0
M  V30 2942 C 278.589 -4.00769 -1.53892 0
M  V30 2943 C 277.822 -4.60849 -2.69173 0
M  V30 2944 O 278.045 -4.19823 -3.86141 0
M  V30 2945 O 276.979 -5.50655 -2.43028 0
M  V30 2946 H 280.805 -3.02738 -0.241585 0
M  V30 2947 H 278.39 -1.49305 -0.053222 0
M  V30 2948 H 280.272 -3.24834 -2.68442 0
M  V30 2949 H 278.947 -2.06836 -2.48999 0
M  V30 2950 H 277.854 -3.65436 -0.80044 0
M  V30 2951 H 279.187 -4.80376 -1.07236 0
M  V30 2952 N 280.839 0.0985539 -1.57292 0
M  V30 2953 C 281.789 1.1261 -1.9825 0
M  V30 2954 C 282.773 1.35961 -0.860426 0
M  V30 2955 O 283.965 1.36711 -1.12424 0
M  V30 2956 C 281.094 2.44727 -2.40757 0
M  V30 2957 C 280.18 2.24764 -3.59642 0
M  V30 2958 N 280.571 1.74661 -4.74687 0
M  V30 2959 C 278.869 2.55344 -3.65672 0
M  V30 2960 C 279.57 1.68887 -5.56644 0
M  V30 2961 N 278.546 2.13976 -4.99715 0
M  V30 2962 H 282.348 0.731604 -2.84648 0
M  V30 2963 H 279.862 0.306029 -1.59491 0
M  V30 2964 H 281.859 3.19072 -2.68326 0
M  V30 2965 H 280.519 2.84917 -1.55733 0
M  V30 2966 H 281.53 1.43908 -4.97505 0
M  V30 2967 H 278.207 2.99081 -2.91302 0
M  V30 2968 H 279.597 1.3123 -6.5896 0
M  V30 2969 N 282.317 1.53212 0.369288 0
M  V30 2970 C 283.547 1.72868 1.13139 0
M  V30 2971 C 283.955 0.455754 1.83629 0
M  V30 2972 O 283.298 -0.580861 1.74275 0
M  V30 2973 C 283.36 2.83667 2.20847 0
M  V30 2974 C 283.024 4.24142 1.70155 0
M  V30 2975 C 284.021 5.06619 1.16763 0
M  V30 2976 C 281.706 4.70539 1.7578 0
M  V30 2977 C 283.7 6.33581 0.696678 0
M  V30 2978 C 281.387 5.97481 1.28297 0
M  V30 2979 C 282.385 6.78833 0.753307 0
M  V30 2980 O 282.073 8.03393 0.285475 0
M  V30 2981 H 281.805 0.581707 0.344373 0
M  V30 2982 H 284.359 2.00736 0.435243 0
M  V30 2983 H 282.589 2.51265 2.93944 0
M  V30 2984 H 284.278 2.91536 2.82421 0
M  V30 2985 H 285.044 4.71948 1.11758 0
M  V30 2986 H 280.923 4.07293 2.15949 0
M  V30 2987 H 284.467 6.97027 0.282581 0
M  V30 2988 H 280.364 6.31651 1.32994 0
M  V30 2989 H 281.132 8.17497 0.405145 0
M  V30 2990 N 283.795 -0.628877 1.44509 0
M  V30 2991 C 284.725 -1.75187 1.54376 0
M  V30 2992 C 285.706 -1.65411 0.396618 0
M  V30 2993 O 286.891 -1.84137 0.617031 0
M  V30 2994 C 284.021 -3.13725 1.48976 0
M  V30 2995 C 282.975 -3.38291 2.62189 0
M  V30 2996 C 282.301 -4.76883 2.41841 0
M  V30 2997 C 283.601 -3.30632 4.04326 0
M  V30 2998 H 285.295 -1.67187 2.48373 0
M  V30 2999 H 282.841 -0.802909 1.19538 0
M  V30 3000 H 284.794 -3.92064 1.54478 0
M  V30 3001 H 283.518 -3.22515 0.514961 0
M  V30 3002 H 282.177 -2.62334 2.56079 0
M  V30 3003 H 281.825 -4.82378 1.42548 0
M  V30 3004 H 281.525 -4.94278 3.17747 0
M  V30 3005 H 283.049 -5.57449 2.49165 0
M  V30 3006 H 284.463 -3.98873 4.11793 0
M  V30 3007 H 282.86 -3.59561 4.80454 0
M  V30 3008 H 283.93 -2.28404 4.27738 0
M  V30 3009 N 285.273 -1.31445 -0.869486 0
M  V30 3010 C 286.22 -1.19135 -1.97675 0
M  V30 3011 C 287.19 -0.0770266 -1.65921 0
M  V30 3012 O 288.375 -0.249972 -1.89155 0
M  V30 3013 C 285.515 -0.905149 -3.33018 0
M  V30 3014 C 284.628 -2.10285 -3.77365 0
M  V30 3015 C 283.763 -1.75339 -5.01427 0
M  V30 3016 C 282.802 -2.91515 -5.38224 0
M  V30 3017 N 281.939 -2.56762 -6.53466 0
M  V30 3018 H 286.779 -2.13853 -2.07535 0
M  V30 3019 H 284.316 -1.06379 -1.01597 0
M  V30 3020 H 286.274 -0.719765 -4.10944 0
M  V30 3021 H 284.904 0.00519624 -3.228 0
M  V30 3022 H 283.956 -2.39899 -2.95216 0
M  V30 3023 H 285.268 -2.97237 -4.00564 0
M  V30 3024 H 284.422 -1.53266 -5.87022 0
M  V30 3025 H 283.161 -0.855801 -4.80133 0
M  V30 3026 H 282.166 -3.14237 -4.51149 0
M  V30 3027 H 283.391 -3.81985 -5.61484 0
M  V30 3028 H 281.337 -1.69526 -6.33717 0
M  V30 3029 H 281.254 -3.37243 -6.76612 0
M  V30 3030 H 282.522 -2.38083 -7.42251 0
M  V30 3031 N 286.751 1.08385 -1.14413 0
M  V30 3032 C 287.997 1.81044 -0.913834 0
M  V30 3033 C 288.33 1.86004 0.558209 0
M  V30 3034 O 287.605 1.33606 1.4135 0
M  V30 3035 C 287.888 3.26648 -1.51569 0
M  V30 3036 C 287.741 3.29895 -3.0576 0
M  V30 3037 C 289.06 4.23629 -1.19273 0
M  V30 3038 H 286.179 0.65727 -0.333414 0
M  V30 3039 H 288.821 1.26896 -1.41412 0
M  V30 3040 H 286.971 3.72889 -1.09023 0
M  V30 3041 H 288.643 2.91977 -3.57137 0
M  V30 3042 H 286.886 2.69163 -3.40197 0
M  V30 3043 H 287.557 4.32516 -3.42977 0
M  V30 3044 H 290.033 3.85727 -1.56057 0
M  V30 3045 H 288.909 5.23822 -1.64017 0
M  V30 3046 H 289.17 4.41968 -0.108068 0
M  V30 3047 N 288.23 0.939286 1.26551 0
M  V30 3048 C 289.478 0.58469 1.93457 0
M  V30 3049 C 289.799 -0.878774 1.74076 0
M  V30 3050 O 289.069 -1.62421 1.09528 0
M  V30 3051 H 287.649 0.21325 0.715914 0
M  V30 3052 H 290.311 1.1942 1.54029 0
M  V30 3053 H 289.407 0.800849 3.0165 0
M  V30 3054 N 289.708 -1.40897 0.706093 0
M  V30 3055 C 291.124 -1.55042 0.37869 0
M  V30 3056 C 291.324 -1.67944 -1.11342 0
M  V30 3057 O 290.38 -1.66372 -1.89938 0
M  V30 3058 C 291.693 -2.78398 1.13643 0
M  V30 3059 C 293.241 -2.92206 1.12181 0
M  V30 3060 C 293.716 -4.18463 1.86152 0
M  V30 3061 N 295.207 -4.25443 1.83173 0
M  V30 3062 C 295.942 -5.2202 2.37239 0
M  V30 3063 N 295.438 -6.24563 2.99821 0
M  V30 3064 N 297.231 -5.14033 2.27435 0
M  V30 3065 H 289.382 -1.30769 1.67372 0
M  V30 3066 H 291.645 -0.631653 0.706907 0
M  V30 3067 H 291.351 -2.7511 2.19106 0
M  V30 3068 H 291.225 -3.70228 0.721853 0
M  V30 3069 H 293.612 -2.95004 0.0754171 0
M  V30 3070 H 293.693 -2.01521 1.57554 0
M  V30 3071 H 293.337 -4.16427 2.90776 0
M  V30 3072 H 293.267 -5.08141 1.38206 0
M  V30 3073 H 295.758 -3.51976 1.37556 0
M  V30 3074 H 296.071 -6.94665 3.38616 0
M  V30 3075 H 294.416 -6.25035 3.03902 0
M  V30 3076 H 297.607 -4.3285 1.78208 0
M  V30 3077 H 297.78 -5.89129 2.69873 0
M  V30 3078 N 291.186 -0.45159 -1.50991 0
M  V30 3079 C 292.118 0.388634 -2.25881 0
M  V30 3080 C 293.131 0.974041 -1.30446 0
M  V30 3081 O 294.32 0.865758 -1.56099 0
M  V30 3082 C 291.42 1.5571 -3.01011 0
M  V30 3083 C 290.593 1.08801 -4.23652 0
M  V30 3084 C 289.652 2.12825 -4.8124 0
M  V30 3085 O 288.678 1.71678 -5.42693 0
M  V30 3086 N 289.88 3.45453 -4.66522 0
M  V30 3087 H 292.645 -0.25329 -2.98628 0
M  V30 3088 H 290.206 -0.281268 -1.59438 0
M  V30 3089 H 292.198 2.24952 -3.3642 0
M  V30 3090 H 290.768 2.10409 -2.31186 0
M  V30 3091 H 289.988 0.22215 -3.93574 0
M  V30 3092 H 291.276 0.752213 -5.03209 0
M  V30 3093 H 290.674 3.81605 -4.17605 0
M  V30 3094 H 289.231 4.10549 -5.06254 0
M  V30 3095 N 292.664 1.56529 -0.183458 0
M  V30 3096 C 293.612 2.19873 0.758845 0
M  V30 3097 C 294.606 1.16638 1.22849 0
M  V30 3098 O 295.812 1.3481 1.19274 0
M  V30 3099 H 292.187 0.7045 0.263029 0
M  V30 3100 H 294.158 2.97724 0.200755 0
M  V30 3101 C 292.907 2.86314 1.9728 0
M  V30 3102 H 292.23 3.65487 1.62047 0
M  V30 3103 H 293.67 3.3409 2.61075 0
M  V30 3104 C 292.129 1.86729 2.80418 0
M  V30 3105 O 292.659 1.36031 3.77966 0
M  V30 3106 N 290.865 1.55216 2.45675 0
M  V30 3107 H 290.412 1.96636 1.66409 0
M  V30 3108 H 290.37 0.888388 3.01588 0
M  V30 3109 N 294.142 -0.090211 1.57342 0
M  V30 3110 C 295.39 -0.791241 1.85967 0
M  V30 3111 C 295.711 -1.7903 0.772859 0
M  V30 3112 O 294.981 -1.94872 -0.200398 0
M  V30 3113 H 293.561 -0.295205 0.686195 0
M  V30 3114 H 296.223 -0.0706782 1.94772 0
M  V30 3115 H 295.319 -1.31882 2.82867 0
M  V30 3116 N 295.62 -1.53406 -0.361157 0
M  V30 3117 C 296.866 -1.70054 -1.10496 0
M  V30 3118 C 297.199 -0.453278 -1.88836 0
M  V30 3119 O 296.474 0.5495 -1.86576 0
M  V30 3120 C 296.757 -2.95317 -2.06058 0
M  V30 3121 C 296.61 -4.3021 -1.31298 0
M  V30 3122 C 297.929 -3.16193 -3.06121 0
M  V30 3123 H 295.048 -0.618799 -0.400321 0
M  V30 3124 H 297.69 -1.86052 -0.385318 0
M  V30 3125 H 295.84 -2.81809 -2.67425 0
M  V30 3126 H 297.512 -4.55538 -0.726807 0
M  V30 3127 H 295.755 -4.29421 -0.614853 0
M  V30 3128 H 296.426 -5.14 -2.01265 0
M  V30 3129 H 298.902 -3.28916 -2.5486 0
M  V30 3130 H 297.778 -4.05266 -3.70204 0
M  V30 3131 H 298.039 -2.31676 -3.76535 0
M  V30 3132 N 297.098 0.621204 -1.44841 0
M  V30 3133 C 298.028 1.74366 -1.55303 0
M  V30 3134 C 299.009 1.65199 -0.405385 0
M  V30 3135 O 300.194 1.83807 -0.626787 0
M  V30 3136 C 297.324 3.12931 -1.50637 0
M  V30 3137 C 296.278 3.36896 -2.63979 0
M  V30 3138 C 295.604 4.75594 -2.44366 0
M  V30 3139 C 296.904 3.28483 -4.06074 0
M  V30 3140 H 298.598 1.65867 -2.49256 0
M  V30 3141 H 296.144 0.796558 -1.19962 0
M  V30 3142 H 298.097 3.9124 -1.56555 0
M  V30 3143 H 296.821 3.22237 -0.532057 0
M  V30 3144 H 295.48 2.60972 -2.57467 0
M  V30 3145 H 295.128 4.81616 -1.45105 0
M  V30 3146 H 294.828 4.92586 -3.20364 0
M  V30 3147 H 296.352 5.5612 -2.52117 0
M  V30 3148 H 297.766 3.96684 -4.13902 0
M  V30 3149 H 296.163 3.57008 -4.82354 0
M  V30 3150 H 297.233 2.26133 -4.28943 0
M  V30 3151 N 298.576 1.31904 0.862503 0
M  V30 3152 C 299.486 1.22161 2.00285 0
M  V30 3153 C 300.502 0.136785 1.73462 0
M  V30 3154 O 301.678 0.355994 1.98229 0
M  V30 3155 C 298.743 0.937093 3.33796 0
M  V30 3156 C 297.804 2.10957 3.73893 0
M  V30 3157 C 297.037 1.83853 5.01033 0
M  V30 3158 O 297.26 0.777274 5.65079 0
M  V30 3159 O 296.194 2.69741 5.38074 0
M  V30 3160 H 300.02 2.18008 2.11439 0
M  V30 3161 H 297.605 1.11716 0.991957 0
M  V30 3162 H 299.487 0.794583 4.13841 0
M  V30 3163 H 298.162 0.00871894 3.23699 0
M  V30 3164 H 297.069 2.30752 2.94456 0
M  V30 3165 H 298.402 3.02046 3.88625 0
M  V30 3166 N 300.054 -1.07777 1.14986 0
M  V30 3167 C 301.279 -1.84558 0.946213 0
M  V30 3168 C 301.704 -1.81323 -0.500362 0
M  V30 3169 O 301.062 -1.20301 -1.35637 0
M  V30 3170 C 301.11 -3.29736 1.45968 0
M  V30 3171 O 300.214 -4.07149 0.65601 0
M  V30 3172 H 299.555 -0.571641 0.33782 0
M  V30 3173 H 302.085 -1.35991 1.52865 0
M  V30 3174 H 302.095 -3.80574 1.47063 0
M  V30 3175 H 300.77 -3.31406 2.51283 0
M  V30 3176 H 299.347 -3.65994 0.714322 0
M  V30 3177 N 301.532 -0.945985 -1.26051 0
M  V30 3178 C 302.809 -0.513816 -1.88731 0
M  V30 3179 C 303.189 1.00872 -1.8544 0
M  V30 3180 O 302.537 1.8708 -1.312 0
M  V30 3181 C 302.747 -1.08062 -3.31849 0
M  V30 3182 C 304.095 -1.1522 -4.08668 0
M  V30 3183 O 305.119 -1.03155 -3.40936 0
M  V30 3184 O 303.978 -1.34044 -5.29806 0
M  V30 3185 H 301.072 -0.168193 -0.809716 0
M  V30 3186 H 303.618 -1.03886 -1.34186 0
M  V30 3187 H 302.39 -2.1241 -3.2863 0
M  V30 3188 H 302.013 -0.538307 -3.93939 0
M  V30 3189 N 303.011 1.40521 -0.713556 0
M  V30 3190 C 304.26 2.00155 -0.249192 0
M  V30 3191 C 304.573 1.57224 1.16362 0
M  V30 3192 O 305.779 2.09542 1.72639 0
M  V30 3193 C 304.235 3.5773 -0.3946 0
M  V30 3194 C 303.843 4.09635 -1.81392 0
M  V30 3195 C 305.587 4.24499 0.00907364 0
M  V30 3196 C 303.494 5.59707 -1.91003 0
M  V30 3197 H 302.424 0.74868 -0.0894114 0
M  V30 3198 H 305.075 1.60784 -0.884352 0
M  V30 3199 H 303.457 3.94792 0.30911 0
M  V30 3200 H 304.631 3.83955 -2.54785 0
M  V30 3201 H 302.946 3.55456 -2.16888 0
M  V30 3202 H 305.543 5.34683 -0.0420404 0
M  V30 3203 H 305.886 4.02824 1.05065 0
M  V30 3204 H 306.419 3.92536 -0.645007 0
M  V30 3205 H 303.158 5.86234 -2.93275 0
M  V30 3206 H 302.678 5.87258 -1.22019 0
M  V30 3207 H 304.357 6.24776 -1.6812 0
M  V30 3208 N 304.489 0.459591 1.5075 0
M  V30 3209 C 305.737 -0.0991532 2.01857 0
M  V30 3210 C 306.058 -1.41247 1.34441 0
M  V30 3211 O 305.328 -1.89775 0.486022 0
M  V30 3212 H 303.908 -0.039633 0.745948 0
M  V30 3213 H 306.57 0.607387 1.85194 0
M  V30 3214 H 305.666 -0.258998 3.11023 0
M  V30 3215 N 305.967 -1.56429 0.191757 0
M  V30 3216 C 307.213 -1.97777 -0.448554 0
M  V30 3217 C 307.546 -1.07847 -1.61501 0
M  V30 3218 O 306.821 -0.129774 -1.94067 0
M  V30 3219 C 307.104 -3.48362 -0.911906 0
M  V30 3220 C 306.957 -4.4907 0.256136 0
M  V30 3221 C 308.276 -4.02561 -1.77857 0
M  V30 3222 H 305.395 -0.719071 -0.161572 0
M  V30 3223 H 308.037 -1.87896 0.282007 0
M  V30 3224 H 306.187 -3.56914 -1.53442 0
M  V30 3225 H 307.859 -4.5256 0.893733 0
M  V30 3226 H 306.102 -4.24181 0.908436 0
M  V30 3227 H 306.773 -5.51889 -0.11053 0
M  V30 3228 H 309.249 -3.96767 -1.25359 0
M  V30 3229 H 308.125 -5.08301 -2.07174 0
M  V30 3230 H 308.386 -3.47616 -2.73158 0
M  V30 3231 N 307.445 0.0818655 -1.57387 0
M  V30 3232 C 308.392 1.09834 -2.0299 0
M  V30 3233 C 309.362 1.39043 -0.908639 0
M  V30 3234 O 310.547 1.50282 -1.17559 0
M  V30 3235 C 307.687 2.40971 -2.47037 0
M  V30 3236 C 306.8 2.18379 -3.7274 0
M  V30 3237 C 305.935 3.43008 -4.0561 0
M  V30 3238 C 304.974 3.15736 -5.24383 0
M  V30 3239 N 304.111 4.32667 -5.52941 0
M  V30 3240 H 308.951 0.702472 -2.89602 0
M  V30 3241 H 306.488 0.33531 -1.43227 0
M  V30 3242 H 308.446 3.1752 -2.70623 0
M  V30 3243 H 307.076 2.78379 -1.63417 0
M  V30 3244 H 306.128 1.32569 -3.56552 0
M  V30 3245 H 307.44 1.94227 -4.59431 0
M  V30 3246 H 306.594 4.27958 -4.30043 0
M  V30 3247 H 305.333 3.70225 -3.17466 0
M  V30 3248 H 304.338 2.2918 -4.99757 0
M  V30 3249 H 305.563 2.8985 -6.14136 0
M  V30 3250 H 303.509 4.59935 -4.67756 0
M  V30 3251 H 303.426 4.11753 -6.34031 0
M  V30 3252 H 304.694 5.18644 -5.81918 0
M  V30 3253 N 308.923 1.53595 0.353017 0
M  V30 3254 C 310.17 1.70385 1.09431 0
M  V30 3255 C 310.498 0.462113 1.88931 0
M  V30 3256 O 309.753 -0.556074 1.87633 0
M  V30 3257 C 310.052 2.91313 2.07054 0
M  V30 3258 C 309.718 4.27308 1.43939 0
M  V30 3259 C 308.38 4.64287 1.26454 0
M  V30 3260 C 310.732 5.11829 0.983883 0
M  V30 3261 C 308.06 5.83412 0.620226 0
M  V30 3262 C 310.412 6.31611 0.353516 0
M  V30 3263 C 309.076 6.67293 0.166272 0
M  V30 3264 H 308.346 0.623484 0.400436 0
M  V30 3265 H 310.993 1.87799 0.374655 0
M  V30 3266 H 309.298 2.68463 2.85368 0
M  V30 3267 H 310.995 3.01497 2.64387 0
M  V30 3268 H 307.585 3.98198 1.58543 0
M  V30 3269 H 311.769 4.838 1.10685 0
M  V30 3270 H 307.025 6.09639 0.463681 0
M  V30 3271 H 311.199 6.964 -0.00757555 0
M  V30 3272 H 308.826 7.59461 -0.335047 0
M  V30 3273 N 310.401 -0.613514 1.45168 0
M  V30 3274 C 311.678 -1.37263 1.39349 0
M  V30 3275 C 312.058 -2.11012 0.0610848 0
M  V30 3276 O 311.406 -2.07502 -0.956825 0
M  V30 3277 C 311.616 -2.3244 2.60332 0
M  V30 3278 C 312.964 -2.9523 3.05163 0
M  V30 3279 O 313.988 -2.42762 2.60663 0
M  V30 3280 O 312.847 -3.90454 3.82372 0
M  V30 3281 H 309.941 -0.615188 0.552696 0
M  V30 3282 H 312.487 -0.637097 1.57287 0
M  V30 3283 H 311.259 -1.77164 3.48896 0
M  V30 3284 H 310.882 -3.13383 2.44698 0
M  V30 3285 N 311.879 -1.3236 -0.855495 0
M  V30 3286 C 313.107 -1.2587 -1.64208 0
M  V30 3287 C 313.522 0.173457 -1.88002 0
M  V30 3288 O 312.879 1.11027 -1.44842 0
M  V30 3289 C 312.93 -2.01424 -3.00184 0
M  V30 3290 O 312.651 -3.39051 -2.77445 0
M  V30 3291 C 314.152 -2.01948 -3.94629 0
M  V30 3292 H 311.372 -0.434318 -0.511477 0
M  V30 3293 H 313.916 -1.74469 -1.0668 0
M  V30 3294 H 312.071 -1.56549 -3.5436 0
M  V30 3295 H 312.485 -3.77711 -3.63916 0
M  V30 3296 H 313.959 -2.59297 -4.87308 0
M  V30 3297 H 314.436 -1.00554 -4.27534 0
M  V30 3298 H 315.042 -2.46767 -3.4639 0
M  V30 3299 N 313.357 1.07166 -1.15556 0
M  V30 3300 C 314.773 1.31899 -0.898603 0
M  V30 3301 C 314.973 1.96333 0.453383 0
M  V30 3302 O 314.029 2.22438 1.19489 0
M  V30 3303 C 315.342 2.20826 -2.04099 0
M  V30 3304 C 316.89 2.34269 -2.07574 0
M  V30 3305 C 317.365 3.26546 -3.21141 0
M  V30 3306 N 318.856 3.34127 -3.20801 0
M  V30 3307 C 319.591 4.05595 -4.05315 0
M  V30 3308 N 319.087 4.79661 -4.99897 0
M  V30 3309 N 320.88 4.01555 -3.93332 0
M  V30 3310 H 313.031 0.637302 -2.02613 0
M  V30 3311 H 315.294 0.343468 -0.883591 0
M  V30 3312 H 315 1.80744 -3.01703 0
M  V30 3313 H 314.874 3.21364 -1.97496 0
M  V30 3314 H 317.261 2.73603 -1.10568 0
M  V30 3315 H 317.342 1.33429 -2.18244 0
M  V30 3316 H 316.986 2.87931 -4.184 0
M  V30 3317 H 316.916 4.27345 -3.07708 0
M  V30 3318 H 319.407 2.81336 -2.52306 0
M  V30 3319 H 319.72 5.31694 -5.60822 0
M  V30 3320 H 318.065 4.78671 -5.03884 0
M  V30 3321 H 321.256 3.42806 -3.18751 0
M  V30 3322 H 321.429 4.56987 -4.5942 0
M  V30 3323 N 314.835 0.952656 1.25548 0
M  V30 3324 C 315.783 0.462354 2.27958 0
M  V30 3325 C 316.777 -0.46634 1.62855 0
M  V30 3326 O 317.983 -0.343287 1.76696 0
M  V30 3327 H 314.358 0.13101 0.7405 0
M  V30 3328 H 316.329 1.33839 2.66702 0
M  V30 3329 C 315.078 -0.24628 3.46827 0
M  V30 3330 H 314.401 0.459192 3.97154 0
M  V30 3331 H 315.841 -0.553393 4.20373 0
M  V30 3332 C 314.3 -1.4681 3.0323 0
M  V30 3333 O 314.83 -2.56591 3.09069 0
M  V30 3334 N 313.036 -1.32874 2.58443 0
M  V30 3335 H 312.583 -0.435536 2.53891 0
M  V30 3336 H 312.541 -2.14742 2.29637 0
M  V30 3337 N 316.313 -1.40141 0.720998 0
M  V30 3338 C 317.56 -2.00787 0.262842 0
M  V30 3339 C 317.888 -1.5718 -1.14563 0
M  V30 3340 O 317.143 -0.785391 -1.79249 0
M  V30 3341 C 317.442 -3.56165 0.296892 0
M  V30 3342 C 317.108 -4.19373 1.65641 0
M  V30 3343 C 315.77 -4.36352 2.02855 0
M  V30 3344 C 318.122 -4.54578 2.54968 0
M  V30 3345 C 315.45 -4.8582 3.28931 0
M  V30 3346 C 317.802 -5.05447 3.80402 0
M  V30 3347 C 316.466 -5.20635 4.17726 0
M  V30 3348 H 315.736 -0.734731 0.0961807 0
M  V30 3349 H 318.383 -1.67673 0.925093 0
M  V30 3350 H 316.688 -3.8922 -0.448932 0
M  V30 3351 H 318.385 -4.00929 -0.0755208 0
M  V30 3352 H 314.975 -4.06549 1.35704 0
M  V30 3353 H 319.159 -4.41091 2.27491 0
M  V30 3354 H 314.415 -4.95764 3.57811 0
M  V30 3355 H 318.589 -5.31663 4.49786 0
M  V30 3356 H 316.216 -5.58728 5.15487 0
M  V30 3357 N 317.792 -0.46758 -1.50504 0
M  V30 3358 C 319.208 -0.121533 -1.59137 0
M  V30 3359 C 319.408 1.3717 -1.47603 0
M  V30 3360 O 318.464 2.14464 -1.33272 0
M  V30 3361 C 319.777 -0.6686 -2.93173 0
M  V30 3362 C 321.325 -0.631716 -3.06559 0
M  V30 3363 C 321.8 -1.15627 -4.43164 0
M  V30 3364 N 323.291 -1.11553 -4.49567 0
M  V30 3365 C 324.026 -1.49195 -5.5365 0
M  V30 3366 N 323.522 -1.94269 -6.65005 0
M  V30 3367 N 325.315 -1.4082 -5.44175 0
M  V30 3368 H 317.466 -1.4388 -1.56245 0
M  V30 3369 H 319.729 -0.594784 -0.738198 0
M  V30 3370 H 319.435 -1.71453 -3.07078 0
M  V30 3371 H 319.309 -0.11021 -3.77039 0
M  V30 3372 H 321.696 0.405297 -2.92304 0
M  V30 3373 H 321.777 -1.22687 -2.24458 0
M  V30 3374 H 321.421 -2.1919 -4.58168 0
M  V30 3375 H 321.351 -0.537365 -5.23851 0
M  V30 3376 H 323.842 -0.784895 -3.69659 0
M  V30 3377 H 324.155 -2.21148 -7.40482 0
M  V30 3378 H 322.5 -1.98219 -6.66134 0
M  V30 3379 H 325.691 -1.0545 -4.56068 0
M  V30 3380 H 325.864 -1.70481 -6.25172 0
M  V30 3381 N 319.27 1.56325 -0.20005 0
M  V30 3382 C 320.2 2.22318 0.713916 0
M  V30 3383 C 321.181 1.18788 1.21752 0
M  V30 3384 O 322.366 1.47309 1.26545 0
M  V30 3385 C 319.496 2.88639 1.93144 0
M  V30 3386 C 318.45 3.98457 1.56255 0
M  V30 3387 C 317.776 4.51967 2.85709 0
M  V30 3388 C 319.076 5.16612 0.768747 0
M  V30 3389 H 320.77 2.98952 0.163755 0
M  V30 3390 H 318.316 1.43792 0.0773219 0
M  V30 3391 H 320.269 3.33491 2.57608 0
M  V30 3392 H 318.993 2.09419 2.50621 0
M  V30 3393 H 317.652 3.54305 0.941471 0
M  V30 3394 H 317.3 3.69503 3.41287 0
M  V30 3395 H 317 5.26071 2.6177 0
M  V30 3396 H 318.524 4.99523 3.51154 0
M  V30 3397 H 319.938 5.57977 1.3166 0
M  V30 3398 H 318.335 5.96812 0.627286 0
M  V30 3399 H 319.405 4.84358 -0.229168 0
M  V30 3400 N 320.748 -0.0735177 1.57428 0
M  V30 3401 C 321.996 -0.771472 1.86796 0
M  V30 3402 C 322.317 -1.78201 0.791804 0
M  V30 3403 O 321.587 -1.95074 -0.179718 0
M  V30 3404 H 320.167 -0.28791 0.689287 0
M  V30 3405 H 322.829 -0.0500161 1.94836 0
M  V30 3406 H 321.925 -1.28874 2.8425 0
M  V30 3407 N 322.226 -1.5378 -0.344866 0
M  V30 3408 C 323.473 -1.70963 -1.08526 0
M  V30 3409 C 323.801 -0.472126 -1.88683 0
M  V30 3410 O 323.056 0.546116 -1.87926 0
M  V30 3411 C 323.355 -2.92407 -2.05506 0
M  V30 3412 C 323.021 -4.28066 -1.41671 0
M  V30 3413 C 321.683 -4.64951 -1.2399 0
M  V30 3414 C 324.035 -5.12344 -0.956726 0
M  V30 3415 C 321.363 -5.83733 -0.589277 0
M  V30 3416 C 323.715 -6.3179 -0.320015 0
M  V30 3417 C 322.379 -6.67372 -0.130881 0
M  V30 3418 H 321.649 -0.625598 -0.397124 0
M  V30 3419 H 324.296 -1.87995 -0.36469 0
M  V30 3420 H 322.601 -2.69973 -2.8394 0
M  V30 3421 H 324.298 -3.02895 -2.62784 0
M  V30 3422 H 320.888 -3.99034 -1.56429 0
M  V30 3423 H 325.072 -4.8438 -1.08118 0
M  V30 3424 H 320.328 -6.09877 -0.431344 0
M  V30 3425 H 324.502 -6.96386 0.0445072 0
M  V30 3426 H 322.129 -7.59273 0.375318 0
M  V30 3427 N 323.704 0.605807 -1.45491 0
M  V30 3428 C 324.981 1.36522 -1.40075 0
M  V30 3429 C 325.361 2.10976 -0.0722744 0
M  V30 3430 O 324.709 2.08007 0.945808 0
M  V30 3431 C 324.919 2.31056 -2.61561 0
M  V30 3432 C 326.267 2.93608 -3.06724 0
M  V30 3433 O 327.291 2.41376 -2.61946 0
M  V30 3434 O 326.15 3.88421 -3.84437 0
M  V30 3435 H 323.244 0.612248 -0.555951 0
M  V30 3436 H 325.79 0.628747 -1.57623 0
M  V30 3437 H 324.562 1.75311 -3.49831 0
M  V30 3438 H 324.185 3.12081 -2.46356 0
M  V30 3439 N 325.182 1.32811 0.848464 0
M  V30 3440 C 326.593 1.21315 1.41914 0
M  V30 3441 C 326.944 -0.171847 1.95446 0
M  V30 3442 O 326.069 -1.07093 1.88043 0
M  V30 3443 C 326.664 2.19631 2.57968 0
M  V30 3444 C 325.223 2.12003 3.11017 0
M  V30 3445 C 324.37 2.07651 1.83783 0
M  V30 3446 H 327.321 1.44549 0.655071 0
M  V30 3447 H 327.342 1.79845 3.35315 0
M  V30 3448 H 326.854 3.20423 2.18976 0
M  V30 3449 H 324.955 1.14481 3.54577 0
M  V30 3450 H 325.068 3.02111 3.71841 0
M  V30 3451 H 323.432 1.52983 2.03638 0
M  V30 3452 H 324.215 3.10235 1.47 0
M  V30 3453 N 326.66 -1.06551 1.16123 0
M  V30 3454 C 327.906 -1.79567 0.94252 0
M  V30 3455 C 328.239 -1.86869 -0.528547 0
M  V30 3456 O 327.514 -1.35838 -1.39206 0
M  V30 3457 C 327.797 -3.24195 1.56747 0
M  V30 3458 C 327.65 -3.24989 3.10969 0
M  V30 3459 C 328.969 -4.21678 1.25998 0
M  V30 3460 H 326.088 -0.651883 0.343828 0
M  V30 3461 H 328.73 -1.2463 1.43413 0
M  V30 3462 H 326.88 -3.71107 1.14942 0
M  V30 3463 H 328.552 -2.86258 3.61737 0
M  V30 3464 H 326.795 -2.63716 3.44436 0
M  V30 3465 H 327.466 -4.27005 3.49815 0
M  V30 3466 H 329.942 -3.83196 1.62174 0
M  V30 3467 H 328.818 -5.21146 1.7233 0
M  V30 3468 H 329.079 -4.4174 0.178367 0
M  V30 3469 N 328.138 -0.959301 -1.25041 0
M  V30 3470 C 329.366 -0.633949 -1.96948 0
M  V30 3471 C 329.781 0.794916 -1.7125 0
M  V30 3472 O 329.138 1.53231 -0.991287 0
M  V30 3473 C 329.189 -0.888805 -3.50403 0
M  V30 3474 O 328.91 -2.26149 -3.75218 0
M  V30 3475 C 330.411 -0.576482 -4.39536 0
M  V30 3476 H 327.631 -0.237263 -0.627652 0
M  V30 3477 H 330.175 -1.28495 -1.59089 0
M  V30 3478 H 328.33 -0.284145 -3.86357 0
M  V30 3479 H 328.744 -2.33514 -4.6965 0
M  V30 3480 H 330.218 -0.805314 -5.46094 0
M  V30 3481 H 330.695 0.489075 -4.36468 0
M  V30 3482 H 331.301 -1.16067 -4.09156 0
M  V30 3483 N 329.616 1.39756 -0.72842 0
M  V30 3484 C 330.864 2.00248 -0.272946 0
M  V30 3485 C 331.185 1.58077 1.14178 0
M  V30 3486 O 330.455 0.826014 1.77634 0
M  V30 3487 H 329.035 0.740554 -0.0979247 0
M  V30 3488 H 331.697 1.70903 -0.936912 0
M  V30 3489 H 330.793 3.10495 -0.316142 0
M  V30 3490 N 331.094 0.475555 1.50254 0
M  V30 3491 C 332.024 -0.30611 2.31485 0
M  V30 3492 C 333.005 -0.986228 1.38591 0
M  V30 3493 O 334.19 -0.982541 1.67511 0
M  V30 3494 C 331.32 -1.38588 3.1845 0
M  V30 3495 C 330.274 -0.827115 4.19932 0
M  V30 3496 C 329.6 -2.00551 4.95665 0
M  V30 3497 C 330.9 0.16463 5.2204 0
M  V30 3498 H 332.594 0.371866 2.97082 0
M  V30 3499 H 330.14 0.180282 1.42867 0
M  V30 3500 H 332.093 -1.94023 3.74076 0
M  V30 3501 H 330.817 -2.09269 2.50747 0
M  V30 3502 H 329.476 -0.294702 3.65414 0
M  V30 3503 H 329.124 -2.6994 4.2443 0
M  V30 3504 H 328.824 -1.63784 5.64313 0
M  V30 3505 H 330.348 -2.56468 5.54127 0
M  V30 3506 H 331.762 -0.300699 5.72511 0
M  V30 3507 H 330.159 0.446813 5.98434 0
M  V30 3508 H 331.229 1.08905 4.72512 0
M  V30 3509 N 332.573 -1.56217 0.208337 0
M  V30 3510 C 333.819 -1.98242 -0.427552 0
M  V30 3511 C 334.152 -1.09554 -1.60348 0
M  V30 3512 O 333.427 -0.15035 -1.93918 0
M  V30 3513 C 333.71 -3.4931 -0.874907 0
M  V30 3514 C 333.563 -4.48773 0.303751 0
M  V30 3515 C 334.882 -4.04424 -1.73577 0
M  V30 3516 H 332.001 -0.720744 -0.153936 0
M  V30 3517 H 334.643 -1.87586 0.30192 0
M  V30 3518 H 332.793 -3.58522 -1.49648 0
M  V30 3519 H 334.465 -4.51586 0.941682 0
M  V30 3520 H 332.708 -4.23194 0.953375 0
M  V30 3521 H 333.379 -5.51976 -0.0519883 0
M  V30 3522 H 335.855 -3.98075 -1.21143 0
M  V30 3523 H 334.731 -5.1047 -2.01771 0
M  V30 3524 H 334.992 -3.50494 -2.69456 0
M  V30 3525 N 334.051 0.0651679 -1.57465 0
M  V30 3526 C 334.984 1.10876 -1.99453 0
M  V30 3527 C 335.962 1.37205 -0.872555 0
M  V30 3528 O 337.146 1.50468 -1.13542 0
M  V30 3529 C 334.273 2.45167 -2.3369 0
M  V30 3530 C 333.319 2.3493 -3.55964 0
M  V30 3531 S 334.152 1.73708 -5.06543 0
M  V30 3532 C 335.308 3.09563 -5.43987 0
M  V30 3533 H 335.541 0.750967 -2.87659 0
M  V30 3534 H 333.074 0.273933 -1.51951 0
M  V30 3535 H 335.032 3.22412 -2.54088 0
M  V30 3536 H 333.693 2.78105 -1.46001 0
M  V30 3537 H 332.886 3.3398 -3.77457 0
M  V30 3538 H 332.488 1.65823 -3.3523 0
M  V30 3539 H 334.78 4.05882 -5.42463 0
M  V30 3540 H 335.723 2.92843 -6.44708 0
M  V30 3541 H 336.131 3.10474 -4.71451 0
M  V30 3542 N 335.529 1.53961 0.336706 0
M  V30 3543 C 336.94 1.62914 0.911925 0
M  V30 3544 C 337.291 0.514795 1.89326 0
M  V30 3545 O 336.416 -0.354395 2.13478 0
M  V30 3546 C 337.011 2.95304 1.66076 0
M  V30 3547 C 335.57 3.06496 2.18489 0
M  V30 3548 C 334.717 2.58403 1.00613 0
M  V30 3549 H 337.668 1.58285 0.114649 0
M  V30 3550 H 337.689 2.84727 2.5241 0
M  V30 3551 H 337.201 3.76387 0.946276 0
M  V30 3552 H 335.302 2.3006 2.93092 0
M  V30 3553 H 335.415 4.1208 2.44391 0
M  V30 3554 H 333.779 2.13977 1.38152 0
M  V30 3555 H 334.562 3.41932 0.306179 0
M  V30 3556 N 337.007 -0.598083 1.45811 0
M  V30 3557 C 338.255 -1.35413 1.50026 0
M  V30 3558 C 338.576 -1.94444 0.147177 0
M  V30 3559 O 337.846 -1.77701 -0.824571 0
M  V30 3560 H 336.426 -0.502727 0.552517 0
M  V30 3561 H 339.088 -0.701606 1.81834 0
M  V30 3562 H 338.184 -2.16871 2.2444 0
M  V30 3563 N 338.485 -1.33259 -0.841409 0
M  V30 3564 C 339.731 -1.24757 -1.59886 0
M  V30 3565 C 340.064 0.186913 -1.93298 0
M  V30 3566 O 339.339 1.12757 -1.5848 0
M  V30 3567 C 339.622 -2.12036 -2.91055 0
M  V30 3568 C 339.475 -3.63929 -2.6434 0
M  V30 3569 C 340.794 -1.9916 -3.92458 0
M  V30 3570 H 337.913 -0.454542 -0.580138 0
M  V30 3571 H 340.555 -1.63335 -0.970647 0
M  V30 3572 H 338.705 -1.79265 -3.44669 0
M  V30 3573 H 340.377 -4.06978 -2.17178 0
M  V30 3574 H 338.62 -3.85935 -1.98082 0
M  V30 3575 H 339.291 -4.20341 -3.57796 0
M  V30 3576 H 341.767 -2.27895 -3.48143 0
M  V30 3577 H 340.643 -2.62484 -4.82072 0
M  V30 3578 H 340.904 -0.963082 -4.31482 0
M  V30 3579 N 339.963 1.05934 -1.16686 0
M  V30 3580 C 341.193 1.82226 -0.973515 0
M  V30 3581 C 341.601 1.8297 0.481532 0
M  V30 3582 O 340.944 1.25009 1.34604 0
M  V30 3583 C 341.006 3.29897 -1.42858 0
M  V30 3584 C 340.67 3.52849 -2.90425 0
M  V30 3585 C 341.667 3.45595 -3.88407 0
M  V30 3586 C 339.352 3.80053 -3.28428 0
M  V30 3587 C 341.346 3.65217 -5.22394 0
M  V30 3588 C 339.033 3.99325 -4.62583 0
M  V30 3589 C 340.031 3.91905 -5.59374 0
M  V30 3590 O 339.719 4.10647 -6.91104 0
M  V30 3591 H 339.451 0.581314 -0.345036 0
M  V30 3592 H 342.005 1.3453 -1.55212 0
M  V30 3593 H 340.235 3.78472 -0.793477 0
M  V30 3594 H 341.924 3.87692 -1.20207 0
M  V30 3595 H 342.69 3.24564 -3.60393 0
M  V30 3596 H 338.569 3.84936 -2.53664 0
M  V30 3597 H 342.113 3.59341 -5.9793 0
M  V30 3598 H 338.01 4.19846 -4.90306 0
M  V30 3599 H 338.778 4.27915 -6.97733 0
M  V30 3600 N 341.441 0.965919 1.2453 0
M  V30 3601 C 342.669 0.644385 1.96609 0
M  V30 3602 C 343.084 -0.785823 1.71669 0
M  V30 3603 O 342.441 -1.52703 0.999399 0
M  V30 3604 C 342.492 0.907375 3.49927 0
M  V30 3605 O 342.213 2.28136 3.74013 0
M  V30 3606 C 343.714 0.599784 4.39224 0
M  V30 3607 H 340.934 0.240588 0.626385 0
M  V30 3608 H 343.478 1.29337 1.58405 0
M  V30 3609 H 341.633 0.304631 3.862 0
M  V30 3610 H 342.047 2.36002 4.68405 0
M  V30 3611 H 343.521 0.834263 5.45659 0
M  V30 3612 H 343.998 -0.465921 4.36722 0
M  V30 3613 H 344.604 1.18235 4.08535 0
M  V30 3614 N 342.919 -1.39368 0.735821 0
M  V30 3615 C 343.867 -2.32443 0.0855131 0
M  V30 3616 C 344.861 -1.53104 -0.724954 0
M  V30 3617 O 346.067 -1.68762 -0.626047 0
M  V30 3618 H 342.442 -0.751948 0.00885257 0
M  V30 3619 H 344.413 -2.84916 0.886883 0
M  V30 3620 C 343.162 -3.38206 -0.806983 0
M  V30 3621 H 342.485 -3.99335 -0.19274 0
M  V30 3622 H 343.925 -4.05779 -1.2296 0
M  V30 3623 C 342.384 -2.75321 -1.94165 0
M  V30 3624 O 342.914 -2.63231 -3.03435 0
M  V30 3625 N 341.12 -2.33396 -1.73132 0
M  V30 3626 H 340.667 -2.4343 -0.842596 0
M  V30 3627 H 340.625 -1.91661 -2.49225 0
M  V30 3628 N 344.397 -0.483516 -1.5 0
M  V30 3629 C 345.307 0.309172 -2.32554 0
M  V30 3630 C 346.323 0.984159 -1.43493 0
M  V30 3631 O 347.499 0.969399 -1.76535 0
M  V30 3632 C 344.564 1.36979 -3.18493 0
M  V30 3633 C 343.625 0.710095 -4.23387 0
M  V30 3634 C 342.858 1.72018 -5.05218 0
M  V30 3635 O 343.081 2.94813 -4.88305 0
M  V30 3636 O 342.015 1.28515 -5.8802 0
M  V30 3637 H 345.841 -0.366064 -3.01486 0
M  V30 3638 H 343.426 -0.24514 -1.47375 0
M  V30 3639 H 345.308 1.98385 -3.71781 0
M  V30 3640 H 343.983 2.02828 -2.52275 0
M  V30 3641 H 342.89 0.0567539 -3.74057 0
M  V30 3642 H 344.223 0.0943557 -4.9211 0
M  V30 3643 N 345.875 1.56104 -0.216619 0
M  V30 3644 C 346.838 2.18819 0.681962 0
M  V30 3645 C 347.838 1.14866 1.12528 0
M  V30 3646 O 349.028 1.40128 1.03488 0
M  V30 3647 C 346.16 2.80756 1.93362 0
M  V30 3648 H 347.353 2.99595 0.135254 0
M  V30 3649 H 344.906 1.56265 0.0330003 0
M  V30 3650 H 345.641 2.03837 2.52232 0
M  V30 3651 H 345.426 3.56876 1.62426 0
M  V30 3652 H 346.916 3.28844 2.57393 0
M  V30 3653 N 347.353 -0.0568162 1.57498 0
M  V30 3654 C 348.6 -0.753104 1.87975 0
M  V30 3655 C 348.928 -1.76815 0.81035 0
M  V30 3656 O 348.183 -1.94756 -0.19199 0
M  V30 3657 C 348.482 -1.48359 3.25153 0
M  V30 3658 C 348.148 -0.60713 4.46794 0
M  V30 3659 C 346.81 -0.365642 4.79809 0
M  V30 3660 C 349.162 -0.000305978 5.212 0
M  V30 3661 C 346.49 0.491905 5.84634 0
M  V30 3662 C 348.842 0.844781 6.26934 0
M  V30 3663 C 347.506 1.096 6.58441 0
M  V30 3664 H 346.776 -0.27558 0.687849 0
M  V30 3665 H 349.423 -0.0135173 1.91495 0
M  V30 3666 H 347.728 -2.29577 3.17492 0
M  V30 3667 H 349.425 -2.02739 3.45974 0
M  V30 3668 H 346.015 -0.805487 4.20963 0
M  V30 3669 H 350.199 -0.173961 4.95995 0
M  V30 3670 H 345.455 0.695131 6.07436 0
M  V30 3671 H 349.629 1.32165 6.83744 0
M  V30 3672 H 347.256 1.76224 7.39492 0
M  V30 3673 N 348.832 -1.54138 -0.328536 0
M  V30 3674 C 349.782 -1.79557 -1.4051 0
M  V30 3675 C 350.766 -0.651373 -1.47126 0
M  V30 3676 O 351.958 -0.911226 -1.51742 0
M  V30 3677 C 349.087 -2.02196 -2.77438 0
M  V30 3678 C 348.173 -3.22724 -2.75155 0
M  V30 3679 N 348.564 -4.43881 -2.42494 0
M  V30 3680 C 346.862 -3.24196 -3.06289 0
M  V30 3681 C 347.563 -5.25797 -2.48822 0
M  V30 3682 N 346.539 -4.62862 -2.8506 0
M  V30 3683 H 350.341 -2.70814 -1.1418 0
M  V30 3684 H 347.855 -1.53265 -0.536991 0
M  V30 3685 H 349.852 -2.18546 -3.55026 0
M  V30 3686 H 348.512 -1.12191 -3.04702 0
M  V30 3687 H 349.523 -4.70969 -2.15428 0
M  V30 3688 H 346.2 -2.44208 -3.38627 0
M  V30 3689 H 347.59 -6.32535 -2.26603 0
M  V30 3690 N 350.31 0.590341 -1.46126 0
M  V30 3691 C 351.721 1.17243 -1.45296 0
M  V30 3692 C 352.072 1.95281 -0.189723 0
M  V30 3693 O 351.197 2.04502 0.707674 0
M  V30 3694 C 351.792 2.13284 -2.6324 0
M  V30 3695 C 350.351 2.66832 -2.65476 0
M  V30 3696 C 349.498 1.42557 -2.3785 0
M  V30 3697 H 352.449 0.378692 -1.54116 0
M  V30 3698 H 352.47 2.96619 -2.38323 0
M  V30 3699 H 351.982 1.56459 -3.55165 0
M  V30 3700 H 350.083 3.27548 -1.77603 0
M  V30 3701 H 350.196 3.10088 -3.65215 0
M  V30 3702 H 348.56 1.72107 -1.87753 0
M  V30 3703 H 349.343 0.875741 -3.31942 0
M  V30 3704 N 351.788 1.33704 0.83433 0
M  V30 3705 C 353.065 1.16011 1.57483 0
M  V30 3706 C 353.445 -0.27176 2.09343 0
M  V30 3707 O 352.793 -1.27146 1.89858 0
M  V30 3708 C 353.003 2.20507 2.70514 0
M  V30 3709 C 354.351 2.54898 3.39577 0
M  V30 3710 O 355.375 2.19209 2.80759 0
M  V30 3711 O 354.234 3.16158 4.45765 0
M  V30 3712 H 351.328 0.448992 0.694503 0
M  V30 3713 H 353.874 1.453 0.876691 0
M  V30 3714 H 352.646 3.16667 2.29865 0
M  V30 3715 H 352.269 1.92329 3.47987 0
M  V30 3716 N 353.266 -1.05314 1.17247 0
M  V30 3717 C 354.515 -1.77685 0.954521 0
M  V30 3718 C 354.828 -1.88616 -0.518025 0
M  V30 3719 O 356.034 -2.57714 -0.854144 0
M  V30 3720 C 354.49 -3.19402 1.65863 0
M  V30 3721 C 354.098 -3.16605 3.16963 0
M  V30 3722 C 355.842 -3.96237 1.52303 0
M  V30 3723 C 353.749 -4.53103 3.80068 0
M  V30 3724 H 352.679 -0.666 0.353496 0
M  V30 3725 H 355.33 -1.1805 1.40486 0
M  V30 3726 H 353.712 -3.79355 1.13602 0
M  V30 3727 H 354.886 -2.66176 3.76148 0
M  V30 3728 H 353.201 -2.53268 3.30521 0
M  V30 3729 H 355.798 -4.97157 1.96822 0
M  V30 3730 H 356.141 -4.136 0.473401 0
M  V30 3731 H 356.674 -3.42829 2.01775 0
M  V30 3732 H 353.413 -4.40946 4.85023 0
M  V30 3733 H 352.933 -5.03686 3.2567 0
M  V30 3734 H 354.612 -5.22045 3.82202 0
M  V30 3735 N 354.744 -0.972509 -1.24016 0
M  V30 3736 C 355.993 -0.632603 -1.91523 0
M  V30 3737 C 356.306 0.836641 -1.76804 0
M  V30 3738 O 357.512 1.28728 -2.39043 0
M  V30 3739 C 355.968 -1.08082 -3.43287 0
M  V30 3740 C 355.576 -2.57386 -3.66683 0
M  V30 3741 C 357.32 -0.814288 -4.16617 0
M  V30 3742 C 355.227 -2.95915 -5.12043 0
M  V30 3743 H 354.157 -0.232898 -0.717129 0
M  V30 3744 H 356.808 -1.17936 -1.40582 0
M  V30 3745 H 355.19 -0.462339 -3.93292 0
M  V30 3746 H 356.364 -3.24405 -3.27258 0
M  V30 3747 H 354.679 -2.81701 -3.06649 0
M  V30 3748 H 357.276 -1.0781 -5.23718 0
M  V30 3749 H 357.619 0.24955 -4.15551 0
M  V30 3750 H 358.152 -1.39397 -3.72577 0
M  V30 3751 H 354.891 -4.0139 -5.18234 0
M  V30 3752 H 354.411 -2.33584 -5.52448 0
M  V30 3753 H 356.09 -2.86086 -5.80314 0
M  V30 3754 N 356.222 1.38976 -0.743202 0
M  V30 3755 C 357.152 2.33171 -0.123873 0
M  V30 3756 C 358.133 1.54336 0.71516 0
M  V30 3757 O 359.318 1.82696 0.658467 0
M  V30 3758 C 356.448 3.38474 0.777978 0
M  V30 3759 C 355.402 4.27979 0.0424758 0
M  V30 3760 C 354.728 5.2405 1.06189 0
M  V30 3761 C 356.028 5.10155 -1.1198 0
M  V30 3762 H 357.722 2.85213 -0.910709 0
M  V30 3763 H 355.268 1.37133 -0.439388 0
M  V30 3764 H 357.221 4.03328 1.22084 0
M  V30 3765 H 355.945 2.84891 1.59702 0
M  V30 3766 H 354.604 3.64616 -0.380853 0
M  V30 3767 H 354.252 4.66758 1.87472 0
M  V30 3768 H 353.952 5.84785 0.574485 0
M  V30 3769 H 355.476 5.9178 1.50428 0
M  V30 3770 H 356.89 5.68307 -0.75499 0
M  V30 3771 H 355.287 5.80073 -1.53738 0
M  V30 3772 H 356.357 4.44504 -1.93764 0
M  V30 3773 N 357.7 0.491464 1.49741 0
M  V30 3774 C 358.63 -0.28154 2.31796 0
M  V30 3775 C 359.611 -0.971473 1.3963 0
M  V30 3776 O 360.796 -0.964719 1.68543 0
M  V30 3777 C 357.926 -1.35203 3.19902 0
M  V30 3778 C 356.88 -0.782529 4.20786 0
M  V30 3779 C 356.206 -1.95283 4.97764 0
M  V30 3780 C 357.506 0.21999 5.21837 0
M  V30 3781 H 359.2 0.403355 2.96671 0
M  V30 3782 H 356.746 0.195425 1.42668 0
M  V30 3783 H 358.699 -1.90045 3.76113 0
M  V30 3784 H 357.423 -2.06598 2.52953 0
M  V30 3785 H 356.082 -0.255928 3.65706 0
M  V30 3786 H 355.73 -2.65423 4.2727 0
M  V30 3787 H 355.43 -1.57789 5.66018 0
M  V30 3788 H 356.954 -2.50577 5.56816 0
M  V30 3789 H 358.368 -0.23996 5.72798 0
M  V30 3790 H 356.765 0.51026 5.97927 0
M  V30 3791 H 357.835 1.13911 4.7133 0
M  V30 3792 N 359.178 -1.55987 0.224894 0
M  V30 3793 C 360.589 -1.84553 -0.282345 0
M  V30 3794 C 360.94 -1.14634 -1.59227 0
M  V30 3795 O 360.065 -0.417155 -2.12341 0
M  V30 3796 C 360.66 -3.348 -0.519062 0
M  V30 3797 C 359.219 -3.63671 -0.970604 0
M  V30 3798 C 358.366 -2.77277 -0.0355261 0
M  V30 3799 H 361.317 -1.52245 0.448006 0
M  V30 3800 H 361.338 -3.55187 -1.36463 0
M  V30 3801 H 360.85 -3.8566 0.43449 0
M  V30 3802 H 358.951 -3.1827 -1.9374 0
M  V30 3803 H 359.064 -4.71631 -0.842698 0
M  V30 3804 H 357.428 -2.48846 -0.542927 0
M  V30 3805 H 358.211 -3.30937 0.913003 0
M  V30 3806 N 360.656 0.0484629 -1.57525 0
M  V30 3807 C 361.904 0.741657 -1.88 0
M  V30 3808 C 362.225 1.76918 -0.820054 0
M  V30 3809 O 361.495 1.95335 0.148661 0
M  V30 3810 H 360.075 0.276908 -0.69378 0
M  V30 3811 H 362.737 0.019013 -1.94891 0
M  V30 3812 H 361.833 1.24336 -2.86264 0
M  V30 3813 N 362.134 1.5431 0.320358 0
M  V30 3814 C 363.374 1.74395 1.0661 0
M  V30 3815 C 363.738 0.508602 1.85141 0
M  V30 3816 O 364.939 0.586856 2.62316 0
M  V30 3817 C 363.21 2.98619 1.96371 0
M  V30 3818 S 364.769 3.39621 2.77854 0
M  V30 3819 H 361.587 0.613204 0.359863 0
M  V30 3820 H 364.189 1.9249 0.341727 0
M  V30 3821 H 362.893 3.86673 1.3752 0
M  V30 3822 H 362.424 2.83055 2.73209 0
M  V30 3823 H 364.439 2.95172 3.98858 0
M  V30 3824 N 363.613 -0.582584 1.46437 0
M  V30 3825 C 364.861 -1.33814 1.51453 0
M  V30 3826 C 365.182 -1.94277 0.167792 0
M  V30 3827 O 364.452 -1.78566 -0.805677 0
M  V30 3828 H 363.032 -0.496838 0.557818 0
M  V30 3829 H 365.694 -0.682281 1.82568 0
M  V30 3830 H 364.79 -2.14479 2.26728 0
M  V30 3831 N 365.091 -1.34144 -0.827227 0
M  V30 3832 C 366.337 -1.26446 -1.58554 0
M  V30 3833 C 366.67 0.1664 -1.93486 0
M  V30 3834 O 365.945 1.1107 -1.59667 0
M  V30 3835 C 366.228 -2.15111 -2.8879 0
M  V30 3836 C 366.081 -3.66712 -2.60465 0
M  V30 3837 C 367.4 -2.03311 -3.90324 0
M  V30 3838 H 364.519 -0.46067 -0.575284 0
M  V30 3839 H 367.161 -1.64356 -0.953269 0
M  V30 3840 H 365.311 -1.8291 -3.42748 0
M  V30 3841 H 366.983 -4.09259 -2.1285 0
M  V30 3842 H 365.226 -3.88014 -1.93978 0
M  V30 3843 H 365.897 -4.24112 -3.53317 0
M  V30 3844 H 368.373 -2.31574 -3.45706 0
M  V30 3845 H 367.249 -2.67582 -4.79261 0
M  V30 3846 H 367.51 -1.00879 -4.30437 0
M  V30 3847 N 366.569 1.04691 -1.17803 0
M  V30 3848 C 367.846 1.7472 -0.879328 0
M  V30 3849 C 368.226 2.01812 0.619271 0
M  V30 3850 O 367.574 1.65824 1.57209 0
M  V30 3851 C 367.784 3.03686 -1.71976 0
M  V30 3852 C 369.132 3.77542 -1.94286 0
M  V30 3853 O 370.156 3.13569 -1.68976 0
M  V30 3854 O 369.015 4.92506 -2.36855 0
M  V30 3855 H 366.109 0.760011 -0.326056 0
M  V30 3856 H 368.655 1.10813 -1.28525 0
M  V30 3857 H 367.427 2.79754 -2.73594 0
M  V30 3858 H 367.05 3.75332 -1.31194 0
M  V30 3859 N 368.047 0.979072 1.23499 0
M  V30 3860 C 369.294 0.647219 1.91878 0
M  V30 3861 C 369.622 -0.819074 1.76413 0
M  V30 3862 O 368.877 -1.60616 1.11808 0
M  V30 3863 C 369.176 0.981932 3.43646 0
M  V30 3864 C 368.842 2.43822 3.79291 0
M  V30 3865 C 367.504 2.83622 3.88731 0
M  V30 3866 C 369.856 3.3828 3.96505 0
M  V30 3867 C 367.184 4.16897 4.12812 0
M  V30 3868 C 369.536 4.71197 4.22085 0
M  V30 3869 C 368.2 5.10758 4.29747 0
M  V30 3870 H 367.47 0.236834 0.702133 0
M  V30 3871 H 370.117 1.23268 1.46551 0
M  V30 3872 H 368.422 0.314365 3.90537 0
M  V30 3873 H 370.119 0.703395 3.94783 0
M  V30 3874 H 366.709 2.11966 3.72516 0
M  V30 3875 H 370.893 3.0871 3.88603 0
M  V30 3876 H 366.149 4.47157 4.16966 0
M  V30 3877 H 370.323 5.44348 4.34348 0
M  V30 3878 H 367.95 6.1405 4.48159 0
M  V30 3879 N 369.525 -1.3858 0.750561 0
M  V30 3880 C 370.753 -2.04471 0.316098 0
M  V30 3881 C 371.168 -1.56606 -1.05452 0
M  V30 3882 O 370.525 -0.737784 -1.66922 0
M  V30 3883 C 370.576 -3.60025 0.326275 0
M  V30 3884 O 370.297 -4.06133 1.6428 0
M  V30 3885 C 371.798 -4.43131 -0.122429 0
M  V30 3886 H 369.018 -0.65717 0.135528 0
M  V30 3887 H 371.562 -1.77329 1.01857 0
M  V30 3888 H 369.717 -3.86014 -0.327431 0
M  V30 3889 H 370.131 -5.00547 1.56693 0
M  V30 3890 H 371.605 -5.51963 -0.0641473 0
M  V30 3891 H 372.082 -4.23333 -1.16988 0
M  V30 3892 H 372.688 -4.22323 0.50229 0
M  V30 3893 N 371.003 -0.499398 -1.49478 0
M  V30 3894 C 371.953 0.299103 -2.2603 0
M  V30 3895 C 372.937 0.936934 -1.30807 0
M  V30 3896 O 374.129 0.844798 -1.55538 0
M  V30 3897 C 371.258 1.36391 -3.15044 0
M  V30 3898 C 370.344 0.732398 -4.17728 0
M  V30 3899 N 370.735 -0.164028 -5.05534 0
M  V30 3900 C 369.033 0.993162 -4.34801 0
M  V30 3901 C 369.734 -0.525345 -5.79323 0
M  V30 3902 N 368.71 0.106348 -5.43496 0
M  V30 3903 H 372.512 -0.391003 -2.91287 0
M  V30 3904 H 370.026 -0.31537 -1.59308 0
M  V30 3905 H 372.023 1.94939 -3.68516 0
M  V30 3906 H 370.683 2.05571 -2.51338 0
M  V30 3907 H 371.694 -0.534736 -5.15132 0
M  V30 3908 H 368.371 1.67783 -3.82302 0
M  V30 3909 H 369.761 -1.25862 -6.60006 0
M  V30 3910 N 372.481 1.55866 -0.233164 0
M  V30 3911 C 373.706 2.03449 0.402906 0
M  V30 3912 C 374.131 1.11166 1.51736 0
M  V30 3913 O 373.489 0.101996 1.81013 0
M  V30 3914 C 373.537 3.49165 0.9009 0
M  V30 3915 O 372.641 3.60019 2.01147 0
M  V30 3916 H 371.982 0.657913 0.0897025 0
M  V30 3917 H 374.512 2.01493 -0.355201 0
M  V30 3918 H 374.522 3.89716 1.2077 0
M  V30 3919 H 373.197 4.15813 0.0852889 0
M  V30 3920 H 371.774 3.3136 1.71042 0
M  V30 3921 N 373.959 -0.0401083 1.57549 0
M  V30 3922 C 375.375 -0.395556 1.54621 0
M  V30 3923 C 375.575 -1.77281 0.957799 0
M  V30 3924 O 374.631 -2.45888 0.574031 0
M  V30 3925 C 375.944 -0.307535 2.99123 0
M  V30 3926 C 377.492 -0.385425 3.10618 0
M  V30 3927 C 377.967 -0.326973 4.56831 0
M  V30 3928 N 379.458 -0.386102 4.61588 0
M  V30 3929 C 380.193 -0.363591 5.72246 0
M  V30 3930 N 379.689 -0.29402 6.92176 0
M  V30 3931 N 381.482 -0.412503 5.60584 0
M  V30 3932 H 373.633 0.861325 1.94152 0
M  V30 3933 H 375.896 0.326445 0.890021 0
M  V30 3934 H 375.602 0.638461 3.45856 0
M  V30 3935 H 375.476 -1.10552 3.60636 0
M  V30 3936 H 377.863 -1.32185 2.63839 0
M  V30 3937 H 377.944 0.44171 2.51957 0
M  V30 3938 H 377.588 0.605738 5.04275 0
M  V30 3939 H 377.518 -1.17207 5.13391 0
M  V30 3940 H 380.009 -0.442832 3.75296 0
M  V30 3941 H 380.322 -0.28164 7.72287 0
M  V30 3942 H 378.667 -0.260232 6.94513 0
M  V30 3943 H 381.858 -0.464769 4.65787 0
M  V30 3944 H 382.031 -0.391492 6.46816 0
M  V30 3945 N 375.437 -1.54477 -0.31217 0
M  V30 3946 C 376.367 -1.87652 -1.38957 0
M  V30 3947 C 377.348 -0.734358 -1.53431 0
M  V30 3948 O 378.533 -0.98911 -1.67123 0
M  V30 3949 C 375.663 -2.11396 -2.75552 0
M  V30 3950 C 374.617 -3.27243 -2.75855 0
M  V30 3951 C 373.943 -3.36382 -4.15633 0
M  V30 3952 C 375.243 -4.64622 -2.38587 0
M  V30 3953 H 376.937 -2.77887 -1.11442 0
M  V30 3954 H 374.483 -1.33707 -0.534655 0
M  V30 3955 H 376.436 -2.33189 -3.51 0
M  V30 3956 H 375.16 -1.17921 -3.04569 0
M  V30 3957 H 373.819 -3.05356 -2.02863 0
M  V30 3958 H 373.467 -2.40445 -4.41809 0
M  V30 3959 H 373.167 -4.14249 -4.1674 0
M  V30 3960 H 374.691 -3.60422 -4.92877 0
M  V30 3961 H 376.105 -4.86219 -3.03749 0
M  V30 3962 H 374.502 -5.45121 -2.50925 0
M  V30 3963 H 375.572 -4.66097 -1.33723 0
M  V30 3964 N 376.915 0.57481 -1.46744 0
M  V30 3965 C 378.14 1.36341 -1.56288 0
M  V30 3966 C 378.565 1.86954 -0.207347 0
M  V30 3967 O 377.923 1.62006 0.813871 0
M  V30 3968 C 377.971 2.52147 -2.57787 0
M  V30 3969 O 377.075 3.53834 -2.11838 0
M  V30 3970 H 376.416 0.405713 -0.525636 0
M  V30 3971 H 378.946 0.696453 -1.92382 0
M  V30 3972 H 378.956 2.98958 -2.77648 0
M  V30 3973 H 377.631 2.14663 -3.5622 0
M  V30 3974 H 376.208 3.1345 -2.01999 0
M  V30 3975 N 378.394 1.34581 0.820102 0
M  V30 3976 C 379.342 1.26401 1.95258 0
M  V30 3977 C 380.336 0.161553 1.68628 0
M  V30 3978 O 381.542 0.326703 1.7701 0
M  V30 3979 H 377.917 0.392749 0.64129 0
M  V30 3980 H 379.888 2.22105 1.99279 0
M  V30 3981 C 378.637 1.03919 3.31807 0
M  V30 3982 H 377.96 1.87984 3.52848 0
M  V30 3983 H 379.4 1.02232 4.11491 0
M  V30 3984 C 377.859 -0.257433 3.35915 0
M  V30 3985 O 378.389 -1.25784 3.81499 0
M  V30 3986 N 376.595 -0.291524 2.89134 0
M  V30 3987 H 376.142 0.523161 2.52232 0
M  V30 3988 H 376.1 -1.15883 2.92264 0
M  V30 3989 N 379.872 -1.04064 1.18357 0
M  V30 3990 C 380.802 -2.14001 0.934113 0
M  V30 3991 C 381.783 -1.69616 -0.128186 0
M  V30 3992 O 382.968 -1.94185 0.0244093 0
M  V30 3993 C 380.098 -3.44253 0.459066 0
M  V30 3994 C 379.052 -4.02261 1.46185 0
M  V30 3995 C 378.378 -5.27992 0.844322 0
M  V30 3996 C 379.678 -4.38432 2.83856 0
M  V30 3997 H 381.372 -2.35127 1.85352 0
M  V30 3998 H 378.918 -1.12998 0.892604 0
M  V30 3999 H 380.871 -4.20522 0.271907 0
M  V30 4000 H 379.595 -3.22813 -0.495912 0
M  V30 4001 H 378.254 -3.28074 1.63595 0
M  V30 4002 H 377.902 -5.02862 -0.117845 0
M  V30 4003 H 377.602 -5.67765 1.51384 0
M  V30 4004 H 379.126 -6.06938 0.667693 0
M  V30 4005 H 380.54 -5.05688 2.70098 0
M  V30 4006 H 378.937 -4.89254 3.47491 0
M  V30 4007 H 380.007 -3.4826 3.37406 0
M  V30 4008 N 381.35 -0.985608 -1.22978 0
M  V30 4009 C 382.28 -0.549649 -2.26939 0
M  V30 4010 C 383.261 0.419803 -1.64838 0
M  V30 4011 O 384.446 0.31203 -1.91677 0
M  V30 4012 C 381.576 0.143652 -3.47003 0
M  V30 4013 C 380.53 -0.743606 -4.21491 0
M  V30 4014 C 379.856 0.0822027 -5.34637 0
M  V30 4015 C 381.156 -2.03694 -4.80943 0
M  V30 4016 H 382.85 -1.41862 -2.63658 0
M  V30 4017 H 380.396 -0.683571 -1.26741 0
M  V30 4018 H 382.349 0.459985 -4.18882 0
M  V30 4019 H 381.073 1.04711 -3.09359 0
M  V30 4020 H 379.732 -1.04347 -3.51436 0
M  V30 4021 H 379.38 0.986359 -4.93234 0
M  V30 4022 H 379.08 -0.508377 -5.85397 0
M  V30 4023 H 380.604 0.392797 -6.09335 0
M  V30 4024 H 382.018 -1.78504 -5.44802 0
M  V30 4025 H 380.415 -2.57573 -5.42011 0
M  V30 4026 H 381.485 -2.72042 -4.01399 0
M  V30 4027 N 382.828 1.3818 -0.7579 0
M  V30 4028 C 384.076 1.99624 -0.315361 0
M  V30 4029 C 384.397 1.60464 1.10799 0
M  V30 4030 O 383.667 0.863507 1.75842 0
M  V30 4031 H 382.247 0.73831 -0.113611 0
M  V30 4032 H 384.909 1.68878 -0.972952 0
M  V30 4033 H 384.005 3.09754 -0.381931 0
M  V30 4034 N 384.306 0.507319 1.49211 0
M  V30 4035 C 385.555 -0.0368315 2.01666 0
M  V30 4036 C 385.868 -1.37459 1.39156 0
M  V30 4037 O 387.074 -2.00579 1.82976 0
M  V30 4038 C 385.53 -0.116089 3.59713 0
M  V30 4039 C 385.138 1.2154 4.31198 0
M  V30 4040 C 386.882 -0.610268 4.2009 0
M  V30 4041 C 384.789 1.09796 5.81119 0
M  V30 4042 H 383.719 -0.0175376 0.753796 0
M  V30 4043 H 386.37 0.647691 1.71689 0
M  V30 4044 H 384.752 -0.8652 3.86433 0
M  V30 4045 H 385.926 1.9783 4.16173 0
M  V30 4046 H 384.241 1.64352 3.82593 0
M  V30 4047 H 386.838 -0.715742 5.29888 0
M  V30 4048 H 387.181 -1.61064 3.8388 0
M  V30 4049 H 387.714 0.0824916 3.97714 0
M  V30 4050 H 384.453 2.0728 6.21864 0
M  V30 4051 H 383.973 0.376058 5.9862 0
M  V30 4052 H 385.652 0.779281 6.4229 0
M  V30 4053 N 385.784 -1.5574 0.241426 0
M  V30 4054 C 387.2 -1.59196 -0.113548 0
M  V30 4055 C 387.4 -1.25852 -1.57364 0
M  V30 4056 O 386.456 -1.00322 -2.31715 0
M  V30 4057 C 387.769 -2.99814 0.230695 0
M  V30 4058 C 389.317 -3.12513 0.174547 0
M  V30 4059 C 389.792 -4.55342 0.492744 0
M  V30 4060 N 391.283 -4.61076 0.443043 0
M  V30 4061 C 392.018 -5.6956 0.662484 0
M  V30 4062 N 391.514 -6.86328 0.944761 0
M  V30 4063 N 393.307 -5.58957 0.593564 0
M  V30 4064 H 385.458 -1.75685 1.19368 0
M  V30 4065 H 387.721 -0.81756 0.479896 0
M  V30 4066 H 387.427 -3.28932 1.24485 0
M  V30 4067 H 387.301 -3.74568 -0.444833 0
M  V30 4068 H 389.688 -2.83179 -0.830277 0
M  V30 4069 H 389.769 -2.40045 0.883845 0
M  V30 4070 H 389.413 -4.85396 1.4951 0
M  V30 4071 H 389.343 -5.26062 -0.23797 0
M  V30 4072 H 391.834 -3.77179 0.233374 0
M  V30 4073 H 392.147 -7.64935 1.09977 0
M  V30 4074 H 390.492 -6.88025 0.982175 0
M  V30 4075 H 393.683 -4.66611 0.373123 0
M  V30 4076 H 393.856 -6.43433 0.767981 0
M  V30 4077 N 387.262 0.0317525 -1.57568 0
M  V30 4078 C 388.209 1.0332 -2.06382 0
M  V30 4079 C 389.179 1.36082 -0.952414 0
M  V30 4080 O 390.364 1.46466 -1.2228 0
M  V30 4081 C 387.504 2.32989 -2.54578 0
M  V30 4082 C 386.617 2.0641 -3.79498 0
M  V30 4083 C 385.752 3.2993 -4.16317 0
M  V30 4084 C 384.791 2.98893 -5.34162 0
M  V30 4085 N 383.928 4.14857 -5.66426 0
M  V30 4086 H 388.768 0.609982 -2.9169 0
M  V30 4087 H 386.305 0.289573 -1.44222 0
M  V30 4088 H 388.263 3.0875 -2.80587 0
M  V30 4089 H 386.893 2.73039 -1.7219 0
M  V30 4090 H 385.945 1.21158 -3.6059 0
M  V30 4091 H 387.257 1.79513 -4.65378 0
M  V30 4092 H 386.411 4.1406 -4.4344 0
M  V30 4093 H 385.15 3.59938 -3.29083 0
M  V30 4094 H 384.155 2.13164 -5.06795 0
M  V30 4095 H 385.38 2.70165 -6.23047 0
M  V30 4096 H 383.326 4.44821 -4.82151 0
M  V30 4097 H 383.243 3.91374 -6.4681 0
M  V30 4098 H 384.511 4.99868 -5.98124 0
M  V30 4099 N 388.74 1.54641 0.303973 0
M  V30 4100 C 390.156 1.45788 0.649463 0
M  V30 4101 C 390.356 0.64666 1.90842 0
M  V30 4102 O 389.412 0.153183 2.52035 0
M  V30 4103 C 390.725 2.89718 0.805227 0
M  V30 4104 C 392.273 2.99742 0.901305 0
M  V30 4105 C 392.748 4.44863 1.08909 0
M  V30 4106 N 394.239 4.48559 1.15536 0
M  V30 4107 C 394.974 5.58026 1.3189 0
M  V30 4108 N 394.47 6.77422 1.45161 0
M  V30 4109 N 396.263 5.45708 1.34755 0
M  V30 4110 H 388.414 2.05854 -0.523237 0
M  V30 4111 H 390.677 0.932186 -0.172431 0
M  V30 4112 H 390.383 3.51666 -0.0489108 0
M  V30 4113 H 390.257 3.36964 1.69513 0
M  V30 4114 H 392.644 2.3791 1.74593 0
M  V30 4115 H 392.725 2.55797 -0.0125531 0
M  V30 4116 H 392.369 5.07288 0.249241 0
M  V30 4117 H 392.299 4.86436 2.01713 0
M  V30 4118 H 394.79 3.6254 1.06646 0
M  V30 4119 H 395.103 7.56604 1.57387 0
M  V30 4120 H 393.448 6.80292 1.42223 0
M  V30 4121 H 396.639 4.51378 1.23996 0
M  V30 4122 H 396.812 6.3107 1.47157 0
M  V30 4123 N 390.218 -0.567019 1.47046 0
M  V30 4124 C 391.15 -1.68985 1.54844 0
M  V30 4125 C 392.163 -1.56869 0.435431 0
M  V30 4126 O 393.352 -1.64006 0.70457 0
M  V30 4127 C 390.452 -3.07373 1.42742 0
M  V30 4128 C 389.625 -3.45339 2.6844 0
M  V30 4129 C 388.684 -4.62849 2.50314 0
M  V30 4130 O 387.71 -4.67922 3.24095 0
M  V30 4131 N 388.912 -5.58726 1.57499 0
M  V30 4132 H 391.677 -1.62745 2.51663 0
M  V30 4133 H 389.238 -0.753411 1.43302 0
M  V30 4134 H 391.23 -3.83803 1.28365 0
M  V30 4135 H 389.8 -3.07893 0.540445 0
M  V30 4136 H 389.02 -2.58455 2.97648 0
M  V30 4137 H 390.308 -3.67476 3.51907 0
M  V30 4138 H 389.706 -5.57376 0.966876 0
M  V30 4139 H 388.263 -6.34523 1.49078 0
M  V30 4140 N 391.696 -1.35014 -0.812953 0
M  V30 4141 C 393.107 -1.25035 -1.38648 0
M  V30 4142 C 393.458 0.119967 -1.95833 0
M  V30 4143 O 392.583 1.02069 -1.90816 0
M  V30 4144 C 393.178 -2.26394 -2.52054 0
M  V30 4145 C 391.737 -2.20175 -3.05287 0
M  V30 4146 C 390.884 -2.12451 -1.78213 0
M  V30 4147 H 393.835 -1.46235 -0.616516 0
M  V30 4148 H 393.856 -1.88672 -3.30429 0
M  V30 4149 H 393.368 -3.26116 -2.10404 0
M  V30 4150 H 391.469 -1.23841 -3.51417 0
M  V30 4151 H 391.582 -3.11863 -3.63701 0
M  V30 4152 H 389.946 -1.58328 -1.9951 0
M  V30 4153 H 390.729 -3.14024 -1.38723 0
M  V30 4154 N 393.175 1.03435 -1.18907 0
M  V30 4155 C 394.422 1.76743 -0.988334 0
M  V30 4156 C 394.75 1.88447 0.481441 0
M  V30 4157 O 394.005 1.39383 1.37371 0
M  V30 4158 C 394.304 3.19792 -1.59586 0
M  V30 4159 C 393.97 3.28108 -3.09283 0
M  V30 4160 C 392.632 3.30084 -3.5014 0
M  V30 4161 C 394.984 3.27696 -4.05296 0
M  V30 4162 C 392.312 3.29299 -4.85571 0
M  V30 4163 C 394.664 3.28451 -5.4065 0
M  V30 4164 C 393.328 3.28723 -5.80946 0
M  V30 4165 H 392.598 0.64675 -0.361657 0
M  V30 4166 H 395.245 1.21442 -1.48068 0
M  V30 4167 H 393.55 3.78136 -1.02568 0
M  V30 4168 H 395.247 3.75171 -1.41589 0
M  V30 4169 H 391.837 3.27294 -2.76725 0
M  V30 4170 H 396.021 3.25354 -3.74778 0
M  V30 4171 H 391.277 3.2783 -5.16079 0
M  V30 4172 H 395.451 3.27082 -6.14809 0
M  V30 4173 H 393.078 3.27868 -6.85862 0
M  V30 4174 N 394.653 0.992116 1.22453 0
M  V30 4175 C 395.585 0.500024 2.23679 0
M  V30 4176 C 396.598 -0.404463 1.57696 0
M  V30 4177 O 397.787 -0.206722 1.77299 0
M  V30 4178 C 394.887 -0.294711 3.37616 0
M  V30 4179 C 394.06 0.605723 4.33186 0
M  V30 4180 C 393.119 -0.13717 5.26021 0
M  V30 4181 O 392.145 0.477164 5.67196 0
M  V30 4182 N 393.347 -1.4197 5.62872 0
M  V30 4183 H 396.112 1.37045 2.66531 0
M  V30 4184 H 393.673 0.866741 1.36745 0
M  V30 4185 H 395.665 -0.800329 3.96707 0
M  V30 4186 H 394.235 -1.06623 2.93854 0
M  V30 4187 H 393.455 1.29202 3.72425 0
M  V30 4188 H 394.743 1.21896 4.93983 0
M  V30 4189 H 394.141 -1.94015 5.31389 0
M  V30 4190 H 392.698 -1.87052 6.24383 0
M  V30 4191 N 396.131 -1.37776 0.765217 0
M  V30 4192 C 397.041 -2.34135 0.147666 0
M  V30 4193 C 398.057 -1.59854 -0.687215 0
M  V30 4194 O 399.233 -1.91983 -0.608659 0
M  V30 4195 C 396.298 -3.3901 -0.72617 0
M  V30 4196 C 395.359 -4.2912 0.124417 0
M  V30 4197 C 394.592 -5.28986 -0.707807 0
M  V30 4198 O 394.815 -5.36205 -1.94525 0
M  V30 4199 O 393.749 -6.01779 -0.12046 0
M  V30 4200 H 397.575 -2.88664 0.943758 0
M  V30 4201 H 395.16 -1.39824 0.526277 0
M  V30 4202 H 397.042 -4.03195 -1.22524 0
M  V30 4203 H 395.717 -2.86819 -1.50056 0
M  V30 4204 H 394.624 -3.68057 0.669696 0
M  V30 4205 H 395.957 -4.84598 0.861736 0
M  V30 4206 N 397.609 -0.515225 -1.4894 0
M  V30 4207 C 398.857 0.0241671 -2.02086 0
M  V30 4208 C 399.178 1.3616 -1.3959 0
M  V30 4209 O 398.448 1.87841 -0.556121 0
M  V30 4210 H 397.028 0.0119203 -0.746905 0
M  V30 4211 H 399.69 -0.675702 -1.82812 0
M  V30 4212 H 398.786 0.143385 -3.1177 0
M  V30 4213 N 399.087 1.5561 -0.249682 0
M  V30 4214 C 400.334 1.99011 0.374287 0
M  V30 4215 C 400.662 1.13785 1.57744 0
M  V30 4216 O 399.917 0.189326 1.94782 0
M  V30 4217 C 400.216 3.4775 0.824887 0
M  V30 4218 C 399.882 4.50086 -0.270819 0
M  V30 4219 C 398.544 4.77791 -0.571746 0
M  V30 4220 C 400.896 5.11312 -1.01041 0
M  V30 4221 C 398.224 5.63997 -1.61629 0
M  V30 4222 C 400.576 5.98651 -2.0445 0
M  V30 4223 C 399.24 6.24688 -2.35204 0
M  V30 4224 H 398.51 0.728233 0.136961 0
M  V30 4225 H 401.157 1.88122 -0.358087 0
M  V30 4226 H 399.462 3.55985 1.63651 0
M  V30 4227 H 401.159 3.78721 1.31799 0
M  V30 4228 H 397.749 4.28592 -0.026136 0
M  V30 4229 H 401.933 4.89953 -0.791177 0
M  V30 4230 H 397.189 5.82425 -1.85988 0
M  V30 4231 H 401.363 6.45135 -2.62248 0
M  V30 4232 H 398.99 6.91281 -3.16282 0
M  V30 4233 N 400.565 -0.0233959 1.57583 0
M  V30 4234 C 401.981 -0.379134 1.55031 0
M  V30 4235 C 402.181 -1.76255 0.976548 0
M  V30 4236 O 401.237 -2.45266 0.600078 0
M  V30 4237 C 402.55 -0.275792 2.99433 0
M  V30 4238 C 404.098 -0.352458 3.11009 0
M  V30 4239 C 404.573 -0.278501 4.57152 0
M  V30 4240 N 406.064 -0.337123 4.61972 0
M  V30 4241 C 406.799 -0.302876 5.726 0
M  V30 4242 N 406.295 -0.220589 6.92449 0
M  V30 4243 N 408.088 -0.353023 5.6099 0
M  V30 4244 H 400.239 0.881869 1.93227 0
M  V30 4245 H 402.502 0.335867 0.886509 0
M  V30 4246 H 402.208 0.675108 3.4516 0
M  V30 4247 H 402.082 -1.06721 3.61788 0
M  V30 4248 H 404.469 -1.29379 2.65226 0
M  V30 4249 H 404.55 0.468409 2.51475 0
M  V30 4250 H 404.194 0.659189 5.03604 0
M  V30 4251 H 404.124 -1.11755 5.14605 0
M  V30 4252 H 406.615 -0.403002 3.75745 0
M  V30 4253 H 406.928 -0.199713 7.72542 0
M  V30 4254 H 405.273 -0.186555 6.9475 0
M  V30 4255 H 408.464 -0.415339 4.66254 0
M  V30 4256 H 408.637 -0.322866 6.47195 0
M  V30 4257 N 402.043 -1.548 -0.295768 0
M  V30 4258 C 403.292 -1.73538 -1.02798 0
M  V30 4259 C 403.605 -0.531159 -1.8825 0
M  V30 4260 O 404.811 -0.600458 -2.64777 0
M  V30 4261 C 403.267 -3.07051 -1.87744 0
M  V30 4262 C 402.875 -4.34968 -1.07269 0
M  V30 4263 C 404.619 -3.35146 -2.60533 0
M  V30 4264 C 402.526 -5.5953 -1.91521 0
M  V30 4265 H 401.456 -0.646794 -0.387522 0
M  V30 4266 H 404.107 -1.81278 -0.284718 0
M  V30 4267 H 402.489 -2.93289 -2.66078 0
M  V30 4268 H 403.663 -4.5958 -0.335117 0
M  V30 4269 H 401.978 -4.13847 -0.460384 0
M  V30 4270 H 404.575 -4.2541 -3.23929 0
M  V30 4271 H 404.918 -2.54255 -3.29636 0
M  V30 4272 H 405.451 -3.49902 -1.89244 0
M  V30 4273 H 402.19 -6.43103 -1.26878 0
M  V30 4274 H 401.71 -5.39096 -2.62937 0
M  V30 4275 H 403.389 -5.96982 -2.49442 0
M  V30 4276 N 403.521 0.559213 -1.47345 0
M  V30 4277 C 404.749 1.34194 -1.57479 0
M  V30 4278 C 405.164 1.87463 -0.224261 0
M  V30 4279 O 404.521 1.64888 0.782185 0
M  V30 4280 C 404.572 2.51324 -2.59843 0
M  V30 4281 O 404.293 2.00256 -3.89653 0
M  V30 4282 C 405.794 3.43563 -2.80142 0
M  V30 4283 H 403.014 0.409136 -0.531835 0
M  V30 4284 H 405.558 0.677609 -1.92947 0
M  V30 4285 H 403.713 3.13699 -2.27314 0
M  V30 4286 H 404.127 2.76708 -4.4557 0
M  V30 4287 H 405.601 4.2217 -3.55635 0
M  V30 4288 H 406.078 3.9698 -1.87892 0
M  V30 4289 H 406.684 2.87005 -3.1386 0
M  V30 4290 N 404.999 1.35443 0.805782 0
M  V30 4291 C 406.229 1.31687 1.59192 0
M  V30 4292 C 406.637 -0.10756 1.88894 0
M  V30 4293 O 405.98 -1.07017 1.49309 0
M  V30 4294 C 406.042 2.05686 2.94845 0
M  V30 4295 C 405.706 3.54868 2.87954 0
M  V30 4296 C 406.703 4.49444 2.61335 0
M  V30 4297 C 404.388 3.97528 3.07046 0
M  V30 4298 C 406.382 5.84655 2.53885 0
M  V30 4299 C 404.069 5.32833 2.99219 0
M  V30 4300 C 405.067 6.26209 2.72674 0
M  V30 4301 O 404.755 7.59032 2.64811 0
M  V30 4302 H 404.487 0.453878 0.50097 0
M  V30 4303 H 407.041 1.78892 1.0093 0
M  V30 4304 H 405.271 1.5312 3.55093 0
M  V30 4305 H 406.96 1.94998 3.55993 0
M  V30 4306 H 407.726 4.17804 2.46303 0
M  V30 4307 H 403.605 3.25233 3.26718 0
M  V30 4308 H 407.149 6.57508 2.33086 0
M  V30 4309 H 403.046 5.64087 3.13809 0
M  V30 4310 H 403.814 7.68967 2.80413 0
M  V30 4311 N 406.477 -1.02803 1.19454 0
M  V30 4312 C 407.754 -1.73299 0.907013 0
M  V30 4313 C 408.134 -2.02772 -0.587086 0
M  V30 4314 O 407.482 -1.68304 -1.54551 0
M  V30 4315 C 407.692 -3.00912 1.76785 0
M  V30 4316 C 409.04 -3.74403 2.00268 0
M  V30 4317 O 410.064 -3.10841 1.73943 0
M  V30 4318 O 408.923 -4.88675 2.4466 0
M  V30 4319 H 406.017 -0.754727 0.338106 0
M  V30 4320 H 408.563 -1.08754 1.30271 0
M  V30 4321 H 407.335 -2.75366 2.7801 0
M  V30 4322 H 406.958 -3.73197 1.37149 0
M  V30 4323 N 407.956 -0.998596 -1.21925 0
M  V30 4324 C 409.233 -0.593401 -1.86382 0
M  V30 4325 C 409.613 0.92916 -1.89552 0
M  V30 4326 O 408.961 1.81347 -1.39017 0
M  V30 4327 C 409.171 -1.22039 -3.26967 0
M  V30 4328 C 410.519 -1.32449 -4.03413 0
M  V30 4329 O 411.543 -1.17522 -3.36254 0
M  V30 4330 O 410.402 -1.56395 -5.23644 0
M  V30 4331 H 407.496 -0.202385 -0.801854 0
M  V30 4332 H 410.042 -1.09484 -1.29659 0
M  V30 4333 H 408.814 -2.26158 -3.19325 0
M  V30 4334 H 408.437 -0.704906 -3.91301 0
M  V30 4335 N 409.434 1.37368 -0.772513 0
M  V30 4336 C 410.364 2.32856 -0.173304 0
M  V30 4337 C 411.345 1.55818 0.682262 0
M  V30 4338 O 412.53 1.84052 0.619566 0
M  V30 4339 C 409.66 3.40048 0.706007 0
M  V30 4340 C 408.614 4.27973 -0.0483144 0
M  V30 4341 C 407.94 5.26184 0.950491 0
M  V30 4342 C 409.24 5.07665 -1.22776 0
M  V30 4343 H 410.934 2.83217 -0.971002 0
M  V30 4344 H 408.48 1.3617 -0.468377 0
M  V30 4345 H 410.433 4.05827 1.13501 0
M  V30 4346 H 409.157 2.88214 1.53623 0
M  V30 4347 H 407.816 3.63726 -0.458107 0
M  V30 4348 H 407.464 4.7063 1.77529 0
M  V30 4349 H 407.164 5.85872 0.450314 0
M  V30 4350 H 408.688 5.94838 1.37842 0
M  V30 4351 H 410.102 5.66578 -0.875366 0
M  V30 4352 H 408.499 5.76681 -1.66007 0
M  V30 4353 H 409.569 4.40294 -2.03149 0
M  V30 4354 N 410.912 0.523116 1.48665 0
M  V30 4355 C 411.822 -0.247406 2.33292 0
M  V30 4356 C 412.838 -0.945769 1.46052 0
M  V30 4357 O 414.014 -0.922253 1.79043 0
M  V30 4358 C 411.079 -1.28487 3.22012 0
M  V30 4359 C 410.14 -0.597592 4.2512 0
M  V30 4360 C 409.373 -1.58563 5.09601 0
M  V30 4361 O 409.596 -2.81763 4.95949 0
M  V30 4362 O 408.53 -1.12879 5.91221 0
M  V30 4363 H 412.356 0.445869 3.00409 0
M  V30 4364 H 409.941 0.284128 1.46673 0
M  V30 4365 H 411.823 -1.88459 3.7691 0
M  V30 4366 H 410.498 -1.96068 2.57564 0
M  V30 4367 H 409.405 0.0424407 3.74076 0
M  V30 4368 H 410.738 0.0361517 4.92187 0
M  V30 4369 N 412.39 -1.55475 0.257931 0
M  V30 4370 C 413.638 -1.98813 -0.363009 0
M  V30 4371 C 413.959 -1.14757 -1.57657 0
M  V30 4372 O 413.229 -0.232956 -1.9451 0
M  V30 4373 H 411.809 -0.734308 -0.137113 0
M  V30 4374 H 414.471 -1.9156 0.359281 0
M  V30 4375 H 413.567 -3.04941 -0.664634 0
M  V30 4376 N 413.868 0.0150385 -1.57593 0
M  V30 4377 C 415.116 0.701613 -1.8953 0
M  V30 4378 C 415.437 1.75139 -0.857396 0
M  V30 4379 O 414.707 1.95607 0.107194 0
M  V30 4380 H 413.287 0.26213 -0.699498 0
M  V30 4381 H 415.949 -0.0223304 -1.94887 0
M  V30 4382 H 415.045 1.18236 -2.88837 0
M  V30 4383 N 415.346 1.54954 0.287554 0
M  V30 4384 C 416.294 1.87606 1.37502 0
M  V30 4385 C 417.288 0.751001 1.51843 0
M  V30 4386 O 418.494 0.935169 1.53801 0
M  V30 4387 H 414.869 0.595231 0.459569 0
M  V30 4388 H 416.84 2.78477 1.07206 0
M  V30 4389 C 415.589 2.15183 2.73115 0
M  V30 4390 H 414.912 3.01234 2.62866 0
M  V30 4391 H 416.352 2.4196 3.48183 0
M  V30 4392 C 414.811 0.954686 3.2309 0
M  V30 4393 O 415.341 0.181949 4.01288 0
M  V30 4394 N 413.547 0.756368 2.80584 0
M  V30 4395 H 413.094 1.38643 2.17108 0
M  V30 4396 H 413.052 -0.0430391 3.14371 0
M  V30 4397 N 416.824 -0.551391 1.4764 0
M  V30 4398 C 418.073 -1.30467 1.53822 0
M  V30 4399 C 418.386 -1.94495 0.207661 0
M  V30 4400 O 419.592 -2.71099 0.147533 0
M  V30 4401 C 418.048 -2.36616 2.71184 0
M  V30 4402 C 417.656 -1.78754 4.10793 0
M  V30 4403 C 419.4 -3.13088 2.86663 0
M  V30 4404 C 417.307 -2.82717 5.19447 0
M  V30 4405 H 416.237 -0.490584 0.572576 0
M  V30 4406 H 418.888 -0.58494 1.73927 0
M  V30 4407 H 417.27 -3.11529 2.4447 0
M  V30 4408 H 418.444 -1.10173 4.47435 0
M  V30 4409 H 416.759 -1.14846 4.00249 0
M  V30 4410 H 419.356 -3.90736 3.65007 0
M  V30 4411 H 419.699 -3.67635 1.95321 0
M  V30 4412 H 420.232 -2.45288 3.13175 0
M  V30 4413 H 416.971 -2.33018 6.12685 0
M  V30 4414 H 416.491 -3.4969 4.87316 0
M  V30 4415 H 418.17 -3.46102 5.46646 0
M  V30 4416 N 418.302 -1.35869 -0.798587 0
M  V30 4417 C 419.713 -1.26498 -1.37314 0
M  V30 4418 C 420.064 0.0991899 -1.95949 0
M  V30 4419 O 419.189 1.0004 -1.91888 0
M  V30 4420 C 419.784 -2.29054 -2.49639 0
M  V30 4421 C 418.343 -2.234 -3.02935 0
M  V30 4422 C 417.49 -2.14329 -1.75949 0
M  V30 4423 H 420.441 -1.46881 -0.600971 0
M  V30 4424 H 420.462 -1.92166 -3.28409 0
M  V30 4425 H 419.974 -3.2833 -2.06933 0
M  V30 4426 H 418.075 -1.27562 -3.50084 0
M  V30 4427 H 418.188 -3.15703 -3.60372 0
M  V30 4428 H 416.552 -1.60435 -1.9782 0
M  V30 4429 H 417.335 -3.15477 -1.35384 0
M  V30 4430 N 419.78 1.02168 -1.19998 0
M  V30 4431 C 420.743 2.08765 -0.94604 0
M  V30 4432 C 421.743 1.60618 0.0763846 0
M  V30 4433 O 422.933 1.73472 -0.159135 0
M  V30 4434 C 420.065 3.38262 -0.423255 0
M  V30 4435 H 421.258 2.32726 -1.89153 0
M  V30 4436 H 418.811 1.1889 -1.01464 0
M  V30 4437 H 419.546 3.19974 0.527938 0
M  V30 4438 H 419.331 3.74532 -1.16053 0
M  V30 4439 H 420.821 4.16759 -0.264911 0
M  V30 4440 N 421.258 1.00505 1.21394 0
M  V30 4441 C 422.188 0.585684 2.26035 0
M  V30 4442 C 423.169 -0.393525 1.65485 0
M  V30 4443 O 424.354 -0.281497 1.92149 0
M  V30 4444 C 421.484 -0.0884283 3.47187 0
M  V30 4445 C 420.438 0.810567 4.20254 0
M  V30 4446 C 419.764 0.00286382 5.347 0
M  V30 4447 C 421.064 2.1132 4.77641 0
M  V30 4448 H 422.758 1.46039 2.61368 0
M  V30 4449 H 420.304 0.703648 1.25638 0
M  V30 4450 H 422.257 -0.393286 4.19561 0
M  V30 4451 H 420.981 -0.997766 3.10986 0
M  V30 4452 H 419.64 1.09925 3.49731 0
M  V30 4453 H 419.288 -0.907765 4.94741 0
M  V30 4454 H 418.988 0.601444 5.84514 0
M  V30 4455 H 420.512 -0.295808 6.09883 0
M  V30 4456 H 421.926 1.87148 5.41893 0
M  V30 4457 H 420.323 2.66164 5.37845 0
M  V30 4458 H 421.393 2.78393 3.9702 0
M  V30 4459 N 422.737 -1.36956 0.779787 0
M  V30 4460 C 423.667 -2.32761 0.185651 0
M  V30 4461 C 424.648 -1.56177 -0.673989 0
M  V30 4462 O 425.833 -1.84378 -0.609797 0
M  V30 4463 C 422.963 -3.40418 -0.687964 0
M  V30 4464 C 421.917 -4.27941 0.0710102 0
M  V30 4465 C 421.243 -5.26681 -0.922573 0
M  V30 4466 C 422.543 -5.07006 1.25467 0
M  V30 4467 H 424.237 -2.82698 0.986008 0
M  V30 4468 H 421.783 -1.3592 0.475592 0
M  V30 4469 H 423.736 -4.06423 -1.11348 0
M  V30 4470 H 422.46 -2.89025 -1.52093 0
M  V30 4471 H 421.119 -3.63478 0.47739 0
M  V30 4472 H 420.767 -4.71565 -1.7503 0
M  V30 4473 H 420.467 -5.86103 -0.419237 0
M  V30 4474 H 421.991 -5.9556 -1.34686 0
M  V30 4475 H 423.405 -5.66105 0.905401 0
M  V30 4476 H 421.802 -5.75793 1.69063 0
M  V30 4477 H 422.872 -4.3921 2.05481 0
M  V30 4478 N 424.215 -0.530993 -1.48385 0
M  V30 4479 C 425.492 0.0671788 -1.95485 0
M  V30 4480 C 425.872 1.51191 -1.47324 0
M  V30 4481 O 425.22 2.17507 -0.700202 0
M  V30 4482 C 425.43 -0.0511206 -3.48963 0
M  V30 4483 C 426.778 0.107632 -4.24464 0
M  V30 4484 O 427.802 0.0226248 -3.56193 0
M  V30 4485 O 426.661 0.285972 -5.45751 0
M  V30 4486 H 423.755 0.0787365 -0.823243 0
M  V30 4487 H 426.301 -0.595662 -1.58902 0
M  V30 4488 H 425.073 -1.05747 -3.7674 0
M  V30 4489 H 424.696 0.650525 -3.92242 0
M  V30 4490 N 425.693 1.55336 -0.266172 0
M  V30 4491 C 426.939 1.99692 0.353681 0
M  V30 4492 C 427.272 1.1543 1.56172 0
M  V30 4493 O 426.547 0.222218 1.93226 0
M  V30 4494 C 426.83 3.52316 0.74466 0
M  V30 4495 C 426.683 4.47337 -0.470101 0
M  V30 4496 C 428.002 4.10588 1.58447 0
M  V30 4497 H 425.121 0.725961 0.12708 0
M  V30 4498 H 427.763 1.86336 -0.371333 0
M  V30 4499 H 425.913 3.63829 1.36239 0
M  V30 4500 H 427.585 4.4778 -1.10864 0
M  V30 4501 H 425.828 4.19364 -1.10978 0
M  V30 4502 H 426.499 5.51788 -0.15291 0
M  V30 4503 H 428.975 4.02297 1.06286 0
M  V30 4504 H 427.851 5.17607 1.82686 0
M  V30 4505 H 428.112 3.60253 2.56262 0
M  V30 4506 N 427.171 -0.0066808 1.57599 0
M  V30 4507 C 428.448 -0.729586 1.81484 0
M  V30 4508 C 428.828 -1.92359 0.869558 0
M  V30 4509 O 428.176 -2.28348 -0.0832533 0
M  V30 4510 C 428.386 -1.1416 3.29801 0
M  V30 4511 C 429.734 -1.54823 3.95367 0
M  V30 4512 O 430.758 -1.23558 3.34084 0
M  V30 4513 O 429.617 -2.12937 5.03309 0
M  V30 4514 H 426.711 -0.354674 0.747085 0
M  V30 4515 H 429.257 0.0182609 1.6969 0
M  V30 4516 H 428.029 -0.290231 3.90222 0
M  V30 4517 H 427.652 -1.94876 3.46568 0
M  V30 4518 N 428.649 -1.55105 -0.279332 0
M  V30 4519 C 429.612 -1.86783 -1.32834 0
M  V30 4520 C 430.612 -0.74199 -1.42657 0
M  V30 4521 O 431.802 -1.0102 -1.41918 0
M  V30 4522 C 428.934 -2.06746 -2.71052 0
M  V30 4523 H 430.127 -2.8055 -1.05979 0
M  V30 4524 H 427.68 -1.47499 -0.517087 0
M  V30 4525 H 428.415 -1.15339 -3.03097 0
M  V30 4526 H 428.2 -2.88711 -2.65309 0
M  V30 4527 H 429.69 -2.32549 -3.46858 0
M  V30 4528 N 430.127 0.543554 -1.4793 0
M  V30 4529 C 431.357 1.32324 -1.58663 0
M  V30 4530 C 431.765 1.8766 -0.240896 0
M  V30 4531 O 431.108 1.66411 0.778011 0
M  V30 4532 C 431.17 2.52094 -2.56299 0
M  V30 4533 C 430.834 2.17944 -4.01683 0
M  V30 4534 C 431.831 1.74422 -4.89768 0
M  V30 4535 C 429.516 2.28884 -4.47121 0
M  V30 4536 C 431.51 1.42287 -6.21316 0
M  V30 4537 C 429.197 1.96361 -5.78693 0
M  V30 4538 C 430.195 1.53132 -6.65612 0
M  V30 4539 O 429.883 1.21029 -7.94737 0
M  V30 4540 H 429.615 0.409174 -0.538101 0
M  V30 4541 H 432.169 0.663887 -1.94375 0
M  V30 4542 H 430.399 3.20965 -2.15681 0
M  V30 4543 H 432.088 3.14165 -2.57012 0
M  V30 4544 H 432.854 1.65452 -4.55907 0
M  V30 4545 H 428.733 2.61488 -3.79664 0
M  V30 4546 H 432.277 1.08472 -6.89115 0
M  V30 4547 H 428.174 2.04967 -6.12094 0
M  V30 4548 H 428.942 1.34543 -8.07366 0
M  V30 4549 N 431.605 1.3629 0.791371 0
M  V30 4550 C 432.537 1.26321 1.91248 0
M  V30 4551 C 433.55 0.18313 1.61767 0
M  V30 4552 O 434.739 0.437682 1.73051 0
M  V30 4553 C 431.839 0.925901 3.26007 0
M  V30 4554 C 431.012 2.10746 3.83281 0
M  V30 4555 C 430.071 1.74352 4.96475 0
M  V30 4556 O 429.097 2.46416 5.13096 0
M  V30 4557 N 430.299 0.676058 5.7655 0
M  V30 4558 H 433.064 2.22915 2.00323 0
M  V30 4559 H 430.625 1.29659 0.969546 0
M  V30 4560 H 432.617 0.663636 3.99222 0
M  V30 4561 H 431.187 0.0491581 3.12561 0
M  V30 4562 H 430.407 2.53264 3.02077 0
M  V30 4563 H 431.695 2.8969 4.18279 0
M  V30 4564 H 431.093 0.0776467 5.65647 0
M  V30 4565 H 429.65 0.473612 6.50077 0
M  V30 4566 N 433.083 -1.0153 1.20538 0
M  V30 4567 C 434.046 -2.0826 0.957098 0
M  V30 4568 C 435.046 -1.60657 -0.0678655 0
M  V30 4569 O 436.236 -1.73385 0.168332 0
M  V30 4570 C 433.368 -3.38033 0.441188 0
M  V30 4571 H 434.561 -2.31719 1.90384 0
M  V30 4572 H 432.114 -1.1835 1.02093 0
M  V30 4573 H 432.849 -3.20249 -0.510961 0
M  V30 4574 H 432.634 -3.73911 1.18038 0
M  V30 4575 H 434.124 -4.16613 0.287009 0
M  V30 4576 N 434.561 -1.01147 -1.20859 0
M  V30 4577 C 435.786 -0.716698 -1.94623 0
M  V30 4578 C 436.211 0.715415 -1.73964 0
M  V30 4579 O 435.569 1.49157 -1.03062 0
M  V30 4580 C 435.617 -1.0513 -3.44935 0
M  V30 4581 O 434.721 -0.160131 -4.12089 0
M  V30 4582 H 434.062 -0.266404 -0.608214 0
M  V30 4583 H 436.592 -1.35346 -1.53436 0
M  V30 4584 H 436.602 -1.00086 -3.95533 0
M  V30 4585 H 435.277 -2.09475 -3.59295 0
M  V30 4586 H 433.854 -0.267657 -3.71938 0
M  V30 4587 N 436.039 1.36541 -0.78704 0
M  V30 4588 C 436.969 2.32659 -0.197992 0
M  V30 4589 C 437.95 1.56533 0.665697 0
M  V30 4590 O 439.135 1.84698 0.60001 0
M  V30 4591 C 436.265 3.40778 0.669901 0
M  V30 4592 C 435.219 4.27897 -0.0937039 0
M  V30 4593 C 434.545 5.27163 0.894629 0
M  V30 4594 C 435.845 5.06334 -1.28154 0
M  V30 4595 H 437.539 2.82171 -1.00099 0
M  V30 4596 H 435.085 1.35665 -0.482793 0
M  V30 4597 H 437.038 4.07008 1.09191 0
M  V30 4598 H 435.762 2.89827 1.50558 0
M  V30 4599 H 434.421 3.6322 -0.49666 0
M  V30 4600 H 434.069 4.72486 1.72527 0
M  V30 4601 H 433.769 5.86317 0.388149 0
M  V30 4602 H 435.293 5.96266 1.31525 0
M  V30 4603 H 436.707 5.65617 -0.93541 0
M  V30 4604 H 435.104 5.74888 -1.72115 0
M  V30 4605 H 436.174 4.38114 -2.07807 0
M  V30 4606 N 437.518 0.538854 1.48102 0
M  V30 4607 C 438.465 -0.219042 2.29758 0
M  V30 4608 C 439.435 -0.925562 1.37922 0
M  V30 4609 O 440.62 -0.924855 1.66886 0
M  V30 4610 C 437.76 -1.25452 3.2149 0
M  V30 4611 C 436.873 -0.555943 4.28408 0
M  V30 4612 C 436.008 -1.57512 5.0731 0
M  V30 4613 C 435.047 -0.860498 6.06021 0
M  V30 4614 N 434.184 -1.82564 6.77949 0
M  V30 4615 H 439.024 0.483449 2.94052 0
M  V30 4616 H 436.561 0.250247 1.44956 0
M  V30 4617 H 438.519 -1.86727 3.7308 0
M  V30 4618 H 437.149 -1.92528 2.591 0
M  V30 4619 H 436.201 0.170938 3.80016 0
M  V30 4620 H 437.513 0.00474616 4.988 0
M  V30 4621 H 436.667 -2.26191 5.62959 0
M  V30 4622 H 435.406 -2.16972 4.36778 0
M  V30 4623 H 434.411 -0.159686 5.49568 0
M  V30 4624 H 435.636 -0.271897 6.78555 0
M  V30 4625 H 433.582 -2.40915 6.10161 0
M  V30 4626 H 433.499 -1.31662 7.44447 0
M  V30 4627 H 434.767 -2.50414 7.38182 0
M  V30 4628 N 438.996 -1.55193 0.274407 0
M  V30 4629 C 440.273 -1.91584 -0.394331 0
M  V30 4630 C 440.653 -1.19858 -1.73774 0
M  V30 4631 O 440.001 -0.3252 -2.26174 0
M  V30 4632 C 440.211 -3.4487 -0.535311 0
M  V30 4633 C 441.559 -4.16636 -0.818534 0
M  V30 4634 O 442.583 -3.5076 -0.620146 0
M  V30 4635 O 441.442 -5.33209 -1.19792 0
M  V30 4636 H 438.536 -0.798349 -0.215794 0
M  V30 4637 H 441.082 -1.66646 0.320507 0
M  V30 4638 H 439.854 -3.89145 0.410141 0
M  V30 4639 H 439.477 -3.75759 -1.29964 0
M  V30 4640 N 440.474 -0.00167713 -1.576 0
M  V30 4641 C 441.751 0.719951 -1.81868 0
M  V30 4642 C 442.131 1.91895 -0.879747 0
M  V30 4643 O 441.479 2.28389 0.0711423 0
M  V30 4644 C 441.689 1.12409 -3.30402 0
M  V30 4645 C 443.037 1.52724 -3.96182 0
M  V30 4646 O 444.061 1.21784 -3.34734 0
M  V30 4647 O 442.92 2.10265 -5.04431 0
M  V30 4648 H 440.014 0.350707 -0.748955 0
M  V30 4649 H 442.56 -0.0272597 -1.69678 0
M  V30 4650 H 441.332 0.269532 -3.90371 0
M  V30 4651 H 440.955 1.93035 -3.47596 0
M  V30 4652 N 441.952 1.55251 0.271103 0
M  V30 4653 C 443.18 1.79974 1.02064 0
M  V30 4654 C 443.595 0.574003 1.79863 0
M  V30 4655 O 442.952 -0.456962 1.76686 0
M  V30 4656 C 443.003 3.02603 1.97772 0
M  V30 4657 O 442.724 4.20443 1.23124 0
M  V30 4658 C 444.225 3.39944 2.84522 0
M  V30 4659 H 441.445 0.599489 0.301419 0
M  V30 4660 H 443.989 2.02268 0.301313 0
M  V30 4661 H 442.144 2.8243 2.65165 0
M  V30 4662 H 442.558 4.89783 1.87651 0
M  V30 4663 H 444.032 4.28915 3.47471 0
M  V30 4664 H 444.509 2.59432 3.54389 0
M  V30 4665 H 445.115 3.62383 2.22618 0
M  V30 4666 N 443.43 -0.535701 1.48216 0
M  V30 4667 C 444.34 -1.66785 1.64985 0
M  V30 4668 C 445.356 -1.65654 0.532414 0
M  V30 4669 O 446.532 -1.8471 0.80275 0
M  V30 4670 C 443.597 -3.0326 1.68031 0
M  V30 4671 C 442.658 -3.1529 2.9136 0
M  V30 4672 C 441.891 -4.45255 2.94252 0
M  V30 4673 O 442.114 -5.32011 2.05719 0
M  V30 4674 O 441.048 -4.6153 3.86359 0
M  V30 4675 H 444.874 -1.55576 2.60825 0
M  V30 4676 H 442.459 -0.70815 1.31551 0
M  V30 4677 H 444.341 -3.84436 1.72589 0
M  V30 4678 H 443.016 -3.14805 0.753628 0
M  V30 4679 H 441.923 -2.3343 2.92337 0
M  V30 4680 H 443.256 -3.08658 3.83394 0
M  V30 4681 N 444.908 -1.36708 -0.784132 0
M  V30 4682 C 445.84 -1.27333 -1.90575 0
M  V30 4683 C 446.853 -0.191706 -1.61667 0
M  V30 4684 O 448.042 -0.446854 -1.72816 0
M  V30 4685 C 445.142 -0.943177 -3.25511 0
M  V30 4686 C 444.315 -2.12776 -3.82158 0
M  V30 4687 C 443.374 -1.76983 -4.95544 0
M  V30 4688 O 442.4 -2.49134 -5.11782 0
M  V30 4689 N 443.602 -0.706624 -5.76183 0
M  V30 4690 H 446.367 -2.23974 -1.99138 0
M  V30 4691 H 443.928 -1.30171 -0.962656 0
M  V30 4692 H 445.92 -0.684799 -3.98864 0
M  V30 4693 H 444.49 -0.0657333 -3.12531 0
M  V30 4694 H 443.71 -2.54863 -3.0073 0
M  V30 4695 H 444.998 -2.91904 -4.16737 0
M  V30 4696 H 444.396 -0.107643 -5.65598 0
M  V30 4697 H 442.953 -0.50808 -6.49817 0
M  V30 4698 N 446.386 1.0089 -1.21074 0
M  V30 4699 C 447.634 1.74262 -1.02358 0
M  V30 4700 C 447.955 1.89869 0.444393 0
M  V30 4701 O 447.225 1.44677 1.32081 0
M  V30 4702 H 445.805 0.645615 -0.375754 0
M  V30 4703 H 448.467 1.21596 -1.52317 0
M  V30 4704 H 447.563 2.74328 -1.4883 0
M  V30 4705 N 447.864 1.01787 1.20321 0
M  V30 4706 C 449.112 0.706538 1.89347 0
M  V30 4707 C 449.433 -0.766289 1.79313 0
M  V30 4708 O 448.703 -1.55126 1.19635 0
M  V30 4709 H 447.283 0.258348 0.700903 0
M  V30 4710 H 449.945 1.28974 1.46122 0
M  V30 4711 H 449.041 0.991066 2.95946 0
M  V30 4712 N 449.342 -1.36122 0.79427 0
M  V30 4713 C 450.619 -1.93398 0.292685 0
M  V30 4714 C 450.999 -1.72567 -1.21589 0
M  V30 4715 O 450.347 -1.08745 -2.00965 0
M  V30 4716 C 450.557 -3.42099 0.690614 0
M  V30 4717 C 451.905 -4.19231 0.673105 0
M  V30 4718 O 452.929 -3.50559 0.631389 0
M  V30 4719 O 451.788 -5.41732 0.720362 0
M  V30 4720 H 448.882 -0.823712 0.0736693 0
M  V30 4721 H 451.428 -1.45273 0.87714 0
M  V30 4722 H 450.2 -3.50938 1.73085 0
M  V30 4723 H 449.823 -3.97519 0.0803036 0
M  V30 4724 N 450.82 -0.546701 -1.47814 0
M  V30 4725 C 452.068 -0.0187037 -2.02091 0
M  V30 4726 C 452.389 1.33168 -1.42447 0
M  V30 4727 O 451.659 1.86619 -0.595839 0
M  V30 4728 H 450.239 -0.00392531 -0.74699 0
M  V30 4729 H 452.901 -0.714327 -1.81338 0
M  V30 4730 H 451.997 0.0772219 -3.12004 0
M  V30 4731 N 452.299 1.55045 -0.282633 0
M  V30 4732 C 453.262 2.21515 0.588539 0
M  V30 4733 C 454.262 1.19535 1.07554 0
M  V30 4734 O 455.452 1.44391 0.974514 0
M  V30 4735 C 452.584 2.88704 1.8128 0
M  V30 4736 H 453.777 2.99899 0.00806397 0
M  V30 4737 H 451.33 1.56265 -0.0333067 0
M  V30 4738 H 452.065 2.14352 2.43359 0
M  V30 4739 H 451.85 3.63443 1.47144 0
M  V30 4740 H 453.34 3.39465 2.43214 0
M  V30 4741 N 453.777 0.010035 1.57597 0
M  V30 4742 C 455.025 -0.671371 1.90623 0
M  V30 4743 C 455.346 -1.73753 0.885151 0
M  V30 4744 O 454.616 -1.95752 -0.0760611 0
M  V30 4745 H 453.196 -0.250968 0.703579 0
M  V30 4746 H 455.858 0.0533325 1.94827 0
M  V30 4747 H 454.954 -1.13626 2.90681 0
M  V30 4748 N 455.255 -1.55392 -0.262866 0
M  V30 4749 C 456.503 -1.76127 -0.991147 0
M  V30 4750 C 456.824 -0.571083 -1.8645 0
M  V30 4751 O 456.094 0.413698 -1.91482 0
M  V30 4752 H 454.674 -0.649528 -0.368948 0
M  V30 4753 H 457.336 -1.9281 -0.284655 0
M  V30 4754 H 456.432 -2.6663 -1.62219 0
M  V30 4755 N 456.733 0.527833 -1.48498 0
M  V30 4756 C 457.981 1.28101 -1.56316 0
M  V30 4757 C 458.302 1.9352 -0.239781 0
M  V30 4758 O 457.572 1.81433 0.738849 0
M  V30 4759 H 456.152 0.475793 -0.575873 0
M  V30 4760 H 458.814 0.614052 -1.84974 0
M  V30 4761 H 457.91 2.05916 -2.34532 0
M  V30 4762 N 458.211 1.37122 0.776871 0
M  V30 4763 C 459.159 1.32549 1.91138 0
M  V30 4764 C 460.153 0.215119 1.68029 0
M  V30 4765 O 461.359 0.382852 1.75881 0
M  V30 4766 H 457.734 0.412952 0.62847 0
M  V30 4767 H 459.705 2.28332 1.92112 0
M  V30 4768 C 458.454 1.14422 3.28333 0
M  V30 4769 H 457.777 1.99115 3.46689 0
M  V30 4770 H 459.217 1.15272 4.0803 0
M  V30 4771 C 457.676 -0.150434 3.36564 0
M  V30 4772 O 458.206 -1.13584 3.85307 0
M  V30 4773 N 456.412 -0.19939 2.89915 0
M  V30 4774 H 455.959 0.603142 2.5044 0
M  V30 4775 H 455.917 -1.06526 2.95803 0
M  V30 4776 N 459.689 -1.00246 1.21608 0
M  V30 4777 C 460.637 -2.11193 0.97469 0
M  V30 4778 C 461.631 -1.69216 -0.0789303 0
M  V30 4779 O 462.837 -1.79853 0.0726806 0
M  V30 4780 H 459.212 -0.690455 0.297953 0
M  V30 4781 H 461.183 -2.2873 1.91638 0
M  V30 4782 C 459.932 -3.43182 0.558717 0
M  V30 4783 H 459.255 -3.75918 1.3611 0
M  V30 4784 H 460.695 -4.21823 0.429154 0
M  V30 4785 C 459.154 -3.28882 -0.730648 0
M  V30 4786 O 459.684 -3.59835 -1.78554 0
M  V30 4787 N 457.89 -2.8209 -0.698131 0
M  V30 4788 H 457.437 -2.57099 0.16061 0
M  V30 4789 H 457.395 -2.72903 -1.56113 0
M  V30 4790 N 461.167 -1.02423 -1.1978 0
M  V30 4791 C 462.392 -0.7373 -1.93852 0
M  V30 4792 C 462.817 0.696923 -1.74713 0
M  V30 4793 O 462.175 1.48056 -1.04638 0
M  V30 4794 C 462.223 -1.08783 -3.438 0
M  V30 4795 O 461.327 -0.20383 -4.11896 0
M  V30 4796 H 460.668 -0.27284 -0.605355 0
M  V30 4797 H 463.198 -1.36966 -1.51992 0
M  V30 4798 H 463.208 -1.04276 -3.9445 0
M  V30 4799 H 461.883 -2.13274 -3.57053 0
M  V30 4800 H 460.46 -0.307091 -3.71633 0
M  V30 4801 N 462.645 1.35699 -0.801477 0
M  V30 4802 C 463.893 1.9852 -0.37871 0
M  V30 4803 C 464.214 1.63907 1.05638 0
M  V30 4804 O 463.484 0.919013 1.73006 0
M  V30 4805 H 462.064 0.734322 -0.137042 0
M  V30 4806 H 464.726 1.65697 -1.02619 0
M  V30 4807 H 463.822 3.08382 -0.480284 0
M  V30 4808 N 464.123 0.554532 1.47522 0
M  V30 4809 C 465.348 0.0322661 2.07375 0
M  V30 4810 C 465.773 -1.25079 1.40488 0
M  V30 4811 O 465.131 -1.74859 0.47896 0
M  V30 4812 C 465.179 -0.149397 3.6029 0
M  V30 4813 O 464.283 -1.21259 3.9417 0
M  V30 4814 H 463.624 0.0501228 0.662106 0
M  V30 4815 H 466.154 0.769452 1.8958 0
M  V30 4816 H 466.164 -0.364437 4.06369 0
M  V30 4817 H 464.839 0.787743 4.08372 0
M  V30 4818 H 463.416 -0.97825 3.5984 0
M  V30 4819 N 465.601 -1.54893 0.290851 0
M  V30 4820 C 466.849 -1.99538 -0.320756 0
M  V30 4821 C 467.17 -1.18075 -1.55188 0
M  V30 4822 O 466.44 -0.274162 -1.93972 0
M  V30 4823 H 465.02 -0.737052 -0.121507 0
M  V30 4824 H 467.682 -1.90755 0.399832 0
M  V30 4825 H 466.778 -3.06282 -0.599802 0
M  V30 4826 N 467.08 -0.0183926 -1.57589 0
M  V30 4827 C 468.043 0.951986 -2.08494 0
M  V30 4828 C 469.043 1.26092 -0.997874 0
M  V30 4829 O 470.233 1.20304 -1.25987 0
M  V30 4830 C 467.365 2.27165 -2.54182 0
M  V30 4831 H 468.558 0.511307 -2.95509 0
M  V30 4832 H 466.111 0.229444 -1.54607 0
M  V30 4833 H 466.846 2.75884 -1.70465 0
M  V30 4834 H 466.631 2.06057 -3.33591 0
M  V30 4835 H 468.121 2.9674 -2.93828 0
M  V30 4836 N 468.558 1.5553 0.254621 0
M  V30 4837 C 469.468 1.92789 1.33677 0
M  V30 4838 C 470.484 0.827356 1.53071 0
M  V30 4839 O 471.66 1.12807 1.66843 0
M  V30 4840 C 468.725 2.20827 2.67275 0
M  V30 4841 C 467.786 3.4427 2.5647 0
M  V30 4842 C 467.019 3.70961 3.83697 0
M  V30 4843 O 467.242 2.99852 4.85227 0
M  V30 4844 O 466.176 4.64491 3.82794 0
M  V30 4845 H 470.002 2.84945 1.05071 0
M  V30 4846 H 467.587 1.42312 0.454723 0
M  V30 4847 H 469.469 2.40204 3.46237 0
M  V30 4848 H 468.144 1.31851 2.9563 0
M  V30 4849 H 467.051 3.30209 1.75821 0
M  V30 4850 H 468.384 4.33524 2.33062 0
M  V30 4851 N 470.036 -0.519951 1.48776 0
M  V30 4852 C 470.946 -1.65025 1.66745 0
M  V30 4853 C 471.962 -1.6508 0.549954 0
M  V30 4854 O 473.138 -1.83848 0.822295 0
M  V30 4855 C 470.203 -3.0146 1.71238 0
M  V30 4856 C 469.264 -3.12182 2.94688 0
M  V30 4857 C 468.497 -4.42109 2.98958 0
M  V30 4858 O 468.72 -5.29799 2.1135 0
M  V30 4859 O 467.654 -4.57406 3.91233 0
M  V30 4860 H 471.48 -1.52801 2.62461 0
M  V30 4861 H 469.065 -0.694157 1.32294 0
M  V30 4862 H 470.947 -3.82584 1.76657 0
M  V30 4863 H 469.622 -3.13988 0.786975 0
M  V30 4864 H 468.529 -2.30316 2.94797 0
M  V30 4865 H 469.862 -3.04574 3.86646 0
M  V30 4866 N 471.514 -1.37532 -0.769588 0
M  V30 4867 C 472.462 -1.33561 -1.90432 0
M  V30 4868 C 473.456 -0.224027 -1.67912 0
M  V30 4869 O 474.662 -0.392174 -1.75676 0
M  V30 4870 H 471.037 -0.416279 -0.626271 0
M  V30 4871 H 473.008 -2.29348 -1.90899 0
M  V30 4872 C 471.757 -1.16162 -3.27722 0
M  V30 4873 H 471.08 -2.00951 -3.45628 0
M  V30 4874 H 472.52 -1.17434 -4.07413 0
M  V30 4875 C 470.979 0.132583 -3.36639 0
M  V30 4876 O 471.509 1.11539 -3.85904 0
M  V30 4877 N 469.715 0.184013 -2.90017 0
M  V30 4878 H 469.262 -0.616415 -2.50116 0
M  V30 4879 H 469.22 1.04956 -2.96364 0
M  V30 4880 N 472.992 0.995999 -1.22138 0
M  V30 4881 C 474.217 1.77601 -1.0711 0
M  V30 4882 C 474.642 1.84339 0.374264 0
M  V30 4883 O 474 1.29359 1.27028 0
M  V30 4884 C 474.048 3.18897 -1.68336 0
M  V30 4885 O 473.152 4.01663 -0.934928 0
M  V30 4886 H 472.493 0.547011 -0.376397 0
M  V30 4887 H 475.023 1.25137 -1.6187 0
M  V30 4888 H 475.033 3.69539 -1.72931 0
M  V30 4889 H 473.708 3.13308 -2.73516 0
M  V30 4890 H 472.285 3.60204 -0.964751 0
M  V30 4891 N 474.47 1.03057 1.19235 0
M  V30 4892 C 475.418 0.606391 2.24557 0
M  V30 4893 C 476.412 -0.361826 1.65491 0
M  V30 4894 O 477.618 -0.23022 1.78522 0
M  V30 4895 H 473.993 0.177838 0.730669 0
M  V30 4896 H 475.964 1.50529 2.5765 0
M  V30 4897 C 474.713 -0.0252127 3.47691 0
M  V30 4898 H 474.036 0.710838 3.9343 0
M  V30 4899 H 475.476 -0.284931 4.23042 0
M  V30 4900 C 473.935 -1.27229 3.11953 0
M  V30 4901 O 474.465 -2.36416 3.24762 0
M  V30 4902 N 472.671 -1.16169 2.6637 0
M  V30 4903 H 472.218 -0.273189 2.56147 0
M  V30 4904 H 472.176 -1.99703 2.42829 0
M  V30 4905 N 475.948 -1.35272 0.808662 0
M  V30 4906 C 476.911 -2.28082 0.226093 0
M  V30 4907 C 477.911 -1.49673 -0.587762 0
M  V30 4908 O 479.101 -1.69404 -0.405943 0
M  V30 4909 C 476.233 -3.33955 -0.684596 0
M  V30 4910 H 477.426 -2.81116 1.04469 0
M  V30 4911 H 474.979 -1.45162 0.579466 0
M  V30 4912 H 475.714 -2.86111 -1.5268 0
M  V30 4913 H 475.499 -3.91965 -0.102699 0
M  V30 4914 H 476.989 -4.03219 -1.08646 0
M  V30 4915 N 477.426 -0.562348 -1.47226 0
M  V30 4916 C 478.389 0.172056 -2.28553 0
M  V30 4917 C 479.389 0.837928 -1.37242 0
M  V30 4918 O 480.579 0.693001 -1.59822 0
M  V30 4919 C 477.711 1.25223 -3.17068 0
M  V30 4920 H 478.904 -0.542401 -2.94954 0
M  V30 4921 H 476.457 -0.319493 -1.53 0
M  V30 4922 H 477.192 1.99892 -2.55369 0
M  V30 4923 H 476.977 0.779515 -3.84273 0
M  V30 4924 H 478.467 1.76791 -3.78332 0
M  V30 4925 N 478.904 1.54736 -0.299062 0
M  V30 4926 C 479.867 2.22127 0.565012 0
M  V30 4927 C 480.867 1.20669 1.06281 0
M  V30 4928 O 482.057 1.45417 0.959145 0
M  V30 4929 C 479.189 2.90611 1.78208 0
M  V30 4930 H 480.382 2.99891 -0.0237448 0
M  V30 4931 H 477.935 1.5622 -0.0498788 0
M  V30 4932 H 478.67 2.16921 2.41072 0
M  V30 4933 H 478.455 3.64984 1.43281 0
M  V30 4934 H 479.945 3.42026 2.396 0
M  V30 4935 N 480.382 0.0267497 1.57577 0
M  V30 4936 C 481.345 -0.940916 2.08996 0
M  V30 4937 C 482.345 -1.25561 1.00455 0
M  V30 4938 O 483.535 -1.19634 1.26623 0
M  V30 4939 C 480.667 -2.25814 2.55384 0
M  V30 4940 H 481.86 -0.495628 2.95776 0
M  V30 4941 H 479.413 -0.221241 1.54726 0
M  V30 4942 H 480.148 -2.74976 1.71926 0
M  V30 4943 H 479.933 -2.04285 3.34679 0
M  V30 4944 H 481.423 -2.95178 2.95398 0
M  V30 4945 N 481.861 -1.55662 -0.24637 0
M  V30 4946 C 482.824 -1.89558 -1.28842 0
M  V30 4947 C 483.824 -0.772082 -1.41052 0
M  V30 4948 O 485.014 -1.04007 -1.39743 0
M  V30 4949 C 482.146 -2.12449 -2.66605 0
M  V30 4950 H 483.339 -2.82735 -1.00004 0
M  V30 4951 H 480.892 -1.48562 -0.485684 0
M  V30 4952 H 481.627 -1.21742 -3.00582 0
M  V30 4953 H 481.412 -2.94273 -2.59125 0
M  V30 4954 H 482.902 -2.39854 -3.41847 0
M  V30 4955 N 483.339 0.512053 -1.4905 0
M  V30 4956 C 484.272 1.63209 -1.59493 0
M  V30 4957 C 485.25 1.56407 -0.444481 0
M  V30 4958 O 486.434 1.76623 -0.658535 0
M  V30 4959 C 483.561 3.01685 -1.53961 0
M  V30 4960 C 482.607 3.26786 -2.74068 0
M  V30 4961 S 483.44 3.11107 -4.35859 0
M  V30 4962 C 484.596 4.51997 -4.32954 0
M  V30 4963 H 484.829 1.54104 -2.54243 0
M  V30 4964 H 482.362 0.696382 -1.37804 0
M  V30 4965 H 484.32 3.81538 -1.51455 0
M  V30 4966 H 482.981 3.08215 -0.605178 0
M  V30 4967 H 482.174 4.27849 -2.66386 0
M  V30 4968 H 481.776 2.54635 -2.73928 0
M  V30 4969 H 484.068 5.43871 -4.03993 0
M  V30 4970 H 485.011 4.64731 -5.34257 0
M  V30 4971 H 485.419 4.32159 -3.63178 0
M  V30 4972 N 484.817 1.37938 0.762283 0
M  V30 4973 C 485.749 1.30349 1.88525 0
M  V30 4974 C 486.762 0.217402 1.61342 0
M  V30 4975 O 487.951 0.474291 1.72084 0
M  V30 4976 C 485.051 0.994844 3.23969 0
M  V30 4977 C 484.224 2.18829 3.78725 0
M  V30 4978 C 483.283 1.84844 4.92665 0
M  V30 4979 O 482.309 2.57244 5.07754 0
M  V30 4980 N 483.511 0.798201 5.74986 0
M  V30 4981 H 486.276 2.27114 1.95549 0
M  V30 4982 H 483.837 1.31686 0.941825 0
M  V30 4983 H 485.829 0.748168 3.97724 0
M  V30 4984 H 484.399 0.115446 3.12387 0
M  V30 4985 H 483.619 2.59615 2.96637 0
M  V30 4986 H 484.907 2.98497 4.1204 0
M  V30 4987 H 484.305 0.197611 5.65355 0
M  V30 4988 H 482.862 0.611396 6.48926 0
M  V30 4989 N 486.295 -0.989507 1.22664 0
M  V30 4990 C 487.706 -1.54406 1.04955 0
M  V30 4991 C 488.057 -1.92366 -0.385951 0
M  V30 4992 O 487.182 -1.75111 -1.27142 0
M  V30 4993 C 487.777 -2.80578 1.89899 0
M  V30 4994 C 486.336 -3.32464 1.76478 0
M  V30 4995 C 485.483 -2.05524 1.86159 0
M  V30 4996 H 488.434 -0.810211 1.3646 0
M  V30 4997 H 488.455 -3.53075 1.4184 0
M  V30 4998 H 487.967 -2.52918 2.94371 0
M  V30 4999 H 486.068 -3.65024 0.747528 0
M  V30 5000 H 486.181 -4.02838 2.59342 0
M  V30 5001 H 484.545 -2.19241 1.29636 0
M  V30 5002 H 485.328 -1.80258 2.92168 0
M  V30 5003 N 487.773 -1.03688 -1.18687 0
M  V30 5004 C 489.019 -0.739123 -1.88851 0
M  V30 5005 C 489.352 0.731042 -1.79915 0
M  V30 5006 O 488.627 1.53313 -1.19688 0
M  V30 5007 C 488.91 -1.20106 -3.3948 0
M  V30 5008 C 488.763 -2.73304 -3.57246 0
M  V30 5009 C 490.082 -0.788134 -4.32986 0
M  V30 5010 H 487.201 -0.269978 -0.68577 0
M  V30 5011 H 489.843 -1.28822 -1.3966 0
M  V30 5012 H 487.993 -0.733915 -3.81505 0
M  V30 5013 H 489.665 -3.28027 -3.24339 0
M  V30 5014 H 487.908 -3.13313 -3.00029 0
M  V30 5015 H 488.579 -3.00684 -4.62918 0
M  V30 5016 H 491.055 -1.19005 -3.98719 0
M  V30 5017 H 489.931 -1.13915 -5.36949 0
M  V30 5018 H 490.192 0.308988 -4.41019 0
M  V30 5019 N 489.251 1.34841 -0.815825 0
M  V30 5020 C 490.161 2.33425 -0.234462 0
M  V30 5021 C 491.177 1.62295 0.627413 0
M  V30 5022 O 492.353 1.94109 0.536987 0
M  V30 5023 C 489.418 3.41471 0.599849 0
M  V30 5024 C 488.479 4.28362 -0.283596 0
M  V30 5025 C 487.712 5.31248 0.51099 0
M  V30 5026 O 487.935 5.43056 1.7449 0
M  V30 5027 O 486.869 6.01812 -0.10297 0
M  V30 5028 H 490.695 2.84962 -1.05024 0
M  V30 5029 H 488.28 1.37774 -0.577809 0
M  V30 5030 H 490.162 4.07464 1.07475 0
M  V30 5031 H 488.837 2.9219 1.39308 0
M  V30 5032 H 487.744 3.65318 -0.805836 0
M  V30 5033 H 489.077 4.81066 -1.041 0
M  V30 5034 N 490.729 0.570148 1.46925 0
M  V30 5035 C 492.006 -0.0153259 1.95594 0
M  V30 5036 C 492.386 -1.47232 1.51281 0
M  V30 5037 O 491.734 -2.15574 0.757624 0
M  V30 5038 C 491.944 0.143624 3.48704 0
M  V30 5039 C 493.292 0.00494484 4.246 0
M  V30 5040 O 494.316 0.0718214 3.56128 0
M  V30 5041 O 493.175 -0.141175 5.46318 0
M  V30 5042 H 490.269 -0.0568819 0.825041 0
M  V30 5043 H 492.815 0.637583 1.57267 0
M  V30 5044 H 491.587 1.15699 3.73804 0
M  V30 5045 H 491.21 -0.5463 3.93829 0
M  V30 5046 N 492.207 -1.54576 0.307264 0
M  V30 5047 C 493.14 -2.19946 -0.608195 0
M  V30 5048 C 494.118 -1.17096 -1.12815 0
M  V30 5049 O 495.302 -1.45766 -1.19518 0
M  V30 5050 C 492.429 -2.84826 -1.8328 0
M  V30 5051 C 491.475 -4.01256 -1.44554 0
M  V30 5052 S 492.308 -5.33197 -0.49612 0
M  V30 5053 C 493.464 -6.01563 -1.72838 0
M  V30 5054 H 493.697 -2.97253 -0.0528544 0
M  V30 5055 H 491.23 -1.54129 0.0913837 0
M  V30 5056 H 493.188 -3.22832 -2.53554 0
M  V30 5057 H 491.849 -2.07353 -2.35931 0
M  V30 5058 H 491.042 -4.45457 -2.35762 0
M  V30 5059 H 490.644 -3.6484 -0.822671 0
M  V30 5060 H 492.936 -6.22751 -2.6681 0
M  V30 5061 H 493.879 -6.9552 -1.32882 0
M  V30 5062 H 494.287 -5.31279 -1.90795 0
M  V30 5063 N 493.685 -0.035106 -1.57561 0
M  V30 5064 C 494.633 0.962707 -2.11742 0
M  V30 5065 C 495.627 1.33296 -1.0454 0
M  V30 5066 O 496.833 1.31449 -1.22968 0
M  V30 5067 H 493.208 0.32826 -0.676572 0
M  V30 5068 H 495.179 0.48048 -2.94506 0
M  V30 5069 C 493.928 2.23388 -2.66445 0
M  V30 5070 H 493.251 1.95774 -3.48587 0
M  V30 5071 H 494.691 2.91402 -3.07995 0
M  V30 5072 C 493.15 2.96769 -1.59467 0
M  V30 5073 O 493.68 3.89105 -0.998 0
M  V30 5074 N 491.886 2.59212 -1.31369 0
M  V30 5075 H 491.433 1.84202 -1.80076 0
M  V30 5076 H 491.391 3.08618 -0.600173 0
M  V30 5077 N 495.163 1.55791 0.238111 0
M  V30 5078 C 496.44 1.68798 0.98826 0
M  V30 5079 C 496.82 0.577562 2.03045 0
M  V30 5080 O 496.168 -0.41778 2.24648 0
M  V30 5081 C 496.378 3.09454 1.61367 0
M  V30 5082 C 497.726 3.68335 2.11221 0
M  V30 5083 O 498.75 3.1231 1.71292 0
M  V30 5084 O 497.609 4.6657 2.84561 0
M  V30 5085 H 494.703 0.686881 0.460568 0
M  V30 5086 H 497.249 1.68118 0.231202 0
M  V30 5087 H 496.021 3.81726 0.860295 0
M  V30 5088 H 495.644 3.14182 2.4367 0
M  V30 5089 N 496.642 -0.504142 1.49319 0
M  V30 5090 C 497.592 -1.60284 1.62151 0
M  V30 5091 C 498.576 -1.53657 0.477315 0
M  V30 5092 O 499.768 -1.6124 0.730108 0
M  V30 5093 C 496.897 -2.98909 1.68844 0
M  V30 5094 C 495.983 -3.10544 2.8883 0
M  V30 5095 N 496.374 -2.92078 4.12946 0
M  V30 5096 C 494.672 -3.4164 2.86702 0
M  V30 5097 C 495.373 -3.07812 4.93585 0
M  V30 5098 N 494.349 -3.36549 4.26891 0
M  V30 5099 H 498.151 -1.44656 2.55835 0
M  V30 5100 H 495.665 -0.710198 1.46048 0
M  V30 5101 H 497.662 -3.77865 1.76134 0
M  V30 5102 H 496.322 -3.15609 0.762943 0
M  V30 5103 H 497.333 -2.68316 4.42975 0
M  V30 5104 H 494.01 -3.64537 2.03517 0
M  V30 5105 H 495.4 -2.98054 6.02174 0
M  V30 5106 N 498.12 -1.38341 -0.754957 0
M  V30 5107 C 499.083 -1.35262 -1.85032 0
M  V30 5108 C 500.083 -0.253393 -1.58791 0
M  V30 5109 O 501.273 -0.510205 -1.66561 0
M  V30 5110 C 498.405 -1.10544 -3.22479 0
M  V30 5111 H 499.598 -2.32712 -1.8917 0
M  V30 5112 H 497.151 -1.23614 -0.956515 0
M  V30 5113 H 497.886 -0.136952 -3.24011 0
M  V30 5114 H 497.671 -1.90127 -3.4292 0
M  V30 5115 H 499.161 -1.11082 -4.02555 0
M  V30 5116 N 499.598 0.982988 -1.23187 0
M  V30 5117 C 500.847 1.71817 -1.05649 0
M  V30 5118 C 501.16 1.91315 0.407176 0
M  V30 5119 O 502.366 2.62256 0.702436 0
M  V30 5120 C 500.822 3.09188 -1.84203 0
M  V30 5121 C 500.43 2.97586 -3.34882 0
M  V30 5122 C 502.174 3.86684 -1.75146 0
M  V30 5123 C 500.081 4.30173 -4.05839 0
M  V30 5124 H 499.011 0.644258 -0.391724 0
M  V30 5125 H 501.662 1.09659 -1.4713 0
M  V30 5126 H 500.044 3.72087 -1.35527 0
M  V30 5127 H 501.218 2.43793 -3.91026 0
M  V30 5128 H 499.533 2.33567 -3.44725 0
M  V30 5129 H 502.13 4.84836 -2.25473 0
M  V30 5130 H 502.473 4.10136 -0.713737 0
M  V30 5131 H 503.006 3.30482 -2.21419 0
M  V30 5132 H 499.745 4.11918 -5.09906 0
M  V30 5133 H 499.265 4.83841 -3.54482 0
M  V30 5134 H 500.944 4.98873 -4.11989 0
M  V30 5135 N 501.076 1.04316 1.18135 0
M  V30 5136 C 502.492 0.762858 1.40188 0
M  V30 5137 C 502.692 -0.646547 1.90846 0
M  V30 5138 O 501.748 -1.41036 2.0944 0
M  V30 5139 C 503.061 1.81106 2.40044 0
M  V30 5140 C 504.609 1.83226 2.53766 0
M  V30 5141 C 505.084 2.87044 3.56889 0
M  V30 5142 N 506.575 2.85951 3.64398 0
M  V30 5143 C 507.31 3.62932 4.43923 0
M  V30 5144 N 506.806 4.49672 5.27036 0
M  V30 5145 N 508.599 3.51411 4.38711 0
M  V30 5146 H 500.75 1.95264 0.835805 0
M  V30 5147 H 503.013 0.845017 0.429709 0
M  V30 5148 H 502.719 2.82214 2.09876 0
M  V30 5149 H 502.593 1.64529 3.39426 0
M  V30 5150 H 504.98 0.827869 2.8325 0
M  V30 5151 H 505.061 2.03879 1.54489 0
M  V30 5152 H 504.705 3.87663 3.28145 0
M  V30 5153 H 504.635 2.63645 4.5585 0
M  V30 5154 H 507.126 2.23051 3.05052 0
M  V30 5155 H 507.439 5.05116 5.84874 0
M  V30 5156 H 505.784 4.53738 5.26447 0
M  V30 5157 H 508.975 2.83047 3.72829 0
M  V30 5158 H 509.148 4.11654 5.00445 0
M  V30 5159 N 502.554 -1.34406 0.822964 0
M  V30 5160 C 503.802 -1.97892 0.410245 0
M  V30 5161 C 504.123 -1.65567 -1.03017 0
M  V30 5162 O 503.393 -0.94642 -1.71522 0
M  V30 5163 H 501.973 -0.732049 0.148707 0
M  V30 5164 H 504.635 -1.64043 1.05242 0
M  V30 5165 H 503.731 -3.07579 0.529284 0
M  V30 5166 N 504.032 -0.577932 -1.46621 0
M  V30 5167 C 505.309 0.00495287 -1.95599 0
M  V30 5168 C 505.689 1.46428 -1.5206 0
M  V30 5169 O 505.037 2.1517 -0.769046 0
M  V30 5170 C 505.247 -0.162114 -3.48623 0
M  V30 5171 C 506.595 -0.0274623 -4.24591 0
M  V30 5172 O 507.619 -0.0907067 -3.56084 0
M  V30 5173 O 506.478 0.1122 -5.46385 0
M  V30 5174 H 503.572 0.0525057 -0.825332 0
M  V30 5175 H 506.118 -0.645914 -1.56927 0
M  V30 5176 H 504.89 -1.17679 -3.73185 0
M  V30 5177 H 504.513 0.525407 -3.94113 0
M  V30 5178 N 505.51 1.54411 -0.315457 0
M  V30 5179 C 506.738 2.04833 0.291738 0
M  V30 5180 C 507.153 1.19203 1.46411 0
M  V30 5181 O 506.51 0.220867 1.81159 0
M  V30 5182 C 506.561 3.53969 0.73404 0
M  V30 5183 O 506.282 4.36346 -0.391682 0
M  V30 5184 C 507.783 4.2045 1.40489 0
M  V30 5185 H 505.003 0.668195 0.0612947 0
M  V30 5186 H 507.547 1.99276 -0.45929 0
M  V30 5187 H 505.702 3.5984 1.43506 0
M  V30 5188 H 506.116 5.24481 -0.0447088 0
M  V30 5189 H 507.59 5.26278 1.66539 0
M  V30 5190 H 508.067 3.71067 2.3496 0
M  V30 5191 H 508.673 4.18694 0.746662 0
M  V30 5192 N 506.988 0.0434614 1.5754 0
M  V30 5193 C 508.235 -0.632035 1.92384 0
M  V30 5194 C 508.563 -1.71304 0.921157 0
M  V30 5195 O 507.818 -1.95583 -0.067744 0
M  V30 5196 C 508.117 -1.2738 3.3393 0
M  V30 5197 C 507.783 -0.321757 4.49751 0
M  V30 5198 C 506.445 -0.0597611 4.81163 0
M  V30 5199 C 508.797 0.331158 5.20147 0
M  V30 5200 C 506.125 0.862715 5.80322 0
M  V30 5201 C 508.477 1.24178 6.20292 0
M  V30 5202 C 507.141 1.51252 6.50138 0
M  V30 5203 H 506.411 -0.231278 0.703983 0
M  V30 5204 H 509.058 0.108294 1.91194 0
M  V30 5205 H 507.363 -2.08921 3.3145 0
M  V30 5206 H 509.06 -1.80326 3.58167 0
M  V30 5207 H 505.65 -0.53614 4.25233 0
M  V30 5208 H 509.834 0.141826 4.96097 0
M  V30 5209 H 505.09 1.08003 6.01785 0
M  V30 5210 H 509.264 1.75381 6.73954 0
M  V30 5211 H 506.891 2.22897 7.26788 0
M  V30 5212 N 508.466 -1.55915 -0.229846 0
M  V30 5213 C 509.429 -1.90914 -1.26824 0
M  V30 5214 C 510.429 -0.786999 -1.40225 0
M  V30 5215 O 511.619 -1.05484 -1.38632 0
M  V30 5216 C 508.751 -2.15264 -2.64337 0
M  V30 5217 H 509.944 -2.8378 -0.969998 0
M  V30 5218 H 507.497 -1.49069 -0.4699 0
M  V30 5219 H 508.232 -1.24923 -2.99274 0
M  V30 5220 H 508.017 -2.97005 -2.55989 0
M  V30 5221 H 509.507 -2.43467 -3.39284 0
M  V30 5222 N 509.944 0.496216 -1.49584 0
M  V30 5223 C 511.172 1.27394 -1.63029 0
M  V30 5224 C 511.587 1.86344 -0.303569 0
M  V30 5225 O 510.944 1.68057 0.711547 0
M  V30 5226 C 510.995 2.40077 -2.70269 0
M  V30 5227 O 510.716 1.83549 -3.97796 0
M  V30 5228 C 512.217 3.31372 -2.94462 0
M  V30 5229 H 509.437 0.386211 -0.54871 0
M  V30 5230 H 511.981 0.595163 -1.95648 0
M  V30 5231 H 510.136 3.03775 -2.40415 0
M  V30 5232 H 510.55 2.57561 -4.56905 0
M  V30 5233 H 512.024 4.06707 -3.73221 0
M  V30 5234 H 512.501 3.88654 -2.0456 0
M  V30 5235 H 513.107 2.73435 -3.25751 0
M  V30 5236 N 511.423 1.38739 0.74761 0
M  V30 5237 C 512.839 1.20067 1.05148 0
M  V30 5238 C 513.039 0.0534835 2.01429 0
M  V30 5239 O 512.095 -0.59886 2.45296 0
M  V30 5240 C 513.408 2.52957 1.62584 0
M  V30 5241 C 514.956 2.59692 1.74726 0
M  V30 5242 C 515.431 3.92772 2.35573 0
M  V30 5243 N 516.922 3.94343 2.42997 0
M  V30 5244 C 517.657 4.9408 2.90985 0
M  V30 5245 N 517.153 6.04214 3.38965 0
M  V30 5246 N 518.946 4.81466 2.9008 0
M  V30 5247 H 511.097 2.12121 0.108808 0
M  V30 5248 H 513.36 0.941491 0.110899 0
M  V30 5249 H 513.066 3.37389 0.993051 0
M  V30 5250 H 512.94 2.71779 2.61565 0
M  V30 5251 H 515.327 1.75651 2.3713 0
M  V30 5252 H 515.408 2.44731 0.744326 0
M  V30 5253 H 515.052 4.77238 1.738 0
M  V30 5254 H 514.982 4.05046 3.36519 0
M  V30 5255 H 517.473 3.14799 2.0907 0
M  V30 5256 H 517.786 6.76241 3.74056 0
M  V30 5257 H 516.131 6.07825 3.37007 0
M  V30 5258 H 519.322 3.94535 2.51912 0
M  V30 5259 H 519.495 5.59344 3.27166 0
M  V30 5260 N 512.901 -0.976442 1.23707 0
M  V30 5261 C 513.864 -2.0511 1.02287 0
M  V30 5262 C 514.864 -1.60791 -0.0167195 0
M  V30 5263 O 516.054 -1.72761 0.223408 0
M  V30 5264 C 513.186 -3.36458 0.548507 0
M  V30 5265 H 514.379 -2.25545 1.9766 0
M  V30 5266 H 511.932 -1.15042 1.05806 0
M  V30 5267 H 512.667 -3.21713 -0.408818 0
M  V30 5268 H 512.452 -3.69967 1.29874 0
M  V30 5269 H 513.942 -4.15489 0.419406 0
M  V30 5270 N 514.379 -1.04941 -1.1758 0
M  V30 5271 C 515.289 -0.658826 -2.25159 0
M  V30 5272 C 516.305 0.318941 -1.71052 0
M  V30 5273 O 517.481 0.171669 -2.00667 0
M  V30 5274 C 514.546 -0.0369522 -3.4668 0
M  V30 5275 C 513.607 -1.06484 -4.15884 0
M  V30 5276 C 512.84 -0.472551 -5.31604 0
M  V30 5277 O 513.063 0.718736 -5.65854 0
M  V30 5278 O 511.997 -1.20557 -5.89703 0
M  V30 5279 H 515.823 -1.55533 -2.60851 0
M  V30 5280 H 513.408 -0.820819 -1.24832 0
M  V30 5281 H 515.29 0.308784 -4.20267 0
M  V30 5282 H 513.965 0.833238 -3.12792 0
M  V30 5283 H 512.872 -1.46253 -3.44327 0
M  V30 5284 H 514.205 -1.9061 -4.53794 0
M  V30 5285 N 515.857 1.33968 -0.830081 0
M  V30 5286 C 516.767 2.33164 -0.259207 0
M  V30 5287 C 517.783 1.62951 0.610164 0
M  V30 5288 O 518.959 1.94668 0.516369 0
M  V30 5289 C 516.024 3.42088 0.563598 0
M  V30 5290 C 515.085 4.28037 -0.329014 0
M  V30 5291 C 514.318 5.3176 0.454616 0
M  V30 5292 O 514.541 5.44876 1.6872 0
M  V30 5293 O 513.475 6.01669 -0.166794 0
M  V30 5294 H 517.301 2.83832 -1.08041 0
M  V30 5295 H 514.886 1.37154 -0.59239 0
M  V30 5296 H 516.768 4.08581 1.03147 0
M  V30 5297 H 515.443 2.93651 1.36201 0
M  V30 5298 H 514.35 3.64443 -0.844538 0
M  V30 5299 H 515.683 4.79934 -1.09196 0
M  V30 5300 N 517.335 0.585699 1.46312 0
M  V30 5301 C 518.282 -0.145835 2.30339 0
M  V30 5302 C 519.252 -0.881215 1.40797 0
M  V30 5303 O 520.437 -0.871293 1.69744 0
M  V30 5304 C 517.577 -1.15161 3.25318 0
M  V30 5305 C 516.69 -0.419367 4.2996 0
M  V30 5306 C 515.825 -1.41293 5.12064 0
M  V30 5307 C 514.864 -0.667261 6.08452 0
M  V30 5308 N 514.001 -1.60903 6.83414 0
M  V30 5309 H 518.841 0.576755 2.92365 0
M  V30 5310 H 516.378 0.296237 1.44086 0
M  V30 5311 H 518.336 -1.74763 3.78832 0
M  V30 5312 H 516.966 -1.84188 2.65094 0
M  V30 5313 H 516.018 0.291751 3.7928 0
M  V30 5314 H 517.33 0.163433 4.98532 0
M  V30 5315 H 516.484 -2.08167 5.6987 0
M  V30 5316 H 515.223 -2.02966 4.43459 0
M  V30 5317 H 514.228 0.0152356 5.49798 0
M  V30 5318 H 515.453 -0.0558817 6.79077 0
M  V30 5319 H 513.399 -2.21381 6.17516 0
M  V30 5320 H 513.316 -1.07911 7.48259 0
M  V30 5321 H 514.584 -2.26802 7.45775 0
M  V30 5322 N 518.813 -1.54241 0.323641 0
M  V30 5323 C 520.229 -1.59574 -0.0290018 0
M  V30 5324 C 520.429 -1.34017 -1.50472 0
M  V30 5325 O 519.485 -1.12464 -2.26071 0
M  V30 5326 C 520.798 -2.98169 0.389295 0
M  V30 5327 C 522.346 -3.11148 0.339958 0
M  V30 5328 C 522.821 -4.5209 0.733418 0
M  V30 5329 N 524.312 -4.5808 0.686827 0
M  V30 5330 C 525.047 -5.65248 0.963464 0
M  V30 5331 N 524.543 -6.80355 1.30724 0
M  V30 5332 N 526.336 -5.55025 0.88902 0
M  V30 5333 H 518.487 -1.6911 1.28512 0
M  V30 5334 H 520.75 -0.790972 0.522558 0
M  V30 5335 H 520.456 -3.21871 1.41746 0
M  V30 5336 H 520.33 -3.76399 -0.245657 0
M  V30 5337 H 522.717 -2.87182 -0.679002 0
M  V30 5338 H 522.798 -2.35023 1.00985 0
M  V30 5339 H 522.442 -4.76788 1.75029 0
M  V30 5340 H 522.372 -5.26584 0.0412189 0
M  V30 5341 H 524.863 -3.75411 0.43298 0
M  V30 5342 H 525.176 -7.58029 1.5037 0
M  V30 5343 H 523.521 -6.81851 1.3455 0
M  V30 5344 H 526.712 -4.63977 0.619939 0
M  V30 5345 H 526.885 -6.38458 1.10797 0
M  V30 5346 N 520.291 -0.0518155 -1.57515 0
M  V30 5347 C 521.254 0.907547 -2.10467 0
M  V30 5348 C 522.254 1.23947 -1.02439 0
M  V30 5349 O 523.444 1.17604 -1.2851 0
M  V30 5350 C 520.576 2.21723 -2.58944 0
M  V30 5351 H 521.769 0.44851 -2.96527 0
M  V30 5352 H 519.322 0.196598 -1.55059 0
M  V30 5353 H 520.057 2.72206 -1.76279 0
M  V30 5354 H 519.842 1.98935 -3.37886 0
M  V30 5355 H 521.332 2.90441 -3.00056 0
M  V30 5356 N 521.769 1.56035 0.221574 0
M  V30 5357 C 522.679 1.95581 1.29558 0
M  V30 5358 C 523.695 0.859639 1.51282 0
M  V30 5359 O 524.871 1.16321 1.64413 0
M  V30 5360 C 521.936 2.26447 2.62531 0
M  V30 5361 C 520.997 3.49632 2.4911 0
M  V30 5362 C 520.23 3.79017 3.75742 0
M  V30 5363 O 520.453 3.10077 4.78757 0
M  V30 5364 O 519.387 4.72507 3.72855 0
M  V30 5365 H 523.213 2.8711 0.990035 0
M  V30 5366 H 520.798 1.43244 0.424434 0
M  V30 5367 H 522.68 2.47494 3.41064 0
M  V30 5368 H 521.355 1.38092 2.92766 0
M  V30 5369 H 520.262 3.33864 1.68777 0
M  V30 5370 H 521.595 4.3837 2.23814 0
M  V30 5371 N 523.247 -0.488276 1.49845 0
M  V30 5372 C 524.21 -1.57069 1.66919 0
M  V30 5373 C 525.21 -1.51445 0.540479 0
M  V30 5374 O 526.4 -1.5437 0.807188 0
M  V30 5375 C 523.532 -2.96718 1.67844 0
M  V30 5376 H 524.725 -1.43254 2.63474 0
M  V30 5377 H 522.278 -0.713435 1.39068 0
M  V30 5378 H 523.013 -3.15996 0.7292 0
M  V30 5379 H 522.798 -3.02208 2.49826 0
M  V30 5380 H 524.288 -3.75335 1.83066 0
M  V30 5381 N 524.725 -1.39134 -0.740242 0
M  V30 5382 C 525.635 -1.39697 -1.88473 0
M  V30 5383 C 526.651 -0.292403 -1.71526 0
M  V30 5384 O 527.827 -0.533021 -1.94219 0
M  V30 5385 C 524.892 -1.23382 -3.24003 0
M  V30 5386 C 523.953 -2.43763 -3.53381 0
M  V30 5387 C 523.186 -2.28216 -4.82445 0
M  V30 5388 O 523.409 -1.28288 -5.55786 0
M  V30 5389 O 522.343 -3.1709 -5.11603 0
M  V30 5390 H 526.169 -2.36159 -1.90952 0
M  V30 5391 H 523.754 -1.20194 -0.887346 0
M  V30 5392 H 525.636 -1.16395 -4.05006 0
M  V30 5393 H 524.311 -0.300121 -3.22306 0
M  V30 5394 H 523.218 -2.56325 -2.72485 0
M  V30 5395 H 524.551 -3.35808 -3.59852 0
M  V30 5396 N 526.204 0.969867 -1.24223 0
M  V30 5397 C 527.167 2.04564 -1.03373 0
M  V30 5398 C 528.167 1.60798 0.00819206 0
M  V30 5399 O 529.357 1.72641 -0.232567 0
M  V30 5400 C 526.489 3.36163 -0.566343 0
M  V30 5401 H 527.682 2.24494 -1.98853 0
M  V30 5402 H 525.235 1.1448 -1.06415 0
M  V30 5403 H 525.97 3.21925 0.391751 0
M  V30 5404 H 525.755 3.69273 -1.31834 0
M  V30 5405 H 527.245 4.1526 -0.441435 0
M  V30 5406 N 527.682 1.05563 1.17022 0
M  V30 5407 C 528.645 0.664098 2.19368 0
M  V30 5408 C 529.645 -0.286358 1.5823 0
M  V30 5409 O 530.835 -0.069728 1.7406 0
M  V30 5410 C 527.967 -0.0239932 3.40892 0
M  V30 5411 H 529.16 1.57 2.55521 0
M  V30 5412 H 526.713 0.849964 1.31169 0
M  V30 5413 H 527.448 -0.942988 3.10287 0
M  V30 5414 H 527.233 0.659351 3.86516 0
M  V30 5415 H 528.723 -0.283909 4.16634 0
M  V30 5416 N 529.16 -1.33526 0.837174 0
M  V30 5417 C 530.123 -2.27551 0.274421 0
M  V30 5418 C 531.123 -1.50886 -0.555881 0
M  V30 5419 O 532.313 -1.70227 -0.369918 0
M  V30 5420 C 529.445 -3.35332 -0.613605 0
M  V30 5421 H 530.638 -2.78837 1.10408 0
M  V30 5422 H 528.191 -1.439 0.610126 0
M  V30 5423 H 528.926 -2.89285 -1.46577 0
M  V30 5424 H 528.711 -3.92095 -0.0195341 0
M  V30 5425 H 530.201 -4.05433 -1.00068 0
M  V30 5426 N 530.638 -0.59345 -1.46 0
M  V30 5427 C 531.548 0.135817 -2.34207 0
M  V30 5428 C 532.564 0.875008 -1.50398 0
M  V30 5429 O 533.74 0.835778 -1.83239 0
M  V30 5430 C 530.805 1.12977 -3.27776 0
M  V30 5431 C 529.866 0.394081 -4.27487 0
M  V30 5432 C 529.099 1.34068 -5.16586 0
M  V30 5433 O 529.322 2.5778 -5.08828 0
M  V30 5434 O 528.256 0.845426 -5.95933 0
M  V30 5435 H 532.082 -0.588691 -2.9794 0
M  V30 5436 H 529.667 -0.353784 -1.45151 0
M  V30 5437 H 531.549 1.70261 -3.85473 0
M  V30 5438 H 530.224 1.83556 -2.66625 0
M  V30 5439 H 529.131 -0.220869 -3.73447 0
M  V30 5440 H 530.464 -0.270939 -4.91454 0
M  V30 5441 N 532.116 1.54067 -0.331816 0
M  V30 5442 C 533.079 2.23275 0.517768 0
M  V30 5443 C 534.079 1.22897 1.03697 0
M  V30 5444 O 535.269 1.47419 0.928084 0
M  V30 5445 C 532.401 2.94326 1.72004 0
M  V30 5446 H 533.594 2.99773 -0.0873507 0
M  V30 5447 H 531.147 1.56079 -0.0830042 0
M  V30 5448 H 531.882 2.21986 2.36417 0
M  V30 5449 H 531.667 3.67941 1.35507 0
M  V30 5450 H 533.157 3.47031 2.32291 0
M  V30 5451 N 533.594 0.0601682 1.57485 0
M  V30 5452 C 534.557 -0.896373 2.10945 0
M  V30 5453 C 535.557 -1.23402 1.03095 0
M  V30 5454 O 536.747 -1.16921 1.29132 0
M  V30 5455 C 533.879 -2.20346 2.60116 0
M  V30 5456 H 535.072 -0.432778 2.96761 0
M  V30 5457 H 532.625 -0.188372 1.55161 0
M  V30 5458 H 533.36 -2.71268 1.7772 0
M  V30 5459 H 533.145 -1.9714 3.38937 0
M  V30 5460 H 534.635 -2.88846 3.01592 0
M  V30 5461 N 535.072 -1.5615 -0.213296 0
M  V30 5462 C 536.035 -1.92249 -1.24792 0
M  V30 5463 C 537.035 -0.801828 -1.39382 0
M  V30 5464 O 538.225 -1.06948 -1.37506 0
M  V30 5465 C 535.357 -2.18056 -2.62039 0
M  V30 5466 H 536.55 -2.84793 -0.939845 0
M  V30 5467 H 534.103 -1.49559 -0.454062 0
M  V30 5468 H 534.838 -1.2809 -2.97932 0
M  V30 5469 H 534.623 -2.99703 -2.52825 0
M  V30 5470 H 536.113 -2.47051 -3.36683 0
M  V30 5471 N 536.55 0.480323 -1.50102 0
M  V30 5472 C 537.961 1.06142 -1.53593 0
M  V30 5473 C 538.312 1.93335 -0.334055 0
M  V30 5474 O 537.437 2.09188 0.55403 0
M  V30 5475 C 538.032 1.9317 -2.78336 0
M  V30 5476 C 536.591 2.46405 -2.84538 0
M  V30 5477 C 535.738 1.24521 -2.4777 0
M  V30 5478 H 538.689 0.26333 -1.565 0
M  V30 5479 H 538.71 2.78123 -2.59669 0
M  V30 5480 H 538.222 1.29683 -3.65792 0
M  V30 5481 H 536.323 3.13472 -2.01411 0
M  V30 5482 H 536.436 2.82143 -3.87211 0
M  V30 5483 H 534.8 1.57706 -2.00003 0
M  V30 5484 H 535.583 0.627102 -3.37524 0
M  V30 5485 N 538.028 1.39524 0.732853 0
M  V30 5486 C 538.991 1.38189 1.82857 0
M  V30 5487 C 539.991 0.278624 1.58368 0
M  V30 5488 O 541.181 0.536639 1.65728 0
M  V30 5489 C 538.313 1.15661 3.2068 0
M  V30 5490 H 539.506 2.35692 1.85444 0
M  V30 5491 H 537.059 1.2512 0.936728 0
M  V30 5492 H 537.794 0.188482 3.23752 0
M  V30 5493 H 537.579 1.95559 3.39852 0
M  V30 5494 H 539.069 1.17472 4.00737 0
M  V30 5495 N 539.506 -0.963266 1.24736 0
M  V30 5496 C 540.469 -2.04013 1.04457 0
M  V30 5497 C 541.469 -1.608 0.000335555 0
M  V30 5498 O 542.659 -1.72515 0.241719 0
M  V30 5499 C 539.791 -3.35858 0.584162 0
M  V30 5500 H 540.984 -2.23436 2.00041 0
M  V30 5501 H 538.537 -1.13914 1.07021 0
M  V30 5502 H 539.272 -3.22128 -0.374673 0
M  V30 5503 H 539.057 -3.68568 1.3379 0
M  V30 5504 H 540.547 -4.1502 0.463451 0
M  V30 5505 N 540.985 -1.06182 -1.16461 0
M  V30 5506 C 541.917 -0.629584 -2.20383 0
M  V30 5507 C 542.93 0.311834 -1.59786 0
M  V30 5508 O 544.119 0.103 -1.78203 0
M  V30 5509 C 541.219 0.0973695 -3.3876 0
M  V30 5510 C 540.392 -0.857252 -4.28917 0
M  V30 5511 C 539.451 -0.169749 -5.25926 0
M  V30 5512 O 538.477 -0.807044 -5.6345 0
M  V30 5513 N 539.679 1.08911 -5.70192 0
M  V30 5514 H 542.444 -1.52352 -2.58087 0
M  V30 5515 H 540.005 -0.944993 -1.31459 0
M  V30 5516 H 541.997 0.567676 -4.00699 0
M  V30 5517 H 540.567 0.893093 -2.99571 0
M  V30 5518 H 539.787 -1.50696 -3.64259 0
M  V30 5519 H 541.075 -1.50489 -4.86035 0
M  V30 5520 H 540.473 1.62703 -5.41797 0
M  V30 5521 H 539.03 1.50331 -6.34227 0
M  V30 5522 N 542.463 1.3308 -0.844243 0
M  V30 5523 C 543.874 1.7992 -0.498566 0
M  V30 5524 C 544.225 1.69808 0.982834 0
M  V30 5525 O 543.35 1.25051 1.7661 0
M  V30 5526 C 543.945 3.26677 -0.898204 0
M  V30 5527 C 542.504 3.71513 -0.604583 0
M  V30 5528 C 541.651 2.54393 -1.10362 0
M  V30 5529 H 544.602 1.20526 -1.03244 0
M  V30 5530 H 544.623 3.79918 -0.21039 0
M  V30 5531 H 544.135 3.34004 -1.97643 0
M  V30 5532 H 542.236 3.69708 0.46335 0
M  V30 5533 H 542.349 4.64755 -1.16358 0
M  V30 5534 H 540.713 2.49246 -0.524273 0
M  V30 5535 H 541.496 2.6448 -2.18873 0
M  V30 5536 N 543.941 0.601185 1.45683 0
M  V30 5537 C 544.851 -0.123395 2.34275 0
M  V30 5538 C 545.867 -0.86702 1.5086 0
M  V30 5539 O 547.043 -0.826049 1.8368 0
M  V30 5540 C 544.108 -1.11237 3.2837 0
M  V30 5541 C 543.169 -0.371405 4.2769 0
M  V30 5542 C 542.402 -1.31327 5.1729 0
M  V30 5543 O 542.625 -2.55078 5.10188 0
M  V30 5544 O 541.559 -0.813811 5.96373 0
M  V30 5545 H 545.385 0.604483 2.97623 0
M  V30 5546 H 542.97 0.361477 1.44961 0
M  V30 5547 H 544.852 -1.68214 3.8637 0
M  V30 5548 H 543.527 -1.82139 2.67595 0
M  V30 5549 H 542.434 0.24067 3.73325 0
M  V30 5550 H 543.767 0.296998 4.91303 0
M  V30 5551 N 545.419 -1.53889 0.339982 0
M  V30 5552 C 546.665 -2.01152 -0.258003 0
M  V30 5553 C 546.998 -1.22749 -1.50487 0
M  V30 5554 O 546.273 -0.314156 -1.91946 0
M  V30 5555 C 546.556 -3.55468 -0.575717 0
M  V30 5556 C 546.409 -4.44584 0.682996 0
M  V30 5557 C 547.728 -4.1768 -1.38677 0
M  V30 5558 H 544.847 -0.731198 -0.0922992 0
M  V30 5559 H 547.489 -1.84352 0.459814 0
M  V30 5560 H 545.639 -3.69914 -1.18725 0
M  V30 5561 H 547.311 -4.41981 1.32102 0
M  V30 5562 H 545.554 -4.13592 1.3086 0
M  V30 5563 H 546.225 -5.5043 0.416001 0
M  V30 5564 H 548.701 -4.0691 -0.869705 0
M  V30 5565 H 547.577 -5.25734 -1.57783 0
M  V30 5566 H 547.838 -3.72069 -2.38782 0
M  V30 5567 N 546.897 -0.0685191 -1.57451 0
M  V30 5568 C 547.807 0.914677 -2.16034 0
M  V30 5569 C 548.823 1.32938 -1.12265 0
M  V30 5570 O 549.999 1.40275 -1.44516 0
M  V30 5571 C 547.064 2.16519 -2.70777 0
M  V30 5572 C 546.125 1.80721 -3.89408 0
M  V30 5573 C 545.358 2.9981 -4.41531 0
M  V30 5574 O 545.581 4.13727 -3.92666 0
M  V30 5575 O 544.515 2.79817 -5.32903 0
M  V30 5576 H 548.341 0.446364 -3.00402 0
M  V30 5577 H 545.926 0.154367 -1.486 0
M  V30 5578 H 547.808 2.89856 -3.05878 0
M  V30 5579 H 546.483 2.62454 -1.89471 0
M  V30 5580 H 545.39 1.04646 -3.59166 0
M  V30 5581 H 546.723 1.39571 -4.71997 0
M  V30 5582 N 548.375 1.56261 0.205012 0
M  V30 5583 C 549.322 1.93754 1.25411 0
M  V30 5584 C 550.292 0.796826 1.45739 0
M  V30 5585 O 551.477 1.05414 1.59036 0
M  V30 5586 C 548.617 2.27383 2.59598 0
M  V30 5587 C 547.73 3.5447 2.46931 0
M  V30 5588 C 546.865 3.77468 3.73753 0
M  V30 5589 C 545.904 4.98014 3.55877 0
M  V30 5590 N 545.041 5.17316 4.74688 0
M  V30 5591 H 549.881 2.83203 0.92737 0
M  V30 5592 H 547.418 1.40158 0.446574 0
M  V30 5593 H 549.376 2.44895 3.37761 0
M  V30 5594 H 548.006 1.41088 2.90335 0
M  V30 5595 H 547.058 3.45061 1.60116 0
M  V30 5596 H 548.37 4.42789 2.29651 0
M  V30 5597 H 547.524 3.95165 4.60358 0
M  V30 5598 H 546.263 2.87461 3.93976 0
M  V30 5599 H 545.268 4.80249 2.67657 0
M  V30 5600 H 546.493 5.8952 3.37109 0
M  V30 5601 H 544.439 4.30255 4.95194 0
M  V30 5602 H 544.356 5.99796 4.60197 0
M  V30 5603 H 545.624 5.39463 5.62672 0
M  V30 5604 N 549.853 -0.472356 1.50355 0
M  V30 5605 C 551.264 -1.05326 1.54154 0
M  V30 5606 C 551.615 -1.93155 0.344303 0
M  V30 5607 O 550.74 -2.09479 -0.542928 0
M  V30 5608 C 551.335 -1.91691 2.79356 0
M  V30 5609 C 549.894 -2.44892 2.8584 0
M  V30 5610 C 549.041 -1.23205 2.48426 0
M  V30 5611 H 551.992 -0.255027 1.56637 0
M  V30 5612 H 552.013 -2.76742 2.6114 0
M  V30 5613 H 551.525 -1.27741 3.66475 0
M  V30 5614 H 549.626 -3.12399 2.0307 0
M  V30 5615 H 549.739 -2.80086 3.88701 0
M  V30 5616 H 548.103 -1.56643 2.00836 0
M  V30 5617 H 548.886 -0.609194 3.37852 0
M  V30 5618 N 551.331 -1.39911 -0.725443 0
M  V30 5619 C 552.263 -1.35301 -1.85003 0
M  V30 5620 C 553.276 -0.260102 -1.60709 0
M  V30 5621 O 554.465 -0.519749 -1.70766 0
M  V30 5622 C 551.565 -1.08039 -3.21218 0
M  V30 5623 C 550.738 -2.28793 -3.7279 0
M  V30 5624 C 549.797 -1.97841 -4.87591 0
M  V30 5625 O 548.823 -2.70616 -5.00755 0
M  V30 5626 N 550.025 -0.950367 -5.72668 0
M  V30 5627 H 552.79 -2.32218 -1.89459 0
M  V30 5628 H 550.351 -1.34137 -0.90658 0
M  V30 5629 H 552.343 -0.853354 -3.95601 0
M  V30 5630 H 550.913 -0.198229 -3.11971 0
M  V30 5631 H 550.133 -2.67388 -2.8965 0
M  V30 5632 H 551.421 -3.09317 -4.03981 0
M  V30 5633 H 550.819 -0.347436 -5.64632 0
M  V30 5634 H 549.376 -0.783232 -6.47077 0
M  V30 5635 N 552.809 0.956637 -1.25245 0
M  V30 5636 C 553.756 2.053 -1.05454 0
M  V30 5637 C 554.726 1.66062 0.0356889 0
M  V30 5638 O 555.911 1.90415 -0.121099 0
M  V30 5639 C 553.051 3.38391 -0.677191 0
M  V30 5640 C 552.164 3.90758 -1.84206 0
M  V30 5641 C 551.299 5.12165 -1.40926 0
M  V30 5642 C 550.338 5.56757 -2.54338 0
M  V30 5643 N 549.475 6.69376 -2.11848 0
M  V30 5644 H 554.315 2.21562 -1.99284 0
M  V30 5645 H 551.852 1.08578 -0.992434 0
M  V30 5646 H 553.81 4.1488 -0.43938 0
M  V30 5647 H 552.44 3.22021 0.224127 0
M  V30 5648 H 551.492 3.10808 -2.19323 0
M  V30 5649 H 552.804 4.19802 -2.69383 0
M  V30 5650 H 551.958 5.96065 -1.13098 0
M  V30 5651 H 550.697 4.84832 -0.528175 0
M  V30 5652 H 549.702 4.71423 -2.82913 0
M  V30 5653 H 550.927 5.861 -3.43022 0
M  V30 5654 H 548.873 6.43756 -1.26153 0
M  V30 5655 H 548.79 6.97927 -2.90574 0
M  V30 5656 H 550.058 7.5669 -1.87191 0
M  V30 5657 N 554.287 1.06798 1.15896 0
M  V30 5658 C 555.234 0.683314 2.20453 0
M  V30 5659 C 556.204 -0.32255 1.62938 0
M  V30 5660 O 557.389 -0.210276 1.89638 0
M  V30 5661 C 554.529 0.0813266 3.45004 0
M  V30 5662 C 553.642 1.13799 4.16742 0
M  V30 5663 C 552.777 0.501598 5.28826 0
M  V30 5664 C 551.816 1.54144 5.92373 0
M  V30 5665 N 550.953 0.928038 6.9594 0
M  V30 5666 H 555.793 1.57932 2.52708 0
M  V30 5667 H 553.33 0.789544 1.24115 0
M  V30 5668 H 555.288 -0.285274 4.16224 0
M  V30 5669 H 553.918 -0.77806 3.13283 0
M  V30 5670 H 552.97 1.62223 3.44075 0
M  V30 5671 H 554.282 1.92664 4.60089 0
M  V30 5672 H 553.436 0.0823162 6.06644 0
M  V30 5673 H 552.175 -0.318883 4.86656 0
M  V30 5674 H 551.18 1.97056 5.13273 0
M  V30 5675 H 552.405 2.3641 6.36621 0
M  V30 5676 H 550.351 0.12836 6.55874 0
M  V30 5677 H 550.268 1.65401 7.37685 0
M  V30 5678 H 551.536 0.534071 7.77668 0
M  V30 5679 N 555.766 -1.3263 0.851289 0
M  V30 5680 C 557.177 -1.79653 0.5081 0
M  V30 5681 C 557.528 -1.70327 -0.973815 0
M  V30 5682 O 556.653 -1.25986 -1.75944 0
M  V30 5683 C 557.248 -3.26196 0.915515 0
M  V30 5684 C 555.807 -3.71187 0.624277 0
M  V30 5685 C 554.954 -2.53804 1.11709 0
M  V30 5686 H 557.905 -1.19976 1.03882 0
M  V30 5687 H 557.926 -3.79801 0.230535 0
M  V30 5688 H 557.438 -3.32952 1.99411 0
M  V30 5689 H 555.539 -3.69948 -0.443737 0
M  V30 5690 H 555.652 -4.64132 1.18821 0
M  V30 5691 H 554.016 -2.48964 0.537484 0
M  V30 5692 H 554.799 -2.63315 2.20272 0
M  V30 5693 N 557.244 -0.608902 -1.45362 0
M  V30 5694 C 558.49 -0.104762 -2.02529 0
M  V30 5695 C 558.823 1.26191 -1.47613 0
M  V30 5696 O 558.098 1.8327 -0.65134 0
M  V30 5697 C 558.381 -0.0672661 -3.60037 0
M  V30 5698 C 558.234 -1.4647 -4.25284 0
M  V30 5699 C 559.553 0.619877 -4.35713 0
M  V30 5700 H 556.672 -0.0395438 -0.735938 0
M  V30 5701 H 559.314 -0.781126 -1.73201 0
M  V30 5702 H 557.464 0.50871 -3.85155 0
M  V30 5703 H 559.136 -2.08785 -4.11347 0
M  V30 5704 H 557.379 -2.02502 -3.83634 0
M  V30 5705 H 558.05 -1.39069 -5.34195 0
M  V30 5706 H 560.526 0.130297 -4.15896 0
M  V30 5707 H 559.402 0.615224 -5.45441 0
M  V30 5708 H 559.663 1.68621 -4.0868 0
M  V30 5709 N 558.722 1.53707 -0.348139 0
M  V30 5710 C 559.971 2.0017 0.247992 0
M  V30 5711 C 560.284 1.23983 1.51286 0
M  V30 5712 O 561.49 1.60946 2.18652 0
M  V30 5713 C 559.946 3.56515 0.492459 0
M  V30 5714 C 559.554 4.41562 -0.756777 0
M  V30 5715 C 561.298 4.11381 1.0472 0
M  V30 5716 C 559.205 5.89426 -0.482856 0
M  V30 5717 H 558.135 0.747806 0.0964452 0
M  V30 5718 H 560.786 1.77532 -0.464179 0
M  V30 5719 H 559.168 3.75236 1.26545 0
M  V30 5720 H 560.342 4.34615 -1.53122 0
M  V30 5721 H 558.657 3.97711 -1.23348 0
M  V30 5722 H 561.254 5.19468 1.26717 0
M  V30 5723 H 561.597 3.64885 2.00411 0
M  V30 5724 H 562.13 3.96389 0.334801 0
M  V30 5725 H 558.869 6.40164 -1.40962 0
M  V30 5726 H 558.389 5.99264 0.253416 0
M  V30 5727 H 560.068 6.4692 -0.101816 0
M  V30 5728 N 560.2 0.0768682 1.57412 0
M  V30 5729 C 561.147 -0.888577 2.13009 0
M  V30 5730 C 562.117 -1.29198 1.0439 0
M  V30 5731 O 563.302 -1.37694 1.3208 0
M  V30 5732 C 560.442 -2.14899 2.70023 0
M  V30 5733 C 559.555 -1.79777 3.92816 0
M  V30 5734 C 558.69 -3.00467 4.38056 0
M  V30 5735 C 557.729 -2.61385 5.53484 0
M  V30 5736 N 556.866 -3.74851 5.93659 0
M  V30 5737 H 561.706 -0.407593 2.95199 0
M  V30 5738 H 559.243 -0.189534 1.45874 0
M  V30 5739 H 561.201 -2.88688 3.0119 0
M  V30 5740 H 559.831 -2.60529 1.9059 0
M  V30 5741 H 558.883 -0.960301 3.68079 0
M  V30 5742 H 560.195 -1.47027 4.76639 0
M  V30 5743 H 559.349 -3.82529 4.7091 0
M  V30 5744 H 558.088 -3.36413 3.53097 0
M  V30 5745 H 557.093 -1.77746 5.20275 0
M  V30 5746 H 558.318 -2.26603 6.40178 0
M  V30 5747 H 556.264 -4.1055 5.11649 0
M  V30 5748 H 556.181 -3.45887 6.72234 0
M  V30 5749 H 557.449 -4.57477 6.31138 0
M  V30 5750 N 561.678 -1.56367 -0.196722 0
M  V30 5751 C 563.089 -1.70462 -0.761545 0
M  V30 5752 C 563.44 -0.683161 -1.83922 0
M  V30 5753 O 562.565 0.160753 -2.15802 0
M  V30 5754 C 563.16 -3.09057 -1.38814 0
M  V30 5755 C 561.719 -3.24922 -1.90007 0
M  V30 5756 C 560.866 -2.66412 -0.769399 0
M  V30 5757 H 563.817 -1.58675 0.0283263 0
M  V30 5758 H 563.838 -3.06296 -2.2575 0
M  V30 5759 H 563.35 -3.83378 -0.603559 0
M  V30 5760 H 561.451 -2.55514 -2.71189 0
M  V30 5761 H 561.564 -4.3241 -2.06297 0
M  V30 5762 H 559.928 -2.25546 -1.18326 0
M  V30 5763 H 560.711 -3.433 0.00291773 0
M  V30 5764 N 563.156 0.464375 -1.50603 0
M  V30 5765 C 564.086 1.56944 -1.72889 0
M  V30 5766 C 565.067 1.59979 -0.577997 0
M  V30 5767 O 566.252 1.76138 -0.817855 0
M  V30 5768 C 563.382 2.95225 -1.8292 0
M  V30 5769 C 562.336 3.07056 -2.98162 0
M  V30 5770 C 561.662 4.47051 -2.93343 0
M  V30 5771 C 562.962 2.83648 -4.38567 0
M  V30 5772 H 564.656 1.38547 -2.65415 0
M  V30 5773 H 562.202 0.665082 -1.27721 0
M  V30 5774 H 564.155 3.72467 -1.97095 0
M  V30 5775 H 562.879 3.14793 -0.870209 0
M  V30 5776 H 561.538 2.32248 -2.83648 0
M  V30 5777 H 561.186 4.63547 -1.95276 0
M  V30 5778 H 560.886 4.55902 -3.70712 0
M  V30 5779 H 562.41 5.26304 -3.09575 0
M  V30 5780 H 563.824 3.50636 -4.53572 0
M  V30 5781 H 562.221 3.03937 -5.17438 0
M  V30 5782 H 563.291 1.79451 -4.50472 0
M  V30 5783 N 564.634 1.40294 0.718013 0
M  V30 5784 C 565.862 1.4175 1.50714 0
M  V30 5785 C 566.277 0.0165366 1.88793 0
M  V30 5786 O 565.634 -0.958942 1.55276 0
M  V30 5787 C 565.685 2.30598 2.784 0
M  V30 5788 O 565.406 3.6524 2.41932 0
M  V30 5789 C 566.907 2.4062 3.72313 0
M  V30 5790 H 564.127 0.483565 0.465194 0
M  V30 5791 H 566.671 1.84316 0.885889 0
M  V30 5792 H 564.826 1.91401 3.36815 0
M  V30 5793 H 565.24 4.12402 3.24076 0
M  V30 5794 H 566.714 3.07001 4.58753 0
M  V30 5795 H 567.191 1.4305 4.15251 0
M  V30 5796 H 567.797 2.80359 3.19811 0
M  V30 5797 N 566.112 -0.949982 1.2575 0
M  V30 5798 C 567.022 -2.08109 1.08295 0
M  V30 5799 C 568.038 -1.7399 0.0188181 0
M  V30 5800 O 569.214 -2.00187 0.220724 0
M  V30 5801 C 566.279 -3.39383 0.708534 0
M  V30 5802 C 565.34 -3.8734 1.85111 0
M  V30 5803 C 564.573 -5.12349 1.49447 0
M  V30 5804 O 564.796 -5.6905 0.392212 0
M  V30 5805 O 563.73 -5.5513 2.32624 0
M  V30 5806 H 567.556 -2.25738 2.03165 0
M  V30 5807 H 565.141 -1.06545 1.04731 0
M  V30 5808 H 567.023 -4.18277 0.512061 0
M  V30 5809 H 565.698 -3.23013 -0.210854 0
M  V30 5810 H 564.605 -3.09429 2.10248 0
M  V30 5811 H 565.938 -4.08216 2.74991 0
M  V30 5812 N 567.59 -1.07411 -1.15328 0
M  V30 5813 C 568.867 -0.710732 -1.82231 0
M  V30 5814 C 569.247 0.806732 -1.95077 0
M  V30 5815 O 568.595 1.72139 -1.50268 0
M  V30 5816 C 568.805 -1.42586 -3.18544 0
M  V30 5817 C 570.153 -1.57836 -3.94174 0
M  V30 5818 O 571.177 -1.38669 -3.281 0
M  V30 5819 O 570.036 -1.8938 -5.12638 0
M  V30 5820 H 567.13 -0.25297 -0.78736 0
M  V30 5821 H 569.676 -1.17508 -1.22434 0
M  V30 5822 H 568.448 -2.46008 -3.04296 0
M  V30 5823 H 568.071 -0.952332 -3.86026 0
M  V30 5824 N 569.068 1.32177 -0.85831 0
M  V30 5825 C 570.293 2.01847 -0.476718 0
M  V30 5826 C 570.718 1.64065 0.920021 0
M  V30 5827 O 570.076 0.843189 1.60499 0
M  V30 5828 C 570.124 3.55097 -0.627578 0
M  V30 5829 O 569.228 4.11012 0.338086 0
M  V30 5830 H 568.569 0.635907 -0.191099 0
M  V30 5831 H 571.099 1.68641 -1.15851 0
M  V30 5832 H 571.109 4.04718 -0.516476 0
M  V30 5833 H 569.784 3.81938 -1.64609 0
M  V30 5834 H 568.361 3.72451 0.182917 0
M  V30 5835 N 570.547 0.616602 1.45037 0
M  V30 5836 C 571.494 -0.0969439 2.30596 0
M  V30 5837 C 572.464 -0.851151 1.42635 0
M  V30 5838 O 573.649 -0.835092 1.71554 0
M  V30 5839 C 570.789 -1.08234 3.27688 0
M  V30 5840 C 569.902 -0.328072 4.30752 0
M  V30 5841 C 569.037 -1.30399 5.14946 0
M  V30 5842 C 568.076 -0.538049 6.09731 0
M  V30 5843 N 567.213 -1.46371 6.86673 0
M  V30 5844 H 572.053 0.63864 2.91076 0
M  V30 5845 H 569.59 0.326733 1.43425 0
M  V30 5846 H 571.548 -1.66688 3.82454 0
M  V30 5847 H 570.178 -1.78523 2.68941 0
M  V30 5848 H 569.23 0.372136 3.78575 0
M  V30 5849 H 570.542 0.269142 4.98073 0
M  V30 5850 H 569.696 -1.96032 5.74157 0
M  V30 5851 H 568.435 -1.93514 4.47665 0
M  V30 5852 H 567.44 0.131852 5.49642 0
M  V30 5853 H 568.665 0.0881732 6.79043 0
M  V30 5854 H 566.611 -2.08233 6.22073 0
M  V30 5855 H 566.528 -0.920152 7.50379 0
M  V30 5856 H 567.796 -2.10932 7.50418 0
M  V30 5857 N 572.025 -1.5352 0.356285 0
M  V30 5858 C 572.972 -2.25439 -0.494569 0
M  V30 5859 C 573.942 -1.25752 -1.08516 0
M  V30 5860 O 575.127 -1.54513 -1.1194 0
M  V30 5861 C 572.267 -3.04011 -1.63313 0
M  V30 5862 C 571.38 -4.18574 -1.06862 0
M  V30 5863 C 570.515 -4.84607 -2.17552 0
M  V30 5864 C 569.554 -5.91218 -1.58518 0
M  V30 5865 N 568.691 -6.50979 -2.63003 0
M  V30 5866 H 573.531 -2.97737 0.125244 0
M  V30 5867 H 571.068 -1.46916 0.0735789 0
M  V30 5868 H 573.026 -3.47834 -2.30363 0
M  V30 5869 H 571.656 -2.33986 -2.22374 0
M  V30 5870 H 570.708 -3.79303 -0.288672 0
M  V30 5871 H 572.02 -4.95215 -0.596924 0
M  V30 5872 H 571.174 -5.31566 -2.92442 0
M  V30 5873 H 569.913 -4.07418 -2.6807 0
M  V30 5874 H 568.918 -5.4363 -0.821391 0
M  V30 5875 H 570.143 -6.70322 -1.08836 0
M  V30 5876 H 568.089 -5.76648 -3.12751 0
M  V30 5877 H 568.006 -7.23131 -2.20493 0
M  V30 5878 H 569.274 -7.02589 -3.37623 0
M  V30 5879 N 573.503 -0.0852151 -1.57369 0
M  V30 5880 C 574.919 0.271436 -1.57275 0
M  V30 5881 C 575.119 1.69109 -1.09565 0
M  V30 5882 O 574.175 2.40549 -0.767611 0
M  V30 5883 C 575.488 0.0688638 -3.00621 0
M  V30 5884 C 577.036 0.137373 -3.12698 0
M  V30 5885 C 577.511 -0.0370832 -4.57985 0
M  V30 5886 N 579.002 0.0180794 -4.63196 0
M  V30 5887 C 579.737 -0.0922953 -5.73326 0
M  V30 5888 N 579.233 -0.256948 -6.92323 0
M  V30 5889 N 581.026 -0.0342702 -5.6209 0
M  V30 5890 H 573.177 -1.01288 -1.86693 0
M  V30 5891 H 575.44 -0.396138 -0.861266 0
M  V30 5892 H 575.146 -0.911277 -3.39689 0
M  V30 5893 H 575.02 0.815442 -3.6828 0
M  V30 5894 H 577.407 1.10801 -2.73509 0
M  V30 5895 H 577.488 -0.640532 -2.47651 0
M  V30 5896 H 577.132 -1.00455 -4.97867 0
M  V30 5897 H 577.062 0.760392 -5.21081 0
M  V30 5898 H 579.553 0.143202 -3.77629 0
M  V30 5899 H 579.866 -0.332949 -7.72082 0
M  V30 5900 H 578.211 -0.292487 -6.94384 0
M  V30 5901 H 581.402 0.0931605 -4.68007 0
M  V30 5902 H 581.575 -0.12374 -6.47882 0
M  V30 5903 N 574.981 1.5647 0.188427 0
M  V30 5904 C 576.206 1.85486 0.927891 0
M  V30 5905 C 576.631 0.669575 1.75779 0
M  V30 5906 O 575.989 -0.381573 1.77239 0
M  V30 5907 C 576.037 3.12784 1.7944 0
M  V30 5908 O 575.141 2.93805 2.894 0
M  V30 5909 H 574.482 0.610585 0.260925 0
M  V30 5910 H 577.012 2.037 0.191729 0
M  V30 5911 H 577.022 3.43749 2.19774 0
M  V30 5912 H 575.697 3.98671 1.18468 0
M  V30 5913 H 574.274 2.74153 2.52774 0
M  V30 5914 N 576.459 -0.456382 1.50847 0
M  V30 5915 C 577.689 -1.22848 1.66108 0
M  V30 5916 C 578.097 -1.85936 0.349897 0
M  V30 5917 O 577.44 -1.70664 -0.679665 0
M  V30 5918 C 577.502 -2.36722 2.70561 0
M  V30 5919 C 577.166 -1.94154 4.13707 0
M  V30 5920 C 578.163 -1.4557 4.99105 0
M  V30 5921 C 575.848 -2.02426 4.59705 0
M  V30 5922 C 577.842 -1.0582 6.28555 0
M  V30 5923 C 575.529 -1.62287 5.89157 0
M  V30 5924 C 576.527 -1.14064 6.73408 0
M  V30 5925 O 576.215 -0.744873 8.00442 0
M  V30 5926 H 575.947 -0.377105 0.561042 0
M  V30 5927 H 578.501 -0.549431 1.97915 0
M  V30 5928 H 576.731 -3.07844 2.34027 0
M  V30 5929 H 578.42 -2.98646 2.74892 0
M  V30 5930 H 579.186 -1.38589 4.64777 0
M  V30 5931 H 575.065 -2.38908 3.94264 0
M  V30 5932 H 578.609 -0.6811 6.94267 0
M  V30 5933 H 574.506 -1.68932 6.23003 0
M  V30 5934 H 575.274 -0.87242 8.13837 0
M  V30 5935 N 577.937 -1.40673 -0.710563 0
M  V30 5936 C 578.885 -1.41517 -1.84596 0
M  V30 5937 C 579.879 -0.295043 -1.66811 0
M  V30 5938 O 581.085 -0.466331 -1.73854 0
M  V30 5939 H 577.46 -0.442467 -0.608052 0
M  V30 5940 H 579.431 -2.37238 -1.80999 0
M  V30 5941 C 578.18 -1.29957 -3.225 0
M  V30 5942 H 577.503 -2.15429 -3.36794 0
M  V30 5943 H 578.943 -1.34608 -4.02066 0
M  V30 5944 C 577.402 -0.0103164 -3.36898 0
M  V30 5945 O 577.932 0.950707 -3.90288 0
M  V30 5946 N 576.138 0.0608409 -2.90536 0
M  V30 5947 H 575.685 -0.721943 -2.47277 0
M  V30 5948 H 575.643 0.92292 -3.00549 0
M  V30 5949 N 579.415 0.9433 -1.26252 0
M  V30 5950 C 580.345 2.05902 -1.10122 0
M  V30 5951 C 581.326 1.70099 -0.00700552 0
M  V30 5952 O 582.511 1.93377 -0.178641 0
M  V30 5953 C 579.641 3.39516 -0.731175 0
M  V30 5954 C 578.595 3.89372 -1.77688 0
M  V30 5955 C 577.921 5.19613 -1.26122 0
M  V30 5956 C 579.221 4.14489 -3.17799 0
M  V30 5957 H 580.915 2.19655 -2.03451 0
M  V30 5958 H 578.461 1.05548 -0.979576 0
M  V30 5959 H 580.414 4.17031 -0.605215 0
M  V30 5960 H 579.138 3.25733 0.23782 0
M  V30 5961 H 577.797 3.14036 -1.89148 0
M  V30 5962 H 577.445 5.02208 -0.282128 0
M  V30 5963 H 577.145 5.53939 -1.96023 0
M  V30 5964 H 578.669 5.99713 -1.14789 0
M  V30 5965 H 580.083 4.82625 -3.09428 0
M  V30 5966 H 578.48 4.60094 -3.85271 0
M  V30 5967 H 579.55 3.20347 -3.64014 0
M  V30 5968 N 580.893 1.08022 1.14757 0
M  V30 5969 C 582.142 0.802468 1.8505 0
M  V30 5970 C 582.455 -0.674061 1.83619 0
M  V30 5971 O 583.661 -1.06683 2.49662 0
M  V30 5972 C 582.117 1.38551 3.32162 0
M  V30 5973 C 581.725 2.89354 3.42021 0
M  V30 5974 C 583.469 1.18608 4.07594 0
M  V30 5975 C 581.376 3.40815 4.83321 0
M  V30 5976 H 580.306 0.296518 0.693248 0
M  V30 5977 H 582.957 1.30114 1.29393 0
M  V30 5978 H 581.339 0.814556 3.87532 0
M  V30 5979 H 582.513 3.52552 2.96722 0
M  V30 5980 H 580.828 3.08165 2.80041 0
M  V30 5981 H 583.425 1.54525 5.11885 0
M  V30 5982 H 583.768 0.125599 4.1611 0
M  V30 5983 H 584.301 1.72375 3.58513 0
M  V30 5984 H 581.04 4.46418 4.79991 0
M  V30 5985 H 580.56 2.82374 5.29174 0
M  V30 5986 H 582.239 3.37171 5.522 0
M  V30 5987 N 582.371 -1.3172 0.865308 0
M  V30 5988 C 583.596 -2.01591 0.487415 0
M  V30 5989 C 584.021 -1.6455 -0.911307 0
M  V30 5990 O 583.379 -0.851689 -1.6005 0
M  V30 5991 C 583.427 -3.54759 0.646401 0
M  V30 5992 O 582.531 -4.11185 -0.316284 0
M  V30 5993 H 581.872 -0.634884 0.194468 0
M  V30 5994 H 584.402 -1.68024 1.16744 0
M  V30 5995 H 584.412 -4.04438 0.537932 0
M  V30 5996 H 583.087 -3.8106 1.66632 0
M  V30 5997 H 581.664 -3.72543 -0.163162 0
M  V30 5998 N 583.85 -0.624285 -1.44708 0
M  V30 5999 C 584.798 0.0969952 -2.32398 0
M  V30 6000 C 585.792 0.842762 -1.46949 0
M  V30 6001 O 586.998 0.756436 -1.63334 0
M  V30 6002 H 583.373 0.0501306 -0.750327 0
M  V30 6003 H 585.344 -0.660767 -2.90992 0
M  V30 6004 C 584.093 1.06967 -3.30837 0
M  V30 6005 H 583.416 0.505242 -3.96595 0
M  V30 6006 H 584.856 1.54397 -3.94889 0
M  V30 6007 C 583.315 2.15153 -2.5925 0
M  V30 6008 O 583.845 3.23139 -2.3863 0
M  V30 6009 N 582.051 1.90898 -2.19103 0
M  V30 6010 H 581.598 1.03086 -2.36074 0
M  V30 6011 H 581.556 2.63485 -1.71531 0
M  V30 6012 N 585.328 1.53329 -0.364422 0
M  V30 6013 C 586.605 1.93557 0.281962 0
M  V30 6014 C 586.985 1.29786 1.6649 0
M  V30 6015 O 586.333 0.456512 2.23893 0
M  V30 6016 C 586.543 3.47405 0.333331 0
M  V30 6017 C 587.891 4.20699 0.574231 0
M  V30 6018 O 588.915 3.53779 0.414588 0
M  V30 6019 O 587.774 5.39287 0.885002 0
M  V30 6020 H 584.868 0.809573 0.168881 0
M  V30 6021 H 587.414 1.64494 -0.417121 0
M  V30 6022 H 586.186 3.86091 -0.636326 0
M  V30 6023 H 585.809 3.82697 1.07836 0
M  V30 6024 N 586.806 0.0935595 1.57322 0
M  V30 6025 C 588.031 -0.582324 1.99057 0
M  V30 6026 C 588.456 -1.61025 0.972242 0
M  V30 6027 O 587.814 -1.81202 -0.0594622 0
M  V30 6028 C 587.862 -1.20799 3.39765 0
M  V30 6029 O 586.966 -2.32382 3.40694 0
M  V30 6030 H 586.307 -0.147884 0.647323 0
M  V30 6031 H 588.837 0.174516 2.03854 0
M  V30 6032 H 588.847 -1.54966 3.77425 0
M  V30 6033 H 587.522 -0.454914 4.13405 0
M  V30 6034 H 586.099 -1.99845 3.14827 0
M  V30 6035 N 588.284 -1.56567 -0.180126 0
M  V30 6036 C 589.512 -1.85618 -0.913972 0
M  V30 6037 C 589.927 -0.677892 -1.7621 0
M  V30 6038 O 589.284 0.353171 -1.7905 0
M  V30 6039 C 589.335 -3.13619 -1.79793 0
M  V30 6040 O 589.056 -4.26906 -0.98402 0
M  V30 6041 C 590.557 -3.55954 -2.64219 0
M  V30 6042 H 587.777 -0.616043 -0.265954 0
M  V30 6043 H 590.321 -2.03681 -0.182872 0
M  V30 6044 H 588.476 -2.97409 -2.48247 0
M  V30 6045 H 588.89 -4.9989 -1.58776 0
M  V30 6046 H 590.364 -4.48444 -3.21873 0
M  V30 6047 H 590.841 -2.79653 -3.38661 0
M  V30 6048 H 591.447 -3.74746 -2.01111 0
M  V30 6049 N 589.762 0.448376 -1.51087 0
M  V30 6050 C 591.009 1.19872 -1.63209 0
M  V30 6051 C 591.337 1.91451 -0.343062 0
M  V30 6052 O 590.592 1.83789 0.672321 0
M  V30 6053 C 590.891 2.24866 -2.77795 0
M  V30 6054 C 590.557 1.70378 -4.17471 0
M  V30 6055 C 589.219 1.55241 -4.55471 0
M  V30 6056 C 591.571 1.30203 -5.04675 0
M  V30 6057 C 588.899 0.983844 -5.78392 0
M  V30 6058 C 591.251 0.747798 -6.28165 0
M  V30 6059 C 589.915 0.583233 -6.64947 0
M  V30 6060 H 589.185 0.438642 -0.597222 0
M  V30 6061 H 591.832 0.49136 -1.85089 0
M  V30 6062 H 590.137 3.01598 -2.50092 0
M  V30 6063 H 591.834 2.82723 -2.84374 0
M  V30 6064 H 588.424 1.83134 -3.87505 0
M  V30 6065 H 592.608 1.40723 -4.75932 0
M  V30 6066 H 587.864 0.844007 -6.05546 0
M  V30 6067 H 592.038 0.427927 -6.95084 0
M  V30 6068 H 589.665 0.140532 -7.6007 0
M  V30 6069 N 591.24 1.41047 0.703093 0
M  V30 6070 C 592.468 1.4334 1.49202 0
M  V30 6071 C 592.883 0.0365596 1.88765 0
M  V30 6072 O 592.24 -0.942419 1.56284 0
M  V30 6073 C 592.291 2.33538 2.75939 0
M  V30 6074 O 592.012 3.67786 2.38045 0
M  V30 6075 C 593.513 2.44555 3.6974 0
M  V30 6076 H 590.733 0.488472 0.460039 0
M  V30 6077 H 593.277 1.85245 0.86629 0
M  V30 6078 H 591.432 1.94962 3.34766 0
M  V30 6079 H 591.846 4.15816 3.19683 0
M  V30 6080 H 593.32 3.11849 4.55471 0
M  V30 6081 H 593.797 1.47447 4.1371 0
M  V30 6082 H 594.403 2.83735 3.16819 0
M  V30 6083 N 592.718 -0.936591 1.26751 0
M  V30 6084 C 593.65 -2.03991 1.045 0
M  V30 6085 C 594.663 -1.628 0.00394261 0
M  V30 6086 O 595.852 -1.76817 0.244526 0
M  V30 6087 C 592.952 -3.34218 0.561403 0
M  V30 6088 C 592.125 -4.04151 1.67274 0
M  V30 6089 C 591.184 -5.12651 1.1864 0
M  V30 6090 O 590.21 -5.37104 1.88437 0
M  V30 6091 N 591.412 -5.80488 0.037278 0
M  V30 6092 H 594.177 -2.23644 1.99508 0
M  V30 6093 H 591.738 -1.10638 1.18198 0
M  V30 6094 H 593.73 -4.04101 0.220136 0
M  V30 6095 H 592.3 -3.11203 -0.295211 0
M  V30 6096 H 591.52 -3.28121 2.18472 0
M  V30 6097 H 592.808 -4.47626 2.41885 0
M  V30 6098 H 592.206 -5.63064 -0.545494 0
M  V30 6099 H 590.763 -6.5134 -0.244877 0
M  V30 6100 N 594.196 -1.08629 -1.14182 0
M  V30 6101 C 595.426 -0.837673 -1.88856 0
M  V30 6102 C 595.834 0.614024 -1.78959 0
M  V30 6103 O 595.177 1.43384 -1.14833 0
M  V30 6104 C 595.239 -1.18355 -3.39459 0
M  V30 6105 C 594.903 -2.63848 -3.73139 0
M  V30 6106 C 595.9 -3.62099 -3.73069 0
M  V30 6107 C 593.585 -2.99761 -4.03049 0
M  V30 6108 C 595.579 -4.94292 -4.02435 0
M  V30 6109 C 593.266 -4.32147 -4.32078 0
M  V30 6110 C 594.264 -5.29223 -4.31755 0
M  V30 6111 O 593.952 -6.59229 -4.60079 0
M  V30 6112 H 593.684 -0.301609 -0.604986 0
M  V30 6113 H 596.238 -1.44961 -1.45518 0
M  V30 6114 H 594.468 -0.514628 -3.8326 0
M  V30 6115 H 596.157 -0.915391 -3.95443 0
M  V30 6116 H 596.923 -3.35698 -3.50046 0
M  V30 6117 H 592.802 -2.2484 -4.02453 0
M  V30 6118 H 596.346 -5.70055 -4.02098 0
M  V30 6119 H 592.243 -4.58296 -4.54571 0
M  V30 6120 H 593.011 -6.64578 -4.77785 0
M  V30 6121 N 595.674 1.31259 -0.872281 0
M  V30 6122 C 597.09 1.49283 -0.564521 0
M  V30 6123 C 597.29 1.80243 0.900807 0
M  V30 6124 O 596.346 1.88246 1.68284 0
M  V30 6125 C 597.659 2.62503 -1.46673 0
M  V30 6126 C 599.207 2.76386 -1.46901 0
M  V30 6127 C 599.682 3.92705 -2.35684 0
M  V30 6128 N 601.173 3.99995 -2.33577 0
M  V30 6129 C 601.908 4.89276 -2.98992 0
M  V30 6130 N 601.404 5.83443 -3.73585 0
M  V30 6131 N 603.197 4.82541 -2.88289 0
M  V30 6132 H 595.348 1.09432 -1.82039 0
M  V30 6133 H 597.611 0.540949 -0.77851 0
M  V30 6134 H 597.317 2.46407 -2.50951 0
M  V30 6135 H 597.191 3.58695 -1.16696 0
M  V30 6136 H 599.578 2.91894 -0.433796 0
M  V30 6137 H 599.659 1.80853 -1.80903 0
M  V30 6138 H 599.303 3.77954 -3.39283 0
M  V30 6139 H 599.233 4.87549 -1.99006 0
M  V30 6140 H 601.724 3.32624 -1.7936 0
M  V30 6141 H 602.037 6.48303 -4.20622 0
M  V30 6142 H 600.382 5.83415 -3.77694 0
M  V30 6143 H 603.573 4.07951 -2.2955 0
M  V30 6144 H 603.746 5.51916 -3.39549 0
M  V30 6145 N 597.152 0.631951 1.44375 0
M  V30 6146 C 598.377 0.142146 2.06912 0
M  V30 6147 C 598.802 -1.17456 1.4692 0
M  V30 6148 O 598.16 -1.72074 0.570975 0
M  V30 6149 C 598.208 0.0417952 3.60576 0
M  V30 6150 O 597.312 -1.00194 4.00044 0
M  V30 6151 H 596.653 0.0851491 0.658518 0
M  V30 6152 H 599.183 0.868863 1.85235 0
M  V30 6153 H 599.193 -0.148517 4.0773 0
M  V30 6154 H 597.868 1.0031 4.03622 0
M  V30 6155 H 596.445 -0.786131 3.64519 0
M  V30 6156 N 598.631 -1.53133 0.372548 0
M  V30 6157 C 599.877 -2.02336 -0.207823 0
M  V30 6158 C 600.232 -1.25477 -1.45853 0
M  V30 6159 O 599.525 -0.341971 -1.88524 0
M  V30 6160 C 599.719 -3.53206 -0.545938 0
M  V30 6161 C 599.548 -4.44674 0.670454 0
M  V30 6162 C 598.318 -4.91217 1.18465 0
M  V30 6163 C 600.516 -4.90772 1.53777 0
M  V30 6164 N 598.498 -5.66711 2.36034 0
M  V30 6165 C 599.869 -5.64678 2.56004 0
M  V30 6166 C 601.924 -4.72836 1.55983 0
M  V30 6167 C 600.627 -6.22555 3.60303 0
M  V30 6168 C 602.653 -5.31583 2.59179 0
M  V30 6169 C 602.015 -6.05381 3.6013 0
M  V30 6170 H 598.114 -0.781048 -0.0385783 0
M  V30 6171 H 600.698 -1.87665 0.518664 0
M  V30 6172 H 598.869 -3.68024 -1.24149 0
M  V30 6173 H 600.601 -3.89123 -1.112 0
M  V30 6174 H 597.356 -4.67652 0.748205 0
M  V30 6175 H 597.78 -6.09117 2.95475 0
M  V30 6176 H 602.422 -4.15299 0.792877 0
M  V30 6177 H 600.14 -6.79183 4.37876 0
M  V30 6178 H 603.726 -5.19595 2.61749 0
M  V30 6179 H 602.606 -6.50028 4.38672 0
M  V30 6180 N 600.109 -0.101901 -1.5727 0
M  V30 6181 C 601.339 0.567568 -1.98651 0
M  V30 6182 C 601.747 1.61839 -0.980037 0
M  V30 6183 O 601.09 1.83661 0.0376564 0
M  V30 6184 C 601.152 1.26742 -3.36417 0
M  V30 6185 C 600.816 0.366561 -4.55528 0
M  V30 6186 C 601.813 -0.388022 -5.1845 0
M  V30 6187 C 599.498 0.282629 -5.01504 0
M  V30 6188 C 601.492 -1.21445 -6.25724 0
M  V30 6189 C 599.179 -0.547443 -6.08643 0
M  V30 6190 C 600.177 -1.29462 -6.70618 0
M  V30 6191 O 599.865 -2.11095 -7.7569 0
M  V30 6192 H 599.597 0.156282 -0.657687 0
M  V30 6193 H 602.151 -0.179912 -2.04611 0
M  V30 6194 H 600.381 2.06162 -3.27161 0
M  V30 6195 H 602.07 1.8321 -3.622 0
M  V30 6196 H 602.836 -0.332949 -4.83856 0
M  V30 6197 H 598.715 0.853868 -4.53023 0
M  V30 6198 H 602.259 -1.79814 -6.74027 0
M  V30 6199 H 598.156 -0.603971 -6.42668 0
M  V30 6200 H 598.924 -2.03851 -7.92709 0
M  V30 6201 N 601.587 1.56661 0.17182 0
M  V30 6202 C 602.517 1.99401 1.21498 0
M  V30 6203 C 603.498 0.869516 1.46197 0
M  V30 6204 O 604.683 1.13556 1.57539 0
M  V30 6205 C 601.813 2.35346 2.55401 0
M  V30 6206 C 600.767 3.5075 2.45272 0
M  V30 6207 C 600.093 3.72437 3.8366 0
M  V30 6208 C 601.393 4.84216 1.95787 0
M  V30 6209 H 603.087 2.86792 0.859699 0
M  V30 6210 H 600.633 1.37977 0.412103 0
M  V30 6211 H 602.586 2.63843 3.2858 0
M  V30 6212 H 601.31 1.44864 2.92715 0
M  V30 6213 H 599.969 3.2238 1.74547 0
M  V30 6214 H 599.617 2.79246 4.18367 0
M  V30 6215 H 599.317 4.50087 3.77751 0
M  V30 6216 H 600.841 4.03334 4.58426 0
M  V30 6217 H 602.255 5.11592 2.5874 0
M  V30 6218 H 600.652 5.65498 2.00827 0
M  V30 6219 H 601.722 4.76243 0.912159 0
M  V30 6220 N 603.065 -0.440357 1.51323 0
M  V30 6221 C 604.028 -1.51679 1.71832 0
M  V30 6222 C 605.028 -1.49648 0.588386 0
M  V30 6223 O 606.218 -1.51724 0.855891 0
M  V30 6224 C 603.35 -2.91228 1.77199 0
M  V30 6225 H 604.543 -1.34799 2.67898 0
M  V30 6226 H 602.096 -0.66883 1.41267 0
M  V30 6227 H 602.831 -3.13516 0.829363 0
M  V30 6228 H 602.616 -2.94107 2.59314 0
M  V30 6229 H 604.106 -3.69321 1.94915 0
M  V30 6230 N 604.543 -1.41418 -0.695603 0
M  V30 6231 C 605.773 -1.43921 -1.48224 0
M  V30 6232 C 606.181 -0.0428855 -1.89151 0
M  V30 6233 O 605.524 0.948138 -1.5734 0
M  V30 6234 C 605.586 -2.28466 -2.77567 0
M  V30 6235 C 605.25 -3.76629 -2.58844 0
M  V30 6236 C 606.247 -4.6879 -2.24793 0
M  V30 6237 C 603.932 -4.2067 -2.74485 0
M  V30 6238 C 605.926 -6.02981 -2.06622 0
M  V30 6239 C 603.613 -5.54926 -2.55931 0
M  V30 6240 C 604.611 -6.45897 -2.2205 0
M  V30 6241 O 604.299 -7.77675 -2.03657 0
M  V30 6242 H 604.031 -0.492252 -0.463318 0
M  V30 6243 H 606.585 -1.86347 -0.863952 0
M  V30 6244 H 604.815 -1.80853 -3.41802 0
M  V30 6245 H 606.504 -2.2267 -3.39371 0
M  V30 6246 H 607.27 -4.36055 -2.12323 0
M  V30 6247 H 603.149 -3.50167 -2.9984 0
M  V30 6248 H 606.693 -6.73951 -1.80099 0
M  V30 6249 H 602.59 -5.8724 -2.67991 0
M  V30 6250 H 603.358 -7.88819 -2.1842 0
M  V30 6251 N 606.021 0.929856 -1.27246 0
M  V30 6252 C 606.969 2.05151 -1.09616 0
M  V30 6253 C 607.963 1.69388 -0.0198617 0
M  V30 6254 O 609.169 1.79124 -0.177417 0
M  V30 6255 H 605.544 0.671909 -0.337701 0
M  V30 6256 H 607.515 2.17168 -2.04648 0
M  V30 6257 C 606.264 3.3934 -0.757851 0
M  V30 6258 H 605.587 3.67343 -1.57795 0
M  V30 6259 H 607.027 4.18603 -0.674358 0
M  V30 6260 C 605.486 3.32582 0.537658 0
M  V30 6261 O 606.016 3.69633 1.57271 0
M  V30 6262 N 604.222 2.8568 0.532478 0
M  V30 6263 H 603.769 2.55725 -0.310233 0
M  V30 6264 H 603.727 2.81541 1.39936 0
M  V30 6265 N 607.499 1.09233 1.13605 0
M  V30 6266 C 608.729 0.847677 1.88409 0
M  V30 6267 C 609.137 -0.604524 1.79282 0
M  V30 6268 O 608.48 -1.42773 1.15592 0
M  V30 6269 C 608.542 1.20153 3.38827 0
M  V30 6270 C 608.206 2.65824 3.71735 0
M  V30 6271 C 609.203 3.64072 3.71143 0
M  V30 6272 C 606.888 3.01894 4.01454 0
M  V30 6273 C 608.882 4.96419 3.99808 0
M  V30 6274 C 606.569 4.34433 4.29781 0
M  V30 6275 C 607.567 5.31505 4.28942 0
M  V30 6276 O 607.255 6.61659 4.56576 0
M  V30 6277 H 606.987 0.304813 0.603378 0
M  V30 6278 H 609.541 1.4573 1.44748 0
M  V30 6279 H 607.771 0.534946 3.82982 0
M  V30 6280 H 609.46 0.936349 3.94952 0
M  V30 6281 H 610.226 3.37549 3.4826 0
M  V30 6282 H 606.105 2.26971 4.01255 0
M  V30 6283 H 609.649 5.7218 3.99069 0
M  V30 6284 H 605.546 4.607 4.52135 0
M  V30 6285 H 606.314 6.67102 4.74254 0
M  V30 6286 N 608.977 -1.30795 0.87923 0
M  V30 6287 C 610.225 -1.95974 0.493809 0
M  V30 6288 C 610.546 -1.69787 -0.959021 0
M  V30 6289 O 609.816 -1.01832 -1.67353 0
M  V30 6290 H 608.396 -0.725083 0.179622 0
M  V30 6291 H 611.058 -1.59432 1.12105 0
M  V30 6292 H 610.154 -3.05058 0.659263 0
M  V30 6293 N 610.455 -0.639598 -1.44038 0
M  V30 6294 C 611.732 -0.078012 -1.95444 0
M  V30 6295 C 612.112 1.39847 -1.58133 0
M  V30 6296 O 611.46 2.11714 -0.859614 0
M  V30 6297 C 611.67 -0.309832 -3.47622 0
M  V30 6298 C 613.018 -0.207521 -4.24093 0
M  V30 6299 O 614.042 -0.241653 -3.55379 0
M  V30 6300 O 612.901 -0.119641 -5.46369 0
M  V30 6301 H 609.995 0.0174534 -0.826816 0
M  V30 6302 H 612.541 -0.711891 -1.54046 0
M  V30 6303 H 611.313 -1.33401 -3.67858 0
M  V30 6304 H 610.936 0.357777 -3.95987 0
M  V30 6305 N 611.933 1.52934 -0.380664 0
M  V30 6306 C 613.344 1.86457 0.0952684 0
M  V30 6307 C 613.695 1.3007 1.46889 0
M  V30 6308 O 612.82 0.628636 2.07068 0
M  V30 6309 C 613.415 3.38323 0.179648 0
M  V30 6310 C 611.974 3.71589 0.599858 0
M  V30 6311 C 611.121 2.76228 -0.243572 0
M  V30 6312 H 614.072 1.46966 -0.59888 0
M  V30 6313 H 614.093 3.67113 1.00042 0
M  V30 6314 H 613.605 3.79333 -0.820228 0
M  V30 6315 H 611.706 3.36144 1.60742 0
M  V30 6316 H 611.819 4.77715 0.364003 0
M  V30 6317 H 610.183 2.53045 0.289855 0
M  V30 6318 H 610.966 3.20074 -1.24127 0
M  V30 6319 N 613.412 0.11024 1.57214 0
M  V30 6320 C 614.344 -0.873497 2.11902 0
M  V30 6321 C 615.357 -1.23588 1.05971 0
M  V30 6322 O 616.546 -1.18636 1.33371 0
M  V30 6323 C 613.646 -2.17805 2.59643 0
M  V30 6324 C 612.819 -1.98869 3.89576 0
M  V30 6325 C 611.878 -3.12974 4.23006 0
M  V30 6326 O 610.904 -2.86272 4.91973 0
M  V30 6327 N 612.106 -4.39167 3.79622 0
M  V30 6328 H 614.871 -0.406317 2.96933 0
M  V30 6329 H 612.432 -0.074437 1.61729 0
M  V30 6330 H 614.424 -2.93117 2.79042 0
M  V30 6331 H 612.994 -2.55899 1.7954 0
M  V30 6332 H 612.214 -1.078 3.79174 0
M  V30 6333 H 613.502 -1.83512 4.74553 0
M  V30 6334 H 612.9 -4.63739 3.2398 0
M  V30 6335 H 611.457 -5.11379 4.04147 0
M  V30 6336 N 614.89 -1.56749 -0.16351 0
M  V30 6337 C 616.118 -1.86577 -0.894233 0
M  V30 6338 C 616.533 -0.696543 -1.75481 0
M  V30 6339 O 615.89 0.334161 -1.79415 0
M  V30 6340 C 615.941 -3.15508 -1.76456 0
M  V30 6341 O 615.662 -4.27926 -0.938685 0
M  V30 6342 C 617.163 -3.58737 -2.60428 0
M  V30 6343 H 614.383 -0.618829 -0.259405 0
M  V30 6344 H 616.927 -2.03863 -0.161259 0
M  V30 6345 H 615.082 -3.00025 -2.45079 0
M  V30 6346 H 615.496 -5.01546 -1.53465 0
M  V30 6347 H 616.97 -4.51832 -3.17099 0
M  V30 6348 H 617.447 -2.83229 -3.35675 0
M  V30 6349 H 618.053 -3.76858 -1.97125 0
M  V30 6350 N 616.368 0.432326 -1.51554 0
M  V30 6351 C 617.616 1.17901 -1.64146 0
M  V30 6352 C 617.937 1.91604 -0.362367 0
M  V30 6353 O 617.207 1.85764 0.621968 0
M  V30 6354 H 615.787 0.438206 -0.604966 0
M  V30 6355 H 618.449 0.495172 -1.88505 0
M  V30 6356 H 617.545 1.90584 -2.47152 0
M  V30 6357 N 617.846 1.41785 0.688094 0
M  V30 6358 C 619.095 1.4084 1.44385 0
M  V30 6359 C 619.408 0.0234166 1.95586 0
M  V30 6360 O 620.614 -0.108647 2.71283 0
M  V30 6361 C 619.07 2.47675 2.61123 0
M  V30 6362 C 618.678 3.92116 2.16677 0
M  V30 6363 C 620.422 2.55877 3.38714 0
M  V30 6364 C 618.329 4.90487 3.30419 0
M  V30 6365 H 617.259 0.523787 0.542368 0
M  V30 6366 H 619.91 1.6764 0.74627 0
M  V30 6367 H 618.292 2.14018 3.33185 0
M  V30 6368 H 619.466 4.35059 1.51856 0
M  V30 6369 H 617.781 3.87642 1.5206 0
M  V30 6370 H 620.378 3.26553 4.234 0
M  V30 6371 H 620.721 1.59801 3.84408 0
M  V30 6372 H 621.254 2.88662 2.73714 0
M  V30 6373 H 617.993 5.87994 2.89729 0
M  V30 6374 H 617.513 4.52187 3.94065 0
M  V30 6375 H 619.192 5.11591 3.96085 0
M  V30 6376 N 619.324 -0.923095 1.27737 0
M  V30 6377 C 620.74 -1.19985 1.05241 0
M  V30 6378 C 620.94 -2.00391 -0.21113 0
M  V30 6379 O 619.996 -2.35324 -0.915366 0
M  V30 6380 C 621.309 -1.94352 2.29451 0
M  V30 6381 C 622.857 -2.07273 2.34536 0
M  V30 6382 C 623.332 -2.85046 3.58487 0
M  V30 6383 N 624.823 -2.92612 3.59072 0
M  V30 6384 C 625.558 -3.53266 4.51654 0
M  V30 6385 N 625.054 -4.15274 5.54545 0
M  V30 6386 N 626.847 -3.50714 4.39268 0
M  V30 6387 H 618.998 -0.386042 2.08862 0
M  V30 6388 H 621.261 -0.233407 0.918817 0
M  V30 6389 H 620.967 -1.42692 3.21453 0
M  V30 6390 H 620.841 -2.94947 2.3513 0
M  V30 6391 H 623.228 -2.58117 1.43037 0
M  V30 6392 H 623.309 -1.05884 2.32857 0
M  V30 6393 H 622.953 -2.34884 4.50324 0
M  V30 6394 H 622.883 -3.8673 3.57418 0
M  V30 6395 H 625.374 -2.48547 2.84663 0
M  V30 6396 H 625.687 -4.59507 6.21348 0
M  V30 6397 H 624.032 -4.13806 5.58382 0
M  V30 6398 H 627.223 -3.01475 3.58093 0
M  V30 6399 H 627.396 -3.97693 5.1161 0
M  V30 6400 N 620.802 -1.09834 -1.13024 0
M  V30 6401 C 622.027 -0.85909 -1.88771 0
M  V30 6402 C 622.452 0.584402 -1.78791 0
M  V30 6403 O 621.81 1.41101 -1.13842 0
M  V30 6404 C 621.858 -1.30427 -3.36186 0
M  V30 6405 O 620.962 -0.465368 -4.09766 0
M  V30 6406 H 620.303 -0.310786 -0.586778 0
M  V30 6407 H 622.833 -1.46355 -1.42973 0
M  V30 6408 H 622.843 -1.2915 -3.8702 0
M  V30 6409 H 621.518 -2.3555 -3.42767 0
M  V30 6410 H 620.095 -0.542814 -3.68928 0
M  V30 6411 N 622.28 1.30327 -0.886154 0
M  V30 6412 C 623.526 1.96764 -0.515312 0
M  V30 6413 C 623.881 1.68675 0.925552 0
M  V30 6414 O 623.174 0.981693 1.6454 0
M  V30 6415 C 623.368 3.49906 -0.728042 0
M  V30 6416 C 623.197 3.92881 -2.18803 0
M  V30 6417 C 621.967 4.18424 -2.83284 0
M  V30 6418 C 624.165 4.05617 -3.16195 0
M  V30 6419 N 622.147 4.47867 -4.19867 0
M  V30 6420 C 623.518 4.38957 -4.37855 0
M  V30 6421 C 625.573 3.88047 -3.11968 0
M  V30 6422 C 624.276 4.56559 -5.55829 0
M  V30 6423 C 626.302 4.06851 -4.29215 0
M  V30 6424 C 625.664 4.40538 -5.49641 0
M  V30 6425 H 621.763 0.74493 -0.237916 0
M  V30 6426 H 624.347 1.57536 -1.14414 0
M  V30 6427 H 622.518 3.88187 -0.128696 0
M  V30 6428 H 624.25 4.03401 -0.323983 0
M  V30 6429 H 621.005 4.1167 -2.34146 0
M  V30 6430 H 621.429 4.66721 -4.90408 0
M  V30 6431 H 626.071 3.61078 -2.19961 0
M  V30 6432 H 623.789 4.8237 -6.4834 0
M  V30 6433 H 627.375 3.94724 -4.27416 0
M  V30 6434 H 626.255 4.54789 -6.38856 0
M  V30 6435 N 623.758 0.647228 1.43697 0
M  V30 6436 C 624.986 0.16575 2.06235 0
M  V30 6437 C 625.401 -1.1662 1.48476 0
M  V30 6438 O 624.758 -1.7187 0.613762 0
M  V30 6439 C 624.809 0.0621651 3.61447 0
M  V30 6440 O 624.53 1.34146 4.17057 0
M  V30 6441 C 626.031 -0.446102 4.4105 0
M  V30 6442 H 623.251 0.0871158 0.665321 0
M  V30 6443 H 625.795 0.886183 1.84301 0
M  V30 6444 H 623.95 -0.608794 3.82587 0
M  V30 6445 H 624.364 1.19675 5.10664 0
M  V30 6446 H 625.838 -0.46755 5.50016 0
M  V30 6447 H 626.315 -1.47627 4.13646 0
M  V30 6448 H 626.921 0.192159 4.24866 0
M  V30 6449 N 625.236 -1.5273 0.388769 0
M  V30 6450 C 626.166 -2.29353 -0.438111 0
M  V30 6451 C 627.147 -1.32719 -1.06394 0
M  V30 6452 O 628.332 -1.61612 -1.07681 0
M  V30 6453 C 625.462 -3.09995 -1.56589 0
M  V30 6454 C 624.416 -4.14509 -1.06613 0
M  V30 6455 C 623.742 -4.83372 -2.28594 0
M  V30 6456 C 625.042 -5.22127 -0.134459 0
M  V30 6457 H 626.736 -2.98723 0.201206 0
M  V30 6458 H 624.282 -1.43665 0.0982089 0
M  V30 6459 H 626.235 -3.62357 -2.15118 0
M  V30 6460 H 624.959 -2.38357 -2.23279 0
M  V30 6461 H 623.618 -3.63128 -0.503383 0
M  V30 6462 H 623.266 -4.08283 -2.93792 0
M  V30 6463 H 622.966 -5.54012 -1.95817 0
M  V30 6464 H 624.49 -5.38538 -2.87766 0
M  V30 6465 H 625.904 -5.69851 -0.627914 0
M  V30 6466 H 624.301 -6.00011 0.103534 0
M  V30 6467 H 625.371 -4.77971 0.816798 0
M  V30 6468 N 626.714 -0.118576 -1.57153 0
M  V30 6469 C 627.644 0.828436 -2.1831 0
M  V30 6470 C 628.625 1.27758 -1.12303 0
M  V30 6471 O 629.81 1.34026 -1.40537 0
M  V30 6472 C 626.94 2.07876 -2.78217 0
M  V30 6473 C 625.894 1.76742 -3.89803 0
M  V30 6474 C 625.22 3.08801 -4.36516 0
M  V30 6475 C 626.52 1.03606 -5.11921 0
M  V30 6476 H 628.214 0.318824 -2.97698 0
M  V30 6477 H 625.76 0.151911 -1.43196 0
M  V30 6478 H 627.713 2.74584 -3.19659 0
M  V30 6479 H 626.437 2.61161 -1.96118 0
M  V30 6480 H 625.096 1.12424 -3.48936 0
M  V30 6481 H 624.744 3.6002 -3.51276 0
M  V30 6482 H 624.444 2.88743 -5.11763 0
M  V30 6483 H 625.968 3.76627 -4.80608 0
M  V30 6484 H 627.382 1.60467 -5.50385 0
M  V30 6485 H 625.779 0.936454 -5.92748 0
M  V30 6486 H 626.849 0.0227421 -4.84895 0
M  V30 6487 N 628.193 1.56834 0.155195 0
M  V30 6488 C 629.433 1.84701 0.875488 0
M  V30 6489 C 629.797 0.701747 1.78716 0
M  V30 6490 O 630.998 0.861263 2.54629 0
M  V30 6491 C 629.269 3.1773 1.63654 0
M  V30 6492 S 630.828 3.67128 2.40338 0
M  V30 6493 H 627.646 0.647856 0.292923 0
M  V30 6494 H 630.248 1.95026 0.136024 0
M  V30 6495 H 628.952 3.99059 0.958117 0
M  V30 6496 H 628.483 3.10388 2.41708 0
M  V30 6497 H 630.498 3.35739 3.65368 0
M  V30 6498 N 629.671 -0.424282 1.51781 0
M  V30 6499 C 630.899 -1.1947 1.68921 0
M  V30 6500 C 631.314 -1.84683 0.39213 0
M  V30 6501 O 630.671 -1.71261 -0.630554 0
M  V30 6502 C 630.722 -2.26909 2.81416 0
M  V30 6503 O 630.443 -1.64361 4.061 0
M  V30 6504 C 631.944 -3.16945 3.09937 0
M  V30 6505 H 629.164 -0.359591 0.566511 0
M  V30 6506 H 631.708 -0.501139 1.98265 0
M  V30 6507 H 629.863 -2.91959 2.54635 0
M  V30 6508 H 630.277 -2.35468 4.68674 0
M  V30 6509 H 631.751 -3.88437 3.922 0
M  V30 6510 H 632.228 -3.78451 2.22871 0
M  V30 6511 H 632.834 -2.57581 3.38426 0
M  V30 6512 N 631.149 -1.42148 -0.680565 0
M  V30 6513 C 632.56 -1.3768 -1.26099 0
M  V30 6514 C 632.911 -0.0672348 -1.96085 0
M  V30 6515 O 632.036 0.834172 -1.99676 0
M  V30 6516 C 632.631 -2.49387 -2.29328 0
M  V30 6517 C 631.19 -2.4827 -2.82911 0
M  V30 6518 C 630.337 -2.2847 -1.57152 0
M  V30 6519 H 633.288 -1.51446 -0.474326 0
M  V30 6520 H 633.309 -2.19307 -3.10941 0
M  V30 6521 H 632.821 -3.44686 -1.78363 0
M  V30 6522 H 630.922 -1.56773 -3.38013 0
M  V30 6523 H 631.035 -3.45109 -3.3232 0
M  V30 6524 H 629.399 -1.76623 -1.83511 0
M  V30 6525 H 630.182 -3.25816 -1.0816 0
M  V30 6526 N 632.627 0.916307 -1.28225 0
M  V30 6527 C 633.904 1.64429 -1.05936 0
M  V30 6528 C 634.284 2.07234 0.402139 0
M  V30 6529 O 633.632 1.81535 1.3877 0
M  V30 6530 C 633.842 2.83773 -2.03159 0
M  V30 6531 C 635.19 3.54852 -2.33164 0
M  V30 6532 O 636.214 2.93918 -2.01223 0
M  V30 6533 O 635.073 4.64663 -2.87664 0
M  V30 6534 H 632.167 0.721221 -0.404683 0
M  V30 6535 H 634.713 0.965838 -1.39534 0
M  V30 6536 H 633.485 2.49217 -3.01673 0
M  V30 6537 H 633.108 3.59333 -1.70192 0
M  V30 6538 N 634.105 1.10431 1.1244 0
M  V30 6539 C 635.351 0.847972 1.84221 0
M  V30 6540 C 635.684 -0.624903 1.83871 0
M  V30 6541 O 634.959 -1.46074 1.28423 0
M  V30 6542 C 635.242 1.39695 3.319 0
M  V30 6543 C 635.095 2.93668 3.40704 0
M  V30 6544 C 636.414 1.03924 4.27654 0
M  V30 6545 H 633.533 0.309502 0.668863 0
M  V30 6546 H 636.175 1.36745 1.31912 0
M  V30 6547 H 634.325 0.955095 3.76577 0
M  V30 6548 H 635.997 3.46379 3.04662 0
M  V30 6549 H 634.24 3.30272 2.81252 0
M  V30 6550 H 634.911 3.27162 4.446 0
M  V30 6551 H 637.387 1.42049 3.91102 0
M  V30 6552 H 636.263 1.45027 5.29394 0
M  V30 6553 H 636.524 -0.051336 4.4207 0
M  V30 6554 N 635.583 -1.29855 0.893053 0
M  V30 6555 C 636.811 -1.99976 0.530788 0
M  V30 6556 C 637.226 -1.66889 -0.882799 0
M  V30 6557 O 636.583 -0.910352 -1.58173 0
M  V30 6558 C 636.634 -3.54547 0.705587 0
M  V30 6559 O 636.355 -3.86458 2.06353 0
M  V30 6560 C 637.856 -4.41937 0.347387 0
M  V30 6561 H 635.076 -0.639129 0.204339 0
M  V30 6562 H 637.62 -1.65549 1.20057 0
M  V30 6563 H 635.775 -3.87311 0.0830685 0
M  V30 6564 H 636.189 -4.81146 2.08803 0
M  V30 6565 H 637.663 -5.4954 0.520557 0
M  V30 6566 H 638.14 -4.33339 -0.715139 0
M  V30 6567 H 638.746 -4.14633 0.946567 0
M  V30 6568 N 637.061 -0.65484 -1.43351 0
M  V30 6569 C 638.301 -0.172514 -2.03671 0
M  V30 6570 C 638.665 1.19154 -1.50553 0
M  V30 6571 O 639.866 1.76737 -2.02528 0
M  V30 6572 C 638.137 -0.183982 -3.56926 0
M  V30 6573 S 639.696 0.230262 -4.38195 0
M  V30 6574 H 636.514 -0.0727503 -0.707268 0
M  V30 6575 H 639.116 -0.863537 -1.75395 0
M  V30 6576 H 637.82 -1.17945 -3.93087 0
M  V30 6577 H 637.351 0.527527 -3.89847 0
M  V30 6578 H 639.366 1.46874 -4.73965 0
M  V30 6579 N 638.539 1.52521 -0.396863 0
M  V30 6580 C 639.787 2.01274 0.182536 0
M  V30 6581 C 640.108 1.28485 1.46685 0
M  V30 6582 O 639.378 0.407134 1.91623 0
M  V30 6583 H 637.958 0.743671 0.0704442 0
M  V30 6584 H 640.62 1.87547 -0.530289 0
M  V30 6585 H 639.716 3.09687 0.387385 0
M  V30 6586 N 640.017 0.126909 1.57088 0
M  V30 6587 C 641.242 -0.53997 2.00248 0
M  V30 6588 C 641.667 -1.58927 1.00618 0
M  V30 6589 O 641.025 -1.81288 -0.0210131 0
M  V30 6590 C 641.073 -1.13565 3.4225 0
M  V30 6591 O 640.177 -2.25103 3.45547 0
M  V30 6592 H 639.518 -0.13412 0.650314 0
M  V30 6593 H 642.048 0.217718 2.03438 0
M  V30 6594 H 642.058 -1.46925 3.80627 0
M  V30 6595 H 640.733 -0.367122 4.14277 0
M  V30 6596 H 639.31 -1.93123 3.18995 0
M  V30 6597 N 641.495 -1.56914 -0.146875 0
M  V30 6598 C 642.405 -2.0154 -1.20079 0
M  V30 6599 C 643.421 -0.930838 -1.47008 0
M  V30 6600 O 644.597 -1.24032 -1.58676 0
M  V30 6601 C 641.662 -2.38715 -2.51428 0
M  V30 6602 C 640.723 -3.6112 -2.32145 0
M  V30 6603 C 639.956 -3.96512 -3.57231 0
M  V30 6604 O 640.179 -3.32566 -4.63418 0
M  V30 6605 O 639.113 -4.89758 -3.49887 0
M  V30 6606 H 642.939 -2.91506 -0.851924 0
M  V30 6607 H 640.524 -1.45106 -0.355607 0
M  V30 6608 H 642.406 -2.63485 -3.28867 0
M  V30 6609 H 641.081 -1.51903 -2.85845 0
M  V30 6610 H 639.988 -3.41536 -1.52656 0
M  V30 6611 H 641.321 -4.48549 -2.02644 0
M  V30 6612 N 642.974 0.416227 -1.52004 0
M  V30 6613 C 643.906 1.52552 -1.71058 0
M  V30 6614 C 644.919 1.51693 -0.59102 0
M  V30 6615 O 646.108 1.56087 -0.865973 0
M  V30 6616 C 643.208 2.91455 -1.72937 0
M  V30 6617 C 642.381 3.16584 -3.01816 0
M  V30 6618 C 641.44 4.35322 -2.95603 0
M  V30 6619 O 640.466 4.32947 -3.6952 0
M  V30 6620 N 641.668 5.40049 -2.12903 0
M  V30 6621 H 644.433 1.36604 -2.66757 0
M  V30 6622 H 641.994 0.60544 -1.50153 0
M  V30 6623 H 643.986 3.68944 -1.66321 0
M  V30 6624 H 642.556 3.00895 -0.847418 0
M  V30 6625 H 641.776 2.27203 -3.22137 0
M  V30 6626 H 643.064 3.30213 -3.87088 0
M  V30 6627 H 642.462 5.44823 -1.52265 0
M  V30 6628 H 641.019 6.16308 -2.1215 0
M  V30 6629 N 644.452 1.42507 0.673017 0
M  V30 6630 C 645.698 1.43284 1.43519 0
M  V30 6631 C 646.031 0.049668 1.94136 0
M  V30 6632 O 645.306 -0.926369 1.71022 0
M  V30 6633 C 645.589 2.45874 2.63093 0
M  V30 6634 C 645.442 3.93388 2.18096 0
M  V30 6635 C 646.761 2.45431 3.6531 0
M  V30 6636 H 643.88 0.521752 0.520522 0
M  V30 6637 H 646.522 1.73932 0.764701 0
M  V30 6638 H 644.672 2.19869 3.20296 0
M  V30 6639 H 646.344 4.30379 1.66046 0
M  V30 6640 H 644.587 4.07169 1.49652 0
M  V30 6641 H 645.258 4.60752 3.03993 0
M  V30 6642 H 647.734 2.68561 3.17827 0
M  V30 6643 H 646.61 3.19189 4.46553 0
M  V30 6644 H 646.871 1.48092 4.16559 0
M  V30 6645 N 645.93 -0.909495 1.28709 0
M  V30 6646 C 647.16 -1.69027 1.188 0
M  V30 6647 C 647.568 -1.87469 -0.255329 0
M  V30 6648 O 646.911 -1.40458 -1.18394 0
M  V30 6649 C 646.973 -3.10064 1.81936 0
M  V30 6650 C 646.637 -3.14891 3.31199 0
M  V30 6651 C 647.634 -2.95768 4.27571 0
M  V30 6652 C 645.319 -3.37269 3.7223 0
M  V30 6653 C 647.313 -2.98942 5.6295 0
M  V30 6654 C 645 -3.40074 5.07733 0
M  V30 6655 C 645.998 -3.20932 6.02903 0
M  V30 6656 O 645.686 -3.23507 7.35934 0
M  V30 6657 H 645.418 -0.535014 0.413203 0
M  V30 6658 H 647.972 -1.14645 1.70428 0
M  V30 6659 H 646.202 -3.66005 1.24808 0
M  V30 6660 H 647.891 -3.70185 1.66486 0
M  V30 6661 H 648.657 -2.78302 3.97206 0
M  V30 6662 H 644.536 -3.51212 2.98615 0
M  V30 6663 H 648.08 -2.83919 6.37209 0
M  V30 6664 H 643.977 -3.5707 5.37747 0
M  V30 6665 H 644.745 -3.3984 7.44615 0
M  V30 6666 N 647.408 -1.11026 -1.11852 0
M  V30 6667 C 648.654 -0.867633 -1.83967 0
M  V30 6668 C 649.009 0.600309 -1.82795 0
M  V30 6669 O 648.302 1.43731 -1.26696 0
M  V30 6670 C 648.496 -1.35777 -3.30604 0
M  V30 6671 C 648.325 -2.87183 -3.46058 0
M  V30 6672 C 647.095 -3.55256 -3.59334 0
M  V30 6673 C 649.293 -3.85258 -3.40706 0
M  V30 6674 N 647.275 -4.94923 -3.63215 0
M  V30 6675 C 648.646 -5.1097 -3.51155 0
M  V30 6676 C 650.701 -3.77879 -3.2421 0
M  V30 6677 C 649.404 -6.30171 -3.46809 0
M  V30 6678 C 651.43 -4.96586 -3.2118 0
M  V30 6679 C 650.792 -6.21149 -3.32196 0
M  V30 6680 H 646.891 -0.370574 -0.688621 0
M  V30 6681 H 649.475 -1.41379 -1.33865 0
M  V30 6682 H 647.646 -0.83885 -3.79233 0
M  V30 6683 H 649.378 -1.05874 -3.90606 0
M  V30 6684 H 646.133 -3.05714 -3.61713 0
M  V30 6685 H 646.557 -5.67726 -3.68804 0
M  V30 6686 H 651.199 -2.82485 -3.14582 0
M  V30 6687 H 648.917 -7.25847 -3.55206 0
M  V30 6688 H 652.503 -4.92591 -3.09589 0
M  V30 6689 H 651.383 -7.11463 -3.29834 0
M  V30 6690 N 648.886 1.2938 -0.899927 0
M  V30 6691 C 650.111 2.00228 -0.540692 0
M  V30 6692 C 650.536 1.66909 0.867359 0
M  V30 6693 O 649.894 0.893824 1.57735 0
M  V30 6694 C 649.942 3.52921 -0.740232 0
M  V30 6695 O 649.046 4.11879 0.207154 0
M  V30 6696 H 648.387 0.629505 -0.211233 0
M  V30 6697 H 650.917 1.6487 -1.21158 0
M  V30 6698 H 650.927 4.0287 -0.644973 0
M  V30 6699 H 649.602 3.76508 -1.76677 0
M  V30 6700 H 648.179 3.72845 0.0643315 0
M  V30 6701 N 650.364 0.662433 1.43002 0
M  V30 6702 C 651.294 -0.00979809 2.33498 0
M  V30 6703 C 652.275 -0.802329 1.49989 0
M  V30 6704 O 653.46 -0.761964 1.78627 0
M  V30 6705 C 650.59 -0.970446 3.33466 0
M  V30 6706 C 649.544 -0.287383 4.27034 0
M  V30 6707 C 648.87 -1.36012 5.17112 0
M  V30 6708 C 650.17 0.82595 5.15728 0
M  V30 6709 H 651.864 0.745959 2.89958 0
M  V30 6710 H 649.41 0.360172 1.39423 0
M  V30 6711 H 651.363 -1.44971 3.95679 0
M  V30 6712 H 650.087 -1.75748 2.75282 0
M  V30 6713 H 648.746 0.17152 3.66199 0
M  V30 6714 H 648.394 -2.13882 4.55262 0
M  V30 6715 H 648.094 -0.908276 5.80538 0
M  V30 6716 H 649.618 -1.84056 5.82199 0
M  V30 6717 H 651.032 0.42845 5.71697 0
M  V30 6718 H 649.429 1.20282 5.87922 0
M  V30 6719 H 650.499 1.68003 4.54866 0
M  V30 6720 N 651.842 -1.52309 0.404946 0
M  V30 6721 C 653.253 -1.86585 -0.0655926 0
M  V30 6722 C 653.604 -1.3239 -1.44801 0
M  V30 6723 O 652.729 -0.6615 -2.06042 0
M  V30 6724 C 653.324 -3.38566 -0.125801 0
M  V30 6725 C 651.883 -3.72497 -0.540666 0
M  V30 6726 C 651.03 -2.75806 0.287487 0
M  V30 6727 H 653.981 -1.45995 0.622185 0
M  V30 6728 H 654.002 -3.68658 -0.941888 0
M  V30 6729 H 653.514 -3.77981 0.880473 0
M  V30 6730 H 651.615 -3.38659 -1.55373 0
M  V30 6731 H 651.728 -4.78234 -0.287956 0
M  V30 6732 H 650.092 -2.53474 -0.249561 0
M  V30 6733 H 650.875 -3.18059 1.29203 0
M  V30 6734 N 653.32 -0.135238 -1.57019 0
M  V30 6735 C 654.597 0.563227 -1.87316 0
M  V30 6736 C 654.977 1.83749 -1.03921 0
M  V30 6737 O 654.325 2.2817 -0.122675 0
M  V30 6738 C 654.535 0.840031 -3.3874 0
M  V30 6739 C 655.883 1.18598 -4.077 0
M  V30 6740 O 656.907 0.92977 -3.43851 0
M  V30 6741 O 655.766 1.66758 -5.20436 0
M  V30 6742 H 652.86 0.285971 -0.775983 0
M  V30 6743 H 655.406 -0.170965 -1.68837 0
M  V30 6744 H 654.178 -0.0622785 -3.9125 0
M  V30 6745 H 653.801 1.62882 -3.62706 0
M  V30 6746 N 654.798 1.5699 0.138552 0
M  V30 6747 C 655.731 1.94064 1.2006 0
M  V30 6748 C 656.709 0.807601 1.41126 0
M  V30 6749 O 657.893 1.06399 1.556 0
M  V30 6750 C 655.02 2.21999 2.55801 0
M  V30 6751 C 654.066 3.44617 2.5128 0
M  V30 6752 S 654.899 4.97888 1.97149 0
M  V30 6753 C 656.055 5.28954 3.34602 0
M  V30 6754 H 656.288 2.83843 0.884337 0
M  V30 6755 H 653.821 1.50507 0.344517 0
M  V30 6756 H 655.779 2.38772 3.33914 0
M  V30 6757 H 654.44 1.32869 2.84613 0
M  V30 6758 H 653.633 3.61466 3.51224 0
M  V30 6759 H 653.235 3.27129 1.8128 0
M  V30 6760 H 655.527 5.22938 4.30745 0
M  V30 6761 H 656.47 6.30346 3.22598 0
M  V30 6762 H 656.878 4.56455 3.32128 0
M  V30 6763 N 656.276 -0.40816 1.52223 0
M  V30 6764 C 657.209 -1.51834 1.70357 0
M  V30 6765 C 658.187 -1.52973 0.551171 0
M  V30 6766 O 659.371 -1.71667 0.778642 0
M  V30 6767 C 656.498 -2.90362 1.74378 0
M  V30 6768 C 655.544 -3.0713 2.95928 0
M  V30 6769 S 656.377 -2.80342 4.56255 0
M  V30 6770 C 657.533 -4.21098 4.63063 0
M  V30 6771 H 657.766 -1.36223 2.64255 0
M  V30 6772 H 655.299 -0.599798 1.42274 0
M  V30 6773 H 657.257 -3.70199 1.77379 0
M  V30 6774 H 655.918 -3.03314 0.816063 0
M  V30 6775 H 655.111 -4.08482 2.95226 0
M  V30 6776 H 654.713 -2.3516 2.90819 0
M  V30 6777 H 657.005 -5.14749 4.40499 0
M  V30 6778 H 657.948 -4.26823 5.65002 0
M  V30 6779 H 658.356 -4.06114 3.92086 0
M  V30 6780 N 657.755 -1.42862 -0.66545 0
M  V30 6781 C 658.687 -1.43026 -1.79098 0
M  V30 6782 C 659.7 -0.32803 -1.59461 0
M  V30 6783 O 660.889 -0.591709 -1.68407 0
M  V30 6784 C 657.989 -1.21566 -3.16346 0
M  V30 6785 C 657.162 -2.44399 -3.62751 0
M  V30 6786 C 656.221 -2.18344 -4.78761 0
M  V30 6787 O 655.247 -2.91611 -4.88827 0
M  V30 6788 N 656.449 -1.1924 -5.68122 0
M  V30 6789 H 659.214 -2.40045 -1.79439 0
M  V30 6790 H 656.775 -1.37861 -0.848872 0
M  V30 6791 H 658.767 -1.02037 -3.91625 0
M  V30 6792 H 657.337 -0.330368 -3.10849 0
M  V30 6793 H 656.557 -2.79433 -2.78048 0
M  V30 6794 H 657.845 -3.26173 -3.90498 0
M  V30 6795 H 657.243 -0.586603 -5.6265 0
M  V30 6796 H 655.8 -1.05698 -6.43173 0
M  V30 6797 N 659.233 0.902656 -1.29189 0
M  V30 6798 C 660.51 1.63296 -1.07674 0
M  V30 6799 C 660.89 2.07649 0.380137 0
M  V30 6800 O 660.238 1.82997 1.36837 0
M  V30 6801 C 660.448 2.81603 -2.06158 0
M  V30 6802 C 661.796 3.52359 -2.36914 0
M  V30 6803 O 662.82 2.91767 -2.04329 0
M  V30 6804 O 661.679 4.61586 -2.92576 0
M  V30 6805 H 658.773 0.716889 -0.41231 0
M  V30 6806 H 661.319 0.950984 -1.4055 0
M  V30 6807 H 660.091 2.46004 -3.04299 0
M  V30 6808 H 659.714 3.57508 -1.73993 0
M  V30 6809 N 660.711 1.11618 1.11262 0
M  V30 6810 C 662.122 0.881942 1.64556 0
M  V30 6811 C 662.473 -0.585442 1.87262 0
M  V30 6812 O 661.598 -1.44795 1.60821 0
M  V30 6813 C 662.193 1.59446 2.98935 0
M  V30 6814 C 660.752 1.40661 3.4913 0
M  V30 6815 C 659.899 1.63593 2.23903 0
M  V30 6816 H 662.85 1.27217 0.94877 0
M  V30 6817 H 662.871 1.04054 3.65996 0
M  V30 6818 H 662.383 2.66241 2.82378 0
M  V30 6819 H 660.484 0.360835 3.70849 0
M  V30 6820 H 660.597 2.15693 4.27801 0
M  V30 6821 H 658.961 1.05944 2.3162 0
M  V30 6822 H 659.744 2.71666 2.09886 0
M  V30 6823 N 662.189 -1.289 0.906776 0
M  V30 6824 C 663.435 -1.95558 0.53712 0
M  V30 6825 C 663.768 -1.71262 -0.915582 0
M  V30 6826 O 663.043 -1.02961 -1.65013 0
M  V30 6827 C 663.326 -3.50198 0.838645 0
M  V30 6828 C 663.179 -3.83923 2.34357 0
M  V30 6829 C 664.498 -4.38861 0.329988 0
M  V30 6830 H 661.617 -0.710289 0.196617 0
M  V30 6831 H 664.259 -1.52392 1.13475 0
M  V30 6832 H 662.409 -3.87096 0.330024 0
M  V30 6833 H 664.081 -3.56933 2.92227 0
M  V30 6834 H 662.324 -3.31215 2.80141 0
M  V30 6835 H 662.995 -4.91883 2.5051 0
M  V30 6836 H 665.471 -4.08996 0.765609 0
M  V30 6837 H 664.347 -5.45931 0.570105 0
M  V30 6838 H 664.608 -4.35352 -0.769511 0
M  V30 6839 N 663.667 -0.670007 -1.42649 0
M  V30 6840 C 664.895 -0.19854 -2.05945 0
M  V30 6841 C 665.31 1.14243 -1.50313 0
M  V30 6842 O 664.667 1.70872 -0.641027 0
M  V30 6843 C 664.718 -0.11966 -3.61302 0
M  V30 6844 O 664.439 -1.40764 -4.1487 0
M  V30 6845 C 665.94 0.375878 -4.41704 0
M  V30 6846 H 663.16 -0.0976894 -0.663851 0
M  V30 6847 H 665.704 -0.915392 -1.82868 0
M  V30 6848 H 663.859 0.547851 -3.83507 0
M  V30 6849 H 664.273 -1.27784 -5.08696 0
M  V30 6850 H 665.747 0.379988 -5.50691 0
M  V30 6851 H 666.224 1.41028 -4.15942 0
M  V30 6852 H 666.83 -0.259727 -4.24506 0
M  V30 6853 N 665.145 1.52092 -0.413018 0
M  V30 6854 C 666.392 2.01855 0.161497 0
M  V30 6855 C 666.72 1.29845 1.44812 0
M  V30 6856 O 665.975 0.394471 1.91683 0
M  V30 6857 C 666.274 3.54529 0.4521 0
M  V30 6858 C 665.94 4.4469 -0.745788 0
M  V30 6859 C 664.602 4.69053 -1.07435 0
M  V30 6860 C 666.954 4.97742 -1.54604 0
M  V30 6861 C 664.282 5.43717 -2.20429 0
M  V30 6862 C 666.634 5.73642 -2.66678 0
M  V30 6863 C 665.298 5.96277 -3.00016 0
M  V30 6864 H 664.568 0.73864 0.0590961 0
M  V30 6865 H 667.215 1.83274 -0.555234 0
M  V30 6866 H 665.52 3.7131 1.25045 0
M  V30 6867 H 667.217 3.90546 0.909647 0
M  V30 6868 H 663.807 4.25907 -0.479725 0
M  V30 6869 H 667.991 4.78824 -1.30543 0
M  V30 6870 H 663.247 5.59462 -2.46602 0
M  V30 6871 H 667.421 6.13746 -3.29072 0
M  V30 6872 H 665.048 6.53913 -3.87688 0
M  V30 6873 N 666.623 0.143563 1.56945 0
M  V30 6874 C 668.039 -0.212877 1.58174 0
M  V30 6875 C 668.239 -1.64926 1.15766 0
M  V30 6876 O 667.295 -2.37535 0.856361 0
M  V30 6877 C 668.608 0.0427573 3.0067 0
M  V30 6878 C 670.156 -0.0212221 3.12993 0
M  V30 6879 C 670.631 0.207036 4.57532 0
M  V30 6880 N 672.122 0.153845 4.62944 0
M  V30 6881 C 672.857 0.305018 5.72588 0
M  V30 6882 N 672.353 0.513722 6.90893 0
M  V30 6883 N 674.146 0.242862 5.61575 0
M  V30 6884 H 666.297 1.08148 1.82805 0
M  V30 6885 H 668.56 0.427831 0.84597 0
M  V30 6886 H 668.266 1.03672 3.36073 0
M  V30 6887 H 668.14 -0.678195 3.71053 0
M  V30 6888 H 670.527 -1.00574 2.77433 0
M  V30 6889 H 670.608 0.732004 2.45103 0
M  V30 6890 H 670.252 1.18863 4.93795 0
M  V30 6891 H 670.182 -0.566473 5.23544 0
M  V30 6892 H 672.673 -0.00294866 3.779 0
M  V30 6893 H 672.986 0.619273 7.70315 0
M  V30 6894 H 671.331 0.550001 6.9282 0
M  V30 6895 H 674.522 0.0806015 4.68031 0
M  V30 6896 H 674.695 0.364112 6.46976 0
M  V30 6897 N 668.101 -1.57061 -0.130224 0
M  V30 6898 C 669.326 -1.88802 -0.858409 0
M  V30 6899 C 669.751 -0.734353 -1.73173 0
M  V30 6900 O 669.109 0.315529 -1.78533 0
M  V30 6901 C 669.157 -3.19228 -1.67708 0
M  V30 6902 O 668.261 -3.04343 -2.78297 0
M  V30 6903 H 667.602 -0.619849 -0.238083 0
M  V30 6904 H 670.132 -2.04271 -0.115995 0
M  V30 6905 H 670.142 -3.51669 -2.06864 0
M  V30 6906 H 668.817 -4.02793 -1.0359 0
M  V30 6907 H 667.394 -2.83346 -2.42425 0
M  V30 6908 N 669.579 0.400081 -1.52437 0
M  V30 6909 C 670.807 1.16768 -1.70801 0
M  V30 6910 C 671.222 1.84036 -0.421462 0
M  V30 6911 O 670.579 1.72242 0.603228 0
M  V30 6912 C 670.63 2.22403 -2.8499 0
M  V30 6913 O 670.351 1.57879 -4.08663 0
M  V30 6914 C 671.852 3.11974 -3.1494 0
M  V30 6915 H 669.072 0.350533 -0.57216 0
M  V30 6916 H 671.616 0.469534 -1.99037 0
M  V30 6917 H 669.771 2.87871 -2.59247 0
M  V30 6918 H 670.185 2.27982 -4.7236 0
M  V30 6919 H 671.659 3.82148 -3.9833 0
M  V30 6920 H 672.136 3.74858 -2.28863 0
M  V30 6921 H 672.742 2.52165 -3.42481 0
M  V30 6922 N 671.057 1.43213 0.657864 0
M  V30 6923 C 672.282 1.48227 1.45064 0
M  V30 6924 C 672.707 0.0999939 1.87834 0
M  V30 6925 O 672.065 -0.905269 1.57081 0
M  V30 6926 C 672.113 2.42931 2.6649 0
M  V30 6927 O 671.217 1.91237 3.6538 0
M  V30 6928 H 670.558 0.501551 0.435135 0
M  V30 6929 H 673.088 1.8808 0.805431 0
M  V30 6930 H 673.098 2.6008 3.1436 0
M  V30 6931 H 671.773 3.43348 2.34701 0
M  V30 6932 H 670.35 1.83726 3.24498 0
M  V30 6933 N 672.536 -0.895792 1.29666 0
M  V30 6934 C 673.468 -2.00563 1.10937 0
M  V30 6935 C 674.481 -1.62705 0.055734 0
M  V30 6936 O 675.67 -1.7595 0.300656 0
M  V30 6937 C 672.77 -3.32262 0.667448 0
M  V30 6938 C 671.943 -3.98625 1.80047 0
M  V30 6939 C 671.002 -5.08617 1.3489 0
M  V30 6940 O 670.028 -5.30837 2.05429 0
M  V30 6941 N 671.23 -5.80076 0.221937 0
M  V30 6942 H 673.995 -2.17184 2.06522 0
M  V30 6943 H 671.556 -1.06822 1.21658 0
M  V30 6944 H 673.548 -4.03196 0.348586 0
M  V30 6945 H 672.118 -3.11985 -0.196055 0
M  V30 6946 H 671.338 -3.21005 2.28801 0
M  V30 6947 H 672.626 -4.39704 2.56003 0
M  V30 6948 H 672.024 -5.64514 -0.366084 0
M  V30 6949 H 670.581 -6.51789 -0.0375346 0
M  V30 6950 N 674.014 -1.12206 -1.10668 0
M  V30 6951 C 675.263 -0.870595 -1.81944 0
M  V30 6952 C 675.576 0.605447 -1.85994 0
M  V30 6953 O 676.782 0.973433 -2.53449 0
M  V30 6954 C 675.238 -1.50783 -3.26791 0
M  V30 6955 C 674.846 -3.01849 -3.31046 0
M  V30 6956 C 676.59 -1.33653 -4.02911 0
M  V30 6957 C 674.497 -3.58518 -4.70339 0
M  V30 6958 H 673.427 -0.322043 -0.681765 0
M  V30 6959 H 676.078 -1.34827 -1.24475 0
M  V30 6960 H 674.46 -0.957825 -3.84242 0
M  V30 6961 H 675.634 -3.63321 -2.83433 0
M  V30 6962 H 673.949 -3.18346 -2.68411 0
M  V30 6963 H 676.546 -1.73416 -5.05797 0
M  V30 6964 H 676.889 -0.279949 -4.15358 0
M  V30 6965 H 677.422 -1.85562 -3.51868 0
M  V30 6966 H 674.161 -4.63925 -4.63091 0
M  V30 6967 H 673.681 -3.01819 -5.18329 0
M  V30 6968 H 675.36 -3.57434 -5.39305 0
M  V30 6969 N 675.492 1.28418 -0.913599 0
M  V30 6970 C 676.717 1.99643 -0.561899 0
M  V30 6971 C 677.142 1.67819 0.849608 0
M  V30 6972 O 676.5 0.910503 1.56779 0
M  V30 6973 C 676.548 3.52116 -0.777622 0
M  V30 6974 O 675.652 4.12076 0.163457 0
M  V30 6975 H 674.993 0.627229 -0.217898 0
M  V30 6976 H 677.523 1.63575 -1.229 0
M  V30 6977 H 677.533 4.02163 -0.687666 0
M  V30 6978 H 676.208 3.74613 -1.8066 0
M  V30 6979 H 674.785 3.72892 0.0247827 0
M  V30 6980 N 676.97 0.677563 1.42291 0
M  V30 6981 C 677.918 -0.0106755 2.32598 0
M  V30 6982 C 678.912 -0.787643 1.49975 0
M  V30 6983 O 680.118 -0.695295 1.66029 0
M  V30 6984 H 676.493 -0.0222482 0.751671 0
M  V30 6985 H 678.464 0.768312 2.88339 0
M  V30 6986 C 677.213 -0.946142 3.3458 0
M  V30 6987 H 676.536 -0.357701 3.98197 0
M  V30 6988 H 677.976 -1.39634 4.00348 0
M  V30 6989 C 676.435 -2.05383 2.67057 0
M  V30 6990 O 676.965 -3.1406 2.50458 0
M  V30 6991 N 675.171 -1.82635 2.26038 0
M  V30 6992 H 674.718 -0.942534 2.39737 0
M  V30 6993 H 674.676 -2.56937 1.81192 0
M  V30 6994 N 678.448 -1.51871 0.421078 0
M  V30 6995 C 679.695 -2.01938 -0.15079 0
M  V30 6996 C 680.023 -1.30611 -1.44121 0
M  V30 6997 O 679.278 -0.404631 -1.91471 0
M  V30 6998 C 679.577 -3.54764 -0.433292 0
M  V30 6999 C 679.243 -4.44288 0.76936 0
M  V30 7000 C 677.905 -4.68477 1.09921 0
M  V30 7001 C 680.257 -4.96915 1.57242 0
M  V30 7002 C 677.585 -5.4254 2.2331 0
M  V30 7003 C 679.937 -5.7222 2.69716 0
M  V30 7004 C 678.601 -5.94678 3.03174 0
M  V30 7005 H 677.871 -0.738943 -0.0551781 0
M  V30 7006 H 680.518 -1.82977 0.564945 0
M  V30 7007 H 678.823 -3.71968 -1.23074 0
M  V30 7008 H 680.52 -3.91023 -0.888922 0
M  V30 7009 H 677.11 -4.25646 0.502305 0
M  V30 7010 H 681.294 -4.78125 1.3308 0
M  V30 7011 H 676.55 -5.58146 2.49565 0
M  V30 7012 H 680.724 -6.11992 3.32323 0
M  V30 7013 H 678.351 -6.51848 3.9115 0
M  V30 7014 N 679.926 -0.151884 -1.56866 0
M  V30 7015 C 681.337 0.368128 -1.83035 0
M  V30 7016 C 681.688 1.64402 -1.07082 0
M  V30 7017 O 680.813 2.14056 -0.317647 0
M  V30 7018 C 681.408 0.674676 -3.32014 0
M  V30 7019 C 679.967 1.13919 -3.58747 0
M  V30 7020 C 679.114 0.164833 -2.7681 0
M  V30 7021 H 682.065 -0.376499 -1.54169 0
M  V30 7022 H 682.086 1.52883 -3.48435 0
M  V30 7023 H 681.598 -0.254113 -3.87267 0
M  V30 7024 H 679.699 2.08375 -3.08886 0
M  V30 7025 H 679.812 1.06179 -4.67186 0
M  V30 7026 H 678.176 0.658419 -2.46043 0
M  V30 7027 H 678.959 -0.757633 -3.34836 0
M  V30 7028 N 681.404 1.57128 0.121893 0
M  V30 7029 C 682.65 1.84974 0.831418 0
M  V30 7030 C 682.983 0.737204 1.79663 0
M  V30 7031 O 682.258 -0.257199 1.92792 0
M  V30 7032 C 682.541 3.23397 1.58386 0
M  V30 7033 C 682.394 4.45246 0.638445 0
M  V30 7034 C 683.713 3.59355 2.54071 0
M  V30 7035 H 680.832 0.67282 0.300803 0
M  V30 7036 H 683.474 1.89759 0.0957587 0
M  V30 7037 H 681.624 3.19449 2.21098 0
M  V30 7038 H 683.296 4.61295 0.0203925 0
M  V30 7039 H 681.539 4.33771 -0.05023 0
M  V30 7040 H 682.21 5.38765 1.20151 0
M  V30 7041 H 684.686 3.64075 2.01465 0
M  V30 7042 H 683.562 4.57193 3.03752 0
M  V30 7043 H 683.823 2.86622 3.36601 0
M  V30 7044 N 682.882 -0.391992 1.52647 0
M  V30 7045 C 684.128 -1.139 1.67793 0
M  V30 7046 C 684.461 -1.89711 0.41514 0
M  V30 7047 O 683.736 -1.85431 -0.586979 0
M  V30 7048 C 684.019 -2.11966 2.91105 0
M  V30 7049 C 683.872 -1.39939 4.27478 0
M  V30 7050 C 685.191 -3.1243 3.09961 0
M  V30 7051 H 682.31 -0.412707 0.610608 0
M  V30 7052 H 684.952 -0.422725 1.85238 0
M  V30 7053 H 683.102 -2.73048 2.76364 0
M  V30 7054 H 684.774 -0.818439 4.53982 0
M  V30 7055 H 683.017 -0.701246 4.28095 0
M  V30 7056 H 683.688 -2.1158 5.09841 0
M  V30 7057 H 686.164 -2.61435 3.23714 0
M  V30 7058 H 685.04 -3.78294 3.97725 0
M  V30 7059 H 685.301 -3.81127 2.24042 0
M  V30 7060 N 684.36 -1.4356 -0.65026 0
M  V30 7061 C 685.608 -1.45046 -1.40734 0
M  V30 7062 C 685.929 -0.0769822 -1.94848 0
M  V30 7063 O 685.199 0.888098 -1.74613 0
M  V30 7064 H 683.779 -0.534034 -0.522318 0
M  V30 7065 H 686.441 -1.79186 -0.766703 0
M  V30 7066 H 685.537 -2.16476 -2.24822 0
M  V30 7067 N 685.838 0.888903 -1.30139 0
M  V30 7068 C 686.801 1.97576 -1.16174 0
M  V30 7069 C 687.801 1.60525 -0.094086 0
M  V30 7070 O 688.991 1.70812 -0.341889 0
M  V30 7071 C 686.123 3.3188 -0.778983 0
M  V30 7072 H 687.316 2.11393 -2.12728 0
M  V30 7073 H 684.869 1.0748 -1.1348 0
M  V30 7074 H 685.604 3.23765 0.186225 0
M  V30 7075 H 685.389 3.60141 -1.55051 0
M  V30 7076 H 686.879 4.11612 -0.704631 0
M  V30 7077 N 687.317 1.12792 1.10072 0
M  V30 7078 C 688.227 0.812369 2.20086 0
M  V30 7079 C 689.243 -0.200349 1.72843 0
M  V30 7080 O 690.419 -0.0330262 2.01373 0
M  V30 7081 C 687.484 0.275685 3.45602 0
M  V30 7082 C 686.545 1.34881 4.07561 0
M  V30 7083 C 685.778 0.837639 5.27086 0
M  V30 7084 O 686.001 -0.327224 5.69461 0
M  V30 7085 O 684.935 1.60894 5.79997 0
M  V30 7086 H 688.761 1.73133 2.49517 0
M  V30 7087 H 686.346 0.904863 1.18881 0
M  V30 7088 H 688.228 -0.0185375 4.21396 0
M  V30 7089 H 686.903 -0.615783 3.17789 0
M  V30 7090 H 685.81 1.69625 3.33434 0
M  V30 7091 H 687.143 2.21418 4.39585 0
M  V30 7092 N 688.795 -1.27931 0.920396 0
M  V30 7093 C 689.725 -2.29487 0.431024 0
M  V30 7094 C 690.706 -1.62435 -0.504861 0
M  V30 7095 O 691.891 -1.89797 -0.411176 0
M  V30 7096 C 689.021 -3.45788 -0.323709 0
M  V30 7097 C 687.975 -4.24784 0.523658 0
M  V30 7098 C 687.301 -5.33488 -0.359809 0
M  V30 7099 C 688.601 -4.90874 1.78437 0
M  V30 7100 H 690.295 -2.70671 1.27975 0
M  V30 7101 H 687.841 -1.30121 0.616813 0
M  V30 7102 H 689.794 -4.15927 -0.676952 0
M  V30 7103 H 688.518 -3.03502 -1.2064 0
M  V30 7104 H 687.177 -3.56382 0.85951 0
M  V30 7105 H 686.825 -4.87445 -1.24124 0
M  V30 7106 H 686.525 -5.87247 0.203605 0
M  V30 7107 H 688.049 -6.06472 -0.708787 0
M  V30 7108 H 689.463 -5.53339 1.49963 0
M  V30 7109 H 687.86 -5.54659 2.29071 0
M  V30 7110 H 688.93 -4.14988 2.50824 0
M  V30 7111 N 690.273 -0.685099 -1.4193 0
M  V30 7112 C 691.203 -0.0273506 -2.33484 0
M  V30 7113 C 692.184 0.778366 -1.51246 0
M  V30 7114 O 693.369 0.733449 -1.79817 0
M  V30 7115 C 690.499 0.917272 -3.34968 0
M  V30 7116 C 689.453 0.21941 -4.27437 0
M  V30 7117 C 688.779 1.27768 -5.1921 0
M  V30 7118 C 690.079 -0.907894 -5.14349 0
M  V30 7119 H 691.773 -0.791994 -2.88735 0
M  V30 7120 H 689.319 -0.382308 -1.38832 0
M  V30 7121 H 691.272 1.38657 -3.97935 0
M  V30 7122 H 689.996 1.71346 -2.78043 0
M  V30 7123 H 688.655 -0.229757 -3.65879 0
M  V30 7124 H 688.303 2.06612 -4.58607 0
M  V30 7125 H 688.003 0.815803 -5.81909 0
M  V30 7126 H 689.527 1.7477 -5.85054 0
M  V30 7127 H 690.941 -0.519348 -5.70943 0
M  V30 7128 H 689.338 -1.2962 -5.85934 0
M  V30 7129 H 690.408 -1.75218 -4.52136 0
M  V30 7130 N 691.751 1.51645 -0.429126 0
M  V30 7131 C 693.162 1.86665 0.0359003 0
M  V30 7132 C 693.513 1.34677 1.42676 0
M  V30 7133 O 692.638 0.694195 2.04963 0
M  V30 7134 C 693.233 3.38724 0.0719221 0
M  V30 7135 C 691.792 3.7331 0.481336 0
M  V30 7136 C 690.939 2.75313 -0.331329 0
M  V30 7137 H 693.89 1.44987 -0.645333 0
M  V30 7138 H 693.911 3.7011 0.883118 0
M  V30 7139 H 693.423 3.76532 -0.940495 0
M  V30 7140 H 691.524 3.41088 1.49966 0
M  V30 7141 H 691.637 4.78631 0.211837 0
M  V30 7142 H 690.001 2.53839 0.209204 0
M  V30 7143 H 690.784 3.15963 -1.34247 0
M  V30 7144 N 693.229 0.160201 1.56784 0
M  V30 7145 C 694.475 -0.48831 1.96833 0
M  V30 7146 C 694.808 -1.63641 1.04571 0
M  V30 7147 O 694.083 -1.94289 0.0906481 0
M  V30 7148 C 694.366 -0.981908 3.46454 0
M  V30 7149 C 694.219 0.165607 4.49495 0
M  V30 7150 C 695.538 -1.85931 3.98896 0
M  V30 7151 H 692.657 -0.176027 0.71567 0
M  V30 7152 H 695.299 0.244093 1.88426 0
M  V30 7153 H 693.449 -1.60602 3.5375 0
M  V30 7154 H 695.121 0.802372 4.54268 0
M  V30 7155 H 693.364 0.822789 4.25926 0
M  V30 7156 H 694.035 -0.221699 5.51555 0
M  V30 7157 H 696.511 -1.33327 3.94161 0
M  V30 7158 H 695.387 -2.17373 5.04024 0
M  V30 7159 H 695.648 -2.80106 3.42042 0
M  V30 7160 N 694.707 -1.5719 -0.113559 0
M  V30 7161 C 695.657 -1.97166 -1.14497 0
M  V30 7162 C 696.641 -0.847413 -1.36776 0
M  V30 7163 O 697.833 -1.11114 -1.37777 0
M  V30 7164 C 694.962 -2.38411 -2.47013 0
M  V30 7165 C 694.048 -3.5748 -2.28185 0
M  V30 7166 N 694.439 -4.72998 -1.79182 0
M  V30 7167 C 692.737 -3.63218 -2.58821 0
M  V30 7168 C 693.438 -5.55007 -1.74191 0
M  V30 7169 N 692.414 -4.9765 -2.18735 0
M  V30 7170 H 696.216 -2.83937 -0.758733 0
M  V30 7171 H 693.73 -1.59191 -0.321234 0
M  V30 7172 H 695.727 -2.65269 -3.21618 0
M  V30 7173 H 694.387 -1.53007 -2.8639 0
M  V30 7174 H 695.398 -4.96109 -1.48649 0
M  V30 7175 H 692.075 -2.88434 -3.01847 0
M  V30 7176 H 693.465 -6.57678 -1.37512 0
M  V30 7177 N 696.185 0.383891 -1.52853 0
M  V30 7178 C 697.41 1.154 -1.7233 0
M  V30 7179 C 697.835 1.82809 -0.44298 0
M  V30 7180 O 697.193 1.71026 0.601645 0
M  V30 7181 C 697.241 2.17386 -2.87708 0
M  V30 7182 O 696.345 3.24082 -2.55038 0
M  V30 7183 H 695.686 0.335709 -0.572883 0
M  V30 7184 H 698.216 0.44662 -1.99666 0
M  V30 7185 H 698.226 2.61296 -3.1335 0
M  V30 7186 H 696.901 1.6771 -3.80587 0
M  V30 7187 H 695.478 2.85273 -2.40153 0
M  V30 7188 N 697.663 1.43903 0.642637 0
M  V30 7189 C 698.61 1.49881 1.75512 0
M  V30 7190 C 699.58 0.347538 1.62423 0
M  V30 7191 O 700.765 0.556177 1.82514 0
M  V30 7192 C 697.905 1.43797 3.13714 0
M  V30 7193 C 697.018 2.6921 3.37861 0
M  V30 7194 C 696.153 2.5504 4.6597 0
M  V30 7195 C 695.192 3.75671 4.83257 0
M  V30 7196 N 694.329 3.60247 6.02633 0
M  V30 7197 H 699.169 2.44935 1.69737 0
M  V30 7198 H 696.706 1.21572 0.828165 0
M  V30 7199 H 698.664 1.38262 3.93624 0
M  V30 7200 H 697.294 0.523173 3.18532 0
M  V30 7201 H 696.346 2.8498 2.51973 0
M  V30 7202 H 697.658 3.58786 3.46517 0
M  V30 7203 H 696.812 2.47273 5.54023 0
M  V30 7204 H 695.551 1.63006 4.59653 0
M  V30 7205 H 694.556 3.83836 3.93637 0
M  V30 7206 H 695.781 4.68728 4.91397 0
M  V30 7207 H 693.727 2.70955 5.97427 0
M  V30 7208 H 693.644 4.43431 6.12295 0
M  V30 7209 H 694.912 3.56351 6.93278 0
M  V30 7210 N 699.141 -0.881989 1.30609 0
M  V30 7211 C 700.366 -1.67236 1.22665 0
M  V30 7212 C 700.791 -1.8696 -0.206777 0
M  V30 7213 O 700.149 -1.4027 -1.14865 0
M  V30 7214 C 700.197 -3.02446 1.96363 0
M  V30 7215 O 699.301 -3.91614 1.29276 0
M  V30 7216 H 698.642 -0.510902 0.424117 0
M  V30 7217 H 701.172 -1.10055 1.72479 0
M  V30 7218 H 701.182 -3.52468 2.055 0
M  V30 7219 H 699.857 -2.8741 3.00613 0
M  V30 7220 H 698.434 -3.50055 1.28514 0
M  V30 7221 N 700.619 -1.13374 -1.09472 0
M  V30 7222 C 701.866 -0.89519 -1.81639 0
M  V30 7223 C 702.194 0.57868 -1.85692 0
M  V30 7224 O 701.449 1.44426 -1.32059 0
M  V30 7225 C 701.748 -1.42759 -3.2765 0
M  V30 7226 C 701.414 -2.91822 -3.43731 0
M  V30 7227 C 700.076 -3.32521 -3.47827 0
M  V30 7228 C 702.428 -3.87727 -3.48307 0
M  V30 7229 C 699.756 -4.6781 -3.54078 0
M  V30 7230 C 702.108 -5.22859 -3.56091 0
M  V30 7231 C 700.772 -5.63086 -3.58456 0
M  V30 7232 H 700.042 -0.327573 -0.664663 0
M  V30 7233 H 702.689 -1.4156 -1.28969 0
M  V30 7234 H 700.994 -0.827871 -3.82954 0
M  V30 7235 H 702.691 -1.2191 -3.8202 0
M  V30 7236 H 699.281 -2.5935 -3.41226 0
M  V30 7237 H 703.465 -3.57371 -3.44383 0
M  V30 7238 H 698.721 -4.98353 -3.54195 0
M  V30 7239 H 702.895 -5.96989 -3.58577 0
M  V30 7240 H 700.522 -6.67905 -3.63052 0
M  V30 7241 N 702.098 1.27442 -0.927168 0
M  V30 7242 C 703.328 1.9821 -0.582775 0
M  V30 7243 C 703.736 1.69361 0.843406 0
M  V30 7244 O 703.079 0.950381 1.57205 0
M  V30 7245 C 703.141 3.52048 -0.728165 0
M  V30 7246 C 702.805 4.04518 -2.12637 0
M  V30 7247 C 703.802 4.17332 -3.10048 0
M  V30 7248 C 701.487 4.38879 -2.44317 0
M  V30 7249 C 703.481 4.6378 -4.37249 0
M  V30 7250 C 701.168 4.85018 -3.71753 0
M  V30 7251 C 702.166 4.97428 -4.68033 0
M  V30 7252 O 701.854 5.42556 -5.93202 0
M  V30 7253 H 701.586 0.639314 -0.219667 0
M  V30 7254 H 704.14 1.63272 -1.24626 0
M  V30 7255 H 702.37 3.86699 -0.00758143 0
M  V30 7256 H 704.059 4.04033 -0.388906 0
M  V30 7257 H 704.825 3.91046 -2.86894 0
M  V30 7258 H 700.704 4.28462 -1.70121 0
M  V30 7259 H 704.248 4.73382 -5.12402 0
M  V30 7260 H 700.145 5.10746 -3.94726 0
M  V30 7261 H 700.913 5.60811 -5.96182 0
M  V30 7262 N 703.576 0.692616 1.41565 0
M  V30 7263 C 704.524 0.0139952 2.32596 0
M  V30 7264 C 705.518 -0.771691 1.50802 0
M  V30 7265 O 706.724 -0.677646 1.66757 0
M  V30 7266 H 703.099 -0.0142745 0.751865 0
M  V30 7267 H 705.07 0.798851 2.87508 0
M  V30 7268 C 703.819 -0.910602 3.35564 0
M  V30 7269 H 703.142 -0.315446 3.98554 0
M  V30 7270 H 704.582 -1.3538 4.01806 0
M  V30 7271 C 703.041 -2.02539 2.6922 0
M  V30 7272 O 703.571 -3.11386 2.53775 0
M  V30 7273 N 701.777 -1.80227 2.27962 0
M  V30 7274 H 701.324 -0.917054 2.40724 0
M  V30 7275 H 701.282 -2.55001 1.83907 0
M  V30 7276 N 705.054 -1.51416 0.437162 0
M  V30 7277 C 706.331 -1.94682 -0.189292 0
M  V30 7278 C 706.711 -1.37581 -1.60108 0
M  V30 7279 O 706.059 -0.562815 -2.2146 0
M  V30 7280 C 706.269 -3.48599 -0.167201 0
M  V30 7281 C 707.617 -4.2296 -0.372856 0
M  V30 7282 O 708.641 -3.55354 -0.245323 0
M  V30 7283 O 707.5 -5.42895 -0.626693 0
M  V30 7284 H 704.594 -0.816708 -0.130063 0
M  V30 7285 H 707.14 -1.62316 0.495128 0
M  V30 7286 H 705.912 -3.82616 0.81981 0
M  V30 7287 H 705.535 -3.87406 -0.894537 0
M  V30 7288 N 706.532 -0.168513 -1.56696 0
M  V30 7289 C 707.464 0.794249 -2.14998 0
M  V30 7290 C 708.477 1.1957 -1.10485 0
M  V30 7291 O 709.666 1.13604 -1.37682 0
M  V30 7292 C 706.766 2.08018 -2.67547 0
M  V30 7293 C 705.939 1.84274 -3.96689 0
M  V30 7294 C 704.998 2.97059 -4.3433 0
M  V30 7295 O 704.024 2.67815 -5.02259 0
M  V30 7296 N 705.226 4.24775 -3.9566 0
M  V30 7297 H 707.991 0.295832 -2.98236 0
M  V30 7298 H 705.552 0.0143611 -1.61894 0
M  V30 7299 H 707.544 2.82559 -2.89729 0
M  V30 7300 H 706.114 2.49059 -1.88914 0
M  V30 7301 H 705.334 0.936528 -3.82914 0
M  V30 7302 H 706.622 1.65773 -4.81037 0
M  V30 7303 H 706.02 4.51395 -3.40968 0
M  V30 7304 H 704.577 4.96027 -4.22848 0
M  V30 7305 N 708.01 1.57248 0.105221 0
M  V30 7306 C 708.973 2.00388 1.11252 0
M  V30 7307 C 709.973 0.89594 1.33527 0
M  V30 7308 O 711.163 1.16166 1.29811 0
M  V30 7309 C 708.295 2.35589 2.46395 0
M  V30 7310 H 709.488 2.90591 0.741424 0
M  V30 7311 H 707.041 1.52332 0.349956 0
M  V30 7312 H 707.776 1.4831 2.884 0
M  V30 7313 H 707.561 3.16408 2.31578 0
M  V30 7314 H 709.051 2.69658 3.18864 0
M  V30 7315 N 709.488 -0.375779 1.53054 0
M  V30 7316 C 710.734 -1.12114 1.68992 0
M  V30 7317 C 711.067 -1.8926 0.435238 0
M  V30 7318 O 710.342 -1.86044 -0.567278 0
M  V30 7319 C 710.625 -2.08867 2.93337 0
M  V30 7320 C 710.478 -1.35397 4.28938 0
M  V30 7321 C 711.797 -3.09124 3.13257 0
M  V30 7322 H 708.916 -0.406207 0.614951 0
M  V30 7323 H 711.558 -0.403054 1.85676 0
M  V30 7324 H 709.708 -2.70102 2.79244 0
M  V30 7325 H 711.38 -0.770242 4.54824 0
M  V30 7326 H 709.623 -0.655801 4.28814 0
M  V30 7327 H 710.294 -2.06161 5.12056 0
M  V30 7328 H 712.77 -2.57987 3.26469 0
M  V30 7329 H 711.646 -3.74054 4.01715 0
M  V30 7330 H 711.907 -3.78729 2.28072 0
M  V30 7331 N 710.966 -1.44241 -0.634997 0
M  V30 7332 C 712.196 -1.50078 -1.41987 0
M  V30 7333 C 712.604 -0.123072 -1.88799 0
M  V30 7334 O 711.947 0.880552 -1.6122 0
M  V30 7335 C 712.009 -2.40033 -2.67628 0
M  V30 7336 C 711.673 -3.87268 -2.42637 0
M  V30 7337 C 712.67 -4.77902 -2.04708 0
M  V30 7338 C 710.355 -4.31933 -2.56396 0
M  V30 7339 C 712.349 -6.11202 -1.80862 0
M  V30 7340 C 710.036 -5.65281 -2.32164 0
M  V30 7341 C 711.034 -6.54734 -1.94455 0
M  V30 7342 O 710.722 -7.85613 -1.7049 0
M  V30 7343 H 710.454 -0.51146 -0.442023 0
M  V30 7344 H 713.008 -1.89843 -0.784138 0
M  V30 7345 H 711.238 -1.95188 -3.33824 0
M  V30 7346 H 712.927 -2.36863 -3.29622 0
M  V30 7347 H 713.693 -4.44668 -1.93638 0
M  V30 7348 H 709.572 -3.62569 -2.84719 0
M  V30 7349 H 713.116 -6.80983 -1.51353 0
M  V30 7350 H 709.013 -5.98078 -2.42843 0
M  V30 7351 H 709.781 -7.97373 -1.84767 0
M  V30 7352 N 712.444 0.87505 -1.31075 0
M  V30 7353 C 713.669 1.66583 -1.23551 0
M  V30 7354 C 714.094 1.87067 0.19686 0
M  V30 7355 O 713.452 1.40877 1.1412 0
M  V30 7356 C 713.5 3.01401 -1.97965 0
M  V30 7357 O 712.604 3.90923 -1.31351 0
M  V30 7358 H 711.945 0.508645 -0.426821 0
M  V30 7359 H 714.475 1.09139 -1.7306 0
M  V30 7360 H 714.485 3.51374 -2.07366 0
M  V30 7361 H 713.16 2.85812 -3.02133 0
M  V30 7362 H 711.737 3.49369 -1.30368 0
M  V30 7363 N 713.922 1.13953 1.08869 0
M  V30 7364 C 714.854 0.779906 2.15523 0
M  V30 7365 C 715.867 -0.20102 1.61554 0
M  V30 7366 O 717.056 0.0200049 1.78489 0
M  V30 7367 C 714.156 0.136226 3.38626 0
M  V30 7368 C 713.329 1.15069 4.21993 0
M  V30 7369 C 712.388 0.531645 5.23507 0
M  V30 7370 O 711.414 1.19327 5.56552 0
M  V30 7371 N 712.616 -0.693734 5.7634 0
M  V30 7372 H 715.381 1.69769 2.46979 0
M  V30 7373 H 712.942 1.03331 1.24637 0
M  V30 7374 H 714.934 -0.290295 4.03658 0
M  V30 7375 H 713.504 -0.684603 3.05011 0
M  V30 7376 H 712.724 1.75431 3.53012 0
M  V30 7377 H 714.012 1.83614 4.74514 0
M  V30 7378 H 713.41 -1.24994 5.51718 0
M  V30 7379 H 711.967 -1.06283 6.43076 0
M  V30 7380 N 715.4 -1.26948 0.933913 0
M  V30 7381 C 716.33 -2.29017 0.45534 0
M  V30 7382 C 717.311 -1.62961 -0.487605 0
M  V30 7383 O 718.496 -1.90223 -0.391022 0
M  V30 7384 C 715.626 -3.46112 -0.287015 0
M  V30 7385 C 714.58 -4.24205 0.568682 0
M  V30 7386 C 713.906 -5.3384 -0.303206 0
M  V30 7387 C 715.206 -4.88954 1.83633 0
M  V30 7388 H 716.9 -2.69298 1.30839 0
M  V30 7389 H 714.446 -1.29459 0.630579 0
M  V30 7390 H 716.399 -4.16622 -0.6328 0
M  V30 7391 H 715.123 -3.04765 -1.17414 0
M  V30 7392 H 713.782 -3.5545 0.897261 0
M  V30 7393 H 713.43 -4.88734 -1.18947 0
M  V30 7394 H 713.13 -5.86998 0.265879 0
M  V30 7395 H 714.654 -6.0719 -0.644423 0
M  V30 7396 H 716.068 -5.51717 1.55823 0
M  V30 7397 H 714.465 -5.52198 2.34941 0
M  V30 7398 H 715.535 -4.12305 2.55211 0
M  V30 7399 N 716.879 -0.700114 -1.41195 0
M  V30 7400 C 718.128 -0.230082 -2.00383 0
M  V30 7401 C 718.441 1.17857 -1.56106 0
M  V30 7402 O 719.647 1.74631 -2.07885 0
M  V30 7403 C 718.103 -0.360447 -3.5809 0
M  V30 7404 C 717.711 -1.77475 -4.11347 0
M  V30 7405 C 719.455 0.0495799 -4.24471 0
M  V30 7406 C 717.362 -1.85653 -5.61504 0
M  V30 7407 H 716.292 -0.0822633 -0.749499 0
M  V30 7408 H 718.943 -0.868969 -1.6162 0
M  V30 7409 H 717.325 0.346768 -3.94479 0
M  V30 7410 H 718.499 -2.51109 -3.86369 0
M  V30 7411 H 716.814 -2.13486 -3.57509 0
M  V30 7412 H 719.411 0.00898219 -5.34699 0
M  V30 7413 H 719.754 1.08904 -4.01803 0
M  V30 7414 H 720.287 -0.607521 -3.93134 0
M  V30 7415 H 717.026 -2.87667 -5.89006 0
M  V30 7416 H 716.546 -1.1641 -5.88395 0
M  V30 7417 H 718.225 -1.62151 -6.26351 0
M  V30 7418 N 718.357 1.51182 -0.445186 0
M  V30 7419 C 719.773 1.59299 -0.0978954 0
M  V30 7420 C 719.973 1.4555 1.39346 0
M  V30 7421 O 719.029 1.30073 2.16419 0
M  V30 7422 C 720.342 2.94133 -0.625005 0
M  V30 7423 C 721.89 3.07463 -0.586137 0
M  V30 7424 C 722.365 4.44832 -1.09035 0
M  V30 7425 N 723.856 4.51173 -1.04867 0
M  V30 7426 C 724.591 5.55804 -1.40959 0
M  V30 7427 N 724.087 6.67816 -1.84375 0
M  V30 7428 N 725.88 5.46205 -1.32726 0
M  V30 7429 H 718.031 1.58363 -1.41544 0
M  V30 7430 H 720.294 0.746946 -0.58376 0
M  V30 7431 H 720 3.09589 -1.66876 0
M  V30 7432 H 719.874 3.77161 -0.0542262 0
M  V30 7433 H 722.261 2.9167 0.448646 0
M  V30 7434 H 722.342 2.26255 -1.19341 0
M  V30 7435 H 721.986 4.61372 -2.12364 0
M  V30 7436 H 721.916 5.24591 -0.459539 0
M  V30 7437 H 724.407 3.70783 -0.729932 0
M  V30 7438 H 724.72 7.43683 -2.10131 0
M  V30 7439 H 723.065 6.69003 -1.88308 0
M  V30 7440 H 726.256 4.57583 -0.986678 0
M  V30 7441 H 726.429 6.27634 -1.61182 0
M  V30 7442 N 719.835 0.176821 1.56605 0
M  V30 7443 C 720.767 -0.782836 2.15417 0
M  V30 7444 C 721.78 -1.18982 1.11117 0
M  V30 7445 O 722.969 -1.12872 1.38283 0
M  V30 7446 C 720.069 -2.06596 2.68647 0
M  V30 7447 C 719.242 -1.82167 3.9766 0
M  V30 7448 C 718.301 -2.94751 4.35899 0
M  V30 7449 O 717.327 -2.65148 5.03672 0
M  V30 7450 N 718.529 -4.2267 3.97907 0
M  V30 7451 H 721.294 -0.280012 2.98389 0
M  V30 7452 H 718.855 -0.00577529 1.61899 0
M  V30 7453 H 720.847 -2.81018 2.91223 0
M  V30 7454 H 719.417 -2.48054 1.90232 0
M  V30 7455 H 718.637 -0.916208 3.83405 0
M  V30 7456 H 719.925 -1.6322 4.81909 0
M  V30 7457 H 719.323 -4.4958 3.43357 0
M  V30 7458 H 717.88 -4.93778 4.25472 0
M  V30 7459 N 721.313 -1.57302 -0.09688 0
M  V30 7460 C 722.56 -1.85997 -0.800699 0
M  V30 7461 C 722.888 -0.765089 -1.7882 0
M  V30 7462 O 722.143 0.241492 -1.94204 0
M  V30 7463 C 722.442 -3.21272 -1.56586 0
M  V30 7464 C 722.108 -4.45104 -0.72064 0
M  V30 7465 C 720.77 -4.78723 -0.487632 0
M  V30 7466 C 723.122 -5.2103 -0.132948 0
M  V30 7467 C 720.45 -5.85697 0.34296 0
M  V30 7468 C 722.802 -6.28881 0.684957 0
M  V30 7469 C 721.466 -6.61017 0.928073 0
M  V30 7470 H 720.736 -0.680613 -0.292997 0
M  V30 7471 H 723.383 -1.91399 -0.0622474 0
M  V30 7472 H 721.688 -3.11547 -2.37583 0
M  V30 7473 H 723.385 -3.40702 -2.11478 0
M  V30 7474 H 719.975 -4.18777 -0.912359 0
M  V30 7475 H 724.159 -4.95392 -0.300132 0
M  V30 7476 H 719.415 -6.09008 0.540317 0
M  V30 7477 H 723.589 -6.86886 1.14721 0
M  V30 7478 H 721.216 -7.43738 1.57348 0
M  V30 7479 N 722.791 0.367657 -1.53252 0
M  V30 7480 C 724.019 1.13119 -1.73239 0
M  V30 7481 C 724.434 1.831 -0.460404 0
M  V30 7482 O 723.791 1.73483 0.566557 0
M  V30 7483 C 723.842 2.16308 -2.89643 0
M  V30 7484 O 723.563 1.49175 -4.1192 0
M  V30 7485 C 725.064 3.05224 -3.21486 0
M  V30 7486 H 722.284 0.338318 -0.579467 0
M  V30 7487 H 724.828 0.42721 -1.99988 0
M  V30 7488 H 722.983 2.82307 -2.65295 0
M  V30 7489 H 723.397 2.17912 -4.7709 0
M  V30 7490 H 724.871 3.73613 -4.06346 0
M  V30 7491 H 725.348 3.69919 -2.36763 0
M  V30 7492 H 725.954 2.44843 -3.47753 0
M  V30 7493 N 724.269 1.44576 0.627338 0
M  V30 7494 C 725.494 1.51271 1.41887 0
M  V30 7495 C 725.919 0.139814 1.8758 0
M  V30 7496 O 725.277 -0.871746 1.58966 0
M  V30 7497 C 725.325 2.48529 2.61277 0
M  V30 7498 O 724.429 1.98944 3.61241 0
M  V30 7499 H 723.77 0.510668 0.424399 0
M  V30 7500 H 726.3 1.89746 0.765356 0
M  V30 7501 H 726.31 2.66689 3.08773 0
M  V30 7502 H 724.985 3.48249 2.27366 0
M  V30 7503 H 723.562 1.90568 3.20528 0
M  V30 7504 N 725.747 -0.868086 1.31537 0
M  V30 7505 C 726.677 -1.99131 1.21939 0
M  V30 7506 C 727.658 -1.69768 0.106166 0
M  V30 7507 O 728.843 -1.92006 0.291081 0
M  V30 7508 C 725.973 -3.34676 0.927879 0
M  V30 7509 C 724.927 -3.7835 2.00088 0
M  V30 7510 C 724.253 -5.11375 1.56203 0
M  V30 7511 C 725.553 -3.95256 3.41424 0
M  V30 7512 H 727.247 -2.07419 2.15911 0
M  V30 7513 H 724.793 -0.996569 1.03945 0
M  V30 7514 H 726.746 -4.12793 0.847327 0
M  V30 7515 H 725.47 -3.26565 -0.0475042 0
M  V30 7516 H 724.129 -3.02474 2.07135 0
M  V30 7517 H 723.777 -4.99709 0.57445 0
M  V30 7518 H 723.477 -5.41568 2.27985 0
M  V30 7519 H 725.001 -5.92001 1.49558 0
M  V30 7520 H 726.415 -4.63764 3.3704 0
M  V30 7521 H 724.812 -4.36849 4.1144 0
M  V30 7522 H 725.882 -2.98579 3.82072 0
M  V30 7523 N 727.225 -1.14528 -1.08264 0
M  V30 7524 C 728.453 -0.937964 -1.84418 0
M  V30 7525 C 728.868 0.51357 -1.81681 0
M  V30 7526 O 728.225 1.35591 -1.22153 0
M  V30 7527 C 728.276 -1.43272 -3.31897 0
M  V30 7528 O 727.997 -2.82738 -3.34651 0
M  V30 7529 C 729.498 -1.26555 -4.24851 0
M  V30 7530 H 726.718 -0.333704 -0.582136 0
M  V30 7531 H 729.262 -1.52076 -1.36723 0
M  V30 7532 H 727.417 -0.892653 -3.76975 0
M  V30 7533 H 727.831 -3.04971 -4.26724 0
M  V30 7534 H 729.305 -1.66031 -5.26439 0
M  V30 7535 H 729.782 -0.208589 -4.38704 0
M  V30 7536 H 730.388 -1.79423 -3.856 0
M  V30 7537 N 728.703 1.26451 -0.940633 0
M  V30 7538 C 729.653 2.24086 -0.420669 0
M  V30 7539 C 730.637 1.53501 0.482301 0
M  V30 7540 O 731.829 1.74127 0.317636 0
M  V30 7541 C 728.958 3.41866 0.313452 0
M  V30 7542 C 728.044 4.19737 -0.606779 0
M  V30 7543 N 728.435 4.7521 -1.73232 0
M  V30 7544 C 726.733 4.44091 -0.41226 0
M  V30 7545 C 727.434 5.34052 -2.30572 0
M  V30 7546 N 726.41 5.1971 -1.59381 0
M  V30 7547 H 730.212 2.64569 -1.27986 0
M  V30 7548 H 727.726 1.4153 -0.796436 0
M  V30 7549 H 729.723 4.1093 0.702991 0
M  V30 7550 H 728.383 3.0291 1.16942 0
M  V30 7551 H 729.394 4.72769 -2.11447 0
M  V30 7552 H 726.071 4.1556 0.401984 0
M  V30 7553 H 727.461 5.87845 -3.25404 0
M  V30 7554 N 730.181 0.707592 1.40822 0
M  V30 7555 C 731.427 0.244031 2.01326 0
M  V30 7556 C 731.76 -1.15722 1.55955 0
M  V30 7557 O 731.035 -1.78347 0.776044 0
M  V30 7558 C 731.318 0.315128 3.58718 0
M  V30 7559 C 731.171 1.75419 4.14184 0
M  V30 7560 C 732.49 -0.318251 4.38948 0
M  V30 7561 H 729.609 0.0901471 0.731466 0
M  V30 7562 H 732.251 0.898584 1.67408 0
M  V30 7563 H 730.401 -0.242176 3.87744 0
M  V30 7564 H 732.073 2.36626 3.95987 0
M  V30 7565 H 730.316 2.28449 3.68773 0
M  V30 7566 H 730.987 1.75538 5.23345 0
M  V30 7567 H 733.463 0.156514 4.15806 0
M  V30 7568 H 732.339 -0.238019 5.48384 0
M  V30 7569 H 732.6 -1.40067 4.19325 0
M  V30 7570 N 731.66 -1.50943 0.453197 0
M  V30 7571 C 732.907 -2.02212 -0.107922 0
M  V30 7572 C 733.235 -1.33639 -1.41318 0
M  V30 7573 O 732.49 -0.445154 -1.9057 0
M  V30 7574 C 732.789 -3.55603 -0.357944 0
M  V30 7575 C 732.455 -4.42556 0.863427 0
M  V30 7576 C 731.117 -4.6604 1.19834 0
M  V30 7577 C 733.469 -4.93468 1.67747 0
M  V30 7578 C 730.797 -5.37681 2.34768 0
M  V30 7579 C 733.149 -5.6637 2.81793 0
M  V30 7580 C 731.813 -5.88113 3.1572 0
M  V30 7581 H 731.083 -0.739947 -0.0394916 0
M  V30 7582 H 733.73 -1.81738 0.60363 0
M  V30 7583 H 732.035 -3.74495 -1.15156 0
M  V30 7584 H 733.732 -3.92821 -0.805781 0
M  V30 7585 H 730.322 -4.24485 0.592478 0
M  V30 7586 H 734.506 -4.75194 1.43192 0
M  V30 7587 H 729.762 -5.52727 2.61348 0
M  V30 7588 H 733.936 -6.04806 3.45229 0
M  V30 7589 H 731.563 -6.43404 4.04889 0
M  V30 7590 N 733.138 -0.185124 -1.56509 0
M  V30 7591 C 734.086 0.756505 -2.19954 0
M  V30 7592 C 735.08 1.22725 -1.16769 0
M  V30 7593 O 736.286 1.1913 -1.34937 0
M  V30 7594 H 732.661 0.262279 -0.704779 0
M  V30 7595 H 734.632 0.197587 -2.97745 0
M  V30 7596 C 733.381 1.96975 -2.86524 0
M  V30 7597 H 732.704 1.61658 -3.65659 0
M  V30 7598 H 734.144 2.60719 -3.34367 0
M  V30 7599 C 732.603 2.80219 -1.87027 0
M  V30 7600 O 733.133 3.77821 -1.36433 0
M  V30 7601 N 731.339 2.4551 -1.55477 0
M  V30 7602 H 730.886 1.66199 -1.96813 0
M  V30 7603 H 730.844 3.01493 -0.891597 0
M  V30 7604 N 734.616 1.57351 0.0885366 0
M  V30 7605 C 736.032 1.53331 0.442916 0
M  V30 7606 C 736.232 0.902831 1.80142 0
M  V30 7607 O 735.288 0.498147 2.47537 0
M  V30 7608 C 736.601 2.98036 0.399372 0
M  V30 7609 C 738.149 3.09286 0.480759 0
M  V30 7610 C 738.624 4.5561 0.467296 0
M  V30 7611 N 740.115 4.60182 0.52786 0
M  V30 7612 C 740.85 5.70857 0.539388 0
M  V30 7613 N 740.346 6.90944 0.506729 0
M  V30 7614 N 742.139 5.59051 0.584691 0
M  V30 7615 H 734.29 1.96709 -0.801215 0
M  V30 7616 H 736.553 0.899639 -0.298922 0
M  V30 7617 H 736.259 3.47656 -0.531806 0
M  V30 7618 H 736.133 3.57066 1.21589 0
M  V30 7619 H 738.52 2.5965 1.40236 0
M  V30 7620 H 738.601 2.53197 -0.364023 0
M  V30 7621 H 738.245 5.05899 -0.450384 0
M  V30 7622 H 738.175 5.09544 1.32938 0
M  V30 7623 H 740.666 3.73757 0.558028 0
M  V30 7624 H 740.979 7.71055 0.518989 0
M  V30 7625 H 739.324 6.93384 0.473675 0
M  V30 7626 H 742.515 4.64138 0.607781 0
M  V30 7627 H 742.688 6.45307 0.590206 0
M  V30 7628 N 736.094 -0.359525 1.53444 0
M  V30 7629 C 737.341 -1.10152 1.6992 0
M  V30 7630 C 737.669 -1.89125 0.4541 0
M  V30 7631 O 736.924 -1.87396 -0.564023 0
M  V30 7632 C 737.223 -2.08287 2.90433 0
M  V30 7633 C 736.889 -1.45749 4.26694 0
M  V30 7634 C 735.551 -1.28421 4.63747 0
M  V30 7635 C 737.903 -1.00557 5.11408 0
M  V30 7636 C 735.231 -0.644951 5.83144 0
M  V30 7637 C 737.583 -0.380288 6.31456 0
M  V30 7638 C 736.247 -0.194557 6.67216 0
M  V30 7639 H 735.517 -0.403076 0.621781 0
M  V30 7640 H 738.164 -0.382612 1.87639 0
M  V30 7641 H 736.469 -2.86503 2.67251 0
M  V30 7642 H 738.166 -2.65662 3.00374 0
M  V30 7643 H 734.756 -1.6023 3.97523 0
M  V30 7644 H 738.94 -1.12735 4.83326 0
M  V30 7645 H 734.196 -0.48952 6.09437 0
M  V30 7646 H 738.37 -0.0219455 6.96397 0
M  V30 7647 H 735.997 0.30285 7.59597 0
M  V30 7648 N 737.572 -1.44907 -0.619662 0
M  V30 7649 C 738.983 -1.42905 -1.20146 0
M  V30 7650 C 739.334 -0.150341 -1.95623 0
M  V30 7651 O 738.459 0.748732 -2.03034 0
M  V30 7652 C 739.054 -2.58889 -2.18545 0
M  V30 7653 C 737.613 -2.60046 -2.72127 0
M  V30 7654 C 736.76 -2.3493 -1.4732 0
M  V30 7655 H 739.711 -1.53321 -0.409666 0
M  V30 7656 H 739.732 -2.32298 -3.0136 0
M  V30 7657 H 739.244 -3.51941 -1.63583 0
M  V30 7658 H 737.345 -1.70968 -3.3106 0
M  V30 7659 H 737.458 -3.58893 -3.17384 0
M  V30 7660 H 735.822 -1.84248 -1.75855 0
M  V30 7661 H 736.605 -3.3011 -0.942442 0
M  V30 7662 N 739.05 0.861098 -1.31996 0
M  V30 7663 C 739.96 2.00154 -1.22374 0
M  V30 7664 C 740.976 1.73447 -0.138631 0
M  V30 7665 O 742.152 1.98191 -0.358104 0
M  V30 7666 C 739.217 3.33696 -0.940645 0
M  V30 7667 C 738.278 3.73668 -2.11355 0
M  V30 7668 C 737.511 5.00837 -1.84386 0
M  V30 7669 O 737.734 5.64996 -0.783287 0
M  V30 7670 O 736.668 5.37787 -2.70313 0
M  V30 7671 H 740.494 2.11207 -2.18233 0
M  V30 7672 H 738.079 0.990768 -1.11822 0
M  V30 7673 H 739.961 4.13756 -0.798987 0
M  V30 7674 H 738.636 3.23698 -0.0121636 0
M  V30 7675 H 737.543 2.94211 -2.31065 0
M  V30 7676 H 738.876 3.88303 -3.02459 0
M  V30 7677 N 740.528 1.15101 1.07655 0
M  V30 7678 C 741.476 0.840714 2.16875 0
M  V30 7679 C 742.47 -0.184594 1.68391 0
M  V30 7680 O 743.676 -0.0399315 1.79956 0
M  V30 7681 H 740.051 0.254192 0.707736 0
M  V30 7682 H 742.022 1.76959 2.40266 0
M  V30 7683 C 740.771 0.343018 3.46004 0
M  V30 7684 H 740.094 1.12335 3.83694 0
M  V30 7685 H 741.534 0.16453 4.23681 0
M  V30 7686 C 739.993 -0.934881 3.23669 0
M  V30 7687 O 740.523 -2.00706 3.47965 0
M  V30 7688 N 738.729 -0.873167 2.77172 0
M  V30 7689 H 738.276 -0.000479072 2.576 0
M  V30 7690 H 738.234 -1.72873 2.62607 0
M  V30 7691 N 742.006 -1.2595 0.947325 0
M  V30 7692 C 742.938 -2.25336 0.41906 0
M  V30 7693 C 743.951 -1.56135 -0.461051 0
M  V30 7694 O 745.14 -1.76438 -0.270505 0
M  V30 7695 C 742.24 -3.36334 -0.416233 0
M  V30 7696 C 741.413 -4.35088 0.449162 0
M  V30 7697 C 740.472 -5.25185 -0.326716 0
M  V30 7698 O 739.498 -5.68548 0.272374 0
M  V30 7699 N 740.7 -5.57388 -1.6217 0
M  V30 7700 H 743.465 -2.71298 1.27348 0
M  V30 7701 H 741.026 -1.39781 0.81688 0
M  V30 7702 H 743.018 -3.93564 -0.942826 0
M  V30 7703 H 741.588 -2.89819 -1.17148 0
M  V30 7704 H 740.808 -3.76841 1.15692 0
M  V30 7705 H 742.096 -4.98056 1.04008 0
M  V30 7706 H 741.494 -5.2405 -2.13046 0
M  V30 7707 H 740.051 -6.17234 -2.0944 0
M  V30 7708 N 743.484 -0.715051 -1.40445 0
M  V30 7709 C 744.733 -0.251322 -2.00128 0
M  V30 7710 C 745.046 1.16194 -1.57347 0
M  V30 7711 O 746.252 1.72416 -2.09726 0
M  V30 7712 C 744.708 -0.398407 -3.57688 0
M  V30 7713 C 744.316 -1.81828 -4.09442 0
M  V30 7714 C 746.06 0.00455625 -4.245 0
M  V30 7715 C 743.967 -1.91598 -5.59503 0
M  V30 7716 H 742.897 -0.0902081 -0.748584 0
M  V30 7717 H 745.548 -0.886062 -1.6069 0
M  V30 7718 H 743.93 0.304908 -3.94824 0
M  V30 7719 H 745.104 -2.55193 -3.83684 0
M  V30 7720 H 743.419 -2.17266 -3.55225 0
M  V30 7721 H 746.016 -0.0477303 -5.34679 0
M  V30 7722 H 746.359 1.04636 -4.02935 0
M  V30 7723 H 746.892 -0.649184 -3.92467 0
M  V30 7724 H 743.631 -2.93898 -5.85922 0
M  V30 7725 H 743.151 -1.22644 -5.87127 0
M  V30 7726 H 744.83 -1.68785 -6.24596 0
M  V30 7727 N 744.962 1.50701 -0.461195 0
M  V30 7728 C 745.892 2.31182 0.328184 0
M  V30 7729 C 746.873 1.37644 0.999408 0
M  V30 7730 O 748.058 1.66565 0.99848 0
M  V30 7731 C 745.188 3.17113 1.41621 0
M  V30 7732 C 744.142 4.19124 0.867148 0
M  V30 7733 C 743.468 4.93728 2.05272 0
M  V30 7734 C 744.768 5.22174 -0.114808 0
M  V30 7735 H 746.462 2.97423 -0.343501 0
M  V30 7736 H 744.008 1.43033 -0.166641 0
M  V30 7737 H 745.961 3.72208 1.97584 0
M  V30 7738 H 744.685 2.48739 2.11652 0
M  V30 7739 H 743.344 3.65116 0.329557 0
M  V30 7740 H 742.992 4.21835 2.73978 0
M  V30 7741 H 742.692 5.62724 1.69161 0
M  V30 7742 H 744.216 5.51654 2.61744 0
M  V30 7743 H 745.63 5.72198 0.355316 0
M  V30 7744 H 744.027 5.98833 -0.389689 0
M  V30 7745 H 745.097 4.7353 -1.04391 0
M  V30 7746 N 746.441 0.193421 1.56409 0
M  V30 7747 C 747.404 -0.714371 2.17783 0
M  V30 7748 C 748.404 -1.1422 1.13183 0
M  V30 7749 O 749.594 -1.05557 1.38576 0
M  V30 7750 C 746.726 -1.97509 2.77855 0
M  V30 7751 H 747.919 -0.179714 2.99361 0
M  V30 7752 H 745.472 -0.0561944 1.56199 0
M  V30 7753 H 746.207 -2.5523 2.0007 0
M  V30 7754 H 745.992 -1.67706 3.54425 0
M  V30 7755 H 747.482 -2.62246 3.24987 0
M  V30 7756 N 747.919 -1.57396 -0.0801906 0
M  V30 7757 C 749.335 -1.53564 -0.434778 0
M  V30 7758 C 749.535 -0.912372 -1.79661 0
M  V30 7759 O 748.591 -0.511268 -2.4727 0
M  V30 7760 C 749.904 -2.98244 -0.383561 0
M  V30 7761 C 751.452 -3.09536 -0.46435 0
M  V30 7762 C 751.927 -4.55851 -0.443128 0
M  V30 7763 N 753.418 -4.60456 -0.503448 0
M  V30 7764 C 754.153 -5.71135 -0.509106 0
M  V30 7765 N 753.649 -6.91203 -0.47008 0
M  V30 7766 N 755.442 -5.59353 -0.555035 0
M  V30 7767 H 747.593 -1.96281 0.811635 0
M  V30 7768 H 749.856 -0.898041 0.303689 0
M  V30 7769 H 749.562 -3.47369 0.550236 0
M  V30 7770 H 749.436 -3.57705 -1.19694 0
M  V30 7771 H 751.823 -2.6039 -1.38857 0
M  V30 7772 H 751.904 -2.53 0.377445 0
M  V30 7773 H 751.548 -5.05653 0.477207 0
M  V30 7774 H 751.478 -5.10242 -1.30234 0
M  V30 7775 H 753.969 -3.74048 -0.538199 0
M  V30 7776 H 754.282 -7.7132 -0.478091 0
M  V30 7777 H 752.627 -6.93625 -0.436897 0
M  V30 7778 H 755.818 -4.64453 -0.583158 0
M  V30 7779 H 755.991 -6.4561 -0.555976 0
M  V30 7780 N 749.397 0.351382 -1.53633 0
M  V30 7781 C 750.808 0.927429 -1.62036 0
M  V30 7782 C 751.159 1.89809 -0.496706 0
M  V30 7783 O 750.284 2.1313 0.374749 0
M  V30 7784 C 750.879 1.68886 -2.93706 0
M  V30 7785 C 749.438 2.21404 -3.04397 0
M  V30 7786 C 748.585 1.03075 -2.57431 0
M  V30 7787 H 751.536 0.129748 -1.58169 0
M  V30 7788 H 751.557 2.55116 -2.82305 0
M  V30 7789 H 751.069 0.982149 -3.75467 0
M  V30 7790 H 749.17 2.95274 -2.27253 0
M  V30 7791 H 749.283 2.48312 -4.09729 0
M  V30 7792 H 747.647 1.40188 -2.12649 0
M  V30 7793 H 748.43 0.338793 -3.41624 0
M  V30 7794 N 750.875 1.45233 0.611969 0
M  V30 7795 C 752.286 1.4354 1.19387 0
M  V30 7796 C 752.637 0.160713 1.95541 0
M  V30 7797 O 751.762 -0.737954 2.03429 0
M  V30 7798 C 752.357 2.60045 2.17169 0
M  V30 7799 C 750.916 2.61486 2.70744 0
M  V30 7800 C 750.063 2.35708 1.46072 0
M  V30 7801 H 753.014 1.53536 0.401529 0
M  V30 7802 H 753.035 2.33893 3.00124 0
M  V30 7803 H 752.547 3.52803 1.61714 0
M  V30 7804 H 750.648 1.72721 3.30149 0
M  V30 7805 H 750.761 3.60572 3.15476 0
M  V30 7806 H 749.125 1.85178 1.74875 0
M  V30 7807 H 749.908 3.30606 0.924922 0
M  V30 7808 N 752.353 -0.854086 1.3245 0
M  V30 7809 C 753.316 -1.94427 1.21371 0
M  V30 7810 C 754.316 -1.60219 0.136613 0
M  V30 7811 O 755.506 -1.69846 0.387057 0
M  V30 7812 C 752.638 -3.29698 0.866701 0
M  V30 7813 H 753.831 -2.05679 2.18257 0
M  V30 7814 H 751.384 -1.04434 1.1629 0
M  V30 7815 H 752.119 -3.24145 -0.100319 0
M  V30 7816 H 751.904 -3.55903 1.64545 0
M  V30 7817 H 753.394 -4.09599 0.813515 0
M  V30 7818 N 753.831 -1.1567 -1.07043 0
M  V30 7819 C 755.242 -0.942408 -1.61169 0
M  V30 7820 C 755.593 0.515537 -1.89306 0
M  V30 7821 O 754.718 1.38726 -1.66084 0
M  V30 7822 C 755.313 -1.70431 -2.92812 0
M  V30 7823 C 753.872 -1.53521 -3.43669 0
M  V30 7824 C 753.019 -1.7179 -2.17678 0
M  V30 7825 H 755.97 -1.3065 -0.9009 0
M  V30 7826 H 755.991 -1.17566 -3.61882 0
M  V30 7827 H 755.503 -2.76538 -2.72302 0
M  V30 7828 H 753.604 -0.498224 -3.69254 0
M  V30 7829 H 753.717 -2.31422 -4.19501 0
M  V30 7830 H 752.081 -1.14468 -2.27529 0
M  V30 7831 H 752.864 -2.79269 -1.99659 0
M  V30 7832 N 755.309 1.25446 -0.953992 0
M  V30 7833 C 756.537 1.97215 -0.625595 0
M  V30 7834 C 756.952 1.70911 0.802168 0
M  V30 7835 O 756.309 0.984782 1.5365 0
M  V30 7836 C 756.36 3.50777 -0.873943 0
M  V30 7837 O 756.081 3.76173 -2.24556 0
M  V30 7838 C 757.582 4.39776 -0.557845 0
M  V30 7839 H 754.802 0.628652 -0.2346 0
M  V30 7840 H 757.346 1.59632 -1.27819 0
M  V30 7841 H 755.501 3.86474 -0.267765 0
M  V30 7842 H 755.915 4.70636 -2.31522 0
M  V30 7843 H 757.389 5.46431 -0.782157 0
M  V30 7844 H 757.866 4.36257 0.507573 0
M  V30 7845 H 758.472 4.09644 -1.14332 0
M  V30 7846 N 756.787 0.722489 1.40064 0
M  V30 7847 C 758.036 0.261932 1.99992 0
M  V30 7848 C 758.349 -1.15358 1.57961 0
M  V30 7849 O 759.555 -1.71301 2.10637 0
M  V30 7850 C 758.011 0.41737 3.57472 0
M  V30 7851 C 757.619 1.83997 4.08472 0
M  V30 7852 C 759.363 0.0179561 4.24496 0
M  V30 7853 C 757.27 1.94563 5.5848 0
M  V30 7854 H 756.2 0.0941768 0.748095 0
M  V30 7855 H 758.851 0.894572 1.60218 0
M  V30 7856 H 757.233 -0.283965 3.94981 0
M  V30 7857 H 758.407 2.57224 3.82325 0
M  V30 7858 H 756.722 2.19147 3.54067 0
M  V30 7859 H 759.319 0.076085 5.34646 0
M  V30 7860 H 759.662 -1.02498 4.03485 0
M  V30 7861 H 760.195 0.669988 3.92117 0
M  V30 7862 H 756.934 2.97001 5.84355 0
M  V30 7863 H 756.454 1.25756 5.86469 0
M  V30 7864 H 758.133 1.72095 6.23692 0
M  V30 7865 N 758.265 -1.50454 0.469181 0
M  V30 7866 C 759.493 -2.06729 -0.0842134 0
M  V30 7867 C 759.908 -1.33326 -1.33677 0
M  V30 7868 O 759.265 -0.401977 -1.78018 0
M  V30 7869 C 759.316 -3.59557 -0.374253 0
M  V30 7870 O 759.037 -4.30192 0.828622 0
M  V30 7871 C 760.538 -4.32449 -0.974824 0
M  V30 7872 H 757.758 -0.670971 0.006231 0
M  V30 7873 H 760.302 -1.93645 0.657415 0
M  V30 7874 H 758.457 -3.7245 -1.06581 0
M  V30 7875 H 758.871 -5.21371 0.572066 0
M  V30 7876 H 760.345 -5.40361 -1.12755 0
M  V30 7877 H 760.822 -3.92819 -1.96442 0
M  V30 7878 H 761.428 -4.24082 -0.321703 0
M  V30 7879 N 759.743 -0.201713 -1.56304 0
M  V30 7880 C 760.971 0.440723 -2.02152 0
M  V30 7881 C 761.386 1.54735 -1.08179 0
M  V30 7882 O 760.743 1.82289 -0.0878196 0
M  V30 7883 C 760.794 0.990884 -3.47655 0
M  V30 7884 O 760.515 -0.0715937 -4.38041 0
M  V30 7885 C 762.016 1.70854 -4.09052 0
M  V30 7886 H 759.236 0.109987 -0.661924 0
M  V30 7887 H 761.78 -0.312358 -2.021 0
M  V30 7888 H 759.935 1.69432 -3.48384 0
M  V30 7889 H 760.349 0.338892 -5.23404 0
M  V30 7890 H 761.823 2.04572 -5.12693 0
M  V30 7891 H 762.3 2.61462 -3.52894 0
M  V30 7892 H 762.906 1.0508 -4.12114 0
M  V30 7893 N 761.222 1.57436 0.0718424 0
M  V30 7894 C 762.468 1.87525 0.772149 0
M  V30 7895 C 762.801 0.79399 1.77227 0
M  V30 7896 O 762.076 -0.195733 1.93513 0
M  V30 7897 C 762.359 3.28272 1.48018 0
M  V30 7898 C 762.212 4.47052 0.49647 0
M  V30 7899 C 763.531 3.67256 2.42509 0
M  V30 7900 H 760.65 0.682049 0.279245 0
M  V30 7901 H 763.292 1.89967 0.03534 0
M  V30 7902 H 761.442 3.26321 2.10824 0
M  V30 7903 H 763.114 4.61127 -0.126375 0
M  V30 7904 H 761.357 4.33392 -0.188205 0
M  V30 7905 H 762.028 5.42315 1.02949 0
M  V30 7906 H 764.504 3.70301 1.89781 0
M  V30 7907 H 763.38 4.66626 2.89053 0
M  V30 7908 H 763.641 2.97186 3.27312 0
M  V30 7909 N 762.7 -0.34323 1.53817 0
M  V30 7910 C 763.925 -1.1079 1.75329 0
M  V30 7911 C 764.35 -1.81571 0.491293 0
M  V30 7912 O 763.708 -1.72561 -0.556089 0
M  V30 7913 C 763.756 -2.09681 2.9337 0
M  V30 7914 O 762.86 -3.17207 2.63541 0
M  V30 7915 H 762.201 -0.320402 0.581583 0
M  V30 7916 H 764.731 -0.393525 2.0078 0
M  V30 7917 H 764.741 -2.52897 3.20168 0
M  V30 7918 H 763.416 -1.5756 3.84899 0
M  V30 7919 H 761.993 -2.78806 2.47632 0
M  V30 7920 N 764.178 -1.45556 -0.604258 0
M  V30 7921 C 765.088 -1.57025 -1.74299 0
M  V30 7922 C 766.104 -0.45456 -1.67958 0
M  V30 7923 O 767.28 -0.715711 -1.88254 0
M  V30 7924 C 764.345 -1.53702 -3.10768 0
M  V30 7925 C 763.406 -2.76335 -3.28538 0
M  V30 7926 C 762.639 -2.73161 -4.58496 0
M  V30 7927 O 762.862 -1.80678 -5.41028 0
M  V30 7928 O 761.796 -3.64409 -4.79051 0
M  V30 7929 H 765.622 -2.53284 -1.67573 0
M  V30 7930 H 763.207 -1.28104 -0.768745 0
M  V30 7931 H 765.089 -1.54468 -3.92068 0
M  V30 7932 H 763.764 -0.605957 -3.17978 0
M  V30 7933 H 762.671 -2.8113 -2.46813 0
M  V30 7934 H 764.004 -3.68578 -3.26207 0
M  V30 7935 N 765.656 0.84705 -1.32902 0
M  V30 7936 C 766.604 1.97765 -1.22441 0
M  V30 7937 C 767.598 1.68919 -0.127546 0
M  V30 7938 O 768.804 1.77633 -0.290973 0
M  V30 7939 H 765.179 0.649072 -0.379748 0
M  V30 7940 H 767.15 2.03713 -2.18044 0
M  V30 7941 C 765.899 3.33834 -0.972125 0
M  V30 7942 H 765.222 3.56564 -1.80837 0
M  V30 7943 H 766.662 4.13467 -0.939209 0
M  V30 7944 C 765.121 3.35328 0.325059 0
M  V30 7945 O 765.651 3.78887 1.33445 0
M  V30 7946 N 763.857 2.88488 0.349718 0
M  V30 7947 H 763.404 2.53234 -0.472236 0
M  V30 7948 H 763.362 2.8987 1.21748 0
M  V30 7949 N 767.134 1.16236 1.06428 0
M  V30 7950 C 768.38 0.944431 1.79467 0
M  V30 7951 C 768.713 -0.526558 1.86925 0
M  V30 7952 O 767.988 -1.39061 1.35986 0
M  V30 7953 C 768.271 1.57092 3.24028 0
M  V30 7954 C 768.124 3.11315 3.24658 0
M  V30 7955 C 769.443 1.26447 4.21544 0
M  V30 7956 H 766.562 0.344521 0.651517 0
M  V30 7957 H 769.204 1.43545 1.24478 0
M  V30 7958 H 767.354 1.15337 3.70985 0
M  V30 7959 H 769.026 3.62042 2.85873 0
M  V30 7960 H 767.269 3.44716 2.6335 0
M  V30 7961 H 767.94 3.50269 4.26633 0
M  V30 7962 H 770.416 1.62581 3.83023 0
M  V30 7963 H 769.292 1.72885 5.20963 0
M  V30 7964 H 769.553 0.183068 4.41721 0
M  V30 7965 N 768.612 -1.24939 0.960631 0
M  V30 7966 C 770.023 -1.74701 0.658529 0
M  V30 7967 C 770.374 -1.77967 -0.825959 0
M  V30 7968 O 769.499 -1.40444 -1.64634 0
M  V30 7969 C 770.094 -3.17263 1.18867 0
M  V30 7970 C 768.653 -3.64561 0.936614 0
M  V30 7971 C 767.8 -2.43423 1.32817 0
M  V30 7972 H 770.751 -1.10741 1.13676 0
M  V30 7973 H 770.772 -3.76481 0.551589 0
M  V30 7974 H 770.284 -3.14854 2.26912 0
M  V30 7975 H 768.385 -3.72378 -0.128608 0
M  V30 7976 H 768.498 -4.52392 1.57729 0
M  V30 7977 H 766.862 -2.43513 0.746548 0
M  V30 7978 H 767.645 -2.437 2.41796 0
M  V30 7979 N 770.09 -0.729906 -1.39679 0
M  V30 7980 C 771.053 -0.0951668 -2.29002 0
M  V30 7981 C 772.053 0.672471 -1.46063 0
M  V30 7982 O 773.243 0.502245 -1.66803 0
M  V30 7983 C 770.375 0.874631 -3.29489 0
M  V30 7984 H 771.568 -0.882062 -2.86635 0
M  V30 7985 H 769.121 -0.495424 -1.4824 0
M  V30 7986 H 769.856 1.68807 -2.76902 0
M  V30 7987 H 769.641 0.326893 -3.90735 0
M  V30 7988 H 771.131 1.31548 -3.96339 0
M  V30 7989 N 771.568 1.50203 -0.477153 0
M  V30 7990 C 772.498 2.31517 0.303646 0
M  V30 7991 C 773.479 1.38696 0.984753 0
M  V30 7992 O 774.664 1.67615 0.980758 0
M  V30 7993 C 771.794 3.18598 1.38249 0
M  V30 7994 C 770.748 4.2002 0.822645 0
M  V30 7995 C 770.074 4.95878 2.00024 0
M  V30 7996 C 771.374 5.22023 -0.170185 0
M  V30 7997 H 773.068 2.97042 -0.375027 0
M  V30 7998 H 770.614 1.42848 -0.181802 0
M  V30 7999 H 772.567 3.74282 1.93625 0
M  V30 8000 H 771.291 2.5097 2.09002 0
M  V30 8001 H 769.95 3.65445 0.290813 0
M  V30 8002 H 769.598 4.24717 2.69489 0
M  V30 8003 H 769.298 5.64487 1.63183 0
M  V30 8004 H 770.822 5.54399 2.55878 0
M  V30 8005 H 772.236 5.72543 0.294606 0
M  V30 8006 H 770.633 5.98386 -0.453181 0
M  V30 8007 H 771.703 4.72396 -1.09408 0
M  V30 8008 N 773.046 0.209999 1.56195 0
M  V30 8009 C 774.274 -0.429996 2.02382 0
M  V30 8010 C 774.689 -1.54159 1.08998 0
M  V30 8011 O 774.046 -1.82239 0.0974856 0
M  V30 8012 C 774.097 -0.972433 3.48175 0
M  V30 8013 O 773.818 0.0948231 4.37997 0
M  V30 8014 C 775.319 -1.68683 4.09952 0
M  V30 8015 H 772.539 -0.106475 0.662498 0
M  V30 8016 H 775.083 0.323072 2.01932 0
M  V30 8017 H 773.238 -1.67582 3.49278 0
M  V30 8018 H 773.652 -0.31113 5.23576 0
M  V30 8019 H 775.126 -2.01851 5.13771 0
M  V30 8020 H 775.603 -2.59587 3.54276 0
M  V30 8021 H 776.209 -1.02893 4.12666 0
M  V30 8022 N 774.524 -1.57472 -0.0634922 0
M  V30 8023 C 775.801 -1.78736 -0.794538 0
M  V30 8024 C 776.181 -0.799645 -1.95369 0
M  V30 8025 O 775.529 0.165521 -2.279 0
M  V30 8026 C 775.739 -3.25471 -1.25975 0
M  V30 8027 C 777.087 -3.89528 -1.68976 0
M  V30 8028 O 778.111 -3.29412 -1.35521 0
M  V30 8029 O 776.97 -4.95305 -2.30944 0
M  V30 8030 H 774.064 -0.733813 -0.381376 0
M  V30 8031 H 776.61 -1.69646 -0.0429258 0
M  V30 8032 H 775.382 -3.88922 -0.430721 0
M  V30 8033 H 775.005 -3.39317 -2.07243 0
M  V30 8034 N 776.003 0.335068 -1.53997 0
M  V30 8035 C 776.953 1.4127 -1.7896 0
M  V30 8036 C 777.937 1.474 -0.64513 0
M  V30 8037 O 779.129 1.52127 -0.904785 0
M  V30 8038 C 776.258 2.78292 -2.01018 0
M  V30 8039 C 775.344 2.7652 -3.21555 0
M  V30 8040 N 775.735 2.44374 -4.42849 0
M  V30 8041 C 774.033 3.0766 -3.22895 0
M  V30 8042 C 774.734 2.51049 -5.24737 0
M  V30 8043 N 773.71 2.8702 -4.6165 0
M  V30 8044 H 777.512 1.15327 -2.70327 0
M  V30 8045 H 775.026 0.543483 -1.53036 0
M  V30 8046 H 777.023 3.55949 -2.17039 0
M  V30 8047 H 775.683 3.05175 -1.10898 0
M  V30 8048 H 776.694 2.17422 -4.70051 0
M  V30 8049 H 773.371 3.3966 -2.42771 0
M  V30 8050 H 774.761 2.29283 -6.31569 0
M  V30 8051 N 777.481 1.45874 0.596531 0
M  V30 8052 C 778.729 1.5017 1.35253 0
M  V30 8053 C 779.05 0.149246 1.94428 0
M  V30 8054 O 778.32 -0.82268 1.77789 0
M  V30 8055 H 776.9 0.553052 0.502138 0
M  V30 8056 H 779.562 1.81908 0.699671 0
M  V30 8057 H 778.658 2.24671 2.16632 0
M  V30 8058 N 778.959 -0.83999 1.33349 0
M  V30 8059 C 780.187 -1.62728 1.27778 0
M  V30 8060 C 780.602 -1.88191 -0.151505 0
M  V30 8061 O 779.959 -1.46128 -1.09329 0
M  V30 8062 C 780.01 -2.97813 2.04913 0
M  V30 8063 O 779.731 -2.73469 3.42266 0
M  V30 8064 C 781.232 -3.92245 2.0654 0
M  V30 8065 H 778.452 -0.506374 0.440257 0
M  V30 8066 H 780.996 -1.04637 1.75703 0
M  V30 8067 H 779.151 -3.52509 1.60674 0
M  V30 8068 H 779.565 -3.59483 3.81932 0
M  V30 8069 H 781.039 -4.84249 2.64966 0
M  V30 8070 H 781.516 -4.26332 1.05537 0
M  V30 8071 H 782.122 -3.43487 2.50793 0
M  V30 8072 N 780.437 -1.16799 -1.0581 0
M  V30 8073 C 781.367 -0.902241 -2.15364 0
M  V30 8074 C 782.348 0.153351 -1.69407 0
M  V30 8075 O 783.533 0.00442032 -1.94199 0
M  V30 8076 C 780.663 -0.407911 -3.44896 0
M  V30 8077 C 779.617 -1.40197 -4.04387 0
M  V30 8078 C 778.943 -0.765848 -5.29187 0
M  V30 8079 C 780.243 -2.77316 -4.42598 0
M  V30 8080 H 781.937 -1.81841 -2.37853 0
M  V30 8081 H 779.483 -0.875731 -1.14311 0
M  V30 8082 H 781.436 -0.20945 -4.20879 0
M  V30 8083 H 780.16 0.54378 -3.22041 0
M  V30 8084 H 778.819 -1.58707 -3.30466 0
M  V30 8085 H 778.467 0.192482 -5.02632 0
M  V30 8086 H 778.167 -1.42939 -5.69949 0
M  V30 8087 H 779.691 -0.577519 -6.07863 0
M  V30 8088 H 781.105 -2.62561 -5.09642 0
M  V30 8089 H 779.502 -3.4019 -4.94359 0
M  V30 8090 H 780.572 -3.32199 -3.53231 0
M  V30 8091 N 781.915 1.24427 -0.967243 0
M  V30 8092 C 783.326 1.74349 -0.667785 0
M  V30 8093 C 783.677 1.78403 0.816509 0
M  V30 8094 O 782.802 1.41315 1.63887 0
M  V30 8095 C 783.397 3.16628 -1.20548 0
M  V30 8096 C 781.956 3.64059 -0.955934 0
M  V30 8097 C 781.103 2.42715 -1.34106 0
M  V30 8098 H 784.054 1.10136 -1.14262 0
M  V30 8099 H 784.075 3.76183 -0.571547 0
M  V30 8100 H 783.587 3.13646 -2.28578 0
M  V30 8101 H 781.688 3.72441 0.108858 0
M  V30 8102 H 781.801 4.51549 -1.60126 0
M  V30 8103 H 780.165 2.43114 -0.759452 0
M  V30 8104 H 780.948 2.42414 -2.43085 0
M  V30 8105 N 783.393 0.737304 1.3929 0
M  V30 8106 C 784.323 0.113988 2.33222 0
M  V30 8107 C 785.304 -0.721695 1.54031 0
M  V30 8108 O 786.489 -0.666206 1.82415 0
M  V30 8109 C 783.619 -0.792319 3.38141 0
M  V30 8110 C 782.573 -0.0606178 4.27957 0
M  V30 8111 C 781.899 -1.08409 5.23595 0
M  V30 8112 C 783.199 1.09817 5.10625 0
M  V30 8113 H 784.893 0.898611 2.85596 0
M  V30 8114 H 782.439 0.433571 1.37318 0
M  V30 8115 H 784.392 -1.23793 4.02807 0
M  V30 8116 H 783.116 -1.60908 2.84211 0
M  V30 8117 H 781.775 0.365393 3.64775 0
M  V30 8118 H 781.423 -1.89449 4.6596 0
M  V30 8119 H 781.123 -0.599269 5.84536 0
M  V30 8120 H 782.647 -1.52936 5.91137 0
M  V30 8121 H 784.061 0.730892 5.68622 0
M  V30 8122 H 782.458 1.51278 5.80719 0
M  V30 8123 H 783.528 1.91878 4.45321 0
M  V30 8124 N 784.871 -1.49948 0.485112 0
M  V30 8125 C 786.287 -1.58984 0.140096 0
M  V30 8126 C 786.487 -1.49194 -1.35438 0
M  V30 8127 O 785.543 -1.35765 -2.12894 0
M  V30 8128 C 786.856 -2.92372 0.702769 0
M  V30 8129 C 788.404 -3.05801 0.66745 0
M  V30 8130 C 788.879 -4.41785 1.20791 0
M  V30 8131 N 790.37 -4.48234 1.16792 0
M  V30 8132 C 791.105 -5.51871 1.55646 0
M  V30 8133 N 790.601 -6.62692 2.02016 0
M  V30 8134 N 792.394 -5.42494 1.47161 0
M  V30 8135 H 784.545 -1.54555 1.45693 0
M  V30 8136 H 786.808 -0.731206 0.603359 0
M  V30 8137 H 786.514 -3.05056 1.75025 0
M  V30 8138 H 786.388 -3.76885 0.154205 0
M  V30 8139 H 788.775 -2.92757 -0.371157 0
M  V30 8140 H 788.856 -2.23011 1.25298 0
M  V30 8141 H 788.5 -4.55579 2.24522 0
M  V30 8142 H 788.43 -5.23188 0.598464 0
M  V30 8143 H 790.921 -3.68718 0.827982 0
M  V30 8144 H 791.234 -7.3785 2.29775 0
M  V30 8145 H 789.579 -6.63775 2.05979 0
M  V30 8146 H 792.77 -4.54806 1.10765 0
M  V30 8147 H 792.943 -6.2314 1.77766 0
M  V30 8148 N 786.349 -0.21828 -1.56081 0
M  V30 8149 C 787.297 0.709679 -2.21509 0
M  V30 8150 C 788.291 1.20221 -1.19346 0
M  V30 8151 O 789.497 1.16241 -1.37433 0
M  V30 8152 H 785.872 0.247271 -0.710184 0
M  V30 8153 H 787.843 0.134386 -2.98097 0
M  V30 8154 C 786.592 1.90853 -2.90638 0
M  V30 8155 H 785.915 1.53865 -3.69006 0
M  V30 8156 H 787.355 2.53568 -3.39822 0
M  V30 8157 C 785.814 2.76189 -1.92929 0
M  V30 8158 O 786.344 3.74842 -1.44416 0
M  V30 8159 N 784.55 2.42157 -1.6065 0
M  V30 8160 H 784.097 1.61987 -2.00294 0
M  V30 8161 H 784.055 2.99534 -0.955347 0
M  V30 8162 N 787.827 1.57504 0.0551401 0
M  V30 8163 C 789.052 1.92682 0.767352 0
M  V30 8164 C 789.477 0.81614 1.69472 0
M  V30 8165 O 788.835 -0.229989 1.79835 0
M  V30 8166 C 788.883 3.26866 1.52286 0
M  V30 8167 O 787.987 3.17274 2.63459 0
M  V30 8168 H 787.328 0.630502 0.208238 0
M  V30 8169 H 789.858 2.04592 0.0184026 0
M  V30 8170 H 789.868 3.61138 1.8985 0
M  V30 8171 H 788.543 4.07276 0.842541 0
M  V30 8172 H 787.12 2.94589 2.2863 0
M  V30 8173 N 789.305 -0.326896 1.54172 0
M  V30 8174 C 790.554 -1.06274 1.71431 0
M  V30 8175 C 790.867 -1.89282 0.493123 0
M  V30 8176 O 792.073 -2.65933 0.54699 0
M  V30 8177 C 790.529 -1.93892 3.03206 0
M  V30 8178 C 790.137 -1.16011 4.32719 0
M  V30 8179 C 791.881 -2.67232 3.29829 0
M  V30 8180 C 789.788 -2.02755 5.55558 0
M  V30 8181 H 788.718 -0.400475 0.638855 0
M  V30 8182 H 791.369 -0.321184 1.80667 0
M  V30 8183 H 789.751 -2.71933 2.87869 0
M  V30 8184 H 790.925 -0.427643 4.58811 0
M  V30 8185 H 789.24 -0.54367 4.12836 0
M  V30 8186 H 791.837 -3.32434 4.18798 0
M  V30 8187 H 792.18 -3.34692 2.47562 0
M  V30 8188 H 792.713 -1.96255 3.46018 0
M  V30 8189 H 789.452 -1.3981 6.40417 0
M  V30 8190 H 788.972 -2.73745 5.33689 0
M  V30 8191 H 790.651 -2.61419 5.91835 0
M  V30 8192 N 790.784 -1.46188 -0.588786 0
M  V30 8193 C 792.032 -1.50885 -1.34455 0
M  V30 8194 C 792.353 -0.159555 -1.94346 0
M  V30 8195 O 791.623 0.813239 -1.78222 0
M  V30 8196 H 790.203 -0.555707 -0.499198 0
M  V30 8197 H 792.865 -1.82277 -0.690014 0
M  V30 8198 H 791.961 -2.25816 -2.15438 0
M  V30 8199 N 792.262 0.832906 -1.33792 0
M  V30 8200 C 793.51 1.58539 -1.25338 0
M  V30 8201 C 793.831 1.94175 0.179204 0
M  V30 8202 O 793.101 1.61458 1.10941 0
M  V30 8203 H 791.681 0.58784 -0.460926 0
M  V30 8204 H 794.343 0.995064 -1.67584 0
M  V30 8205 H 793.439 2.51268 -1.85123 0
M  V30 8206 N 793.74 1.17359 1.05189 0
M  V30 8207 C 794.986 0.963413 1.78455 0
M  V30 8208 C 795.319 -0.506703 1.87473 0
M  V30 8209 O 794.594 -1.37611 1.37453 0
M  V30 8210 C 794.877 1.60519 3.22344 0
M  V30 8211 C 794.73 3.14741 3.21338 0
M  V30 8212 C 796.049 1.3091 4.20179 0
M  V30 8213 H 793.168 0.351412 0.647826 0
M  V30 8214 H 795.81 1.44858 1.22948 0
M  V30 8215 H 793.96 1.19265 3.69741 0
M  V30 8216 H 795.632 3.65053 2.82017 0
M  V30 8217 H 793.875 3.4749 2.59679 0
M  V30 8218 H 794.546 3.54775 4.22894 0
M  V30 8219 H 797.022 1.66635 3.81277 0
M  V30 8220 H 795.898 1.784 5.191 0
M  V30 8221 H 796.159 0.229908 4.41502 0
M  V30 8222 N 795.218 -1.23913 0.973828 0
M  V30 8223 C 796.15 -2.24397 0.466763 0
M  V30 8224 C 797.163 -1.57078 -0.427828 0
M  V30 8225 O 798.352 -1.76973 -0.233019 0
M  V30 8226 C 795.452 -3.37141 -0.344798 0
M  V30 8227 C 794.625 -4.34037 0.541349 0
M  V30 8228 C 793.684 -5.2576 -0.215243 0
M  V30 8229 O 792.71 -5.67842 0.39291 0
M  V30 8230 N 793.912 -5.60702 -1.5031 0
M  V30 8231 H 796.677 -2.68536 1.33074 0
M  V30 8232 H 794.238 -1.38017 0.846346 0
M  V30 8233 H 796.23 -3.95476 -0.859133 0
M  V30 8234 H 794.8 -2.92239 -1.10974 0
M  V30 8235 H 794.02 -3.74302 1.23659 0
M  V30 8236 H 795.308 -4.95738 1.1455 0
M  V30 8237 H 794.706 -5.28451 -2.01882 0
M  V30 8238 H 793.263 -6.21538 -1.96301 0
M  V30 8239 N 796.696 -0.74468 -1.38897 0
M  V30 8240 C 798.112 -0.421302 -1.53939 0
M  V30 8241 C 798.312 1.06668 -1.70951 0
M  V30 8242 O 797.368 1.85278 -1.71547 0
M  V30 8243 C 798.681 -1.21278 -2.75159 0
M  V30 8244 C 800.229 -1.20196 -2.89001 0
M  V30 8245 C 800.704 -1.97621 -4.13171 0
M  V30 8246 N 802.195 -1.94836 -4.2023 0
M  V30 8247 C 802.93 -2.51545 -5.15279 0
M  V30 8248 N 802.426 -3.1693 -6.16058 0
M  V30 8249 N 804.219 -2.41524 -5.07565 0
M  V30 8250 H 796.37 -1.70914 -1.26103 0
M  V30 8251 H 798.633 -0.724058 -0.611919 0
M  V30 8252 H 798.339 -2.26609 -2.68963 0
M  V30 8253 H 798.213 -0.823677 -3.68097 0
M  V30 8254 H 800.6 -0.156742 -2.94683 0
M  V30 8255 H 800.681 -1.63051 -1.97099 0
M  V30 8256 H 800.325 -3.02149 -4.0825 0
M  V30 8257 H 800.255 -1.52166 -5.04136 0
M  V30 8258 H 802.746 -1.4721 -3.48048 0
M  V30 8259 H 803.059 -3.57644 -6.85062 0
M  V30 8260 H 801.404 -3.21023 -6.16417 0
M  V30 8261 H 804.595 -1.90077 -4.27771 0
M  V30 8262 H 804.768 -2.86016 -5.81462 0
M  V30 8263 N 798.174 1.49689 -0.493057 0
M  V30 8264 C 799.42 2.02727 0.0543518 0
M  V30 8265 C 799.753 1.37264 1.37376 0
M  V30 8266 O 799.028 0.505644 1.87812 0
M  V30 8267 C 799.311 3.59456 0.215226 0
M  V30 8268 C 799.164 4.35459 -1.12675 0
M  V30 8269 C 800.483 4.29511 0.959586 0
M  V30 8270 H 797.602 0.736773 0.0182786 0
M  V30 8271 H 800.244 1.78792 -0.642924 0
M  V30 8272 H 798.394 3.79981 0.809122 0
M  V30 8273 H 800.066 4.2645 -1.75891 0
M  V30 8274 H 798.309 3.9833 -1.71801 0
M  V30 8275 H 798.98 5.43454 -0.967578 0
M  V30 8276 H 801.456 4.13594 0.455977 0
M  V30 8277 H 800.332 5.38939 1.04098 0
M  V30 8278 H 800.593 3.94202 2.00144 0
M  V30 8279 N 799.652 0.226554 1.55963 0
M  V30 8280 C 800.88 -0.408507 2.02827 0
M  V30 8281 C 801.295 -1.52994 1.10627 0
M  V30 8282 O 800.652 -1.82126 0.116809 0
M  V30 8283 C 800.703 -0.93545 3.49187 0
M  V30 8284 O 800.424 0.141273 4.37872 0
M  V30 8285 C 801.925 -1.64325 4.11719 0
M  V30 8286 H 799.145 -0.099442 0.66359 0
M  V30 8287 H 801.689 0.344471 2.01578 0
M  V30 8288 H 799.844 -1.63868 3.51036 0
M  V30 8289 H 800.258 -0.25558 5.23877 0
M  V30 8290 H 801.732 -1.9639 5.15883 0
M  V30 8291 H 802.209 -2.55815 3.57009 0
M  V30 8292 H 802.815 -0.9851 4.13734 0
M  V30 8293 N 801.13 -1.57531 -0.0467866 0
M  V30 8294 C 802.379 -1.87632 -0.740069 0
M  V30 8295 C 802.692 -0.822691 -1.77457 0
M  V30 8296 O 803.898 -1.01235 -2.5192 0
M  V30 8297 C 802.354 -3.32917 -1.36727 0
M  V30 8298 C 801.962 -4.46469 -0.370035 0
M  V30 8299 C 803.706 -3.72189 -2.04146 0
M  V30 8300 C 801.613 -5.82806 -1.00457 0
M  V30 8301 H 800.543 -0.70002 -0.280158 0
M  V30 8302 H 803.194 -1.83499 0.00607151 0
M  V30 8303 H 801.576 -3.31739 -2.16252 0
M  V30 8304 H 802.75 -4.59085 0.397217 0
M  V30 8305 H 801.065 -4.15914 0.201079 0
M  V30 8306 H 803.662 -4.71357 -2.52441 0
M  V30 8307 H 804.005 -3.03268 -2.85192 0
M  V30 8308 H 804.538 -3.75465 -1.3142 0
M  V30 8309 H 801.277 -6.55083 -0.233907 0
M  V30 8310 H 800.797 -5.73944 -1.74209 0
M  V30 8311 H 802.476 -6.28961 -1.51713 0
M  V30 8312 N 802.608 0.318715 -1.54344 0
M  V30 8313 C 803.836 1.0755 -1.7675 0
M  V30 8314 C 804.251 1.81543 -0.518422 0
M  V30 8315 O 803.608 1.75198 0.511078 0
M  V30 8316 C 803.659 2.06983 -2.96378 0
M  V30 8317 O 803.38 1.35995 -4.16458 0
M  V30 8318 C 804.881 2.94841 -3.31034 0
M  V30 8319 H 802.101 0.319711 -0.589937 0
M  V30 8320 H 804.645 0.363369 -2.01246 0
M  V30 8321 H 802.8 2.73724 -2.74142 0
M  V30 8322 H 803.214 2.02623 -4.83781 0
M  V30 8323 H 804.688 3.60496 -4.18027 0
M  V30 8324 H 805.165 3.62199 -2.48412 0
M  V30 8325 H 805.771 2.33656 -3.55366 0
M  V30 8326 N 804.086 1.46499 0.581025 0
M  V30 8327 C 805.363 1.42372 1.34125 0
M  V30 8328 C 805.743 0.108073 2.10823 0
M  V30 8329 O 805.091 -0.910366 2.09582 0
M  V30 8330 C 805.301 2.65445 2.26583 0
M  V30 8331 C 806.649 3.11664 2.88359 0
M  V30 8332 O 807.673 2.66006 2.36896 0
M  V30 8333 O 806.532 3.90974 3.81839 0
M  V30 8334 H 803.626 0.566262 0.602724 0
M  V30 8335 H 806.172 1.58667 0.601903 0
M  V30 8336 H 804.944 3.52756 1.69348 0
M  V30 8337 H 804.567 2.51618 3.07854 0
M  V30 8338 N 805.565 -0.825799 1.34232 0
M  V30 8339 C 806.528 -1.91808 1.25468 0
M  V30 8340 C 807.528 -1.59893 0.170567 0
M  V30 8341 O 808.718 -1.68986 0.422996 0
M  V30 8342 C 805.85 -3.27786 0.93644 0
M  V30 8343 H 807.043 -2.01003 2.22571 0
M  V30 8344 H 804.596 -1.01944 1.18479 0
M  V30 8345 H 805.331 -3.24285 -0.0315408 0
M  V30 8346 H 805.116 -3.52333 1.72057 0
M  V30 8347 H 806.606 -4.07782 0.900214 0
M  V30 8348 N 807.043 -1.17915 -1.04565 0
M  V30 8349 C 808.459 -0.927761 -1.29864 0
M  V30 8350 C 808.659 0.409536 -1.97294 0
M  V30 8351 O 807.715 1.14505 -2.25044 0
M  V30 8352 C 809.028 -2.08967 -2.16225 0
M  V30 8353 C 810.576 -2.12741 -2.29587 0
M  V30 8354 C 811.051 -3.28335 -3.19312 0
M  V30 8355 N 812.542 -3.28164 -3.26898 0
M  V30 8356 C 813.277 -4.14249 -3.96466 0
M  V30 8357 N 812.773 -5.10457 -4.68407 0
M  V30 8358 N 814.566 -4.02179 -3.92694 0
M  V30 8359 H 806.717 -2.03983 -0.592011 0
M  V30 8360 H 808.98 -0.891023 -0.323701 0
M  V30 8361 H 808.686 -3.05654 -1.73979 0
M  V30 8362 H 808.56 -2.04606 -3.16885 0
M  V30 8363 H 810.947 -1.16636 -2.71072 0
M  V30 8364 H 811.028 -2.21162 -1.28535 0
M  V30 8365 H 810.672 -4.2471 -2.78539 0
M  V30 8366 H 810.602 -3.17151 -4.20384 0
M  V30 8367 H 813.093 -2.58511 -2.75646 0
M  V30 8368 H 813.406 -5.72526 -5.1907 0
M  V30 8369 H 811.751 -5.14422 -4.67328 0
M  V30 8370 H 814.942 -3.26308 -3.3562 0
M  V30 8371 H 815.115 -4.69486 -4.4664 0
M  V30 8372 N 808.521 1.23394 -0.980386 0
M  V30 8373 C 809.937 1.43961 -0.689008 0
M  V30 8374 C 810.137 1.87229 0.744809 0
M  V30 8375 O 809.193 2.01831 1.51725 0
M  V30 8376 C 810.506 2.49128 -1.68392 0
M  V30 8377 C 812.054 2.62941 -1.69796 0
M  V30 8378 C 812.529 3.71317 -2.68118 0
M  V30 8379 N 814.02 3.7876 -2.66636 0
M  V30 8380 C 814.755 4.62176 -3.39383 0
M  V30 8381 N 814.251 5.49682 -4.21688 0
M  V30 8382 N 816.044 4.56372 -3.28147 0
M  V30 8383 H 808.195 0.936106 -1.90659 0
M  V30 8384 H 810.458 0.473023 -0.821555 0
M  V30 8385 H 810.164 2.24252 -2.70931 0
M  V30 8386 H 810.038 3.47514 -1.46675 0
M  V30 8387 H 812.425 2.87168 -0.679617 0
M  V30 8388 H 812.506 1.64871 -1.95579 0
M  V30 8389 H 812.15 3.4784 -3.70095 0
M  V30 8390 H 812.08 4.68929 -2.3961 0
M  V30 8391 H 814.571 3.16226 -2.06904 0
M  V30 8392 H 814.884 6.10323 -4.74053 0
M  V30 8393 H 813.229 5.49306 -4.25779 0
M  V30 8394 H 816.42 3.87029 -2.63299 0
M  V30 8395 H 816.593 5.21153 -3.85102 0
M  V30 8396 N 809.999 0.752036 1.385 0
M  V30 8397 C 811.415 0.42946 1.53713 0
M  V30 8398 C 811.615 -1.0576 1.71514 0
M  V30 8399 O 810.671 -1.84366 1.72527 0
M  V30 8400 C 811.984 1.22735 2.74511 0
M  V30 8401 C 813.532 1.21727 2.8836 0
M  V30 8402 C 814.007 1.99809 4.12117 0
M  V30 8403 N 815.498 1.97062 4.19191 0
M  V30 8404 C 816.233 2.54274 5.13938 0
M  V30 8405 N 815.729 3.20193 6.14368 0
M  V30 8406 N 817.522 2.44212 5.06277 0
M  V30 8407 H 809.673 1.71581 1.25195 0
M  V30 8408 H 811.936 0.727293 0.60807 0
M  V30 8409 H 811.642 2.28032 2.67758 0
M  V30 8410 H 811.516 0.843186 3.67655 0
M  V30 8411 H 813.903 0.172367 2.94596 0
M  V30 8412 H 813.984 1.64094 1.96232 0
M  V30 8413 H 813.628 3.0431 4.06642 0
M  V30 8414 H 813.558 1.54837 5.03322 0
M  V30 8415 H 816.049 1.49054 3.47263 0
M  V30 8416 H 816.362 3.61272 6.83156 0
M  V30 8417 H 814.707 3.24287 6.14705 0
M  V30 8418 H 817.898 1.92343 4.26757 0
M  V30 8419 H 818.071 2.89096 5.79937 0
M  V30 8420 N 811.477 -1.49425 0.500989 0
M  V30 8421 C 812.705 -2.06861 -0.0403443 0
M  V30 8422 C 813.12 -1.36132 -1.30819 0
M  V30 8423 O 812.477 -0.439647 -1.77125 0
M  V30 8424 C 812.528 -3.6027 -0.297902 0
M  V30 8425 O 812.249 -4.28338 0.919686 0
M  V30 8426 C 813.75 -4.34419 -0.882876 0
M  V30 8427 H 810.97 -0.670688 0.0204619 0
M  V30 8428 H 813.514 -1.92207 0.698342 0
M  V30 8429 H 811.669 -3.74627 -0.98657 0
M  V30 8430 H 812.083 -5.2004 0.682528 0
M  V30 8431 H 813.557 -5.42631 -1.01268 0
M  V30 8432 H 814.034 -3.96898 -1.88066 0
M  V30 8433 H 814.64 -4.24669 -0.231677 0
M  V30 8434 N 812.955 -0.234822 -1.55841 0
M  V30 8435 C 814.195 0.394944 -2.00548 0
M  V30 8436 C 814.559 1.56002 -1.11926 0
M  V30 8437 O 815.76 2.2567 -1.46037 0
M  V30 8438 C 814.031 0.805896 -3.48195 0
M  V30 8439 S 815.59 1.4279 -4.14918 0
M  V30 8440 H 812.408 0.124802 -0.699961 0
M  V30 8441 H 815.01 -0.347224 -1.92392 0
M  V30 8442 H 813.714 -0.0515271 -4.10368 0
M  V30 8443 H 813.245 1.58055 -3.60253 0
M  V30 8444 H 815.26 2.71699 -4.15204 0
M  V30 8445 N 814.433 1.57553 0.0384317 0
M  V30 8446 C 815.844 1.77258 0.586211 0
M  V30 8447 C 816.195 0.864706 1.76117 0
M  V30 8448 O 815.32 0.057141 2.16325 0
M  V30 8449 C 815.915 3.21453 1.07021 0
M  V30 8450 C 814.474 3.42387 1.56358 0
M  V30 8451 C 813.621 2.72801 0.497508 0
M  V30 8452 H 816.572 1.57585 -0.187796 0
M  V30 8453 H 816.593 3.27451 1.93794 0
M  V30 8454 H 816.105 3.87505 0.214851 0
M  V30 8455 H 814.206 2.81497 2.44111 0
M  V30 8456 H 814.319 4.50968 1.61754 0
M  V30 8457 H 812.683 2.36305 0.95038 0
M  V30 8458 H 813.466 3.41529 -0.348234 0
M  V30 8459 N 815.911 -0.310526 1.54511 0
M  V30 8460 C 817.141 -1.06456 1.77061 0
M  V30 8461 C 817.549 -1.81755 0.525528 0
M  V30 8462 O 816.892 -1.76365 -0.513904 0
M  V30 8463 C 816.954 -2.09856 2.91892 0
M  V30 8464 C 816.618 -1.53838 4.30329 0
M  V30 8465 C 817.615 -0.973358 5.10707 0
M  V30 8466 C 815.3 -1.57688 4.76906 0
M  V30 8467 C 817.294 -0.454283 6.35779 0
M  V30 8468 C 814.981 -1.05393 6.01943 0
M  V30 8469 C 815.979 -0.493595 6.81214 0
M  V30 8470 O 815.667 0.0214506 8.03897 0
M  V30 8471 H 815.399 -0.321913 0.594431 0
M  V30 8472 H 817.953 -0.358289 2.02251 0
M  V30 8473 H 816.183 -2.84137 2.62304 0
M  V30 8474 H 817.872 -2.71085 3.02106 0
M  V30 8475 H 818.638 -0.936588 4.75871 0
M  V30 8476 H 814.517 -2.00242 4.1524 0
M  V30 8477 H 818.061 -0.0162657 6.97598 0
M  V30 8478 H 813.958 -1.08782 6.36268 0
M  V30 8479 H 814.726 -0.0927478 8.18447 0
M  V30 8480 N 817.389 -1.46805 -0.573248 0
M  V30 8481 C 818.635 -1.5283 -1.33307 0
M  V30 8482 C 818.968 -0.183287 -1.93333 0
M  V30 8483 O 818.243 0.806354 -1.76998 0
M  V30 8484 C 818.526 -2.63414 -2.45531 0
M  V30 8485 C 818.379 -4.07478 -1.90478 0
M  V30 8486 C 819.698 -2.70014 -3.47535 0
M  V30 8487 H 816.817 -0.556371 -0.483343 0
M  V30 8488 H 819.459 -1.78787 -0.643066 0
M  V30 8489 H 817.609 -2.41412 -3.04389 0
M  V30 8490 H 819.281 -4.40795 -1.36004 0
M  V30 8491 H 817.524 -4.16511 -1.21248 0
M  V30 8492 H 818.195 -4.80598 -2.71531 0
M  V30 8493 H 820.671 -2.89817 -2.98572 0
M  V30 8494 H 819.547 -3.49192 -4.23504 0
M  V30 8495 H 819.808 -1.76436 -4.05367 0
M  V30 8496 N 818.867 0.818669 -1.34668 0
M  V30 8497 C 820.097 1.60441 -1.30162 0
M  V30 8498 C 820.505 1.88783 0.125579 0
M  V30 8499 O 819.848 1.48281 1.08437 0
M  V30 8500 C 819.91 2.96794 -2.02864 0
M  V30 8501 C 819.574 2.91327 -3.52105 0
M  V30 8502 C 820.571 2.65611 -4.4693 0
M  V30 8503 C 818.256 3.10825 -3.9458 0
M  V30 8504 C 820.25 2.59452 -5.82206 0
M  V30 8505 C 817.937 3.0429 -5.29954 0
M  V30 8506 C 818.935 2.78637 -6.23579 0
M  V30 8507 O 818.623 2.72042 -7.56471 0
M  V30 8508 H 818.355 0.505278 -0.449077 0
M  V30 8509 H 820.909 1.02632 -1.77921 0
M  V30 8510 H 819.139 3.56538 -1.49725 0
M  V30 8511 H 820.828 3.57837 -1.91592 0
M  V30 8512 H 821.594 2.50278 -4.15434 0
M  V30 8513 H 817.473 3.29807 -3.221 0
M  V30 8514 H 821.017 2.39349 -6.55254 0
M  V30 8515 H 816.914 3.19177 -5.61067 0
M  V30 8516 H 817.682 2.87738 -7.66257 0
M  V30 8517 N 820.346 1.18468 1.03938 0
M  V30 8518 C 821.293 0.912859 2.1198 0
M  V30 8519 C 822.263 -0.14824 1.65437 0
M  V30 8520 O 823.448 -0.008331 1.90798 0
M  V30 8521 C 820.588 0.446114 3.42204 0
M  V30 8522 C 819.701 1.57278 4.02353 0
M  V30 8523 C 818.836 1.05863 5.20544 0
M  V30 8524 C 817.875 2.1599 5.72726 0
M  V30 8525 N 817.012 1.65959 6.82204 0
M  V30 8526 H 821.852 1.83798 2.34569 0
M  V30 8527 H 819.389 0.916504 1.15059 0
M  V30 8528 H 821.347 0.15697 4.16905 0
M  V30 8529 H 819.977 -0.442025 3.19759 0
M  V30 8530 H 819.029 1.97737 3.24968 0
M  V30 8531 H 820.341 2.40289 4.37107 0
M  V30 8532 H 819.495 0.724087 6.02364 0
M  V30 8533 H 818.234 0.198116 4.87297 0
M  V30 8534 H 817.239 2.50287 4.89527 0
M  V30 8535 H 818.464 3.02479 6.08016 0
M  V30 8536 H 816.41 0.82199 6.5083 0
M  V30 8537 H 816.327 2.42567 7.16029 0
M  V30 8538 H 817.595 1.35436 7.67644 0
M  V30 8539 N 821.824 -1.22873 0.986916 0
M  V30 8540 C 822.787 -2.2281 0.537442 0
M  V30 8541 C 823.787 -1.56331 -0.37646 0
M  V30 8542 O 824.977 -1.73376 -0.169247 0
M  V30 8543 C 822.109 -3.40195 -0.219082 0
M  V30 8544 H 823.302 -2.64089 1.42116 0
M  V30 8545 H 820.855 -1.35819 0.773488 0
M  V30 8546 H 821.59 -3.04381 -1.11905 0
M  V30 8547 H 821.375 -3.89657 0.437026 0
M  V30 8548 H 822.865 -4.14326 -0.521926 0
M  V30 8549 N 823.302 -0.75937 -1.38099 0
M  V30 8550 C 824.232 -0.151077 -2.33011 0
M  V30 8551 C 825.213 0.697099 -1.5516 0
M  V30 8552 O 826.398 0.637101 -1.83452 0
M  V30 8553 C 823.528 0.738423 -3.39359 0
M  V30 8554 C 822.482 -0.0074741 -4.27999 0
M  V30 8555 C 821.808 1.00066 -5.25253 0
M  V30 8556 C 823.108 -1.17926 -5.08813 0
M  V30 8557 H 824.802 -0.943933 -2.84131 0
M  V30 8558 H 822.348 -0.455362 -1.36611 0
M  V30 8559 H 824.301 1.17369 -4.04725 0
M  V30 8560 H 823.025 1.56366 -2.86735 0
M  V30 8561 H 821.684 -0.423379 -3.64147 0
M  V30 8562 H 821.332 1.82012 -4.68914 0
M  V30 8563 H 821.032 0.506199 -5.85416 0
M  V30 8564 H 822.556 1.43512 -5.93495 0
M  V30 8565 H 823.97 -0.821262 -5.67387 0
M  V30 8566 H 822.367 -1.60497 -5.78239 0
M  V30 8567 H 823.437 -1.98938 -4.42212 0
M  V30 8568 N 824.78 1.49157 -0.508906 0
M  V30 8569 C 826.028 2.02073 0.0327335 0
M  V30 8570 C 826.349 1.39012 1.3675 0
M  V30 8571 O 825.619 0.548153 1.88075 0
M  V30 8572 H 824.199 0.746848 0.0150864 0
M  V30 8573 H 826.861 1.83097 -0.667946 0
M  V30 8574 H 825.957 3.11707 0.1566 0
M  V30 8575 N 826.258 0.243083 1.55714 0
M  V30 8576 C 827.507 -0.383188 1.98027 0
M  V30 8577 C 827.82 -1.59347 1.13436 0
M  V30 8578 O 829.026 -2.29065 1.45745 0
M  V30 8579 C 827.482 -0.733135 3.52354 0
M  V30 8580 C 827.09 0.455539 4.45678 0
M  V30 8581 C 828.834 -1.32381 4.03331 0
M  V30 8582 C 826.741 0.0819591 5.91343 0
M  V30 8583 H 825.671 -0.146944 0.739543 0
M  V30 8584 H 828.322 0.342697 1.80272 0
M  V30 8585 H 826.704 -1.51704 3.65789 0
M  V30 8586 H 827.878 1.23291 4.44 0
M  V30 8587 H 826.193 0.960886 4.05162 0
M  V30 8588 H 828.79 -1.61658 5.09677 0
M  V30 8589 H 829.133 -2.24698 3.50452 0
M  V30 8590 H 829.666 -0.602885 3.93205 0
M  V30 8591 H 826.405 0.972171 6.48251 0
M  V30 8592 H 825.925 -0.659291 5.96166 0
M  V30 8593 H 827.604 -0.3372 6.46121 0
M  V30 8594 N 827.736 -1.57571 -0.0300757 0
M  V30 8595 C 828.982 -1.89506 -0.722159 0
M  V30 8596 C 829.315 -0.840699 -1.7506 0
M  V30 8597 O 828.59 0.144358 -1.93964 0
M  V30 8598 C 828.873 -3.32081 -1.39262 0
M  V30 8599 C 828.726 -4.48211 -0.377768 0
M  V30 8600 C 830.045 -3.73557 -2.32687 0
M  V30 8601 H 827.164 -0.689213 -0.261064 0
M  V30 8602 H 829.806 -1.89994 0.0150388 0
M  V30 8603 H 827.956 -3.31796 -2.02098 0
M  V30 8604 H 829.628 -4.6063 0.248591 0
M  V30 8605 H 827.871 -4.3274 0.303045 0
M  V30 8606 H 828.542 -5.44854 -0.885347 0
M  V30 8607 H 831.018 -3.75202 -1.79896 0
M  V30 8608 H 829.894 -4.74125 -2.7658 0
M  V30 8609 H 830.155 -3.05759 -3.19317 0
M  V30 8610 N 829.214 0.302327 -1.54673 0
M  V30 8611 C 830.439 1.06103 -1.78205 0
M  V30 8612 C 830.864 1.80204 -0.53926 0
M  V30 8613 O 830.222 1.73975 0.510142 0
M  V30 8614 C 830.27 2.01829 -2.98827 0
M  V30 8615 O 829.374 3.10108 -2.71858 0
M  V30 8616 H 828.715 0.30487 -0.589873 0
M  V30 8617 H 831.245 0.340153 -2.01753 0
M  V30 8618 H 831.255 2.44319 -3.2676 0
M  V30 8619 H 829.93 1.473 -3.88942 0
M  V30 8620 H 828.507 2.72142 -2.54937 0
M  V30 8621 N 830.692 1.47107 0.565454 0
M  V30 8622 C 832.103 1.47266 1.1476 0
M  V30 8623 C 832.454 0.222841 1.9493 0
M  V30 8624 O 831.579 -0.672862 2.05673 0
M  V30 8625 C 832.174 2.66822 2.08785 0
M  V30 8626 C 830.733 2.69967 2.62288 0
M  V30 8627 C 829.88 2.40236 1.38499 0
M  V30 8628 H 832.831 1.54736 0.352479 0
M  V30 8629 H 832.852 2.43323 2.92531 0
M  V30 8630 H 832.364 3.5777 1.50408 0
M  V30 8631 H 830.465 1.83137 3.24487 0
M  V30 8632 H 830.578 3.70426 3.03845 0
M  V30 8633 H 828.942 1.90648 1.68895 0
M  V30 8634 H 829.725 3.33381 0.819274 0
M  V30 8635 N 832.17 -0.811516 1.35101 0
M  V30 8636 C 833.586 -1.10634 1.15031 0
M  V30 8637 C 833.786 -2.01459 -0.0405379 0
M  V30 8638 O 832.842 -2.42235 -0.712635 0
M  V30 8639 C 834.155 -1.74207 2.45097 0
M  V30 8640 C 835.703 -1.8665 2.51258 0
M  V30 8641 C 836.178 -2.53638 3.81355 0
M  V30 8642 N 837.669 -2.61128 3.82579 0
M  V30 8643 C 838.404 -3.13717 4.79968 0
M  V30 8644 N 837.9 -3.66782 5.87744 0
M  V30 8645 N 839.693 -3.12224 4.67411 0
M  V30 8646 H 831.844 -0.207641 2.11383 0
M  V30 8647 H 834.107 -0.154697 0.935293 0
M  V30 8648 H 833.813 -1.14936 3.32389 0
M  V30 8649 H 833.687 -2.73958 2.59281 0
M  V30 8650 H 836.074 -2.45066 1.64398 0
M  V30 8651 H 836.155 -0.857678 2.40993 0
M  V30 8652 H 835.799 -1.95873 4.68611 0
M  V30 8653 H 835.729 -3.55047 3.88907 0
M  V30 8654 H 838.22 -2.23527 3.04703 0
M  V30 8655 H 838.533 -4.05194 6.58056 0
M  V30 8656 H 836.878 -3.64994 5.91443 0
M  V30 8657 H 840.069 -2.70042 3.82354 0
M  V30 8658 H 840.242 -3.52903 5.43474 0
M  V30 8659 N 833.648 -1.19017 -1.03309 0
M  V30 8660 C 834.894 -0.991681 -1.769 0
M  V30 8661 C 835.227 0.476813 -1.88255 0
M  V30 8662 O 834.502 1.35407 -1.39625 0
M  V30 8663 C 834.785 -1.65627 -3.19749 0
M  V30 8664 C 834.638 -3.19813 -3.1629 0
M  V30 8665 C 835.957 -1.37579 -4.18043 0
M  V30 8666 H 833.076 -0.361674 -0.642153 0
M  V30 8667 H 835.718 -1.46795 -1.20628 0
M  V30 8668 H 833.868 -1.25132 -3.67796 0
M  V30 8669 H 835.54 -3.69494 -2.76174 0
M  V30 8670 H 833.783 -3.51578 -2.54117 0
M  V30 8671 H 834.454 -3.61457 -4.17196 0
M  V30 8672 H 836.93 -1.72679 -3.78578 0
M  V30 8673 H 835.806 -1.86636 -5.16196 0
M  V30 8674 H 836.067 -0.300118 -4.4108 0
M  V30 8675 N 835.127 1.22348 -0.993418 0
M  V30 8676 C 836.057 2.26584 -0.564088 0
M  V30 8677 C 837.038 1.65102 0.409298 0
M  V30 8678 O 838.223 1.91872 0.299819 0
M  V30 8679 C 835.353 3.47087 0.121554 0
M  V30 8680 C 834.307 4.21009 -0.770429 0
M  V30 8681 C 833.633 5.34678 0.0481586 0
M  V30 8682 C 834.933 4.79636 -2.06752 0
M  V30 8683 H 836.627 2.62749 -1.43538 0
M  V30 8684 H 834.173 1.26303 -0.691628 0
M  V30 8685 H 836.126 4.19166 0.433303 0
M  V30 8686 H 834.85 3.1002 1.0274 0
M  V30 8687 H 833.509 3.50764 -1.06583 0
M  V30 8688 H 833.157 4.93852 0.954933 0
M  V30 8689 H 832.857 5.85061 -0.545641 0
M  V30 8690 H 834.381 6.09573 0.353991 0
M  V30 8691 H 835.795 5.43654 -1.81969 0
M  V30 8692 H 834.192 5.4036 -2.61019 0
M  V30 8693 H 835.262 3.99659 -2.74592 0
M  V30 8694 N 836.605 0.766683 1.37694 0
M  V30 8695 C 837.83 0.338715 2.04615 0
M  V30 8696 C 838.255 -1.02918 1.57447 0
M  V30 8697 O 837.613 -1.65849 0.732386 0
M  V30 8698 C 837.661 0.385284 3.58536 0
M  V30 8699 O 836.765 -0.616081 4.07772 0
M  V30 8700 H 836.106 0.147527 0.647404 0
M  V30 8701 H 838.636 1.04146 1.7611 0
M  V30 8702 H 838.646 0.240782 4.07289 0
M  V30 8703 H 837.321 1.38325 3.92223 0
M  V30 8704 H 835.898 -0.435115 3.70353 0
M  V30 8705 N 838.083 -1.48885 0.516809 0
M  V30 8706 C 839.308 -2.0739 -0.0205201 0
M  V30 8707 C 839.733 -1.37259 -1.28614 0
M  V30 8708 O 839.091 -0.434304 -1.76021 0
M  V30 8709 C 839.139 -3.59793 -0.24104 0
M  V30 8710 O 838.243 -3.90957 -1.31251 0
M  V30 8711 H 837.584 -0.663167 0.0332564 0
M  V30 8712 H 840.114 -1.91477 0.720956 0
M  V30 8713 H 840.124 -4.0531 -0.467737 0
M  V30 8714 H 838.799 -4.10244 0.68356 0
M  V30 8715 H 837.376 -3.57234 -1.06951 0
M  V30 8716 N 839.561 -0.251338 -1.55583 0
M  V30 8717 C 840.977 0.103409 -1.59265 0
M  V30 8718 C 841.177 1.56559 -1.26852 0
M  V30 8719 O 840.233 2.31071 -1.01796 0
M  V30 8720 C 841.546 -0.249781 -2.99661 0
M  V30 8721 C 843.094 -0.194442 -3.12395 0
M  V30 8722 C 843.569 -0.521728 -4.55019 0
M  V30 8723 N 845.06 -0.472393 -4.60785 0
M  V30 8724 C 845.795 -0.698737 -5.69127 0
M  V30 8725 N 845.291 -0.988443 -6.85713 0
M  V30 8726 N 847.084 -0.629143 -5.58568 0
M  V30 8727 H 839.235 -1.20484 -1.74921 0
M  V30 8728 H 841.498 -0.485092 -0.814488 0
M  V30 8729 H 841.204 -1.26577 -3.28133 0
M  V30 8730 H 841.078 0.420973 -3.74844 0
M  V30 8731 H 843.465 0.812229 -2.83702 0
M  V30 8732 H 843.546 -0.899111 -2.39478 0
M  V30 8733 H 843.19 -1.52597 -4.84434 0
M  V30 8734 H 843.12 0.204468 -5.26203 0
M  V30 8735 H 845.611 -0.257386 -3.77022 0
M  V30 8736 H 845.924 -1.14846 -7.64219 0
M  V30 8737 H 844.269 -1.02596 -6.87386 0
M  V30 8738 H 847.46 -0.402826 -4.66364 0
M  V30 8739 H 847.633 -0.808935 -6.42931 0
M  V30 8740 N 841.039 1.57585 0.0217189 0
M  V30 8741 C 842.267 1.93871 0.722619 0
M  V30 8742 C 842.682 0.851706 1.68498 0
M  V30 8743 O 842.039 -0.17127 1.81695 0
M  V30 8744 C 842.09 3.30114 1.47333 0
M  V30 8745 O 841.811 4.34639 0.549597 0
M  V30 8746 C 843.312 3.80727 2.27072 0
M  V30 8747 H 840.532 0.639671 0.202637 0
M  V30 8748 H 843.076 2.04487 -0.0229414 0
M  V30 8749 H 841.231 3.20872 2.17071 0
M  V30 8750 H 841.645 5.13326 1.07686 0
M  V30 8751 H 843.119 4.78547 2.75131 0
M  V30 8752 H 843.596 3.12301 3.08812 0
M  V30 8753 H 844.202 3.93075 1.62395 0
M  V30 8754 N 842.517 -0.29412 1.54831 0
M  V30 8755 C 843.764 -1.02846 1.74439 0
M  V30 8756 C 844.092 -1.87029 0.533905 0
M  V30 8757 O 843.347 -1.8962 -0.484035 0
M  V30 8758 C 843.646 -1.95782 2.99006 0
M  V30 8759 C 843.312 -1.2752 4.32492 0
M  V30 8760 C 841.974 -1.08637 4.68777 0
M  V30 8761 C 844.326 -0.787761 5.15212 0
M  V30 8762 C 841.654 -0.39704 5.85355 0
M  V30 8763 C 844.006 -0.112123 6.32501 0
M  V30 8764 C 842.67 0.0886071 6.67441 0
M  V30 8765 H 841.94 -0.376341 0.638317 0
M  V30 8766 H 844.587 -0.302684 1.89093 0
M  V30 8767 H 842.892 -2.74911 2.79162 0
M  V30 8768 H 844.589 -2.52684 3.11371 0
M  V30 8769 H 841.179 -1.43226 4.03961 0
M  V30 8770 H 845.363 -0.921341 4.87673 0
M  V30 8771 H 840.619 -0.230597 6.10965 0
M  V30 8772 H 844.793 0.27344 6.95863 0
M  V30 8773 H 842.42 0.624748 7.57628 0
M  V30 8774 O 844.034 -1.55391 -0.439992 0
M  V30 8775 H 844.725 -1.59875 -1.0936 0
M  V30 END ATOM
M  V30 BEGIN BOND
M  V30 END BOND
M  V30 END CTAB
M  END
$$$$
