drugbank_target|P03369 Gag-Pol polyprotein (DB02411; DB02668; DB03768; DB04454; DB04886; DB05228; DB05644; DB07679; DB07910; DB08622)
 OpenBabel12092119403D

  0  0  0     0  0            999 V3000
M  V30 BEGIN CTAB
M  V30 COUNTS 22906 23157 0 0 0
M  V30 BEGIN ATOM
M  V30 1 H -0.908 1.98254 -0.117106 0
M  V30 2 N 0 1.576 0 0
M  V30 3 C 0.933 2.03868 1.02534 0
M  V30 4 C 1.911 0.928543 1.3348 0
M  V30 5 O 3.095 1.19667 1.45644 0
M  V30 6 C 0.222 2.43627 2.35294 0
M  V30 7 C -0.732 3.65373 2.2001 0
M  V30 8 S 0.101 5.13292 1.52614 0
M  V30 9 C 1.257 5.56322 2.86805 0
M  V30 10 H 1.49 2.90518 0.631377 0
M  V30 11 H -0.977 1.52953 0.210867 0
M  V30 12 H 0.981 2.67203 3.11629 0
M  V30 13 H -0.358 1.57376 2.7183 0
M  V30 14 H -1.165 3.90944 3.18086 0
M  V30 15 H -1.563 3.418 1.51819 0
M  V30 16 H 0.729 5.58782 3.83104 0
M  V30 17 H 1.672 6.56266 2.65933 0
M  V30 18 H 2.08 4.83886 2.90714 0
M  V30 19 N 1.4781 -0.272755 1.55222 0
M  V30 20 C 2.7261 -1.00234 1.75492 0
M  V30 21 C 3.0471 -1.8681 0.5592 0
M  V30 22 O 2.3171 -1.91215 -0.425882 0
M  V30 23 H 0.8971 -0.373076 0.647166 0
M  V30 24 H 3.5591 -0.296926 1.92625 0
M  V30 25 H 2.6551 -1.63913 2.65592 0
M  V30 26 N 2.9562 -1.48159 -0.537278 0
M  V30 27 C 3.9192 -1.61665 -1.62472 0
M  V30 28 C 4.9192 -0.490395 -1.5314 0
M  V30 29 O 6.1092 -0.755998 -1.5694 0
M  V30 30 C 3.2412 -1.57997 -3.02076 0
M  V30 31 H 4.4342 -2.58621 -1.51839 0
M  V30 32 H 1.9872 -1.36647 -0.758771 0
M  V30 33 H 2.7222 -0.624913 -3.18222 0
M  V30 34 H 2.5072 -2.39755 -3.10258 0
M  V30 35 H 3.9972 -1.70627 -3.81151 0
M  V30 36 N 4.4343 0.785586 -1.36625 0
M  V30 37 C 5.8503 1.08419 -1.17122 0
M  V30 38 C 6.0503 2.015 0.00208491 0
M  V30 39 O 5.1063 2.43551 0.666278 0
M  V30 40 C 6.4193 1.69498 -2.48377 0
M  V30 41 C 7.9673 1.81821 -2.54775 0
M  V30 42 C 8.4423 2.46315 -3.86126 0
M  V30 43 N 9.9333 2.53779 -3.87492 0
M  V30 44 C 10.6683 3.045 -4.85868 0
M  V30 45 N 10.1643 3.55499 -5.94637 0
M  V30 46 N 11.9573 3.03247 -4.73284 0
M  V30 47 H 4.1083 0.167264 -2.1174 0
M  V30 48 H 6.3713 0.13682 -0.938075 0
M  V30 49 H 6.0773 1.08571 -3.34522 0
M  V30 50 H 5.9513 2.6896 -2.64462 0
M  V30 51 H 8.3383 2.41884 -1.69045 0
M  V30 52 H 8.4193 0.811532 -2.42586 0
M  V30 53 H 8.0633 1.86895 -4.72263 0
M  V30 54 H 7.9933 3.47561 -3.95612 0
M  V30 55 H 10.4843 2.17672 -3.08913 0
M  V30 56 H 10.7973 3.92562 -6.65669 0
M  V30 57 H 9.1423 3.5364 -5.98301 0
M  V30 58 H 12.3333 2.62696 -3.87438 0
M  V30 59 H 12.5063 3.42467 -5.50109 0
M  V30 60 N 5.9124 1.20967 1.01018 0
M  V30 61 C 6.8754 0.965918 2.07853 0
M  V30 62 C 7.8754 -0.0610545 1.60684 0
M  V30 63 O 9.0654 0.175681 1.73312 0
M  V30 64 C 6.1974 0.455513 3.37843 0
M  V30 65 H 7.3904 1.91365 2.3091 0
M  V30 66 H 4.9434 1.02594 1.17916 0
M  V30 67 H 5.6784 -0.497381 3.20463 0
M  V30 68 H 5.4634 1.19622 3.73407 0
M  V30 69 H 6.9534 0.304667 4.16487 0
M  V30 70 N 7.3905 -1.2043 1.01659 0
M  V30 71 C 8.6155 -1.94318 0.724942 0
M  V30 72 C 9.0405 -1.74266 -0.708034 0
M  V30 73 O 8.3985 -1.03694 -1.48719 0
M  V30 74 C 8.4465 -3.44486 1.06591 0
M  V30 75 O 7.5505 -4.12017 0.177599 0
M  V30 76 H 6.8915 -0.60708 0.26898 0
M  V30 77 H 9.4215 -1.52861 1.35995 0
M  V30 78 H 9.4315 -3.95106 1.01762 0
M  V30 79 H 8.1065 -3.58404 2.10997 0
M  V30 80 H 6.6835 -3.71821 0.283421 0
M  V30 81 N 8.8686 -0.792821 -1.36206 0
M  V30 82 C 10.1146 -0.36733 -1.99446 0
M  V30 83 C 10.4476 1.05917 -1.62774 0
M  V30 84 O 9.7226 1.7324 -0.88421 0
M  V30 85 C 10.0056 -0.535044 -3.56103 0
M  V30 86 C 9.8586 -2.00548 -4.02617 0
M  V30 87 C 11.1776 0.0478191 -4.40074 0
M  V30 88 H 8.2966 -0.134941 -0.724541 0
M  V30 89 H 10.9386 -0.999794 -1.61568 0
M  V30 90 H 9.0886 0.00336329 -3.885 0
M  V30 91 H 10.7606 -2.60521 -3.80692 0
M  V30 92 H 9.0036 -2.50686 -3.54032 0
M  V30 93 H 9.6746 -2.07377 -5.11565 0
M  V30 94 H 12.1506 -0.411822 -4.14057 0
M  V30 95 H 11.0266 -0.0995336 -5.4881 0
M  V30 96 H 11.2876 1.14025 -4.27142 0
M  V30 97 N 10.3467 1.47872 -0.545128 0
M  V30 98 C 11.2767 2.32661 0.197793 0
M  V30 99 C 12.2577 1.43041 0.920504 0
M  V30 100 O 13.4427 1.71912 0.90333 0
M  V30 101 C 10.5727 3.24569 1.23582 0
M  V30 102 C 9.5267 4.23333 0.630323 0
M  V30 103 C 8.8527 5.0448 1.77211 0
M  V30 104 C 10.1527 5.20704 -0.407974 0
M  V30 105 H 11.8467 2.95024 -0.510045 0
M  V30 106 H 9.3927 1.4187 -0.246731 0
M  V30 107 H 11.3457 3.8272 1.76362 0
M  V30 108 H 10.0697 2.60236 1.97344 0
M  V30 109 H 8.7287 3.6639 0.123922 0
M  V30 110 H 8.3767 4.36561 2.49847 0
M  V30 111 H 8.0767 5.71339 1.37281 0
M  V30 112 H 9.6007 5.65487 2.3034 0
M  V30 113 H 11.0147 5.7329 0.033305 0
M  V30 114 H 9.4117 5.95699 -0.725486 0
M  V30 115 H 10.4817 4.66917 -1.30828 0
M  V30 116 N 11.8248 0.280983 1.55075 0
M  V30 117 C 13.0498 -0.340154 2.04592 0
M  V30 118 C 13.4748 -1.48246 1.15779 0
M  V30 119 O 12.8328 -1.80614 0.15761 0
M  V30 120 C 12.8808 -0.793104 3.5177 0
M  V30 121 O 11.9848 -1.89981 3.66034 0
M  V30 122 H 11.3258 -0.0694289 0.66036 0
M  V30 123 H 13.8558 0.416993 2.00306 0
M  V30 124 H 13.8658 -1.08729 3.93245 0
M  V30 125 H 12.5408 0.0426163 4.15878 0
M  V30 126 H 11.1178 -1.60771 3.36463 0
M  V30 127 N 13.3029 -1.57598 0.00835791 0
M  V30 128 C 14.5509 -1.90551 -0.6734 0
M  V30 129 C 14.8719 -0.883301 -1.73847 0
M  V30 130 O 14.1419 0.0781442 -1.95744 0
M  V30 131 H 12.7219 -0.703312 -0.251717 0
M  V30 132 H 15.3839 -1.94833 0.0512592 0
M  V30 133 H 14.4799 -2.9056 -1.13935 0
M  V30 134 N 14.781 0.264519 -1.55364 0
M  V30 135 C 16.029 0.993021 -1.76021 0
M  V30 136 C 16.35 1.86511 -0.569099 0
M  V30 137 O 15.62 1.91438 0.415735 0
M  V30 138 H 14.2 0.369639 -0.649135 0
M  V30 139 H 16.862 0.286707 -1.9278 0
M  V30 140 H 15.958 1.62502 -2.66457 0
M  V30 141 N 16.2591 1.48442 0.529413 0
M  V30 142 C 17.1691 1.6569 1.66084 0
M  V30 143 C 18.1851 0.539432 1.65427 0
M  V30 144 O 19.3611 0.810572 1.84368 0
M  V30 145 C 16.4261 1.69315 3.02545 0
M  V30 146 C 15.4871 2.92694 3.14052 0
M  V30 147 C 14.7201 2.96137 4.44003 0
M  V30 148 O 14.9431 2.07973 5.31134 0
M  V30 149 O 13.8771 3.88312 4.59888 0
M  V30 150 H 17.7031 2.61483 1.54469 0
M  V30 151 H 15.2881 1.3185 0.702567 0
M  V30 152 H 17.1701 1.74217 3.83701 0
M  V30 153 H 15.8451 0.766966 3.14483 0
M  V30 154 H 14.7521 2.93324 2.32189 0
M  V30 155 H 16.0851 3.84699 3.0703 0
M  V30 156 N 17.7372 -0.778329 1.37039 0
M  V30 157 C 18.6672 -1.90546 1.34962 0
M  V30 158 C 19.6482 -1.68681 0.219274 0
M  V30 159 O 20.8332 -1.89634 0.418624 0
M  V30 160 C 17.9632 -3.27734 1.14925 0
M  V30 161 C 16.9172 -3.64147 2.24902 0
M  V30 162 C 16.2432 -4.99806 1.89996 0
M  V30 163 C 17.5432 -3.71579 3.67051 0
M  V30 164 H 19.2372 -1.92541 2.29277 0
M  V30 165 H 16.7832 -0.924948 1.10366 0
M  V30 166 H 18.7362 -4.06215 1.12104 0
M  V30 167 H 17.4602 -3.26154 0.170631 0
M  V30 168 H 16.1192 -2.8797 2.26868 0
M  V30 169 H 15.7672 -4.94759 0.906796 0
M  V30 170 H 15.4672 -5.25139 2.63634 0
M  V30 171 H 16.9912 -5.80694 1.88749 0
M  V30 172 H 18.4052 -4.40227 3.67251 0
M  V30 173 H 16.8022 -4.08405 4.39688 0
M  V30 174 H 17.8722 -2.72404 4.01154 0
M  V30 175 N 19.2153 -1.21501 -1.00376 0
M  V30 176 C 20.4923 -0.941745 -1.71437 0
M  V30 177 C 20.8723 0.546114 -2.03914 0
M  V30 178 O 20.2203 1.51128 -1.71384 0
M  V30 179 C 20.4303 -1.82812 -2.97289 0
M  V30 180 C 21.7783 -2.07771 -3.70292 0
M  V30 181 O 22.8023 -1.80171 -3.07273 0
M  V30 182 O 21.6613 -2.54456 -4.83647 0
M  V30 183 H 18.7553 -0.353243 -0.747762 0
M  V30 184 H 21.3013 -1.32436 -1.06108 0
M  V30 185 H 20.0733 -2.83501 -2.69709 0
M  V30 186 H 19.6963 -1.4464 -3.70358 0
M  V30 187 N 20.6934 1.19889 -1.02296 0
M  V30 188 C 21.6404 2.22901 -0.598651 0
M  V30 189 C 22.6104 1.61588 0.384521 0
M  V30 190 O 23.7954 1.88697 0.282522 0
M  V30 191 C 20.9354 3.45063 0.0504476 0
M  V30 192 C 20.0484 4.20783 -0.978053 0
M  V30 193 C 19.1834 5.30356 -0.299338 0
M  V30 194 C 18.2224 5.97826 -1.31416 0
M  V30 195 N 17.3594 6.98975 -0.661667 0
M  V30 196 H 22.1994 2.58554 -1.48169 0
M  V30 197 H 19.7364 1.27039 -0.741584 0
M  V30 198 H 21.6944 4.14831 0.443971 0
M  V30 199 H 20.3244 3.10084 0.897097 0
M  V30 200 H 19.3764 3.50018 -1.48969 0
M  V30 201 H 20.6884 4.67109 -1.74958 0
M  V30 202 H 19.8424 6.06516 0.149347 0
M  V30 203 H 18.5814 4.85084 0.504445 0
M  V30 204 H 17.5864 5.20422 -1.77317 0
M  V30 205 H 18.8114 6.45183 -2.11933 0
M  V30 206 H 16.7574 6.55886 0.122132 0
M  V30 207 H 16.6744 7.43461 -1.37117 0
M  V30 208 H 17.9424 7.7914 -0.236785 0
M  V30 209 N 22.1715 0.800033 1.35784 0
M  V30 210 C 23.4175 0.38701 1.99684 0
M  V30 211 C 23.7725 -1.03268 1.62338 0
M  V30 212 O 23.0655 -1.70543 0.87325 0
M  V30 213 C 23.2595 0.500276 3.53881 0
M  V30 214 C 23.0885 1.92942 4.06206 0
M  V30 215 C 21.8585 2.55637 4.35865 0
M  V30 216 C 24.0565 2.89307 4.25213 0
M  V30 217 N 22.0385 3.9003 4.74078 0
M  V30 218 C 23.4095 4.08556 4.66349 0
M  V30 219 C 25.4645 2.86225 4.07406 0
M  V30 220 C 24.1675 5.25146 4.91543 0
M  V30 221 C 26.1935 4.02011 4.33752 0
M  V30 222 C 25.5555 5.20007 4.75155 0
M  V30 223 H 21.6545 0.189252 0.758754 0
M  V30 224 H 24.2385 1.03988 1.64604 0
M  V30 225 H 22.4095 -0.122568 3.88207 0
M  V30 226 H 24.1415 0.0624733 4.04652 0
M  V30 227 H 20.8965 2.07039 4.25948 0
M  V30 228 H 21.3205 4.59205 4.97454 0
M  V30 229 H 25.9625 1.96154 3.74544 0
M  V30 230 H 23.6805 6.15794 5.23281 0
M  V30 231 H 27.2665 4.00999 4.21534 0
M  V30 232 H 26.1465 6.08113 4.95145 0
M  V30 233 N 23.6496 -1.47581 0.552962 0
M  V30 234 C 24.5596 -2.33743 -0.200353 0
M  V30 235 C 25.5756 -1.47928 -0.916151 0
M  V30 236 O 26.7516 -1.80865 -0.885993 0
M  V30 237 C 23.8166 -3.24536 -1.21973 0
M  V30 238 C 22.8776 -4.26238 -0.511819 0
M  V30 239 C 22.1106 -5.12693 -1.48263 0
M  V30 240 O 22.3336 -5.01525 -2.71714 0
M  V30 241 O 21.2676 -5.93375 -1.00945 0
M  V30 242 H 25.0936 -2.9945 0.506304 0
M  V30 243 H 22.6786 -1.46071 0.313622 0
M  V30 244 H 24.5606 -3.80631 -1.80827 0
M  V30 245 H 23.2356 -2.61462 -1.90839 0
M  V30 246 H 22.1426 -3.73914 0.117799 0
M  V30 247 H 23.4756 -4.92014 0.135308 0
M  V30 248 N 25.1277 -0.289203 -1.54924 0
M  V30 249 C 26.0747 0.592115 -2.23075 0
M  V30 250 C 27.0447 1.13881 -1.20915 0
M  V30 251 O 28.2297 1.18551 -1.495 0
M  V30 252 C 25.3697 1.76376 -2.96623 0
M  V30 253 C 24.4827 1.24959 -4.13533 0
M  V30 254 C 23.6177 2.38416 -4.74691 0
M  V30 255 C 22.6567 1.84072 -5.83767 0
M  V30 256 N 21.7937 2.91057 -6.38929 0
M  V30 257 H 26.6337 0.00432038 -2.98 0
M  V30 258 H 24.1707 -0.00963529 -1.47097 0
M  V30 259 H 26.1287 2.45268 -3.3749 0
M  V30 260 H 24.7587 2.32337 -2.24097 0
M  V30 261 H 23.8107 0.453307 -3.77689 0
M  V30 262 H 25.1227 0.811662 -4.92152 0
M  V30 263 H 24.2767 3.15276 -5.18349 0
M  V30 264 H 23.0157 2.8553 -3.95378 0
M  V30 265 H 22.0207 1.05697 -5.39545 0
M  V30 266 H 23.2457 1.37877 -6.64956 0
M  V30 267 H 21.1917 3.37526 -5.62505 0
M  V30 268 H 21.1087 2.51724 -7.12861 0
M  V30 269 H 22.3767 3.6785 -6.87246 0
M  V30 270 N 26.6058 1.57591 -0.0167156 0
M  V30 271 C 27.8548 1.90461 0.663877 0
M  V30 272 C 28.1678 0.893515 1.73999 0
M  V30 273 O 29.3738 1.11302 2.47637 0
M  V30 274 C 27.8298 3.38155 1.23204 0
M  V30 275 C 27.4378 4.47597 0.189866 0
M  V30 276 C 29.1818 3.80111 1.88986 0
M  V30 277 C 27.0888 5.86379 0.768964 0
M  V30 278 H 26.0188 0.710738 0.251729 0
M  V30 279 H 28.6698 1.83326 -0.0799926 0
M  V30 280 H 27.0518 3.40182 2.02712 0
M  V30 281 H 28.2258 4.57112 -0.581846 0
M  V30 282 H 26.5408 4.14766 -0.368475 0
M  V30 283 H 29.1378 4.81145 2.33247 0
M  V30 284 H 29.4808 3.14511 2.72743 0
M  V30 285 H 30.0138 3.80454 1.16187 0
M  V30 286 H 26.7528 6.55493 -0.0301957 0
M  V30 287 H 26.2728 5.80496 1.50945 0
M  V30 288 H 27.9518 6.34563 1.26251 0
M  V30 289 N 28.0839 -0.256276 1.55502 0
M  V30 290 C 29.4999 -0.604325 1.47716 0
M  V30 291 C 29.6999 -1.88763 0.705039 0
M  V30 292 O 28.7559 -2.51445 0.230613 0
M  V30 293 C 30.0689 -0.715756 2.92057 0
M  V30 294 C 31.6169 -0.808706 3.02372 0
M  V30 295 C 32.0919 -0.951777 4.48001 0
M  V30 296 N 33.5829 -1.01688 4.519 0
M  V30 297 C 34.3179 -1.14668 5.61817 0
M  V30 298 N 33.8139 -1.24261 6.81565 0
M  V30 299 N 35.6069 -1.1791 5.49594 0
M  V30 300 H 27.7579 0.586291 2.04148 0
M  V30 301 H 30.0209 0.201015 0.926443 0
M  V30 302 H 29.7269 0.157027 3.51349 0
M  V30 303 H 29.6009 -1.59071 3.42018 0
M  V30 304 H 31.9879 -1.67195 2.43166 0
M  V30 305 H 32.0689 0.0912063 2.55637 0
M  V30 306 H 31.7129 -0.0931291 5.07815 0
M  V30 307 H 31.6429 -1.86659 4.92408 0
M  V30 308 H 34.1339 -0.954468 3.65648 0
M  V30 309 H 34.4469 -1.34046 7.61086 0
M  V30 310 H 32.7919 -1.21236 6.84344 0
M  V30 311 H 35.9829 -1.10057 4.54978 0
M  V30 312 H 36.1559 -1.27681 6.35296 0
M  V30 313 N 29.562 -1.4872 -0.521534 0
M  V30 314 C 30.492 -1.66771 -1.63431 0
M  V30 315 C 31.473 -0.516499 -1.62069 0
M  V30 316 O 32.658 -0.750013 -1.79132 0
M  V30 317 C 29.788 -1.71515 -3.01993 0
M  V30 318 C 28.742 -2.86222 -3.18216 0
M  V30 319 C 28.068 -2.76061 -4.57924 0
M  V30 320 C 29.368 -4.27419 -3.00184 0
M  V30 321 H 31.062 -2.59932 -1.48579 0
M  V30 322 H 28.608 -1.25089 -0.713358 0
M  V30 323 H 30.561 -1.82731 -3.7972 0
M  V30 324 H 29.285 -0.749393 -3.17886 0
M  V30 325 H 27.944 -2.74575 -2.42908 0
M  V30 326 H 27.592 -1.77437 -4.70665 0
M  V30 327 H 27.292 -3.53037 -4.69722 0
M  V30 328 H 28.816 -2.89256 -5.37739 0
M  V30 329 H 30.23 -4.39855 -3.67697 0
M  V30 330 H 28.627 -5.05458 -3.2347 0
M  V30 331 H 29.697 -4.43293 -1.96518 0
M  V30 332 N 31.0401 0.771051 -1.3745 0
M  V30 333 C 32.4561 1.07171 -1.18265 0
M  V30 334 C 32.6561 2.01491 -0.019287 0
M  V30 335 O 31.7121 2.44244 0.640408 0
M  V30 336 C 33.0251 1.66854 -2.50161 0
M  V30 337 C 34.5731 1.79109 -2.56689 0
M  V30 338 C 35.0481 2.42205 -3.88717 0
M  V30 339 N 36.5391 2.49655 -3.90162 0
M  V30 340 C 37.2741 2.9933 -4.8907 0
M  V30 341 N 36.7701 3.49172 -5.98374 0
M  V30 342 N 38.5631 2.9821 -4.76474 0
M  V30 343 H 30.7141 0.144796 -2.11906 0
M  V30 344 H 32.9771 0.126863 -0.939473 0
M  V30 345 H 32.6831 1.05017 -3.35655 0
M  V30 346 H 32.5571 2.6614 -2.673 0
M  V30 347 H 34.9441 2.40077 -1.71601 0
M  V30 348 H 35.0251 0.785757 -2.43433 0
M  V30 349 H 34.6691 1.81875 -4.74219 0
M  V30 350 H 34.5991 3.43345 -3.99276 0
M  V30 351 H 37.0901 2.14383 -3.11205 0
M  V30 352 H 37.4031 3.8548 -6.69795 0
M  V30 353 H 35.7481 3.47275 -6.02018 0
M  V30 354 H 38.9391 2.58572 -3.90203 0
M  V30 355 H 39.1121 3.36613 -5.53711 0
M  V30 356 N 32.5182 1.22032 0.997298 0
M  V30 357 C 33.9292 1.0397 1.55071 0
M  V30 358 C 34.2802 -0.398192 1.92117 0
M  V30 359 O 33.4052 -1.28254 1.74298 0
M  V30 360 C 34.0002 1.88109 2.81781 0
M  V30 361 C 32.5592 1.74357 3.33581 0
M  V30 362 C 31.7062 1.84846 2.06706 0
M  V30 363 H 34.6572 1.35941 0.818883 0
M  V30 364 H 34.6782 1.39589 3.53971 0
M  V30 365 H 34.1902 2.92754 2.54787 0
M  V30 366 H 32.2912 0.72427 3.65493 0
M  V30 367 H 32.4042 2.56772 4.04481 0
M  V30 368 H 30.7682 1.28238 2.20062 0
M  V30 369 H 31.5512 2.91014 1.82114 0
M  V30 370 N 33.9963 -1.19345 1.0293 0
M  V30 371 C 35.2443 -1.88665 0.724574 0
M  V30 372 C 35.5653 -1.80036 -0.749144 0
M  V30 373 O 34.8353 -1.2111 -1.53978 0
M  V30 374 H 33.4153 -0.698406 0.265025 0
M  V30 375 H 36.0773 -1.44885 1.30362 0
M  V30 376 H 35.1733 -2.94987 1.01926 0
M  V30 377 N 35.4744 -0.807222 -1.35358 0
M  V30 378 C 36.7224 -0.387122 -1.98358 0
M  V30 379 C 37.0434 1.04942 -1.64354 0
M  V30 380 O 36.3134 1.72615 -0.926339 0
M  V30 381 H 34.8934 -0.140154 -0.733734 0
M  V30 382 H 37.5554 -1.0332 -1.6526 0
M  V30 383 H 36.6514 -0.493352 -3.08176 0
M  V30 384 N 36.9525 1.47285 -0.560781 0
M  V30 385 C 37.8995 2.30058 0.18491 0
M  V30 386 C 38.8695 1.39281 0.904986 0
M  V30 387 O 40.0545 1.68241 0.899979 0
M  V30 388 C 37.1945 3.23317 1.20666 0
M  V30 389 C 36.3075 4.29186 0.492285 0
M  V30 390 C 35.4425 5.09592 1.49964 0
M  V30 391 C 34.4815 6.07232 0.770439 0
M  V30 392 N 33.6185 6.80584 1.72479 0
M  V30 393 H 38.4585 2.93302 -0.527048 0
M  V30 394 H 35.9955 1.44568 -0.271738 0
M  V30 395 H 37.9535 3.75811 1.81168 0
M  V30 396 H 36.5835 2.61929 1.88661 0
M  V30 397 H 35.6355 3.7972 -0.227333 0
M  V30 398 H 36.9475 4.98738 -0.0787929 0
M  V30 399 H 36.1015 5.66254 2.17809 0
M  V30 400 H 34.8405 4.3995 2.10464 0
M  V30 401 H 33.8455 5.49745 0.0780846 0
M  V30 402 H 35.0705 6.78884 0.171134 0
M  V30 403 H 33.0165 6.1367 2.3183 0
M  V30 404 H 32.9335 7.46319 1.20596 0
M  V30 405 H 34.2015 7.41818 2.39428 0
M  V30 406 N 38.4306 0.297415 1.54768 0
M  V30 407 C 39.3776 -0.580276 2.23386 0
M  V30 408 C 40.3476 -1.13238 1.21517 0
M  V30 409 O 41.5326 -1.17757 1.50126 0
M  V30 410 C 38.6726 -1.74801 2.97555 0
M  V30 411 C 37.7856 -1.22764 4.1419 0
M  V30 412 C 36.9206 -2.35895 4.75949 0
M  V30 413 C 35.9596 -1.80974 5.84735 0
M  V30 414 N 35.0966 -2.87664 6.40464 0
M  V30 415 H 39.9366 0.0114833 2.97998 0
M  V30 416 H 37.4736 0.0174361 1.4709 0
M  V30 417 H 39.4316 -2.43475 3.38786 0
M  V30 418 H 38.0616 -2.31145 2.25326 0
M  V30 419 H 37.1136 -0.433271 3.77924 0
M  V30 420 H 38.4256 -0.785551 4.92575 0
M  V30 421 H 37.5796 -3.12523 5.20014 0
M  V30 422 H 36.3186 -2.83429 3.96887 0
M  V30 423 H 35.3236 -1.02834 5.40097 0
M  V30 424 H 36.5486 -1.34348 6.65678 0
M  V30 425 H 34.4946 -3.34538 5.64287 0
M  V30 426 H 34.4116 -2.4794 7.14186 0
M  V30 427 H 35.6796 -3.642 6.89187 0
M  V30 428 N 39.9087 -1.5758 0.0250728 0
M  V30 429 C 40.8557 -2.09973 -0.958129 0
M  V30 430 C 41.8257 -1.00085 -1.3256 0
M  V30 431 O 43.0107 -1.27481 -1.41962 0
M  V30 432 C 40.1507 -2.62812 -2.2366 0
M  V30 433 C 39.2637 -3.86693 -1.92594 0
M  V30 434 C 38.3987 -4.27941 -3.14707 0
M  V30 435 C 37.4377 -5.44591 -2.79442 0
M  V30 436 N 36.5747 -5.81014 -3.94167 0
M  V30 437 H 41.4147 -2.937 -0.504428 0
M  V30 438 H 38.9517 -1.45172 -0.237392 0
M  V30 439 H 40.9097 -2.91536 -2.98434 0
M  V30 440 H 39.5397 -1.81922 -2.66654 0
M  V30 441 H 38.5917 -3.64723 -1.0808 0
M  V30 442 H 39.9037 -4.71547 -1.62619 0
M  V30 443 H 39.0577 -4.58079 -3.97804 0
M  V30 444 H 37.7967 -3.41845 -3.4784 0
M  V30 445 H 36.8017 -5.1415 -1.94755 0
M  V30 446 H 38.0267 -6.32382 -2.47528 0
M  V30 447 H 35.9727 -4.97874 -4.2715 0
M  V30 448 H 35.8897 -6.60498 -3.67801 0
M  V30 449 H 37.1577 -6.15756 -4.7798 0
M  V30 450 N 41.3868 0.248026 -1.55636 0
M  V30 451 C 42.6168 0.992367 -1.81206 0
M  V30 452 C 43.0248 1.7949 -0.598324 0
M  V30 453 O 42.3678 1.78292 0.442434 0
M  V30 454 C 42.4298 1.97926 -3.00109 0
M  V30 455 C 42.0938 1.36377 -4.36177 0
M  V30 456 C 43.0908 0.76682 -5.14214 0
M  V30 457 C 40.7758 1.38347 -4.82872 0
M  V30 458 C 42.7698 0.197778 -6.37093 0
M  V30 459 C 40.4568 0.810574 -6.057 0
M  V30 460 C 41.4548 0.218754 -6.8265 0
M  V30 461 O 41.1428 -0.345298 -8.03158 0
M  V30 462 H 40.8748 0.297704 -0.606917 0
M  V30 463 H 43.4288 0.276517 -2.0353 0
M  V30 464 H 41.6588 2.73339 -2.73538 0
M  V30 465 H 43.3478 2.58694 -3.12781 0
M  V30 466 H 44.1138 0.744114 -4.79258 0
M  V30 467 H 39.9928 1.8335 -4.2297 0
M  V30 468 H 43.5368 -0.264788 -6.97097 0
M  V30 469 H 39.4338 0.830604 -6.40134 0
M  V30 470 H 40.2018 -0.237055 -8.18157 0
M  V30 471 N 42.8649 1.48995 0.513639 0
M  V30 472 C 43.8119 1.6473 1.61656 0
M  V30 473 C 44.7819 0.488984 1.58739 0
M  V30 474 O 45.9669 0.714478 1.76918 0
M  V30 475 C 43.1069 1.7082 2.99858 0
M  V30 476 C 42.2199 2.9787 3.12885 0
M  V30 477 C 41.3549 2.95017 4.41744 0
M  V30 478 C 40.3939 4.16702 4.48359 0
M  V30 479 N 39.5309 4.11832 5.68629 0
M  V30 480 H 44.3709 2.58909 1.47547 0
M  V30 481 H 41.9079 1.28382 0.71808 0
M  V30 482 H 43.8659 1.72331 3.79944 0
M  V30 483 H 42.4959 0.801181 3.12699 0
M  V30 484 H 41.5479 3.06029 2.25944 0
M  V30 485 H 42.8599 3.8786 3.13633 0
M  V30 486 H 42.0139 2.95021 5.30139 0
M  V30 487 H 40.7529 2.02784 4.43542 0
M  V30 488 H 39.7579 4.16955 3.58369 0
M  V30 489 H 40.9829 5.10113 4.48287 0
M  V30 490 H 38.9289 3.22428 5.71293 0
M  V30 491 H 38.8459 4.95543 5.7094 0
M  V30 492 H 40.1139 4.1592 6.59266 0
M  V30 493 N 44.343 -0.763751 1.37857 0
M  V30 494 C 45.273 -1.89103 1.36975 0
M  V30 495 C 46.254 -1.68439 0.237152 0
M  V30 496 O 47.439 -1.8918 0.438713 0
M  V30 497 C 44.569 -3.26496 1.18395 0
M  V30 498 C 43.523 -3.61741 2.28751 0
M  V30 499 C 42.849 -4.97762 1.95286 0
M  V30 500 C 44.149 -3.67665 3.70972 0
M  V30 501 H 45.843 -1.90099 2.31307 0
M  V30 502 H 43.389 -0.91319 1.11341 0
M  V30 503 H 45.342 -4.05003 1.16406 0
M  V30 504 H 44.066 -3.25955 0.205215 0
M  V30 505 H 42.725 -2.85547 2.29909 0
M  V30 506 H 42.373 -4.93769 0.959221 0
M  V30 507 H 42.073 -5.22313 2.69189 0
M  V30 508 H 43.597 -5.7866 1.94898 0
M  V30 509 H 45.011 -4.36307 3.719 0
M  V30 510 H 43.408 -4.03718 4.43995 0
M  V30 511 H 44.478 -2.68134 4.0402 0
M  V30 512 N 45.8211 -1.22559 -0.990812 0
M  V30 513 C 46.7681 -0.997519 -2.0813 0
M  V30 514 C 47.7381 0.0814702 -1.659 0
M  V30 515 O 48.9231 -0.0685424 -1.90677 0
M  V30 516 C 46.0631 -0.583615 -3.40129 0
M  V30 517 C 45.1761 -1.7336 -3.9569 0
M  V30 518 C 44.3111 -1.26748 -5.15857 0
M  V30 519 C 43.3501 -2.38888 -5.63559 0
M  V30 520 N 42.4871 -1.93308 -6.74964 0
M  V30 521 H 47.3271 -1.93099 -2.26973 0
M  V30 522 H 44.8641 -0.962114 -1.11273 0
M  V30 523 H 46.8221 -0.324801 -4.15934 0
M  V30 524 H 45.4521 0.312845 -3.2128 0
M  V30 525 H 44.5041 -2.10669 -3.16738 0
M  V30 526 H 45.8161 -2.57704 -4.27071 0
M  V30 527 H 44.9701 -0.966173 -5.98957 0
M  V30 528 H 43.7091 -0.394272 -4.86104 0
M  V30 529 H 42.7141 -2.69805 -4.79046 0
M  V30 530 H 43.9391 -3.26728 -5.95336 0
M  V30 531 H 41.8851 -1.08352 -6.4699 0
M  V30 532 H 41.8021 -2.71217 -7.05675 0
M  V30 533 H 43.0701 -1.66252 -7.61564 0
M  V30 534 N 47.2992 1.18797 -1.03562 0
M  V30 535 C 48.2492 2.20161 -0.592724 0
M  V30 536 C 49.2332 1.56772 0.362133 0
M  V30 537 O 50.4252 1.76062 0.182009 0
M  V30 538 C 47.5542 3.43266 0.0481024 0
M  V30 539 C 46.6402 4.13786 -0.9296 0
M  V30 540 N 47.0312 4.60388 -2.09467 0
M  V30 541 C 45.3292 4.39572 -0.754499 0
M  V30 542 C 46.0302 5.14619 -2.71187 0
M  V30 543 N 45.0062 5.05826 -1.991 0
M  V30 544 H 48.8082 2.53877 -1.48066 0
M  V30 545 H 46.3222 1.34946 -0.903514 0
M  V30 546 H 48.3192 4.15136 0.383058 0
M  V30 547 H 46.9792 3.11048 0.931636 0
M  V30 548 H 47.9902 4.54999 -2.47379 0
M  V30 549 H 44.6672 4.17425 0.0793713 0
M  V30 550 H 46.0572 5.60917 -3.69895 0
M  V30 551 N 48.7773 0.814389 1.34928 0
M  V30 552 C 50.0263 0.394871 1.97797 0
M  V30 553 C 50.3393 -1.04555 1.65311 0
M  V30 554 O 51.5453 -1.56856 2.21604 0
M  V30 555 C 50.0013 0.655103 3.53888 0
M  V30 556 C 49.6093 2.10858 3.95276 0
M  V30 557 C 51.3533 0.301329 4.23429 0
M  V30 558 C 49.2603 2.31415 5.44244 0
M  V30 559 H 48.1903 0.143913 0.740139 0
M  V30 560 H 50.8413 0.999544 1.53888 0
M  V30 561 H 49.2233 -0.0196253 3.95995 0
M  V30 562 H 50.3973 2.82176 3.64298 0
M  V30 563 H 48.7123 2.42297 3.38646 0
M  V30 564 H 51.3093 0.432869 5.32945 0
M  V30 565 H 51.6523 -0.75331 4.09428 0
M  V30 566 H 52.1853 0.930288 3.86769 0
M  V30 567 H 48.9243 3.35353 5.63222 0
M  V30 568 H 48.4443 1.6463 5.76764 0
M  V30 569 H 50.1233 2.13352 6.10811 0
M  V30 570 N 50.2554 -1.46986 0.568584 0
M  V30 571 C 51.5014 -2.02741 0.0488709 0
M  V30 572 C 51.8344 -1.44077 -1.30214 0
M  V30 573 O 51.1094 -0.600552 -1.84996 0
M  V30 574 C 51.3924 -3.60086 -0.032047 0
M  V30 575 C 51.2454 -4.29162 1.34686 0
M  V30 576 C 52.5644 -4.33838 -0.739798 0
M  V30 577 H 49.6834 -0.736749 0.0192338 0
M  V30 578 H 52.3254 -1.75289 0.733065 0
M  V30 579 H 50.4754 -3.83606 -0.61473 0
M  V30 580 H 52.1474 -4.16948 1.97362 0
M  V30 581 H 50.3904 -3.89073 1.91846 0
M  V30 582 H 51.0614 -5.37826 1.24285 0
M  V30 583 H 53.5374 -4.15378 -0.244939 0
M  V30 584 H 52.4134 -5.43537 -0.765406 0
M  V30 585 H 52.6744 -4.03875 -1.79827 0
M  V30 586 N 51.7335 -0.305618 -1.54608 0
M  V30 587 C 52.9795 0.295595 -2.01241 0
M  V30 588 C 53.3345 1.51171 -1.19018 0
M  V30 589 O 52.6275 1.89832 -0.259684 0
M  V30 590 C 52.8215 0.698983 -3.50498 0
M  V30 591 C 52.6505 -0.476491 -4.47168 0
M  V30 592 C 51.4205 -0.969963 -4.95903 0
M  V30 593 C 53.6185 -1.32294 -4.96994 0
M  V30 594 N 51.6005 -2.11172 -5.76437 0
M  V30 595 C 52.9715 -2.31212 -5.75275 0
M  V30 596 C 55.0265 -1.35278 -4.7917 0
M  V30 597 C 53.7295 -3.32896 -6.37631 0
M  V30 598 C 55.7555 -2.35823 -5.42348 0
M  V30 599 C 55.1175 -3.33469 -6.20466 0
M  V30 600 H 51.2165 0.0724992 -0.778632 0
M  V30 601 H 53.8005 -0.436583 -1.89742 0
M  V30 602 H 51.9715 1.40032 -3.62278 0
M  V30 603 H 53.7035 1.28013 -3.8392 0
M  V30 604 H 50.4585 -0.544178 -4.70463 0
M  V30 605 H 50.8825 -2.68714 -6.21387 0
M  V30 606 H 55.5245 -0.61157 -4.18354 0
M  V30 607 H 53.2425 -4.07933 -6.97579 0
M  V30 608 H 56.8285 -2.38911 -5.30484 0
M  V30 609 H 55.7085 -4.09996 -6.68485 0
M  V30 610 N 53.2116 1.57565 -0.0334293 0
M  V30 611 C 54.1746 2.09393 0.932048 0
M  V30 612 C 55.1746 1.00986 1.25134 0
M  V30 613 O 56.3646 1.27129 1.19096 0
M  V30 614 C 53.4966 2.56338 2.2473 0
M  V30 615 H 54.6896 2.95984 0.483085 0
M  V30 616 H 52.2426 1.54819 0.21468 0
M  V30 617 H 52.9776 1.7309 2.74245 0
M  V30 618 H 52.7626 3.35542 2.02865 0
M  V30 619 H 54.2526 2.96646 2.93923 0
M  V30 620 N 54.6897 -0.239769 1.55765 0
M  V30 621 C 55.9147 -0.988373 1.82335 0
M  V30 622 C 56.3397 -1.77886 0.611421 0
M  V30 623 O 55.6977 -1.75889 -0.439639 0
M  V30 624 C 55.7457 -1.89627 3.06715 0
M  V30 625 O 54.8497 -2.98904 2.84131 0
M  V30 626 H 54.1907 -0.280858 0.601677 0
M  V30 627 H 56.7207 -0.258597 2.02959 0
M  V30 628 H 56.7307 -2.30957 3.36338 0
M  V30 629 H 55.4057 -1.31511 3.9456 0
M  V30 630 H 53.9827 -2.61651 2.65694 0
M  V30 631 N 56.1678 -1.49265 -0.50573 0
M  V30 632 C 57.5838 -1.35923 -0.836486 0
M  V30 633 C 57.7838 -0.388704 -1.97715 0
M  V30 634 O 56.8398 0.181336 -2.51848 0
M  V30 635 C 58.1528 -2.76531 -1.18115 0
M  V30 636 C 59.7008 -2.85197 -1.28964 0
M  V30 637 C 60.1758 -4.26561 -1.66761 0
M  V30 638 N 61.6668 -4.2935 -1.73819 0
M  V30 639 C 62.4018 -5.35693 -2.045 0
M  V30 640 N 61.8978 -6.52287 -2.33438 0
M  V30 641 N 63.6908 -5.23105 -2.05711 0
M  V30 642 H 55.8418 -2.10965 0.246519 0
M  V30 643 H 58.1048 -0.9468 0.0476887 0
M  V30 644 H 57.8108 -3.49226 -0.416398 0
M  V30 645 H 57.6848 -3.11599 -2.1257 0
M  V30 646 H 60.0718 -2.12742 -2.04511 0
M  V30 647 H 60.1528 -2.53718 -0.325704 0
M  V30 648 H 59.7968 -4.99541 -0.917656 0
M  V30 649 H 59.7268 -4.55502 -2.64246 0
M  V30 650 H 62.2178 -3.4526 -1.53635 0
M  V30 651 H 62.5308 -7.29158 -2.56024 0
M  V30 652 H 60.8758 -6.55521 -2.30905 0
M  V30 653 H 64.0668 -4.31026 -1.82577 0
M  V30 654 H 64.2398 -6.06078 -2.29289 0
M  V30 655 N 57.6459 0.756429 -1.3826 0
M  V30 656 C 58.5559 1.9009 -1.37488 0
M  V30 657 C 59.5719 1.71855 -0.272366 0
M  V30 658 O 60.7479 1.94827 -0.510318 0
M  V30 659 C 57.8129 3.25421 -1.19592 0
M  V30 660 C 56.8739 3.56202 -2.39622 0
M  V30 661 C 56.1069 4.85075 -2.2257 0
M  V30 662 O 56.3299 5.57246 -1.21793 0
M  V30 663 O 55.2639 5.15269 -3.11098 0
M  V30 664 H 59.0899 1.93695 -2.33914 0
M  V30 665 H 56.6749 0.901313 -1.1915 0
M  V30 666 H 58.5569 4.06337 -1.11661 0
M  V30 667 H 57.2319 3.22634 -0.262486 0
M  V30 668 H 56.1389 2.75458 -2.53128 0
M  V30 669 H 57.4719 3.63747 -3.31586 0
M  V30 670 N 59.124 1.23083 0.984299 0
M  V30 671 C 60.054 1.03292 2.09411 0
M  V30 672 C 61.035 -0.048923 1.7003 0
M  V30 673 O 62.22 0.114967 1.93859 0
M  V30 674 C 59.35 0.619155 3.41736 0
M  V30 675 C 58.304 1.64791 3.95004 0
M  V30 676 C 57.63 1.0897 5.23478 0
M  V30 677 C 58.93 3.03999 4.24714 0
M  V30 678 H 60.624 1.96119 2.26225 0
M  V30 679 H 58.17 0.944344 1.08711 0
M  V30 680 H 60.123 0.467777 4.18796 0
M  V30 681 H 58.847 -0.344786 3.24775 0
M  V30 682 H 57.506 1.78721 3.20085 0
M  V30 683 H 57.154 0.11686 5.02864 0
M  V30 684 H 56.854 1.77704 5.60085 0
M  V30 685 H 58.378 0.950093 6.03163 0
M  V30 686 H 59.792 2.93393 4.92538 0
M  V30 687 H 58.189 3.69936 4.72512 0
M  V30 688 H 59.259 3.53285 3.32142 0
M  V30 689 N 60.6021 -1.18246 1.0419 0
M  V30 690 C 61.5121 -2.25574 0.644476 0
M  V30 691 C 62.5281 -1.70845 -0.329826 0
M  V30 692 O 63.7041 -2.00554 -0.184443 0
M  V30 693 C 60.7691 -3.46697 0.014877 0
M  V30 694 C 59.8301 -4.16554 1.03834 0
M  V30 695 C 59.0631 -5.31894 0.438692 0
M  V30 696 O 59.2861 -5.65385 -0.754752 0
M  V30 697 O 58.2201 -5.90459 1.168 0
M  V30 698 H 62.0461 -2.61836 1.53869 0
M  V30 699 H 59.6311 -1.25352 0.812854 0
M  V30 700 H 61.5131 -4.20062 -0.335538 0
M  V30 701 H 60.1881 -3.12255 -0.853138 0
M  V30 702 H 59.0951 -3.45251 1.44057 0
M  V30 703 H 60.4281 -4.54998 1.87716 0
M  V30 704 N 62.0802 -0.821533 -1.34494 0
M  V30 705 C 63.4962 -0.507117 -1.51329 0
M  V30 706 C 63.6962 0.968964 -1.76673 0
M  V30 707 O 62.7522 1.75348 -1.81685 0
M  V30 708 C 64.0652 -1.36544 -2.67911 0
M  V30 709 C 65.6132 -1.36242 -2.81793 0
M  V30 710 C 66.0882 -2.2052 -4.01416 0
M  V30 711 N 67.5792 -2.18136 -4.08621 0
M  V30 712 C 68.3142 -2.80095 -5.00334 0
M  V30 713 N 67.8102 -3.51039 -5.9728 0
M  V30 714 N 69.6032 -2.69656 -4.93196 0
M  V30 715 H 61.7542 -1.77729 -1.16302 0
M  V30 716 H 64.0172 -0.757291 -0.570276 0
M  V30 717 H 63.7232 -2.41361 -2.55808 0
M  V30 718 H 63.5972 -1.02917 -3.62888 0
M  V30 719 H 65.9842 -0.322041 -2.93338 0
M  V30 720 H 66.0652 -1.73866 -1.87628 0
M  V30 721 H 65.7092 -3.24607 -3.90631 0
M  V30 722 H 65.6392 -1.80247 -4.94791 0
M  V30 723 H 68.1302 -1.6653 -3.39229 0
M  V30 724 H 68.4432 -3.95565 -6.63889 0
M  V30 725 H 66.7882 -3.55145 -5.97409 0
M  V30 726 H 69.9792 -2.13808 -4.16418 0
M  V30 727 H 70.1522 -3.1823 -5.64476 0
M  V30 728 N 63.5583 1.46682 -0.576371 0
M  V30 729 C 64.8053 2.02412 -0.0595339 0
M  V30 730 C 65.1333 1.44859 1.29793 0
M  V30 731 O 64.3883 0.601099 1.8624 0
M  V30 732 C 64.6873 3.57345 0.062886 0
M  V30 733 C 64.3533 4.33908 -1.22616 0
M  V30 734 C 63.0153 4.54544 -1.57933 0
M  V30 735 C 65.3673 4.77919 -2.07948 0
M  V30 736 C 62.6953 5.16444 -2.78393 0
M  V30 737 C 65.0473 5.41149 -3.27629 0
M  V30 738 C 63.7113 5.60014 -3.63236 0
M  V30 739 H 62.9813 0.74068 -0.021785 0
M  V30 740 H 65.6283 1.76128 -0.751735 0
M  V30 741 H 63.9333 3.82729 0.838178 0
M  V30 742 H 65.6303 3.98136 0.478439 0
M  V30 743 H 62.2203 4.18138 -0.941202 0
M  V30 744 H 66.4043 4.61738 -1.81967 0
M  V30 745 H 61.6603 5.29242 -3.06126 0
M  V30 746 H 65.8343 5.74211 -3.94023 0
M  V30 747 H 63.4613 6.07748 -4.56669 0
M  V30 748 N 65.0364 0.313813 1.54444 0
M  V30 749 C 65.9994 -0.54379 2.22656 0
M  V30 750 C 66.9994 -1.05124 1.21678 0
M  V30 751 O 68.1894 -0.945225 1.46325 0
M  V30 752 C 65.3214 -1.75427 2.92298 0
M  V30 753 H 66.5144 0.0523599 2.99854 0
M  V30 754 H 64.0674 0.0647834 1.56166 0
M  V30 755 H 64.8024 -2.38991 2.19211 0
M  V30 756 H 64.5874 -1.39791 3.66334 0
M  V30 757 H 66.0774 -2.36325 3.44297 0
M  V30 758 N 66.5145 -1.57545 0.0417849 0
M  V30 759 C 67.7605 -1.92601 -0.635021 0
M  V30 760 C 68.0935 -0.919627 -1.71045 0
M  V30 761 O 67.3685 0.0557892 -1.9442 0
M  V30 762 C 67.6515 -3.38085 -1.23979 0
M  V30 763 C 67.5045 -4.49467 -0.173057 0
M  V30 764 C 68.8235 -3.83776 -2.15416 0
M  V30 765 H 65.9425 -0.700397 -0.229374 0
M  V30 766 H 68.5845 -1.89728 0.101633 0
M  V30 767 H 66.7345 -3.40664 -1.86762 0
M  V30 768 H 68.4065 -4.59018 0.458312 0
M  V30 769 H 66.6495 -4.30909 0.499996 0
M  V30 770 H 67.3205 -5.48323 -0.636054 0
M  V30 771 H 69.7965 -3.83013 -1.62605 0
M  V30 772 H 68.6725 -4.8624 -2.54679 0
M  V30 773 H 68.9335 -3.19998 -3.05047 0
M  V30 774 N 67.9926 0.231505 -1.5589 0
M  V30 775 C 68.9406 1.30649 -1.92441 0
M  V30 776 C 69.9346 1.49037 -0.805254 0
M  V30 777 O 71.1406 1.50329 -0.990007 0
M  V30 778 H 67.5156 0.437812 -0.611412 0
M  V30 779 H 69.4866 0.970973 -2.82161 0
M  V30 780 C 68.2356 2.65179 -2.24889 0
M  V30 781 H 67.5586 2.51835 -3.10514 0
M  V30 782 H 68.9986 3.39234 -2.54355 0
M  V30 783 C 67.4576 3.19439 -1.07054 0
M  V30 784 O 67.9876 4.00371 -0.326499 0
M  V30 785 N 66.1936 2.77675 -0.85703 0
M  V30 786 H 65.7406 2.11969 -1.46379 0
M  V30 787 H 65.6986 3.14321 -0.0703223 0
M  V30 788 N 69.4707 1.49531 0.497807 0
M  V30 789 C 70.8817 1.52344 1.07927 0
M  V30 790 C 71.2327 0.311469 1.93712 0
M  V30 791 O 70.3577 -0.578405 2.08527 0
M  V30 792 C 70.9527 2.76062 1.96405 0
M  V30 793 C 69.5117 2.81643 2.49709 0
M  V30 794 C 68.6587 2.46299 1.27404 0
M  V30 795 H 71.6097 1.56182 0.281576 0
M  V30 796 H 71.6307 2.56405 2.81135 0
M  V30 797 H 71.1427 3.64254 1.33943 0
M  V30 798 H 69.2437 1.97739 3.15801 0
M  V30 799 H 69.3567 3.83891 2.86643 0
M  V30 800 H 67.7207 1.98148 1.60029 0
M  V30 801 H 68.5037 3.36769 0.66645 0
M  V30 802 N 70.9488 -0.749086 1.3866 0
M  V30 803 C 72.1968 -1.50535 1.34847 0
M  V30 804 C 72.5178 -1.94909 -0.0595016 0
M  V30 805 O 71.7878 -1.67973 -1.00806 0
M  V30 806 H 70.3678 -0.558395 0.49619 0
M  V30 807 H 73.0298 -0.890165 1.73384 0
M  V30 808 H 72.1258 -2.39413 2.00219 0
M  V30 809 N 72.4269 -1.23603 -0.977757 0
M  V30 810 C 73.3569 -1.04401 -2.0886 0
M  V30 811 C 74.3379 0.0399052 -1.70053 0
M  V30 812 O 75.5229 -0.125246 -1.93796 0
M  V30 813 C 72.6529 -0.637269 -3.41403 0
M  V30 814 C 71.6069 -1.66883 -3.94124 0
M  V30 815 C 70.9329 -1.11745 -5.22893 0
M  V30 816 C 72.2329 -3.06247 -4.23096 0
M  V30 817 H 73.9269 -1.97316 -2.25182 0
M  V30 818 H 71.4729 -0.950096 -1.08209 0
M  V30 819 H 73.4259 -0.48998 -4.18542 0
M  V30 820 H 72.1499 0.327557 -3.24953 0
M  V30 821 H 70.8089 -1.80416 -3.19133 0
M  V30 822 H 70.4569 -0.143527 -5.02795 0
M  V30 823 H 70.1569 -1.80672 -5.59134 0
M  V30 824 H 71.6809 -0.982067 -6.02651 0
M  V30 825 H 73.0949 -2.96001 -4.90975 0
M  V30 826 H 71.4919 -3.72436 -4.70544 0
M  V30 827 H 72.5619 -3.55041 -3.30263 0
M  V30 828 N 73.905 1.17692 -1.04816 0
M  V30 829 C 74.835 2.23777 -0.666791 0
M  V30 830 C 75.816 1.66796 0.33361 0
M  V30 831 O 77.001 1.93039 0.212042 0
M  V30 832 C 74.131 3.47281 -0.0367933 0
M  V30 833 C 73.085 4.17059 -0.961546 0
M  V30 834 C 72.411 5.34342 -0.195626 0
M  V30 835 C 73.711 4.69713 -2.28402 0
M  V30 836 H 75.405 2.55933 -1.55367 0
M  V30 837 H 72.951 1.23019 -0.748484 0
M  V30 838 H 74.904 4.20706 0.241775 0
M  V30 839 H 73.628 3.14381 0.885004 0
M  V30 840 H 72.287 3.45541 -1.22462 0
M  V30 841 H 71.935 4.97692 0.728816 0
M  V30 842 H 71.635 5.81966 -0.811775 0
M  V30 843 H 73.159 6.10553 0.0757473 0
M  V30 844 H 74.573 5.34794 -2.06563 0
M  V30 845 H 72.97 5.279 -2.8538 0
M  V30 846 H 74.04 3.86726 -2.92525 0
M  V30 847 N 75.3831 0.828654 1.34056 0
M  V30 848 C 76.2931 0.256725 2.33191 0
M  V30 849 C 77.3091 -0.611898 1.62886 0
M  V30 850 O 78.4851 -0.51844 1.94613 0
M  V30 851 C 75.5501 -0.567238 3.42028 0
M  V30 852 C 74.6111 0.324458 4.28072 0
M  V30 853 C 73.8441 -0.460274 5.31712 0
M  V30 854 O 74.0671 -1.693 5.44696 0
M  V30 855 O 73.0011 0.160391 6.01686 0
M  V30 856 H 76.8271 1.07739 2.83947 0
M  V30 857 H 74.4121 0.59093 1.37217 0
M  V30 858 H 76.2941 -1.03582 4.08471 0
M  V30 859 H 74.9691 -1.36513 2.93506 0
M  V30 860 H 73.8761 0.840659 3.64532 0
M  V30 861 H 75.2091 1.08685 4.8005 0
M  V30 862 N 76.8612 -1.46375 0.584142 0
M  V30 863 C 78.0892 -2.06761 0.0759296 0
M  V30 864 C 78.5042 -1.43266 -1.22965 0
M  V30 865 O 77.8612 -0.538458 -1.74376 0
M  V30 866 C 77.9122 -3.61375 -0.0950384 0
M  V30 867 O 77.6332 -4.22495 1.15887 0
M  V30 868 C 79.1342 -4.38693 -0.637434 0
M  V30 869 H 76.3542 -0.668479 0.0581075 0
M  V30 870 H 78.8982 -1.8798 0.805218 0
M  V30 871 H 77.0532 -3.79578 -0.774554 0
M  V30 872 H 77.4672 -5.15385 0.973598 0
M  V30 873 H 78.9412 -5.47464 -0.706237 0
M  V30 874 H 79.4182 -4.06836 -1.65472 0
M  V30 875 H 80.0242 -4.25299 0.00725967 0
M  V30 876 N 78.3393 -0.321999 -1.54275 0
M  V30 877 C 79.5643 0.285791 -2.05422 0
M  V30 878 C 79.9893 1.45124 -1.19669 0
M  V30 879 O 79.3473 1.80132 -0.205441 0
M  V30 880 C 79.3953 0.69956 -3.53749 0
M  V30 881 O 78.4993 1.8021 -3.70942 0
M  V30 882 H 77.8403 0.0518962 -0.661969 0
M  V30 883 H 80.3703 -0.469954 -1.9913 0
M  V30 884 H 80.3803 0.982649 -3.9599 0
M  V30 885 H 79.0553 -0.152864 -4.15619 0
M  V30 886 H 77.6323 1.51794 -3.40607 0
M  V30 887 N 79.8174 1.5752 -0.0501392 0
M  V30 888 C 80.7274 2.14952 0.939827 0
M  V30 889 C 81.7434 1.10706 1.34239 0
M  V30 890 O 82.9194 1.42869 1.41952 0
M  V30 891 C 79.9844 2.68232 2.19665 0
M  V30 892 C 79.0454 3.87272 1.85253 0
M  V30 893 C 78.2784 4.38002 3.04943 0
M  V30 894 O 78.5014 3.87811 4.18281 0
M  V30 895 O 77.4354 5.29602 2.86017 0
M  V30 896 H 81.2614 2.9986 0.481392 0
M  V30 897 H 78.8464 1.4841 0.171699 0
M  V30 898 H 80.7284 3.02475 2.93406 0
M  V30 899 H 79.4034 1.86395 2.64648 0
M  V30 900 H 78.3104 3.5792 1.0883 0
M  V30 901 H 79.6434 4.70336 1.4507 0
M  V30 902 N 81.2955 -0.223234 1.56011 0
M  V30 903 C 82.5435 -0.946003 1.78592 0
M  V30 904 C 82.8645 -1.84936 0.618349 0
M  V30 905 O 82.1345 -1.92473 -0.364833 0
M  V30 906 H 80.7145 -0.352298 0.658707 0
M  V30 907 H 83.3765 -0.235494 1.93472 0
M  V30 908 H 82.4725 -1.55381 2.70672 0
M  V30 909 N 82.7736 -1.49793 -0.48987 0
M  V30 910 C 84.0136 -1.61466 -1.25332 0
M  V30 911 C 84.3776 -0.299688 -1.89647 0
M  V30 912 O 85.5786 -0.291687 -2.67213 0
M  V30 913 C 83.8496 -2.74944 -2.28343 0
M  V30 914 S 85.4086 -3.06637 -3.13878 0
M  V30 915 H 82.2266 -0.569411 -0.425784 0
M  V30 916 H 84.8286 -1.875 -0.553541 0
M  V30 917 H 83.5326 -3.68994 -1.79643 0
M  V30 918 H 83.0636 -2.50938 -3.02975 0
M  V30 919 H 85.0786 -2.49015 -4.29192 0
M  V30 920 N 84.2517 0.741722 -1.39055 0
M  V30 921 C 85.6677 1.04638 -1.20512 0
M  V30 922 C 85.8677 2.01405 -0.0620218 0
M  V30 923 O 84.9237 2.45547 0.588457 0
M  V30 924 C 86.2367 1.6151 -2.53643 0
M  V30 925 C 87.7847 1.73623 -2.6043 0
M  V30 926 C 88.2597 2.33906 -3.93767 0
M  V30 927 N 89.7507 2.41323 -3.9537 0
M  V30 928 C 90.4857 2.88888 -4.95309 0
M  V30 929 N 89.9817 3.36401 -6.05645 0
M  V30 930 N 91.7747 2.88037 -4.82692 0
M  V30 931 H 83.9257 0.0998155 -2.12165 0
M  V30 932 H 86.1887 0.106907 -0.941953 0
M  V30 933 H 85.8947 0.978739 -3.37807 0
M  V30 934 H 85.7687 2.60411 -2.72885 0
M  V30 935 H 88.1557 2.36384 -1.76655 0
M  V30 936 H 88.2367 0.733945 -2.45045 0
M  V30 937 H 87.8807 1.71776 -4.7797 0
M  V30 938 H 87.8107 3.34799 -4.06469 0
M  V30 939 H 90.3017 2.07734 -3.15682 0
M  V30 940 H 90.6147 3.71186 -6.77821 0
M  V30 941 H 88.9597 3.34427 -6.09248 0
M  V30 942 H 92.1507 2.50237 -3.95599 0
M  V30 943 H 92.3237 3.24792 -5.60726 0
M  V30 944 N 85.7298 1.2412 0.971189 0
M  V30 945 C 86.6618 0.988349 2.06795 0
M  V30 946 C 87.6748 -0.0409541 1.62748 0
M  V30 947 O 88.8638 0.195673 1.77424 0
M  V30 948 C 85.9638 0.469023 3.35639 0
M  V30 949 C 85.1368 1.56065 4.08611 0
M  V30 950 C 84.1958 1.04458 5.15728 0
M  V30 951 O 83.2218 1.73553 5.42096 0
M  V30 952 N 84.4238 -0.122817 5.8037 0
M  V30 953 H 87.1888 1.93265 2.29061 0
M  V30 954 H 84.7498 1.15102 1.13856 0
M  V30 955 H 86.7418 0.108613 4.04554 0
M  V30 956 H 85.3118 -0.380919 3.1027 0
M  V30 957 H 84.5318 2.09341 3.34021 0
M  V30 958 H 85.8198 2.29449 4.54126 0
M  V30 959 H 85.2178 -0.700563 5.61345 0
M  V30 960 H 83.7748 -0.424404 6.50417 0
M  V30 961 N 87.2079 -1.17134 1.05439 0
M  V30 962 C 88.4569 -1.86791 0.761049 0
M  V30 963 C 88.7699 -1.82072 -0.714795 0
M  V30 964 O 89.9759 -2.47223 -1.12218 0
M  V30 965 C 88.4319 -3.35166 1.31117 0
M  V30 966 C 88.0399 -3.48381 2.81664 0
M  V30 967 C 89.7839 -4.10134 1.09499 0
M  V30 968 C 87.6909 -4.90793 3.29964 0
M  V30 969 H 86.6209 -0.699681 0.281002 0
M  V30 970 H 89.2719 -1.3226 1.27199 0
M  V30 971 H 87.6539 -3.8925 0.72803 0
M  V30 972 H 88.8279 -3.04502 3.45855 0
M  V30 973 H 87.1429 -2.86836 3.01851 0
M  V30 974 H 89.7399 -5.152 1.43084 0
M  V30 975 H 90.0829 -4.16287 0.0328772 0
M  V30 976 H 90.6159 -3.62264 1.64346 0
M  V30 977 H 87.3549 -4.89816 4.35616 0
M  V30 978 H 86.8749 -5.35333 2.70516 0
M  V30 979 H 88.5539 -5.59573 3.24787 0
M  V30 980 N 88.686 -0.835752 -1.33615 0
M  V30 981 C 89.616 -0.281739 -2.31794 0
M  V30 982 C 90.597 0.608833 -1.58831 0
M  V30 983 O 91.782 0.533035 -1.86741 0
M  V30 984 C 88.912 0.546612 -3.42971 0
M  V30 985 C 87.866 -0.247904 -4.27281 0
M  V30 986 C 87.192 0.704001 -5.30045 0
M  V30 987 C 88.492 -1.46324 -5.01385 0
M  V30 988 H 90.186 -1.10206 -2.78379 0
M  V30 989 H 87.732 -0.531388 -1.33837 0
M  V30 990 H 89.685 0.944467 -4.1068 0
M  V30 991 H 88.409 1.40011 -2.95067 0
M  V30 992 H 87.068 -0.627281 -3.61194 0
M  V30 993 H 86.716 1.55381 -4.78399 0
M  V30 994 H 86.416 0.176524 -5.87335 0
M  V30 995 H 87.94 1.09944 -6.0062 0
M  V30 996 H 89.354 -1.13871 -5.61877 0
M  V30 997 H 87.751 -1.92728 -5.6831 0
M  V30 998 H 88.821 -2.23467 -4.30338 0
M  V30 999 N 90.1641 1.46063 -0.591896 0
M  V30 1000 C 91.4121 2.01938 -0.0808391 0
M  V30 1001 C 91.7331 1.46475 1.28725 0
M  V30 1002 O 91.0031 0.652944 1.84698 0
M  V30 1003 H 89.5831 0.746516 -0.0268938 0
M  V30 1004 H 92.2451 1.79055 -0.769752 0
M  V30 1005 H 91.3411 3.12094 -0.0187578 0
M  V30 1006 N 91.6422 0.330177 1.54103 0
M  V30 1007 C 92.5742 -0.566902 2.22079 0
M  V30 1008 C 93.5872 -1.07462 1.22294 0
M  V30 1009 O 94.7762 -0.987065 1.48726 0
M  V30 1010 C 91.8762 -1.79138 2.87685 0
M  V30 1011 C 91.0492 -1.42123 4.13666 0
M  V30 1012 C 90.1082 -2.50394 4.62806 0
M  V30 1013 O 89.1342 -2.14261 5.27334 0
M  V30 1014 N 90.3362 -3.81433 4.37595 0
M  V30 1015 H 93.1012 0.0151844 2.99696 0
M  V30 1016 H 90.6622 0.153681 1.61169 0
M  V30 1017 H 92.6542 -2.50975 3.1748 0
M  V30 1018 H 91.2242 -2.28115 2.13734 0
M  V30 1019 H 90.4442 -0.534201 3.90564 0
M  V30 1020 H 91.7322 -1.14971 4.9564 0
M  V30 1021 H 91.1302 -4.13584 3.8596 0
M  V30 1022 H 89.6872 -4.4948 4.72029 0
M  V30 1023 N 93.1203 -1.57491 0.0584922 0
M  V30 1024 C 94.0503 -2.14988 -0.911178 0
M  V30 1025 C 95.0313 -1.07343 -1.31952 0
M  V30 1026 O 96.2163 -1.35318 -1.39294 0
M  V30 1027 C 93.3463 -2.70078 -2.18347 0
M  V30 1028 C 92.3003 -3.82771 -1.91495 0
M  V30 1029 C 91.6263 -4.24408 -3.25241 0
M  V30 1030 C 92.9263 -5.07592 -1.23075 0
M  V30 1031 H 94.6203 -2.96263 -0.432246 0
M  V30 1032 H 92.1663 -1.42512 -0.206469 0
M  V30 1033 H 94.1193 -3.08943 -2.86587 0
M  V30 1034 H 92.8433 -1.86005 -2.68458 0
M  V30 1035 H 91.5023 -3.44389 -1.25664 0
M  V30 1036 H 91.1503 -3.37275 -3.73168 0
M  V30 1037 H 90.8503 -5.00366 -3.08071 0
M  V30 1038 H 92.3743 -4.65879 -3.94701 0
M  V30 1039 H 93.7883 -5.43857 -1.81362 0
M  V30 1040 H 92.1853 -5.88741 -1.16207 0
M  V30 1041 H 93.2553 -4.84454 -0.207847 0
M  V30 1042 N 94.5984 0.214957 -1.56127 0
M  V30 1043 C 95.5304 1.29004 -1.89448 0
M  V30 1044 C 96.5434 1.42716 -0.783326 0
M  V30 1045 O 97.7324 1.43496 -1.06166 0
M  V30 1046 C 94.8324 2.66482 -2.09381 0
M  V30 1047 C 94.0054 2.74633 -3.40434 0
M  V30 1048 C 93.0644 3.9317 -3.49719 0
M  V30 1049 O 92.0904 3.812 -4.227 0
M  V30 1050 N 93.2924 5.07765 -2.81346 0
M  V30 1051 H 96.0574 1.00743 -2.82261 0
M  V30 1052 H 93.6184 0.40497 -1.56753 0
M  V30 1053 H 95.6104 3.44173 -2.12901 0
M  V30 1054 H 94.1804 2.87314 -1.23163 0
M  V30 1055 H 93.4004 1.83368 -3.48955 0
M  V30 1056 H 94.6884 2.77054 -4.26754 0
M  V30 1057 H 94.0864 5.20386 -2.21843 0
M  V30 1058 H 92.6434 5.83474 -2.90519 0
M  V30 1059 N 96.0765 1.50051 0.48192 0
M  V30 1060 C 97.4875 1.5348 1.06305 0
M  V30 1061 C 97.8385 0.331997 1.93371 0
M  V30 1062 O 96.9635 -0.556256 2.09129 0
M  V30 1063 C 97.5585 2.7813 1.93466 0
M  V30 1064 C 96.1175 2.84275 2.46707 0
M  V30 1065 C 95.2645 2.47637 1.24785 0
M  V30 1066 H 98.2155 1.56472 0.264995 0
M  V30 1067 H 98.2365 2.59372 2.78399 0
M  V30 1068 H 97.7485 3.65654 1.30072 0
M  V30 1069 H 95.8495 2.01077 3.13686 0
M  V30 1070 H 95.9625 3.8691 2.82555 0
M  V30 1071 H 94.3265 1.99835 1.57918 0
M  V30 1072 H 95.1095 3.37457 0.630694 0
M  V30 1073 N 97.5546 -0.734337 1.39446 0
M  V30 1074 C 98.7796 -1.52866 1.40167 0
M  V30 1075 C 99.2046 -1.881 -0.00171513 0
M  V30 1076 O 98.5626 -1.51957 -0.988879 0
M  V30 1077 C 98.6106 -2.79235 2.28167 0
M  V30 1078 O 97.7146 -3.75185 1.71201 0
M  V30 1079 H 97.0556 -0.461618 0.477289 0
M  V30 1080 H 99.5856 -0.905949 1.8345 0
M  V30 1081 H 99.5956 -3.27963 2.42702 0
M  V30 1082 H 98.2706 -2.52923 3.30156 0
M  V30 1083 H 96.8476 -3.33958 1.65912 0
M  V30 1084 N 99.0327 -1.24633 -0.964593 0
M  V30 1085 C 99.9627 -1.06611 -2.07741 0
M  V30 1086 C 100.944 0.0218666 -1.70086 0
M  V30 1087 O 102.129 -0.145793 -1.93652 0
M  V30 1088 C 99.2587 -0.673444 -3.40708 0
M  V30 1089 C 98.2127 -1.71054 -3.92332 0
M  V30 1090 C 97.5387 -1.17285 -5.21678 0
M  V30 1091 C 98.8387 -3.10718 -4.19824 0
M  V30 1092 H 100.533 -1.99693 -2.23076 0
M  V30 1093 H 98.0787 -0.96152 -1.07195 0
M  V30 1094 H 100.032 -0.534345 -4.17998 0
M  V30 1095 H 98.7557 0.293073 -3.25282 0
M  V30 1096 H 97.4147 -1.83791 -3.17201 0
M  V30 1097 H 97.0627 -0.196847 -5.02615 0
M  V30 1098 H 96.7627 -1.86592 -5.57187 0
M  V30 1099 H 98.2867 -1.04593 -6.01575 0
M  V30 1100 H 99.7007 -3.01192 -4.87808 0
M  V30 1101 H 98.0977 -3.77406 -4.66567 0
M  V30 1102 H 99.1677 -3.58524 -3.26479 0
M  V30 1103 N 100.511 1.16574 -1.06058 0
M  V30 1104 C 101.443 2.2045 -0.627239 0
M  V30 1105 C 102.456 1.59752 0.313534 0
M  V30 1106 O 103.645 1.78192 0.104896 0
M  V30 1107 C 100.745 3.3875 0.100974 0
M  V30 1108 C 99.9178 4.29008 -0.852687 0
M  V30 1109 C 98.9768 5.25944 -0.164152 0
M  V30 1110 O 98.0028 5.63535 -0.801047 0
M  V30 1111 N 99.2048 5.70075 1.09518 0
M  V30 1112 H 101.97 2.58249 -1.52077 0
M  V30 1113 H 99.5308 1.3156 -0.943594 0
M  V30 1114 H 101.523 4.00638 0.57194 0
M  V30 1115 H 100.093 2.99476 0.89628 0
M  V30 1116 H 99.3128 3.64419 -1.50308 0
M  V30 1117 H 100.601 4.86195 -1.49972 0
M  V30 1118 H 99.9988 5.41624 1.6328 0
M  V30 1119 H 98.5558 6.34067 1.51006 0
M  V30 1120 N 101.989 0.842826 1.3317 0
M  V30 1121 C 103.217 0.454055 2.01856 0
M  V30 1122 C 103.632 -0.94587 1.63397 0
M  V30 1123 O 102.989 -1.61534 0.849302 0
M  V30 1124 C 103.04 0.569715 3.56982 0
M  V30 1125 O 102.761 1.91448 3.94055 0
M  V30 1126 C 104.262 0.178412 4.42941 0
M  V30 1127 H 101.482 0.17979 0.646465 0
M  V30 1128 H 104.026 1.1365 1.70012 0
M  V30 1129 H 102.181 -0.0648587 3.87346 0
M  V30 1130 H 102.595 1.90282 4.88767 0
M  V30 1131 H 104.069 0.310376 5.51127 0
M  V30 1132 H 104.546 -0.880056 4.30293 0
M  V30 1133 H 105.152 0.787579 4.17944 0
M  V30 1134 N 103.467 -1.45747 0.599634 0
M  V30 1135 C 104.715 -2.01893 0.0915472 0
M  V30 1136 C 105.036 -1.47155 -1.27946 0
M  V30 1137 O 104.306 -0.66273 -1.84349 0
M  V30 1138 H 102.886 -0.746363 0.0308524 0
M  V30 1139 H 105.548 -1.78645 0.779237 0
M  V30 1140 H 104.644 -3.1208 0.0353086 0
M  V30 1141 N 104.945 -0.338344 -1.53925 0
M  V30 1142 C 106.17 0.263987 -2.05713 0
M  V30 1143 C 106.595 1.43847 -1.21201 0
M  V30 1144 O 105.953 1.79904 -0.224535 0
M  V30 1145 C 106.001 0.662 -3.54471 0
M  V30 1146 O 105.105 1.76265 -3.72833 0
M  V30 1147 H 104.446 0.0448722 -0.662482 0
M  V30 1148 H 106.976 -0.491048 -1.9862 0
M  V30 1149 H 106.986 0.940594 -3.9701 0
M  V30 1150 H 105.661 -0.196937 -4.15433 0
M  V30 1151 H 104.238 1.48173 -3.42198 0
M  V30 1152 N 106.423 1.57458 -0.0668435 0
M  V30 1153 C 107.333 2.15937 0.916975 0
M  V30 1154 C 108.349 1.12123 1.33058 0
M  V30 1155 O 109.525 1.44366 1.40429 0
M  V30 1156 C 106.59 2.70547 2.16807 0
M  V30 1157 C 105.651 3.89215 1.81135 0
M  V30 1158 C 104.884 4.41211 3.0028 0
M  V30 1159 O 105.107 3.92225 4.14144 0
M  V30 1160 O 104.041 5.32605 2.80384 0
M  V30 1161 H 107.867 3.00354 0.449561 0
M  V30 1162 H 105.452 1.48584 0.155949 0
M  V30 1163 H 107.334 3.0557 2.90181 0
M  V30 1164 H 106.009 1.89192 2.62656 0
M  V30 1165 H 104.916 3.59054 1.05028 0
M  V30 1166 H 106.249 4.71848 1.40073 0
M  V30 1167 N 107.901 -0.206675 1.56239 0
M  V30 1168 C 108.811 -1.27686 1.96808 0
M  V30 1169 C 109.827 -1.50455 0.874035 0
M  V30 1170 O 111.003 -1.63295 1.17884 0
M  V30 1171 C 108.068 -2.60358 2.28942 0
M  V30 1172 C 107.129 -2.45762 3.51994 0
M  V30 1173 C 106.362 -3.72108 3.82585 0
M  V30 1174 O 106.585 -4.75776 3.14631 0
M  V30 1175 O 105.519 -3.6833 4.76043 0
M  V30 1176 H 109.345 -0.962593 2.88041 0
M  V30 1177 H 106.93 -0.410746 1.43643 0
M  V30 1178 H 108.812 -3.38687 2.50737 0
M  V30 1179 H 107.487 -2.91435 1.4088 0
M  V30 1180 H 106.394 -1.65584 3.35459 0
M  V30 1181 H 107.727 -2.19621 4.40486 0
M  V30 1182 N 109.379 -1.50304 -0.473955 0
M  V30 1183 C 110.309 -1.71886 -1.58042 0
M  V30 1184 C 111.29 -0.567799 -1.60344 0
M  V30 1185 O 112.475 -0.806623 -1.76656 0
M  V30 1186 C 109.605 -1.81036 -2.96384 0
M  V30 1187 C 108.559 -2.962 -3.08949 0
M  V30 1188 C 107.885 -2.9049 -4.48909 0
M  V30 1189 C 109.185 -4.36752 -2.86434 0
M  V30 1190 H 110.879 -2.64527 -1.40234 0
M  V30 1191 H 108.425 -1.27295 -0.673201 0
M  V30 1192 H 110.378 -1.94719 -3.73714 0
M  V30 1193 H 109.102 -0.850147 -3.15341 0
M  V30 1194 H 107.761 -2.82164 -2.3405 0
M  V30 1195 H 107.409 -1.92321 -4.64781 0
M  V30 1196 H 107.109 -3.67802 -4.58253 0
M  V30 1197 H 108.633 -3.06218 -5.28264 0
M  V30 1198 H 110.047 -4.5133 -3.53517 0
M  V30 1199 H 108.444 -5.15493 -3.07225 0
M  V30 1200 H 109.514 -4.49321 -1.82316 0
M  V30 1201 N 110.857 0.726932 -1.39834 0
M  V30 1202 C 112.273 1.03354 -1.21615 0
M  V30 1203 C 112.473 2.01327 -0.08338 0
M  V30 1204 O 111.529 2.46158 0.56238 0
M  V30 1205 C 112.842 1.58811 -2.55342 0
M  V30 1206 C 114.39 1.70851 -2.62257 0
M  V30 1207 C 114.865 2.29716 -3.96225 0
M  V30 1208 N 116.356 2.37116 -3.97907 0
M  V30 1209 C 117.091 2.83619 -4.98345 0
M  V30 1210 N 116.587 3.29958 -6.09179 0
M  V30 1211 N 118.38 2.82901 -4.8572 0
M  V30 1212 H 110.531 0.0773069 -2.12259 0
M  V30 1213 H 112.794 0.0969102 -0.943034 0
M  V30 1214 H 112.5 0.942855 -3.38826 0
M  V30 1215 H 112.374 2.57502 -2.75632 0
M  V30 1216 H 114.761 2.34497 -1.79152 0
M  V30 1217 H 114.842 0.707913 -2.45809 0
M  V30 1218 H 114.486 1.66696 -4.79765 0
M  V30 1219 H 114.416 3.30469 -4.09997 0
M  V30 1220 H 116.907 2.04374 -3.17868 0
M  V30 1221 H 117.22 3.63976 -6.8172 0
M  V30 1222 H 115.565 3.27946 -6.12761 0
M  V30 1223 H 118.756 2.46027 -3.98231 0
M  V30 1224 H 118.929 3.18827 -5.6414 0
M  V30 1225 N 112.336 1.25143 0.95797 0
M  V30 1226 C 113.561 1.12521 1.74223 0
M  V30 1227 C 113.986 -0.317402 1.85403 0
M  V30 1228 O 113.344 -1.2299 1.33204 0
M  V30 1229 C 113.392 1.78062 3.1357 0
M  V30 1230 O 112.496 1.058 3.98598 0
M  V30 1231 H 111.837 0.39304 0.535178 0
M  V30 1232 H 114.367 1.65641 1.201 0
M  V30 1233 H 114.377 1.84213 3.64046 0
M  V30 1234 H 113.052 2.83021 3.04749 0
M  V30 1235 H 111.629 1.07506 3.57067 0
M  V30 1236 N 113.814 -1.1601 1.06675 0
M  V30 1237 C 114.744 -2.22688 0.702307 0
M  V30 1238 C 115.725 -1.67306 -0.307032 0
M  V30 1239 O 116.91 -1.93352 -0.181305 0
M  V30 1240 C 114.04 -3.47178 0.092038 0
M  V30 1241 C 112.994 -4.15477 1.02777 0
M  V30 1242 C 112.32 -5.33963 0.28061 0
M  V30 1243 C 113.62 -4.66019 2.35846 0
M  V30 1244 H 115.314 -2.53429 1.59419 0
M  V30 1245 H 112.86 -1.21813 0.767961 0
M  V30 1246 H 114.813 -4.21037 -0.174814 0
M  V30 1247 H 113.537 -3.15749 -0.834877 0
M  V30 1248 H 112.196 -3.43549 1.27944 0
M  V30 1249 H 111.844 -4.98788 -0.649545 0
M  V30 1250 H 111.544 -5.806 0.904258 0
M  V30 1251 H 113.068 -6.10596 0.021396 0
M  V30 1252 H 114.482 -5.3144 2.15045 0
M  V30 1253 H 112.879 -5.23293 2.93743 0
M  V30 1254 H 113.949 -3.82023 2.98641 0
M  V30 1255 N 115.292 -0.849877 -1.32721 0
M  V30 1256 C 116.522 -0.46408 -2.0132 0
M  V30 1257 C 116.93 0.94246 -1.64056 0
M  V30 1258 O 116.273 1.6257 -0.855379 0
M  V30 1259 C 116.335 -0.517887 -3.5575 0
M  V30 1260 C 115.999 -1.88248 -4.16427 0
M  V30 1261 C 116.996 -2.84726 -4.35002 0
M  V30 1262 C 114.681 -2.17832 -4.52609 0
M  V30 1263 C 116.675 -4.08945 -4.8892 0
M  V30 1264 C 114.362 -3.42304 -5.06232 0
M  V30 1265 C 115.36 -4.37677 -5.24335 0
M  V30 1266 O 115.048 -5.59946 -5.76815 0
M  V30 1267 H 114.78 -0.181327 -0.651227 0
M  V30 1268 H 117.334 -1.14713 -1.70382 0
M  V30 1269 H 115.564 0.221997 -3.86062 0
M  V30 1270 H 117.253 -0.148366 -4.05629 0
M  V30 1271 H 118.019 -2.63174 -4.07388 0
M  V30 1272 H 113.898 -1.44385 -4.37806 0
M  V30 1273 H 117.442 -4.83396 -5.02966 0
M  V30 1274 H 113.339 -3.63709 -5.33278 0
M  V30 1275 H 114.107 -5.61838 -5.95214 0
M  V30 1276 N 116.77 1.45427 -0.607355 0
M  V30 1277 C 117.718 2.32269 0.12411 0
M  V30 1278 C 118.712 1.45955 0.859854 0
M  V30 1279 O 119.918 1.6244 0.775447 0
M  V30 1280 H 116.293 0.749691 0.0588839 0
M  V30 1281 H 118.264 2.91743 -0.626762 0
M  V30 1282 C 117.013 3.29567 1.1082 0
M  V30 1283 H 116.336 3.95978 0.551492 0
M  V30 1284 H 117.776 3.93061 1.58995 0
M  V30 1285 C 116.235 2.56722 2.18164 0
M  V30 1286 O 116.765 2.34842 3.25902 0
M  V30 1287 N 114.971 2.16861 1.93442 0
M  V30 1288 H 114.518 2.34855 1.05834 0
M  V30 1289 H 114.476 1.68444 2.65469 0
M  V30 1290 N 118.248 0.346503 1.53744 0
M  V30 1291 C 119.476 -0.25041 2.05379 0
M  V30 1292 C 119.891 -1.43979 1.22129 0
M  V30 1293 O 119.248 -1.80677 0.257321 0
M  V30 1294 C 119.299 -0.662575 3.55376 0
M  V30 1295 O 119.02 0.479515 4.35468 0
M  V30 1296 C 120.521 -1.31989 4.23195 0
M  V30 1297 H 117.741 -0.0478198 0.669294 0
M  V30 1298 H 120.285 0.499346 1.9831 0
M  V30 1299 H 118.44 -1.36227 3.62658 0
M  V30 1300 H 118.854 0.15037 5.24284 0
M  V30 1301 H 120.328 -1.55902 5.29527 0
M  V30 1302 H 120.805 -2.27436 3.75725 0
M  V30 1303 H 121.411 -0.662154 4.20114 0
M  V30 1304 N 119.726 -1.57421 0.075193 0
M  V30 1305 C 120.972 -1.93905 -0.594025 0
M  V30 1306 C 121.305 -0.955701 -1.69056 0
M  V30 1307 O 120.58 0.0145373 -1.94495 0
M  V30 1308 C 120.863 -3.40638 -1.1678 0
M  V30 1309 C 120.716 -4.49733 -0.0776792 0
M  V30 1310 C 122.035 -3.88259 -2.07228 0
M  V30 1311 H 119.154 -0.705105 -0.214466 0
M  V30 1312 H 121.796 -1.8947 0.141854 0
M  V30 1313 H 119.946 -3.44549 -1.79494 0
M  V30 1314 H 121.618 -4.57942 0.555573 0
M  V30 1315 H 119.861 -4.29751 0.591286 0
M  V30 1316 H 120.532 -5.49549 -0.519603 0
M  V30 1317 H 123.008 -3.86376 -1.54445 0
M  V30 1318 H 121.884 -4.91533 -2.44308 0
M  V30 1319 H 122.145 -3.26396 -2.98191 0
M  V30 1320 N 121.204 0.198386 -1.56346 0
M  V30 1321 C 122.167 1.22952 -1.93431 0
M  V30 1322 C 123.167 1.38611 -0.815092 0
M  V30 1323 O 124.357 1.36479 -1.08255 0
M  V30 1324 C 121.489 2.59946 -2.20546 0
M  V30 1325 H 122.682 0.912626 -2.85677 0
M  V30 1326 H 120.235 0.43977 -1.49986 0
M  V30 1327 H 120.97 2.96696 -1.30927 0
M  V30 1328 H 120.755 2.49953 -3.02102 0
M  V30 1329 H 122.245 3.3431 -2.50253 0
M  V30 1330 N 122.682 1.50554 0.465978 0
M  V30 1331 C 123.91 1.65563 1.24083 0
M  V30 1332 C 124.325 0.341051 1.85694 0
M  V30 1333 O 123.682 -0.677543 1.69457 0
M  V30 1334 C 123.733 2.75051 2.34583 0
M  V30 1335 O 123.454 4.01413 1.75497 0
M  V30 1336 C 124.955 3.01078 3.25372 0
M  V30 1337 H 122.175 0.55638 0.375077 0
M  V30 1338 H 124.719 1.96807 0.555624 0
M  V30 1339 H 122.874 2.46486 2.9887 0
M  V30 1340 H 123.288 4.62002 2.48303 0
M  V30 1341 H 124.762 3.81339 3.99105 0
M  V30 1342 H 125.239 2.12349 3.84453 0
M  V30 1343 H 125.845 3.31194 2.66816 0
M  V30 1344 N 124.16 -0.719506 1.40217 0
M  V30 1345 C 125.09 -1.8465 1.42922 0
M  V30 1346 C 126.071 -1.67599 0.29062 0
M  V30 1347 O 127.256 -1.87688 0.498677 0
M  V30 1348 C 124.386 -3.22565 1.28722 0
M  V30 1349 C 123.34 -3.54281 2.40144 0
M  V30 1350 C 122.666 -4.91298 2.11023 0
M  V30 1351 C 123.966 -3.55676 3.82481 0
M  V30 1352 H 125.66 -1.82644 2.37237 0
M  V30 1353 H 123.206 -0.877305 1.1419 0
M  V30 1354 H 125.159 -4.01095 1.29232 0
M  V30 1355 H 123.883 -3.25137 0.308811 0
M  V30 1356 H 122.542 -2.78088 2.38877 0
M  V30 1357 H 122.19 -4.90468 1.11582 0
M  V30 1358 H 121.89 -5.13485 2.8567 0
M  V30 1359 H 123.414 -5.72166 2.13209 0
M  V30 1360 H 124.828 -4.24254 3.85592 0
M  V30 1361 H 123.225 -3.89388 4.56614 0
M  V30 1362 H 124.295 -2.55144 4.12346 0
M  V30 1363 N 125.638 -1.25649 -0.95132 0
M  V30 1364 C 126.868 -1.13179 -1.72841 0
M  V30 1365 C 127.276 0.316827 -1.86528 0
M  V30 1366 O 126.619 1.22948 -1.3649 0
M  V30 1367 C 126.681 -1.71644 -3.15878 0
M  V30 1368 C 126.345 -3.20667 -3.25609 0
M  V30 1369 C 127.342 -4.17616 -3.09666 0
M  V30 1370 C 125.027 -3.6094 -3.49324 0
M  V30 1371 C 127.021 -5.52817 -3.17289 0
M  V30 1372 C 124.708 -4.96278 -3.56584 0
M  V30 1373 C 125.706 -5.92025 -3.40581 0
M  V30 1374 O 125.394 -7.24899 -3.47528 0
M  V30 1375 H 125.126 -0.395389 -0.54831 0
M  V30 1376 H 127.68 -1.66566 -1.20187 0
M  V30 1377 H 125.91 -1.12707 -3.69911 0
M  V30 1378 H 127.599 -1.54225 -3.75459 0
M  V30 1379 H 128.365 -3.87842 -2.91211 0
M  V30 1380 H 124.244 -2.86907 -3.6084 0
M  V30 1381 H 127.788 -6.2753 -3.04716 0
M  V30 1382 H 123.685 -5.25716 -3.74556 0
M  V30 1383 H 124.453 -7.33039 -3.64138 0
M  V30 1384 N 127.117 1.15442 -1.07289 0
M  V30 1385 C 128.357 1.8788 -0.805012 0
M  V30 1386 C 128.721 1.80413 0.656907 0
M  V30 1387 O 129.922 2.47874 1.0398 0
M  V30 1388 C 128.193 3.3298 -1.29843 0
M  V30 1389 S 129.752 4.23158 -1.16114 0
M  V30 1390 H 126.57 0.64839 -0.291739 0
M  V30 1391 H 129.172 1.39285 -1.37186 0
M  V30 1392 H 127.876 3.35958 -2.35712 0
M  V30 1393 H 127.407 3.86629 -0.726767 0
M  V30 1394 H 129.422 4.96103 -0.0982778 0
M  V30 1395 N 128.595 0.856903 1.32268 0
M  V30 1396 C 129.841 0.462069 1.97466 0
M  V30 1397 C 130.174 -0.980298 1.67642 0
M  V30 1398 O 129.449 -1.68824 0.965858 0
M  V30 1399 C 129.732 0.704336 3.53145 0
M  V30 1400 C 129.585 2.19529 3.9259 0
M  V30 1401 C 130.904 0.1622 4.39801 0
M  V30 1402 H 128.023 0.169357 0.717278 0
M  V30 1403 H 130.665 1.07574 1.56614 0
M  V30 1404 H 128.815 0.181999 3.88073 0
M  V30 1405 H 130.487 2.78387 3.67829 0
M  V30 1406 H 128.73 2.67292 3.41668 0
M  V30 1407 H 129.401 2.31549 5.01088 0
M  V30 1408 H 131.877 0.608905 4.11621 0
M  V30 1409 H 130.753 0.361265 5.4771 0
M  V30 1410 H 131.014 -0.935158 4.32096 0
M  V30 1411 N 130.073 -1.45103 0.615059 0
M  V30 1412 C 131.023 -2.27679 -0.120966 0
M  V30 1413 C 132.007 -1.3775 -0.831491 0
M  V30 1414 O 133.199 -1.61683 -0.720249 0
M  V30 1415 C 130.328 -3.24767 -1.1127 0
M  V30 1416 C 129.414 -4.22184 -0.402627 0
M  V30 1417 N 129.805 -5.02692 0.559884 0
M  V30 1418 C 128.103 -4.4125 -0.649202 0
M  V30 1419 C 128.804 -5.73421 0.977942 0
M  V30 1420 N 127.78 -5.42657 0.320104 0
M  V30 1421 H 131.582 -2.87325 0.618181 0
M  V30 1422 H 129.096 -1.56345 0.439304 0
M  V30 1423 H 131.093 -3.82666 -1.65446 0
M  V30 1424 H 129.753 -2.66682 -1.85232 0
M  V30 1425 H 130.764 -5.09354 0.936976 0
M  V30 1426 H 127.441 -3.9428 -1.37293 0
M  V30 1427 H 128.831 -6.48107 1.77222 0
M  V30 1428 N 131.551 -0.354651 -1.53558 0
M  V30 1429 C 132.483 0.5315 -2.22952 0
M  V30 1430 C 133.496 1.05503 -1.23988 0
M  V30 1431 O 134.685 0.963279 -1.50277 0
M  V30 1432 C 131.785 1.74538 -2.90499 0
M  V30 1433 C 130.958 1.35524 -4.15875 0
M  V30 1434 C 130.017 2.42999 -4.66731 0
M  V30 1435 O 129.043 2.05844 -5.30676 0
M  V30 1436 N 130.245 3.74423 -4.43608 0
M  V30 1437 H 133.01 -0.0628615 -2.99634 0
M  V30 1438 H 130.571 -0.179302 -1.60904 0
M  V30 1439 H 132.563 2.45892 -3.21433 0
M  V30 1440 H 131.133 2.24686 -2.17336 0
M  V30 1441 H 130.353 0.471998 -3.91364 0
M  V30 1442 H 131.641 1.07071 -4.97406 0
M  V30 1443 H 131.039 4.07391 -3.92491 0
M  V30 1444 H 129.596 4.41913 -4.7912 0
M  V30 1445 N 133.029 1.57378 -0.0835403 0
M  V30 1446 C 134.445 1.57246 0.273109 0
M  V30 1447 C 134.645 1.09385 1.69225 0
M  V30 1448 O 133.701 0.765051 2.40631 0
M  V30 1449 C 135.014 3.00614 0.0720628 0
M  V30 1450 C 136.562 3.12684 0.1407 0
M  V30 1451 C 137.037 4.57989 -0.0322094 0
M  V30 1452 N 138.528 4.63194 0.0230085 0
M  V30 1453 C 139.263 5.73335 -0.0861941 0
M  V30 1454 N 138.759 6.9235 -0.24958 0
M  V30 1455 N 140.552 5.62093 -0.0282886 0
M  V30 1456 H 132.703 1.86801 -1.0109 0
M  V30 1457 H 134.966 0.861687 -0.395222 0
M  V30 1458 H 134.672 3.39786 -0.907662 0
M  V30 1459 H 134.546 3.68193 0.81936 0
M  V30 1460 H 136.933 2.73391 1.11092 0
M  V30 1461 H 137.014 2.47719 -0.637896 0
M  V30 1462 H 136.658 4.97973 -0.999247 0
M  V30 1463 H 136.588 5.21 0.765937 0
M  V30 1464 H 139.079 3.77613 0.14722 0
M  V30 1465 H 139.392 7.72117 -0.324733 0
M  V30 1466 H 137.737 6.94415 -0.285097 0
M  V30 1467 H 140.928 4.67997 0.0981408 0
M  V30 1468 H 141.101 6.47895 -0.116845 0
M  V30 1469 N 134.507 -0.190092 1.56449 0
M  V30 1470 C 135.756 -0.907912 1.80111 0
M  V30 1471 C 136.069 -1.84214 0.657619 0
M  V30 1472 O 137.275 -2.60094 0.778663 0
M  V30 1473 C 135.731 -1.66485 3.19078 0
M  V30 1474 C 135.339 -0.7752 4.41242 0
M  V30 1475 C 137.083 -2.37201 3.52045 0
M  V30 1476 C 134.99 -1.53129 5.71231 0
M  V30 1477 H 133.92 -0.34276 0.671589 0
M  V30 1478 H 136.571 -0.161109 1.82791 0
M  V30 1479 H 134.953 -2.45572 3.10661 0
M  V30 1480 H 136.127 -0.0226298 4.60794 0
M  V30 1481 H 134.442 -0.178627 4.16017 0
M  V30 1482 H 137.039 -2.94329 4.46402 0
M  V30 1483 H 137.382 -3.11632 2.76028 0
M  V30 1484 H 137.915 -1.65075 3.61932 0
M  V30 1485 H 134.654 -0.82967 6.50228 0
M  V30 1486 H 134.174 -2.25767 5.55688 0
M  V30 1487 H 135.853 -2.08377 6.12526 0
M  V30 1488 N 135.985 -1.50799 -0.457987 0
M  V30 1489 C 137.262 -1.52968 -1.21902 0
M  V30 1490 C 137.642 -0.281906 -2.09209 0
M  V30 1491 O 136.99 0.734076 -2.16388 0
M  V30 1492 C 137.2 -2.8326 -2.03875 0
M  V30 1493 C 138.548 -3.34425 -2.6162 0
M  V30 1494 O 139.572 -2.8467 -2.14106 0
M  V30 1495 O 138.431 -4.21188 -3.48228 0
M  V30 1496 H 135.525 -0.614129 -0.553873 0
M  V30 1497 H 138.071 -1.63098 -0.468739 0
M  V30 1498 H 136.843 -3.65543 -1.39621 0
M  V30 1499 H 136.466 -2.76195 -2.8601 0
M  V30 1500 N 137.463 0.71206 -1.40597 0
M  V30 1501 C 138.709 1.47416 -1.39271 0
M  V30 1502 C 139.042 1.942 0.00388791 0
M  V30 1503 O 138.317 1.68403 0.973179 0
M  V30 1504 C 138.6 2.69774 -2.38525 0
M  V30 1505 C 138.453 2.28861 -3.87224 0
M  V30 1506 C 139.772 3.71939 -2.35264 0
M  V30 1507 H 136.891 0.534713 -0.5072 0
M  V30 1508 H 139.533 0.812375 -1.71757 0
M  V30 1509 H 137.683 3.26238 -2.10953 0
M  V30 1510 H 139.355 1.77852 -4.25636 0
M  V30 1511 H 137.598 1.60824 -4.02887 0
M  V30 1512 H 138.269 3.16584 -4.52193 0
M  V30 1513 H 140.745 3.25113 -2.59694 0
M  V30 1514 H 139.621 4.55186 -3.06753 0
M  V30 1515 H 139.882 4.20484 -1.36549 0
M  V30 1516 N 138.941 1.26152 0.944643 0
M  V30 1517 C 139.888 1.07408 2.04285 0
M  V30 1518 C 140.858 -0.0198413 1.66088 0
M  V30 1519 O 142.043 0.139264 1.90291 0
M  V30 1520 C 139.183 0.70945 3.37729 0
M  V30 1521 C 138.296 1.87926 3.88983 0
M  V30 1522 C 137.431 1.45807 5.10797 0
M  V30 1523 C 136.47 2.5964 5.54305 0
M  V30 1524 N 135.607 2.18226 6.67324 0
M  V30 1525 H 140.447 2.01389 2.1965 0
M  V30 1526 H 137.984 1.00275 1.07626 0
M  V30 1527 H 139.942 0.478948 4.14442 0
M  V30 1528 H 138.572 -0.193389 3.2222 0
M  V30 1529 H 137.624 2.22279 3.08701 0
M  V30 1530 H 138.936 2.73377 4.17213 0
M  V30 1531 H 138.09 1.18781 5.94959 0
M  V30 1532 H 136.829 0.574414 4.84305 0
M  V30 1533 H 135.834 2.87399 4.68702 0
M  V30 1534 H 137.059 3.48599 5.828 0
M  V30 1535 H 135.005 1.3229 6.42523 0
M  V30 1536 H 134.922 2.97221 6.95123 0
M  V30 1537 H 136.19 1.94403 7.54869 0
M  V30 1538 N 140.419 -1.14872 1.07899 0
M  V30 1539 C 141.696 -1.81928 0.71845 0
M  V30 1540 C 142.076 -1.95417 -0.798455 0
M  V30 1541 O 141.424 -1.50997 -1.715 0
M  V30 1542 C 141.634 -3.17937 1.43935 0
M  V30 1543 C 142.982 -3.93501 1.59506 0
M  V30 1544 O 144.006 -3.27509 1.40058 0
M  V30 1545 O 142.865 -5.1183 1.91551 0
M  V30 1546 H 139.959 -0.78628 0.256305 0
M  V30 1547 H 142.505 -1.21934 1.18026 0
M  V30 1548 H 141.277 -3.0325 2.47295 0
M  V30 1549 H 140.9 -3.85619 0.968687 0
M  V30 1550 N 141.898 -0.863906 -1.31812 0
M  V30 1551 C 143.126 -0.486111 -2.01108 0
M  V30 1552 C 143.541 0.919755 -1.64882 0
M  V30 1553 O 142.898 1.60162 -0.874893 0
M  V30 1554 C 142.949 -0.626435 -3.56031 0
M  V30 1555 O 142.67 -1.97693 -3.90959 0
M  V30 1556 C 144.171 -0.248857 -4.42601 0
M  V30 1557 H 141.391 -0.190052 -0.643523 0
M  V30 1558 H 143.935 -1.1634 -1.68182 0
M  V30 1559 H 142.09 0.00322717 -3.874 0
M  V30 1560 H 142.504 -1.98034 -4.85678 0
M  V30 1561 H 143.978 -0.398016 -5.50563 0
M  V30 1562 H 144.455 0.811489 -4.31638 0
M  V30 1563 H 145.061 -0.853971 -4.16638 0
M  V30 1564 N 143.376 1.44774 -0.622745 0
M  V30 1565 C 144.323 2.30635 0.0871679 0
M  V30 1566 C 145.293 1.42994 0.845097 0
M  V30 1567 O 146.478 1.71907 0.827812 0
M  V30 1568 C 143.618 3.28144 1.06844 0
M  V30 1569 C 142.731 4.30888 0.309809 0
M  V30 1570 C 141.866 5.15494 1.28215 0
M  V30 1571 C 140.905 6.09953 0.512198 0
M  V30 1572 N 140.042 6.87287 1.43458 0
M  V30 1573 H 144.882 2.90803 -0.650974 0
M  V30 1574 H 142.419 1.43286 -0.33281 0
M  V30 1575 H 144.377 3.83157 1.65066 0
M  V30 1576 H 143.007 2.69695 1.77382 0
M  V30 1577 H 142.059 3.78414 -0.388181 0
M  V30 1578 H 143.371 4.97955 -0.290254 0
M  V30 1579 H 142.525 5.74983 1.93596 0
M  V30 1580 H 141.264 4.48481 1.91614 0
M  V30 1581 H 140.269 5.49581 -0.155151 0
M  V30 1582 H 141.494 6.78999 -0.116958 0
M  V30 1583 H 139.44 6.2295 2.05594 0
M  V30 1584 H 139.357 7.50763 0.888335 0
M  V30 1585 H 140.625 7.51306 2.07749 0
M  V30 1586 N 144.854 0.36279 1.53368 0
M  V30 1587 C 145.764 -0.492994 2.29362 0
M  V30 1588 C 146.78 -1.09507 1.35219 0
M  V30 1589 O 147.956 -1.10662 1.68273 0
M  V30 1590 C 145.021 -1.61855 3.066 0
M  V30 1591 C 144.082 -1.04429 4.16405 0
M  V30 1592 C 143.315 -2.11621 4.89951 0
M  V30 1593 O 143.538 -3.32684 4.63333 0
M  V30 1594 O 142.472 -1.74835 5.75948 0
M  V30 1595 H 146.298 0.125331 3.03441 0
M  V30 1596 H 143.883 0.127253 1.48857 0
M  V30 1597 H 145.765 -2.27302 3.54841 0
M  V30 1598 H 144.44 -2.22233 2.3536 0
M  V30 1599 H 143.347 -0.353819 3.72423 0
M  V30 1600 H 144.68 -0.485113 4.89804 0
M  V30 1601 N 146.332 -1.57332 0.0918853 0
M  V30 1602 C 147.295 -2.12708 -0.85369 0
M  V30 1603 C 148.295 -1.05561 -1.213 0
M  V30 1604 O 149.485 -1.31461 -1.14296 0
M  V30 1605 C 146.617 -2.64503 -2.15061 0
M  V30 1606 H 147.81 -2.97573 -0.3729 0
M  V30 1607 H 145.363 -1.55509 -0.157072 0
M  V30 1608 H 146.098 -1.83149 -2.67632 0
M  V30 1609 H 145.883 -3.4284 -1.90272 0
M  V30 1610 H 147.373 -3.07351 -2.82711 0
M  V30 1611 N 147.81 0.181792 -1.56548 0
M  V30 1612 C 148.74 1.22765 -1.98623 0
M  V30 1613 C 149.721 1.46747 -0.860189 0
M  V30 1614 O 150.906 1.58259 -1.12551 0
M  V30 1615 C 148.036 2.56894 -2.33715 0
M  V30 1616 C 146.99 2.475 -3.49182 0
M  V30 1617 C 146.316 3.86023 -3.69986 0
M  V30 1618 C 147.616 1.98866 -4.82959 0
M  V30 1619 H 149.31 0.877942 -2.86239 0
M  V30 1620 H 146.856 0.42088 -1.37712 0
M  V30 1621 H 148.809 3.30253 -2.61746 0
M  V30 1622 H 147.533 2.93632 -1.42997 0
M  V30 1623 H 146.192 1.76596 -3.21262 0
M  V30 1624 H 145.84 4.20136 -2.76576 0
M  V30 1625 H 145.54 3.80609 -4.47672 0
M  V30 1626 H 147.064 4.60984 -4.00407 0
M  V30 1627 H 148.478 2.61992 -5.09934 0
M  V30 1628 H 146.875 2.04424 -5.64208 0
M  V30 1629 H 147.945 0.942465 -4.75653 0
M  V30 1630 N 149.288 1.51039 0.449983 0
M  V30 1631 C 150.198 1.74261 1.57067 0
M  V30 1632 C 151.214 0.626363 1.62335 0
M  V30 1633 O 152.39 0.907162 1.79812 0
M  V30 1634 C 149.455 1.85114 2.93144 0
M  V30 1635 C 148.516 3.0893 2.98095 0
M  V30 1636 C 147.749 3.19256 4.27681 0
M  V30 1637 O 147.972 2.35835 5.19363 0
M  V30 1638 O 146.906 4.12144 4.38658 0
M  V30 1639 H 150.732 2.69303 1.40391 0
M  V30 1640 H 148.317 1.35389 0.631688 0
M  V30 1641 H 150.199 1.94311 3.73926 0
M  V30 1642 H 148.874 0.932588 3.09975 0
M  V30 1643 H 147.781 3.0522 2.16314 0
M  V30 1644 H 149.114 4.00433 2.86206 0
M  V30 1645 N 150.766 -0.704594 1.40972 0
M  V30 1646 C 151.713 -1.81862 1.42109 0
M  V30 1647 C 152.683 -1.63781 0.276593 0
M  V30 1648 O 153.868 -1.84759 0.4763 0
M  V30 1649 C 151.008 -3.19669 1.30022 0
M  V30 1650 C 150.121 -3.49246 2.54267 0
M  V30 1651 C 149.256 -4.76618 2.3454 0
M  V30 1652 C 148.295 -4.99133 3.54306 0
M  V30 1653 N 147.432 -6.17726 3.33706 0
M  V30 1654 H 152.272 -1.80226 2.37324 0
M  V30 1655 H 149.809 -0.880238 1.17857 0
M  V30 1656 H 151.767 -3.99263 1.21018 0
M  V30 1657 H 150.397 -3.20506 0.384192 0
M  V30 1658 H 149.449 -2.64125 2.73756 0
M  V30 1659 H 150.761 -3.61788 3.43381 0
M  V30 1660 H 149.915 -5.64249 2.22952 0
M  V30 1661 H 148.654 -4.66305 1.42867 0
M  V30 1662 H 147.659 -4.09953 3.66359 0
M  V30 1663 H 148.884 -5.11311 4.4692 0
M  V30 1664 H 146.83 -6.08642 2.44725 0
M  V30 1665 H 146.747 -6.30995 4.16391 0
M  V30 1666 H 148.015 -7.08115 3.25873 0
M  V30 1667 N 152.244 -1.26651 -0.937939 0
M  V30 1668 C 153.493 -1.11775 -1.67897 0
M  V30 1669 C 153.806 0.33794 -1.92659 0
M  V30 1670 O 155.012 0.607434 -2.64618 0
M  V30 1671 C 153.468 -1.9523 -3.02346 0
M  V30 1672 C 153.076 -3.45393 -2.8532 0
M  V30 1673 C 154.82 -1.88972 -3.80118 0
M  V30 1674 C 152.727 -4.21083 -4.15263 0
M  V30 1675 H 151.657 -0.414696 -0.629717 0
M  V30 1676 H 154.308 -1.50988 -1.04283 0
M  V30 1677 H 152.69 -1.48853 -3.66959 0
M  V30 1678 H 153.864 -3.99561 -2.29537 0
M  V30 1679 H 152.179 -3.52921 -2.20988 0
M  V30 1680 H 154.776 -2.42805 -4.76392 0
M  V30 1681 H 155.119 -0.86113 -4.07296 0
M  V30 1682 H 155.652 -2.33189 -3.22285 0
M  V30 1683 H 152.391 -5.24425 -3.93267 0
M  V30 1684 H 151.911 -3.71695 -4.70747 0
M  V30 1685 H 153.59 -4.29706 -4.83696 0
M  V30 1686 N 153.722 1.14298 -1.08507 0
M  V30 1687 C 154.632 2.23027 -0.727753 0
M  V30 1688 C 155.648 1.71952 0.26619 0
M  V30 1689 O 156.824 2.011 0.109882 0
M  V30 1690 C 153.889 3.46403 -0.143541 0
M  V30 1691 C 152.95 4.12413 -1.19223 0
M  V30 1692 C 152.183 5.29899 -0.635798 0
M  V30 1693 O 152.406 5.67796 0.544393 0
M  V30 1694 O 151.34 5.85717 -1.38634 0
M  V30 1695 H 155.166 2.55945 -1.63481 0
M  V30 1696 H 152.751 1.22248 -0.858817 0
M  V30 1697 H 154.633 4.21018 0.179404 0
M  V30 1698 H 153.308 3.15206 0.736659 0
M  V30 1699 H 152.215 3.39667 -1.56772 0
M  V30 1700 H 153.548 4.47718 -2.04474 0
M  V30 1701 N 155.201 0.870884 1.31352 0
M  V30 1702 C 156.111 0.330783 2.32256 0
M  V30 1703 C 157.127 -0.559767 1.6475 0
M  V30 1704 O 158.303 -0.456263 1.96164 0
M  V30 1705 C 155.368 -0.458137 3.4366 0
M  V30 1706 C 154.429 0.460482 4.26823 0
M  V30 1707 C 153.662 -0.290881 5.32907 0
M  V30 1708 O 153.885 -1.51885 5.49806 0
M  V30 1709 O 152.819 0.351732 6.00871 0
M  V30 1710 H 156.645 1.16718 2.80376 0
M  V30 1711 H 154.23 0.634285 1.35267 0
M  V30 1712 H 156.112 -0.905343 4.1156 0
M  V30 1713 H 154.787 -1.27106 2.97701 0
M  V30 1714 H 153.694 0.956207 3.61673 0
M  V30 1715 H 155.027 1.23903 4.7635 0
M  V30 1716 N 156.679 -1.44442 0.630414 0
M  V30 1717 C 157.589 -2.34476 -0.0761693 0
M  V30 1718 C 158.605 -1.52576 -0.836449 0
M  V30 1719 O 159.781 -1.85307 -0.788874 0
M  V30 1720 C 156.846 -3.30545 -1.04599 0
M  V30 1721 C 155.907 -4.28352 -0.28516 0
M  V30 1722 C 155.14 -5.19831 -1.20878 0
M  V30 1723 O 155.363 -5.15223 -2.44747 0
M  V30 1724 O 154.297 -5.97892 -0.693491 0
M  V30 1725 H 158.123 -2.96345 0.664324 0
M  V30 1726 H 155.708 -1.44203 0.39061 0
M  V30 1727 H 157.59 -3.89681 -1.60396 0
M  V30 1728 H 156.265 -2.7121 -1.76711 0
M  V30 1729 H 155.172 -3.72764 0.315837 0
M  V30 1730 H 156.505 -4.90605 0.395924 0
M  V30 1731 N 158.157 -0.370918 -1.53173 0
M  V30 1732 C 159.089 0.507823 -2.23503 0
M  V30 1733 C 160.102 1.04182 -1.251 0
M  V30 1734 O 161.291 0.947286 -1.5129 0
M  V30 1735 C 158.391 1.71447 -2.92334 0
M  V30 1736 C 157.564 1.31105 -4.17289 0
M  V30 1737 C 156.623 2.38035 -4.69282 0
M  V30 1738 O 155.649 2.00204 -5.32829 0
M  V30 1739 N 156.851 3.69697 -4.47554 0
M  V30 1740 H 159.616 -0.0946382 -2.99551 0
M  V30 1741 H 157.177 -0.196358 -1.60705 0
M  V30 1742 H 159.169 2.42469 -3.24023 0
M  V30 1743 H 157.739 2.22368 -2.19707 0
M  V30 1744 H 156.959 0.430462 -3.91843 0
M  V30 1745 H 158.247 1.0179 -4.98514 0
M  V30 1746 H 157.645 4.03205 -3.9679 0
M  V30 1747 H 156.202 4.36807 -4.8378 0
M  V30 1748 N 159.635 1.57281 -0.100228 0
M  V30 1749 C 160.583 2.15542 0.874328 0
M  V30 1750 C 161.577 1.09962 1.28859 0
M  V30 1751 O 162.783 1.28298 1.26252 0
M  V30 1752 H 159.158 0.689567 0.300003 0
M  V30 1753 H 161.129 2.96241 0.35829 0
M  V30 1754 C 159.878 2.75454 2.1218 0
M  V30 1755 H 159.201 3.56384 1.81193 0
M  V30 1756 H 160.641 3.19781 2.78417 0
M  V30 1757 C 159.1 1.71602 2.89921 0
M  V30 1758 O 159.63 1.15804 3.84646 0
M  V30 1759 N 157.836 1.41975 2.53558 0
M  V30 1760 H 157.383 1.87539 1.76598 0
M  V30 1761 H 157.341 0.727274 3.05873 0
M  V30 1762 N 161.113 -0.173488 1.56642 0
M  V30 1763 C 162.06 -1.21482 1.96242 0
M  V30 1764 C 163.03 -1.44104 0.826027 0
M  V30 1765 O 164.215 -1.5688 1.08597 0
M  V30 1766 C 161.355 -2.54964 2.32567 0
M  V30 1767 C 160.468 -2.39739 3.59373 0
M  V30 1768 C 159.603 -3.66072 3.84921 0
M  V30 1769 C 158.642 -3.45771 5.05083 0
M  V30 1770 N 157.779 -4.64169 5.26775 0
M  V30 1771 H 162.619 -0.870123 2.85014 0
M  V30 1772 H 160.156 -0.418245 1.41029 0
M  V30 1773 H 162.114 -3.32758 2.5165 0
M  V30 1774 H 160.744 -2.87433 1.46908 0
M  V30 1775 H 159.796 -1.53131 3.48217 0
M  V30 1776 H 161.108 -2.20683 4.47326 0
M  V30 1777 H 160.262 -4.52303 4.0436 0
M  V30 1778 H 159.001 -3.88105 2.9534 0
M  V30 1779 H 158.006 -2.57927 4.85545 0
M  V30 1780 H 159.231 -3.25163 5.96193 0
M  V30 1781 H 157.177 -4.86425 4.40144 0
M  V30 1782 H 157.094 -4.48019 6.08946 0
M  V30 1783 H 158.362 -5.51689 5.5069 0
M  V30 1784 N 162.591 -1.51276 -0.441967 0
M  V30 1785 C 163.816 -1.67799 -1.21895 0
M  V30 1786 C 164.241 -0.372864 -1.84367 0
M  V30 1787 O 163.599 0.666501 -1.68604 0
M  V30 1788 C 163.647 -2.79199 -2.28211 0
M  V30 1789 O 162.751 -2.42479 -3.33583 0
M  V30 1790 H 162.092 -0.559649 -0.357336 0
M  V30 1791 H 164.622 -1.97815 -0.522522 0
M  V30 1792 H 164.632 -3.03146 -2.73069 0
M  V30 1793 H 163.307 -3.73906 -1.82118 0
M  V30 1794 H 161.884 -2.29087 -2.94234 0
M  V30 1795 N 164.069 0.697108 -1.41344 0
M  V30 1796 C 165.016 1.81106 -1.43071 0
M  V30 1797 C 165.986 1.63632 -0.285275 0
M  V30 1798 O 167.171 1.84504 -0.486091 0
M  V30 1799 C 164.311 3.18975 -1.31715 0
M  V30 1800 C 163.424 3.47892 -2.56115 0
M  V30 1801 C 162.559 4.75367 -2.37064 0
M  V30 1802 C 161.598 4.97247 -3.56948 0
M  V30 1803 N 160.735 6.15947 -3.36977 0
M  V30 1804 H 165.575 1.78965 -2.38276 0
M  V30 1805 H 163.112 0.873975 -1.18322 0
M  V30 1806 H 165.07 3.98615 -1.23133 0
M  V30 1807 H 163.7 3.20297 -0.401183 0
M  V30 1808 H 162.752 2.62669 -2.75153 0
M  V30 1809 H 164.064 3.59962 -3.45295 0
M  V30 1810 H 163.218 5.63059 -2.25941 0
M  V30 1811 H 161.957 4.65541 -1.45338 0
M  V30 1812 H 160.962 4.08004 -3.68527 0
M  V30 1813 H 162.187 5.08934 -4.49626 0
M  V30 1814 H 160.133 6.07336 -2.47949 0
M  V30 1815 H 160.05 6.28777 -4.19732 0
M  V30 1816 H 161.318 7.06377 -3.29623 0
M  V30 1817 N 165.547 1.27147 0.931209 0
M  V30 1818 C 166.494 1.09568 2.03134 0
M  V30 1819 C 167.464 -0.00222433 1.661 0
M  V30 1820 O 168.649 0.159439 1.90133 0
M  V30 1821 C 165.789 0.745231 3.36957 0
M  V30 1822 C 164.902 1.92041 3.86968 0
M  V30 1823 C 164.037 1.51216 5.09222 0
M  V30 1824 C 163.076 2.65504 5.5152 0
M  V30 1825 N 162.213 2.25291 6.64972 0
M  V30 1826 H 167.053 2.03708 2.17502 0
M  V30 1827 H 164.59 1.01411 1.06556 0
M  V30 1828 H 166.548 0.522878 4.1391 0
M  V30 1829 H 165.178 -0.159202 3.22407 0
M  V30 1830 H 164.23 2.25541 3.06326 0
M  V30 1831 H 165.542 2.77787 4.1429 0
M  V30 1832 H 164.696 1.25084 5.93666 0
M  V30 1833 H 163.435 0.625749 4.83669 0
M  V30 1834 H 162.44 2.92354 4.65628 0
M  V30 1835 H 163.665 3.54761 5.7907 0
M  V30 1836 H 161.611 1.39098 6.41083 0
M  V30 1837 H 161.528 3.04577 6.91931 0
M  V30 1838 H 162.796 2.02398 7.52765 0
M  V30 1839 N 167.025 -1.13721 1.09112 0
M  V30 1840 C 167.972 -2.19031 0.727591 0
M  V30 1841 C 168.942 -1.63555 -0.289656 0
M  V30 1842 O 170.127 -1.90023 -0.172026 0
M  V30 1843 C 167.267 -3.4477 0.15082 0
M  V30 1844 C 166.38 -4.14365 1.22172 0
M  V30 1845 C 165.515 -5.27709 0.608042 0
M  V30 1846 C 164.554 -5.89147 1.66047 0
M  V30 1847 N 163.691 -6.93929 1.06806 0
M  V30 1848 H 168.531 -2.49475 1.62991 0
M  V30 1849 H 166.068 -1.22499 0.81439 0
M  V30 1850 H 168.026 -4.16714 -0.201358 0
M  V30 1851 H 166.656 -3.14787 -0.714783 0
M  V30 1852 H 165.708 -3.40737 1.69122 0
M  V30 1853 H 167.02 -4.56114 2.01895 0
M  V30 1854 H 166.174 -6.06355 0.204523 0
M  V30 1855 H 164.913 -4.872 -0.220769 0
M  V30 1856 H 163.918 -5.09198 2.07357 0
M  V30 1857 H 165.143 -6.31729 2.49189 0
M  V30 1858 H 163.089 -6.55483 0.260476 0
M  V30 1859 H 163.006 -7.34202 1.8023 0
M  V30 1860 H 164.274 -7.76434 0.690644 0
M  V30 1861 N 168.503 -0.877838 -1.30888 0
M  V30 1862 C 169.466 -0.344265 -2.266 0
M  V30 1863 C 170.466 0.50922 -1.52524 0
M  V30 1864 O 171.656 0.317398 -1.71284 0
M  V30 1865 C 168.788 0.510198 -3.37061 0
M  V30 1866 H 169.981 -1.1893 -2.7531 0
M  V30 1867 H 167.534 -0.654088 -1.41956 0
M  V30 1868 H 168.269 1.37612 -2.93655 0
M  V30 1869 H 168.054 -0.101047 -3.9197 0
M  V30 1870 H 169.544 0.875537 -4.08319 0
M  V30 1871 N 169.982 1.44106 -0.638065 0
M  V30 1872 C 170.914 2.28976 0.101205 0
M  V30 1873 C 171.927 1.4167 0.802088 0
M  V30 1874 O 173.116 1.65755 0.662375 0
M  V30 1875 C 170.216 3.18217 1.16581 0
M  V30 1876 C 169.389 4.33978 0.546066 0
M  V30 1877 C 168.448 5.04202 1.50554 0
M  V30 1878 O 167.474 5.59986 1.01999 0
M  V30 1879 N 168.676 5.06296 2.8398 0
M  V30 1880 H 171.441 2.93064 -0.627186 0
M  V30 1881 H 169.002 1.54629 -0.479731 0
M  V30 1882 H 170.994 3.62061 1.80815 0
M  V30 1883 H 169.564 2.55833 1.79634 0
M  V30 1884 H 168.784 3.93239 -0.275046 0
M  V30 1885 H 170.072 5.08675 0.112793 0
M  V30 1886 H 169.47 4.62319 3.26002 0
M  V30 1887 H 168.027 5.53907 3.43556 0
M  V30 1888 N 171.46 0.379036 1.52974 0
M  V30 1889 C 172.392 -0.495963 2.2377 0
M  V30 1890 C 173.405 -1.03517 1.25651 0
M  V30 1891 O 174.594 -0.939249 1.51791 0
M  V30 1892 C 171.694 -1.69894 2.93239 0
M  V30 1893 C 170.867 -1.2889 4.17979 0
M  V30 1894 C 169.926 -2.35543 4.70538 0
M  V30 1895 O 168.952 -1.97375 5.33883 0
M  V30 1896 N 170.154 -3.67318 4.49508 0
M  V30 1897 H 172.919 0.110523 2.99496 0
M  V30 1898 H 170.48 0.204878 1.60598 0
M  V30 1899 H 172.472 -2.40747 3.25304 0
M  V30 1900 H 171.042 -2.212 2.20883 0
M  V30 1901 H 170.262 -0.409676 3.92065 0
M  V30 1902 H 171.55 -0.991443 4.99047 0
M  V30 1903 H 170.948 -4.01095 3.98923 0
M  V30 1904 H 169.505 -4.34235 4.8609 0
M  V30 1905 N 172.938 -1.57226 0.108567 0
M  V30 1906 C 173.901 -2.13602 -0.831082 0
M  V30 1907 C 174.901 -1.06841 -1.20173 0
M  V30 1908 O 176.091 -1.32666 -1.12895 0
M  V30 1909 C 173.223 -2.66769 -2.12243 0
M  V30 1910 H 174.416 -2.97951 -0.341317 0
M  V30 1911 H 171.969 -1.55667 -0.14057 0
M  V30 1912 H 172.704 -1.85977 -2.65675 0
M  V30 1913 H 172.489 -3.44839 -1.86625 0
M  V30 1914 H 173.979 -3.10332 -2.79435 0
M  V30 1915 N 174.416 0.165178 -1.56732 0
M  V30 1916 C 175.379 1.18822 -1.95995 0
M  V30 1917 C 176.379 1.3685 -0.84431 0
M  V30 1918 O 177.569 1.34152 -1.11126 0
M  V30 1919 C 174.701 2.5521 -2.26011 0
M  V30 1920 H 175.894 0.851825 -2.87548 0
M  V30 1921 H 173.447 0.407857 -1.50885 0
M  V30 1922 H 174.182 2.93852 -1.37191 0
M  V30 1923 H 173.967 2.43489 -3.07336 0
M  V30 1924 H 175.457 3.28927 -2.57288 0
M  V30 1925 N 175.894 1.51508 0.433938 0
M  V30 1926 C 176.857 1.72473 1.50949 0
M  V30 1927 C 177.857 0.594725 1.49398 0
M  V30 1928 O 179.047 0.862315 1.5136 0
M  V30 1929 C 176.179 1.78431 2.90474 0
M  V30 1930 H 177.372 2.68467 1.33662 0
M  V30 1931 H 174.925 1.41549 0.662836 0
M  V30 1932 H 175.66 0.842645 3.13161 0
M  V30 1933 H 175.445 2.60558 2.93005 0
M  V30 1934 H 176.935 1.96479 3.68491 0
M  V30 1935 N 177.372 -0.689602 1.41712 0
M  V30 1936 C 178.335 -1.78521 1.43746 0
M  V30 1937 C 179.335 -1.57436 0.327191 0
M  V30 1938 O 180.525 -1.64 0.587348 0
M  V30 1939 C 177.657 -3.16971 1.25467 0
M  V30 1940 H 178.85 -1.78108 2.41283 0
M  V30 1941 H 176.403 -0.89781 1.27942 0
M  V30 1942 H 177.138 -3.23019 0.287948 0
M  V30 1943 H 176.923 -3.33678 2.05917 0
M  V30 1944 H 178.413 -3.96935 1.2974 0
M  V30 1945 N 178.85 -1.27639 -0.924453 0
M  V30 1946 C 179.813 -1.10681 -2.00705 0
M  V30 1947 C 180.813 -0.0497823 -1.60723 0
M  V30 1948 O 182.003 -0.294654 -1.7169 0
M  V30 1949 C 179.135 -0.687164 -3.33902 0
M  V30 1950 H 180.328 -2.06817 -2.17179 0
M  V30 1951 H 177.881 -1.10473 -1.10569 0
M  V30 1952 H 178.616 0.275439 -3.23128 0
M  V30 1953 H 178.401 -1.45061 -3.6428 0
M  V30 1954 H 179.891 -0.590853 -4.13399 0
M  V30 1955 N 180.328 1.1314 -1.09713 0
M  V30 1956 C 181.576 1.84119 -0.833338 0
M  V30 1957 C 181.897 1.84097 0.642904 0
M  V30 1958 O 181.167 1.29881 1.46655 0
M  V30 1959 H 179.747 0.681766 -0.305293 0
M  V30 1960 H 182.409 1.37038 -1.38588 0
M  V30 1961 H 181.505 2.88543 -1.18951 0
M  V30 1962 N 181.806 0.884767 1.30421 0
M  V30 1963 C 183.034 0.518044 2.0031 0
M  V30 1964 C 183.449 -0.893408 1.66324 0
M  V30 1965 O 182.806 -1.5875 0.900262 0
M  V30 1966 C 182.857 0.682997 3.54989 0
M  V30 1967 O 182.578 2.03888 3.87764 0
M  V30 1968 C 184.079 0.31924 4.42149 0
M  V30 1969 H 181.299 0.200265 0.640418 0
M  V30 1970 H 183.843 1.19001 1.6631 0
M  V30 1971 H 181.998 0.0584052 3.87356 0
M  V30 1972 H 182.412 2.05735 4.82466 0
M  V30 1973 H 183.886 0.485555 5.4986 0
M  V30 1974 H 184.363 -0.742717 4.32875 0
M  V30 1975 H 184.969 0.920147 4.15227 0
M  V30 1976 N 183.284 -1.43765 0.645699 0
M  V30 1977 C 184.532 -2.01499 0.155731 0
M  V30 1978 C 184.853 -1.51151 -1.232 0
M  V30 1979 O 184.123 -0.721044 -1.82148 0
M  V30 1980 H 182.703 -0.745003 0.0545817 0
M  V30 1981 H 185.365 -1.76075 0.835677 0
M  V30 1982 H 184.461 -3.1181 0.134577 0
M  V30 1983 N 184.763 -0.387143 -1.52771 0
M  V30 1984 C 185.711 0.463953 -2.27926 0
M  V30 1985 C 186.705 1.06493 -1.31741 0
M  V30 1986 O 187.911 1.00565 -1.49287 0
M  V30 1987 H 184.286 0.16837 -0.732909 0
M  V30 1988 H 186.257 -0.19141 -2.97785 0
M  V30 1989 C 185.006 1.5803 -3.09713 0
M  V30 1990 H 184.329 1.12718 -3.83581 0
M  V30 1991 H 185.769 2.15008 -3.65442 0
M  V30 1992 C 184.228 2.53509 -2.2189 0
M  V30 1993 O 184.758 3.56863 -1.84422 0
M  V30 1994 N 182.964 2.23199 -1.86093 0
M  V30 1995 H 182.511 1.39185 -2.16761 0
M  V30 1996 H 182.469 2.87333 -1.27621 0
M  V30 1997 N 186.241 1.57166 -0.116904 0
M  V30 1998 C 187.466 1.999 0.55271 0
M  V30 1999 C 187.891 0.996039 1.59564 0
M  V30 2000 O 187.249 -0.032556 1.81271 0
M  V30 2001 C 187.297 3.4152 1.15742 0
M  V30 2002 O 186.401 3.44106 2.27299 0
M  V30 2003 H 185.742 0.649447 0.138258 0
M  V30 2004 H 188.272 2.03573 -0.204759 0
M  V30 2005 H 188.282 3.79684 1.49346 0
M  V30 2006 H 186.957 4.14034 0.393493 0
M  V30 2007 H 185.534 3.17759 1.9515 0
M  V30 2008 N 187.719 -0.156864 1.56817 0
M  V30 2009 C 188.944 -0.890331 1.87318 0
M  V30 2010 C 189.369 -1.74394 0.704855 0
M  V30 2011 O 188.727 -1.77972 -0.345786 0
M  V30 2012 C 188.775 -1.73102 3.16336 0
M  V30 2013 O 187.879 -2.83422 2.99576 0
M  V30 2014 H 187.22 -0.24857 0.615718 0
M  V30 2015 H 189.75 -0.150649 2.04045 0
M  V30 2016 H 189.76 -2.12803 3.48107 0
M  V30 2017 H 188.435 -1.10412 4.00976 0
M  V30 2018 H 187.012 -2.47199 2.7919 0
M  V30 2019 N 189.197 -1.51736 -0.425897 0
M  V30 2020 C 190.129 -1.70083 -1.53638 0
M  V30 2021 C 191.142 -0.581349 -1.52066 0
M  V30 2022 O 192.331 -0.856017 -1.56635 0
M  V30 2023 C 189.431 -1.71078 -2.9255 0
M  V30 2024 C 188.604 -2.99795 -3.185 0
M  V30 2025 C 187.663 -2.92825 -4.37196 0
M  V30 2026 O 186.689 -3.66756 -4.35291 0
M  V30 2027 N 187.891 -2.0946 -5.41393 0
M  V30 2028 H 190.656 -2.65882 -1.383 0
M  V30 2029 H 188.217 -1.49765 -0.614988 0
M  V30 2030 H 190.209 -1.63969 -3.69995 0
M  V30 2031 H 188.779 -0.828242 -3.01428 0
M  V30 2032 H 187.999 -3.20684 -2.2925 0
M  V30 2033 H 189.287 -3.84977 -3.32671 0
M  V30 2034 H 188.685 -1.48792 -5.45781 0
M  V30 2035 H 187.242 -2.08221 -6.17647 0
M  V30 2036 N 190.675 0.682077 -1.42076 0
M  V30 2037 C 191.921 1.44428 -1.42367 0
M  V30 2038 C 192.254 1.94164 -0.0373056 0
M  V30 2039 O 191.529 1.70429 0.937239 0
M  V30 2040 C 191.812 2.64654 -2.44194 0
M  V30 2041 C 191.665 2.20596 -3.91991 0
M  V30 2042 C 192.984 3.66865 -2.431 0
M  V30 2043 H 190.103 0.523834 -0.518428 0
M  V30 2044 H 192.745 0.77576 -1.73442 0
M  V30 2045 H 190.895 3.2169 -2.17826 0
M  V30 2046 H 192.567 1.68783 -4.29313 0
M  V30 2047 H 190.81 1.52242 -4.06208 0
M  V30 2048 H 191.481 3.06921 -4.58807 0
M  V30 2049 H 193.957 3.19531 -2.66532 0
M  V30 2050 H 192.833 4.48577 -3.16339 0
M  V30 2051 H 193.094 4.17493 -1.45437 0
M  V30 2052 N 192.153 1.28127 0.917671 0
M  V30 2053 C 193.378 1.18007 1.70555 0
M  V30 2054 C 193.803 -0.258257 1.86319 0
M  V30 2055 O 193.161 -1.1869 1.37049 0
M  V30 2056 C 193.209 1.87948 3.07746 0
M  V30 2057 O 192.313 1.18427 3.9503 0
M  V30 2058 H 191.654 0.409867 0.522403 0
M  V30 2059 H 194.184 1.69379 1.1477 0
M  V30 2060 H 194.194 1.95701 3.58001 0
M  V30 2061 H 192.869 2.92573 2.95591 0
M  V30 2062 H 191.446 1.18811 3.53466 0
M  V30 2063 N 193.631 -1.12557 1.10312 0
M  V30 2064 C 194.563 -2.17971 0.708625 0
M  V30 2065 C 195.576 -1.60806 -0.254027 0
M  V30 2066 O 196.765 -1.78458 -0.0386891 0
M  V30 2067 C 193.865 -3.38891 0.0248198 0
M  V30 2068 C 193.038 -4.25548 1.01132 0
M  V30 2069 C 192.097 -5.24972 0.35924 0
M  V30 2070 O 191.123 -5.60174 1.00965 0
M  V30 2071 N 192.325 -5.73747 -0.882847 0
M  V30 2072 H 195.09 -2.52427 1.61557 0
M  V30 2073 H 192.651 -1.27967 0.991771 0
M  V30 2074 H 194.643 -4.02485 -0.422852 0
M  V30 2075 H 193.213 -3.02596 -0.784514 0
M  V30 2076 H 192.433 -3.58589 1.6373 0
M  V30 2077 H 193.721 -4.80294 1.67914 0
M  V30 2078 H 193.119 -5.4731 -1.43065 0
M  V30 2079 H 191.676 -6.39234 -1.27369 0
M  V30 2080 N 195.109 -0.891671 -1.2995 0
M  V30 2081 C 196.057 -0.353066 -2.29905 0
M  V30 2082 C 197.051 0.543509 -1.60444 0
M  V30 2083 O 198.257 0.4272 -1.74857 0
M  V30 2084 H 194.632 -0.095531 -0.745907 0
M  V30 2085 H 196.603 -1.20961 -2.72784 0
M  V30 2086 C 195.352 0.411475 -3.45257 0
M  V30 2087 H 194.675 -0.269182 -3.98893 0
M  V30 2088 H 196.115 0.753328 -4.17254 0
M  V30 2089 C 194.574 1.6111 -2.9588 0
M  V30 2090 O 195.104 2.71045 -2.96475 0
M  V30 2091 N 193.31 1.45054 -2.51809 0
M  V30 2092 H 192.857 0.556175 -2.51524 0
M  V30 2093 H 192.815 2.25453 -2.1913 0
M  V30 2094 N 196.587 1.43421 -0.653314 0
M  V30 2095 C 197.817 2.05864 -0.174238 0
M  V30 2096 C 198.225 1.49052 1.16534 0
M  V30 2097 O 197.568 0.616481 1.73047 0
M  V30 2098 C 197.63 3.59499 -0.00875873 0
M  V30 2099 C 197.294 4.38893 -1.27364 0
M  V30 2100 C 198.291 4.70947 -2.20239 0
M  V30 2101 C 195.976 4.789 -1.51525 0
M  V30 2102 C 197.97 5.41916 -3.35568 0
M  V30 2103 C 195.657 5.49614 -2.67147 0
M  V30 2104 C 196.655 5.81044 -3.58994 0
M  V30 2105 O 196.343 6.50313 -4.72597 0
M  V30 2106 H 196.075 0.670345 -0.0872549 0
M  V30 2107 H 198.629 1.84913 -0.894226 0
M  V30 2108 H 196.859 3.79025 0.7666 0
M  V30 2109 H 198.548 4.0364 0.427687 0
M  V30 2110 H 199.314 4.40558 -2.02815 0
M  V30 2111 H 195.193 4.53843 -0.809158 0
M  V30 2112 H 198.737 5.66365 -4.07279 0
M  V30 2113 H 194.634 5.79419 -2.84505 0
M  V30 2114 H 195.402 6.68795 -4.71864 0
M  V30 2115 N 198.065 0.39524 1.52563 0
M  V30 2116 C 199.476 -0.0774719 1.86539 0
M  V30 2117 C 199.827 -1.45641 1.31466 0
M  V30 2118 O 198.952 -2.06459 0.648367 0
M  V30 2119 C 199.547 -0.147356 3.38479 0
M  V30 2120 C 198.106 -0.564373 3.72145 0
M  V30 2121 C 197.253 0.269919 2.75983 0
M  V30 2122 H 200.204 0.612876 1.46388 0
M  V30 2123 H 200.225 -0.965343 3.68051 0
M  V30 2124 H 199.737 0.856387 3.78534 0
M  V30 2125 H 197.838 -1.57527 3.37663 0
M  V30 2126 H 197.951 -0.318402 4.78041 0
M  V30 2127 H 196.315 -0.265696 2.5331 0
M  V30 2128 H 197.098 1.27175 3.18875 0
M  V30 2129 N 199.544 -1.57102 0.125237 0
M  V30 2130 C 200.793 -1.94582 -0.531095 0
M  V30 2131 C 201.106 -1.01126 -1.6743 0
M  V30 2132 O 202.312 -1.28097 -2.39381 0
M  V30 2133 C 200.768 -3.45839 -0.996164 0
M  V30 2134 C 200.376 -4.47842 0.118926 0
M  V30 2135 C 202.12 -3.92227 -1.62352 0
M  V30 2136 C 200.027 -5.90284 -0.363192 0
M  V30 2137 H 198.957 -0.726391 -0.20217 0
M  V30 2138 H 201.608 -1.82339 0.206092 0
M  V30 2139 H 199.99 -3.53338 -1.78796 0
M  V30 2140 H 201.164 -4.52018 0.895358 0
M  V30 2141 H 199.479 -4.11243 0.653324 0
M  V30 2142 H 202.076 -4.96069 -1.99548 0
M  V30 2143 H 202.419 -3.32552 -2.50429 0
M  V30 2144 H 202.952 -3.87554 -0.897019 0
M  V30 2145 H 199.691 -6.53728 0.481679 0
M  V30 2146 H 199.211 -5.89515 -1.10597 0
M  V30 2147 H 200.89 -6.41752 -0.822377 0
M  V30 2148 N 201.022 0.148545 -1.56898 0
M  V30 2149 C 202.268 0.862694 -1.83536 0
M  V30 2150 C 202.601 1.80889 -0.706604 0
M  V30 2151 O 201.876 1.92328 0.289885 0
M  V30 2152 C 202.159 1.63853 -3.20662 0
M  V30 2153 C 202.012 0.713925 -4.44098 0
M  V30 2154 C 203.331 2.60133 -3.54991 0
M  V30 2155 H 200.45 0.312179 -0.667618 0
M  V30 2156 H 203.092 0.127953 -1.89569 0
M  V30 2157 H 201.242 2.26489 -3.1565 0
M  V30 2158 H 202.914 0.098686 -4.61194 0
M  V30 2159 H 201.157 0.0234019 -4.33794 0
M  V30 2160 H 201.828 1.29278 -5.36648 0
M  V30 2161 H 204.304 2.07616 -3.60603 0
M  V30 2162 H 203.18 3.11468 -4.51972 0
M  V30 2163 H 203.441 3.41417 -2.80868 0
M  V30 2164 N 202.5 1.5196 0.417844 0
M  V30 2165 C 203.432 1.70895 1.52733 0
M  V30 2166 C 204.445 0.589405 1.51756 0
M  V30 2167 O 205.634 0.864312 1.56179 0
M  V30 2168 C 202.734 1.72627 2.91639 0
M  V30 2169 C 201.907 3.01479 3.16905 0
M  V30 2170 C 200.966 2.95139 4.35637 0
M  V30 2171 O 199.992 3.69059 4.3334 0
M  V30 2172 N 201.194 2.12328 5.40275 0
M  V30 2173 H 203.959 2.66612 1.36888 0
M  V30 2174 H 201.52 1.50089 0.607037 0
M  V30 2175 H 203.512 1.65928 3.6912 0
M  V30 2176 H 202.082 0.844216 3.00985 0
M  V30 2177 H 201.302 3.21895 2.27546 0
M  V30 2178 H 202.59 3.86736 3.30625 0
M  V30 2179 H 201.988 1.51685 5.44985 0
M  V30 2180 H 200.545 2.11494 6.16534 0
M  V30 2181 N 203.978 -0.674533 1.42435 0
M  V30 2182 C 204.926 -1.80934 1.46169 0
M  V30 2183 C 205.92 -1.66006 0.3374 0
M  V30 2184 O 207.126 -1.72611 0.510425 0
M  V30 2185 H 203.501 -0.596594 0.457798 0
M  V30 2186 H 205.472 -1.74903 2.41767 0
M  V30 2187 C 204.221 -3.19088 1.38123 0
M  V30 2188 H 203.544 -3.31203 2.23931 0
M  V30 2189 H 204.984 -3.9851 1.44797 0
M  V30 2190 C 203.443 -3.36763 0.0960517 0
M  V30 2191 O 203.973 -3.92581 -0.851073 0
M  V30 2192 N 202.179 -2.90597 0.0131186 0
M  V30 2193 H 201.726 -2.45359 0.784639 0
M  V30 2194 H 201.684 -3.028 -0.846133 0
M  V30 2195 N 205.456 -1.28612 -0.910864 0
M  V30 2196 C 206.386 -1.15326 -2.03032 0
M  V30 2197 C 207.367 -0.0502924 -1.70026 0
M  V30 2198 O 208.552 -0.227797 -1.92859 0
M  V30 2199 C 205.682 -0.817343 -3.37545 0
M  V30 2200 C 204.636 -1.8754 -3.84724 0
M  V30 2201 C 203.962 -1.39305 -5.16235 0
M  V30 2202 C 205.262 -3.28244 -4.06267 0
M  V30 2203 H 206.956 -2.08975 -2.14406 0
M  V30 2204 H 204.502 -1.00612 -1.03021 0
M  V30 2205 H 206.455 -0.711151 -4.15356 0
M  V30 2206 H 205.179 0.154846 -3.26233 0
M  V30 2207 H 203.838 -1.97079 -3.09121 0
M  V30 2208 H 203.486 -0.409846 -5.01328 0
M  V30 2209 H 203.186 -2.10057 -5.48771 0
M  V30 2210 H 204.71 -1.30014 -5.96598 0
M  V30 2211 H 206.124 -3.21611 -4.74594 0
M  V30 2212 H 204.521 -3.96855 -4.5014 0
M  V30 2213 H 205.591 -3.72048 -3.10979 0
M  V30 2214 N 206.934 1.1197 -1.10907 0
M  V30 2215 C 207.866 2.17592 -0.720175 0
M  V30 2216 C 208.879 1.60938 0.245495 0
M  V30 2217 O 210.068 1.78476 0.0292245 0
M  V30 2218 C 207.168 3.38873 -0.0427917 0
M  V30 2219 C 206.341 4.25006 -1.03388 0
M  V30 2220 C 205.4 5.24774 -0.387075 0
M  V30 2221 O 204.426 5.59631 -1.03934 0
M  V30 2222 N 205.628 5.74208 0.852407 0
M  V30 2223 H 208.393 2.51567 -1.62893 0
M  V30 2224 H 205.954 1.27439 -0.998543 0
M  V30 2225 H 207.946 4.02703 0.401501 0
M  V30 2226 H 206.516 3.03007 0.768456 0
M  V30 2227 H 205.736 3.57716 -1.65629 0
M  V30 2228 H 207.024 4.79397 -1.70458 0
M  V30 2229 H 206.422 5.48062 1.40161 0
M  V30 2230 H 204.979 6.39901 1.23977 0
M  V30 2231 N 208.412 0.89855 1.29475 0
M  V30 2232 C 209.66 0.522847 1.9522 0
M  V30 2233 C 209.981 -0.93371 1.71192 0
M  V30 2234 O 209.251 -1.65823 1.04305 0
M  V30 2235 H 207.831 0.190366 0.722336 0
M  V30 2236 H 210.493 1.14459 1.5775 0
M  V30 2237 H 209.589 0.704476 3.04045 0
M  V30 2238 N 209.89 -1.43072 0.660911 0
M  V30 2239 C 210.822 -2.29108 -0.0647641 0
M  V30 2240 C 211.835 -1.42928 -0.779448 0
M  V30 2241 O 213.024 -1.66788 -0.635921 0
M  V30 2242 C 210.124 -3.20032 -1.11503 0
M  V30 2243 C 209.297 -4.34792 -0.476955 0
M  V30 2244 C 208.356 -5.06534 -1.42513 0
M  V30 2245 O 207.382 -5.61538 -0.930771 0
M  V30 2246 N 208.584 -5.1075 -2.75889 0
M  V30 2247 H 211.349 -2.92029 0.673731 0
M  V30 2248 H 208.91 -1.53846 0.50427 0
M  V30 2249 H 210.902 -3.64892 -1.75032 0
M  V30 2250 H 209.472 -2.58658 -1.75541 0
M  V30 2251 H 208.692 -3.92752 0.337572 0
M  V30 2252 H 209.98 -5.0879 -0.0318525 0
M  V30 2253 H 209.378 -4.67447 -3.18606 0
M  V30 2254 H 207.935 -5.59302 -3.347 0
M  V30 2255 N 211.368 -0.403325 -1.52352 0
M  V30 2256 C 212.301 0.469463 -2.23319 0
M  V30 2257 C 213.279 1.05272 -1.23922 0
M  V30 2258 O 214.463 1.10169 -1.52954 0
M  V30 2259 C 211.59 1.6511 -2.9573 0
M  V30 2260 C 210.636 1.19178 -4.0951 0
M  V30 2261 S 211.469 0.161718 -5.35256 0
M  V30 2262 C 212.625 1.34882 -6.11194 0
M  V30 2263 H 212.858 -0.133134 -2.97002 0
M  V30 2264 H 210.391 -0.187588 -1.53256 0
M  V30 2265 H 212.349 2.3287 -3.38056 0
M  V30 2266 H 211.01 2.22503 -2.21701 0
M  V30 2267 H 210.203 2.07444 -4.59329 0
M  V30 2268 H 209.805 0.592911 -3.6927 0
M  V30 2269 H 212.097 2.27345 -6.38217 0
M  V30 2270 H 213.04 0.89128 -7.02468 0
M  V30 2271 H 213.448 1.57198 -5.42171 0
M  V30 2272 N 212.846 1.57033 -0.133567 0
M  V30 2273 C 214.092 1.95976 0.521649 0
M  V30 2274 C 214.425 1.01779 1.65393 0
M  V30 2275 O 213.7 0.0576581 1.94415 0
M  V30 2276 C 213.983 3.44738 1.04057 0
M  V30 2277 C 213.836 4.49711 -0.0892897 0
M  V30 2278 C 215.155 3.95682 1.92675 0
M  V30 2279 H 212.274 0.712579 0.188149 0
M  V30 2280 H 214.916 1.88813 -0.212076 0
M  V30 2281 H 213.066 3.50973 1.66583 0
M  V30 2282 H 214.738 4.55565 -0.725152 0
M  V30 2283 H 212.981 4.27261 -0.750378 0
M  V30 2284 H 213.652 5.51099 0.315284 0
M  V30 2285 H 216.128 3.91841 1.39998 0
M  V30 2286 H 215.004 5.00262 2.25897 0
M  V30 2287 H 215.265 3.37239 2.85872 0
M  V30 2288 N 214.325 -0.140222 1.56975 0
M  V30 2289 C 215.275 -1.17827 1.95194 0
M  V30 2290 C 216.259 -1.38195 0.824075 0
M  V30 2291 O 217.451 -1.39643 1.0876 0
M  V30 2292 C 214.58 -2.51024 2.34184 0
M  V30 2293 C 213.666 -2.3422 3.53556 0
M  V30 2294 N 214.057 -1.87185 4.69889 0
M  V30 2295 C 212.355 -2.64949 3.58773 0
M  V30 2296 C 213.056 -1.83586 5.5197 0
M  V30 2297 N 212.032 -2.2715 4.93866 0
M  V30 2298 H 215.834 -0.806817 2.82609 0
M  V30 2299 H 213.348 -0.348208 1.58623 0
M  V30 2300 H 215.345 -3.26074 2.59772 0
M  V30 2301 H 214.005 -2.88945 1.48124 0
M  V30 2302 H 215.016 -1.57048 4.93514 0
M  V30 2303 H 211.693 -3.067 2.8327 0
M  V30 2304 H 213.083 -1.48655 6.55249 0
M  V30 2305 N 215.803 -1.52179 -0.40978 0
M  V30 2306 C 216.735 -1.71703 -1.51825 0
M  V30 2307 C 217.748 -0.597445 -1.51441 0
M  V30 2308 O 218.937 -0.872582 -1.55719 0
M  V30 2309 C 216.037 -1.74171 -2.90719 0
M  V30 2310 C 215.21 -3.03156 -3.15302 0
M  V30 2311 C 214.269 -2.97445 -4.34065 0
M  V30 2312 O 213.295 -3.71352 -4.31377 0
M  V30 2313 N 214.497 -2.15191 -5.39141 0
M  V30 2314 H 217.262 -2.67334 -1.35472 0
M  V30 2315 H 214.823 -1.50409 -0.599069 0
M  V30 2316 H 216.815 -1.67884 -3.68235 0
M  V30 2317 H 215.385 -0.860166 -3.00533 0
M  V30 2318 H 214.605 -3.23097 -2.25836 0
M  V30 2319 H 215.893 -3.88484 -3.28569 0
M  V30 2320 H 215.291 -1.54573 -5.44173 0
M  V30 2321 H 213.848 -2.1476 -6.15403 0
M  V30 2322 N 217.281 0.66697 -1.42791 0
M  V30 2323 C 218.244 1.76211 -1.46568 0
M  V30 2324 C 219.244 1.56896 -0.352196 0
M  V30 2325 O 220.434 1.63044 -0.613364 0
M  V30 2326 C 217.566 3.14935 -1.30494 0
M  V30 2327 H 218.759 1.74247 -2.44086 0
M  V30 2328 H 216.312 0.877342 -1.29354 0
M  V30 2329 H 217.047 3.2252 -0.339301 0
M  V30 2330 H 216.832 3.30359 -2.11199 0
M  V30 2331 H 218.322 3.94821 -1.36038 0
M  V30 2332 N 218.759 1.29093 0.90403 0
M  V30 2333 C 220.008 1.16187 1.64874 0
M  V30 2334 C 220.321 -0.286742 1.93487 0
M  V30 2335 O 221.527 -0.537062 2.66135 0
M  V30 2336 C 219.983 2.03177 2.97064 0
M  V30 2337 C 219.591 3.52836 2.76062 0
M  V30 2338 C 221.335 1.98984 3.74974 0
M  V30 2339 C 219.242 4.31945 4.03952 0
M  V30 2340 H 218.172 0.431246 0.618501 0
M  V30 2341 H 220.823 1.53699 1.00243 0
M  V30 2342 H 219.205 1.5853 3.62883 0
M  V30 2343 H 220.379 4.05507 2.18863 0
M  V30 2344 H 218.694 3.58656 2.11553 0
M  V30 2345 H 221.291 2.55351 4.69787 0
M  V30 2346 H 221.634 0.968815 4.0487 0
M  V30 2347 H 222.167 2.41652 3.15989 0
M  V30 2348 H 218.906 5.34667 3.79225 0
M  V30 2349 H 218.426 3.84045 4.60727 0
M  V30 2350 H 220.105 4.42379 4.72133 0
M  V30 2351 N 220.237 -1.11381 1.11499 0
M  V30 2352 C 221.462 -1.87475 0.887019 0
M  V30 2353 C 221.887 -1.79639 -0.557796 0
M  V30 2354 O 221.245 -1.15924 -1.39396 0
M  V30 2355 C 221.293 -3.34213 1.35403 0
M  V30 2356 O 220.397 -4.0903 0.526146 0
M  V30 2357 H 219.738 -0.582099 0.319463 0
M  V30 2358 H 222.268 -1.40785 1.48461 0
M  V30 2359 H 222.278 -3.8506 1.34881 0
M  V30 2360 H 220.953 -3.39232 2.40612 0
M  V30 2361 H 219.53 -3.68082 0.597522 0
M  V30 2362 N 221.715 -0.905404 -1.28997 0
M  V30 2363 C 223.126 -0.581953 -1.77398 0
M  V30 2364 C 223.477 0.902552 -1.74208 0
M  V30 2365 O 222.602 1.70584 -1.33154 0
M  V30 2366 C 223.197 -1.04961 -3.22131 0
M  V30 2367 C 221.756 -0.777229 -3.68288 0
M  V30 2368 C 220.903 -1.22109 -2.48967 0
M  V30 2369 H 223.854 -1.08754 -1.15578 0
M  V30 2370 H 223.875 -0.387387 -3.78523 0
M  V30 2371 H 223.387 -2.13008 -3.24421 0
M  V30 2372 H 221.488 0.290383 -3.71467 0
M  V30 2373 H 221.601 -1.37911 -4.58822 0
M  V30 2374 H 219.965 -0.639971 -2.46529 0
M  V30 2375 H 220.748 -2.30972 -2.53982 0
M  V30 2376 N 223.193 1.4272 -0.668489 0
M  V30 2377 C 224.609 1.55992 -0.33745 0
M  V30 2378 C 224.809 1.64933 1.15756 0
M  V30 2379 O 223.865 1.61278 1.94282 0
M  V30 2380 C 225.178 2.81314 -1.06222 0
M  V30 2381 C 226.726 2.95078 -1.04394 0
M  V30 2382 C 227.201 4.23252 -1.74991 0
M  V30 2383 N 228.692 4.3015 -1.71829 0
M  V30 2384 C 229.427 5.28127 -2.23315 0
M  V30 2385 N 228.923 6.32293 -2.83156 0
M  V30 2386 N 230.716 5.19882 -2.13726 0
M  V30 2387 H 222.867 1.3516 -1.63846 0
M  V30 2388 H 225.13 0.650174 -0.689912 0
M  V30 2389 H 224.836 2.80823 -2.11734 0
M  V30 2390 H 224.71 3.72012 -0.62344 0
M  V30 2391 H 227.097 2.951 0.0028244 0
M  V30 2392 H 227.178 2.05627 -1.52155 0
M  V30 2393 H 226.822 4.2399 -2.79633 0
M  V30 2394 H 226.752 5.11626 -1.24685 0
M  V30 2395 H 229.243 3.55499 -1.28175 0
M  V30 2396 H 229.556 7.03398 -3.20079 0
M  V30 2397 H 227.901 6.32873 -2.87223 0
M  V30 2398 H 231.092 4.37423 -1.66669 0
M  V30 2399 H 231.265 5.96077 -2.54158 0
M  V30 2400 N 224.671 0.411399 1.52136 0
M  V30 2401 C 225.899 -0.163076 2.06256 0
M  V30 2402 C 226.314 -1.3867 1.28125 0
M  V30 2403 O 225.671 -1.79423 0.333721 0
M  V30 2404 C 225.722 -0.511252 3.57867 0
M  V30 2405 O 225.443 0.66378 4.33042 0
M  V30 2406 C 226.944 -1.13921 4.28412 0
M  V30 2407 H 224.164 -0.0193897 0.67072 0
M  V30 2408 H 226.708 0.583007 1.96013 0
M  V30 2409 H 224.863 -1.20723 3.6811 0
M  V30 2410 H 225.277 0.372601 5.23175 0
M  V30 2411 H 226.751 -1.33302 5.35663 0
M  V30 2412 H 227.228 -2.11296 3.85033 0
M  V30 2413 H 227.834 -0.483373 4.22544 0
M  V30 2414 N 226.149 -1.5696 0.141893 0
M  V30 2415 C 227.079 -2.19516 -0.795936 0
M  V30 2416 C 228.06 -1.14187 -1.26077 0
M  V30 2417 O 229.245 -1.42511 -1.31925 0
M  V30 2418 C 226.375 -2.81272 -2.03723 0
M  V30 2419 C 225.329 -3.92384 -1.70936 0
M  V30 2420 C 224.655 -4.41052 -3.02287 0
M  V30 2421 C 225.955 -5.13403 -0.959954 0
M  V30 2422 H 227.649 -2.98138 -0.274596 0
M  V30 2423 H 225.195 -1.43406 -0.130636 0
M  V30 2424 H 227.148 -3.237 -2.69808 0
M  V30 2425 H 225.872 -1.99973 -2.58221 0
M  V30 2426 H 224.531 -3.50566 -1.07232 0
M  V30 2427 H 224.179 -3.56582 -3.54765 0
M  V30 2428 H 223.879 -5.15993 -2.81114 0
M  V30 2429 H 225.403 -4.86146 -3.69451 0
M  V30 2430 H 226.817 -5.52706 -1.52279 0
M  V30 2431 H 225.214 -5.94073 -0.848357 0
M  V30 2432 H 226.284 -4.84875 0.0492434 0
M  V30 2433 N 227.627 0.131896 -1.57047 0
M  V30 2434 C 228.575 1.18146 -2.0036 0
M  V30 2435 C 229.569 1.43614 -0.898406 0
M  V30 2436 O 230.775 1.43729 -1.08361 0
M  V30 2437 H 227.15 0.398042 -0.638018 0
M  V30 2438 H 229.121 0.789564 -2.87765 0
M  V30 2439 C 227.87 2.50341 -2.41298 0
M  V30 2440 H 227.193 2.31578 -3.25902 0
M  V30 2441 H 228.633 3.22371 -2.75414 0
M  V30 2442 C 227.092 3.11984 -1.27153 0
M  V30 2443 O 227.622 3.97484 -0.580459 0
M  V30 2444 N 225.828 2.71662 -1.03189 0
M  V30 2445 H 225.375 2.02231 -1.59564 0
M  V30 2446 H 225.333 3.13238 -0.270077 0
M  V30 2447 N 229.106 1.52395 0.401703 0
M  V30 2448 C 230.069 1.75636 1.47257 0
M  V30 2449 C 231.069 0.62628 1.48103 0
M  V30 2450 O 232.259 0.894227 1.49497 0
M  V30 2451 C 229.391 1.84553 2.86624 0
M  V30 2452 H 230.584 2.71241 1.27938 0
M  V30 2453 H 228.137 1.42923 0.632662 0
M  V30 2454 H 228.872 0.908882 3.11303 0
M  V30 2455 H 228.657 2.66715 2.87412 0
M  V30 2456 H 230.147 2.04251 3.64241 0
M  V30 2457 N 230.584 -0.659388 1.43143 0
M  V30 2458 C 231.83 -1.41984 1.45644 0
M  V30 2459 C 232.185 -1.92245 0.0771718 0
M  V30 2460 O 231.478 -1.68976 -0.903205 0
M  V30 2461 C 231.672 -2.62206 2.42864 0
M  V30 2462 C 231.501 -2.23711 3.90107 0
M  V30 2463 C 230.271 -2.12332 4.58523 0
M  V30 2464 C 232.469 -1.84384 4.80112 0
M  V30 2465 N 230.451 -1.67102 5.9072 0
M  V30 2466 C 231.822 -1.5019 6.01534 0
M  V30 2467 C 233.877 -1.71512 4.67427 0
M  V30 2468 C 232.58 -1.04414 7.11681 0
M  V30 2469 C 234.606 -1.27142 5.77572 0
M  V30 2470 C 233.968 -0.938808 6.98116 0
M  V30 2471 H 230.067 -0.515448 0.588079 0
M  V30 2472 H 232.651 -0.759409 1.79279 0
M  V30 2473 H 230.822 -3.25917 2.11265 0
M  V30 2474 H 232.554 -3.28877 2.35843 0
M  V30 2475 H 229.309 -2.31893 4.12944 0
M  V30 2476 H 229.733 -1.46866 6.60878 0
M  V30 2477 H 234.375 -1.95868 3.74694 0
M  V30 2478 H 232.093 -0.788061 8.04248 0
M  V30 2479 H 235.679 -1.17681 5.69774 0
M  V30 2480 H 234.559 -0.6007 7.81896 0
M  V30 2481 N 232.062 -1.29571 -0.897171 0
M  V30 2482 C 233.308 -1.17863 -1.65034 0
M  V30 2483 C 233.641 0.268729 -1.92332 0
M  V30 2484 O 232.916 1.19378 -1.53555 0
M  V30 2485 C 233.199 -1.995 -2.99786 0
M  V30 2486 C 233.052 -3.5239 -2.79538 0
M  V30 2487 C 234.371 -1.82335 -4.00552 0
M  V30 2488 H 231.49 -0.429528 -0.598895 0
M  V30 2489 H 234.132 -1.59072 -1.03905 0
M  V30 2490 H 232.282 -1.64485 -3.51962 0
M  V30 2491 H 233.954 -3.97401 -2.34244 0
M  V30 2492 H 232.197 -3.77187 -2.14273 0
M  V30 2493 H 232.868 -4.04787 -3.75302 0
M  V30 2494 H 235.344 -2.12924 -3.57495 0
M  V30 2495 H 234.22 -2.41801 -4.92771 0
M  V30 2496 H 234.481 -0.779209 -4.35179 0
M  V30 2497 N 233.54 1.10788 -1.12088 0
M  V30 2498 C 234.487 2.17025 -0.785407 0
M  V30 2499 C 235.457 1.64265 0.246191 0
M  V30 2500 O 236.642 1.90412 0.121584 0
M  V30 2501 C 233.782 3.44249 -0.242177 0
M  V30 2502 C 232.895 4.1098 -1.33115 0
M  V30 2503 C 232.03 5.25911 -0.747741 0
M  V30 2504 C 231.069 5.84538 -1.81609 0
M  V30 2505 N 230.206 6.90853 -1.25167 0
M  V30 2506 H 235.046 2.45066 -1.69548 0
M  V30 2507 H 232.583 1.20297 -0.846582 0
M  V30 2508 H 234.541 4.17101 0.0908026 0
M  V30 2509 H 233.171 3.16571 0.631072 0
M  V30 2510 H 232.223 3.36133 -1.78097 0
M  V30 2511 H 233.535 4.50601 -2.13917 0
M  V30 2512 H 232.689 6.056 -0.365216 0
M  V30 2513 H 231.428 4.87614 0.0915188 0
M  V30 2514 H 230.433 5.03522 -2.20785 0
M  V30 2515 H 231.658 6.249 -2.6585 0
M  V30 2516 H 229.604 6.54562 -0.434174 0
M  V30 2517 H 229.521 7.29166 -1.99633 0
M  V30 2518 H 230.789 7.7433 -0.896259 0
M  V30 2519 N 235.018 0.912232 1.28515 0
M  V30 2520 C 236.264 0.545405 1.95328 0
M  V30 2521 C 236.597 -0.908313 1.71649 0
M  V30 2522 O 235.872 -1.64575 1.03659 0
M  V30 2523 C 236.155 0.853483 3.4984 0
M  V30 2524 C 236.008 2.35982 3.82926 0
M  V30 2525 C 237.327 0.348589 4.38717 0
M  V30 2526 H 234.446 0.199626 0.709449 0
M  V30 2527 H 237.088 1.1412 1.5191 0
M  V30 2528 H 235.238 0.34643 3.86952 0
M  V30 2529 H 236.91 2.93738 3.55691 0
M  V30 2530 H 235.153 2.81543 3.30024 0
M  V30 2531 H 235.824 2.52593 4.90816 0
M  V30 2532 H 238.3 0.78294 4.08668 0
M  V30 2533 H 237.176 0.593242 5.45685 0
M  V30 2534 H 237.437 -0.751049 4.35674 0
M  V30 2535 N 236.496 -1.42363 0.676048 0
M  V30 2536 C 237.742 -2.0182 0.199125 0
M  V30 2537 C 238.075 -1.53339 -1.19168 0
M  V30 2538 O 237.35 -0.736124 -1.80032 0
M  V30 2539 C 237.633 -3.59331 0.235144 0
M  V30 2540 C 237.486 -4.17989 1.66149 0
M  V30 2541 C 238.805 -4.3813 -0.41595 0
M  V30 2542 H 235.924 -0.733293 0.0738311 0
M  V30 2543 H 238.566 -1.69368 0.86107 0
M  V30 2544 H 236.716 -3.87109 -0.328487 0
M  V30 2545 H 238.388 -4.0116 2.27747 0
M  V30 2546 H 236.631 -3.7377 2.20178 0
M  V30 2547 H 237.302 -5.27126 1.63837 0
M  V30 2548 H 239.778 -4.16051 0.0638529 0
M  V30 2549 H 238.654 -5.47717 -0.360115 0
M  V30 2550 H 238.915 -4.16101 -1.49373 0
M  V30 2551 N 237.974 -0.419461 -1.51915 0
M  V30 2552 C 238.884 0.407528 -2.31033 0
M  V30 2553 C 239.9 1.04413 -1.3919 0
M  V30 2554 O 241.076 1.0434 -1.72265 0
M  V30 2555 C 238.141 1.50365 -3.12396 0
M  V30 2556 C 237.202 0.889029 -4.19994 0
M  V30 2557 C 236.435 1.93291 -4.97468 0
M  V30 2558 O 236.658 3.15259 -4.75361 0
M  V30 2559 O 235.592 1.53339 -5.8204 0
M  V30 2560 H 239.418 -0.237865 -3.02767 0
M  V30 2561 H 237.003 -0.182413 -1.48282 0
M  V30 2562 H 238.885 2.13975 -3.63032 0
M  V30 2563 H 237.56 2.13345 -2.43445 0
M  V30 2564 H 236.467 0.215353 -3.7348 0
M  V30 2565 H 237.8 0.302991 -4.91267 0
M  V30 2566 N 239.452 1.56882 -0.150215 0
M  V30 2567 C 240.362 2.20494 0.801222 0
M  V30 2568 C 241.378 1.19019 1.26927 0
M  V30 2569 O 242.554 1.51607 1.32579 0
M  V30 2570 C 239.619 2.81659 2.02161 0
M  V30 2571 C 238.68 3.9827 1.60249 0
M  V30 2572 C 237.913 4.56508 2.7647 0
M  V30 2573 O 238.136 4.13627 3.92771 0
M  V30 2574 O 237.07 5.46719 2.51757 0
M  V30 2575 H 240.896 3.02315 0.289717 0
M  V30 2576 H 238.481 1.49202 0.0769684 0
M  V30 2577 H 240.363 3.20522 2.73576 0
M  V30 2578 H 239.038 2.02849 2.52258 0
M  V30 2579 H 237.945 3.64117 0.858477 0
M  V30 2580 H 239.278 4.78609 1.14864 0
M  V30 2581 N 240.93 -0.123565 1.57115 0
M  V30 2582 C 241.877 -1.15177 2.00007 0
M  V30 2583 C 242.847 -1.41403 0.871454 0
M  V30 2584 O 244.032 -1.53346 1.13533 0
M  V30 2585 C 241.172 -2.47436 2.40561 0
M  V30 2586 C 240.285 -2.28184 3.66819 0
M  V30 2587 C 239.42 -3.53641 3.96373 0
M  V30 2588 C 238.459 -3.29528 5.15827 0
M  V30 2589 N 237.596 -4.47175 5.41275 0
M  V30 2590 H 242.436 -0.779008 2.87638 0
M  V30 2591 H 239.973 -0.373166 1.42288 0
M  V30 2592 H 241.931 -3.24584 2.62109 0
M  V30 2593 H 240.561 -2.82614 1.55978 0
M  V30 2594 H 239.613 -1.41976 3.52912 0
M  V30 2595 H 240.925 -2.0634 4.5412 0
M  V30 2596 H 240.079 -4.39209 4.18545 0
M  V30 2597 H 238.818 -3.78512 3.07538 0
M  V30 2598 H 237.823 -2.42349 4.93505 0
M  V30 2599 H 239.048 -3.06031 6.06236 0
M  V30 2600 H 236.994 -4.72175 4.55397 0
M  V30 2601 H 236.911 -4.28419 6.22891 0
M  V30 2602 H 238.179 -5.3389 5.67963 0
M  V30 2603 N 242.408 -1.52605 -0.393616 0
M  V30 2604 C 243.371 -1.76415 -1.46323 0
M  V30 2605 C 244.371 -0.634126 -1.47768 0
M  V30 2606 O 245.561 -0.902142 -1.4902 0
M  V30 2607 C 242.693 -1.8607 -2.85641 0
M  V30 2608 H 243.886 -2.71916 -1.26498 0
M  V30 2609 H 241.439 -1.43257 -0.625073 0
M  V30 2610 H 242.174 -0.925378 -3.10817 0
M  V30 2611 H 241.959 -2.68235 -2.85993 0
M  V30 2612 H 243.449 -2.06179 -3.63153 0
M  V30 2613 N 243.887 0.651787 -1.4349 0
M  V30 2614 C 245.134 1.41167 -1.45183 0
M  V30 2615 C 245.462 1.94349 -0.0766601 0
M  V30 2616 O 244.717 1.72804 0.918555 0
M  V30 2617 C 245.016 2.60914 -2.44251 0
M  V30 2618 C 244.682 2.26142 -3.9009 0
M  V30 2619 C 243.344 2.16371 -4.2981 0
M  V30 2620 C 245.696 1.98334 -4.81989 0
M  V30 2621 C 243.024 1.7695 -5.5938 0
M  V30 2622 C 245.376 1.6041 -6.11924 0
M  V30 2623 C 244.04 1.49166 -6.5062 0
M  V30 2624 H 243.31 0.516566 -0.531263 0
M  V30 2625 H 245.957 0.741099 -1.76579 0
M  V30 2626 H 244.262 3.3311 -2.06265 0
M  V30 2627 H 245.959 3.19127 -2.42815 0
M  V30 2628 H 242.549 2.34658 -3.58655 0
M  V30 2629 H 246.733 2.04803 -4.52072 0
M  V30 2630 H 241.989 1.66831 -5.88198 0
M  V30 2631 H 246.163 1.37925 -6.82605 0
M  V30 2632 H 243.79 1.1839 -7.50925 0
M  V30 2633 N 245.365 1.30045 0.890287 0
M  V30 2634 C 246.59 1.21598 1.68014 0
M  V30 2635 C 247.015 -0.218678 1.86825 0
M  V30 2636 O 246.373 -1.15756 1.39536 0
M  V30 2637 C 246.421 1.94434 3.03691 0
M  V30 2638 O 245.525 1.2678 3.92429 0
M  V30 2639 H 244.866 0.420856 0.513592 0
M  V30 2640 H 247.396 1.71775 1.11151 0
M  V30 2641 H 247.406 2.03251 3.5377 0
M  V30 2642 H 246.081 2.98777 2.89318 0
M  V30 2643 H 244.658 1.26282 3.50866 0
M  V30 2644 N 246.843 -1.10192 1.12674 0
M  V30 2645 C 248.254 -1.63707 0.897604 0
M  V30 2646 C 248.605 -1.87812 -0.567546 0
M  V30 2647 O 247.73 -1.62196 -1.43253 0
M  V30 2648 C 248.325 -2.974 1.62292 0
M  V30 2649 C 246.884 -3.47772 1.43986 0
M  V30 2650 C 246.031 -2.22332 1.65722 0
M  V30 2651 H 248.982 -0.936587 1.28116 0
M  V30 2652 H 249.003 -3.64986 1.07541 0
M  V30 2653 H 248.515 -2.79824 2.68924 0
M  V30 2654 H 246.616 -3.70487 0.396206 0
M  V30 2655 H 246.729 -4.25723 2.19765 0
M  V30 2656 H 245.093 -2.30599 1.08149 0
M  V30 2657 H 245.876 -2.07285 2.73657 0
M  V30 2658 N 248.321 -0.919034 -1.28029 0
M  V30 2659 C 249.231 -0.416756 -2.30869 0
M  V30 2660 C 250.247 0.498235 -1.66714 0
M  V30 2661 O 251.423 0.383144 -1.97722 0
M  V30 2662 C 248.488 0.330274 -3.45123 0
M  V30 2663 C 247.549 -0.618578 -4.2482 0
M  V30 2664 C 246.782 0.0928959 -5.33619 0
M  V30 2665 O 247.005 1.31375 -5.55065 0
M  V30 2666 O 245.939 -0.574499 -5.99152 0
M  V30 2667 H 249.765 -1.27043 -2.75851 0
M  V30 2668 H 247.35 -0.684052 -1.3282 0
M  V30 2669 H 249.232 0.751972 -4.14636 0
M  V30 2670 H 247.907 1.1597 -3.02213 0
M  V30 2671 H 246.814 -1.08978 -3.57875 0
M  V30 2672 H 248.147 -1.41497 -4.71423 0
M  V30 2673 N 249.799 1.42003 -0.683588 0
M  V30 2674 C 251.045 2.01712 -0.209825 0
M  V30 2675 C 251.378 1.53968 1.18353 0
M  V30 2676 O 250.653 0.745661 1.79639 0
M  V30 2677 C 250.936 3.59202 -0.254197 0
M  V30 2678 C 250.789 4.17102 -1.68363 0
M  V30 2679 C 252.108 4.38344 0.392709 0
M  V30 2680 H 249.227 0.732891 -0.0777189 0
M  V30 2681 H 251.869 1.68909 -0.87004 0
M  V30 2682 H 250.019 3.87278 0.307954 0
M  V30 2683 H 251.691 3.99946 -2.29871 0
M  V30 2684 H 249.934 3.72597 -2.22157 0
M  V30 2685 H 250.605 5.26249 -1.6663 0
M  V30 2686 H 253.081 4.16011 -0.0859162 0
M  V30 2687 H 251.957 5.47901 0.331063 0
M  V30 2688 H 252.218 4.16887 1.47164 0
M  V30 2689 N 251.277 0.427512 1.51691 0
M  V30 2690 C 252.526 -0.143679 2.01188 0
M  V30 2691 C 252.839 -1.44642 1.31674 0
M  V30 2692 O 254.045 -2.09997 1.72086 0
M  V30 2693 C 252.501 -0.306602 3.58592 0
M  V30 2694 C 252.109 0.985125 4.37035 0
M  V30 2695 C 253.853 -0.832091 4.16265 0
M  V30 2696 C 251.76 0.788382 5.86122 0
M  V30 2697 H 250.69 -0.0574701 0.751807 0
M  V30 2698 H 253.341 0.555772 1.74881 0
M  V30 2699 H 251.723 -1.06882 3.81303 0
M  V30 2700 H 252.897 1.75492 4.26074 0
M  V30 2701 H 251.212 1.4384 3.90767 0
M  V30 2702 H 253.809 -0.995617 5.25349 0
M  V30 2703 H 254.152 -1.81186 3.74803 0
M  V30 2704 H 254.685 -0.128444 3.97593 0
M  V30 2705 H 251.424 1.74025 6.31978 0
M  V30 2706 H 250.944 0.0582143 5.99772 0
M  V30 2707 H 252.623 0.437722 6.45518 0
M  V30 2708 N 252.755 -1.56801 0.158532 0
M  V30 2709 C 254.166 -1.83189 -0.360366 0
M  V30 2710 C 254.517 -1.07778 -1.63946 0
M  V30 2711 O 253.642 -0.326718 -2.13919 0
M  V30 2712 C 254.237 -3.32297 -0.660595 0
M  V30 2713 C 252.796 -3.59227 -1.12398 0
M  V30 2714 C 251.943 -2.76877 -0.153097 0
M  V30 2715 H 254.894 -1.54008 0.383031 0
M  V30 2716 H 254.915 -3.4908 -1.51405 0
M  V30 2717 H 254.427 -3.87156 0.270527 0
M  V30 2718 H 252.528 -3.09766 -2.07064 0
M  V30 2719 H 252.641 -4.67632 -1.04197 0
M  V30 2720 H 251.005 -2.46319 -0.647983 0
M  V30 2721 H 251.788 -3.34511 0.77182 0
M  V30 2722 N 254.233 0.115231 -1.57178 0
M  V30 2723 C 255.166 1.17166 -1.95825 0
M  V30 2724 C 256.144 1.39912 -0.828463 0
M  V30 2725 O 257.328 1.54004 -1.08697 0
M  V30 2726 C 254.455 2.52478 -2.25771 0
M  V30 2727 C 253.501 2.46136 -3.48309 0
M  V30 2728 S 254.334 1.89736 -5.0076 0
M  V30 2729 C 255.49 3.26713 -5.33863 0
M  V30 2730 H 255.723 0.842103 -2.85124 0
M  V30 2731 H 253.256 0.322136 -1.51002 0
M  V30 2732 H 255.214 3.30332 -2.43702 0
M  V30 2733 H 253.875 2.82609 -1.37079 0
M  V30 2734 H 253.068 3.45819 -3.66641 0
M  V30 2735 H 252.67 1.76404 -3.29784 0
M  V30 2736 H 254.962 4.22935 -5.29275 0
M  V30 2737 H 255.905 3.13205 -6.35065 0
M  V30 2738 H 256.313 3.25316 -4.61335 0
M  V30 2739 N 255.711 1.52812 0.385517 0
M  V30 2740 C 256.958 1.68026 1.1302 0
M  V30 2741 C 257.286 0.421934 1.89868 0
M  V30 2742 O 256.541 -0.595749 1.86412 0
M  V30 2743 C 256.84 2.86856 2.13187 0
M  V30 2744 C 256.506 4.24159 1.5297 0
M  V30 2745 C 255.168 4.61501 1.36274 0
M  V30 2746 C 257.52 5.09627 1.09223 0
M  V30 2747 C 254.848 5.81966 0.743837 0
M  V30 2748 C 257.2 6.30719 0.487411 0
M  V30 2749 C 255.864 6.6679 0.307777 0
M  V30 2750 H 255.134 0.614849 0.413571 0
M  V30 2751 H 257.781 1.86962 0.414405 0
M  V30 2752 H 256.086 2.6235 2.90998 0
M  V30 2753 H 257.783 2.95821 2.70722 0
M  V30 2754 H 254.373 3.94746 1.66954 0
M  V30 2755 H 258.557 4.81343 1.20922 0
M  V30 2756 H 253.813 6.08519 0.592891 0
M  V30 2757 H 257.987 6.96259 0.140143 0
M  V30 2758 H 255.614 7.60001 -0.173879 0
M  V30 2759 N 257.189 -0.644168 1.43834 0
M  V30 2760 C 258.414 -1.43642 1.49605 0
M  V30 2761 C 258.839 -1.8773 0.117913 0
M  V30 2762 O 258.197 -1.57938 -0.890239 0
M  V30 2763 C 258.245 -2.6416 2.45463 0
M  V30 2764 O 257.349 -3.63538 1.94714 0
M  V30 2765 H 256.69 -0.430329 0.50568 0
M  V30 2766 H 259.22 -0.787448 1.8884 0
M  V30 2767 H 259.23 -3.11864 2.63068 0
M  V30 2768 H 257.905 -2.31414 3.45572 0
M  V30 2769 H 256.482 -3.2273 1.86814 0
M  V30 2770 N 258.668 -1.30515 -0.883378 0
M  V30 2771 C 259.631 -1.1701 -1.97082 0
M  V30 2772 C 260.631 -0.10089 -1.60483 0
M  V30 2773 O 261.821 -0.349127 -1.70666 0
M  V30 2774 C 258.953 -0.793045 -3.31547 0
M  V30 2775 H 260.146 -2.13622 -2.10489 0
M  V30 2776 H 257.699 -1.13935 -1.06998 0
M  V30 2777 H 258.434 0.172499 -3.23841 0
M  V30 2778 H 258.219 -1.56576 -3.5948 0
M  V30 2779 H 259.709 -0.722073 -4.1131 0
M  V30 2780 N 260.146 1.09593 -1.13257 0
M  V30 2781 C 261.076 2.18214 -0.830946 0
M  V30 2782 C 262.057 1.68812 0.208966 0
M  V30 2783 O 263.242 1.9408 0.0682666 0
M  V30 2784 C 260.372 3.46051 -0.294296 0
M  V30 2785 C 259.326 4.08778 -1.26826 0
M  V30 2786 C 258.652 5.31419 -0.591449 0
M  V30 2787 C 259.952 4.51476 -2.62615 0
M  V30 2788 H 261.646 2.43703 -1.73923 0
M  V30 2789 H 259.192 1.17128 -0.837675 0
M  V30 2790 H 261.145 4.2134 -0.0709606 0
M  V30 2791 H 259.869 3.20079 0.649366 0
M  V30 2792 H 258.528 3.35505 -1.47756 0
M  V30 2793 H 258.176 5.01727 0.357633 0
M  V30 2794 H 257.876 5.74341 -1.24123 0
M  V30 2795 H 259.4 6.09433 -0.377355 0
M  V30 2796 H 260.814 5.17999 -2.45663 0
M  V30 2797 H 259.211 5.05277 -3.23752 0
M  V30 2798 H 260.281 3.63962 -3.20406 0
M  V30 2799 N 261.624 0.925811 1.2754 0
M  V30 2800 C 262.849 0.580924 1.99098 0
M  V30 2801 C 263.274 -0.833555 1.68622 0
M  V30 2802 O 262.632 -1.55903 0.925422 0
M  V30 2803 C 262.68 0.811186 3.51358 0
M  V30 2804 O 261.784 -0.124129 4.12213 0
M  V30 2805 H 261.125 0.223873 0.625122 0
M  V30 2806 H 263.655 1.24455 1.62395 0
M  V30 2807 H 263.665 0.72601 4.01489 0
M  V30 2808 H 262.34 1.84227 3.72872 0
M  V30 2809 H 260.917 0.0108006 3.72898 0
M  V30 2810 N 263.102 -1.41638 0.69111 0
M  V30 2811 C 264.012 -2.34588 0.0233487 0
M  V30 2812 C 265.028 -1.55987 -0.770984 0
M  V30 2813 O 266.204 -1.88486 -0.709569 0
M  V30 2814 C 263.269 -3.34684 -0.904851 0
M  V30 2815 C 262.33 -4.29176 -0.103225 0
M  V30 2816 C 261.563 -5.2449 -0.987216 0
M  V30 2817 O 261.786 -5.2514 -2.22674 0
M  V30 2818 O 260.72 -6.00295 -0.439281 0
M  V30 2819 H 264.546 -2.93261 0.789416 0
M  V30 2820 H 262.131 -1.42417 0.45142 0
M  V30 2821 H 264.013 -3.96133 -1.43724 0
M  V30 2822 H 262.688 -2.78461 -1.65049 0
M  V30 2823 H 261.595 -3.71089 0.473655 0
M  V30 2824 H 262.928 -4.88484 0.60365 0
M  V30 2825 N 264.58 -0.43555 -1.51462 0
M  V30 2826 C 265.828 0.131254 -2.01673 0
M  V30 2827 C 266.149 1.43368 -1.32177 0
M  V30 2828 O 265.419 1.90524 -0.455769 0
M  V30 2829 H 263.999 0.0514954 -0.745223 0
M  V30 2830 H 266.661 -0.577847 -1.86137 0
M  V30 2831 H 265.757 0.308446 -3.10572 0
M  V30 2832 N 266.058 1.56714 -0.166846 0
M  V30 2833 C 267.021 2.16539 0.751232 0
M  V30 2834 C 268.021 1.11228 1.16125 0
M  V30 2835 O 269.211 1.36765 1.07894 0
M  V30 2836 C 266.343 2.74462 2.02196 0
M  V30 2837 H 267.536 2.99013 0.230499 0
M  V30 2838 H 265.089 1.56081 0.0826982 0
M  V30 2839 H 265.824 1.95709 2.58589 0
M  V30 2840 H 265.609 3.51527 1.73698 0
M  V30 2841 H 267.099 3.20489 2.67725 0
M  V30 2842 N 267.536 -0.106894 1.57237 0
M  V30 2843 C 268.764 -0.826389 1.8968 0
M  V30 2844 C 269.179 -1.72856 0.759353 0
M  V30 2845 O 268.536 -1.80503 -0.269263 0
M  V30 2846 C 268.587 -1.64967 3.21665 0
M  V30 2847 O 268.308 -0.783804 4.31031 0
M  V30 2848 C 269.809 -2.47326 3.67892 0
M  V30 2849 H 267.029 -0.236927 0.627779 0
M  V30 2850 H 269.573 -0.0876593 2.04312 0
M  V30 2851 H 267.728 -2.34103 3.08666 0
M  V30 2852 H 268.142 -1.35284 5.06753 0
M  V30 2853 H 269.616 -3.00604 4.6297 0
M  V30 2854 H 270.093 -3.25247 2.95146 0
M  V30 2855 H 270.699 -1.83411 3.83719 0
M  V30 2856 N 269.014 -1.53014 -0.377408 0
M  V30 2857 C 270.425 -1.60438 -0.954798 0
M  V30 2858 C 270.776 -0.464418 -1.90624 0
M  V30 2859 O 269.901 0.41087 -2.12464 0
M  V30 2860 C 270.496 -2.90797 -1.73847 0
M  V30 2861 C 269.055 -3.00595 -2.26538 0
M  V30 2862 C 268.202 -2.55645 -1.07429 0
M  V30 2863 H 271.153 -1.57926 -0.156575 0
M  V30 2864 H 271.174 -2.77935 -2.5987 0
M  V30 2865 H 270.686 -3.73746 -1.04574 0
M  V30 2866 H 268.787 -2.22208 -2.99089 0
M  V30 2867 H 268.9 -4.05456 -2.5523 0
M  V30 2868 H 267.264 -2.10239 -1.43777 0
M  V30 2869 H 268.047 -3.41 -0.396728 0
M  V30 2870 N 270.492 0.636531 -1.44174 0
M  V30 2871 C 271.424 1.7618 -1.46606 0
M  V30 2872 C 272.437 1.58768 -0.360091 0
M  V30 2873 O 273.626 1.67181 -0.625518 0
M  V30 2874 C 270.726 3.13833 -1.27915 0
M  V30 2875 C 269.899 3.57753 -2.51658 0
M  V30 2876 C 268.958 4.74265 -2.27945 0
M  V30 2877 O 267.984 4.82852 -3.01401 0
M  V30 2878 N 269.186 5.65604 -1.30662 0
M  V30 2879 H 271.951 1.74567 -2.43612 0
M  V30 2880 H 269.512 0.820924 -1.39544 0
M  V30 2881 H 271.504 3.8949 -1.09907 0
M  V30 2882 H 270.074 3.10121 -0.39293 0
M  V30 2883 H 269.294 2.72362 -2.84978 0
M  V30 2884 H 270.582 3.83847 -3.33974 0
M  V30 2885 H 269.98 5.61354 -0.699844 0
M  V30 2886 H 268.537 6.40913 -1.18634 0
M  V30 2887 N 271.97 1.30982 0.876444 0
M  V30 2888 C 273.247 1.10942 1.61094 0
M  V30 2889 C 273.627 -0.338223 2.08373 0
M  V30 2890 O 272.975 -1.33122 1.85717 0
M  V30 2891 C 273.185 2.11789 2.77392 0
M  V30 2892 C 274.533 2.43965 3.47514 0
M  V30 2893 O 275.557 2.10166 2.87591 0
M  V30 2894 O 274.416 3.01817 4.55597 0
M  V30 2895 H 271.51 0.42667 0.708436 0
M  V30 2896 H 274.056 1.42438 0.922474 0
M  V30 2897 H 272.828 3.09194 2.39823 0
M  V30 2898 H 272.451 1.81161 3.5393 0
M  V30 2899 N 273.449 -1.08991 1.13837 0
M  V30 2900 C 274.379 -2.17771 0.842507 0
M  V30 2901 C 275.36 -1.6892 -0.20001 0
M  V30 2902 O 276.545 -1.94113 -0.0579731 0
M  V30 2903 C 273.675 -3.4589 0.312644 0
M  V30 2904 C 272.629 -4.08099 1.28992 0
M  V30 2905 C 271.955 -5.31098 0.619623 0
M  V30 2906 C 273.255 -4.50077 2.65005 0
M  V30 2907 H 274.949 -2.42777 1.75213 0
M  V30 2908 H 272.495 -1.16682 0.843875 0
M  V30 2909 H 274.448 -4.21297 0.0933043 0
M  V30 2910 H 273.172 -3.20419 -0.632382 0
M  V30 2911 H 271.831 -3.34717 1.49533 0
M  V30 2912 H 271.479 -5.0191 -0.33102 0
M  V30 2913 H 271.179 -5.73674 1.27167 0
M  V30 2914 H 272.703 -6.09224 0.409669 0
M  V30 2915 H 274.117 -5.16688 2.48407 0
M  V30 2916 H 272.514 -5.03553 3.26427 0
M  V30 2917 H 273.584 -3.62257 3.22332 0
M  V30 2918 N 274.927 -0.932562 -1.27047 0
M  V30 2919 C 275.875 -0.42603 -2.28665 0
M  V30 2920 C 276.869 0.49219 -1.62092 0
M  V30 2921 O 278.075 0.371355 -1.76128 0
M  V30 2922 H 274.45 -0.119213 -0.742491 0
M  V30 2923 H 276.421 -1.29579 -2.68797 0
M  V30 2924 C 275.17 0.301426 -3.46391 0
M  V30 2925 H 274.493 -0.39595 -3.97834 0
M  V30 2926 H 275.933 0.6202 -4.1944 0
M  V30 2927 C 274.392 1.51616 -3.00856 0
M  V30 2928 O 274.922 2.61476 -3.04948 0
M  V30 2929 N 273.128 1.36969 -2.56296 0
M  V30 2930 H 272.675 0.475873 -2.53166 0
M  V30 2931 H 272.633 2.18368 -2.26192 0
M  V30 2932 N 276.405 1.4127 -0.698611 0
M  V30 2933 C 277.633 2.05503 -0.239992 0
M  V30 2934 C 278.048 1.52584 1.11191 0
M  V30 2935 O 277.405 0.675323 1.69545 0
M  V30 2936 C 277.456 3.60987 -0.192429 0
M  V30 2937 O 277.177 4.1195 -1.49094 0
M  V30 2938 C 278.678 4.42371 0.28681 0
M  V30 2939 H 275.898 0.661748 -0.111045 0
M  V30 2940 H 278.442 1.80987 -0.95205 0
M  V30 2941 H 276.597 3.84533 0.470472 0
M  V30 2942 H 277.011 5.06018 -1.38007 0
M  V30 2943 H 278.485 5.51344 0.26896 0
M  V30 2944 H 278.962 4.18699 1.32619 0
M  V30 2945 H 279.568 4.23897 -0.345201 0
M  V30 2946 N 277.883 0.443576 1.51229 0
M  V30 2947 C 278.816 -0.410089 2.24485 0
M  V30 2948 C 279.794 -1.01949 1.26669 0
M  V30 2949 O 280.978 -1.06075 1.55821 0
M  V30 2950 C 278.105 -1.57211 3.00004 0
M  V30 2951 C 277.151 -1.08279 4.12526 0
M  V30 2952 S 277.984 -0.0197476 5.35496 0
M  V30 2953 C 279.14 -1.18629 6.14555 0
M  V30 2954 H 279.373 0.211832 2.96544 0
M  V30 2955 H 276.906 0.228156 1.52705 0
M  V30 2956 H 278.864 -2.23825 3.44111 0
M  V30 2957 H 277.525 -2.16547 2.27522 0
M  V30 2958 H 276.718 -1.95193 4.64667 0
M  V30 2959 H 276.32 -0.494797 3.70713 0
M  V30 2960 H 278.612 -2.10344 6.4402 0
M  V30 2961 H 279.555 -0.70472 7.04584 0
M  V30 2962 H 279.963 -1.42768 5.46148 0
M  V30 2963 N 279.361 -1.56624 0.175154 0
M  V30 2964 C 280.291 -2.21155 -0.749195 0
M  V30 2965 C 281.272 -1.16836 -1.23626 0
M  V30 2966 O 282.457 -1.45277 -1.28873 0
M  V30 2967 C 279.587 -2.8553 -1.97711 0
M  V30 2968 C 278.541 -3.95921 -1.62575 0
M  V30 2969 C 277.867 -4.47365 -2.92864 0
M  V30 2970 C 279.167 -5.15323 -0.850838 0
M  V30 2971 H 280.861 -2.98653 -0.211295 0
M  V30 2972 H 278.407 -1.43651 -0.100188 0
M  V30 2973 H 280.36 -3.2935 -2.62881 0
M  V30 2974 H 279.084 -2.05406 -2.53921 0
M  V30 2975 H 277.743 -3.52762 -0.997719 0
M  V30 2976 H 277.391 -3.64027 -3.47122 0
M  V30 2977 H 277.091 -5.21839 -2.70106 0
M  V30 2978 H 278.615 -4.93873 -3.59056 0
M  V30 2979 H 280.029 -5.55812 -1.40521 0
M  V30 2980 H 278.426 -5.95739 -0.722154 0
M  V30 2981 H 279.496 -4.84661 0.152082 0
M  V30 2982 N 280.839 0.0985539 -1.57292 0
M  V30 2983 C 281.787 1.1387 -2.02821 0
M  V30 2984 C 282.781 1.41676 -0.928666 0
M  V30 2985 O 283.987 1.41398 -1.11385 0
M  V30 2986 H 280.362 0.384419 -0.646317 0
M  V30 2987 H 282.333 0.728347 -2.89375 0
M  V30 2988 C 281.082 2.45166 -2.46554 0
M  V30 2989 H 280.405 2.24613 -3.3074 0
M  V30 2990 H 281.845 3.16456 -2.8219 0
M  V30 2991 C 280.304 3.09216 -1.33742 0
M  V30 2992 O 280.834 3.96163 -0.66464 0
M  V30 2993 N 279.04 2.69413 -1.08928 0
M  V30 2994 H 278.587 1.98801 -1.63817 0
M  V30 2995 H 278.545 3.12594 -0.336458 0
M  V30 2996 N 282.317 1.53212 0.369288 0
M  V30 2997 C 283.545 1.73119 1.13303 0
M  V30 2998 C 283.96 0.458455 1.83149 0
M  V30 2999 O 283.317 -0.568403 1.73423 0
M  V30 3000 C 283.368 2.89413 2.16616 0
M  V30 3001 O 283.089 4.11761 1.49614 0
M  V30 3002 C 284.59 3.21161 3.05566 0
M  V30 3003 H 281.81 0.579107 0.338934 0
M  V30 3004 H 284.354 1.99942 0.429338 0
M  V30 3005 H 282.509 2.64994 2.82589 0
M  V30 3006 H 282.923 4.76858 2.18419 0
M  V30 3007 H 284.397 4.05949 3.74045 0
M  V30 3008 H 284.874 2.36369 3.70171 0
M  V30 3009 H 285.48 3.47492 2.45213 0
M  V30 3010 N 283.795 -0.628877 1.44509 0
M  V30 3011 C 285.041 -1.39045 1.47629 0
M  V30 3012 C 285.374 -1.93892 0.109343 0
M  V30 3013 O 284.649 -1.7379 -0.87334 0
M  V30 3014 C 284.932 -2.55408 2.53848 0
M  V30 3015 C 284.785 -2.05896 3.99909 0
M  V30 3016 C 286.104 -3.5759 2.56549 0
M  V30 3017 H 283.223 -0.504232 0.537512 0
M  V30 3018 H 285.865 -0.710854 1.76201 0
M  V30 3019 H 284.015 -3.13384 2.29615 0
M  V30 3020 H 285.687 -1.52734 4.35282 0
M  V30 3021 H 283.93 -1.37061 4.11578 0
M  V30 3022 H 284.601 -2.89681 4.69882 0
M  V30 3023 H 287.077 -3.09419 2.78207 0
M  V30 3024 H 285.953 -4.36527 3.32769 0
M  V30 3025 H 286.214 -4.11808 1.60832 0
M  V30 3026 N 285.273 -1.31445 -0.869486 0
M  V30 3027 C 286.521 -1.20918 -1.61936 0
M  V30 3028 C 286.842 0.232683 -1.93607 0
M  V30 3029 O 286.112 1.15352 -1.58338 0
M  V30 3030 H 284.692 -0.44454 -0.600328 0
M  V30 3031 H 287.354 -1.64776 -1.0409 0
M  V30 3032 H 286.45 -1.78124 -2.56278 0
M  V30 3033 N 286.751 1.08385 -1.14413 0
M  V30 3034 C 287.999 1.80419 -0.910679 0
M  V30 3035 C 288.32 1.86658 0.564243 0
M  V30 3036 O 287.59 1.35985 1.41014 0
M  V30 3037 H 286.17 0.668204 -0.333934 0
M  V30 3038 H 288.832 1.31037 -1.44275 0
M  V30 3039 H 287.928 2.83238 -1.31082 0
M  V30 3040 N 288.23 0.939286 1.26551 0
M  V30 3041 C 289.18 0.418284 2.2413 0
M  V30 3042 C 290.164 -0.483935 1.5345 0
M  V30 3043 O 291.356 -0.319489 1.74093 0
M  V30 3044 C 288.485 -0.31709 3.41832 0
M  V30 3045 C 287.571 0.602311 4.19801 0
M  V30 3046 N 287.962 1.72726 4.75394 0
M  V30 3047 C 286.26 0.407534 4.44134 0
M  V30 3048 C 286.961 2.30004 5.34297 0
M  V30 3049 N 285.937 1.58828 5.1988 0
M  V30 3050 H 289.739 1.27705 2.64705 0
M  V30 3051 H 287.253 0.794929 1.41614 0
M  V30 3052 H 289.25 -0.707364 4.10855 0
M  V30 3053 H 287.91 -1.17264 3.02786 0
M  V30 3054 H 288.921 2.10944 4.72994 0
M  V30 3055 H 285.598 -0.406406 4.15517 0
M  V30 3056 H 286.988 3.24778 5.88191 0
M  V30 3057 N 289.708 -1.40897 0.706093 0
M  V30 3058 C 290.64 -2.29199 0.00815776 0
M  V30 3059 C 291.653 -1.45336 -0.733582 0
M  V30 3060 O 292.842 -1.68727 -0.582537 0
M  V30 3061 C 289.942 -3.23417 -1.01265 0
M  V30 3062 C 289.115 -4.36089 -0.338387 0
M  V30 3063 C 288.174 -5.10811 -1.26326 0
M  V30 3064 O 287.2 -5.64215 -0.751651 0
M  V30 3065 N 288.402 -5.19269 -2.595 0
M  V30 3066 H 291.167 -2.89738 0.766297 0
M  V30 3067 H 288.728 -1.52164 0.55296 0
M  V30 3068 H 290.72 -3.70276 -1.63334 0
M  V30 3069 H 289.29 -2.64112 -1.67223 0
M  V30 3070 H 288.51 -3.91479 0.462352 0
M  V30 3071 H 289.798 -5.08634 0.130031 0
M  V30 3072 H 289.196 -4.77347 -3.03573 0
M  V30 3073 H 287.753 -5.69667 -3.16737 0
M  V30 3074 N 291.186 -0.45159 -1.50991 0
M  V30 3075 C 292.149 0.341117 -2.26647 0
M  V30 3076 C 293.149 0.937422 -1.30649 0
M  V30 3077 O 294.339 0.809644 -1.54241 0
M  V30 3078 C 291.471 1.48398 -3.06905 0
M  V30 3079 H 292.664 -0.322117 -2.98165 0
M  V30 3080 H 290.217 -0.205122 -1.54948 0
M  V30 3081 H 290.952 2.18284 -2.39838 0
M  V30 3082 H 290.737 1.06241 -3.77432 0
M  V30 3083 H 292.227 2.04367 -3.64176 0
M  V30 3084 N 292.664 1.56529 -0.183458 0
M  V30 3085 C 293.627 2.17324 0.728223 0
M  V30 3086 C 294.627 1.12453 1.14939 0
M  V30 3087 O 295.817 1.37902 1.06437 0
M  V30 3088 C 292.949 2.76591 1.99274 0
M  V30 3089 H 294.142 2.99241 0.198772 0
M  V30 3090 H 291.695 1.5616 0.0661391 0
M  V30 3091 H 292.43 1.98441 2.56499 0
M  V30 3092 H 292.215 3.5335 1.69959 0
M  V30 3093 H 293.705 3.23311 2.6431 0
M  V30 3094 N 294.142 -0.090211 1.57342 0
M  V30 3095 C 295.075 -1.14035 1.97664 0
M  V30 3096 C 296.053 -1.38576 0.850616 0
M  V30 3097 O 297.237 -1.52255 1.11134 0
M  V30 3098 C 294.364 -2.48854 2.2976 0
M  V30 3099 C 293.41 -2.40564 3.52181 0
M  V30 3100 S 294.243 -1.81745 5.03715 0
M  V30 3101 C 295.399 -3.18178 5.38993 0
M  V30 3102 H 295.632 -0.796636 2.86428 0
M  V30 3103 H 293.165 -0.298072 1.51496 0
M  V30 3104 H 295.123 -3.26413 2.48927 0
M  V30 3105 H 293.784 -2.80393 1.41558 0
M  V30 3106 H 292.977 -3.39942 3.72096 0
M  V30 3107 H 292.579 -1.71135 3.32549 0
M  V30 3108 H 294.871 -4.14461 5.35937 0
M  V30 3109 H 295.814 -3.03062 6.39968 0
M  V30 3110 H 296.222 -3.17935 4.66452 0
M  V30 3111 N 295.62 -1.53406 -0.361157 0
M  V30 3112 C 296.552 -1.76446 -1.46286 0
M  V30 3113 C 297.565 -0.645322 -1.49464 0
M  V30 3114 O 298.754 -0.921681 -1.52864 0
M  V30 3115 C 295.854 -1.83332 -2.85031 0
M  V30 3116 C 295.027 -3.13033 -3.05498 0
M  V30 3117 C 294.086 -3.11104 -4.24383 0
M  V30 3118 O 293.112 -3.84888 -4.19344 0
M  V30 3119 N 294.314 -2.32234 -5.32022 0
M  V30 3120 H 297.079 -2.71508 -1.26899 0
M  V30 3121 H 294.64 -1.52238 -0.550915 0
M  V30 3122 H 296.632 -1.79514 -3.62708 0
M  V30 3123 H 295.202 -0.955342 -2.97644 0
M  V30 3124 H 294.422 -3.30119 -2.15442 0
M  V30 3125 H 295.71 -3.9874 -3.16044 0
M  V30 3126 H 295.108 -1.71807 -5.38979 0
M  V30 3127 H 293.665 -2.3423 -6.08259 0
M  V30 3128 N 297.098 0.621204 -1.44841 0
M  V30 3129 C 298.031 1.7459 -1.46947 0
M  V30 3130 C 299.009 1.59273 -0.327238 0
M  V30 3131 O 300.193 1.81021 -0.525706 0
M  V30 3132 C 297.32 3.12274 -1.31159 0
M  V30 3133 C 296.366 3.46216 -2.49072 0
M  V30 3134 S 297.199 3.4258 -4.11581 0
M  V30 3135 C 298.355 4.82867 -3.98233 0
M  V30 3136 H 298.588 1.72538 -2.42111 0
M  V30 3137 H 296.121 0.796683 -1.32259 0
M  V30 3138 H 298.079 3.91722 -1.22737 0
M  V30 3139 H 296.74 3.11855 -0.374885 0
M  V30 3140 H 295.933 4.4643 -2.33915 0
M  V30 3141 H 295.535 2.74253 -2.54286 0
M  V30 3142 H 297.827 5.7234 -3.62537 0
M  V30 3143 H 298.77 5.0308 -4.98313 0
M  V30 3144 H 299.178 4.57908 -3.30121 0
M  V30 3145 N 298.576 1.31904 0.862503 0
M  V30 3146 C 299.506 1.22782 1.98612 0
M  V30 3147 C 300.487 0.113362 1.69722 0
M  V30 3148 O 301.672 0.299218 1.91881 0
M  V30 3149 C 298.802 0.942058 3.34279 0
M  V30 3150 C 297.756 2.0169 3.77499 0
M  V30 3151 C 297.082 1.58369 5.10709 0
M  V30 3152 C 298.382 3.43096 3.93805 0
M  V30 3153 H 300.076 2.16788 2.06502 0
M  V30 3154 H 297.622 1.04366 0.992154 0
M  V30 3155 H 299.575 0.864818 4.1243 0
M  V30 3156 H 298.299 -0.0336603 3.26583 0
M  V30 3157 H 296.958 2.08416 3.01593 0
M  V30 3158 H 296.606 0.595628 4.99461 0
M  V30 3159 H 296.306 2.30279 5.40597 0
M  V30 3160 H 297.83 1.52067 5.91361 0
M  V30 3161 H 299.244 3.39003 4.62331 0
M  V30 3162 H 297.641 4.13288 4.35101 0
M  V30 3163 H 298.711 3.83334 2.96957 0
M  V30 3164 N 300.054 -1.07777 1.14986 0
M  V30 3165 C 301.001 -2.14867 0.842672 0
M  V30 3166 C 301.971 -1.6486 -0.202552 0
M  V30 3167 O 303.156 -1.90668 -0.0710568 0
M  V30 3168 C 300.296 -3.43486 0.333363 0
M  V30 3169 C 299.409 -4.07306 1.43965 0
M  V30 3170 C 298.544 -5.23744 0.886914 0
M  V30 3171 C 297.583 -5.79517 1.97043 0
M  V30 3172 N 296.72 -6.87291 1.4344 0
M  V30 3173 H 301.56 -2.40485 1.75986 0
M  V30 3174 H 299.097 -1.1801 0.878179 0
M  V30 3175 H 301.055 -4.17195 0.0198163 0
M  V30 3176 H 299.685 -3.18133 -0.546916 0
M  V30 3177 H 298.737 -3.31293 1.86946 0
M  V30 3178 H 300.049 -4.44771 2.25788 0
M  V30 3179 H 299.203 -6.04419 0.525651 0
M  V30 3180 H 297.942 -4.87685 0.0377957 0
M  V30 3181 H 296.947 -4.97491 2.34057 0
M  V30 3182 H 298.172 -6.17632 2.82325 0
M  V30 3183 H 296.118 -6.5318 0.607567 0
M  V30 3184 H 296.035 -7.23617 2.18895 0
M  V30 3185 H 297.303 -7.71682 1.10124 0
M  V30 3186 N 301.532 -0.945985 -1.26051 0
M  V30 3187 C 302.442 -0.465633 -2.29933 0
M  V30 3188 C 303.458 0.462761 -1.67733 0
M  V30 3189 O 304.634 0.341118 -1.9849 0
M  V30 3190 C 301.699 0.256994 -3.45746 0
M  V30 3191 C 300.76 -0.708549 -4.23412 0
M  V30 3192 C 299.993 -0.0203135 -5.33696 0
M  V30 3193 O 300.216 1.19571 -5.57726 0
M  V30 3194 O 299.15 -0.701459 -5.97799 0
M  V30 3195 H 302.976 -1.32866 -2.73094 0
M  V30 3196 H 300.561 -0.712071 -1.31339 0
M  V30 3197 H 302.443 0.663852 -4.16138 0
M  V30 3198 H 301.118 1.09533 -3.04605 0
M  V30 3199 H 300.025 -1.16545 -3.55483 0
M  V30 3200 H 301.358 -1.51465 -4.68315 0
M  V30 3201 N 303.011 1.40521 -0.713556 0
M  V30 3202 C 304.239 2.05237 -0.261775 0
M  V30 3203 C 304.654 1.53755 1.09567 0
M  V30 3204 O 304.011 0.693268 1.6882 0
M  V30 3205 C 304.062 3.60763 -0.230706 0
M  V30 3206 O 303.783 4.10345 -1.53455 0
M  V30 3207 C 305.284 4.42651 0.239874 0
M  V30 3208 H 302.504 0.660533 -0.118057 0
M  V30 3209 H 305.048 1.79967 -0.971192 0
M  V30 3210 H 303.203 3.8501 0.429661 0
M  V30 3211 H 303.617 5.04526 -1.43366 0
M  V30 3212 H 305.091 5.51599 0.210468 0
M  V30 3213 H 305.568 4.20082 1.28171 0
M  V30 3214 H 306.174 4.23507 -0.390142 0
M  V30 3215 N 304.489 0.459591 1.5075 0
M  V30 3216 C 305.738 -0.100971 2.01447 0
M  V30 3217 C 306.051 -1.41816 1.34713 0
M  V30 3218 O 307.257 -2.06299 1.76502 0
M  V30 3219 C 305.713 -0.23047 3.59161 0
M  V30 3220 C 305.321 1.0776 4.34847 0
M  V30 3221 C 307.065 -0.743608 4.17936 0
M  V30 3222 C 304.972 0.91253 5.84317 0
M  V30 3223 H 303.902 -0.0415102 0.752856 0
M  V30 3224 H 306.553 0.592742 1.73663 0
M  V30 3225 H 304.935 -0.987703 3.83485 0
M  V30 3226 H 306.109 1.8449 4.22256 0
M  V30 3227 H 304.424 1.52097 3.87628 0
M  V30 3228 H 307.021 -0.883959 5.27343 0
M  V30 3229 H 307.364 -1.73196 3.78562 0
M  V30 3230 H 307.897 -0.04408 3.97776 0
M  V30 3231 H 304.636 1.87391 6.28144 0
M  V30 3232 H 304.156 0.185422 5.99513 0
M  V30 3233 H 305.835 0.574547 6.44444 0
M  V30 3234 N 305.967 -1.56429 0.191757 0
M  V30 3235 C 306.915 -2.20273 -0.747174 0
M  V30 3236 C 307.909 -1.17288 -1.22229 0
M  V30 3237 O 309.115 -1.35441 -1.18557 0
M  V30 3238 H 305.49 -0.705885 -0.259289 0
M  V30 3239 H 307.461 -2.97826 -0.184963 0
M  V30 3240 C 306.21 -2.87356 -1.95759 0
M  V30 3241 H 305.533 -3.66341 -1.60106 0
M  V30 3242 H 306.973 -3.3547 -2.59299 0
M  V30 3243 C 305.432 -1.88213 -2.79423 0
M  V30 3244 O 305.962 -1.38033 -3.7724 0
M  V30 3245 N 304.168 -1.56516 -2.44849 0
M  V30 3246 H 303.715 -1.97516 -1.65364 0
M  V30 3247 H 303.673 -0.904369 -3.01112 0
M  V30 3248 N 307.445 0.0818655 -1.57387 0
M  V30 3249 C 308.355 1.11642 -2.06333 0
M  V30 3250 C 309.371 1.43033 -0.99083 0
M  V30 3251 O 310.547 1.53411 -1.30488 0
M  V30 3252 C 307.612 2.41342 -2.48907 0
M  V30 3253 C 306.673 2.17014 -3.7041 0
M  V30 3254 C 305.906 3.4053 -4.10944 0
M  V30 3255 O 306.129 4.4927 -3.51444 0
M  V30 3256 O 305.063 3.29336 -5.03807 0
M  V30 3257 H 308.889 0.730657 -2.9478 0
M  V30 3258 H 306.474 0.295301 -1.46452 0
M  V30 3259 H 308.356 3.17691 -2.76858 0
M  V30 3260 H 307.031 2.79319 -1.63593 0
M  V30 3261 H 305.938 1.38403 -3.47556 0
M  V30 3262 H 307.271 1.83923 -4.56545 0
M  V30 3263 N 308.923 1.53595 0.353017 0
M  V30 3264 C 309.833 1.83897 1.45667 0
M  V30 3265 C 310.849 0.728334 1.58023 0
M  V30 3266 O 312.025 1.01968 1.73679 0
M  V30 3267 C 309.09 2.03383 2.80778 0
M  V30 3268 C 308.151 3.27262 2.77845 0
M  V30 3269 C 307.384 3.45809 4.06512 0
M  V30 3270 O 307.607 2.68387 5.03314 0
M  V30 3271 O 306.541 4.39207 4.11559 0
M  V30 3272 H 310.367 2.77686 1.2298 0
M  V30 3273 H 307.952 1.39132 0.544308 0
M  V30 3274 H 309.834 2.17698 3.60812 0
M  V30 3275 H 308.509 1.12783 3.03417 0
M  V30 3276 H 307.416 3.18359 1.96465 0
M  V30 3277 H 308.749 4.17824 2.60161 0
M  V30 3278 N 310.401 -0.613514 1.45168 0
M  V30 3279 C 311.364 -1.7065 1.53007 0
M  V30 3280 C 312.364 -1.5548 0.410184 0
M  V30 3281 O 313.554 -1.60656 0.673455 0
M  V30 3282 C 310.686 -3.09875 1.42093 0
M  V30 3283 H 311.879 -1.65068 2.50385 0
M  V30 3284 H 309.432 -0.828728 1.32521 0
M  V30 3285 H 310.167 -3.21039 0.458769 0
M  V30 3286 H 309.952 -3.22293 2.23315 0
M  V30 3287 H 311.442 -3.895 1.50598 0
M  V30 3288 N 311.879 -1.3236 -0.855495 0
M  V30 3289 C 312.842 -1.21164 -1.94556 0
M  V30 3290 C 313.842 -0.134908 -1.60233 0
M  V30 3291 O 315.032 -0.385249 -1.69887 0
M  V30 3292 C 312.164 -0.863192 -3.29791 0
M  V30 3293 H 313.357 -2.18038 -2.05911 0
M  V30 3294 H 310.91 -1.16179 -1.04557 0
M  V30 3295 H 311.645 0.103769 -3.24134 0
M  V30 3296 H 311.43 -1.64166 -3.56078 0
M  V30 3297 H 312.92 -0.809156 -4.09686 0
M  V30 3298 N 313.357 1.07166 -1.15556 0
M  V30 3299 C 314.267 2.17947 -0.868116 0
M  V30 3300 C 315.283 1.73297 0.156297 0
M  V30 3301 O 316.459 2.01392 -0.0182327 0
M  V30 3302 C 313.524 3.44789 -0.36355 0
M  V30 3303 C 312.585 4.03996 -1.45209 0
M  V30 3304 C 311.818 5.24783 -0.971508 0
M  V30 3305 O 312.041 5.70109 0.182194 0
M  V30 3306 O 310.975 5.75715 -1.75603 0
M  V30 3307 H 314.801 2.4503 -1.79427 0
M  V30 3308 H 312.386 1.16539 -0.934824 0
M  V30 3309 H 314.268 4.21307 -0.0887113 0
M  V30 3310 H 312.943 3.19253 0.534708 0
M  V30 3311 H 311.85 3.29009 -1.78056 0
M  V30 3312 H 313.183 4.33808 -2.32533 0
M  V30 3313 N 314.835 0.952656 1.25548 0
M  V30 3314 C 316.081 0.616826 1.93822 0
M  V30 3315 C 316.436 -0.836684 1.73255 0
M  V30 3316 O 315.729 -1.59218 1.06584 0
M  V30 3317 C 315.923 0.908818 3.45652 0
M  V30 3318 C 315.752 2.38916 3.80984 0
M  V30 3319 C 314.522 3.04637 4.03143 0
M  V30 3320 C 316.72 3.36838 3.88645 0
M  V30 3321 N 314.702 4.42565 4.25453 0
M  V30 3322 C 316.073 4.60065 4.1562 0
M  V30 3323 C 318.128 3.31704 3.71318 0
M  V30 3324 C 316.831 5.78795 4.2707 0
M  V30 3325 C 318.857 4.4977 3.84006 0
M  V30 3326 C 318.219 5.71783 4.11392 0
M  V30 3327 H 314.318 0.27629 0.731565 0
M  V30 3328 H 316.902 1.22443 1.5138 0
M  V30 3329 H 315.073 0.330166 3.86994 0
M  V30 3330 H 316.805 0.533093 4.01174 0
M  V30 3331 H 313.56 2.55215 3.98952 0
M  V30 3332 H 313.984 5.1399 4.40617 0
M  V30 3333 H 318.626 2.3842 3.49164 0
M  V30 3334 H 316.344 6.72521 4.48041 0
M  V30 3335 H 319.93 4.47342 3.71989 0
M  V30 3336 H 318.81 6.61617 4.2099 0
M  V30 3337 N 316.313 -1.40141 0.720998 0
M  V30 3338 C 317.59 -1.94677 0.189757 0
M  V30 3339 C 317.97 -1.65879 -1.30566 0
M  V30 3340 O 317.318 -0.979391 -2.06447 0
M  V30 3341 C 317.528 -3.45279 0.508304 0
M  V30 3342 C 318.876 -4.22209 0.449934 0
M  V30 3343 O 319.9 -3.53413 0.444677 0
M  V30 3344 O 318.759 -5.44788 0.432189 0
M  V30 3345 H 315.853 -0.826459 0.0299026 0
M  V30 3346 H 318.399 -1.49719 0.7989 0
M  V30 3347 H 317.171 -3.59619 1.54239 0
M  V30 3348 H 316.794 -3.97386 -0.130525 0
M  V30 3349 N 317.792 -0.46758 -1.50504 0
M  V30 3350 C 319.208 -0.121533 -1.59137 0
M  V30 3351 C 319.408 1.3717 -1.47603 0
M  V30 3352 O 318.464 2.14464 -1.33272 0
M  V30 3353 C 319.777 -0.6686 -2.93173 0
M  V30 3354 C 321.325 -0.631716 -3.06559 0
M  V30 3355 C 321.8 -1.15627 -4.43164 0
M  V30 3356 N 323.291 -1.11553 -4.49567 0
M  V30 3357 C 324.026 -1.49195 -5.5365 0
M  V30 3358 N 323.522 -1.94269 -6.65005 0
M  V30 3359 N 325.315 -1.4082 -5.44175 0
M  V30 3360 H 317.466 -1.4388 -1.56245 0
M  V30 3361 H 319.729 -0.594784 -0.738198 0
M  V30 3362 H 319.435 -1.71453 -3.07078 0
M  V30 3363 H 319.309 -0.11021 -3.77039 0
M  V30 3364 H 321.696 0.405297 -2.92304 0
M  V30 3365 H 321.777 -1.22687 -2.24458 0
M  V30 3366 H 321.421 -2.1919 -4.58168 0
M  V30 3367 H 321.351 -0.537365 -5.23851 0
M  V30 3368 H 323.842 -0.784895 -3.69659 0
M  V30 3369 H 324.155 -2.21148 -7.40482 0
M  V30 3370 H 322.5 -1.98219 -6.66134 0
M  V30 3371 H 325.691 -1.0545 -4.56068 0
M  V30 3372 H 325.864 -1.70481 -6.25172 0
M  V30 3373 N 319.27 1.56325 -0.20005 0
M  V30 3374 C 320.516 1.98012 0.438059 0
M  V30 3375 C 320.849 1.08702 1.60927 0
M  V30 3376 O 320.124 0.140064 1.93995 0
M  V30 3377 C 320.407 3.48841 0.893419 0
M  V30 3378 C 320.26 4.48928 -0.279947 0
M  V30 3379 C 321.579 4.03498 1.75719 0
M  V30 3380 H 318.698 0.719918 0.157757 0
M  V30 3381 H 321.34 1.87743 -0.291968 0
M  V30 3382 H 319.49 3.57723 1.51547 0
M  V30 3383 H 321.162 4.52079 -0.91772 0
M  V30 3384 H 319.405 4.23694 -0.930919 0
M  V30 3385 H 320.076 5.5194 0.0812601 0
M  V30 3386 H 322.552 3.97427 1.23253 0
M  V30 3387 H 321.428 5.09393 2.04476 0
M  V30 3388 H 321.689 3.4906 2.71311 0
M  V30 3389 N 320.748 -0.0735177 1.57428 0
M  V30 3390 C 321.698 -1.09442 2.00016 0
M  V30 3391 C 322.682 -1.34575 0.881947 0
M  V30 3392 O 323.874 -1.34905 1.14585 0
M  V30 3393 C 321.003 -2.40865 2.4462 0
M  V30 3394 C 320.089 -2.19014 3.63172 0
M  V30 3395 N 320.48 -1.67087 4.77405 0
M  V30 3396 C 318.778 -2.49494 3.69688 0
M  V30 3397 C 319.479 -1.6001 5.5926 0
M  V30 3398 N 318.455 -2.05999 5.03056 0
M  V30 3399 H 322.257 -0.686227 2.85776 0
M  V30 3400 H 319.771 -0.280617 1.59957 0
M  V30 3401 H 321.768 -3.14763 2.73368 0
M  V30 3402 H 320.428 -2.82403 1.60246 0
M  V30 3403 H 321.439 -1.35975 4.99731 0
M  V30 3404 H 318.116 -2.94409 2.96023 0
M  V30 3405 H 319.506 -1.2073 6.60964 0
M  V30 3406 N 322.226 -1.5378 -0.344866 0
M  V30 3407 C 323.637 -1.62428 -0.920552 0
M  V30 3408 C 323.988 -0.504747 -1.89596 0
M  V30 3409 O 323.113 0.365711 -2.13287 0
M  V30 3410 C 323.708 -2.94419 -1.67639 0
M  V30 3411 C 322.267 -3.05333 -2.20111 0
M  V30 3412 C 321.414 -2.57866 -1.01982 0
M  V30 3413 H 324.365 -1.58222 -0.123042 0
M  V30 3414 H 324.386 -2.83384 -2.53917 0
M  V30 3415 H 323.898 -3.7588 -0.966224 0
M  V30 3416 H 321.999 -2.28502 -2.94308 0
M  V30 3417 H 322.112 -4.10778 -2.46573 0
M  V30 3418 H 320.476 -2.13241 -1.39285 0
M  V30 3419 H 321.259 -3.41765 -0.324308 0
M  V30 3420 N 323.704 0.605807 -1.45491 0
M  V30 3421 C 324.95 1.36679 -1.49823 0
M  V30 3422 C 325.283 1.93693 -0.140175 0
M  V30 3423 O 324.558 1.75158 0.845581 0
M  V30 3424 C 324.841 2.51337 -2.57879 0
M  V30 3425 C 324.694 1.99508 -4.03134 0
M  V30 3426 C 326.013 3.53463 -2.62205 0
M  V30 3427 H 323.132 0.495617 -0.545466 0
M  V30 3428 H 325.774 0.682732 -1.7731 0
M  V30 3429 H 323.924 3.09691 -2.34571 0
M  V30 3430 H 325.596 1.45789 -4.37656 0
M  V30 3431 H 323.839 1.30496 -4.13707 0
M  V30 3432 H 324.51 2.82169 -4.74431 0
M  V30 3433 H 326.986 3.04953 -2.83095 0
M  V30 3434 H 325.862 4.31178 -3.39672 0
M  V30 3435 H 326.123 4.09197 -1.67363 0
M  V30 3436 N 325.182 1.32811 0.848464 0
M  V30 3437 C 326.132 1.18842 1.94578 0
M  V30 3438 C 327.116 0.0937517 1.60627 0
M  V30 3439 O 328.308 0.320887 1.74067 0
M  V30 3440 C 325.437 0.91999 3.30743 0
M  V30 3441 C 324.523 2.05665 3.70894 0
M  V30 3442 N 324.914 3.30579 3.8282 0
M  V30 3443 C 323.212 1.9612 4.00566 0
M  V30 3444 C 323.913 4.05067 4.17487 0
M  V30 3445 N 322.889 3.33419 4.2934 0
M  V30 3446 H 326.691 2.13536 2.0194 0
M  V30 3447 H 324.205 1.2468 1.0406 0
M  V30 3448 H 326.202 0.800859 4.09136 0
M  V30 3449 H 324.862 -0.0185076 3.24695 0
M  V30 3450 H 325.873 3.65441 3.66978 0
M  V30 3451 H 322.55 1.09871 4.02784 0
M  V30 3452 H 323.94 5.12815 4.34131 0
M  V30 3453 N 326.66 -1.06551 1.16123 0
M  V30 3454 C 327.623 -2.12132 0.867906 0
M  V30 3455 C 328.623 -1.60224 -0.135944 0
M  V30 3456 O 329.813 -1.73943 0.0946422 0
M  V30 3457 C 326.945 -3.396 0.297419 0
M  V30 3458 H 328.138 -2.39586 1.80385 0
M  V30 3459 H 325.691 -1.22574 0.969812 0
M  V30 3460 H 326.426 -3.17794 -0.64633 0
M  V30 3461 H 326.211 -3.78581 1.02073 0
M  V30 3462 H 327.701 -4.17455 0.110052 0
M  V30 3463 N 328.138 -0.959301 -1.25041 0
M  V30 3464 C 329.386 -0.615393 -1.92503 0
M  V30 3465 C 329.707 0.850969 -1.75452 0
M  V30 3466 O 328.977 1.60658 -1.12098 0
M  V30 3467 H 327.557 -0.224613 -0.712431 0
M  V30 3468 H 330.219 -1.21855 -1.5211 0
M  V30 3469 H 329.315 -0.848738 -3.00338 0
M  V30 3470 N 329.616 1.39756 -0.72842 0
M  V30 3471 C 331.027 1.83498 -0.344289 0
M  V30 3472 C 331.378 1.60868 1.12321 0
M  V30 3473 O 330.503 1.09634 1.86573 0
M  V30 3474 C 331.098 3.33114 -0.618112 0
M  V30 3475 C 329.657 3.753 -0.287549 0
M  V30 3476 C 328.804 2.62831 -0.884048 0
M  V30 3477 H 331.755 1.28842 -0.926578 0
M  V30 3478 H 331.776 3.80334 0.112349 0
M  V30 3479 H 331.288 3.49553 -1.68625 0
M  V30 3480 H 329.389 3.64451 0.775012 0
M  V30 3481 H 329.502 4.72945 -0.765512 0
M  V30 3482 H 327.866 2.52792 -0.311149 0
M  V30 3483 H 328.649 2.82078 -1.95671 0
M  V30 3484 N 331.094 0.475555 1.50254 0
M  V30 3485 C 332.343 -0.0795996 2.01543 0
M  V30 3486 C 332.656 -1.4038 1.36209 0
M  V30 3487 O 333.862 -2.04415 1.7868 0
M  V30 3488 C 332.318 -0.192363 3.59386 0
M  V30 3489 C 331.926 1.12367 4.33679 0
M  V30 3490 C 333.67 -0.699238 4.18701 0
M  V30 3491 C 331.577 0.974453 5.83317 0
M  V30 3492 H 330.507 -0.0335228 0.753254 0
M  V30 3493 H 333.158 0.611128 1.73025 0
M  V30 3494 H 331.54 -0.946974 3.84511 0
M  V30 3495 H 332.714 1.88958 4.20276 0
M  V30 3496 H 331.029 1.562 3.85993 0
M  V30 3497 H 333.626 -0.827978 5.28251 0
M  V30 3498 H 333.969 -1.69171 3.80377 0
M  V30 3499 H 334.502 -0.00188807 3.978 0
M  V30 3500 H 331.241 1.94042 6.26121 0
M  V30 3501 H 330.761 0.248998 5.99283 0
M  V30 3502 H 332.44 0.642867 6.43798 0
M  V30 3503 N 332.573 -1.56217 0.208337 0
M  V30 3504 C 333.536 -2.18455 -0.693557 0
M  V30 3505 C 334.536 -1.14268 -1.13135 0
M  V30 3506 O 335.726 -1.39577 -1.0423 0
M  V30 3507 C 332.858 -2.79727 -1.94848 0
M  V30 3508 H 334.051 -2.99519 -0.15114 0
M  V30 3509 H 331.604 -1.56245 -0.041287 0
M  V30 3510 H 332.339 -2.02497 -2.53309 0
M  V30 3511 H 332.124 -3.56009 -1.64316 0
M  V30 3512 H 333.614 -3.27475 -2.59133 0
M  V30 3513 N 334.051 0.0651679 -1.57465 0
M  V30 3514 C 335.462 0.616213 -1.76238 0
M  V30 3515 C 335.813 1.7756 -0.834689 0
M  V30 3516 O 334.938 2.1639 -0.0204156 0
M  V30 3517 C 335.533 1.12462 -3.1959 0
M  V30 3518 C 334.092 1.62147 -3.39684 0
M  V30 3519 C 333.239 0.543739 -2.71917 0
M  V30 3520 H 336.19 -0.161022 -1.57881 0
M  V30 3521 H 336.211 1.99324 -3.24114 0
M  V30 3522 H 335.723 0.280592 -3.87084 0
M  V30 3523 H 333.824 2.48854 -2.77313 0
M  V30 3524 H 333.937 1.69385 -4.48158 0
M  V30 3525 H 332.301 0.990352 -2.34657 0
M  V30 3526 H 333.084 -0.290216 -3.42071 0
M  V30 3527 N 335.529 1.53961 0.336706 0
M  V30 3528 C 336.777 1.71197 1.07405 0
M  V30 3529 C 337.098 0.481475 1.88962 0
M  V30 3530 O 336.368 -0.504585 1.8929 0
M  V30 3531 H 334.948 0.631185 0.399517 0
M  V30 3532 H 337.61 1.91232 0.376323 0
M  V30 3533 H 336.706 2.58587 1.74755 0
M  V30 3534 N 337.007 -0.598083 1.45811 0
M  V30 3535 C 337.939 -1.72231 1.51225 0
M  V30 3536 C 338.952 -1.57757 0.402059 0
M  V30 3537 O 340.141 -1.65464 0.669624 0
M  V30 3538 C 337.241 -3.10331 1.3619 0
M  V30 3539 C 336.414 -3.50955 2.61054 0
M  V30 3540 C 335.473 -4.68055 2.40439 0
M  V30 3541 O 334.499 -4.74691 3.14097 0
M  V30 3542 N 335.701 -5.61941 1.45612 0
M  V30 3543 H 338.466 -1.68046 2.48154 0
M  V30 3544 H 336.027 -0.783637 1.41671 0
M  V30 3545 H 338.019 -3.86439 1.20195 0
M  V30 3546 H 336.589 -3.0897 0.475015 0
M  V30 3547 H 335.809 -2.64711 2.92099 0
M  V30 3548 H 337.097 -3.74858 3.44034 0
M  V30 3549 H 336.495 -5.59301 0.848431 0
M  V30 3550 H 335.052 -6.37542 1.35585 0
M  V30 3551 N 338.485 -1.33259 -0.841409 0
M  V30 3552 C 339.418 -1.1764 -1.95541 0
M  V30 3553 C 340.396 -0.072501 -1.62438 0
M  V30 3554 O 341.58 -0.23427 -1.87039 0
M  V30 3555 C 338.707 -0.803794 -3.29024 0
M  V30 3556 C 337.753 -1.91482 -3.81099 0
M  V30 3557 S 338.586 -3.52538 -4.03085 0
M  V30 3558 C 339.742 -3.17279 -5.39523 0
M  V30 3559 H 339.975 -2.11941 -2.08491 0
M  V30 3560 H 337.508 -1.18072 -0.9949 0
M  V30 3561 H 339.466 -0.595592 -4.06156 0
M  V30 3562 H 338.127 0.120574 -3.13868 0
M  V30 3563 H 337.32 -1.60742 -4.7768 0
M  V30 3564 H 336.922 -2.07956 -3.10854 0
M  V30 3565 H 339.214 -2.67946 -6.22263 0
M  V30 3566 H 340.157 -4.1293 -5.75234 0
M  V30 3567 H 340.565 -2.53943 -5.04156 0
M  V30 3568 N 339.963 1.05934 -1.16686 0
M  V30 3569 C 341.379 1.30938 -0.912542 0
M  V30 3570 C 341.579 1.96803 0.432533 0
M  V30 3571 O 340.635 2.23693 1.17123 0
M  V30 3572 C 341.948 2.18649 -2.06429 0
M  V30 3573 C 343.496 2.32055 -2.10047 0
M  V30 3574 C 343.971 3.23122 -3.24586 0
M  V30 3575 N 345.462 3.30706 -3.24327 0
M  V30 3576 C 346.197 4.01273 -4.09594 0
M  V30 3577 N 345.693 4.74332 -5.04956 0
M  V30 3578 N 347.486 3.97361 -3.97569 0
M  V30 3579 H 339.637 0.615777 -2.03278 0
M  V30 3580 H 341.9 0.334077 -0.887185 0
M  V30 3581 H 341.606 1.77534 -3.03603 0
M  V30 3582 H 341.48 3.19252 -2.00894 0
M  V30 3583 H 343.867 2.72415 -1.13464 0
M  V30 3584 H 343.948 1.31107 -2.19647 0
M  V30 3585 H 343.592 2.83477 -4.2143 0
M  V30 3586 H 343.522 4.24057 -3.12223 0
M  V30 3587 H 346.013 2.78644 -2.55276 0
M  V30 3588 H 346.326 5.25716 -5.6643 0
M  V30 3589 H 344.671 4.733 -5.08933 0
M  V30 3590 H 347.862 3.39405 -3.22369 0
M  V30 3591 H 348.035 4.52089 -4.64241 0
M  V30 3592 N 341.441 0.965919 1.2453 0
M  V30 3593 C 342.351 0.502154 2.29163 0
M  V30 3594 C 343.367 -0.436017 1.68448 0
M  V30 3595 O 344.543 -0.309497 1.99008 0
M  V30 3596 C 341.608 -0.201956 3.46111 0
M  V30 3597 C 340.669 0.775821 4.22232 0
M  V30 3598 C 339.902 0.105217 5.33596 0
M  V30 3599 O 340.125 -1.10683 5.59558 0
M  V30 3600 O 339.059 0.796475 5.96607 0
M  V30 3601 H 342.885 1.37194 2.70946 0
M  V30 3602 H 340.47 0.732875 1.30189 0
M  V30 3603 H 342.352 -0.597564 4.17142 0
M  V30 3604 H 341.027 -1.04673 3.06309 0
M  V30 3605 H 339.934 1.22185 3.53584 0
M  V30 3606 H 341.267 1.58896 4.65846 0
M  V30 3607 N 342.919 -1.39368 0.735821 0
M  V30 3608 C 344.33 -1.83313 0.354015 0
M  V30 3609 C 344.681 -1.61461 -1.11466 0
M  V30 3610 O 343.806 -1.10621 -1.85989 0
M  V30 3611 C 344.401 -3.32781 0.635769 0
M  V30 3612 C 342.96 -3.75142 0.307448 0
M  V30 3613 C 342.107 -2.62358 0.897974 0
M  V30 3614 H 345.058 -1.28349 0.933398 0
M  V30 3615 H 345.079 -3.80388 -0.0921773 0
M  V30 3616 H 344.591 -3.48654 1.70476 0
M  V30 3617 H 342.692 -3.64857 -0.755674 0
M  V30 3618 H 342.805 -4.72532 0.790583 0
M  V30 3619 H 341.169 -2.52624 0.324551 0
M  V30 3620 H 341.952 -2.81036 1.97164 0
M  V30 3621 N 344.397 -0.483516 -1.5 0
M  V30 3622 C 345.813 -0.138404 -1.58999 0
M  V30 3623 C 346.013 1.35597 -1.4905 0
M  V30 3624 O 345.069 2.13039 -1.35539 0
M  V30 3625 C 346.382 -0.699658 -2.92447 0
M  V30 3626 C 347.93 -0.664195 -3.05872 0
M  V30 3627 C 348.405 -1.20321 -4.41913 0
M  V30 3628 N 349.896 -1.16315 -4.48358 0
M  V30 3629 C 350.631 -1.55058 -5.52037 0
M  V30 3630 N 350.127 -2.01311 -6.62907 0
M  V30 3631 N 351.92 -1.46584 -5.42651 0
M  V30 3632 H 344.071 -1.45529 -1.5471 0
M  V30 3633 H 346.334 -0.60258 -0.731848 0
M  V30 3634 H 346.04 -1.747 -3.05242 0
M  V30 3635 H 345.914 -0.150194 -3.76901 0
M  V30 3636 H 348.301 0.374272 -2.92717 0
M  V30 3637 H 348.382 -1.25061 -2.23144 0
M  V30 3638 H 348.026 -2.24037 -4.55818 0
M  V30 3639 H 347.956 -0.592896 -5.23252 0
M  V30 3640 H 350.447 -0.824058 -3.68806 0
M  V30 3641 H 350.76 -2.2899 -7.38095 0
M  V30 3642 H 349.105 -2.05273 -6.63994 0
M  V30 3643 H 352.296 -1.10281 -4.54924 0
M  V30 3644 H 352.469 -1.77103 -6.23329 0
M  V30 3645 N 345.875 1.56104 -0.216619 0
M  V30 3646 C 347.123 1.97781 0.415593 0
M  V30 3647 C 347.444 1.10536 1.60645 0
M  V30 3648 O 346.714 0.181303 1.95059 0
M  V30 3649 H 345.294 0.730415 0.156534 0
M  V30 3650 H 347.956 1.92445 -0.308366 0
M  V30 3651 H 347.052 3.03072 0.74525 0
M  V30 3652 N 347.353 -0.0568162 1.57498 0
M  V30 3653 C 348.578 -0.769402 1.92601 0
M  V30 3654 C 349.003 -1.69559 0.814336 0
M  V30 3655 O 348.361 -1.79811 -0.231903 0
M  V30 3656 C 348.409 -1.52634 3.26704 0
M  V30 3657 O 347.513 -2.63797 3.16994 0
M  V30 3658 H 346.854 -0.208909 0.63028 0
M  V30 3659 H 349.384 -0.0205798 2.0459 0
M  V30 3660 H 349.394 -1.90234 3.60936 0
M  V30 3661 H 348.069 -0.846875 4.07186 0
M  V30 3662 H 346.646 -2.28943 2.94346 0
M  V30 3663 N 348.832 -1.54138 -0.328536 0
M  V30 3664 C 350.109 -1.62749 -1.08499 0
M  V30 3665 C 350.489 -0.458198 -2.06067 0
M  V30 3666 O 349.837 0.548046 -2.2183 0
M  V30 3667 C 350.047 -2.99519 -1.79135 0
M  V30 3668 C 351.395 -3.55394 -2.32337 0
M  V30 3669 O 352.419 -3.01792 -1.89209 0
M  V30 3670 O 351.278 -4.49186 -3.11279 0
M  V30 3671 H 348.372 -0.65886 -0.499832 0
M  V30 3672 H 350.918 -1.66484 -0.328826 0
M  V30 3673 H 349.69 -3.76061 -1.08139 0
M  V30 3674 H 349.313 -2.99441 -2.61574 0
M  V30 3675 N 350.31 0.590341 -1.46126 0
M  V30 3676 C 351.559 1.34499 -1.50309 0
M  V30 3677 C 351.872 1.94977 -0.156021 0
M  V30 3678 O 353.078 2.71395 -0.0756037 0
M  V30 3679 C 351.534 2.43723 -2.64815 0
M  V30 3680 C 351.142 1.89582 -4.0591 0
M  V30 3681 C 352.886 3.20579 -2.78262 0
M  V30 3682 C 350.793 2.9639 -5.11769 0
M  V30 3683 H 349.723 0.505593 -0.559368 0
M  V30 3684 H 352.374 0.630848 -1.72315 0
M  V30 3685 H 350.756 3.17902 -2.36124 0
M  V30 3686 H 351.93 1.21997 -4.44357 0
M  V30 3687 H 350.245 1.25418 -3.97063 0
M  V30 3688 H 352.842 4.00276 -3.54519 0
M  V30 3689 H 353.185 3.72684 -1.85505 0
M  V30 3690 H 353.718 2.53505 -3.06562 0
M  V30 3691 H 350.457 2.49181 -6.06291 0
M  V30 3692 H 349.977 3.62487 -4.77873 0
M  V30 3693 H 351.656 3.60474 -5.37278 0
M  V30 3694 N 351.788 1.33704 0.83433 0
M  V30 3695 C 352.751 1.24244 1.92603 0
M  V30 3696 C 353.751 0.160383 1.59998 0
M  V30 3697 O 354.941 0.412228 1.69252 0
M  V30 3698 C 352.073 0.91555 3.28376 0
M  V30 3699 H 353.266 2.21287 2.02416 0
M  V30 3700 H 350.819 1.17827 1.02696 0
M  V30 3701 H 351.554 -0.0521886 3.24258 0
M  V30 3702 H 351.339 1.69811 3.53422 0
M  V30 3703 H 352.829 0.874231 4.08347 0
M  V30 3704 N 353.266 -1.05314 1.17247 0
M  V30 3705 C 354.514 -1.77941 0.958194 0
M  V30 3706 C 354.835 -1.88089 -0.514556 0
M  V30 3707 O 354.105 -1.39676 -1.37359 0
M  V30 3708 H 352.685 -0.659116 0.351533 0
M  V30 3709 H 355.347 -1.27166 1.47699 0
M  V30 3710 H 354.443 -2.79663 1.38546 0
M  V30 3711 N 354.744 -0.972509 -1.24016 0
M  V30 3712 C 355.972 -0.654803 -1.96265 0
M  V30 3713 C 356.387 0.776708 -1.72083 0
M  V30 3714 O 355.744 1.52171 -1.00748 0
M  V30 3715 C 355.795 -0.92592 -3.49441 0
M  V30 3716 O 355.516 -2.30116 -3.72798 0
M  V30 3717 C 357.017 -0.623068 -4.38899 0
M  V30 3718 H 354.237 -0.243907 -0.6251 0
M  V30 3719 H 356.781 -1.30175 -1.57717 0
M  V30 3720 H 354.936 -0.325108 -3.86033 0
M  V30 3721 H 355.35 -2.38483 -4.67147 0
M  V30 3722 H 356.824 -0.863189 -5.45209 0
M  V30 3723 H 357.301 0.442754 -4.36963 0
M  V30 3724 H 357.907 -1.204 -4.07902 0
M  V30 3725 N 356.222 1.38976 -0.743202 0
M  V30 3726 C 357.45 2.04636 -0.30525 0
M  V30 3727 C 357.865 1.56044 1.06281 0
M  V30 3728 O 357.222 0.728921 1.67311 0
M  V30 3729 C 357.273 3.60193 -0.307177 0
M  V30 3730 O 356.994 4.06998 -1.62124 0
M  V30 3731 C 358.495 4.4306 0.145928 0
M  V30 3732 H 355.715 0.65788 -0.132041 0
M  V30 3733 H 358.259 1.77866 -1.00915 0
M  V30 3734 H 356.414 3.85835 0.347898 0
M  V30 3735 H 356.828 5.01371 -1.54036 0
M  V30 3736 H 358.302 5.51921 0.0934183 0
M  V30 3737 H 358.779 4.22706 1.19231 0
M  V30 3738 H 359.385 4.22584 -0.479886 0
M  V30 3739 N 357.7 0.491464 1.49741 0
M  V30 3740 C 358.925 -0.0557177 2.07325 0
M  V30 3741 C 359.35 -1.30925 1.35056 0
M  V30 3742 O 358.708 -1.76733 0.404365 0
M  V30 3743 C 358.756 -0.302074 3.59333 0
M  V30 3744 O 357.86 -1.37868 3.88672 0
M  V30 3745 H 357.201 0.0219956 0.663636 0
M  V30 3746 H 359.731 0.688352 1.92673 0
M  V30 3747 H 359.741 -0.536464 4.04458 0
M  V30 3748 H 358.416 0.61383 4.11345 0
M  V30 3749 H 356.993 -1.12999 3.55367 0
M  V30 3750 N 359.178 -1.55987 0.224894 0
M  V30 3751 C 360.406 -2.02784 -0.410665 0
M  V30 3752 C 360.821 -1.10464 -1.53112 0
M  V30 3753 O 360.178 -0.114871 -1.82138 0
M  V30 3754 C 360.229 -3.49087 -0.939165 0
M  V30 3755 O 359.95 -4.37887 0.136614 0
M  V30 3756 C 361.451 -4.11543 -1.64763 0
M  V30 3757 H 358.671 -0.663484 -0.100148 0
M  V30 3758 H 361.215 -2.01614 0.342326 0
M  V30 3759 H 359.37 -3.50861 -1.64242 0
M  V30 3760 H 359.784 -5.23849 -0.261155 0
M  V30 3761 H 361.258 -5.15673 -1.96939 0
M  V30 3762 H 361.735 -3.56736 -2.56195 0
M  V30 3763 H 362.341 -4.13629 -0.989503 0
M  V30 3764 N 360.656 0.0484629 -1.57525 0
M  V30 3765 C 361.586 1.0549 -2.08313 0
M  V30 3766 C 362.567 1.38929 -0.981463 0
M  V30 3767 O 363.752 1.48151 -1.25558 0
M  V30 3768 C 360.882 2.36162 -2.54646 0
M  V30 3769 C 359.836 2.17016 -3.68901 0
M  V30 3770 C 359.162 3.53278 -4.01371 0
M  V30 3771 C 360.462 1.57219 -4.98076 0
M  V30 3772 H 362.156 0.632195 -2.92649 0
M  V30 3773 H 359.702 0.302654 -1.40784 0
M  V30 3774 H 361.655 3.06882 -2.88793 0
M  V30 3775 H 360.379 2.80456 -1.67368 0
M  V30 3776 H 359.038 1.48733 -3.35073 0
M  V30 3777 H 358.686 3.95185 -3.11188 0
M  V30 3778 H 358.386 3.41299 -4.78318 0
M  V30 3779 H 359.91 4.25391 -4.38035 0
M  V30 3780 H 361.324 2.17832 -5.30304 0
M  V30 3781 H 359.721 1.55871 -5.79503 0
M  V30 3782 H 360.791 0.535956 -4.81929 0
M  V30 3783 N 362.134 1.5431 0.320358 0
M  V30 3784 C 363.066 1.80262 1.41556 0
M  V30 3785 C 364.079 0.684723 1.477 0
M  V30 3786 O 365.268 0.961886 1.50366 0
M  V30 3787 C 362.368 1.90825 2.8007 0
M  V30 3788 C 361.541 3.21023 2.97091 0
M  V30 3789 C 360.6 3.22247 4.15985 0
M  V30 3790 O 359.626 3.95871 4.08992 0
M  V30 3791 N 360.828 2.46258 5.25678 0
M  V30 3792 H 363.593 2.74778 1.19655 0
M  V30 3793 H 361.154 1.53646 0.510358 0
M  V30 3794 H 363.146 1.89067 3.57821 0
M  V30 3795 H 361.716 1.03392 2.95006 0
M  V30 3796 H 360.936 3.35715 2.06614 0
M  V30 3797 H 362.224 4.0698 3.05361 0
M  V30 3798 H 361.622 1.86037 5.34235 0
M  V30 3799 H 360.179 2.50275 6.01835 0
M  V30 3800 N 363.613 -0.582584 1.46437 0
M  V30 3801 C 364.523 -1.71949 1.59595 0
M  V30 3802 C 365.539 -1.67264 0.479443 0
M  V30 3803 O 366.715 -1.87171 0.743579 0
M  V30 3804 C 363.78 -3.08452 1.58298 0
M  V30 3805 C 362.841 -3.244 2.81182 0
M  V30 3806 C 362.074 -4.54391 2.79937 0
M  V30 3807 O 362.297 -5.38287 1.8869 0
M  V30 3808 O 361.231 -4.73588 3.71481 0
M  V30 3809 H 365.057 -1.63795 2.55744 0
M  V30 3810 H 362.642 -0.749643 1.29231 0
M  V30 3811 H 364.524 -3.89732 1.60271 0
M  V30 3812 H 363.199 -3.17043 0.653094 0
M  V30 3813 H 362.106 -2.42613 2.84763 0
M  V30 3814 H 363.439 -3.20699 3.7338 0
M  V30 3815 N 365.091 -1.34144 -0.827227 0
M  V30 3816 C 366.023 -1.21206 -1.9453 0
M  V30 3817 C 367.036 -0.140176 -1.62195 0
M  V30 3818 O 368.225 -0.391647 -1.7415 0
M  V30 3819 C 365.325 -0.839141 -3.28347 0
M  V30 3820 C 364.498 -2.0051 -3.88734 0
M  V30 3821 C 363.557 -1.61128 -5.00923 0
M  V30 3822 O 362.583 -2.32726 -5.19449 0
M  V30 3823 N 363.785 -0.522958 -5.7814 0
M  V30 3824 H 366.55 -2.17525 -2.06162 0
M  V30 3825 H 364.111 -1.27043 -1.00358 0
M  V30 3826 H 366.103 -0.557556 -4.00841 0
M  V30 3827 H 364.673 0.0337293 -3.12582 0
M  V30 3828 H 363.893 -2.45166 -3.08686 0
M  V30 3829 H 365.181 -2.78498 -4.25812 0
M  V30 3830 H 364.579 0.0723518 -5.65654 0
M  V30 3831 H 363.136 -0.301089 -6.51104 0
M  V30 3832 N 366.569 1.04691 -1.17803 0
M  V30 3833 C 367.818 1.77176 -0.963931 0
M  V30 3834 C 368.131 1.88888 0.508015 0
M  V30 3835 O 369.337 2.58164 0.840465 0
M  V30 3836 C 367.793 3.18518 -1.67555 0
M  V30 3837 C 367.401 3.14919 -3.18637 0
M  V30 3838 C 369.145 3.95424 -1.54402 0
M  V30 3839 C 367.052 4.51081 -3.82466 0
M  V30 3840 H 365.982 0.664116 -0.357023 0
M  V30 3841 H 368.633 1.17303 -1.4111 0
M  V30 3842 H 367.015 3.78748 -1.15613 0
M  V30 3843 H 368.189 2.64178 -3.77554 0
M  V30 3844 H 366.504 2.51512 -3.31859 0
M  V30 3845 H 369.101 4.96106 -1.99456 0
M  V30 3846 H 369.444 4.13343 -0.495329 0
M  V30 3847 H 369.977 3.41754 -2.0359 0
M  V30 3848 H 366.716 4.38368 -4.87354 0
M  V30 3849 H 366.236 5.01951 -3.28337 0
M  V30 3850 H 367.915 5.2001 -3.84965 0
M  V30 3851 N 368.047 0.979072 1.23499 0
M  V30 3852 C 369.295 0.645941 1.91499 0
M  V30 3853 C 369.616 -0.822948 1.76784 0
M  V30 3854 O 368.886 -1.58854 1.14639 0
M  V30 3855 H 367.466 0.235919 0.708767 0
M  V30 3856 H 370.128 1.2426 1.50152 0
M  V30 3857 H 369.224 0.896411 2.9895 0
M  V30 3858 N 369.525 -1.3858 0.750561 0
M  V30 3859 C 370.771 -2.0095 0.31477 0
M  V30 3860 C 371.126 -1.58509 -1.09053 0
M  V30 3861 O 370.419 -0.8112 -1.7358 0
M  V30 3862 C 370.613 -3.55455 0.372373 0
M  V30 3863 C 370.442 -4.12898 1.78173 0
M  V30 3864 C 369.212 -4.44797 2.39757 0
M  V30 3865 C 371.41 -4.35366 2.7379 0
M  V30 3866 N 369.392 -4.87831 3.72685 0
M  V30 3867 C 370.763 -4.80775 3.91478 0
M  V30 3868 C 372.818 -4.1746 2.71351 0
M  V30 3869 C 371.521 -5.10155 5.07084 0
M  V30 3870 C 373.547 -4.47963 3.86113 0
M  V30 3871 C 372.909 -4.93593 5.02539 0
M  V30 3872 H 369.008 -0.765083 0.161776 0
M  V30 3873 H 371.592 -1.68246 0.979867 0
M  V30 3874 H 369.763 -3.87512 -0.26244 0
M  V30 3875 H 371.495 -4.04614 -0.0834479 0
M  V30 3876 H 368.25 -4.33135 1.91548 0
M  V30 3877 H 368.674 -5.13685 4.40972 0
M  V30 3878 H 373.316 -3.81372 1.82524 0
M  V30 3879 H 371.034 -5.45141 5.96529 0
M  V30 3880 H 374.62 -4.35717 3.85542 0
M  V30 3881 H 373.5 -5.16746 5.89867 0
M  V30 3882 N 371.003 -0.499398 -1.49478 0
M  V30 3883 C 371.936 0.326491 -2.25852 0
M  V30 3884 C 372.914 0.971776 -1.30366 0
M  V30 3885 O 374.098 1.00219 -1.59651 0
M  V30 3886 C 371.225 1.45969 -3.05632 0
M  V30 3887 C 370.271 0.928938 -4.16261 0
M  V30 3888 S 371.104 -0.179012 -5.35201 0
M  V30 3889 C 372.26 0.957389 -6.18534 0
M  V30 3890 H 372.493 -0.321746 -2.95554 0
M  V30 3891 H 370.026 -0.284674 -1.51753 0
M  V30 3892 H 371.984 2.109 -3.52181 0
M  V30 3893 H 370.645 2.07953 -2.35402 0
M  V30 3894 H 369.838 1.77813 -4.71592 0
M  V30 3895 H 369.44 0.356869 -3.72293 0
M  V30 3896 H 371.732 1.86296 -6.51383 0
M  V30 3897 H 372.675 0.442733 -7.06715 0
M  V30 3898 H 373.083 1.224 -5.5107 0
M  V30 3899 N 372.481 1.55866 -0.233164 0
M  V30 3900 C 373.709 2.02998 0.399905 0
M  V30 3901 C 374.124 1.11274 1.52524 0
M  V30 3902 O 373.481 0.124528 1.82075 0
M  V30 3903 C 373.532 3.4958 0.920639 0
M  V30 3904 O 373.253 4.37808 -0.159834 0
M  V30 3905 C 374.754 4.12411 1.62578 0
M  V30 3906 H 371.974 0.664006 0.0966281 0
M  V30 3907 H 374.518 2.0143 -0.353013 0
M  V30 3908 H 372.673 3.51727 1.62379 0
M  V30 3909 H 373.087 5.23981 0.23337 0
M  V30 3910 H 374.561 5.16711 1.94201 0
M  V30 3911 H 375.038 3.5809 2.54299 0
M  V30 3912 H 375.644 4.14148 0.967553 0
M  V30 3913 N 373.959 -0.0401083 1.57549 0
M  V30 3914 C 374.907 -1.06264 2.06908 0
M  V30 3915 C 375.901 -1.38132 0.980608 0
M  V30 3916 O 377.107 -1.37167 1.16556 0
M  V30 3917 H 373.482 -0.360166 0.660139 0
M  V30 3918 H 375.453 -0.620445 2.91878 0
M  V30 3919 C 374.202 -2.35846 2.55483 0
M  V30 3920 H 373.525 -2.12183 3.38849 0
M  V30 3921 H 374.965 -3.05765 2.93741 0
M  V30 3922 C 373.424 -3.0404 1.45126 0
M  V30 3923 O 373.954 -3.93424 0.811216 0
M  V30 3924 N 372.16 -2.65184 1.18852 0
M  V30 3925 H 371.707 -1.92584 1.71083 0
M  V30 3926 H 371.665 -3.1113 0.452244 0
M  V30 3927 N 375.437 -1.54477 -0.31217 0
M  V30 3928 C 376.385 -1.85395 -1.40469 0
M  V30 3929 C 377.379 -0.726749 -1.53019 0
M  V30 3930 O 378.585 -0.910582 -1.55269 0
M  V30 3931 H 374.96 -0.587845 -0.46898 0
M  V30 3932 H 376.931 -2.76736 -1.11623 0
M  V30 3933 C 375.68 -2.10811 -2.76503 0
M  V30 3934 H 375.003 -2.97014 -2.67625 0
M  V30 3935 H 376.443 -2.3639 -3.51988 0
M  V30 3936 C 374.902 -0.903165 -3.24568 0
M  V30 3937 O 375.432 -0.118085 -4.01526 0
M  V30 3938 N 373.638 -0.711634 -2.81752 0
M  V30 3939 H 373.185 -1.35171 -2.19286 0
M  V30 3940 H 373.143 0.0930473 -3.14262 0
M  V30 3941 N 376.915 0.57481 -1.46744 0
M  V30 3942 C 378.326 1.15695 -1.46532 0
M  V30 3943 C 378.677 1.95068 -0.210425 0
M  V30 3944 O 377.802 2.05241 0.685944 0
M  V30 3945 C 378.397 2.1048 -2.65487 0
M  V30 3946 C 376.956 2.64002 -2.68291 0
M  V30 3947 C 376.103 1.40026 -2.39349 0
M  V30 3948 H 379.054 0.362325 -1.54509 0
M  V30 3949 H 379.075 2.94074 -2.41455 0
M  V30 3950 H 378.587 1.52683 -3.56805 0
M  V30 3951 H 376.688 3.25646 -1.81067 0
M  V30 3952 H 376.801 3.06197 -3.68483 0
M  V30 3953 H 375.165 1.70106 -1.89568 0
M  V30 3954 H 375.948 0.840485 -3.32852 0
M  V30 3955 N 378.394 1.34581 0.820102 0
M  V30 3956 C 379.805 1.24298 1.39309 0
M  V30 3957 C 380.156 -0.130351 1.95767 0
M  V30 3958 O 379.281 -1.0308 1.90272 0
M  V30 3959 C 379.876 2.25054 2.53251 0
M  V30 3960 C 378.435 2.18552 3.0645 0
M  V30 3961 C 377.582 2.11503 1.79337 0
M  V30 3962 H 380.533 1.45906 0.624262 0
M  V30 3963 H 380.554 1.86917 3.31425 0
M  V30 3964 H 380.066 3.24996 2.1213 0
M  V30 3965 H 378.167 1.21976 3.52069 0
M  V30 3966 H 378.28 3.0993 3.65349 0
M  V30 3967 H 376.644 1.57268 2.00347 0
M  V30 3968 H 377.427 3.13284 1.40386 0
M  V30 3969 N 379.872 -1.04064 1.18357 0
M  V30 3970 C 381.121 -1.76662 0.973313 0
M  V30 3971 C 381.434 -1.89154 -0.497991 0
M  V30 3972 O 382.64 -2.58606 -0.826762 0
M  V30 3973 C 381.096 -3.17624 1.69242 0
M  V30 3974 C 380.704 -3.13225 3.20303 0
M  V30 3975 C 382.448 -3.946 1.56497 0
M  V30 3976 C 380.355 -4.49046 3.84853 0
M  V30 3977 H 379.285 -0.662214 0.36054 0
M  V30 3978 H 381.936 -1.16553 1.41731 0
M  V30 3979 H 380.318 -3.78129 1.1762 0
M  V30 3980 H 381.492 -2.62172 3.78949 0
M  V30 3981 H 379.807 -2.49749 3.33189 0
M  V30 3982 H 382.404 -4.95042 2.02084 0
M  V30 3983 H 382.747 -4.13074 0.517243 0
M  V30 3984 H 383.28 -3.4067 2.05399 0
M  V30 3985 H 380.019 -4.35777 4.89672 0
M  V30 3986 H 379.539 -5.00203 3.30994 0
M  V30 3987 H 381.218 -5.17961 3.87718 0
M  V30 3988 N 381.35 -0.985608 -1.22978 0
M  V30 3989 C 382.761 -0.693593 -1.73338 0
M  V30 3990 C 383.112 0.789935 -1.79595 0
M  V30 3991 O 382.237 1.61771 -1.43733 0
M  V30 3992 C 382.832 -1.25235 -3.14804 0
M  V30 3993 C 381.391 -1.00987 -3.626 0
M  V30 3994 C 380.538 -1.37695 -2.40698 0
M  V30 3995 H 383.489 -1.15884 -1.08428 0
M  V30 3996 H 383.51 -0.627329 -3.75293 0
M  V30 3997 H 383.022 -2.33209 -3.10218 0
M  V30 3998 H 381.123 0.0535565 -3.72562 0
M  V30 3999 H 381.236 -1.66812 -4.49122 0
M  V30 4000 H 379.6 -0.795459 -2.4196 0
M  V30 4001 H 380.383 -2.46657 -2.38779 0
M  V30 4002 N 382.828 1.3818 -0.7579 0
M  V30 4003 C 384.074 2.00316 -0.316453 0
M  V30 4004 C 384.407 1.60026 1.10025 0
M  V30 4005 O 383.682 0.839835 1.75434 0
M  V30 4006 C 383.965 3.57349 -0.444245 0
M  V30 4007 C 383.818 4.07591 -1.90236 0
M  V30 4008 C 385.137 4.3981 0.1598 0
M  V30 4009 H 382.256 0.727741 -0.116459 0
M  V30 4010 H 384.898 1.6406 -0.958352 0
M  V30 4011 H 383.048 3.88365 0.102233 0
M  V30 4012 H 384.72 3.87199 -2.50748 0
M  V30 4013 H 382.963 3.60297 -2.41595 0
M  V30 4014 H 383.634 5.16677 -1.94291 0
M  V30 4015 H 386.11 4.14971 -0.306314 0
M  V30 4016 H 384.986 5.48885 0.0401675 0
M  V30 4017 H 385.247 4.24102 1.24859 0
M  V30 4018 N 384.306 0.507319 1.49211 0
M  V30 4019 C 385.554 -0.0348839 2.0207 0
M  V30 4020 C 385.875 -1.36898 1.38866 0
M  V30 4021 O 385.145 -1.88133 0.546151 0
M  V30 4022 H 383.725 -0.0158812 0.746831 0
M  V30 4023 H 386.387 0.665998 1.83168 0
M  V30 4024 H 385.483 -0.159917 3.1169 0
M  V30 4025 N 385.784 -1.5574 0.241426 0
M  V30 4026 C 386.694 -2.2479 -0.671305 0
M  V30 4027 C 387.71 -1.26217 -1.19772 0
M  V30 4028 O 388.886 -1.59079 -1.23514 0
M  V30 4029 C 385.951 -2.92966 -1.85396 0
M  V30 4030 C 385.012 -4.06935 -1.36756 0
M  V30 4031 C 384.245 -4.71851 -2.49384 0
M  V30 4032 O 384.468 -4.35823 -3.67987 0
M  V30 4033 O 383.402 -5.60467 -2.19454 0
M  V30 4034 H 387.228 -3.0349 -0.112966 0
M  V30 4035 H 384.813 -1.49397 0.0101513 0
M  V30 4036 H 386.695 -3.35927 -2.54423 0
M  V30 4037 H 385.37 -2.17211 -2.40002 0
M  V30 4038 H 384.277 -3.68503 -0.644726 0
M  V30 4039 H 385.61 -4.84492 -0.867647 0
M  V30 4040 N 387.262 0.0317525 -1.57568 0
M  V30 4041 C 388.511 0.722131 -1.8833 0
M  V30 4042 C 388.824 1.76664 -0.839587 0
M  V30 4043 O 390.03 2.50942 -1.03635 0
M  V30 4044 C 388.486 1.33544 -3.34207 0
M  V30 4045 C 388.094 0.327415 -4.46802 0
M  V30 4046 C 389.838 2.00585 -3.7412 0
M  V30 4047 C 387.745 0.948915 -5.83738 0
M  V30 4048 H 386.675 0.273466 -0.702661 0
M  V30 4049 H 389.326 -0.0235811 -1.83485 0
M  V30 4050 H 387.708 2.13077 -3.33788 0
M  V30 4051 H 388.882 -0.441006 -4.58685 0
M  V30 4052 H 387.197 -0.240758 -4.15703 0
M  V30 4053 H 389.794 2.47932 -4.73744 0
M  V30 4054 H 390.137 2.82285 -3.05975 0
M  V30 4055 H 390.67 1.27831 -3.76702 0
M  V30 4056 H 387.409 0.171387 -6.55276 0
M  V30 4057 H 386.929 1.68724 -5.7558 0
M  V30 4058 H 388.608 1.45705 -6.3038 0
M  V30 4059 N 388.74 1.54641 0.303973 0
M  V30 4060 C 389.97 1.77511 1.05705 0
M  V30 4061 C 390.378 0.533228 1.81531 0
M  V30 4062 O 389.721 -0.506423 1.76582 0
M  V30 4063 C 389.783 2.92779 2.08617 0
M  V30 4064 C 389.447 4.30977 1.52013 0
M  V30 4065 C 390.444 5.11115 0.9517 0
M  V30 4066 C 388.129 4.77571 1.55665 0
M  V30 4067 C 390.123 6.35966 0.427327 0
M  V30 4068 C 387.81 6.02384 1.02841 0
M  V30 4069 C 388.808 6.81417 0.464713 0
M  V30 4070 O 388.496 8.03881 -0.0555283 0
M  V30 4071 H 388.228 0.59579 0.319391 0
M  V30 4072 H 390.782 2.02401 0.349712 0
M  V30 4073 H 389.012 2.63506 2.83022 0
M  V30 4074 H 390.701 3.03252 2.69802 0
M  V30 4075 H 391.467 4.76264 0.916407 0
M  V30 4076 H 387.346 4.16085 1.9848 0
M  V30 4077 H 390.89 6.97599 -0.0133062 0
M  V30 4078 H 386.787 6.36723 1.06084 0
M  V30 4079 H 387.555 8.18479 0.0580522 0
M  V30 4080 N 390.218 -0.567019 1.47046 0
M  V30 4081 C 391.165 -1.67489 1.58796 0
M  V30 4082 C 392.135 -1.60399 0.43144 0
M  V30 4083 O 393.32 -1.79378 0.650233 0
M  V30 4084 C 390.46 -3.05821 1.59899 0
M  V30 4085 C 389.573 -3.2342 2.86397 0
M  V30 4086 C 388.708 -4.52093 2.789 0
M  V30 4087 C 387.747 -4.6309 4.00267 0
M  V30 4088 N 386.884 -5.83106 3.91064 0
M  V30 4089 H 391.724 -1.56785 2.53422 0
M  V30 4090 H 389.261 -0.763896 1.2571 0
M  V30 4091 H 391.219 -3.8591 1.58522 0
M  V30 4092 H 389.849 -3.15384 0.687929 0
M  V30 4093 H 388.901 -2.3683 2.97684 0
M  V30 4094 H 390.213 -3.27412 3.76301 0
M  V30 4095 H 389.367 -5.4043 2.75718 0
M  V30 4096 H 388.106 -4.50565 1.86662 0
M  V30 4097 H 387.111 -3.73168 4.03765 0
M  V30 4098 H 388.336 -4.66386 4.93621 0
M  V30 4099 H 386.282 -5.82546 3.01623 0
M  V30 4100 H 386.199 -5.88434 4.74638 0
M  V30 4101 H 387.467 -6.73831 3.91882 0
M  V30 4102 N 391.696 -1.35014 -0.812953 0
M  V30 4103 C 393.112 -1.14914 -1.10757 0
M  V30 4104 C 393.312 0.0426818 -2.01455 0
M  V30 4105 O 392.368 0.715212 -2.42159 0
M  V30 4106 C 393.681 -2.44911 -1.74468 0
M  V30 4107 C 395.229 -2.5106 -1.86917 0
M  V30 4108 C 395.704 -3.81085 -2.54044 0
M  V30 4109 N 397.195 -3.82301 -2.61535 0
M  V30 4110 C 397.93 -4.79634 -3.14227 0
M  V30 4111 N 397.426 -5.87353 -3.67407 0
M  V30 4112 N 399.219 -4.67078 -3.12721 0
M  V30 4113 H 391.37 -2.1136 -0.20989 0
M  V30 4114 H 393.633 -0.935128 -0.155692 0
M  V30 4115 H 393.339 -3.32267 -1.15289 0
M  V30 4116 H 393.213 -2.58989 -2.74234 0
M  V30 4117 H 395.6 -1.64137 -2.45241 0
M  V30 4118 H 395.681 -2.40901 -0.860242 0
M  V30 4119 H 395.325 -4.68402 -1.96372 0
M  V30 4120 H 395.255 -3.88529 -3.55461 0
M  V30 4121 H 397.746 -3.04465 -2.23851 0
M  V30 4122 H 398.059 -6.57624 -4.05894 0
M  V30 4123 H 396.404 -5.91054 -3.65623 0
M  V30 4124 H 399.595 -3.82067 -2.70449 0
M  V30 4125 H 399.768 -5.43098 -3.53481 0
M  V30 4126 N 393.175 1.03435 -1.18907 0
M  V30 4127 C 394.421 1.7713 -0.99982 0
M  V30 4128 C 394.776 1.86695 0.465049 0
M  V30 4129 O 394.069 1.36866 1.34083 0
M  V30 4130 C 394.263 3.19792 -1.59586 0
M  V30 4131 C 394.092 3.24134 -3.11717 0
M  V30 4132 C 392.862 3.32398 -3.80578 0
M  V30 4133 C 395.06 3.11625 -4.09138 0
M  V30 4134 N 393.042 3.26055 -5.20155 0
M  V30 4135 C 394.413 3.12855 -5.35277 0
M  V30 4136 C 396.468 2.95713 -4.00572 0
M  V30 4137 C 395.171 2.99805 -6.53842 0
M  V30 4138 C 397.197 2.84011 -5.1874 0
M  V30 4139 C 396.559 2.8589 -6.43775 0
M  V30 4140 H 392.658 0.659683 -0.419931 0
M  V30 4141 H 395.242 1.2317 -1.50789 0
M  V30 4142 H 393.413 3.72085 -1.11389 0
M  V30 4143 H 395.145 3.81819 -1.3415 0
M  V30 4144 H 391.9 3.38392 -3.31342 0
M  V30 4145 H 392.324 3.26307 -5.93172 0
M  V30 4146 H 396.966 2.93086 -3.0473 0
M  V30 4147 H 394.684 3.01184 -7.49876 0
M  V30 4148 H 398.27 2.72744 -5.13909 0
M  V30 4149 H 397.15 2.76931 -7.33675 0
M  V30 4150 N 394.653 0.992116 1.22453 0
M  V30 4151 C 395.902 0.662992 1.90492 0
M  V30 4152 C 396.215 -0.808407 1.78113 0
M  V30 4153 O 397.421 -1.24908 2.41061 0
M  V30 4154 C 395.877 1.1353 3.41524 0
M  V30 4155 C 395.485 2.63187 3.62542 0
M  V30 4156 C 397.229 0.880465 4.15269 0
M  V30 4157 C 395.136 3.04024 5.0727 0
M  V30 4158 H 394.066 0.244278 0.713333 0
M  V30 4159 H 396.717 1.20157 1.38688 0
M  V30 4160 H 395.099 0.52485 3.92506 0
M  V30 4161 H 396.273 3.2957 3.22056 0
M  V30 4162 H 394.588 2.86543 3.02129 0
M  V30 4163 H 397.185 1.16128 5.21937 0
M  V30 4164 H 397.528 -0.183408 4.15896 0
M  V30 4165 H 398.061 1.45307 3.70312 0
M  V30 4166 H 394.8 4.09584 5.11782 0
M  V30 4167 H 394.32 2.42343 5.48662 0
M  V30 4168 H 395.999 2.95282 5.75689 0
M  V30 4169 N 396.131 -1.37776 0.765217 0
M  V30 4170 C 397.38 -1.99092 0.323307 0
M  V30 4171 C 397.693 -1.61434 -1.10446 0
M  V30 4172 O 398.899 -2.15805 -1.64743 0
M  V30 4173 C 397.355 -3.56019 0.527098 0
M  V30 4174 C 396.963 -4.0262 1.96471 0
M  V30 4175 C 398.707 -4.2424 0.148483 0
M  V30 4176 C 396.614 -5.52233 2.11644 0
M  V30 4177 H 395.544 -0.744846 0.117137 0
M  V30 4178 H 398.195 -1.57391 0.943417 0
M  V30 4179 H 396.577 -3.95667 -0.162372 0
M  V30 4180 H 397.751 -3.74234 2.68859 0
M  V30 4181 H 396.066 -3.47161 2.29931 0
M  V30 4182 H 398.663 -5.34159 0.240456 0
M  V30 4183 H 399.006 -4.06446 -0.900422 0
M  V30 4184 H 399.539 -3.89872 0.79025 0
M  V30 4185 H 396.278 -5.74945 3.1483 0
M  V30 4186 H 395.798 -5.82324 1.4373 0
M  V30 4187 H 397.477 -6.18106 1.91193 0
M  V30 4188 N 397.609 -0.515225 -1.4894 0
M  V30 4189 C 398.539 0.244628 -2.32215 0
M  V30 4190 C 399.52 0.949136 -1.41157 0
M  V30 4191 O 400.705 0.937783 -1.70057 0
M  V30 4192 C 397.835 1.30096 -3.22013 0
M  V30 4193 C 396.789 0.715486 -4.21977 0
M  V30 4194 C 396.115 1.87339 -5.00808 0
M  V30 4195 C 397.415 -0.302982 -5.2142 0
M  V30 4196 H 399.109 -0.450501 -2.95991 0
M  V30 4197 H 396.655 -0.218098 -1.42339 0
M  V30 4198 H 398.608 1.84037 -3.79089 0
M  V30 4199 H 397.332 2.02547 -2.56207 0
M  V30 4200 H 395.991 0.197715 -3.66066 0
M  V30 4201 H 395.639 2.58592 -4.31438 0
M  V30 4202 H 395.339 1.48764 -5.68457 0
M  V30 4203 H 396.863 2.41686 -5.60732 0
M  V30 4204 H 398.277 0.148802 -5.73107 0
M  V30 4205 H 396.674 -0.60532 -5.97039 0
M  V30 4206 H 397.744 -1.21395 -4.69459 0
M  V30 4207 N 399.087 1.5561 -0.249682 0
M  V30 4208 C 400.335 1.98618 0.373548 0
M  V30 4209 C 400.656 1.13919 1.58264 0
M  V30 4210 O 399.926 0.222637 1.94631 0
M  V30 4211 H 398.506 0.733571 0.141006 0
M  V30 4212 H 401.168 1.91748 -0.349117 0
M  V30 4213 H 400.264 3.04584 0.680796 0
M  V30 4214 N 400.565 -0.0233959 1.57583 0
M  V30 4215 C 401.495 -1.02162 2.09965 0
M  V30 4216 C 402.476 -1.3735 1.00344 0
M  V30 4217 O 403.661 -1.46135 1.27899 0
M  V30 4218 C 400.791 -2.32081 2.58371 0
M  V30 4219 C 399.745 -2.1112 3.72307 0
M  V30 4220 C 399.071 -3.46848 4.06941 0
M  V30 4221 C 400.371 -1.49276 5.00514 0
M  V30 4222 H 402.065 -0.585557 2.93618 0
M  V30 4223 H 399.611 -0.280218 1.41247 0
M  V30 4224 H 401.564 -3.02249 2.93639 0
M  V30 4225 H 400.288 -2.77758 1.71808 0
M  V30 4226 H 398.947 -1.43384 3.37397 0
M  V30 4227 H 398.595 -3.90184 3.17436 0
M  V30 4228 H 398.295 -3.33646 4.83688 0
M  V30 4229 H 399.819 -4.18369 4.44747 0
M  V30 4230 H 401.233 -2.09368 5.33702 0
M  V30 4231 H 399.63 -1.46632 5.8191 0
M  V30 4232 H 400.7 -0.459217 4.82721 0
M  V30 4233 N 402.043 -1.548 -0.295768 0
M  V30 4234 C 402.991 -1.86874 -1.38495 0
M  V30 4235 C 403.985 -0.742938 -1.52239 0
M  V30 4236 O 405.191 -0.926999 -1.54294 0
M  V30 4237 H 401.566 -0.592786 -0.462719 0
M  V30 4238 H 403.537 -2.77904 -1.08682 0
M  V30 4239 C 402.286 -2.13732 -2.74252 0
M  V30 4240 H 401.609 -2.99835 -2.64459 0
M  V30 4241 H 403.049 -2.4011 -3.49461 0
M  V30 4242 C 401.508 -0.937539 -3.23592 0
M  V30 4243 O 402.038 -0.160665 -4.01379 0
M  V30 4244 N 400.244 -0.741478 -2.80981 0
M  V30 4245 H 399.791 -1.37489 -2.1784 0
M  V30 4246 H 399.749 0.0597103 -3.14343 0
M  V30 4247 N 403.521 0.559213 -1.47345 0
M  V30 4248 C 404.468 1.66645 -1.59682 0
M  V30 4249 C 405.438 1.60168 -0.43994 0
M  V30 4250 O 406.623 1.79031 -0.659736 0
M  V30 4251 C 403.763 3.04969 -1.61518 0
M  V30 4252 C 402.876 3.21897 -2.88108 0
M  V30 4253 C 402.011 4.50608 -2.81294 0
M  V30 4254 C 401.05 4.60961 -4.02717 0
M  V30 4255 N 400.187 5.81024 -3.94151 0
M  V30 4256 H 405.027 1.55439 -2.54249 0
M  V30 4257 H 402.564 0.757219 -1.26113 0
M  V30 4258 H 404.522 3.85064 -1.60566 0
M  V30 4259 H 403.152 3.15015 -0.704645 0
M  V30 4260 H 402.204 2.35248 -2.98936 0
M  V30 4261 H 403.516 3.25412 -3.78032 0
M  V30 4262 H 402.67 5.3896 -2.7858 0
M  V30 4263 H 401.409 4.49568 -1.89049 0
M  V30 4264 H 400.414 3.71021 -4.05738 0
M  V30 4265 H 401.639 4.63761 -4.96087 0
M  V30 4266 H 399.585 5.80938 -3.04708 0
M  V30 4267 H 399.502 5.85909 -4.77752 0
M  V30 4268 H 400.77 6.71744 -3.9545 0
M  V30 4269 N 404.999 1.35443 0.805782 0
M  V30 4270 C 406.248 1.28097 1.55801 0
M  V30 4271 C 406.561 -0.142428 1.95081 0
M  V30 4272 O 407.767 -0.33817 2.69386 0
M  V30 4273 C 406.223 2.24653 2.81174 0
M  V30 4274 C 405.831 3.72342 2.49129 0
M  V30 4275 C 407.575 2.2625 3.59181 0
M  V30 4276 C 405.482 4.60719 3.70799 0
M  V30 4277 H 404.412 0.475937 0.584808 0
M  V30 4278 H 407.063 1.60712 0.885661 0
M  V30 4279 H 405.445 1.85011 3.50124 0
M  V30 4280 H 406.619 4.20624 1.88181 0
M  V30 4281 H 404.934 3.73361 1.84366 0
M  V30 4282 H 407.531 2.89495 4.49552 0
M  V30 4283 H 407.874 1.26647 3.96568 0
M  V30 4284 H 408.407 2.64426 2.97193 0
M  V30 4285 H 405.146 5.61324 3.3852 0
M  V30 4286 H 404.666 4.17163 4.3097 0
M  V30 4287 H 406.345 4.76182 4.38018 0
M  V30 4288 N 406.477 -1.02803 1.19454 0
M  V30 4289 C 407.723 -1.76478 0.999171 0
M  V30 4290 C 408.056 -1.88456 -0.468828 0
M  V30 4291 O 407.331 -1.40198 -1.34814 0
M  V30 4292 C 407.614 -3.19044 1.66981 0
M  V30 4293 C 407.467 -3.14932 3.21151 0
M  V30 4294 C 408.786 -4.17456 1.39349 0
M  V30 4295 H 405.905 -0.640614 0.364393 0
M  V30 4296 H 408.547 -1.20005 1.47305 0
M  V30 4297 H 406.697 -3.67263 1.2669 0
M  V30 4298 H 408.369 -2.74605 3.70661 0
M  V30 4299 H 406.612 -2.52625 3.52652 0
M  V30 4300 H 407.283 -4.1566 3.63223 0
M  V30 4301 H 409.759 -3.77842 1.74283 0
M  V30 4302 H 408.635 -5.154 1.88823 0
M  V30 4303 H 408.896 -4.40949 0.318813 0
M  V30 4304 N 407.956 -0.998596 -1.21925 0
M  V30 4305 C 409.372 -0.710303 -1.42923 0
M  V30 4306 C 409.572 0.716933 -1.88314 0
M  V30 4307 O 408.628 1.48712 -2.04062 0
M  V30 4308 C 409.941 -1.72072 -2.466 0
M  V30 4309 C 411.489 -1.73681 -2.60392 0
M  V30 4310 C 411.964 -2.73601 -3.67296 0
M  V30 4311 N 413.455 -2.7223 -3.7476 0
M  V30 4312 C 414.19 -3.46206 -4.57087 0
M  V30 4313 N 413.686 -4.29802 -5.43362 0
M  V30 4314 N 415.479 -3.34886 -4.51451 0
M  V30 4315 H 407.63 -1.92028 -0.9077 0
M  V30 4316 H 409.893 -0.828487 -0.460775 0
M  V30 4317 H 409.599 -2.74231 -2.20206 0
M  V30 4318 H 409.473 -1.51818 -3.45299 0
M  V30 4319 H 411.86 -0.722173 -2.86127 0
M  V30 4320 H 411.941 -1.98005 -1.61949 0
M  V30 4321 H 411.585 -3.75217 -3.42307 0
M  V30 4322 H 411.515 -2.46545 -4.65321 0
M  V30 4323 H 414.006 -2.11576 -3.1312 0
M  V30 4324 H 414.319 -4.83061 -6.03218 0
M  V30 4325 H 412.664 -4.33887 -5.42925 0
M  V30 4326 H 415.855 -2.69015 -3.83078 0
M  V30 4327 H 416.028 -3.92796 -5.15379 0
M  V30 4328 N 409.434 1.37368 -0.772513 0
M  V30 4329 C 410.367 2.27956 -0.105593 0
M  V30 4330 C 411.345 1.46362 0.708295 0
M  V30 4331 O 412.529 1.75695 0.682895 0
M  V30 4332 C 409.656 3.27687 0.856686 0
M  V30 4333 C 408.702 4.26312 0.1267 0
M  V30 4334 S 409.535 5.22206 -1.1858 0
M  V30 4335 C 410.691 6.25488 -0.227081 0
M  V30 4336 H 410.924 2.84171 -0.87372 0
M  V30 4337 H 408.457 1.43654 -0.565939 0
M  V30 4338 H 410.415 3.85653 1.40648 0
M  V30 4339 H 409.076 2.70417 1.59793 0
M  V30 4340 H 408.269 4.96674 0.856212 0
M  V30 4341 H 407.871 3.72339 -0.352117 0
M  V30 4342 H 410.163 6.74836 0.600231 0
M  V30 4343 H 411.106 7.02371 -0.898899 0
M  V30 4344 H 411.514 5.64267 0.162053 0
M  V30 4345 N 410.912 0.523116 1.48665 0
M  V30 4346 C 412.142 -0.00961724 2.06598 0
M  V30 4347 C 412.55 -1.29333 1.38093 0
M  V30 4348 O 411.893 -1.77846 0.46007 0
M  V30 4349 C 411.955 -0.311135 3.58151 0
M  V30 4350 C 411.619 0.878092 4.48485 0
M  V30 4351 C 412.616 1.77464 4.88674 0
M  V30 4352 C 410.301 1.08315 4.90483 0
M  V30 4353 C 412.295 2.86021 5.69623 0
M  V30 4354 C 409.982 2.17187 5.71203 0
M  V30 4355 C 410.98 3.05873 6.10681 0
M  V30 4356 O 410.668 4.12862 6.89783 0
M  V30 4357 H 410.4 0.0272658 0.67545 0
M  V30 4358 H 412.954 0.726156 1.92136 0
M  V30 4359 H 411.184 -1.10079 3.70701 0
M  V30 4360 H 412.873 -0.785125 3.98234 0
M  V30 4361 H 413.639 1.62813 4.56855 0
M  V30 4362 H 409.518 0.402149 4.59243 0
M  V30 4363 H 413.062 3.55272 6.00356 0
M  V30 4364 H 408.959 2.31824 6.02435 0
M  V30 4365 H 409.727 4.10487 7.08126 0
M  V30 4366 N 412.39 -1.55475 0.257931 0
M  V30 4367 C 413.615 -2.04064 -0.370488 0
M  V30 4368 C 414.04 -1.13565 -1.49948 0
M  V30 4369 O 413.398 -0.130781 -1.80828 0
M  V30 4370 C 413.446 -3.50554 -0.845237 0
M  V30 4371 O 412.55 -3.63173 -1.95394 0
M  V30 4372 H 411.891 -0.659257 -0.0792243 0
M  V30 4373 H 414.421 -2.00903 0.387212 0
M  V30 4374 H 414.431 -3.91588 -1.14555 0
M  V30 4375 H 413.106 -4.15896 -0.0191259 0
M  V30 4376 H 411.683 -3.34039 -1.65748 0
M  V30 4377 N 413.868 0.0150385 -1.57593 0
M  V30 4378 C 415.279 0.559832 -1.78109 0
M  V30 4379 C 415.63 1.74814 -0.890756 0
M  V30 4380 O 414.755 2.16216 -0.0892482 0
M  V30 4381 C 415.35 1.02238 -3.23006 0
M  V30 4382 C 413.909 1.51258 -3.44671 0
M  V30 4383 C 413.056 0.456955 -2.73509 0
M  V30 4384 H 416.007 -0.211169 -1.57289 0
M  V30 4385 H 416.028 1.88912 -3.30292 0
M  V30 4386 H 415.54 0.157302 -3.87781 0
M  V30 4387 H 413.641 2.39905 -2.8509 0
M  V30 4388 H 413.754 1.55042 -4.5332 0
M  V30 4389 H 412.118 0.915196 -2.37689 0
M  V30 4390 H 412.901 -0.398896 -3.40975 0
M  V30 4391 N 415.346 1.54954 0.287554 0
M  V30 4392 C 416.574 1.78881 1.03967 0
M  V30 4393 C 416.989 0.554894 1.80462 0
M  V30 4394 O 416.346 -0.475676 1.76192 0
M  V30 4395 C 416.397 3.00488 2.0097 0
M  V30 4396 O 416.118 4.19113 1.27577 0
M  V30 4397 C 417.619 3.36907 2.88112 0
M  V30 4398 H 414.839 0.596259 0.307761 0
M  V30 4399 H 417.383 2.01937 0.322749 0
M  V30 4400 H 415.538 2.79601 2.68145 0
M  V30 4401 H 415.952 4.87765 1.92835 0
M  V30 4402 H 417.426 4.25205 3.52001 0
M  V30 4403 H 417.903 2.55659 3.57121 0
M  V30 4404 H 418.509 3.60001 2.26449 0
M  V30 4405 N 416.824 -0.551391 1.4764 0
M  V30 4406 C 418.049 -1.33837 1.58437 0
M  V30 4407 C 418.474 -1.866 0.237063 0
M  V30 4408 O 417.832 -1.6328 -0.787994 0
M  V30 4409 C 417.88 -2.48014 2.61766 0
M  V30 4410 O 416.984 -3.50419 2.1744 0
M  V30 4411 H 416.325 -0.397299 0.532024 0
M  V30 4412 H 418.855 -0.665759 1.93465 0
M  V30 4413 H 418.865 -2.94503 2.82369 0
M  V30 4414 H 417.54 -2.08969 3.5959 0
M  V30 4415 H 416.117 -3.10196 2.06961 0
M  V30 4416 N 418.302 -1.35869 -0.798587 0
M  V30 4417 C 419.551 -1.28921 -1.5512 0
M  V30 4418 C 419.864 0.13208 -1.95154 0
M  V30 4419 O 421.07 0.323879 -2.69561 0
M  V30 4420 C 419.526 -2.26141 -2.79979 0
M  V30 4421 C 419.134 -3.73658 -2.47151 0
M  V30 4422 C 420.878 -2.28152 -3.57976 0
M  V30 4423 C 418.785 -4.62679 -3.6835 0
M  V30 4424 H 417.715 -0.479031 -0.582276 0
M  V30 4425 H 420.366 -1.61179 -0.877125 0
M  V30 4426 H 418.748 -1.86865 -3.49138 0
M  V30 4427 H 419.922 -4.21616 -1.85947 0
M  V30 4428 H 418.237 -3.74333 -1.82383 0
M  V30 4429 H 420.834 -2.91875 -4.4801 0
M  V30 4430 H 421.177 -1.28748 -3.95891 0
M  V30 4431 H 421.71 -2.65998 -2.95787 0
M  V30 4432 H 418.449 -5.63111 -3.35538 0
M  V30 4433 H 417.969 -4.19442 -4.28752 0
M  V30 4434 H 419.648 -4.78498 -4.35487 0
M  V30 4435 N 419.78 1.02168 -1.19998 0
M  V30 4436 C 420.71 2.12488 -0.96804 0
M  V30 4437 C 421.691 1.69799 0.101185 0
M  V30 4438 O 422.876 1.94121 -0.0552993 0
M  V30 4439 C 420.006 3.43479 -0.513776 0
M  V30 4440 C 418.96 3.99884 -1.52566 0
M  V30 4441 C 418.286 5.26582 -0.928214 0
M  V30 4442 C 419.586 4.33861 -2.90795 0
M  V30 4443 H 421.28 2.32149 -1.89069 0
M  V30 4444 H 418.826 1.11564 -0.910468 0
M  V30 4445 H 420.779 4.20036 -0.338774 0
M  V30 4446 H 419.503 3.23561 0.444493 0
M  V30 4447 H 418.162 3.25429 -1.68794 0
M  V30 4448 H 417.81 5.02986 0.0378289 0
M  V30 4449 H 417.51 5.65284 -1.60397 0
M  V30 4450 H 419.034 6.05799 -0.764167 0
M  V30 4451 H 420.448 5.01327 -2.78109 0
M  V30 4452 H 418.845 4.83664 -3.55231 0
M  V30 4453 H 419.915 3.42848 -3.42904 0
M  V30 4454 N 421.258 1.00505 1.21394 0
M  V30 4455 C 422.535 0.603277 1.86064 0
M  V30 4456 C 422.915 -0.919095 1.90042 0
M  V30 4457 O 422.263 -1.80607 1.39977 0
M  V30 4458 C 422.473 1.23772 3.26315 0
M  V30 4459 C 423.821 1.34586 4.02705 0
M  V30 4460 O 424.845 1.19304 3.35626 0
M  V30 4461 O 423.704 1.59169 5.22807 0
M  V30 4462 H 420.798 0.206634 0.800769 0
M  V30 4463 H 423.344 1.1017 1.29076 0
M  V30 4464 H 422.116 2.27848 3.18121 0
M  V30 4465 H 421.739 0.725648 3.90922 0
M  V30 4466 N 422.737 -1.36956 0.779787 0
M  V30 4467 C 423.986 -1.98738 0.344405 0
M  V30 4468 C 424.299 -1.62596 -1.08728 0
M  V30 4469 O 425.505 -2.1754 -1.62445 0
M  V30 4470 C 423.961 -3.5544 0.564829 0
M  V30 4471 C 423.569 -4.00514 2.0073 0
M  V30 4472 C 425.313 -4.24059 0.193471 0
M  V30 4473 C 423.22 -5.49957 2.17489 0
M  V30 4474 H 422.15 -0.743561 0.12503 0
M  V30 4475 H 424.801 -1.56381 0.960057 0
M  V30 4476 H 423.183 -3.95817 -0.120397 0
M  V30 4477 H 424.357 -3.71362 2.72814 0
M  V30 4478 H 422.672 -3.44703 2.336 0
M  V30 4479 H 425.269 -5.33874 0.297097 0
M  V30 4480 H 425.612 -4.07378 -0.857263 0
M  V30 4481 H 426.145 -3.89012 0.831556 0
M  V30 4482 H 422.884 -5.71574 3.2091 0
M  V30 4483 H 422.404 -5.80767 1.49899 0
M  V30 4484 H 424.083 -6.16043 1.97738 0
M  V30 4485 N 424.215 -0.530993 -1.48385 0
M  V30 4486 C 425.631 -0.188919 -1.58478 0
M  V30 4487 C 425.831 1.30786 -1.53288 0
M  V30 4488 O 424.887 2.08619 -1.42248 0
M  V30 4489 C 426.2 -0.792343 -2.90073 0
M  V30 4490 C 427.748 -0.76117 -3.03604 0
M  V30 4491 C 428.223 -1.34319 -4.37861 0
M  V30 4492 N 429.714 -1.3052 -4.44431 0
M  V30 4493 C 430.449 -1.72543 -5.46824 0
M  V30 4494 N 429.945 -2.22299 -6.56167 0
M  V30 4495 N 431.738 -1.63773 -5.37712 0
M  V30 4496 H 423.889 -1.50377 -1.50002 0
M  V30 4497 H 426.152 -0.625559 -0.712306 0
M  V30 4498 H 425.858 -1.84323 -2.99529 0
M  V30 4499 H 425.732 -0.270026 -3.76232 0
M  V30 4500 H 428.119 0.280957 -2.93759 0
M  V30 4501 H 428.2 -1.32097 -2.19053 0
M  V30 4502 H 427.844 -2.38425 -4.4846 0
M  V30 4503 H 427.774 -0.759064 -5.21101 0
M  V30 4504 H 430.265 -0.940973 -3.65997 0
M  V30 4505 H 430.578 -2.52356 -7.30436 0
M  V30 4506 H 428.923 -2.26293 -6.57127 0
M  V30 4507 H 432.114 -1.24698 -4.51185 0
M  V30 4508 H 432.287 -1.96844 -6.17379 0
M  V30 4509 N 425.693 1.55336 -0.266172 0
M  V30 4510 C 426.625 2.19544 0.658247 0
M  V30 4511 C 427.638 1.17746 1.12427 0
M  V30 4512 O 428.827 1.44517 1.04772 0
M  V30 4513 C 425.927 2.80032 1.9088 0
M  V30 4514 C 425.1 4.07436 1.59106 0
M  V30 4515 C 424.159 4.52056 2.69317 0
M  V30 4516 O 423.185 5.18023 2.35883 0
M  V30 4517 N 424.387 4.21448 3.99201 0
M  V30 4518 H 427.152 2.99503 0.108754 0
M  V30 4519 H 424.713 1.61667 -0.0869059 0
M  V30 4520 H 426.705 3.06831 2.63888 0
M  V30 4521 H 425.275 2.04119 2.36758 0
M  V30 4522 H 424.495 3.88021 0.695243 0
M  V30 4523 H 425.783 4.90462 1.35367 0
M  V30 4524 H 425.181 3.68528 4.29189 0
M  V30 4525 H 423.738 4.53039 4.68614 0
M  V30 4526 N 427.171 -0.0066808 1.57599 0
M  V30 4527 C 428.419 -0.691552 1.899 0
M  V30 4528 C 428.74 -1.74682 0.866672 0
M  V30 4529 O 428.01 -1.95661 -0.0968189 0
M  V30 4530 H 426.59 -0.258416 0.700878 0
M  V30 4531 H 429.252 0.0326655 1.94873 0
M  V30 4532 H 428.348 -1.16702 2.8946 0
M  V30 4533 N 428.649 -1.55105 -0.279332 0
M  V30 4534 C 430.06 -1.66186 -0.850832 0
M  V30 4535 C 430.411 -0.584707 -1.87285 0
M  V30 4536 O 429.536 0.274919 -2.14647 0
M  V30 4537 C 430.131 -3.01264 -1.55001 0
M  V30 4538 C 428.69 -3.14394 -2.06963 0
M  V30 4539 C 427.837 -2.61959 -0.909536 0
M  V30 4540 H 430.788 -1.58602 -0.0558235 0
M  V30 4541 H 430.809 -2.93899 -2.41669 0
M  V30 4542 H 430.321 -3.7964 -0.805931 0
M  V30 4543 H 428.422 -2.4078 -2.84352 0
M  V30 4544 H 428.535 -4.20867 -2.28928 0
M  V30 4545 H 426.899 -2.18957 -1.30116 0
M  V30 4546 H 427.682 -3.42833 -0.179062 0
M  V30 4547 N 430.127 0.543554 -1.4793 0
M  V30 4548 C 431.074 1.64942 -1.6144 0
M  V30 4549 C 432.044 1.59692 -0.456903 0
M  V30 4550 O 433.229 1.78321 -0.678688 0
M  V30 4551 C 430.369 3.03238 -1.64744 0
M  V30 4552 C 429.482 3.18823 -2.91506 0
M  V30 4553 C 428.617 4.47599 -2.86057 0
M  V30 4554 C 427.656 4.56664 -4.07584 0
M  V30 4555 N 426.793 5.76811 -4.00292 0
M  V30 4556 H 431.633 1.52733 -2.55884 0
M  V30 4557 H 429.17 0.7438 -1.2691 0
M  V30 4558 H 431.128 3.83339 -1.64641 0
M  V30 4559 H 429.758 3.1425 -0.738017 0
M  V30 4560 H 428.81 2.32064 -3.01414 0
M  V30 4561 H 430.122 3.21384 -3.81463 0
M  V30 4562 H 429.276 5.35975 -2.84281 0
M  V30 4563 H 428.015 4.47538 -1.93807 0
M  V30 4564 H 427.02 3.66697 -4.09651 0
M  V30 4565 H 428.245 4.58474 -5.00978 0
M  V30 4566 H 426.191 5.77673 -3.10853 0
M  V30 4567 H 426.108 5.80808 -4.8394 0
M  V30 4568 H 427.376 6.67512 -4.02553 0
M  V30 4569 N 431.605 1.3629 0.791371 0
M  V30 4570 C 432.515 1.32606 1.93527 0
M  V30 4571 C 433.531 0.228541 1.72493 0
M  V30 4572 O 434.707 0.460571 1.96063 0
M  V30 4573 C 431.772 1.11271 3.28359 0
M  V30 4574 C 430.833 2.3048 3.62185 0
M  V30 4575 C 430.066 2.10154 4.90583 0
M  V30 4576 O 430.289 1.07572 5.60165 0
M  V30 4577 O 429.223 2.97884 5.23019 0
M  V30 4578 H 433.049 2.28909 1.99585 0
M  V30 4579 H 430.634 1.16818 0.931344 0
M  V30 4580 H 432.516 1.01283 4.09047 0
M  V30 4581 H 431.191 0.180292 3.23198 0
M  V30 4582 H 430.098 2.46036 2.81811 0
M  V30 4583 H 431.431 3.22221 3.72068 0
M  V30 4584 N 433.083 -1.0153 1.20538 0
M  V30 4585 C 434.494 -1.56598 1.01657 0
M  V30 4586 C 434.845 -1.91505 -0.426668 0
M  V30 4587 O 433.97 -1.72375 -1.30827 0
M  V30 4588 C 434.565 -2.84542 1.83905 0
M  V30 4589 C 433.124 -3.36133 1.69386 0
M  V30 4590 C 432.271 -2.09427 1.81757 0
M  V30 4591 H 435.222 -0.838974 1.34711 0
M  V30 4592 H 435.243 -3.56004 1.34319 0
M  V30 4593 H 434.755 -2.59105 2.8894 0
M  V30 4594 H 432.856 -3.66528 0.669933 0
M  V30 4595 H 432.969 -4.08248 2.50739 0
M  V30 4596 H 431.333 -2.21941 1.24957 0
M  V30 4597 H 432.116 -1.86414 2.88279 0
M  V30 4598 N 434.561 -1.01147 -1.20859 0
M  V30 4599 C 435.808 -0.697865 -1.90095 0
M  V30 4600 C 436.136 0.772014 -1.78522 0
M  V30 4601 O 435.391 1.57595 -1.16027 0
M  V30 4602 C 435.69 -1.0727 -3.40922 0
M  V30 4603 C 435.356 -2.53792 -3.72693 0
M  V30 4604 C 434.018 -2.93829 -3.81075 0
M  V30 4605 C 436.37 -3.48674 -3.87397 0
M  V30 4606 C 433.698 -4.27696 -4.01613 0
M  V30 4607 C 436.05 -4.82223 -4.09444 0
M  V30 4608 C 434.714 -5.21973 -4.16054 0
M  V30 4609 H 433.984 -0.255367 -0.695607 0
M  V30 4610 H 436.631 -1.27111 -1.43231 0
M  V30 4611 H 434.936 -0.417799 -3.89566 0
M  V30 4612 H 436.633 -0.807818 -3.92779 0
M  V30 4613 H 433.223 -2.21768 -3.66765 0
M  V30 4614 H 437.407 -3.18904 -3.80281 0
M  V30 4615 H 432.663 -4.58055 -4.04964 0
M  V30 4616 H 436.837 -5.55672 -4.19763 0
M  V30 4617 H 434.464 -6.25717 -4.31721 0
M  V30 4618 N 436.039 1.36541 -0.78704 0
M  V30 4619 C 437.455 1.52571 -0.46844 0
M  V30 4620 C 437.655 1.7415 1.01361 0
M  V30 4621 O 436.711 1.77163 1.79915 0
M  V30 4622 C 438.024 2.71299 -1.29682 0
M  V30 4623 C 439.572 2.85169 -1.29027 0
M  V30 4624 C 440.047 4.06898 -2.10233 0
M  V30 4625 N 441.538 4.1404 -2.07666 0
M  V30 4626 C 442.273 5.07301 -2.67271 0
M  V30 4627 N 441.769 6.06021 -3.35724 0
M  V30 4628 N 443.562 4.99898 -2.57018 0
M  V30 4629 H 435.713 1.20788 -1.74711 0
M  V30 4630 H 437.976 0.589364 -0.742532 0
M  V30 4631 H 437.682 2.61868 -2.34773 0
M  V30 4632 H 437.556 3.6539 -0.936479 0
M  V30 4633 H 439.943 2.94062 -0.247284 0
M  V30 4634 H 440.024 1.91992 -1.69035 0
M  V30 4635 H 439.668 3.98766 -3.1456 0
M  V30 4636 H 439.598 4.99218 -1.67597 0
M  V30 4637 H 442.089 3.43357 -1.57843 0
M  V30 4638 H 442.402 6.73741 -3.78541 0
M  V30 4639 H 440.747 6.06253 -3.39826 0
M  V30 4640 H 443.938 4.21724 -2.03142 0
M  V30 4641 H 444.111 5.72392 -3.03761 0
M  V30 4642 N 437.518 0.538854 1.48102 0
M  V30 4643 C 438.795 -0.0568108 1.95517 0
M  V30 4644 C 439.175 -1.50408 1.48124 0
M  V30 4645 O 438.523 -2.17133 0.711727 0
M  V30 4646 C 438.733 0.0696262 3.48931 0
M  V30 4647 C 440.081 -0.0851202 4.24515 0
M  V30 4648 O 441.105 -0.0037347 3.562 0
M  V30 4649 O 439.964 -0.257025 5.45895 0
M  V30 4650 H 437.058 -0.0743695 0.823649 0
M  V30 4651 H 439.604 0.604081 1.58584 0
M  V30 4652 H 438.376 1.07744 3.76174 0
M  V30 4653 H 437.999 -0.629714 3.92582 0
M  V30 4654 N 438.996 -1.55193 0.274407 0
M  V30 4655 C 440.226 -2.03692 -0.345442 0
M  V30 4656 C 440.634 -1.15224 -1.50067 0
M  V30 4657 O 439.977 -0.164749 -1.8296 0
M  V30 4658 C 440.039 -3.48325 -0.88939 0
M  V30 4659 C 439.703 -4.56794 0.137115 0
M  V30 4660 C 440.7 -5.11028 0.956378 0
M  V30 4661 C 438.385 -5.01568 0.27115 0
M  V30 4662 C 440.379 -6.08552 1.89587 0
M  V30 4663 C 438.066 -5.98918 1.21412 0
M  V30 4664 C 439.064 -6.52291 2.02498 0
M  V30 4665 O 438.752 -7.47738 2.952 0
M  V30 4666 H 438.484 -0.670893 -0.0829332 0
M  V30 4667 H 441.038 -2.01387 0.404056 0
M  V30 4668 H 439.268 -3.47867 -1.68895 0
M  V30 4669 H 440.957 -3.80167 -1.42225 0
M  V30 4670 H 441.723 -4.7725 0.863559 0
M  V30 4671 H 437.602 -4.5967 -0.349987 0
M  V30 4672 H 441.146 -6.50137 2.52918 0
M  V30 4673 H 437.043 -6.32114 1.30776 0
M  V30 4674 H 437.811 -7.65451 2.89874 0
M  V30 4675 N 440.474 -0.00167713 -1.576 0
M  V30 4676 C 441.72 0.683832 -1.90923 0
M  V30 4677 C 442.053 1.7333 -0.875799 0
M  V30 4678 O 441.328 1.94215 0.10525 0
M  V30 4679 C 441.611 1.32543 -3.3482 0
M  V30 4680 C 441.464 0.287387 -4.48881 0
M  V30 4681 C 442.783 2.25114 -3.78169 0
M  V30 4682 H 439.902 0.247125 -0.694333 0
M  V30 4683 H 442.544 -0.0533149 -1.89925 0
M  V30 4684 H 440.694 1.95372 -3.35801 0
M  V30 4685 H 442.366 -0.341346 -4.60035 0
M  V30 4686 H 440.609 -0.39017 -4.32042 0
M  V30 4687 H 441.28 0.775393 -5.46527 0
M  V30 4688 H 443.756 1.723 -3.7875 0
M  V30 4689 H 442.632 2.66971 -4.79602 0
M  V30 4690 H 442.893 3.13092 -3.12131 0
M  V30 4691 N 441.952 1.55251 0.271103 0
M  V30 4692 C 443.229 1.66664 1.02384 0
M  V30 4693 C 443.609 0.534363 2.04225 0
M  V30 4694 O 442.957 -0.465337 2.23712 0
M  V30 4695 C 443.167 3.05961 1.67895 0
M  V30 4696 C 444.515 3.63772 2.18986 0
M  V30 4697 O 445.539 3.08606 1.77878 0
M  V30 4698 O 444.398 4.60429 2.94393 0
M  V30 4699 H 441.492 0.676957 0.475035 0
M  V30 4700 H 444.038 1.67589 0.26681 0
M  V30 4701 H 442.81 3.79815 0.941071 0
M  V30 4702 H 442.433 3.08943 2.5028 0
M  V30 4703 N 443.43 -0.535701 1.48216 0
M  V30 4704 C 444.846 -0.863701 1.3421 0
M  V30 4705 C 445.046 -1.98458 0.34879 0
M  V30 4706 O 444.102 -2.51432 -0.23204 0
M  V30 4707 C 445.415 -1.23662 2.74095 0
M  V30 4708 C 446.963 -1.34683 2.82541 0
M  V30 4709 C 447.438 -1.75322 4.23115 0
M  V30 4710 N 448.929 -1.82434 4.2576 0
M  V30 4711 C 449.664 -2.15252 5.31464 0
M  V30 4712 N 449.16 -2.46533 6.47452 0
M  V30 4713 N 450.953 -2.16209 5.18855 0
M  V30 4714 H 443.104 0.203965 2.11418 0
M  V30 4715 H 445.367 0.0286033 0.947568 0
M  V30 4716 H 445.073 -0.486674 3.48316 0
M  V30 4717 H 444.947 -2.18805 3.07253 0
M  V30 4718 H 447.334 -2.08756 2.08579 0
M  V30 4719 H 447.415 -0.376756 2.5301 0
M  V30 4720 H 447.059 -1.01812 4.97591 0
M  V30 4721 H 446.989 -2.7337 4.50085 0
M  V30 4722 H 449.48 -1.6056 3.42095 0
M  V30 4723 H 449.793 -2.70662 7.23852 0
M  V30 4724 H 448.138 -2.44065 6.50736 0
M  V30 4725 H 451.329 -1.91224 4.2726 0
M  V30 4726 H 451.502 -2.41453 6.01335 0
M  V30 4727 N 444.908 -1.36708 -0.784132 0
M  V30 4728 C 446.155 -1.31231 -1.54222 0
M  V30 4729 C 446.483 0.106864 -1.94206 0
M  V30 4730 O 445.738 1.07734 -1.63376 0
M  V30 4731 C 446.037 -2.18571 -2.82774 0
M  V30 4732 C 445.703 -3.67039 -2.61903 0
M  V30 4733 C 444.365 -4.07503 -2.55919 0
M  V30 4734 C 446.717 -4.61149 -2.4288 0
M  V30 4735 C 444.045 -5.40211 -2.28886 0
M  V30 4736 C 446.397 -5.94081 -2.17373 0
M  V30 4737 C 445.061 -6.33664 -2.09825 0
M  V30 4738 H 444.331 -0.48021 -0.56434 0
M  V30 4739 H 446.978 -1.68807 -0.904233 0
M  V30 4740 H 445.283 -1.73949 -3.51068 0
M  V30 4741 H 446.98 -2.11655 -3.40592 0
M  V30 4742 H 443.57 -3.34941 -2.67418 0
M  V30 4743 H 447.754 -4.30756 -2.46501 0
M  V30 4744 H 443.01 -5.69855 -2.21529 0
M  V30 4745 H 447.184 -6.66566 -2.01649 0
M  V30 4746 H 444.811 -7.36423 -1.88641 0
M  V30 4747 N 446.386 1.0089 -1.21074 0
M  V30 4748 C 447.616 1.77933 -1.04993 0
M  V30 4749 C 448.024 1.84847 0.403495 0
M  V30 4750 O 447.367 1.30606 1.29181 0
M  V30 4751 C 447.429 3.23541 -1.56722 0
M  V30 4752 C 447.093 3.40214 -3.05129 0
M  V30 4753 C 448.09 3.2881 -4.02716 0
M  V30 4754 C 445.775 3.65781 -3.44252 0
M  V30 4755 C 447.769 3.42732 -5.37414 0
M  V30 4756 C 445.456 3.79346 -4.79103 0
M  V30 4757 C 446.454 3.67827 -5.75493 0
M  V30 4758 O 446.142 3.80965 -7.07899 0
M  V30 4759 H 445.874 0.566157 -0.369381 0
M  V30 4760 H 448.428 1.27826 -1.60779 0
M  V30 4761 H 446.658 3.74766 -0.953285 0
M  V30 4762 H 448.347 3.82245 -1.36543 0
M  V30 4763 H 449.113 3.08986 -3.73835 0
M  V30 4764 H 444.992 3.73831 -2.69762 0
M  V30 4765 H 448.536 3.33658 -6.12632 0
M  V30 4766 H 444.433 3.98672 -5.07672 0
M  V30 4767 H 445.201 3.97937 -7.15254 0
M  V30 4768 N 447.864 1.01787 1.20321 0
M  V30 4769 C 448.811 0.589197 2.23153 0
M  V30 4770 C 449.781 -0.391367 1.61423 0
M  V30 4771 O 450.966 -0.290518 1.88575 0
M  V30 4772 C 448.106 -0.0650747 3.45039 0
M  V30 4773 C 447.219 0.960207 4.21194 0
M  V30 4774 C 446.354 0.276854 5.30478 0
M  V30 4775 C 445.393 1.2888 5.98378 0
M  V30 4776 N 444.53 0.632031 6.99249 0
M  V30 4777 H 449.37 1.47071 2.59179 0
M  V30 4778 H 446.907 0.736192 1.27352 0
M  V30 4779 H 448.865 -0.461552 4.14639 0
M  V30 4780 H 447.495 -0.910233 3.09701 0
M  V30 4781 H 446.547 1.47484 3.50646 0
M  V30 4782 H 447.859 1.72977 4.67847 0
M  V30 4783 H 447.013 -0.175056 6.06447 0
M  V30 4784 H 445.752 -0.525004 4.84866 0
M  V30 4785 H 444.757 1.75109 5.21169 0
M  V30 4786 H 445.982 2.09196 6.46076 0
M  V30 4787 H 443.928 -0.149935 6.55829 0
M  V30 4788 H 443.845 1.33964 7.44036 0
M  V30 4789 H 445.113 0.203755 7.79234 0
M  V30 4790 N 449.342 -1.36122 0.79427 0
M  V30 4791 C 450.57 -2.03362 0.380989 0
M  V30 4792 C 450.985 -1.59881 -1.00416 0
M  V30 4793 O 450.342 -0.790515 -1.6449 0
M  V30 4794 C 450.393 -3.58804 0.440649 0
M  V30 4795 O 450.114 -4.007 1.77118 0
M  V30 4796 C 451.615 -4.43296 0.0186117 0
M  V30 4797 H 448.835 -0.652526 0.156367 0
M  V30 4798 H 451.379 -1.73998 1.07447 0
M  V30 4799 H 449.534 -3.8686 -0.204458 0
M  V30 4800 H 449.948 -4.95309 1.72538 0
M  V30 4801 H 451.422 -5.51887 0.111488 0
M  V30 4802 H 451.899 -4.2684 -1.03461 0
M  V30 4803 H 452.505 -4.20512 0.636395 0
M  V30 4804 N 450.82 -0.546701 -1.47814 0
M  V30 4805 C 451.75 0.195317 -2.32682 0
M  V30 4806 C 452.731 0.918981 -1.43139 0
M  V30 4807 O 453.916 0.901501 -1.72008 0
M  V30 4808 C 451.046 1.23237 -3.247 0
M  V30 4809 C 450 0.625818 -4.234 0
M  V30 4810 C 449.326 1.76674 -5.04669 0
M  V30 4811 C 450.626 -0.413515 -5.2066 0
M  V30 4812 H 452.32 -0.513184 -2.94969 0
M  V30 4813 H 449.866 -0.248241 -1.41844 0
M  V30 4814 H 451.819 1.75955 -3.82907 0
M  V30 4815 H 450.543 1.97067 -2.60446 0
M  V30 4816 H 449.202 0.120023 -3.66403 0
M  V30 4817 H 448.85 2.49383 -4.36826 0
M  V30 4818 H 448.55 1.36673 -5.71484 0
M  V30 4819 H 450.074 2.29738 -5.65732 0
M  V30 4820 H 451.488 0.0272042 -5.73294 0
M  V30 4821 H 449.885 -0.731825 -5.95621 0
M  V30 4822 H 450.955 -1.31325 -4.66778 0
M  V30 4823 N 452.299 1.55045 -0.282633 0
M  V30 4824 C 453.715 1.59441 0.0712997 0
M  V30 4825 C 453.915 1.2998 1.53972 0
M  V30 4826 O 452.971 1.06431 2.28973 0
M  V30 4827 C 454.284 2.99097 -0.310104 0
M  V30 4828 C 455.832 3.1194 -0.257343 0
M  V30 4829 C 456.307 4.53875 -0.613297 0
M  V30 4830 N 457.798 4.5974 -0.565134 0
M  V30 4831 C 458.533 5.67603 -0.81326 0
M  V30 4832 N 458.029 6.83582 -1.1264 0
M  V30 4833 N 459.822 5.57187 -0.741553 0
M  V30 4834 H 451.973 1.72458 -1.23984 0
M  V30 4835 H 454.236 0.804549 -0.501403 0
M  V30 4836 H 453.942 3.25516 -1.33163 0
M  V30 4837 H 453.816 3.75616 0.345366 0
M  V30 4838 H 456.203 2.85281 0.754905 0
M  V30 4839 H 456.284 2.37618 -0.947178 0
M  V30 4840 H 455.928 4.81261 -1.62327 0
M  V30 4841 H 455.858 5.26508 0.09841 0
M  V30 4842 H 458.349 3.76427 -0.333294 0
M  V30 4843 H 458.662 7.6175 -1.30219 0
M  V30 4844 H 457.007 6.85179 -1.16425 0
M  V30 4845 H 460.198 4.65457 -0.496705 0
M  V30 4846 H 460.371 6.41171 -0.938306 0
M  V30 4847 N 453.777 0.010035 1.57597 0
M  V30 4848 C 454.74 -0.963029 2.07986 0
M  V30 4849 C 455.74 -1.26619 0.991173 0
M  V30 4850 O 456.93 -1.2097 1.25347 0
M  V30 4851 C 454.062 -2.2851 2.52974 0
M  V30 4852 H 455.255 -0.526971 2.95234 0
M  V30 4853 H 452.808 -0.237639 1.54483 0
M  V30 4854 H 453.543 -2.76784 1.69 0
M  V30 4855 H 453.328 -2.07824 3.32493 0
M  V30 4856 H 454.818 -2.98294 2.9225 0
M  V30 4857 N 455.255 -1.55392 -0.262866 0
M  V30 4858 C 456.165 -1.92077 -1.34698 0
M  V30 4859 C 457.181 -0.819227 -1.53508 0
M  V30 4860 O 458.357 -1.11921 -1.67439 0
M  V30 4861 C 455.422 -2.19407 -2.68443 0
M  V30 4862 C 454.483 -3.42905 -2.58292 0
M  V30 4863 C 453.716 -3.68921 -3.85659 0
M  V30 4864 O 453.939 -2.97275 -4.8681 0
M  V30 4865 O 452.873 -4.62455 -3.85252 0
M  V30 4866 H 456.699 -2.84384 -1.06581 0
M  V30 4867 H 454.284 -1.42069 -0.462264 0
M  V30 4868 H 456.166 -2.38365 -3.47506 0
M  V30 4869 H 454.841 -1.30282 -2.96325 0
M  V30 4870 H 453.748 -3.29272 -1.7757 0
M  V30 4871 H 455.081 -4.32282 -2.35358 0
M  V30 4872 N 456.733 0.527833 -1.48498 0
M  V30 4873 C 457.665 1.6482 -1.5927 0
M  V30 4874 C 458.678 1.55659 -0.476869 0
M  V30 4875 O 459.867 1.62081 -0.747806 0
M  V30 4876 C 456.967 3.0348 -1.50842 0
M  V30 4877 C 456.14 3.381 -2.77502 0
M  V30 4878 C 455.199 4.5605 -2.62497 0
M  V30 4879 O 454.225 4.59165 -3.36387 0
M  V30 4880 N 455.427 5.54353 -1.72257 0
M  V30 4881 H 458.192 1.56015 -2.55889 0
M  V30 4882 H 455.753 0.715152 -1.45249 0
M  V30 4883 H 457.745 3.80264 -1.38496 0
M  V30 4884 H 456.315 3.06352 -0.621887 0
M  V30 4885 H 455.535 2.50473 -3.04396 0
M  V30 4886 H 456.823 3.58017 -3.61527 0
M  V30 4887 H 456.221 5.54617 -1.11431 0
M  V30 4888 H 454.778 6.30347 -1.65849 0
M  V30 4889 N 458.211 1.37122 0.776871 0
M  V30 4890 C 459.174 1.32301 1.8716 0
M  V30 4891 C 460.174 0.228099 1.59174 0
M  V30 4892 O 461.364 0.483642 1.67352 0
M  V30 4893 C 458.496 1.054 3.24197 0
M  V30 4894 H 459.689 2.29673 1.92848 0
M  V30 4895 H 457.242 1.22077 0.97606 0
M  V30 4896 H 457.977 0.0853872 3.24188 0
M  V30 4897 H 457.762 1.84648 3.45901 0
M  V30 4898 H 459.252 1.04664 4.04271 0
M  V30 4899 N 459.689 -1.00246 1.21608 0
M  V30 4900 C 460.914 -1.78167 1.06167 0
M  V30 4901 C 461.339 -1.84138 -0.384035 0
M  V30 4902 O 460.697 -1.28683 -1.27712 0
M  V30 4903 C 460.745 -3.19786 1.66642 0
M  V30 4904 O 459.849 -4.02153 0.913613 0
M  V30 4905 H 459.19 -0.549 0.37349 0
M  V30 4906 H 461.72 -1.25994 1.61204 0
M  V30 4907 H 461.73 -3.70451 1.70969 0
M  V30 4908 H 460.405 -3.14754 2.7185 0
M  V30 4909 H 458.982 -3.60711 0.945635 0
M  V30 4910 N 461.167 -1.02423 -1.1978 0
M  V30 4911 C 462.099 -0.559152 -2.22275 0
M  V30 4912 C 463.112 0.36251 -1.58713 0
M  V30 4913 O 464.301 0.159641 -1.77785 0
M  V30 4914 C 461.401 0.205094 -3.38279 0
M  V30 4915 C 460.574 -0.720361 -4.31427 0
M  V30 4916 C 459.633 -0.00234368 -5.262 0
M  V30 4917 O 458.659 -0.627378 -5.65732 0
M  V30 4918 N 459.861 1.26996 -5.66438 0
M  V30 4919 H 462.626 -1.44064 -2.62804 0
M  V30 4920 H 460.187 -0.902692 -1.34399 0
M  V30 4921 H 462.179 0.694868 -3.9869 0
M  V30 4922 H 460.749 0.987947 -2.96578 0
M  V30 4923 H 459.969 -1.39031 -3.68869 0
M  V30 4924 H 461.257 -1.3495 -4.90577 0
M  V30 4925 H 460.655 1.79858 -5.36347 0
M  V30 4926 H 459.212 1.70432 -6.29123 0
M  V30 4927 N 462.645 1.35699 -0.801477 0
M  V30 4928 C 463.922 1.9324 -0.302937 0
M  V30 4929 C 464.302 1.73209 1.20672 0
M  V30 4930 O 463.65 1.09809 2.00385 0
M  V30 4931 C 463.86 3.41728 -0.708747 0
M  V30 4932 C 465.208 4.18868 -0.695328 0
M  V30 4933 O 466.232 3.5022 -0.649971 0
M  V30 4934 O 465.091 5.41342 -0.749081 0
M  V30 4935 H 462.185 0.82331 -0.0780367 0
M  V30 4936 H 464.731 1.44806 -0.884832 0
M  V30 4937 H 463.503 3.50015 -1.74944 0
M  V30 4938 H 463.126 3.97471 -0.101384 0
M  V30 4939 N 464.123 0.554532 1.47522 0
M  V30 4940 C 465.369 0.0295227 2.02779 0
M  V30 4941 C 465.702 -1.31582 1.42828 0
M  V30 4942 O 464.977 -1.85561 0.582872 0
M  V30 4943 C 465.26 -0.0664057 3.60039 0
M  V30 4944 C 465.113 1.30585 4.30427 0
M  V30 4945 C 466.432 -0.781162 4.33112 0
M  V30 4946 H 463.551 0.0122027 0.736899 0
M  V30 4947 H 466.193 0.716305 1.7598 0
M  V30 4948 H 464.343 -0.651307 3.83002 0
M  V30 4949 H 466.015 1.93374 4.18813 0
M  V30 4950 H 464.258 1.88125 3.90886 0
M  V30 4951 H 464.929 1.19147 5.38988 0
M  V30 4952 H 467.405 -0.284565 4.15126 0
M  V30 4953 H 466.281 -0.817237 5.42782 0
M  V30 4954 H 466.542 -1.83672 4.0214 0
M  V30 4955 N 465.601 -1.54893 0.290851 0
M  V30 4956 C 466.548 -2.23138 -0.58974 0
M  V30 4957 C 467.518 -1.21036 -1.13752 0
M  V30 4958 O 468.703 -1.49626 -1.18392 0
M  V30 4959 C 465.843 -2.96811 -1.76061 0
M  V30 4960 C 464.956 -4.13665 -1.24519 0
M  V30 4961 C 464.091 -4.74944 -2.3791 0
M  V30 4962 C 463.13 -5.83963 -1.83451 0
M  V30 4963 N 462.267 -6.39239 -2.90376 0
M  V30 4964 H 467.107 -2.98 -0.00114915 0
M  V30 4965 H 464.644 -1.47096 0.0112006 0
M  V30 4966 H 466.602 -3.37751 -2.44909 0
M  V30 4967 H 465.232 -2.24344 -2.32098 0
M  V30 4968 H 464.284 -3.77737 -0.449288 0
M  V30 4969 H 465.596 -4.92238 -0.806424 0
M  V30 4970 H 464.75 -5.18684 -3.14724 0
M  V30 4971 H 463.489 -3.95682 -2.85109 0
M  V30 4972 H 462.494 -5.39657 -1.05122 0
M  V30 4973 H 463.719 -6.65103 -1.37169 0
M  V30 4974 H 461.665 -5.62864 -3.36927 0
M  V30 4975 H 461.582 -7.13129 -2.50965 0
M  V30 4976 H 462.85 -6.87637 -3.67118 0
M  V30 4977 N 467.08 -0.0183926 -1.57589 0
M  V30 4978 C 468.028 0.985111 -2.10709 0
M  V30 4979 C 469.022 1.34397 -1.0312 0
M  V30 4980 O 470.228 1.32746 -1.21567 0
M  V30 4981 H 466.603 0.335418 -0.673052 0
M  V30 4982 H 468.574 0.511689 -2.9398 0
M  V30 4983 C 467.323 2.26202 -2.64061 0
M  V30 4984 H 466.646 1.9946 -3.4649 0
M  V30 4985 H 468.086 2.94652 -3.04887 0
M  V30 4986 C 466.545 2.98444 -1.5631 0
M  V30 4987 O 467.075 3.90142 -0.956674 0
M  V30 4988 N 465.281 2.6059 -1.28612 0
M  V30 4989 H 464.828 1.86101 -1.78112 0
M  V30 4990 H 464.786 3.09238 -0.567406 0
M  V30 4991 N 468.558 1.5553 0.254621 0
M  V30 4992 C 469.804 1.7818 0.980989 0
M  V30 4993 C 470.159 0.586059 1.83257 0
M  V30 4994 O 469.452 -0.420889 1.8692 0
M  V30 4995 C 469.646 3.03891 1.88109 0
M  V30 4996 C 469.475 4.35578 1.11812 0
M  V30 4997 C 468.245 4.98497 0.826343 0
M  V30 4998 C 470.443 5.11869 0.499486 0
M  V30 4999 N 468.425 6.13888 0.0385095 0
M  V30 5000 C 469.796 6.1981 -0.153292 0
M  V30 5001 C 471.851 4.96216 0.409175 0
M  V30 5002 C 470.554 7.13801 -0.8877 0
M  V30 5003 C 472.58 5.90578 -0.311683 0
M  V30 5004 C 471.942 6.97922 -0.953129 0
M  V30 5005 H 468.041 0.704057 0.340335 0
M  V30 5006 H 470.625 1.93025 0.254855 0
M  V30 5007 H 468.796 2.90389 2.57932 0
M  V30 5008 H 470.528 3.14869 2.54244 0
M  V30 5009 H 467.283 4.59769 1.13621 0
M  V30 5010 H 467.707 6.76129 -0.343275 0
M  V30 5011 H 472.349 4.1331 0.890765 0
M  V30 5012 H 470.067 7.96214 -1.38092 0
M  V30 5013 H 473.653 5.80544 -0.382125 0
M  V30 5014 H 472.533 7.69681 -1.50203 0
M  V30 5015 N 470.036 -0.519951 1.48776 0
M  V30 5016 C 470.969 -1.64053 1.58625 0
M  V30 5017 C 471.947 -1.5664 0.43618 0
M  V30 5018 O 473.131 -1.76969 0.649159 0
M  V30 5019 C 470.258 -3.02497 1.52359 0
M  V30 5020 C 469.304 -3.28235 2.72331 0
M  V30 5021 S 470.137 -3.13414 4.34203 0
M  V30 5022 C 471.293 -4.54287 4.30551 0
M  V30 5023 H 471.526 -1.5545 2.53422 0
M  V30 5024 H 469.059 -0.703681 1.37433 0
M  V30 5025 H 471.017 -3.82336 1.4943 0
M  V30 5026 H 469.678 -3.08531 0.588824 0
M  V30 5027 H 468.871 -4.29256 2.64113 0
M  V30 5028 H 468.473 -2.56085 2.72574 0
M  V30 5029 H 470.765 -5.46006 4.01103 0
M  V30 5030 H 471.708 -4.67558 5.31785 0
M  V30 5031 H 472.116 -4.34079 3.60881 0
M  V30 5032 N 471.514 -1.37532 -0.769588 0
M  V30 5033 C 472.742 -1.36059 -1.55871 0
M  V30 5034 C 473.157 0.053544 -1.88724 0
M  V30 5035 O 472.514 1.01591 -1.5161 0
M  V30 5036 C 472.565 -2.20107 -2.86767 0
M  V30 5037 O 472.286 -3.56009 -2.55321 0
M  V30 5038 C 473.787 -2.26636 -3.80987 0
M  V30 5039 H 471.007 -0.465967 -0.482821 0
M  V30 5040 H 473.551 -1.80901 -0.953686 0
M  V30 5041 H 471.706 -1.78768 -3.43687 0
M  V30 5042 H 472.12 -4.0009 -3.39158 0
M  V30 5043 H 473.594 -2.89763 -4.69831 0
M  V30 5044 H 474.071 -1.2754 -4.20274 0
M  V30 5045 H 474.677 -2.68296 -3.29996 0
M  V30 5046 N 472.992 0.995999 -1.22138 0
M  V30 5047 C 473.902 2.11985 -1.00496 0
M  V30 5048 C 474.918 1.7394 0.0457701 0
M  V30 5049 O 476.094 2.00868 -0.146273 0
M  V30 5050 C 473.159 3.41779 -0.582086 0
M  V30 5051 C 472.22 3.93943 -1.70608 0
M  V30 5052 C 471.453 5.17542 -1.30328 0
M  V30 5053 O 471.676 5.70114 -0.180743 0
M  V30 5054 O 470.61 5.63382 -2.11861 0
M  V30 5055 H 474.436 2.33123 -1.94647 0
M  V30 5056 H 472.021 1.10358 -1.00705 0
M  V30 5057 H 473.903 4.1989 -0.356467 0
M  V30 5058 H 472.578 3.22007 0.330592 0
M  V30 5059 H 471.485 3.17019 -1.98619 0
M  V30 5060 H 472.818 4.18141 -2.59651 0
M  V30 5061 N 474.47 1.03057 1.19235 0
M  V30 5062 C 475.698 0.747697 1.92917 0
M  V30 5063 C 476.113 -0.69372 1.75593 0
M  V30 5064 O 475.47 -1.47191 1.07894 0
M  V30 5065 C 475.521 1.09159 3.44625 0
M  V30 5066 O 475.242 2.47641 3.61394 0
M  V30 5067 C 476.743 0.831763 4.35427 0
M  V30 5068 H 473.963 0.273453 0.612751 0
M  V30 5069 H 476.507 1.37552 1.51327 0
M  V30 5070 H 474.662 0.508919 3.84043 0
M  V30 5071 H 475.076 2.60499 4.55237 0
M  V30 5072 H 476.55 1.12233 5.4047 0
M  V30 5073 H 477.027 -0.233769 4.38577 0
M  V30 5074 H 477.633 1.39725 4.01693 0
M  V30 5075 N 475.948 -1.35272 0.808662 0
M  V30 5076 C 476.878 -2.32315 0.234981 0
M  V30 5077 C 477.859 -1.57572 -0.64071 0
M  V30 5078 O 479.044 -1.8563 -0.570551 0
M  V30 5079 C 476.174 -3.41801 -0.615601 0
M  V30 5080 C 475.128 -4.27694 0.161767 0
M  V30 5081 C 474.454 -5.28519 -0.810649 0
M  V30 5082 C 475.754 -5.04231 1.36193 0
M  V30 5083 H 477.448 -2.80543 1.04575 0
M  V30 5084 H 474.994 -1.3488 0.504315 0
M  V30 5085 H 476.947 -4.08693 -1.02702 0
M  V30 5086 H 475.671 -2.92186 -1.45928 0
M  V30 5087 H 474.33 -3.62384 0.554382 0
M  V30 5088 H 473.978 -4.75171 -1.64988 0
M  V30 5089 H 473.678 -5.8686 -0.294822 0
M  V30 5090 H 475.202 -5.98283 -1.22023 0
M  V30 5091 H 476.616 -5.64058 1.02528 0
M  V30 5092 H 475.013 -5.72077 1.81239 0
M  V30 5093 H 476.083 -4.34753 2.14751 0
M  V30 5094 N 477.426 -0.562348 -1.47226 0
M  V30 5095 C 478.356 0.170627 -2.32876 0
M  V30 5096 C 479.337 0.903748 -1.44106 0
M  V30 5097 O 480.522 0.883206 -1.72954 0
M  V30 5098 C 477.652 1.19786 -3.25989 0
M  V30 5099 C 476.606 0.580875 -4.2404 0
M  V30 5100 C 475.932 1.71311 -5.06514 0
M  V30 5101 C 477.232 -0.468714 -5.20193 0
M  V30 5102 H 478.926 -0.544441 -2.94408 0
M  V30 5103 H 476.472 -0.263271 -1.41573 0
M  V30 5104 H 478.425 1.71884 -3.84752 0
M  V30 5105 H 477.149 1.94294 -2.62521 0
M  V30 5106 H 475.808 0.0811538 -3.6651 0
M  V30 5107 H 475.456 2.44736 -4.39447 0
M  V30 5108 H 475.156 1.30604 -5.72902 0
M  V30 5109 H 476.68 2.23725 -5.68137 0
M  V30 5110 H 478.094 -0.0336028 -5.7329 0
M  V30 5111 H 476.491 -0.794957 -5.94811 0
M  V30 5112 H 477.561 -1.36269 -4.65359 0
M  V30 5113 N 478.904 1.54736 -0.299062 0
M  V30 5114 C 480.15 2.00397 0.311244 0
M  V30 5115 C 480.483 1.18716 1.53688 0
M  V30 5116 O 479.758 0.263154 1.92712 0
M  V30 5117 C 480.041 3.53817 0.669761 0
M  V30 5118 C 479.894 4.46239 -0.564882 0
M  V30 5119 C 481.213 4.13856 1.49702 0
M  V30 5120 H 478.332 0.728493 0.111653 0
M  V30 5121 H 480.974 1.85506 -0.410774 0
M  V30 5122 H 479.124 3.66637 1.28491 0
M  V30 5123 H 480.796 4.45328 -1.20337 0
M  V30 5124 H 479.039 4.16916 -1.19849 0
M  V30 5125 H 479.71 5.5134 -0.269918 0
M  V30 5126 H 482.186 4.04461 0.977284 0
M  V30 5127 H 481.062 5.21365 1.71666 0
M  V30 5128 H 481.323 3.65608 2.48563 0
M  V30 5129 N 480.382 0.0267497 1.57577 0
M  V30 5130 C 481.314 -0.984594 2.06974 0
M  V30 5131 C 482.327 -1.29032 0.992705 0
M  V30 5132 O 483.516 -1.25539 1.26895 0
M  V30 5133 C 480.616 -2.31262 2.47732 0
M  V30 5134 C 479.789 -2.1924 3.78487 0
M  V30 5135 C 478.848 -3.34956 4.05821 0
M  V30 5136 O 477.874 -3.11948 4.76106 0
M  V30 5137 N 479.076 -4.58672 3.55809 0
M  V30 5138 H 481.841 -0.563143 2.94362 0
M  V30 5139 H 479.402 -0.160061 1.61107 0
M  V30 5140 H 481.394 -3.07496 2.63112 0
M  V30 5141 H 479.964 -2.65056 1.65723 0
M  V30 5142 H 479.184 -1.27747 3.72927 0
M  V30 5143 H 480.472 -2.08409 4.64158 0
M  V30 5144 H 479.87 -4.8026 2.98942 0
M  V30 5145 H 478.427 -5.32083 3.76472 0
M  V30 5146 N 481.861 -1.55662 -0.24637 0
M  V30 5147 C 482.809 -1.91186 -1.3248 0
M  V30 5148 C 483.803 -0.790996 -1.49799 0
M  V30 5149 O 485.009 -0.975617 -1.51267 0
M  V30 5150 H 481.384 -0.607207 -0.443626 0
M  V30 5151 H 483.355 -2.81221 -0.997853 0
M  V30 5152 C 482.104 -2.22349 -2.67313 0
M  V30 5153 H 481.427 -3.08097 -2.54786 0
M  V30 5154 H 482.867 -2.51107 -3.41645 0
M  V30 5155 C 481.326 -1.04001 -3.20446 0
M  V30 5156 O 481.856 -0.28828 -4.00664 0
M  V30 5157 N 480.062 -0.830494 -2.7848 0
M  V30 5158 H 479.609 -1.4435 -2.13356 0
M  V30 5159 H 479.567 -0.0403258 -3.14374 0
M  V30 5160 N 483.339 0.512053 -1.4905 0
M  V30 5161 C 484.302 1.59704 -1.64399 0
M  V30 5162 C 485.302 1.52285 -0.516317 0
M  V30 5163 O 486.492 1.55635 -0.782527 0
M  V30 5164 C 483.624 2.9935 -1.63102 0
M  V30 5165 H 484.817 1.47428 -2.61161 0
M  V30 5166 H 482.37 0.735469 -1.37915 0
M  V30 5167 H 483.105 3.17116 -0.678836 0
M  V30 5168 H 482.89 3.06144 -2.44986 0
M  V30 5169 H 484.38 3.782 -1.77072 0
M  V30 5170 N 484.817 1.37938 0.762283 0
M  V30 5171 C 485.765 1.34569 1.89721 0
M  V30 5172 C 486.759 0.232929 1.67791 0
M  V30 5173 O 487.965 0.401485 1.75465 0
M  V30 5174 H 484.34 0.419594 0.624055 0
M  V30 5175 H 486.311 2.30357 1.8968 0
M  V30 5176 C 485.06 1.17898 3.27101 0
M  V30 5177 H 484.383 2.02781 3.44558 0
M  V30 5178 H 485.823 1.19593 4.06784 0
M  V30 5179 C 484.282 -0.114728 3.36705 0
M  V30 5180 O 484.812 -1.0949 3.8649 0
M  V30 5181 N 483.018 -0.16863 2.9011 0
M  V30 5182 H 482.565 0.62967 2.49786 0
M  V30 5183 H 482.523 -1.03383 2.96916 0
M  V30 5184 N 486.295 -0.989507 1.22664 0
M  V30 5185 C 487.706 -1.54406 1.04955 0
M  V30 5186 C 488.057 -1.92366 -0.385951 0
M  V30 5187 O 487.182 -1.75111 -1.27142 0
M  V30 5188 C 487.777 -2.80578 1.89899 0
M  V30 5189 C 486.336 -3.32464 1.76478 0
M  V30 5190 C 485.483 -2.05524 1.86159 0
M  V30 5191 H 488.434 -0.810211 1.3646 0
M  V30 5192 H 488.455 -3.53075 1.4184 0
M  V30 5193 H 487.967 -2.52918 2.94371 0
M  V30 5194 H 486.068 -3.65024 0.747528 0
M  V30 5195 H 486.181 -4.02838 2.59342 0
M  V30 5196 H 484.545 -2.19241 1.29636 0
M  V30 5197 H 485.328 -1.80258 2.92168 0
M  V30 5198 N 487.773 -1.03688 -1.18687 0
M  V30 5199 C 489.05 -0.652397 -1.84399 0
M  V30 5200 C 489.43 0.868386 -1.92412 0
M  V30 5201 O 488.778 1.76832 -1.44716 0
M  V30 5202 C 488.988 -1.3238 -3.22919 0
M  V30 5203 C 490.336 -1.45216 -3.98996 0
M  V30 5204 O 491.36 -1.2816 -3.32345 0
M  V30 5205 O 490.219 -1.72975 -5.18403 0
M  V30 5206 H 487.313 -0.227793 -0.795009 0
M  V30 5207 H 489.859 -1.13553 -1.2611 0
M  V30 5208 H 488.631 -2.36202 -3.11968 0
M  V30 5209 H 488.254 -0.829039 -3.88861 0
M  V30 5210 N 489.251 1.34841 -0.815825 0
M  V30 5211 C 490.491 2.00321 -0.406297 0
M  V30 5212 C 490.855 1.63293 1.00992 0
M  V30 5213 O 492.056 2.21563 1.52195 0
M  V30 5214 C 490.327 3.52421 -0.594469 0
M  V30 5215 S 491.886 4.37926 -0.276735 0
M  V30 5216 H 488.704 0.694155 -0.153848 0
M  V30 5217 H 491.306 1.64263 -1.06009 0
M  V30 5218 H 490.01 3.76858 -1.625 0
M  V30 5219 H 489.541 3.9333 0.0743157 0
M  V30 5220 H 491.556 4.87743 0.912215 0
M  V30 5221 N 490.729 0.570148 1.46925 0
M  V30 5222 C 491.676 -0.170257 2.30171 0
M  V30 5223 C 492.646 -0.896099 1.39855 0
M  V30 5224 O 493.831 -0.889248 1.68811 0
M  V30 5225 C 490.971 -1.18605 3.24079 0
M  V30 5226 C 490.084 -0.464947 4.29491 0
M  V30 5227 C 489.219 -1.46716 5.10537 0
M  V30 5228 C 488.258 -0.731758 6.0771 0
M  V30 5229 N 487.395 -1.68142 6.81669 0
M  V30 5230 H 492.235 0.545713 2.92961 0
M  V30 5231 H 489.772 0.280938 1.44392 0
M  V30 5232 H 491.73 -1.78771 3.76957 0
M  V30 5233 H 490.36 -1.86989 2.63125 0
M  V30 5234 H 489.412 0.251506 3.79568 0
M  V30 5235 H 490.724 0.110548 4.98677 0
M  V30 5236 H 489.878 -2.14199 5.6763 0
M  V30 5237 H 488.617 -2.07658 4.41282 0
M  V30 5238 H 487.622 -0.0430787 5.49783 0
M  V30 5239 H 488.847 -0.127904 6.7898 0
M  V30 5240 H 486.793 -2.27918 6.15134 0
M  V30 5241 H 486.71 -1.15841 7.47072 0
M  V30 5242 H 487.978 -2.347 7.43328 0
M  V30 5243 N 492.207 -1.54576 0.307264 0
M  V30 5244 C 493.435 -2.04675 -0.302597 0
M  V30 5245 C 493.85 -1.18425 -1.47041 0
M  V30 5246 O 493.207 -0.211257 -1.81273 0
M  V30 5247 C 493.258 -3.53575 -0.752801 0
M  V30 5248 O 492.979 -4.36547 0.368536 0
M  V30 5249 C 494.48 -4.19699 -1.42717 0
M  V30 5250 H 491.7 -0.66786 -0.0648374 0
M  V30 5251 H 494.244 -1.99516 0.448716 0
M  V30 5252 H 492.399 -3.59074 -1.45412 0
M  V30 5253 H 492.813 -5.24497 0.0168937 0
M  V30 5254 H 494.287 -5.25388 -1.69327 0
M  V30 5255 H 494.764 -3.69815 -2.36925 0
M  V30 5256 H 495.37 -4.18293 -0.768856 0
M  V30 5257 N 493.685 -0.035106 -1.57561 0
M  V30 5258 C 494.934 0.641604 -1.91223 0
M  V30 5259 C 495.247 1.72944 -0.913761 0
M  V30 5260 O 496.453 2.46321 -1.14185 0
M  V30 5261 C 494.909 1.19249 -3.3957 0
M  V30 5262 C 494.517 0.137616 -4.47789 0
M  V30 5263 C 496.261 1.84537 -3.82291 0
M  V30 5264 C 494.168 0.700478 -5.87237 0
M  V30 5265 H 493.098 0.243417 -0.713627 0
M  V30 5266 H 495.749 -0.101382 -1.8322 0
M  V30 5267 H 494.131 1.98728 -3.42525 0
M  V30 5268 H 495.305 -0.635153 -4.56402 0
M  V30 5269 H 493.62 -0.416855 -4.14308 0
M  V30 5270 H 496.217 2.27616 -4.83834 0
M  V30 5271 H 496.56 2.69054 -3.17672 0
M  V30 5272 H 497.093 1.11739 -3.81784 0
M  V30 5273 H 493.832 -0.106693 -6.55413 0
M  V30 5274 H 493.352 1.4416 -5.82218 0
M  V30 5275 H 495.031 1.18837 -6.35993 0
M  V30 5276 N 495.163 1.55791 0.238111 0
M  V30 5277 C 496.093 1.94068 1.29846 0
M  V30 5278 C 497.074 0.806726 1.49753 0
M  V30 5279 O 498.259 1.06772 1.62214 0
M  V30 5280 C 495.389 2.24302 2.65153 0
M  V30 5281 C 494.343 3.40032 2.59927 0
M  V30 5282 C 493.669 3.55829 3.99111 0
M  V30 5283 C 494.969 4.75476 2.16148 0
M  V30 5284 H 496.663 2.82887 0.980563 0
M  V30 5285 H 494.209 1.36105 0.470253 0
M  V30 5286 H 496.162 2.4967 3.39475 0
M  V30 5287 H 494.886 1.32318 2.98596 0
M  V30 5288 H 493.545 3.14687 1.88063 0
M  V30 5289 H 493.193 2.6125 4.29834 0
M  V30 5290 H 492.893 4.3366 3.96501 0
M  V30 5291 H 494.417 3.83528 4.7512 0
M  V30 5292 H 495.831 5.00158 2.80205 0
M  V30 5293 H 494.228 5.56472 2.24631 0
M  V30 5294 H 495.298 4.71946 1.11333 0
M  V30 5295 N 496.642 -0.504142 1.49319 0
M  V30 5296 C 497.589 -1.60603 1.65756 0
M  V30 5297 C 498.559 -1.58425 0.499082 0
M  V30 5298 O 499.744 -1.76459 0.725728 0
M  V30 5299 C 496.884 -2.98764 1.72726 0
M  V30 5300 C 495.997 -3.10982 2.99857 0
M  V30 5301 C 495.132 -4.39857 2.97824 0
M  V30 5302 C 494.171 -4.45697 4.19548 0
M  V30 5303 N 493.308 -5.65995 4.15444 0
M  V30 5304 H 498.148 -1.45895 2.59843 0
M  V30 5305 H 495.685 -0.709891 1.28837 0
M  V30 5306 H 497.643 -3.78839 1.74747 0
M  V30 5307 H 496.273 -3.12183 0.821075 0
M  V30 5308 H 495.325 -2.23991 3.07461 0
M  V30 5309 H 496.637 -3.11157 3.89849 0
M  V30 5310 H 495.791 -5.2825 2.98391 0
M  V30 5311 H 494.53 -4.42242 2.05604 0
M  V30 5312 H 493.535 -3.55707 4.19229 0
M  V30 5313 H 494.76 -4.4503 5.12957 0
M  V30 5314 H 492.706 -5.69229 3.26059 0
M  V30 5315 H 492.623 -5.67773 4.99169 0
M  V30 5316 H 493.891 -6.56604 4.20109 0
M  V30 5317 N 498.12 -1.38341 -0.754957 0
M  V30 5318 C 499.083 -1.35262 -1.85032 0
M  V30 5319 C 500.083 -0.253393 -1.58791 0
M  V30 5320 O 501.273 -0.510205 -1.66561 0
M  V30 5321 C 498.405 -1.10544 -3.22479 0
M  V30 5322 H 499.598 -2.32712 -1.8917 0
M  V30 5323 H 497.151 -1.23614 -0.956515 0
M  V30 5324 H 497.886 -0.136952 -3.24011 0
M  V30 5325 H 497.671 -1.90127 -3.4292 0
M  V30 5326 H 499.161 -1.11082 -4.02555 0
M  V30 5327 N 499.598 0.982988 -1.23187 0
M  V30 5328 C 500.528 2.09301 -1.03515 0
M  V30 5329 C 501.509 1.70035 0.0471136 0
M  V30 5330 O 502.694 1.93847 -0.117029 0
M  V30 5331 C 499.824 3.4167 -0.622791 0
M  V30 5332 C 498.778 3.94828 -1.65211 0
M  V30 5333 C 498.104 5.23362 -1.09527 0
M  V30 5334 C 499.404 4.2439 -3.04451 0
M  V30 5335 H 501.098 2.26016 -1.96359 0
M  V30 5336 H 498.644 1.08611 -0.945501 0
M  V30 5337 H 500.597 4.18746 -0.472233 0
M  V30 5338 H 499.321 3.24811 0.341329 0
M  V30 5339 H 497.98 3.19895 -1.79061 0
M  V30 5340 H 497.628 5.02852 -0.122211 0
M  V30 5341 H 497.328 5.59895 -1.783 0
M  V30 5342 H 498.852 6.03062 -0.956511 0
M  V30 5343 H 500.266 4.92225 -2.93917 0
M  V30 5344 H 498.663 4.72118 -3.70438 0
M  V30 5345 H 499.733 3.31765 -3.53638 0
M  V30 5346 N 501.076 1.04316 1.18135 0
M  V30 5347 C 502.324 0.746542 1.87806 0
M  V30 5348 C 502.645 -0.728082 1.80898 0
M  V30 5349 O 501.915 -1.52554 1.22899 0
M  V30 5350 H 500.495 0.273157 0.695265 0
M  V30 5351 H 503.157 1.32044 1.43354 0
M  V30 5352 H 502.253 1.05362 2.93778 0
M  V30 5353 N 502.554 -1.34406 0.822964 0
M  V30 5354 C 503.965 -1.8069 0.469879 0
M  V30 5355 C 504.316 -1.68223 -1.00972 0
M  V30 5356 O 503.441 -1.22226 -1.78577 0
M  V30 5357 C 504.036 -3.28064 0.846118 0
M  V30 5358 C 502.595 -3.72428 0.545402 0
M  V30 5359 C 501.742 -2.56116 1.06301 0
M  V30 5360 H 504.693 -1.22153 1.01313 0
M  V30 5361 H 504.714 -3.80205 0.149922 0
M  V30 5362 H 504.226 -3.37107 1.92304 0
M  V30 5363 H 502.327 -3.68924 -0.522109 0
M  V30 5364 H 502.44 -4.66548 1.0895 0
M  V30 5365 H 500.804 -2.50048 0.484554 0
M  V30 5366 H 501.587 -2.67928 2.14638 0
M  V30 5367 N 504.032 -0.577932 -1.46621 0
M  V30 5368 C 504.995 0.147805 -2.28723 0
M  V30 5369 C 505.995 0.823325 -1.38123 0
M  V30 5370 O 507.185 0.676011 -1.60548 0
M  V30 5371 C 504.317 1.21853 -3.18378 0
M  V30 5372 H 505.51 -0.573654 -2.94362 0
M  V30 5373 H 503.063 -0.335703 -1.52652 0
M  V30 5374 H 503.798 1.97173 -2.57475 0
M  V30 5375 H 503.583 0.738714 -3.85078 0
M  V30 5376 H 505.073 1.72768 -3.80186 0
M  V30 5377 N 505.51 1.54411 -0.315457 0
M  V30 5378 C 506.473 2.22713 0.54142 0
M  V30 5379 C 507.473 1.2179 1.04995 0
M  V30 5380 O 508.663 1.46426 0.943667 0
M  V30 5381 C 505.795 2.92485 1.75116 0
M  V30 5382 H 506.988 2.99849 -0.0555508 0
M  V30 5383 H 504.541 1.56159 -0.0664453 0
M  V30 5384 H 505.276 2.19466 2.38758 0
M  V30 5385 H 505.061 3.66483 1.39401 0
M  V30 5386 H 506.551 3.44548 2.35959 0
M  V30 5387 N 506.988 0.0434614 1.5754 0
M  V30 5388 C 508.216 -0.641835 1.96693 0
M  V30 5389 C 508.631 -1.64832 0.920652 0
M  V30 5390 O 507.988 -1.82247 -0.095993 0
M  V30 5391 C 508.039 -1.33557 3.35924 0
M  V30 5392 O 507.76 -0.369403 4.3654 0
M  V30 5393 C 509.261 -2.11135 3.89791 0
M  V30 5394 H 506.481 -0.176013 0.647503 0
M  V30 5395 H 509.025 0.107478 2.04217 0
M  V30 5396 H 507.18 -2.03617 3.29574 0
M  V30 5397 H 507.594 -0.863674 5.1734 0
M  V30 5398 H 509.068 -2.55107 4.89514 0
M  V30 5399 H 509.545 -2.95634 3.24803 0
M  V30 5400 H 510.151 -1.46002 3.99454 0
M  V30 5401 N 508.466 -1.55915 -0.229846 0
M  V30 5402 C 509.396 -1.94754 -1.28815 0
M  V30 5403 C 510.377 -0.814657 -1.49323 0
M  V30 5404 O 511.562 -1.07631 -1.61645 0
M  V30 5405 C 508.692 -2.25705 -2.63959 0
M  V30 5406 C 507.646 -3.41406 -2.5812 0
M  V30 5407 C 506.972 -3.57941 -3.97218 0
M  V30 5408 C 508.272 -4.76616 -2.13623 0
M  V30 5409 H 509.966 -2.83404 -0.965547 0
M  V30 5410 H 507.512 -1.36353 -0.463028 0
M  V30 5411 H 509.465 -2.51467 -3.38146 0
M  V30 5412 H 508.189 -1.339 -2.9789 0
M  V30 5413 H 506.848 -3.1568 -1.86391 0
M  V30 5414 H 506.496 -2.63526 -4.28443 0
M  V30 5415 H 506.196 -4.35757 -3.94195 0
M  V30 5416 H 507.72 -3.86042 -4.73079 0
M  V30 5417 H 509.134 -5.01637 -2.77549 0
M  V30 5418 H 507.531 -5.57655 -2.21677 0
M  V30 5419 H 508.601 -4.7253 -1.08829 0
M  V30 5420 N 509.944 0.496216 -1.49584 0
M  V30 5421 C 510.854 1.62352 -1.69349 0
M  V30 5422 C 511.87 1.64184 -0.576147 0
M  V30 5423 O 513.046 1.82517 -0.85144 0
M  V30 5424 C 510.111 2.98698 -1.76013 0
M  V30 5425 C 509.172 3.07454 -2.99617 0
M  V30 5426 C 508.405 4.37296 -3.05953 0
M  V30 5427 O 508.628 5.2637 -2.19752 0
M  V30 5428 O 507.562 4.51124 -3.9846 0
M  V30 5429 H 511.388 1.48606 -2.64859 0
M  V30 5430 H 508.973 0.673022 -1.33382 0
M  V30 5431 H 510.855 3.79725 -1.82721 0
M  V30 5432 H 509.53 3.12696 -0.836828 0
M  V30 5433 H 508.437 2.25597 -2.98424 0
M  V30 5434 H 509.77 2.98385 -3.91443 0
M  V30 5435 N 511.423 1.38739 0.74761 0
M  V30 5436 C 512.333 1.38696 1.89211 0
M  V30 5437 C 513.349 0.283303 1.71678 0
M  V30 5438 O 514.525 0.522713 1.94498 0
M  V30 5439 C 511.59 1.21662 3.24653 0
M  V30 5440 C 510.651 2.41886 3.54669 0
M  V30 5441 C 509.884 2.25655 4.83648 0
M  V30 5442 O 510.107 1.25339 5.56459 0
M  V30 5443 O 509.041 3.14372 5.13277 0
M  V30 5444 H 512.867 2.35143 1.92202 0
M  V30 5445 H 510.452 1.19721 0.893708 0
M  V30 5446 H 512.334 1.14246 4.05618 0
M  V30 5447 H 511.009 0.283024 3.2246 0
M  V30 5448 H 509.916 2.54877 2.73841 0
M  V30 5449 H 511.249 3.33895 3.61628 0
M  V30 5450 N 512.901 -0.976442 1.23707 0
M  V30 5451 C 513.834 -2.06793 0.964973 0
M  V30 5452 C 514.812 -1.62304 -0.0981472 0
M  V30 5453 O 515.996 -1.88464 0.0369477 0
M  V30 5454 C 513.123 -3.35636 0.454522 0
M  V30 5455 C 512.169 -3.99069 1.50485 0
M  V30 5456 S 513.002 -4.37814 3.0835 0
M  V30 5457 C 514.158 -5.69805 2.58985 0
M  V30 5458 H 514.391 -2.29556 1.88922 0
M  V30 5459 H 511.924 -1.11317 1.06995 0
M  V30 5460 H 513.882 -4.10162 0.166626 0
M  V30 5461 H 512.543 -3.10876 -0.448871 0
M  V30 5462 H 511.736 -4.91896 1.09792 0
M  V30 5463 H 511.338 -3.30938 1.7423 0
M  V30 5464 H 513.63 -6.46919 2.01252 0
M  V30 5465 H 514.573 -6.15345 3.50366 0
M  V30 5466 H 514.981 -5.27994 1.99705 0
M  V30 5467 N 514.379 -1.04941 -1.1758 0
M  V30 5468 C 515.312 -0.592518 -2.20373 0
M  V30 5469 C 516.29 0.377561 -1.58156 0
M  V30 5470 O 517.474 0.28978 -1.86259 0
M  V30 5471 C 514.601 0.133215 -3.38438 0
M  V30 5472 C 513.647 -0.791484 -4.19092 0
M  V30 5473 S 514.48 -2.27925 -4.84572 0
M  V30 5474 C 515.636 -1.56462 -6.06028 0
M  V30 5475 H 515.869 -1.46342 -2.58788 0
M  V30 5476 H 513.402 -0.861148 -1.28155 0
M  V30 5477 H 515.36 0.545746 -4.06856 0
M  V30 5478 H 514.021 0.980124 -2.98416 0
M  V30 5479 H 513.214 -0.230039 -5.03475 0
M  V30 5480 H 512.816 -1.14326 -3.56098 0
M  V30 5481 H 515.108 -0.862539 -6.71987 0
M  V30 5482 H 516.051 -2.38583 -6.66696 0
M  V30 5483 H 516.459 -1.05313 -5.5459 0
M  V30 5484 N 515.857 1.33968 -0.830081 0
M  V30 5485 C 517.085 2.0228 -0.434773 0
M  V30 5486 C 517.5 1.62487 0.961419 0
M  V30 5487 O 516.857 0.833849 1.62337 0
M  V30 5488 C 516.908 3.5751 -0.535625 0
M  V30 5489 O 516.629 3.95864 -1.87679 0
M  V30 5490 C 518.13 4.43091 -0.136137 0
M  V30 5491 H 515.35 0.648151 -0.173613 0
M  V30 5492 H 517.894 1.71089 -1.12022 0
M  V30 5493 H 516.049 3.87266 0.101817 0
M  V30 5494 H 516.463 4.9056 -1.85609 0
M  V30 5495 H 517.937 5.51398 -0.257772 0
M  V30 5496 H 518.414 4.29433 0.921076 0
M  V30 5497 H 519.02 4.18677 -0.747662 0
M  V30 5498 N 517.335 0.585699 1.46312 0
M  V30 5499 C 518.298 -0.135673 2.28798 0
M  V30 5500 C 519.298 -0.815988 1.38558 0
M  V30 5501 O 520.488 -0.667487 1.60904 0
M  V30 5502 C 517.62 -1.20163 3.1902 0
M  V30 5503 H 518.813 0.589257 2.94054 0
M  V30 5504 H 516.366 0.343794 1.52472 0
M  V30 5505 H 517.101 -1.95804 2.58517 0
M  V30 5506 H 516.886 -0.718282 3.85465 0
M  V30 5507 H 518.376 -1.70749 3.81096 0
M  V30 5508 N 518.813 -1.54241 0.323641 0
M  V30 5509 C 520.053 -2.0248 -0.279502 0
M  V30 5510 C 520.417 -1.20672 -1.49339 0
M  V30 5511 O 521.618 -1.58715 -2.1694 0
M  V30 5512 C 519.889 -3.52238 -0.605266 0
M  V30 5513 S 521.448 -4.22411 -1.18805 0
M  V30 5514 H 518.266 -0.705957 -0.0845313 0
M  V30 5515 H 520.868 -1.90089 0.456781 0
M  V30 5516 H 519.572 -4.094 0.286339 0
M  V30 5517 H 519.103 -3.6871 -1.37174 0
M  V30 5518 H 521.118 -4.30075 -2.47487 0
M  V30 5519 N 520.291 -0.0518155 -1.57515 0
M  V30 5520 C 521.223 0.951542 -2.08515 0
M  V30 5521 C 522.236 1.27436 -1.01311 0
M  V30 5522 O 523.425 1.23504 -1.28876 0
M  V30 5523 C 520.525 2.27291 -2.5138 0
M  V30 5524 C 519.698 2.13191 -3.81927 0
M  V30 5525 C 518.757 3.28458 -4.11098 0
M  V30 5526 O 517.783 3.04334 -4.81009 0
M  V30 5527 N 518.985 4.52954 -3.63061 0
M  V30 5528 H 521.75 0.516242 -2.9522 0
M  V30 5529 H 519.311 0.13441 -1.61341 0
M  V30 5530 H 521.303 3.03272 -2.67971 0
M  V30 5531 H 519.873 2.62386 -1.69919 0
M  V30 5532 H 519.093 1.21798 -3.74912 0
M  V30 5533 H 520.381 2.00999 -4.67415 0
M  V30 5534 H 519.779 4.75444 -3.06545 0
M  V30 5535 H 518.336 5.26026 -3.84889 0
M  V30 5536 N 521.769 1.56035 0.221574 0
M  V30 5537 C 523.017 1.78693 0.944102 0
M  V30 5538 C 523.338 0.620317 1.8487 0
M  V30 5539 O 522.608 -0.362784 1.92512 0
M  V30 5540 H 521.188 0.659082 0.351597 0
M  V30 5541 H 523.85 1.93497 0.233435 0
M  V30 5542 H 522.946 2.70837 1.55093 0
M  V30 5543 N 523.247 -0.488276 1.49845 0
M  V30 5544 C 524.493 -1.24341 1.6021 0
M  V30 5545 C 524.826 -1.91967 0.293651 0
M  V30 5546 O 524.101 -1.81323 -0.703718 0
M  V30 5547 C 524.384 -2.3005 2.77036 0
M  V30 5548 C 524.237 -1.66842 4.17713 0
M  V30 5549 C 525.556 -3.31509 2.89464 0
M  V30 5550 H 522.675 -0.450704 0.583125 0
M  V30 5551 H 525.317 -0.539673 1.82174 0
M  V30 5552 H 523.467 -2.90071 2.58439 0
M  V30 5553 H 525.139 -1.1055 4.47858 0
M  V30 5554 H 523.382 -0.972079 4.22768 0
M  V30 5555 H 524.053 -2.43576 4.95353 0
M  V30 5556 H 526.529 -2.81493 3.06433 0
M  V30 5557 H 525.405 -4.02822 3.72861 0
M  V30 5558 H 525.666 -3.94603 1.99351 0
M  V30 5559 N 524.725 -1.39134 -0.740242 0
M  V30 5560 C 525.973 -1.35803 -1.49673 0
M  V30 5561 C 526.294 0.0470897 -1.94943 0
M  V30 5562 O 525.564 0.997347 -1.68611 0
M  V30 5563 H 524.144 -0.499736 -0.555224 0
M  V30 5564 H 526.806 -1.73947 -0.879107 0
M  V30 5565 H 525.902 -2.0174 -2.38133 0
M  V30 5566 N 526.204 0.969867 -1.24223 0
M  V30 5567 C 527.452 1.70918 -1.0785 0
M  V30 5568 C 527.773 1.91186 0.383763 0
M  V30 5569 O 527.043 1.48806 1.27411 0
M  V30 5570 H 525.623 0.633334 -0.396103 0
M  V30 5571 H 528.285 1.16689 -1.56108 0
M  V30 5572 H 527.381 2.69455 -1.57482 0
M  V30 5573 N 527.682 1.05563 1.17022 0
M  V30 5574 C 529.093 0.793475 1.69 0
M  V30 5575 C 529.444 -0.683882 1.83895 0
M  V30 5576 O 528.569 -1.53116 1.5292 0
M  V30 5577 C 529.164 1.43376 3.06967 0
M  V30 5578 C 527.723 1.21956 3.56095 0
M  V30 5579 C 526.87 1.51494 2.3226 0
M  V30 5580 H 529.821 1.22008 1.01487 0
M  V30 5581 H 529.842 0.845068 3.70997 0
M  V30 5582 H 529.354 2.50899 2.96093 0
M  V30 5583 H 527.455 0.163749 3.7224 0
M  V30 5584 H 527.568 1.92713 4.38633 0
M  V30 5585 H 525.932 0.935175 2.3691 0
M  V30 5586 H 526.715 2.60159 2.23992 0
M  V30 5587 N 529.16 -1.33526 0.837174 0
M  V30 5588 C 530.408 -1.97446 0.431211 0
M  V30 5589 C 530.729 -1.6665 -1.01255 0
M  V30 5590 O 529.999 -0.964559 -1.70508 0
M  V30 5591 H 528.579 -0.73043 0.156463 0
M  V30 5592 H 531.241 -1.62918 1.06976 0
M  V30 5593 H 530.337 -3.07001 0.561877 0
M  V30 5594 N 530.638 -0.59345 -1.46 0
M  V30 5595 C 531.588 0.154751 -2.27474 0
M  V30 5596 C 532.572 0.851849 -1.365 0
M  V30 5597 O 533.764 0.744171 -1.60596 0
M  V30 5598 C 530.893 1.16079 -3.2308 0
M  V30 5599 C 529.979 0.465256 -4.2154 0
M  V30 5600 N 530.37 -0.485197 -5.03467 0
M  V30 5601 C 528.668 0.714634 -4.40237 0
M  V30 5602 C 529.369 -0.892709 -5.74809 0
M  V30 5603 N 528.345 -0.239511 -5.43072 0
M  V30 5604 H 532.147 -0.57546 -2.88211 0
M  V30 5605 H 529.661 -0.416046 -1.5698 0
M  V30 5606 H 531.658 1.71108 -3.80168 0
M  V30 5607 H 530.318 1.89171 -2.63903 0
M  V30 5608 H 531.329 -0.861258 -5.10689 0
M  V30 5609 H 528.006 1.43131 -3.92199 0
M  V30 5610 H 529.396 -1.67581 -6.50666 0
M  V30 5611 N 532.116 1.54067 -0.331816 0
M  V30 5612 C 533.063 2.24623 0.530372 0
M  V30 5613 C 534.033 1.24009 1.10503 0
M  V30 5614 O 535.218 1.52712 1.14384 0
M  V30 5615 C 532.358 3.01374 1.68129 0
M  V30 5616 C 531.471 4.16821 1.13507 0
M  V30 5617 C 530.606 4.81085 2.25234 0
M  V30 5618 C 529.645 5.88621 1.67903 0
M  V30 5619 N 528.782 6.46713 2.73326 0
M  V30 5620 H 533.622 2.97898 -0.0778607 0
M  V30 5621 H 531.159 1.47014 -0.0501965 0
M  V30 5622 H 533.117 3.44125 2.35868 0
M  V30 5623 H 531.747 2.30419 2.26069 0
M  V30 5624 H 530.799 3.78796 0.348979 0
M  V30 5625 H 532.111 4.94203 0.675633 0
M  V30 5626 H 531.265 5.26846 3.00862 0
M  V30 5627 H 530.004 4.03102 2.74518 0
M  V30 5628 H 529.009 5.42254 0.907773 0
M  V30 5629 H 530.234 6.68506 1.19487 0
M  V30 5630 H 528.18 5.71599 3.21886 0
M  V30 5631 H 528.097 7.19532 2.3197 0
M  V30 5632 H 529.365 6.97129 3.48758 0
M  V30 5633 N 533.594 0.0601682 1.57485 0
M  V30 5634 C 534.557 -0.896373 2.10945 0
M  V30 5635 C 535.557 -1.23402 1.03095 0
M  V30 5636 O 536.747 -1.16921 1.29132 0
M  V30 5637 C 533.879 -2.20346 2.60116 0
M  V30 5638 H 535.072 -0.432778 2.96761 0
M  V30 5639 H 532.625 -0.188372 1.55161 0
M  V30 5640 H 533.36 -2.71268 1.7772 0
M  V30 5641 H 533.145 -1.9714 3.38937 0
M  V30 5642 H 534.635 -2.88846 3.01592 0
M  V30 5643 N 535.072 -1.5615 -0.213296 0
M  V30 5644 C 536.488 -1.49327 -0.56336 0
M  V30 5645 C 536.688 -0.756826 -1.86747 0
M  V30 5646 O 535.744 -0.299866 -2.50713 0
M  V30 5647 C 537.057 -2.9392 -0.634944 0
M  V30 5648 C 538.605 -3.04487 -0.725013 0
M  V30 5649 C 539.08 -4.50456 -0.82787 0
M  V30 5650 N 540.571 -4.54533 -0.891876 0
M  V30 5651 C 541.306 -5.64766 -0.991315 0
M  V30 5652 N 540.802 -6.84733 -1.05419 0
M  V30 5653 N 542.595 -5.52637 -1.02709 0
M  V30 5654 H 534.746 -2.02453 0.642366 0
M  V30 5655 H 537.009 -0.920548 0.226487 0
M  V30 5656 H 536.715 -3.50783 0.253859 0
M  V30 5657 H 536.589 -3.46274 -1.49579 0
M  V30 5658 H 538.976 -2.47685 -1.60425 0
M  V30 5659 H 539.057 -2.55289 0.161669 0
M  V30 5660 H 538.701 -5.07878 0.0469464 0
M  V30 5661 H 538.631 -4.97369 -1.73009 0
M  V30 5662 H 541.122 -3.68141 -0.85327 0
M  V30 5663 H 541.435 -7.64493 -1.13007 0
M  V30 5664 H 539.78 -6.87427 -1.02318 0
M  V30 5665 H 542.971 -4.5784 -0.974687 0
M  V30 5666 H 543.144 -6.38576 -1.10113 0
M  V30 5667 N 536.55 0.480323 -1.50102 0
M  V30 5668 C 537.796 1.23489 -1.60867 0
M  V30 5669 C 538.129 1.91809 -0.303827 0
M  V30 5670 O 537.404 1.81694 0.694092 0
M  V30 5671 C 537.687 2.28578 -2.78252 0
M  V30 5672 C 537.54 1.64624 -4.18592 0
M  V30 5673 C 538.859 3.2997 -2.91218 0
M  V30 5674 H 535.978 0.447605 -0.585507 0
M  V30 5675 H 538.62 0.530005 -1.82458 0
M  V30 5676 H 536.77 2.88697 -2.59974 0
M  V30 5677 H 538.442 1.08173 -4.48438 0
M  V30 5678 H 536.685 0.949645 -4.23278 0
M  V30 5679 H 537.356 2.40946 -4.96638 0
M  V30 5680 H 539.832 2.79864 -3.07921 0
M  V30 5681 H 538.708 4.00839 -3.74993 0
M  V30 5682 H 538.969 3.93541 -2.0144 0
M  V30 5683 N 538.028 1.39524 0.732853 0
M  V30 5684 C 538.958 1.41153 1.86005 0
M  V30 5685 C 539.939 0.274614 1.67869 0
M  V30 5686 O 541.124 0.480745 1.88155 0
M  V30 5687 C 538.254 1.25638 3.23778 0
M  V30 5688 C 537.208 2.36752 3.56556 0
M  V30 5689 C 536.534 2.06326 4.93289 0
M  V30 5690 C 537.834 3.79069 3.5931 0
M  V30 5691 H 539.528 2.35484 1.84899 0
M  V30 5692 H 537.074 1.13348 0.888162 0
M  V30 5693 H 539.027 1.25398 4.0231 0
M  V30 5694 H 537.751 0.277772 3.25417 0
M  V30 5695 H 536.41 2.36213 2.80355 0
M  V30 5696 H 536.058 1.06897 4.9151 0
M  V30 5697 H 535.758 2.80757 5.16187 0
M  V30 5698 H 537.282 2.07739 5.74175 0
M  V30 5699 H 538.696 3.81526 4.27914 0
M  V30 5700 H 537.093 4.52878 3.93728 0
M  V30 5701 H 538.163 4.09893 2.59068 0
M  V30 5702 N 539.506 -0.963266 1.24736 0
M  V30 5703 C 540.469 -2.04013 1.04457 0
M  V30 5704 C 541.469 -1.608 0.000335555 0
M  V30 5705 O 542.659 -1.72515 0.241719 0
M  V30 5706 C 539.791 -3.35858 0.584162 0
M  V30 5707 H 540.984 -2.23436 2.00041 0
M  V30 5708 H 538.537 -1.13914 1.07021 0
M  V30 5709 H 539.272 -3.22128 -0.374673 0
M  V30 5710 H 539.057 -3.68568 1.3379 0
M  V30 5711 H 540.547 -4.1502 0.463451 0
M  V30 5712 N 540.985 -1.06182 -1.16461 0
M  V30 5713 C 541.895 -0.682671 -2.24448 0
M  V30 5714 C 542.911 0.30078 -1.71381 0
M  V30 5715 O 544.087 0.150376 -2.00838 0
M  V30 5716 C 541.152 -0.0737202 -3.46622 0
M  V30 5717 C 540.213 -1.10889 -4.14731 0
M  V30 5718 C 539.446 -0.528908 -5.31073 0
M  V30 5719 O 539.669 0.65868 -5.66584 0
M  V30 5720 O 538.603 -1.26805 -5.88391 0
M  V30 5721 H 542.429 -1.58291 -2.59187 0
M  V30 5722 H 540.014 -0.834013 -1.23954 0
M  V30 5723 H 541.896 0.264192 -4.20571 0
M  V30 5724 H 540.571 0.800015 -3.13658 0
M  V30 5725 H 539.478 -1.49896 -3.42756 0
M  V30 5726 H 540.811 -1.95412 -4.51747 0
M  V30 5727 N 542.463 1.3308 -0.844243 0
M  V30 5728 C 543.426 2.27403 -0.286485 0
M  V30 5729 C 544.426 1.51179 0.547872 0
M  V30 5730 O 545.616 1.70421 0.360886 0
M  V30 5731 C 542.748 3.35653 0.595813 0
M  V30 5732 H 543.941 2.78248 -1.11885 0
M  V30 5733 H 541.494 1.43574 -0.617749 0
M  V30 5734 H 542.229 2.90058 1.4504 0
M  V30 5735 H 542.014 3.921 -0.00125994 0
M  V30 5736 H 543.504 4.05958 0.979168 0
M  V30 5737 N 543.941 0.601185 1.45683 0
M  V30 5738 C 544.874 -0.17013 2.27565 0
M  V30 5739 C 545.852 -0.879661 1.36751 0
M  V30 5740 O 547.036 -0.889827 1.66176 0
M  V30 5741 C 544.163 -1.24568 3.14961 0
M  V30 5742 C 543.209 -0.639978 4.21671 0
M  V30 5743 S 544.042 0.547275 5.32696 0
M  V30 5744 C 545.198 -0.529019 6.2366 0
M  V30 5745 H 545.431 0.524583 2.92635 0
M  V30 5746 H 542.964 0.388537 1.49431 0
M  V30 5747 H 544.922 -1.86138 3.65873 0
M  V30 5748 H 543.583 -1.91243 2.49169 0
M  V30 5749 H 542.776 -1.44903 4.8272 0
M  V30 5750 H 542.378 -0.0995558 3.73867 0
M  V30 5751 H 544.67 -1.40981 6.62669 0
M  V30 5752 H 545.613 0.0451599 7.08086 0
M  V30 5753 H 546.021 -0.84147 5.58193 0
M  V30 5754 N 545.419 -1.53889 0.339982 0
M  V30 5755 C 546.644 -2.05741 -0.261798 0
M  V30 5756 C 547.069 -1.21354 -1.43718 0
M  V30 5757 O 546.427 -0.22645 -1.7988 0
M  V30 5758 C 546.475 -3.54542 -0.658228 0
M  V30 5759 O 545.579 -3.7302 -1.75869 0
M  V30 5760 H 544.92 -0.662529 -0.0441672 0
M  V30 5761 H 547.45 -1.98568 0.493161 0
M  V30 5762 H 547.46 -3.9711 -0.936368 0
M  V30 5763 H 546.135 -4.15412 0.201358 0
M  V30 5764 H 544.712 -3.42355 -1.47809 0
M  V30 5765 N 546.897 -0.0685191 -1.57451 0
M  V30 5766 C 547.829 0.929372 -2.09512 0
M  V30 5767 C 548.842 1.26354 -1.02657 0
M  V30 5768 O 550.031 1.2213 -1.30179 0
M  V30 5769 C 547.131 2.24612 -2.53777 0
M  V30 5770 C 546.304 2.09128 -3.84167 0
M  V30 5771 C 545.363 3.24079 -4.14559 0
M  V30 5772 O 544.389 2.99215 -4.8421 0
M  V30 5773 N 545.591 4.49077 -3.67845 0
M  V30 5774 H 548.356 0.484901 -2.95751 0
M  V30 5775 H 545.917 0.11729 -1.61475 0
M  V30 5776 H 547.909 3.00412 -2.71172 0
M  V30 5777 H 546.479 2.60569 -1.72692 0
M  V30 5778 H 545.699 1.17815 -3.76182 0
M  V30 5779 H 546.987 1.9603 -4.69521 0
M  V30 5780 H 546.385 4.72165 -3.11571 0
M  V30 5781 H 544.942 5.21915 -3.90446 0
M  V30 5782 N 548.375 1.56261 0.205012 0
M  V30 5783 C 549.621 1.80306 0.9283 0
M  V30 5784 C 549.954 0.640932 1.83319 0
M  V30 5785 O 549.229 -0.359032 1.91158 0
M  V30 5786 C 549.512 3.14547 1.75306 0
M  V30 5787 C 549.365 4.41236 0.873562 0
M  V30 5788 C 550.684 3.45382 2.72762 0
M  V30 5789 H 547.803 0.655929 0.336044 0
M  V30 5790 H 550.445 1.88984 0.196211 0
M  V30 5791 H 548.595 3.0728 2.37721 0
M  V30 5792 H 550.267 4.60539 0.264887 0
M  V30 5793 H 548.51 4.33427 0.179773 0
M  V30 5794 H 549.181 5.31639 1.48541 0
M  V30 5795 H 551.657 3.52884 2.20481 0
M  V30 5796 H 550.533 4.40449 3.2756 0
M  V30 5797 H 550.794 2.68377 3.51321 0
M  V30 5798 N 549.853 -0.472356 1.50355 0
M  V30 5799 C 551.081 -1.24784 1.65035 0
M  V30 5800 C 551.496 -1.85837 0.333176 0
M  V30 5801 O 550.853 -1.69168 -0.68472 0
M  V30 5802 C 550.904 -2.35747 2.74054 0
M  V30 5803 O 550.625 -1.77197 4.00665 0
M  V30 5804 C 552.126 -3.26645 2.99696 0
M  V30 5805 H 549.346 -0.377432 0.554785 0
M  V30 5806 H 551.89 -0.563962 1.9657 0
M  V30 5807 H 550.045 -2.99912 2.45217 0
M  V30 5808 H 550.459 -2.5026 4.60945 0
M  V30 5809 H 551.933 -4.00718 3.79644 0
M  V30 5810 H 552.41 -3.8535 2.10718 0
M  V30 5811 H 553.016 -2.68218 3.3006 0
M  V30 5812 N 551.331 -1.39911 -0.725443 0
M  V30 5813 C 552.279 -1.39552 -1.86086 0
M  V30 5814 C 553.273 -0.277334 -1.67114 0
M  V30 5815 O 554.479 -0.447865 -1.74339 0
M  V30 5816 H 550.854 -0.435993 -0.612711 0
M  V30 5817 H 552.825 -2.35305 -1.83505 0
M  V30 5818 C 551.574 -1.26529 -3.2386 0
M  V30 5819 H 550.897 -2.11845 -3.3906 0
M  V30 5820 H 552.337 -1.30336 -4.03471 0
M  V30 5821 C 550.796 0.0254168 -3.3689 0
M  V30 5822 O 551.326 0.992048 -3.89257 0
M  V30 5823 N 549.532 0.0916528 -2.90455 0
M  V30 5824 H 549.079 -0.695675 -2.48028 0
M  V30 5825 H 549.037 0.954745 -2.99553 0
M  V30 5826 N 552.809 0.956637 -1.25245 0
M  V30 5827 C 554.22 1.51569 -1.09012 0
M  V30 5828 C 554.571 1.93322 0.334813 0
M  V30 5829 O 553.696 1.78421 1.22454 0
M  V30 5830 C 554.291 2.75444 -1.97271 0
M  V30 5831 C 552.85 3.27669 -1.8523 0
M  V30 5832 C 551.997 2.00517 -1.91542 0
M  V30 5833 H 554.948 0.773746 -1.3856 0
M  V30 5834 H 554.969 3.4919 -1.51151 0
M  V30 5835 H 554.481 2.45024 -3.00973 0
M  V30 5836 H 552.582 3.62914 -0.844045 0
M  V30 5837 H 552.695 3.9582 -2.69932 0
M  V30 5838 H 551.059 2.15727 -1.35404 0
M  V30 5839 H 551.842 1.72448 -2.96844 0
M  V30 5840 N 554.287 1.06798 1.15896 0
M  V30 5841 C 555.25 0.687328 2.18651 0
M  V30 5842 C 556.25 -0.269559 1.58524 0
M  V30 5843 O 557.44 -0.0512627 1.74125 0
M  V30 5844 C 554.572 0.0121642 3.40898 0
M  V30 5845 H 555.765 1.59701 2.53842 0
M  V30 5846 H 553.318 0.863828 1.3026 0
M  V30 5847 H 554.053 -0.910025 3.1127 0
M  V30 5848 H 553.838 0.700309 3.85795 0
M  V30 5849 H 555.328 -0.239703 4.16911 0
M  V30 5850 N 555.766 -1.3263 0.851289 0
M  V30 5851 C 556.714 -2.30882 0.282202 0
M  V30 5852 C 557.708 -1.58697 -0.592589 0
M  V30 5853 O 558.914 -1.73461 -0.480768 0
M  V30 5854 H 555.289 -0.748492 0.0725487 0
M  V30 5855 H 557.26 -2.76374 1.12516 0
M  V30 5856 C 556.009 -3.43828 -0.517449 0
M  V30 5857 H 555.332 -3.99532 0.146392 0
M  V30 5858 H 556.772 -4.1474 -0.88128 0
M  V30 5859 C 555.231 -2.90786 -1.70133 0
M  V30 5860 O 555.761 -2.88 -2.80034 0
M  V30 5861 N 553.967 -2.4723 -1.52728 0
M  V30 5862 H 553.514 -2.49695 -0.633257 0
M  V30 5863 H 553.472 -2.12094 -2.32085 0
M  V30 5864 N 557.244 -0.608902 -1.45362 0
M  V30 5865 C 558.493 -0.10218 -2.01441 0
M  V30 5866 C 558.806 1.27546 -1.48295 0
M  V30 5867 O 560.012 1.87498 -1.96359 0
M  V30 5868 C 558.468 -0.131985 -3.59658 0
M  V30 5869 C 558.076 -1.50956 -4.21801 0
M  V30 5870 C 559.82 0.319427 -4.23296 0
M  V30 5871 C 557.727 -1.49568 -5.72174 0
M  V30 5872 H 556.657 -0.0344314 -0.753213 0
M  V30 5873 H 559.308 -0.764426 -1.6682 0
M  V30 5874 H 557.69 0.596939 -3.91475 0
M  V30 5875 H 558.864 -2.26029 -4.01556 0
M  V30 5876 H 557.179 -1.90318 -3.70362 0
M  V30 5877 H 559.776 0.349013 -5.3356 0
M  V30 5878 H 560.119 1.34237 -3.94064 0
M  V30 5879 H 560.652 -0.356273 -3.96201 0
M  V30 5880 H 557.391 -2.49626 -6.06108 0
M  V30 5881 H 556.911 -0.787542 -5.94607 0
M  V30 5882 H 558.59 -1.21989 -6.35396 0
M  V30 5883 N 558.722 1.53707 -0.348139 0
M  V30 5884 C 559.655 2.21481 0.549667 0
M  V30 5885 C 560.633 1.20046 1.09671 0
M  V30 5886 O 561.817 1.48883 1.15612 0
M  V30 5887 C 558.944 2.89585 1.75664 0
M  V30 5888 C 557.99 4.04948 1.33864 0
M  V30 5889 S 558.823 5.34325 0.354577 0
M  V30 5890 C 559.979 6.05934 1.56828 0
M  V30 5891 H 560.212 2.97289 -0.0259755 0
M  V30 5892 H 557.745 1.53833 -0.132216 0
M  V30 5893 H 559.703 3.29441 2.44906 0
M  V30 5894 H 558.364 2.13535 2.30351 0
M  V30 5895 H 557.557 4.51552 2.23868 0
M  V30 5896 H 557.159 3.66893 0.725651 0
M  V30 5897 H 559.451 6.29606 2.50205 0
M  V30 5898 H 560.394 6.98799 1.14395 0
M  V30 5899 H 560.802 5.36151 1.76642 0
M  V30 5900 N 560.2 0.0768682 1.57412 0
M  V30 5901 C 561.133 -0.924685 2.08626 0
M  V30 5902 C 562.111 -1.28792 0.992542 0
M  V30 5903 O 563.295 -1.39634 1.26628 0
M  V30 5904 C 560.422 -2.23131 2.54814 0
M  V30 5905 C 559.468 -2.01928 3.75669 0
M  V30 5906 S 560.301 -1.27397 5.20125 0
M  V30 5907 C 561.457 -2.59329 5.69648 0
M  V30 5908 H 561.69 -0.488928 2.93252 0
M  V30 5909 H 559.223 -0.136014 1.538 0
M  V30 5910 H 561.181 -2.98226 2.82084 0
M  V30 5911 H 559.842 -2.63831 1.70447 0
M  V30 5912 H 559.035 -2.98639 4.05993 0
M  V30 5913 H 558.637 -1.34967 3.48798 0
M  V30 5914 H 560.929 -3.55394 5.76803 0
M  V30 5915 H 561.872 -2.33608 6.68456 0
M  V30 5916 H 562.28 -2.66767 4.9749 0
M  V30 5917 N 561.678 -1.56367 -0.196722 0
M  V30 5918 C 562.61 -1.90941 -1.26784 0
M  V30 5919 C 563.623 -0.799928 -1.41792 0
M  V30 5920 O 564.812 -1.07833 -1.42247 0
M  V30 5921 C 561.912 -2.12477 -2.6402 0
M  V30 5922 C 561.085 -3.43616 -2.70641 0
M  V30 5923 C 560.144 -3.54284 -3.89062 0
M  V30 5924 O 559.17 -4.2712 -3.76241 0
M  V30 5925 N 560.372 -2.87252 -5.04447 0
M  V30 5926 H 563.137 -2.83417 -0.974417 0
M  V30 5927 H 560.698 -1.57215 -0.386649 0
M  V30 5928 H 562.69 -2.16904 -3.41665 0
M  V30 5929 H 561.26 -1.26508 -2.85857 0
M  V30 5930 H 560.48 -3.51072 -1.79283 0
M  V30 5931 H 561.768 -4.29958 -2.72054 0
M  V30 5932 H 561.166 -2.27901 -5.17762 0
M  V30 5933 H 559.723 -2.97308 -5.80044 0
M  V30 5934 N 563.156 0.464375 -1.50603 0
M  V30 5935 C 564.572 0.798684 -1.38178 0
M  V30 5936 C 564.772 1.96568 -0.44308 0
M  V30 5937 O 563.828 2.52252 0.111814 0
M  V30 5938 C 565.141 1.10444 -2.79683 0
M  V30 5939 C 566.689 1.2105 -2.88645 0
M  V30 5940 C 567.164 1.54934 -4.30998 0
M  V30 5941 N 568.655 1.61913 -4.3398 0
M  V30 5942 C 569.39 1.8965 -5.41129 0
M  V30 5943 N 568.886 2.15361 -6.58477 0
M  V30 5944 N 570.679 1.91207 -5.28579 0
M  V30 5945 H 562.83 -0.304603 -2.10204 0
M  V30 5946 H 565.093 -0.0737804 -0.945125 0
M  V30 5947 H 564.799 0.319934 -3.50242 0
M  V30 5948 H 564.673 2.03896 -3.17342 0
M  V30 5949 H 567.06 1.98567 -2.18301 0
M  V30 5950 H 567.141 0.255613 -2.5452 0
M  V30 5951 H 566.785 0.779549 -5.01882 0
M  V30 5952 H 566.715 2.51584 -4.62615 0
M  V30 5953 H 569.206 1.44055 -3.49366 0
M  V30 5954 H 569.519 2.35818 -7.35941 0
M  V30 5955 H 567.864 2.1274 -6.6164 0
M  V30 5956 H 571.055 1.70622 -4.35897 0
M  V30 5957 H 571.228 2.12488 -6.12171 0
M  V30 5958 N 564.634 1.40294 0.718013 0
M  V30 5959 C 565.882 1.38167 1.47494 0
M  V30 5960 C 566.203 -0.01607 1.94993 0
M  V30 5961 O 565.473 -0.970396 1.70177 0
M  V30 5962 H 564.053 0.508505 0.547203 0
M  V30 5963 H 566.715 1.75324 0.851322 0
M  V30 5964 H 565.811 2.05503 2.34894 0
M  V30 5965 N 566.112 -0.949982 1.2575 0
M  V30 5966 C 567.06 -2.06869 1.06339 0
M  V30 5967 C 568.054 -1.69399 -0.00708901 0
M  V30 5968 O 569.26 -1.79383 0.148897 0
M  V30 5969 H 565.635 -0.677197 0.326969 0
M  V30 5970 H 567.606 -2.20396 2.01167 0
M  V30 5971 C 566.355 -3.40503 0.703769 0
M  V30 5972 H 565.678 -3.69807 1.51931 0
M  V30 5973 H 567.118 -4.19623 0.607677 0
M  V30 5974 C 565.577 -3.31685 -0.5905 0
M  V30 5975 O 566.107 -3.67085 -1.63131 0
M  V30 5976 N 564.313 -2.84797 -0.577859 0
M  V30 5977 H 563.86 -2.56186 0.26951 0
M  V30 5978 H 563.818 -2.79279 -1.44398 0
M  V30 5979 N 567.59 -1.07411 -1.15328 0
M  V30 5980 C 568.837 -0.797649 -1.86128 0
M  V30 5981 C 569.165 0.676298 -1.82364 0
M  V30 5982 O 568.42 1.51223 -1.24218 0
M  V30 5983 C 568.719 -1.25191 -3.34757 0
M  V30 5984 C 568.385 -2.73191 -3.58716 0
M  V30 5985 C 567.047 -3.13616 -3.64964 0
M  V30 5986 C 569.399 -3.68718 -3.6837 0
M  V30 5987 C 566.727 -4.48383 -3.78377 0
M  V30 5988 C 569.079 -5.03248 -3.83306 0
M  V30 5989 C 567.743 -5.43293 -3.878 0
M  V30 5990 H 567.013 -0.29188 -0.681092 0
M  V30 5991 H 569.66 -1.34524 -1.36292 0
M  V30 5992 H 567.965 -0.623712 -3.86804 0
M  V30 5993 H 569.662 -1.01489 -3.87945 0
M  V30 5994 H 566.252 -2.40898 -3.54494 0
M  V30 5995 H 570.436 -3.38614 -3.62842 0
M  V30 5996 H 565.692 -4.78877 -3.80114 0
M  V30 5997 H 569.866 -5.77142 -3.89718 0
M  V30 5998 H 567.493 -6.47721 -3.97946 0
M  V30 5999 N 569.068 1.32177 -0.85831 0
M  V30 6000 C 570.484 1.49873 -0.548656 0
M  V30 6001 C 570.684 1.79278 0.919874 0
M  V30 6002 O 569.74 1.86451 1.70271 0
M  V30 6003 C 571.053 2.64043 -1.4388 0
M  V30 6004 C 572.601 2.77928 -1.43961 0
M  V30 6005 C 573.076 3.95182 -2.31506 0
M  V30 6006 N 574.567 4.0245 -2.29321 0
M  V30 6007 C 575.302 4.9242 -2.93786 0
M  V30 6008 N 574.798 5.87373 -3.67376 0
M  V30 6009 N 576.591 4.85572 -2.83155 0
M  V30 6010 H 568.742 1.11357 -1.80868 0
M  V30 6011 H 571.005 0.549175 -0.772729 0
M  V30 6012 H 570.711 2.49055 -2.48324 0
M  V30 6013 H 570.585 3.59912 -1.12885 0
M  V30 6014 H 572.972 2.92338 -0.402813 0
M  V30 6015 H 573.053 1.82762 -1.78974 0
M  V30 6016 H 572.697 3.81531 -3.35256 0
M  V30 6017 H 572.627 4.89633 -1.93823 0
M  V30 6018 H 575.118 3.34507 -1.75822 0
M  V30 6019 H 575.431 6.52728 -4.13722 0
M  V30 6020 H 573.776 5.87388 -3.71484 0
M  V30 6021 H 576.967 4.10363 -2.25211 0
M  V30 6022 H 577.14 5.55486 -3.33676 0
M  V30 6023 N 570.547 0.616602 1.45037 0
M  V30 6024 C 571.495 -0.109318 2.32343 0
M  V30 6025 C 572.489 -0.850543 1.465 0
M  V30 6026 O 573.695 -0.765088 1.62931 0
M  V30 6027 H 570.07 -0.0541091 0.750051 0
M  V30 6028 H 572.041 0.645326 2.91338 0
M  V30 6029 C 570.79 -1.0872 3.30266 0
M  V30 6030 H 570.113 -0.526267 3.96321 0
M  V30 6031 H 571.553 -1.56489 3.94065 0
M  V30 6032 C 570.012 -2.16525 2.58105 0
M  V30 6033 O 570.542 -3.244 2.36913 0
M  V30 6034 N 568.748 -1.92057 2.18088 0
M  V30 6035 H 568.295 -1.04337 2.35524 0
M  V30 6036 H 568.253 -2.64391 1.70131 0
M  V30 6037 N 572.025 -1.5352 0.356285 0
M  V30 6038 C 572.957 -2.23009 -0.529127 0
M  V30 6039 C 573.97 -1.241 -1.05371 0
M  V30 6040 O 575.159 -1.50379 -0.961679 0
M  V30 6041 C 572.259 -2.90685 -1.74229 0
M  V30 6042 C 571.432 -4.16019 -1.35081 0
M  V30 6043 C 570.491 -4.66989 -2.42502 0
M  V30 6044 O 569.517 -5.30895 -2.05279 0
M  V30 6045 N 570.719 -4.44006 -3.7395 0
M  V30 6046 H 573.484 -2.99627 0.0660501 0
M  V30 6047 H 571.045 -1.60885 0.181014 0
M  V30 6048 H 573.037 -3.21695 -2.4555 0
M  V30 6049 H 571.607 -2.17575 -2.24454 0
M  V30 6050 H 570.827 -3.91414 -0.467833 0
M  V30 6051 H 572.115 -4.9752 -1.06542 0
M  V30 6052 H 571.513 -3.92924 -4.06973 0
M  V30 6053 H 570.07 -4.7959 -4.41403 0
M  V30 6054 N 573.503 -0.0852151 -1.57369 0
M  V30 6055 C 574.919 0.271436 -1.57275 0
M  V30 6056 C 575.119 1.69109 -1.09565 0
M  V30 6057 O 574.175 2.40549 -0.767611 0
M  V30 6058 C 575.488 0.0688638 -3.00621 0
M  V30 6059 C 577.036 0.137373 -3.12698 0
M  V30 6060 C 577.511 -0.0370832 -4.57985 0
M  V30 6061 N 579.002 0.0180794 -4.63196 0
M  V30 6062 C 579.737 -0.0922953 -5.73326 0
M  V30 6063 N 579.233 -0.256948 -6.92323 0
M  V30 6064 N 581.026 -0.0342702 -5.6209 0
M  V30 6065 H 573.177 -1.01288 -1.86693 0
M  V30 6066 H 575.44 -0.396138 -0.861266 0
M  V30 6067 H 575.146 -0.911277 -3.39689 0
M  V30 6068 H 575.02 0.815442 -3.6828 0
M  V30 6069 H 577.407 1.10801 -2.73509 0
M  V30 6070 H 577.488 -0.640532 -2.47651 0
M  V30 6071 H 577.132 -1.00455 -4.97867 0
M  V30 6072 H 577.062 0.760392 -5.21081 0
M  V30 6073 H 579.553 0.143202 -3.77629 0
M  V30 6074 H 579.866 -0.332949 -7.72082 0
M  V30 6075 H 578.211 -0.292487 -6.94384 0
M  V30 6076 H 581.402 0.0931605 -4.68007 0
M  V30 6077 H 581.575 -0.12374 -6.47882 0
M  V30 6078 N 574.981 1.5647 0.188427 0
M  V30 6079 C 575.928 1.95073 1.23349 0
M  V30 6080 C 576.898 0.812238 1.44886 0
M  V30 6081 O 578.083 1.07095 1.57909 0
M  V30 6082 C 575.223 2.30124 2.57171 0
M  V30 6083 C 574.336 3.57069 2.43157 0
M  V30 6084 C 573.471 3.81411 3.69729 0
M  V30 6085 C 572.51 5.0176 3.50575 0
M  V30 6086 N 571.647 5.22321 4.69175 0
M  V30 6087 H 576.487 2.84171 0.89728 0
M  V30 6088 H 574.024 1.40623 0.431683 0
M  V30 6089 H 575.982 2.48463 3.35145 0
M  V30 6090 H 574.612 1.44159 2.88822 0
M  V30 6091 H 573.664 3.4674 1.56447 0
M  V30 6092 H 574.976 4.452 2.24942 0
M  V30 6093 H 574.13 4.00026 4.56141 0
M  V30 6094 H 572.869 2.91624 3.90905 0
M  V30 6095 H 571.874 4.83061 2.62549 0
M  V30 6096 H 573.099 5.93063 3.30837 0
M  V30 6097 H 571.045 4.35483 4.90602 0
M  V30 6098 H 570.962 6.04643 4.53809 0
M  V30 6099 H 572.23 5.45401 5.56919 0
M  V30 6100 N 576.459 -0.456382 1.50847 0
M  V30 6101 C 577.687 -1.23026 1.66349 0
M  V30 6102 C 578.102 -1.85473 0.352868 0
M  V30 6103 O 577.459 -1.69885 -0.666739 0
M  V30 6104 C 577.51 -2.32827 2.76539 0
M  V30 6105 O 577.231 -1.72938 4.02522 0
M  V30 6106 C 578.732 -3.23448 3.03144 0
M  V30 6107 H 575.952 -0.371527 0.558756 0
M  V30 6108 H 578.496 -0.543082 1.97157 0
M  V30 6109 H 576.651 -2.97294 2.48384 0
M  V30 6110 H 577.065 -2.45357 4.63573 0
M  V30 6111 H 578.539 -3.96669 3.83872 0
M  V30 6112 H 579.016 -3.83094 2.14793 0
M  V30 6113 H 579.622 -2.64702 3.32886 0
M  V30 6114 N 577.937 -1.40673 -0.710563 0
M  V30 6115 C 579.183 -1.39428 -1.47267 0
M  V30 6116 C 579.516 0.00182129 -1.942 0
M  V30 6117 O 578.791 0.971387 -1.68506 0
M  V30 6118 C 579.074 -2.38812 -2.6952 0
M  V30 6119 C 578.927 -3.87467 -2.28449 0
M  V30 6120 C 580.246 -2.3566 -3.71689 0
M  V30 6121 H 577.365 -0.507768 -0.534173 0
M  V30 6122 H 580.007 -1.71843 -0.810547 0
M  V30 6123 H 578.157 -2.113 -3.26013 0
M  V30 6124 H 579.829 -4.25825 -1.77399 0
M  V30 6125 H 578.072 -4.03058 -1.60395 0
M  V30 6126 H 578.743 -4.5253 -3.16103 0
M  V30 6127 H 581.219 -2.6004 -3.24836 0
M  V30 6128 H 580.095 -3.07237 -4.54859 0
M  V30 6129 H 580.356 -1.36996 -4.20339 0
M  V30 6130 N 579.415 0.9433 -1.26252 0
M  V30 6131 C 580.362 2.0417 -1.07625 0
M  V30 6132 C 581.332 1.6609 0.0180738 0
M  V30 6133 O 582.517 1.90276 -0.141289 0
M  V30 6134 C 579.657 3.37653 -0.713043 0
M  V30 6135 C 578.77 3.88783 -1.8834 0
M  V30 6136 C 577.905 5.10642 -1.4635 0
M  V30 6137 C 576.944 5.54028 -2.60229 0
M  V30 6138 N 576.081 6.67092 -2.18936 0
M  V30 6139 H 580.921 2.19436 -2.01623 0
M  V30 6140 H 578.458 1.07519 -1.00389 0
M  V30 6141 H 580.416 4.14391 -0.483358 0
M  V30 6142 H 579.046 3.22241 0.18996 0
M  V30 6143 H 578.098 3.08464 -2.22608 0
M  V30 6144 H 579.41 4.16922 -2.73821 0
M  V30 6145 H 578.564 5.94832 -1.19414 0
M  V30 6146 H 577.303 4.84244 -0.579568 0
M  V30 6147 H 576.308 4.68396 -2.87898 0
M  V30 6148 H 577.533 5.82429 -3.49219 0
M  V30 6149 H 575.479 6.42381 -1.32974 0
M  V30 6150 H 575.396 6.94806 -2.97961 0
M  V30 6151 H 576.664 7.54662 -1.95206 0
M  V30 6152 N 580.893 1.08022 1.14757 0
M  V30 6153 C 582.133 0.816959 1.87364 0
M  V30 6154 C 582.497 -0.645407 1.80827 0
M  V30 6155 O 583.698 -1.024 2.48531 0
M  V30 6156 C 581.969 1.31961 3.32146 0
M  V30 6157 S 583.528 1.18806 4.2241 0
M  V30 6158 H 580.346 0.295862 0.646519 0
M  V30 6159 H 582.948 1.3807 1.38408 0
M  V30 6160 H 581.652 2.37847 3.3445 0
M  V30 6161 H 581.183 0.751371 3.86158 0
M  V30 6162 H 583.198 0.129865 4.9603 0
M  V30 6163 N 582.371 -1.3172 0.865308 0
M  V30 6164 C 583.618 -1.96876 0.473931 0
M  V30 6165 C 583.946 -1.68425 -0.972786 0
M  V30 6166 O 583.201 -0.970742 -1.69927 0
M  V30 6167 C 583.5 -3.5102 0.672283 0
M  V30 6168 C 583.166 -3.9948 2.09108 0
M  V30 6169 C 581.828 -4.12425 2.4791 0
M  V30 6170 C 584.18 -4.2503 3.0166 0
M  V30 6171 C 581.508 -4.48267 3.78515 0
M  V30 6172 C 583.86 -4.62335 4.31774 0
M  V30 6173 C 582.524 -4.73486 4.70497 0
M  V30 6174 H 581.794 -0.72042 0.173424 0
M  V30 6175 H 584.441 -1.56937 1.0974 0
M  V30 6176 H 582.746 -3.91785 -0.034356 0
M  V30 6177 H 584.443 -3.99475 0.349353 0
M  V30 6178 H 581.033 -3.89898 1.77981 0
M  V30 6179 H 585.217 -4.14529 2.7291 0
M  V30 6180 H 580.473 -4.55097 4.08285 0
M  V30 6181 H 584.647 -4.81058 5.03543 0
M  V30 6182 H 582.274 -5.01016 5.71741 0
M  V30 6183 N 583.85 -0.624285 -1.44708 0
M  V30 6184 C 584.798 0.0969952 -2.32398 0
M  V30 6185 C 585.792 0.842762 -1.46949 0
M  V30 6186 O 586.998 0.756436 -1.63334 0
M  V30 6187 H 583.373 0.0501306 -0.750327 0
M  V30 6188 H 585.344 -0.660767 -2.90992 0
M  V30 6189 C 584.093 1.06967 -3.30837 0
M  V30 6190 H 583.416 0.505242 -3.96595 0
M  V30 6191 H 584.856 1.54397 -3.94889 0
M  V30 6192 C 583.315 2.15153 -2.5925 0
M  V30 6193 O 583.845 3.23139 -2.3863 0
M  V30 6194 N 582.051 1.90898 -2.19103 0
M  V30 6195 H 581.598 1.03086 -2.36074 0
M  V30 6196 H 581.556 2.63485 -1.71531 0
M  V30 6197 N 585.328 1.53329 -0.364422 0
M  V30 6198 C 586.568 2.0315 0.22572 0
M  V30 6199 C 586.932 1.24589 1.46087 0
M  V30 6200 O 588.133 1.64411 2.12656 0
M  V30 6201 C 586.404 3.53718 0.511663 0
M  V30 6202 S 587.963 4.25412 1.07564 0
M  V30 6203 H 584.781 0.70795 0.0657843 0
M  V30 6204 H 587.383 1.88811 -0.507019 0
M  V30 6205 H 586.087 4.08497 -0.394784 0
M  V30 6206 H 585.618 3.72217 1.27351 0
M  V30 6207 H 587.633 4.36486 2.35997 0
M  V30 6208 N 586.806 0.0935595 1.57322 0
M  V30 6209 C 588.054 -0.569383 1.93913 0
M  V30 6210 C 588.375 -1.68817 0.976009 0
M  V30 6211 O 587.645 -1.9588 0.0278099 0
M  V30 6212 H 586.225 -0.21332 0.715894 0
M  V30 6213 H 588.887 0.156531 1.9427 0
M  V30 6214 H 587.983 -0.980577 2.96296 0
M  V30 6215 N 588.284 -1.56567 -0.180126 0
M  V30 6216 C 589.231 -1.95725 -1.22313 0
M  V30 6217 C 590.201 -0.819911 -1.44453 0
M  V30 6218 O 591.386 -1.07931 -1.57339 0
M  V30 6219 C 588.526 -2.31484 -2.55947 0
M  V30 6220 C 587.639 -3.58354 -2.4126 0
M  V30 6221 C 586.774 -3.83366 -3.67701 0
M  V30 6222 C 585.813 -5.03612 -3.47909 0
M  V30 6223 N 584.95 -5.24802 -4.66398 0
M  V30 6224 H 589.79 -2.84642 -0.882198 0
M  V30 6225 H 587.327 -1.4085 -0.42422 0
M  V30 6226 H 589.285 -2.50237 -3.33822 0
M  V30 6227 H 587.915 -1.45689 -2.88053 0
M  V30 6228 H 586.967 -3.47565 -1.54606 0
M  V30 6229 H 588.279 -4.46386 -2.22577 0
M  V30 6230 H 587.433 -4.02439 -4.54013 0
M  V30 6231 H 586.172 -2.93692 -3.89353 0
M  V30 6232 H 585.177 -4.84447 -2.59983 0
M  V30 6233 H 586.402 -5.94809 -3.27688 0
M  V30 6234 H 584.348 -4.38079 -4.88286 0
M  V30 6235 H 584.265 -6.07041 -4.50596 0
M  V30 6236 H 585.533 -5.48346 -5.54019 0
M  V30 6237 N 589.762 0.448376 -1.51087 0
M  V30 6238 C 590.672 1.56882 -1.74428 0
M  V30 6239 C 591.688 1.62268 -0.62809 0
M  V30 6240 O 592.864 1.79716 -0.909075 0
M  V30 6241 C 589.929 2.92947 -1.85426 0
M  V30 6242 C 588.99 2.97766 -3.09247 0
M  V30 6243 C 588.223 4.27341 -3.19711 0
M  V30 6244 O 588.446 5.19112 -2.36387 0
M  V30 6245 O 587.38 4.38219 -4.12611 0
M  V30 6246 H 591.206 1.40104 -2.69452 0
M  V30 6247 H 588.791 0.630247 -1.35456 0
M  V30 6248 H 590.673 3.73719 -1.94709 0
M  V30 6249 H 589.348 3.09876 -0.935887 0
M  V30 6250 H 588.255 2.15989 -3.0545 0
M  V30 6251 H 589.588 2.8578 -4.00738 0
M  V30 6252 N 591.24 1.41047 0.703093 0
M  V30 6253 C 592.488 1.39723 1.4602 0
M  V30 6254 C 592.809 0.00461257 1.94999 0
M  V30 6255 O 592.079 -0.952292 1.71196 0
M  V30 6256 H 590.659 0.514281 0.541779 0
M  V30 6257 H 593.321 1.76217 0.832678 0
M  V30 6258 H 592.417 2.07982 2.32701 0
M  V30 6259 N 592.718 -0.936591 1.26751 0
M  V30 6260 C 593.668 -2.0219 1.05371 0
M  V30 6261 C 594.652 -1.60893 -0.0154112 0
M  V30 6262 O 595.844 -1.75843 0.202085 0
M  V30 6263 C 592.973 -3.36222 0.693541 0
M  V30 6264 C 592.059 -3.8399 1.80035 0
M  V30 6265 N 592.45 -4.0436 3.03852 0
M  V30 6266 C 590.748 -4.12945 1.685 0
M  V30 6267 C 591.449 -4.44 3.75818 0
M  V30 6268 N 590.425 -4.50966 3.03531 0
M  V30 6269 H 594.227 -2.15958 1.99347 0
M  V30 6270 H 591.741 -1.12277 1.17335 0
M  V30 6271 H 593.738 -4.13625 0.521513 0
M  V30 6272 H 592.398 -3.23821 -0.238693 0
M  V30 6273 H 593.409 -3.9092 3.39709 0
M  V30 6274 H 590.086 -4.09308 0.822986 0
M  V30 6275 H 591.476 -4.67914 4.82189 0
M  V30 6276 N 594.196 -1.08629 -1.14182 0
M  V30 6277 C 595.445 -0.812271 -1.84621 0
M  V30 6278 C 595.758 0.664313 -1.83973 0
M  V30 6279 O 596.964 1.05357 -2.50224 0
M  V30 6280 C 595.42 -1.4031 -3.31423 0
M  V30 6281 C 595.028 -2.91164 -3.40481 0
M  V30 6282 C 596.772 -1.20767 -4.06959 0
M  V30 6283 C 594.679 -3.43373 -4.81507 0
M  V30 6284 H 593.609 -0.30019 -0.691666 0
M  V30 6285 H 596.26 -1.30798 -1.28701 0
M  V30 6286 H 594.642 -0.835096 -3.87094 0
M  V30 6287 H 595.816 -3.5412 -2.94848 0
M  V30 6288 H 594.131 -3.09646 -2.78403 0
M  V30 6289 H 596.728 -1.57237 -5.11058 0
M  V30 6290 H 597.071 -0.147664 -4.16038 0
M  V30 6291 H 597.604 -1.74274 -3.57594 0
M  V30 6292 H 594.343 -4.48958 -4.77616 0
M  V30 6293 H 593.863 -2.85176 -5.27669 0
M  V30 6294 H 595.542 -3.40095 -5.50404 0
M  V30 6295 N 595.674 1.31259 -0.872281 0
M  V30 6296 C 596.637 2.26744 -0.334656 0
M  V30 6297 C 597.637 1.52307 0.515681 0
M  V30 6298 O 598.827 1.71148 0.324656 0
M  V30 6299 C 595.959 3.36841 0.524482 0
M  V30 6300 H 597.152 2.75812 -1.17762 0
M  V30 6301 H 594.705 1.42232 -0.648064 0
M  V30 6302 H 595.44 2.93069 1.38855 0
M  V30 6303 H 595.225 3.92009 -0.0844299 0
M  V30 6304 H 596.715 4.07944 0.892838 0
M  V30 6305 N 597.152 0.631951 1.44375 0
M  V30 6306 C 598.099 -0.0724807 2.30686 0
M  V30 6307 C 599.069 -0.835975 1.43529 0
M  V30 6308 O 600.254 -0.816849 1.7243 0
M  V30 6309 C 597.394 -1.04753 3.28817 0
M  V30 6310 C 596.507 -0.282367 4.31076 0
M  V30 6311 C 595.642 -1.2493 5.163 0
M  V30 6312 C 594.681 -0.473349 6.10267 0
M  V30 6313 N 593.818 -1.39079 6.88187 0
M  V30 6314 H 598.658 0.669477 2.90383 0
M  V30 6315 H 596.195 0.341927 1.43071 0
M  V30 6316 H 598.153 -1.62623 3.842 0
M  V30 6317 H 596.783 -1.75661 2.70819 0
M  V30 6318 H 595.835 0.412268 3.78159 0
M  V30 6319 H 597.147 0.321955 4.9776 0
M  V30 6320 H 596.301 -1.89931 5.76204 0
M  V30 6321 H 595.04 -1.88755 4.49692 0
M  V30 6322 H 594.045 0.190142 5.49471 0
M  V30 6323 H 595.27 0.16019 6.78911 0
M  V30 6324 H 593.216 -2.01623 6.24247 0
M  V30 6325 H 593.133 -0.840513 7.51313 0
M  V30 6326 H 594.401 -2.02961 7.52613 0
M  V30 6327 N 598.631 -1.53133 0.372548 0
M  V30 6328 C 599.579 -2.27473 -0.485681 0
M  V30 6329 C 600.573 -1.30719 -1.07745 0
M  V30 6330 O 601.779 -1.48321 -1.01985 0
M  V30 6331 H 598.154 -0.731269 -0.175356 0
M  V30 6332 H 600.125 -2.97955 0.162986 0
M  V30 6333 C 598.874 -3.08191 -1.60978 0
M  V30 6334 H 598.197 -3.82488 -1.16373 0
M  V30 6335 H 599.637 -3.63373 -2.18485 0
M  V30 6336 C 598.096 -2.19461 -2.55614 0
M  V30 6337 O 598.626 -1.81008 -3.58607 0
M  V30 6338 N 596.832 -1.83955 -2.24965 0
M  V30 6339 H 596.379 -2.15423 -1.41247 0
M  V30 6340 H 596.337 -1.24874 -2.88538 0
M  V30 6341 N 600.109 -0.101901 -1.5727 0
M  V30 6342 C 601.349 0.563489 -1.96479 0
M  V30 6343 C 601.713 1.64926 -0.983021 0
M  V30 6344 O 602.914 2.37234 -1.26386 0
M  V30 6345 C 601.185 1.09809 -3.40113 0
M  V30 6346 S 602.744 1.7744 -4.01323 0
M  V30 6347 H 599.562 0.183675 -0.686866 0
M  V30 6348 H 602.164 -0.182922 -1.94642 0
M  V30 6349 H 600.868 0.296447 -4.09328 0
M  V30 6350 H 600.399 1.88018 -3.45562 0
M  V30 6351 H 602.414 3.0591 -3.90683 0
M  V30 6352 N 601.587 1.56661 0.17182 0
M  V30 6353 C 603.003 1.50768 0.52357 0
M  V30 6354 C 603.203 0.806072 1.84675 0
M  V30 6355 O 602.259 0.366233 2.4983 0
M  V30 6356 C 603.572 2.955 0.556793 0
M  V30 6357 C 605.12 3.06303 0.644029 0
M  V30 6358 C 605.595 4.52492 0.708148 0
M  V30 6359 N 607.086 4.56737 0.771051 0
M  V30 6360 C 607.821 5.67196 0.841229 0
M  V30 6361 N 607.317 6.87287 0.872272 0
M  V30 6362 N 609.11 5.55165 0.88021 0
M  V30 6363 H 601.261 2.00679 -0.695817 0
M  V30 6364 H 603.524 0.914219 -0.250814 0
M  V30 6365 H 603.23 3.49986 -0.346774 0
M  V30 6366 H 603.104 3.50119 1.40346 0
M  V30 6367 H 605.491 2.51851 1.53802 0
M  V30 6368 H 605.572 2.5477 -0.229297 0
M  V30 6369 H 605.216 5.07575 -0.181585 0
M  V30 6370 H 605.146 5.01781 1.59761 0
M  V30 6371 H 607.637 3.70274 0.755364 0
M  V30 6372 H 607.95 7.6722 0.92698 0
M  V30 6373 H 606.295 6.89898 0.840557 0
M  V30 6374 H 609.486 4.60263 0.852956 0
M  V30 6375 H 609.659 6.41271 0.931439 0
M  V30 6376 N 603.065 -0.440357 1.51323 0
M  V30 6377 C 604.028 -1.51679 1.71832 0
M  V30 6378 C 605.028 -1.49648 0.588386 0
M  V30 6379 O 606.218 -1.51724 0.855891 0
M  V30 6380 C 603.35 -2.91228 1.77199 0
M  V30 6381 H 604.543 -1.34799 2.67898 0
M  V30 6382 H 602.096 -0.66883 1.41267 0
M  V30 6383 H 602.831 -3.13516 0.829363 0
M  V30 6384 H 602.616 -2.94107 2.59314 0
M  V30 6385 H 604.106 -3.69321 1.94915 0
M  V30 6386 N 604.543 -1.41418 -0.695603 0
M  V30 6387 C 605.954 -1.36335 -1.27552 0
M  V30 6388 C 606.305 -0.0464336 -1.96145 0
M  V30 6389 O 605.43 0.855304 -1.9878 0
M  V30 6390 C 606.025 -2.46941 -2.3196 0
M  V30 6391 C 604.584 -2.45256 -2.85529 0
M  V30 6392 C 603.731 -2.2679 -1.59566 0
M  V30 6393 H 606.682 -1.50934 -0.490362 0
M  V30 6394 H 606.703 -2.15997 -3.1325 0
M  V30 6395 H 606.215 -3.42775 -1.82008 0
M  V30 6396 H 604.316 -1.53179 -3.39657 0
M  V30 6397 H 604.429 -3.41565 -3.35961 0
M  V30 6398 H 602.793 -1.74667 -1.85374 0
M  V30 6399 H 603.576 -3.24651 -1.1161 0
M  V30 6400 N 606.021 0.929856 -1.27246 0
M  V30 6401 C 607.437 1.20542 -1.04603 0
M  V30 6402 C 607.637 2.00276 0.221754 0
M  V30 6403 O 606.693 2.34835 0.927833 0
M  V30 6404 C 608.006 1.95566 -2.28417 0
M  V30 6405 C 609.554 2.08513 -2.33433 0
M  V30 6406 C 610.029 2.86943 -3.5697 0
M  V30 6407 N 611.52 2.94512 -3.57515 0
M  V30 6408 C 612.255 3.55656 -4.49774 0
M  V30 6409 N 611.751 4.18209 -5.52334 0
M  V30 6410 N 613.544 3.53038 -4.37402 0
M  V30 6411 H 605.695 0.397113 -2.08655 0
M  V30 6412 H 607.958 0.238277 -0.917566 0
M  V30 6413 H 607.664 1.44395 -3.20691 0
M  V30 6414 H 607.538 2.9619 -2.33563 0
M  V30 6415 H 609.925 2.58872 -1.41666 0
M  V30 6416 H 610.006 1.07117 -2.32292 0
M  V30 6417 H 609.65 2.37268 -4.49072 0
M  V30 6418 H 609.58 3.8862 -3.55362 0
M  V30 6419 H 612.071 2.50053 -2.83341 0
M  V30 6420 H 612.384 4.62796 -6.18902 0
M  V30 6421 H 610.729 4.16761 -5.56179 0
M  V30 6422 H 613.92 3.0337 -3.56489 0
M  V30 6423 H 614.093 4.004 -5.09493 0
M  V30 6424 N 607.499 1.09233 1.13605 0
M  V30 6425 C 608.446 0.729921 2.18954 0
M  V30 6426 C 609.416 -0.287916 1.63586 0
M  V30 6427 O 610.601 -0.170003 1.90041 0
M  V30 6428 C 607.741 0.154489 3.44754 0
M  V30 6429 C 606.854 1.22613 4.14234 0
M  V30 6430 C 605.989 0.613657 5.27644 0
M  V30 6431 C 605.028 1.66674 5.8897 0
M  V30 6432 N 604.165 1.07545 6.93814 0
M  V30 6433 H 609.005 1.63257 2.49302 0
M  V30 6434 H 606.542 0.815693 1.22413 0
M  V30 6435 H 608.5 -0.196923 4.16735 0
M  V30 6436 H 607.13 -0.711433 3.14863 0
M  V30 6437 H 606.182 1.69485 3.40557 0
M  V30 6438 H 607.494 2.0238 4.55899 0
M  V30 6439 H 606.648 0.210976 6.06333 0
M  V30 6440 H 605.387 -0.215584 4.87223 0
M  V30 6441 H 604.392 2.07899 5.08978 0
M  V30 6442 H 605.617 2.49861 6.31464 0
M  V30 6443 H 603.563 0.267451 6.55455 0
M  V30 6444 H 603.48 1.81011 7.3401 0
M  V30 6445 H 604.748 0.698906 7.7636 0
M  V30 6446 N 608.977 -1.30795 0.87923 0
M  V30 6447 C 609.924 -2.28282 0.339968 0
M  V30 6448 C 610.894 -1.56134 -0.566685 0
M  V30 6449 O 612.079 -1.84231 -0.496338 0
M  V30 6450 C 609.219 -3.42225 -0.444501 0
M  V30 6451 C 608.332 -4.29204 0.490717 0
M  V30 6452 C 607.467 -5.30302 -0.308784 0
M  V30 6453 C 606.506 -6.08929 0.622272 0
M  V30 6454 N 605.643 -7.01957 -0.14155 0
M  V30 6455 H 610.483 -2.73794 1.17647 0
M  V30 6456 H 608.02 -1.34682 0.591527 0
M  V30 6457 H 609.978 -4.07038 -0.915186 0
M  V30 6458 H 608.608 -2.97799 -1.24562 0
M  V30 6459 H 607.66 -3.6475 1.07988 0
M  V30 6460 H 608.972 -4.84045 1.20425 0
M  V30 6461 H 608.126 -6.00835 -0.841575 0
M  V30 6462 H 606.865 -4.7614 -1.05556 0
M  V30 6463 H 605.87 -5.37278 1.16674 0
M  V30 6464 H 607.095 -6.65178 1.36804 0
M  V30 6465 H 605.041 -6.50192 -0.870966 0
M  V30 6466 H 604.958 -7.54261 0.51246 0
M  V30 6467 H 606.226 -7.76741 -0.655271 0
M  V30 6468 N 610.455 -0.639598 -1.44038 0
M  V30 6469 C 611.703 -0.147188 -2.01563 0
M  V30 6470 C 612.024 1.2384 -1.50628 0
M  V30 6471 O 611.294 1.82452 -0.713316 0
M  V30 6472 H 609.874 -0.0514231 -0.745228 0
M  V30 6473 H 612.536 -0.828205 -1.76428 0
M  V30 6474 H 611.632 -0.121358 -3.11864 0
M  V30 6475 N 611.933 1.52934 -0.380664 0
M  V30 6476 C 613.173 2.03378 0.204161 0
M  V30 6477 C 613.537 1.26132 1.44758 0
M  V30 6478 O 614.738 1.66657 2.109 0
M  V30 6479 C 613.009 3.54241 0.474118 0
M  V30 6480 S 614.568 4.26529 1.03046 0
M  V30 6481 H 611.386 0.708608 0.0582719 0
M  V30 6482 H 613.988 1.88263 -0.527017 0
M  V30 6483 H 612.692 4.08055 -0.438088 0
M  V30 6484 H 612.223 3.73547 1.23396 0
M  V30 6485 H 614.238 4.38964 2.31354 0
M  V30 6486 N 613.412 0.11024 1.57214 0
M  V30 6487 C 614.658 -0.544479 1.95977 0
M  V30 6488 C 615.013 -1.64845 0.992171 0
M  V30 6489 O 614.306 -1.91589 0.0206981 0
M  V30 6490 C 614.5 -1.13102 3.39032 0
M  V30 6491 C 614.329 -0.0854079 4.49619 0
M  V30 6492 C 613.099 0.343373 5.04132 0
M  V30 6493 C 615.297 0.692232 5.0962 0
M  V30 6494 N 613.279 1.37567 5.98288 0
M  V30 6495 C 614.65 1.57596 5.99636 0
M  V30 6496 C 616.705 0.744085 4.92309 0
M  V30 6497 C 615.408 2.50701 6.74197 0
M  V30 6498 C 617.434 1.6628 5.67543 0
M  V30 6499 C 616.796 2.53412 6.57238 0
M  V30 6500 H 612.895 -0.169124 0.763493 0
M  V30 6501 H 615.479 0.196326 1.93708 0
M  V30 6502 H 613.65 -1.84158 3.41965 0
M  V30 6503 H 615.382 -1.74934 3.64939 0
M  V30 6504 H 612.137 -0.0473277 4.73576 0
M  V30 6505 H 612.561 1.89048 6.50069 0
M  V30 6506 H 617.203 0.0845825 4.22715 0
M  V30 6507 H 614.921 3.17669 7.43043 0
M  V30 6508 H 618.507 1.70825 5.56156 0
M  V30 6509 H 617.387 3.23347 7.14434 0
M  V30 6510 N 614.89 -1.56749 -0.16351 0
M  V30 6511 C 616.306 -1.51043 -0.515567 0
M  V30 6512 C 616.506 -0.815855 -1.84245 0
M  V30 6513 O 615.562 -0.379477 -2.49632 0
M  V30 6514 C 616.875 -2.95791 -0.541114 0
M  V30 6515 C 618.423 -3.0664 -0.627776 0
M  V30 6516 C 618.898 -4.52861 -0.684141 0
M  V30 6517 N 620.389 -4.5714 -0.746818 0
M  V30 6518 C 621.124 -5.67634 -0.811137 0
M  V30 6519 N 620.62 -6.8774 -0.835811 0
M  V30 6520 N 622.413 -5.55624 -0.850756 0
M  V30 6521 H 614.564 -2.00307 0.70645 0
M  V30 6522 H 616.827 -0.912876 0.255659 0
M  V30 6523 H 616.533 -3.49797 0.365329 0
M  V30 6524 H 616.407 -3.50858 -1.38487 0
M  V30 6525 H 618.794 -2.52663 -1.52464 0
M  V30 6526 H 618.875 -2.54645 0.242805 0
M  V30 6527 H 618.519 -5.07472 0.2085 0
M  V30 6528 H 618.449 -5.02621 -1.57098 0
M  V30 6529 H 620.94 -3.70669 -0.735717 0
M  V30 6530 H 621.253 -7.67701 -0.886279 0
M  V30 6531 H 619.598 -6.90334 -0.803958 0
M  V30 6532 H 622.789 -4.60709 -0.828535 0
M  V30 6533 H 622.962 -6.41756 -0.897418 0
M  V30 6534 N 616.368 0.432326 -1.51554 0
M  V30 6535 C 617.608 1.19076 -1.66133 0
M  V30 6536 C 617.972 1.88364 -0.371873 0
M  V30 6537 O 619.173 2.65904 -0.39349 0
M  V30 6538 C 617.444 2.1768 -2.83461 0
M  V30 6539 S 619.003 3.01943 -3.18396 0
M  V30 6540 H 615.821 0.403735 -0.585251 0
M  V30 6541 H 618.423 0.481554 -1.89476 0
M  V30 6542 H 617.127 1.65424 -3.75583 0
M  V30 6543 H 616.658 2.93174 -2.62322 0
M  V30 6544 H 618.673 4.19373 -2.65219 0
M  V30 6545 N 617.846 1.41785 0.688094 0
M  V30 6546 C 619.094 1.41264 1.4453 0
M  V30 6547 C 619.415 0.0252946 1.94984 0
M  V30 6548 O 618.685 -0.934081 1.72197 0
M  V30 6549 H 617.265 0.519998 0.536294 0
M  V30 6550 H 619.927 1.7709 0.813941 0
M  V30 6551 H 619.023 2.10439 2.30482 0
M  V30 6552 N 619.324 -0.923095 1.27737 0
M  V30 6553 C 620.74 -1.19985 1.05241 0
M  V30 6554 C 620.94 -2.00391 -0.21113 0
M  V30 6555 O 619.996 -2.35324 -0.915366 0
M  V30 6556 C 621.309 -1.94352 2.29451 0
M  V30 6557 C 622.857 -2.07273 2.34536 0
M  V30 6558 C 623.332 -2.85046 3.58487 0
M  V30 6559 N 624.823 -2.92612 3.59072 0
M  V30 6560 C 625.558 -3.53266 4.51654 0
M  V30 6561 N 625.054 -4.15274 5.54545 0
M  V30 6562 N 626.847 -3.50714 4.39268 0
M  V30 6563 H 618.998 -0.386042 2.08862 0
M  V30 6564 H 621.261 -0.233407 0.918817 0
M  V30 6565 H 620.967 -1.42692 3.21453 0
M  V30 6566 H 620.841 -2.94947 2.3513 0
M  V30 6567 H 623.228 -2.58117 1.43037 0
M  V30 6568 H 623.309 -1.05884 2.32857 0
M  V30 6569 H 622.953 -2.34884 4.50324 0
M  V30 6570 H 622.883 -3.8673 3.57418 0
M  V30 6571 H 625.374 -2.48547 2.84663 0
M  V30 6572 H 625.687 -4.59507 6.21348 0
M  V30 6573 H 624.032 -4.13806 5.58382 0
M  V30 6574 H 627.223 -3.01475 3.58093 0
M  V30 6575 H 627.396 -3.97693 5.1161 0
M  V30 6576 N 620.802 -1.09834 -1.13024 0
M  V30 6577 C 621.712 -0.753731 -2.22162 0
M  V30 6578 C 622.728 0.246105 -1.72251 0
M  V30 6579 O 623.904 0.0864051 -2.01215 0
M  V30 6580 C 620.969 -0.183958 -3.46212 0
M  V30 6581 C 620.03 -1.24028 -4.10993 0
M  V30 6582 C 619.263 -0.697597 -5.29121 0
M  V30 6583 O 619.486 0.478092 -5.68393 0
M  V30 6584 O 618.42 -1.4546 -5.84059 0
M  V30 6585 H 622.246 -1.66456 -2.5402 0
M  V30 6586 H 619.831 -0.873026 -1.21238 0
M  V30 6587 H 621.713 0.130257 -4.21199 0
M  V30 6588 H 620.388 0.699823 -3.16045 0
M  V30 6589 H 619.295 -1.60725 -3.37814 0
M  V30 6590 H 620.628 -2.09685 -4.45301 0
M  V30 6591 N 622.28 1.30327 -0.886154 0
M  V30 6592 C 623.528 1.9571 -0.504195 0
M  V30 6593 C 623.849 1.70294 0.950003 0
M  V30 6594 O 623.119 1.02718 1.66811 0
M  V30 6595 H 621.699 0.72412 -0.183465 0
M  V30 6596 H 624.361 1.58835 -1.12949 0
M  V30 6597 H 623.457 3.04704 -0.675431 0
M  V30 6598 N 623.758 0.647228 1.43697 0
M  V30 6599 C 624.708 -0.0702191 2.27892 0
M  V30 6600 C 625.692 -0.800601 1.39568 0
M  V30 6601 O 626.884 -0.684055 1.63247 0
M  V30 6602 C 624.013 -1.04008 3.27165 0
M  V30 6603 C 623.099 -0.308484 4.22977 0
M  V30 6604 N 623.49 0.671721 5.0132 0
M  V30 6605 C 621.788 -0.550751 4.42586 0
M  V30 6606 C 622.489 1.10543 5.711 0
M  V30 6607 N 621.465 0.440903 5.41809 0
M  V30 6608 H 625.267 0.682031 2.85877 0
M  V30 6609 H 622.781 0.474022 1.55328 0
M  V30 6610 H 624.778 -1.56881 3.86256 0
M  V30 6611 H 623.438 -1.79246 2.70742 0
M  V30 6612 H 624.449 1.0502 5.0714 0
M  V30 6613 H 621.126 -1.28476 3.97241 0
M  V30 6614 H 622.516 1.91614 6.43998 0
M  V30 6615 N 625.236 -1.5273 0.388769 0
M  V30 6616 C 626.168 -2.24081 -0.481704 0
M  V30 6617 C 627.181 -1.26307 -1.02715 0
M  V30 6618 O 628.37 -1.52386 -0.929565 0
M  V30 6619 C 625.47 -2.94315 -1.68024 0
M  V30 6620 C 624.643 -4.18791 -1.26226 0
M  V30 6621 C 623.702 -4.72028 -2.32542 0
M  V30 6622 O 622.728 -5.35129 -1.93972 0
M  V30 6623 N 623.93 -4.51838 -3.64448 0
M  V30 6624 H 626.695 -2.9942 0.129591 0
M  V30 6625 H 624.256 -1.60465 0.2151 0
M  V30 6626 H 626.248 -3.26831 -2.38671 0
M  V30 6627 H 624.818 -2.22287 -2.19789 0
M  V30 6628 H 624.038 -3.92318 -0.384703 0
M  V30 6629 H 625.326 -4.99668 -0.959647 0
M  V30 6630 H 624.724 -4.01468 -3.98547 0
M  V30 6631 H 623.281 -4.88845 -4.31131 0
M  V30 6632 N 626.714 -0.118576 -1.57153 0
M  V30 6633 C 627.647 0.869046 -2.11004 0
M  V30 6634 C 628.625 1.26115 -1.02634 0
M  V30 6635 O 629.809 1.36228 -1.30285 0
M  V30 6636 C 626.936 2.16297 -2.6064 0
M  V30 6637 C 625.982 1.91896 -3.80891 0
M  V30 6638 S 626.815 1.13562 -5.2332 0
M  V30 6639 C 627.971 2.44135 -5.76324 0
M  V30 6640 H 628.204 0.411005 -2.94445 0
M  V30 6641 H 625.737 0.0951891 -1.54106 0
M  V30 6642 H 627.695 2.90642 -2.89892 0
M  V30 6643 H 626.356 2.59219 -1.77382 0
M  V30 6644 H 625.549 2.8777 -4.13768 0
M  V30 6645 H 625.151 1.25672 -3.52253 0
M  V30 6646 H 627.443 3.39976 -5.86022 0
M  V30 6647 H 628.386 2.15803 -6.74414 0
M  V30 6648 H 628.794 2.53483 -5.04387 0
M  V30 6649 N 628.193 1.56834 0.155195 0
M  V30 6650 C 629.14 1.97646 1.19184 0
M  V30 6651 C 630.11 0.842788 1.4313 0
M  V30 6652 O 631.295 1.1042 1.55602 0
M  V30 6653 C 628.435 2.35527 2.52232 0
M  V30 6654 C 627.548 3.62147 2.35529 0
M  V30 6655 C 626.683 3.89167 3.61555 0
M  V30 6656 C 625.722 5.09084 3.39853 0
M  V30 6657 N 624.859 5.32156 4.5799 0
M  V30 6658 H 629.699 2.8601 0.836802 0
M  V30 6659 H 627.236 1.41507 0.401758 0
M  V30 6660 H 629.194 2.55516 3.29799 0
M  V30 6661 H 627.824 1.50253 2.85699 0
M  V30 6662 H 626.876 3.4998 1.49057 0
M  V30 6663 H 628.188 4.49871 2.15448 0
M  V30 6664 H 627.342 4.09611 4.47553 0
M  V30 6665 H 626.081 2.9985 3.84632 0
M  V30 6666 H 625.086 4.88522 2.52243 0
M  V30 6667 H 626.311 5.99947 3.18183 0
M  V30 6668 H 624.257 4.45791 4.81255 0
M  V30 6669 H 624.174 6.14133 4.40882 0
M  V30 6670 H 625.442 5.57091 5.45225 0
M  V30 6671 N 629.671 -0.424282 1.51781 0
M  V30 6672 C 630.948 -1.18464 1.55646 0
M  V30 6673 C 631.328 -2.08529 0.328438 0
M  V30 6674 O 630.676 -2.17969 -0.685693 0
M  V30 6675 C 630.886 -1.97514 2.87731 0
M  V30 6676 C 632.234 -2.54106 3.40169 0
M  V30 6677 O 633.258 -2.07711 2.89369 0
M  V30 6678 O 632.117 -3.38759 4.28841 0
M  V30 6679 H 629.211 -0.540055 0.626314 0
M  V30 6680 H 631.757 -0.432291 1.64102 0
M  V30 6681 H 630.529 -1.31444 3.68562 0
M  V30 6682 H 630.152 -2.79787 2.82498 0
M  V30 6683 N 631.149 -1.42148 -0.680565 0
M  V30 6684 C 632.389 -1.4379 -1.45271 0
M  V30 6685 C 632.753 -0.0504426 -1.91934 0
M  V30 6686 O 633.954 0.0583916 -2.68737 0
M  V30 6687 C 632.225 -2.42904 -2.62168 0
M  V30 6688 S 633.784 -2.63201 -3.51099 0
M  V30 6689 H 630.602 -0.509185 -0.496237 0
M  V30 6690 H 633.204 -1.78706 -0.792744 0
M  V30 6691 H 631.908 -3.4249 -2.26116 0
M  V30 6692 H 631.439 -2.09394 -3.33043 0
M  V30 6693 H 633.454 -1.91068 -4.57938 0
M  V30 6694 N 632.627 0.916307 -1.28225 0
M  V30 6695 C 633.855 1.69901 -1.18073 0
M  V30 6696 C 634.27 1.86988 0.260968 0
M  V30 6697 O 633.627 1.39505 1.17663 0
M  V30 6698 C 633.678 3.09254 -1.87201 0
M  V30 6699 O 633.399 2.92959 -3.2574 0
M  V30 6700 C 634.9 4.0362 -1.83319 0
M  V30 6701 H 632.12 0.531181 -0.409985 0
M  V30 6702 H 634.664 1.14703 -1.69303 0
M  V30 6703 H 632.819 3.61277 -1.39848 0
M  V30 6704 H 633.233 3.81139 -3.60324 0
M  V30 6705 H 634.707 4.98873 -2.36282 0
M  V30 6706 H 635.184 4.3176 -0.805007 0
M  V30 6707 H 635.79 3.57524 -2.3034 0
M  V30 6708 N 634.105 1.10431 1.1244 0
M  V30 6709 C 635.015 0.765502 2.21759 0
M  V30 6710 C 636.031 -0.236966 1.72379 0
M  V30 6711 O 637.207 -0.0757329 2.01258 0
M  V30 6712 C 634.272 0.202316 3.46109 0
M  V30 6713 C 633.333 1.26205 4.1033 0
M  V30 6714 C 632.566 0.725648 5.28744 0
M  V30 6715 O 632.789 -0.447942 5.68638 0
M  V30 6716 O 631.723 1.48555 5.83279 0
M  V30 6717 H 635.549 1.67801 2.53133 0
M  V30 6718 H 633.134 0.879443 1.20773 0
M  V30 6719 H 635.016 -0.107918 4.21262 0
M  V30 6720 H 633.691 -0.683052 3.16411 0
M  V30 6721 H 632.598 1.62514 3.36957 0
M  V30 6722 H 633.931 2.12044 4.44183 0
M  V30 6723 N 635.583 -1.29855 0.893053 0
M  V30 6724 C 636.999 -1.48366 0.588199 0
M  V30 6725 C 637.199 -1.81654 -0.872018 0
M  V30 6726 O 636.255 -1.909 -1.65268 0
M  V30 6727 C 637.568 -2.60136 1.5083 0
M  V30 6728 C 639.116 -2.74014 1.51279 0
M  V30 6729 C 639.591 -3.88905 2.41902 0
M  V30 6730 N 641.082 -3.96228 2.39911 0
M  V30 6731 C 641.817 -4.84458 3.06738 0
M  V30 6732 N 641.313 -5.77426 3.8282 0
M  V30 6733 N 643.106 -4.77894 2.95929 0
M  V30 6734 H 635.257 -1.06522 1.83757 0
M  V30 6735 H 637.52 -0.528495 0.787018 0
M  V30 6736 H 637.226 -2.42383 2.54839 0
M  V30 6737 H 637.1 -3.56793 1.22388 0
M  V30 6738 H 639.487 -2.91167 0.480179 0
M  V30 6739 H 639.568 -1.77952 1.83757 0
M  V30 6740 H 639.212 -3.72508 3.45253 0
M  V30 6741 H 639.142 -4.84322 2.06737 0
M  V30 6742 H 641.633 -3.29728 1.84629 0
M  V30 6743 H 641.946 -6.41529 4.30883 0
M  V30 6744 H 640.291 -5.77332 3.86927 0
M  V30 6745 H 643.482 -4.04248 2.36012 0
M  V30 6746 H 643.655 -5.46444 3.48286 0
M  V30 6747 N 637.061 -0.65484 -1.43351 0
M  V30 6748 C 637.993 0.0744757 -2.29079 0
M  V30 6749 C 639.006 0.7855 -1.42596 0
M  V30 6750 O 640.195 0.642986 -1.66517 0
M  V30 6751 C 637.295 1.12859 -3.19556 0
M  V30 6752 C 636.468 0.495381 -4.34586 0
M  V30 6753 C 635.527 1.44659 -5.05925 0
M  V30 6754 O 634.553 0.954567 -5.61139 0
M  V30 6755 N 635.755 2.78051 -5.09576 0
M  V30 6756 H 638.52 -0.661346 -2.92312 0
M  V30 6757 H 636.081 -0.497744 -1.54059 0
M  V30 6758 H 638.073 1.76577 -3.64147 0
M  V30 6759 H 636.643 1.76636 -2.57912 0
M  V30 6760 H 635.863 -0.32092 -3.92892 0
M  V30 6761 H 637.151 0.0534203 -5.08772 0
M  V30 6762 H 636.549 3.20584 -4.66093 0
M  V30 6763 H 635.106 3.37068 -5.57878 0
M  V30 6764 N 638.539 1.52521 -0.396863 0
M  V30 6765 C 639.502 2.2527 0.422604 0
M  V30 6766 C 640.502 1.27184 0.983913 0
M  V30 6767 O 641.692 1.51222 0.864723 0
M  V30 6768 C 638.824 3.01356 1.59365 0
M  V30 6769 H 640.017 2.99133 -0.214416 0
M  V30 6770 H 637.57 1.55587 -0.149128 0
M  V30 6771 H 638.305 2.31813 2.26789 0
M  V30 6772 H 638.09 3.73357 1.19779 0
M  V30 6773 H 639.58 3.56571 2.17363 0
M  V30 6774 N 640.017 0.126909 1.57088 0
M  V30 6775 C 640.965 -0.837618 2.16995 0
M  V30 6776 C 641.959 -1.26974 1.12133 0
M  V30 6777 O 643.165 -1.24056 1.30423 0
M  V30 6778 H 639.54 -0.288256 0.694559 0
M  V30 6779 H 641.511 -0.307957 2.96807 0
M  V30 6780 C 640.26 -2.07474 2.79016 0
M  V30 6781 H 639.583 -1.75117 3.59408 0
M  V30 6782 H 641.023 -2.72949 3.24461 0
M  V30 6783 C 639.482 -2.86967 1.76498 0
M  V30 6784 O 640.012 -3.82625 1.22316 0
M  V30 6785 N 638.218 -2.51111 1.46258 0
M  V30 6786 H 637.765 -1.73389 1.90509 0
M  V30 6787 H 637.723 -3.04594 0.779085 0
M  V30 6788 N 641.495 -1.56914 -0.146875 0
M  V30 6789 C 642.742 -1.83356 -0.859467 0
M  V30 6790 C 643.07 -0.707811 -1.81164 0
M  V30 6791 O 642.325 0.303155 -1.93338 0
M  V30 6792 C 642.624 -3.16128 -1.66727 0
M  V30 6793 C 642.29 -4.42586 -0.861881 0
M  V30 6794 C 640.952 -4.76929 -0.639687 0
M  V30 6795 C 643.304 -5.20344 -0.298643 0
M  V30 6796 C 640.632 -5.86491 0.156451 0
M  V30 6797 C 642.984 -6.30742 0.484536 0
M  V30 6798 C 641.648 -6.63635 0.717306 0
M  V30 6799 H 640.918 -0.670947 -0.314501 0
M  V30 6800 H 643.565 -1.91104 -0.123108 0
M  V30 6801 H 641.87 -3.03831 -2.47374 0
M  V30 6802 H 643.567 -3.33802 -2.2221 0
M  V30 6803 H 640.157 -4.15662 -1.04513 0
M  V30 6804 H 644.341 -4.94186 -0.457585 0
M  V30 6805 H 639.597 -6.10419 0.346292 0
M  V30 6806 H 643.771 -6.90188 0.928105 0
M  V30 6807 H 641.398 -7.48367 1.33607 0
M  V30 6808 N 642.974 0.416227 -1.52004 0
M  V30 6809 C 643.904 1.51365 -1.77795 0
M  V30 6810 C 644.885 1.58059 -0.628601 0
M  V30 6811 O 646.07 1.73447 -0.873478 0
M  V30 6812 C 643.2 2.89256 -1.92219 0
M  V30 6813 C 642.154 2.97415 -3.0778 0
M  V30 6814 C 641.48 4.37492 -3.07417 0
M  V30 6815 C 642.78 2.69551 -4.47369 0
M  V30 6816 H 644.474 1.30033 -2.69688 0
M  V30 6817 H 642.02 0.624112 -1.29772 0
M  V30 6818 H 643.973 3.66008 -2.08845 0
M  V30 6819 H 642.697 3.11866 -0.969917 0
M  V30 6820 H 641.356 2.23107 -2.90893 0
M  V30 6821 H 641.004 4.571 -2.09925 0
M  V30 6822 H 640.704 4.43877 -3.85029 0
M  V30 6823 H 642.228 5.16188 -3.26162 0
M  V30 6824 H 643.642 3.36028 -4.64497 0
M  V30 6825 H 642.039 2.87321 -5.26846 0
M  V30 6826 H 643.109 1.65029 -4.55953 0
M  V30 6827 N 644.452 1.42507 0.673017 0
M  V30 6828 C 645.868 1.25472 0.986355 0
M  V30 6829 C 646.068 0.160181 2.00862 0
M  V30 6830 O 645.124 -0.467993 2.48125 0
M  V30 6831 C 646.437 2.61219 1.48947 0
M  V30 6832 C 647.985 2.68589 1.60715 0
M  V30 6833 C 648.46 4.04707 2.14422 0
M  V30 6834 N 649.951 4.0667 2.21752 0
M  V30 6835 C 650.686 5.0881 2.64386 0
M  V30 6836 N 650.182 6.21332 3.0646 0
M  V30 6837 N 651.975 4.96166 2.64151 0
M  V30 6838 H 644.126 2.124 -0.00378532 0
M  V30 6839 H 646.389 0.946046 0.0608367 0
M  V30 6840 H 646.095 3.42179 0.812812 0
M  V30 6841 H 645.969 2.85261 2.46791 0
M  V30 6842 H 648.356 1.87974 2.27486 0
M  V30 6843 H 648.437 2.48333 0.613552 0
M  V30 6844 H 648.081 4.8578 1.48258 0
M  V30 6845 H 648.011 4.22315 3.14575 0
M  V30 6846 H 650.502 3.25438 1.92089 0
M  V30 6847 H 650.815 6.95118 3.37684 0
M  V30 6848 H 649.16 6.24835 3.04313 0
M  V30 6849 H 652.351 4.07334 2.30644 0
M  V30 6850 H 652.524 5.759 2.97057 0
M  V30 6851 N 645.93 -0.909495 1.28709 0
M  V30 6852 C 646.84 -2.04558 1.14861 0
M  V30 6853 C 647.856 -1.73842 0.0741621 0
M  V30 6854 O 649.032 -1.99383 0.2843 0
M  V30 6855 C 646.097 -3.36957 0.816148 0
M  V30 6856 C 645.158 -3.81255 1.97341 0
M  V30 6857 C 644.391 -5.07335 1.65671 0
M  V30 6858 O 644.614 -5.67514 0.573053 0
M  V30 6859 O 643.548 -5.47449 2.50167 0
M  V30 6860 H 647.374 -2.19161 2.10243 0
M  V30 6861 H 644.959 -1.03159 1.08068 0
M  V30 6862 H 646.841 -4.16436 0.644873 0
M  V30 6863 H 645.516 -3.2352 -0.107983 0
M  V30 6864 H 644.423 -3.02584 2.19986 0
M  V30 6865 H 645.756 -3.99261 2.87839 0
M  V30 6866 N 647.408 -1.11026 -1.11852 0
M  V30 6867 C 648.685 -0.768347 -1.79877 0
M  V30 6868 C 649.065 0.744261 -1.97545 0
M  V30 6869 O 648.413 1.67271 -1.55669 0
M  V30 6870 C 648.623 -1.52648 -3.13846 0
M  V30 6871 C 649.971 -1.70297 -3.88953 0
M  V30 6872 O 650.995 -1.49037 -3.23522 0
M  V30 6873 O 649.854 -2.05593 -5.06353 0
M  V30 6874 H 646.948 -0.277891 -0.778913 0
M  V30 6875 H 649.494 -1.21343 -1.18633 0
M  V30 6876 H 648.266 -2.55564 -2.96315 0
M  V30 6877 H 647.889 -1.07466 -3.82801 0
M  V30 6878 N 648.886 1.2938 -0.899927 0
M  V30 6879 C 649.816 2.30144 -0.39446 0
M  V30 6880 C 650.797 1.61611 0.530639 0
M  V30 6881 O 651.982 1.89119 0.441319 0
M  V30 6882 C 649.112 3.45229 0.37868 0
M  V30 6883 C 648.066 4.25564 -0.456012 0
M  V30 6884 C 647.392 5.32848 0.444637 0
M  V30 6885 C 648.692 4.93651 -1.70605 0
M  V30 6886 H 650.386 2.72673 -1.23653 0
M  V30 6887 H 647.932 1.31086 -0.596034 0
M  V30 6888 H 649.885 4.14797 0.743037 0
M  V30 6889 H 648.609 3.01545 1.25453 0
M  V30 6890 H 647.268 3.57704 -0.802704 0
M  V30 6891 H 646.916 4.85408 1.31863 0
M  V30 6892 H 646.616 5.87497 -0.110154 0
M  V30 6893 H 648.14 6.05268 0.805182 0
M  V30 6894 H 649.554 5.55655 -1.41141 0
M  V30 6895 H 647.951 5.58233 -2.20217 0
M  V30 6896 H 649.021 4.18926 -2.4419 0
M  V30 6897 N 650.364 0.662433 1.43002 0
M  V30 6898 C 651.327 -0.0142016 2.29196 0
M  V30 6899 C 652.327 -0.741394 1.42688 0
M  V30 6900 O 653.517 -0.581257 1.64216 0
M  V30 6901 C 650.649 -1.03084 3.24941 0
M  V30 6902 H 651.842 0.7443 2.90517 0
M  V30 6903 H 649.395 0.424133 1.50435 0
M  V30 6904 H 650.13 -1.81826 2.68533 0
M  V30 6905 H 649.915 -0.512946 3.8873 0
M  V30 6906 H 651.405 -1.50308 3.89612 0
M  V30 6907 N 651.842 -1.52309 0.404946 0
M  V30 6908 C 653.089 -2.01767 -0.1722 0
M  V30 6909 C 653.417 -1.29075 -1.45498 0
M  V30 6910 O 652.672 -0.3843 -1.9189 0
M  V30 6911 C 652.971 -3.54284 -0.470895 0
M  V30 6912 C 652.637 -4.45079 0.722194 0
M  V30 6913 C 651.299 -4.69617 1.04946 0
M  V30 6914 C 653.651 -4.98555 1.51962 0
M  V30 6915 C 650.979 -5.44878 2.17543 0
M  V30 6916 C 653.331 -5.75049 2.63632 0
M  V30 6917 C 651.995 -5.9786 2.9685 0
M  V30 6918 H 651.265 -0.738316 -0.0630125 0
M  V30 6919 H 653.912 -1.83566 0.545506 0
M  V30 6920 H 652.217 -3.70642 -1.27012 0
M  V30 6921 H 653.914 -3.90058 -0.930346 0
M  V30 6922 H 650.504 -4.26155 0.457131 0
M  V30 6923 H 654.688 -4.79509 1.28002 0
M  V30 6924 H 649.944 -5.60762 2.43631 0
M  V30 6925 H 654.118 -6.15483 3.25813 0
M  V30 6926 H 651.745 -6.5596 3.84215 0
M  V30 6927 N 653.32 -0.135238 -1.57019 0
M  V30 6928 C 654.25 0.805235 -2.19176 0
M  V30 6929 C 655.231 1.2656 -1.13651 0
M  V30 6930 O 656.416 1.32528 -1.4195 0
M  V30 6931 C 653.546 2.04914 -2.80406 0
M  V30 6932 C 652.5 1.72598 -3.91655 0
M  V30 6933 C 651.826 3.04154 -4.39766 0
M  V30 6934 C 653.126 0.981709 -5.12991 0
M  V30 6935 H 654.82 0.287232 -2.98019 0
M  V30 6936 H 652.366 0.136714 -1.4335 0
M  V30 6937 H 654.319 2.71178 -3.22553 0
M  V30 6938 H 653.043 2.59067 -1.98877 0
M  V30 6939 H 651.702 1.08717 -3.50109 0
M  V30 6940 H 651.35 3.56274 -3.55075 0
M  V30 6941 H 651.05 2.83299 -5.14796 0
M  V30 6942 H 652.574 3.71509 -4.84576 0
M  V30 6943 H 653.988 1.5462 -5.52056 0
M  V30 6944 H 652.385 0.873533 -5.93708 0
M  V30 6945 H 653.455 -0.0286887 -4.84892 0
M  V30 6946 N 654.798 1.5699 0.138552 0
M  V30 6947 C 655.73 1.95515 1.1961 0
M  V30 6948 C 656.743 0.852002 1.38726 0
M  V30 6949 O 657.932 1.13038 1.38147 0
M  V30 6950 C 655.032 2.2213 2.55952 0
M  V30 6951 C 654.205 3.53424 2.57702 0
M  V30 6952 C 653.264 3.6848 3.75645 0
M  V30 6953 O 652.29 4.4079 3.60129 0
M  V30 6954 N 653.492 3.05777 4.93438 0
M  V30 6955 H 656.257 2.86838 0.868557 0
M  V30 6956 H 653.818 1.58542 0.328033 0
M  V30 6957 H 655.81 2.29435 3.33379 0
M  V30 6958 H 654.38 1.3703 2.80965 0
M  V30 6959 H 653.6 3.57484 1.6613 0
M  V30 6960 H 654.888 4.39759 2.55909 0
M  V30 6961 H 654.286 2.46961 5.08947 0
M  V30 6962 H 652.843 3.18631 5.6861 0
M  V30 6963 N 656.276 -0.40816 1.52223 0
M  V30 6964 C 657.524 -1.15274 1.66001 0
M  V30 6965 C 657.845 -1.91003 0.392803 0
M  V30 6966 O 657.115 -1.8673 -0.592336 0
M  V30 6967 H 655.695 -0.428526 0.611861 0
M  V30 6968 H 658.357 -0.46512 1.89269 0
M  V30 6969 H 657.453 -1.86628 2.50153 0
M  V30 6970 N 657.755 -1.42862 -0.66545 0
M  V30 6971 C 658.702 -1.4707 -1.77874 0
M  V30 6972 C 659.672 -0.321654 -1.62956 0
M  V30 6973 O 660.857 -0.52707 -1.83376 0
M  V30 6974 C 657.997 -1.38788 -3.15962 0
M  V30 6975 C 657.11 -2.63801 -3.42101 0
M  V30 6976 C 656.245 -2.47594 -4.69969 0
M  V30 6977 C 655.284 -3.67936 -4.89172 0
M  V30 6978 N 654.421 -3.50614 -6.08288 0
M  V30 6979 H 659.261 -2.42204 -1.73613 0
M  V30 6980 H 656.798 -1.20239 -0.847401 0
M  V30 6981 H 658.756 -1.31982 -3.95773 0
M  V30 6982 H 657.386 -0.472431 -3.19324 0
M  V30 6983 H 656.438 -2.80935 -2.56475 0
M  V30 6984 H 657.75 -3.53228 -3.52181 0
M  V30 6985 H 656.904 -2.38427 -5.57886 0
M  V30 6986 H 655.643 -1.55672 -4.62188 0
M  V30 6987 H 654.648 -3.77525 -3.99694 0
M  V30 6988 H 655.873 -4.60851 -4.98792 0
M  V30 6989 H 653.819 -2.61417 -6.01662 0
M  V30 6990 H 653.736 -4.33634 -6.19272 0
M  V30 6991 H 655.004 -3.45276 -6.98859 0
M  V30 6992 N 659.233 0.902656 -1.29189 0
M  V30 6993 C 660.196 1.98797 -1.14071 0
M  V30 6994 C 661.196 1.60615 -0.0770549 0
M  V30 6995 O 662.386 1.71165 -0.323753 0
M  V30 6996 C 659.518 3.32688 -0.743739 0
M  V30 6997 H 660.711 2.13637 -2.10473 0
M  V30 6998 H 658.264 1.08678 -1.12334 0
M  V30 6999 H 658.999 3.23549 0.220554 0
M  V30 7000 H 658.784 3.61765 -1.51223 0
M  V30 7001 H 660.274 4.12337 -0.660935 0
M  V30 7002 N 660.711 1.11618 1.11262 0
M  V30 7003 C 662.127 0.850468 1.35053 0
M  V30 7004 C 662.327 -0.523868 1.94571 0
M  V30 7005 O 661.383 -1.2743 2.17986 0
M  V30 7006 C 662.696 1.96005 2.28041 0
M  V30 7007 C 664.244 1.98993 2.416 0
M  V30 7008 C 664.719 3.0916 3.37911 0
M  V30 7009 N 666.21 3.08547 3.45475 0
M  V30 7010 C 666.945 3.9043 4.19943 0
M  V30 7011 N 666.441 4.8228 4.97371 0
M  V30 7012 N 668.234 3.786 4.15474 0
M  V30 7013 H 660.385 2.00184 0.709932 0
M  V30 7014 H 662.648 0.870635 0.375099 0
M  V30 7015 H 662.354 2.9499 1.91503 0
M  V30 7016 H 662.228 1.85782 3.28275 0
M  V30 7017 H 664.615 1.00633 2.77411 0
M  V30 7018 H 664.696 2.13292 1.4121 0
M  V30 7019 H 664.34 4.07748 3.02827 0
M  V30 7020 H 664.27 2.92102 4.3816 0
M  V30 7021 H 666.761 2.42 2.90249 0
M  V30 7022 H 667.074 5.41289 5.51567 0
M  V30 7023 H 665.419 4.863 4.96525 0
M  V30 7024 H 668.61 3.06185 3.54074 0
M  V30 7025 H 668.783 4.42647 4.73253 0
M  V30 7026 N 662.189 -1.289 0.906776 0
M  V30 7027 C 663.099 -2.31256 0.394707 0
M  V30 7028 C 664.115 -1.66231 -0.514121 0
M  V30 7029 O 665.291 -1.97347 -0.401994 0
M  V30 7030 C 662.356 -3.44792 -0.363191 0
M  V30 7031 C 661.417 -4.25391 0.578012 0
M  V30 7032 C 660.65 -5.33506 -0.143811 0
M  V30 7033 O 660.873 -5.53786 -1.36665 0
M  V30 7034 O 659.807 -5.99673 0.5173 0
M  V30 7035 H 663.633 -2.77051 1.24405 0
M  V30 7036 H 661.218 -1.33466 0.671346 0
M  V30 7037 H 663.1 -4.139 -0.791503 0
M  V30 7038 H 661.775 -3.01093 -1.18848 0
M  V30 7039 H 660.682 -3.58899 1.05558 0
M  V30 7040 H 662.015 -4.72752 1.36992 0
M  V30 7041 N 663.667 -0.670007 -1.42649 0
M  V30 7042 C 664.914 -0.190286 -2.01604 0
M  V30 7043 C 665.242 1.20155 -1.52948 0
M  V30 7044 O 664.497 1.81964 -0.72026 0
M  V30 7045 C 664.796 -0.168298 -3.57004 0
M  V30 7046 C 664.462 -1.50415 -4.25072 0
M  V30 7047 C 663.124 -1.86992 -4.43382 0
M  V30 7048 C 665.476 -2.38414 -4.63474 0
M  V30 7049 C 662.804 -3.11203 -4.97363 0
M  V30 7050 C 665.156 -3.61933 -5.18833 0
M  V30 7051 C 663.82 -3.98685 -5.35356 0
M  V30 7052 H 663.09 -0.0696305 -0.737721 0
M  V30 7053 H 665.737 -0.864044 -1.70899 0
M  V30 7054 H 664.042 0.588958 -3.87348 0
M  V30 7055 H 665.739 0.22001 -4.00396 0
M  V30 7056 H 662.329 -1.20959 -4.11177 0
M  V30 7057 H 666.513 -2.11442 -4.49006 0
M  V30 7058 H 661.769 -3.39705 -5.08341 0
M  V30 7059 H 665.943 -4.30326 -5.47533 0
M  V30 7060 H 663.57 -4.95009 -5.76949 0
M  V30 7061 N 665.145 1.52092 -0.413018 0
M  V30 7062 C 666.37 2.06756 0.163338 0
M  V30 7063 C 666.795 1.28073 1.37764 0
M  V30 7064 O 666.153 0.312015 1.78595 0
M  V30 7065 C 666.201 3.57278 0.488322 0
M  V30 7066 O 665.305 3.80986 1.57871 0
M  V30 7067 H 664.646 0.663882 0.0125068 0
M  V30 7068 H 667.176 1.95988 -0.587339 0
M  V30 7069 H 667.186 4.01125 0.745836 0
M  V30 7070 H 665.861 4.13978 -0.399327 0
M  V30 7071 H 664.438 3.49017 1.31306 0
M  V30 7072 N 666.623 0.143563 1.56945 0
M  V30 7073 C 667.848 -0.518701 2.00809 0
M  V30 7074 C 668.273 -1.5785 1.02298 0
M  V30 7075 O 667.631 -1.813 -0.0017839 0
M  V30 7076 C 667.679 -1.09929 3.43436 0
M  V30 7077 O 666.783 -2.21425 3.47915 0
M  V30 7078 H 666.124 -0.127215 0.6517 0
M  V30 7079 H 668.654 0.239283 2.03196 0
M  V30 7080 H 668.664 -1.4288 3.82164 0
M  V30 7081 H 667.339 -0.323162 4.14643 0
M  V30 7082 H 665.916 -1.89728 3.21026 0
M  V30 7083 N 668.101 -1.57061 -0.130224 0
M  V30 7084 C 669.011 -2.02802 -1.17934 0
M  V30 7085 C 670.027 -0.946378 -1.46013 0
M  V30 7086 O 671.203 -1.25708 -1.57351 0
M  V30 7087 C 668.268 -2.41368 -2.48882 0
M  V30 7088 C 667.329 -3.63561 -2.28301 0
M  V30 7089 C 666.562 -4.00279 -3.53005 0
M  V30 7090 O 666.785 -3.37463 -4.59864 0
M  V30 7091 O 665.719 -4.93441 -3.44673 0
M  V30 7092 H 669.545 -2.92394 -0.820958 0
M  V30 7093 H 667.13 -1.45475 -0.340197 0
M  V30 7094 H 669.012 -2.66958 -3.26054 0
M  V30 7095 H 667.687 -1.54926 -2.84217 0
M  V30 7096 H 666.594 -3.43136 -1.49025 0
M  V30 7097 H 667.927 -4.50673 -1.97875 0
M  V30 7098 N 669.579 0.400081 -1.52437 0
M  V30 7099 C 670.511 1.50729 -1.72666 0
M  V30 7100 C 671.524 1.51058 -0.607075 0
M  V30 7101 O 672.713 1.5516 -0.88248 0
M  V30 7102 C 669.813 2.89604 -1.76019 0
M  V30 7103 C 668.986 3.13365 -3.05157 0
M  V30 7104 C 668.045 4.32163 -3.00203 0
M  V30 7105 O 667.071 4.29004 -3.74092 0
M  V30 7106 N 668.273 5.3776 -2.18619 0
M  V30 7107 H 671.038 1.33767 -2.68191 0
M  V30 7108 H 668.599 0.58948 -1.50787 0
M  V30 7109 H 670.591 3.67159 -1.70225 0
M  V30 7110 H 669.161 2.99979 -0.879284 0
M  V30 7111 H 668.381 2.23774 -3.24529 0
M  V30 7112 H 669.669 3.26089 -3.90568 0
M  V30 7113 H 669.067 5.43177 -1.58035 0
M  V30 7114 H 667.624 6.14023 -2.18674 0
M  V30 7115 N 671.057 1.43213 0.657864 0
M  V30 7116 C 672.285 1.48015 1.44566 0
M  V30 7117 C 672.7 0.0965951 1.88553 0
M  V30 7118 O 672.057 -0.892221 1.59203 0
M  V30 7119 C 672.108 2.42199 2.68369 0
M  V30 7120 O 671.829 3.75173 2.26223 0
M  V30 7121 C 673.33 2.56195 3.61772 0
M  V30 7122 H 670.55 0.502861 0.444266 0
M  V30 7123 H 673.094 1.87907 0.806917 0
M  V30 7124 H 671.249 2.05514 3.28394 0
M  V30 7125 H 671.663 4.25776 3.06293 0
M  V30 7126 H 673.137 3.26182 4.4532 0
M  V30 7127 H 673.614 1.60534 4.0881 0
M  V30 7128 H 674.22 2.93671 3.07632 0
M  V30 7129 N 672.536 -0.895792 1.29666 0
M  V30 7130 C 673.952 -1.17726 1.07763 0
M  V30 7131 C 674.152 -2.00794 -0.168576 0
M  V30 7132 O 673.208 -2.37213 -0.865244 0
M  V30 7133 C 674.521 -1.89441 2.33522 0
M  V30 7134 C 676.069 -2.02251 2.3888 0
M  V30 7135 C 676.544 -2.77378 3.64452 0
M  V30 7136 N 678.035 -2.8493 3.65198 0
M  V30 7137 C 678.77 -3.43606 4.59045 0
M  V30 7138 N 678.266 -4.03417 5.63228 0
M  V30 7139 N 680.059 -3.41317 4.46608 0
M  V30 7140 H 672.21 -0.341652 2.09634 0
M  V30 7141 H 674.473 -0.213865 0.923561 0
M  V30 7142 H 674.179 -1.35842 3.24407 0
M  V30 7143 H 674.053 -2.89893 2.41334 0
M  V30 7144 H 676.44 -2.55025 1.4848 0
M  V30 7145 H 676.521 -1.0092 2.3505 0
M  V30 7146 H 676.165 -2.25279 4.55205 0
M  V30 7147 H 676.095 -3.79062 3.65541 0
M  V30 7148 H 678.586 -2.42453 2.89871 0
M  V30 7149 H 678.899 -4.46224 6.30955 0
M  V30 7150 H 677.244 -4.01868 5.67033 0
M  V30 7151 H 680.435 -2.93812 3.64407 0
M  V30 7152 H 680.608 -3.86751 5.1993 0
M  V30 7153 N 674.014 -1.12206 -1.10668 0
M  V30 7154 C 674.977 -0.790867 -2.15123 0
M  V30 7155 C 675.977 0.193618 -1.5963 0
M  V30 7156 O 677.167 -0.0318728 -1.74171 0
M  V30 7157 C 674.299 -0.174797 -3.40452 0
M  V30 7158 H 675.492 -1.7163 -2.45933 0
M  V30 7159 H 673.045 -0.924993 -1.2599 0
M  V30 7160 H 673.78 0.760478 -3.15257 0
M  V30 7161 H 673.565 -0.88358 -3.82015 0
M  V30 7162 H 675.055 0.0405162 -4.1758 0
M  V30 7163 N 675.492 1.28418 -0.913599 0
M  V30 7164 C 676.44 2.29272 -0.392037 0
M  V30 7165 C 677.434 1.61344 0.516198 0
M  V30 7166 O 678.64 1.75557 0.39746 0
M  V30 7167 H 675.015 0.744178 -0.108178 0
M  V30 7168 H 676.986 2.70691 -1.25574 0
M  V30 7169 C 675.735 3.45905 0.352815 0
M  V30 7170 H 675.058 3.98378 -0.336848 0
M  V30 7171 H 676.498 4.18473 0.682398 0
M  V30 7172 C 674.957 2.98572 1.56065 0
M  V30 7173 O 675.487 3.01033 2.65974 0
M  V30 7174 N 673.693 2.54235 1.40759 0
M  V30 7175 H 673.24 2.52432 0.513403 0
M  V30 7176 H 673.198 2.22925 2.21702 0
M  V30 7177 N 676.97 0.677563 1.42291 0
M  V30 7178 C 678.195 0.207901 2.06355 0
M  V30 7179 C 678.62 -1.12723 1.50583 0
M  V30 7180 O 677.978 -1.70171 0.62543 0
M  V30 7181 C 678.026 0.156489 3.6026 0
M  V30 7182 O 677.13 -0.874162 4.03029 0
M  V30 7183 H 676.471 0.106056 0.655475 0
M  V30 7184 H 679.001 0.927354 1.82377 0
M  V30 7185 H 679.011 -0.0187258 4.07996 0
M  V30 7186 H 677.686 1.13101 4.00226 0
M  V30 7187 H 676.263 -0.669764 3.66836 0
M  V30 7188 N 678.448 -1.51871 0.421078 0
M  V30 7189 C 679.859 -1.86644 -0.0457991 0
M  V30 7190 C 680.21 -1.33919 -1.43388 0
M  V30 7191 O 679.335 -0.683316 -2.05328 0
M  V30 7192 C 679.93 -3.38681 -0.0898844 0
M  V30 7193 C 678.489 -3.73049 -0.501127 0
M  V30 7194 C 677.636 -2.75485 0.316723 0
M  V30 7195 H 680.587 -1.45327 0.637635 0
M  V30 7196 H 680.608 -3.69636 -0.902734 0
M  V30 7197 H 680.12 -3.77025 0.920513 0
M  V30 7198 H 678.221 -3.40288 -1.51773 0
M  V30 7199 H 678.334 -4.78512 -0.237217 0
M  V30 7200 H 676.698 -2.53725 -0.222663 0
M  V30 7201 H 677.481 -3.16671 1.32569 0
M  V30 7202 N 679.926 -0.151884 -1.56866 0
M  V30 7203 C 681.154 0.504813 -2.00647 0
M  V30 7204 C 681.569 1.58098 -1.03201 0
M  V30 7205 O 680.926 1.82476 -0.0297814 0
M  V30 7206 C 680.977 1.10099 -3.44326 0
M  V30 7207 O 680.698 0.0678021 -4.38048 0
M  V30 7208 C 682.199 1.83782 -4.03409 0
M  V30 7209 H 679.419 0.130989 -0.65809 0
M  V30 7210 H 681.963 -0.247903 -2.02992 0
M  V30 7211 H 680.118 1.8043 -3.42817 0
M  V30 7212 H 680.532 0.505237 -5.22061 0
M  V30 7213 H 682.006 2.2078 -5.05925 0
M  V30 7214 H 682.483 2.72557 -3.44397 0
M  V30 7215 H 683.089 1.18138 -4.08563 0
M  V30 7216 N 681.404 1.57128 0.121893 0
M  V30 7217 C 682.82 1.52357 0.47534 0
M  V30 7218 C 683.02 0.864417 1.82017 0
M  V30 7219 O 682.076 0.445529 2.48538 0
M  V30 7220 C 683.389 2.97122 0.4625 0
M  V30 7221 C 684.937 3.08196 0.546255 0
M  V30 7222 C 685.412 4.54516 0.563833 0
M  V30 7223 N 686.903 4.58959 0.625353 0
M  V30 7224 C 687.638 5.69585 0.660354 0
M  V30 7225 N 687.134 6.89714 0.653175 0
M  V30 7226 N 688.927 5.57685 0.703143 0
M  V30 7227 H 681.078 1.98364 -0.75931 0
M  V30 7228 H 683.341 0.905777 -0.279772 0
M  V30 7229 H 683.047 3.48706 -0.457943 0
M  V30 7230 H 682.921 3.54406 1.29136 0
M  V30 7231 H 685.308 2.56617 1.45712 0
M  V30 7232 H 685.389 2.53912 -0.310234 0
M  V30 7233 H 685.033 5.06741 -0.342974 0
M  V30 7234 H 684.963 5.06609 1.43716 0
M  V30 7235 H 687.454 3.72489 0.637182 0
M  V30 7236 H 687.767 7.69781 0.682425 0
M  V30 7237 H 686.112 6.92223 0.620646 0
M  V30 7238 H 689.303 4.62744 0.706095 0
M  V30 7239 H 689.476 6.43909 0.726952 0
M  V30 7240 N 682.882 -0.391992 1.52647 0
M  V30 7241 C 684.298 -0.731848 1.41831 0
M  V30 7242 C 684.498 -1.9423 0.536361 0
M  V30 7243 O 683.554 -2.52499 0.00866571 0
M  V30 7244 C 684.867 -0.969743 2.84634 0
M  V30 7245 C 686.415 -1.0714 2.94092 0
M  V30 7246 C 686.89 -1.34195 4.37899 0
M  V30 7247 N 688.381 -1.41023 4.41211 0
M  V30 7248 C 689.116 -1.63616 5.49561 0
M  V30 7249 N 688.612 -1.83699 6.68002 0
M  V30 7250 N 690.405 -1.65771 5.371 0
M  V30 7251 H 682.556 0.404547 2.08512 0
M  V30 7252 H 684.819 0.11879 0.940528 0
M  V30 7253 H 684.525 -0.152465 3.51369 0
M  V30 7254 H 684.399 -1.88523 3.26709 0
M  V30 7255 H 686.786 -1.87925 2.27526 0
M  V30 7256 H 686.867 -0.133887 2.55449 0
M  V30 7257 H 686.511 -0.539207 5.0503 0
M  V30 7258 H 686.441 -2.29226 4.74092 0
M  V30 7259 H 688.932 -1.27223 3.55841 0
M  V30 7260 H 689.245 -2.00437 7.46354 0
M  V30 7261 H 687.59 -1.8093 6.71036 0
M  V30 7262 H 690.781 -1.4963 4.43541 0
M  V30 7263 H 690.954 -1.83038 6.21612 0
M  V30 7264 N 684.36 -1.4356 -0.65026 0
M  V30 7265 C 685.27 -1.514 -1.79207 0
M  V30 7266 C 686.286 -0.400895 -1.69319 0
M  V30 7267 O 687.462 -0.655458 -1.90436 0
M  V30 7268 C 684.527 -1.43737 -3.155 0
M  V30 7269 C 683.588 -2.65743 -3.37163 0
M  V30 7270 C 682.821 -2.58436 -4.66954 0
M  V30 7271 O 683.044 -1.63374 -5.46503 0
M  V30 7272 O 681.978 -3.48984 -4.90402 0
M  V30 7273 H 685.804 -2.47825 -1.75547 0
M  V30 7274 H 683.389 -1.25594 -0.809111 0
M  V30 7275 H 685.271 -1.41916 -3.96784 0
M  V30 7276 H 683.946 -0.504488 -3.19745 0
M  V30 7277 H 682.853 -2.73136 -2.55632 0
M  V30 7278 H 684.186 -3.58014 -3.37768 0
M  V30 7279 N 685.838 0.888903 -1.30139 0
M  V30 7280 C 686.768 2.01046 -1.18755 0
M  V30 7281 C 687.749 1.69916 -0.0791438 0
M  V30 7282 O 688.934 1.92445 -0.260498 0
M  V30 7283 C 686.064 3.36109 -0.874518 0
M  V30 7284 C 685.018 3.81486 -1.94043 0
M  V30 7285 C 684.344 5.13796 -1.48047 0
M  V30 7286 C 685.644 4.00637 -3.35093 0
M  V30 7287 H 687.338 2.10828 -2.12584 0
M  V30 7288 H 684.884 1.01298 -1.02346 0
M  V30 7289 H 686.837 4.14089 -0.781548 0
M  V30 7290 H 685.561 3.26449 0.0994519 0
M  V30 7291 H 684.22 3.05731 -2.02297 0
M  V30 7292 H 683.868 5.0056 -0.494878 0
M  V30 7293 H 683.568 5.45127 -2.19341 0
M  V30 7294 H 685.092 5.94305 -1.40121 0
M  V30 7295 H 686.506 4.69067 -3.2962 0
M  V30 7296 H 684.903 4.43339 -4.04438 0
M  V30 7297 H 685.973 3.0462 -3.77273 0
M  V30 7298 N 687.317 1.12792 1.10072 0
M  V30 7299 C 688.249 0.757003 2.16338 0
M  V30 7300 C 689.262 -0.218144 1.61332 0
M  V30 7301 O 690.451 0.0010727 1.785 0
M  V30 7302 C 687.551 0.100303 3.38752 0
M  V30 7303 C 686.724 1.10586 4.2319 0
M  V30 7304 C 685.783 0.47609 5.24042 0
M  V30 7305 O 684.809 1.13418 5.57786 0
M  V30 7306 N 686.011 -0.754823 5.75572 0
M  V30 7307 H 688.776 1.6714 2.48766 0
M  V30 7308 H 686.337 1.02003 1.25726 0
M  V30 7309 H 688.329 -0.333092 4.03327 0
M  V30 7310 H 686.899 -0.716915 3.04268 0
M  V30 7311 H 686.119 1.71677 3.54853 0
M  V30 7312 H 687.407 1.78571 4.76435 0
M  V30 7313 H 686.805 -1.30838 5.50362 0
M  V30 7314 H 685.362 -1.13098 6.41913 0
M  V30 7315 N 688.795 -1.27931 0.920396 0
M  V30 7316 C 690.041 -1.94977 0.557832 0
M  V30 7317 C 690.374 -1.72224 -0.897365 0
M  V30 7318 O 689.649 -1.04705 -1.63912 0
M  V30 7319 C 689.932 -3.49289 0.875741 0
M  V30 7320 C 689.785 -3.81416 2.38416 0
M  V30 7321 C 691.104 -4.38486 0.376517 0
M  V30 7322 H 688.223 -0.708164 0.20414 0
M  V30 7323 H 690.865 -1.5118 1.15085 0
M  V30 7324 H 689.015 -3.86724 0.371062 0
M  V30 7325 H 690.687 -3.53813 2.95997 0
M  V30 7326 H 688.93 -3.28225 2.83639 0
M  V30 7327 H 689.601 -4.89198 2.55713 0
M  V30 7328 H 692.077 -4.08161 0.808945 0
M  V30 7329 H 690.953 -5.45296 0.627976 0
M  V30 7330 H 691.214 -4.36143 -0.723293 0
M  V30 7331 N 690.273 -0.685099 -1.4193 0
M  V30 7332 C 691.519 -0.220688 -2.02199 0
M  V30 7333 C 691.874 1.16329 -1.5325 0
M  V30 7334 O 691.167 1.77175 -0.729345 0
M  V30 7335 C 691.361 -0.206154 -3.56805 0
M  V30 7336 C 691.19 -1.58718 -4.2076 0
M  V30 7337 C 689.96 -2.18747 -4.55497 0
M  V30 7338 C 692.158 -2.53182 -4.47664 0
M  V30 7339 N 690.14 -3.49523 -5.04685 0
M  V30 7340 C 691.511 -3.68625 -4.98514 0
M  V30 7341 C 693.566 -2.51582 -4.29664 0
M  V30 7342 C 692.269 -4.82734 -5.33255 0
M  V30 7343 C 694.295 -3.64795 -4.65487 0
M  V30 7344 C 693.657 -4.78967 -5.16498 0
M  V30 7345 H 689.756 -0.12591 -0.771797 0
M  V30 7346 H 692.34 -0.900316 -1.72634 0
M  V30 7347 H 690.511 0.442923 -3.85866 0
M  V30 7348 H 692.243 0.272103 -4.03784 0
M  V30 7349 H 688.998 -1.71135 -4.41599 0
M  V30 7350 H 689.422 -4.1653 -5.33696 0
M  V30 7351 H 694.064 -1.64535 -3.89472 0
M  V30 7352 H 691.782 -5.7045 -5.72375 0
M  V30 7353 H 695.368 -3.64796 -4.53227 0
M  V30 7354 H 694.248 -5.6512 -5.437 0
M  V30 7355 N 691.751 1.51645 -0.429126 0
M  V30 7356 C 692.999 2.01616 0.139802 0
M  V30 7357 C 693.32 1.31568 1.43927 0
M  V30 7358 O 692.59 0.447688 1.90716 0
M  V30 7359 H 691.17 0.744998 0.054654 0
M  V30 7360 H 693.832 1.8638 -0.569952 0
M  V30 7361 H 692.928 3.10439 0.321609 0
M  V30 7362 N 693.229 0.160201 1.56784 0
M  V30 7363 C 694.477 -0.486625 1.96154 0
M  V30 7364 C 694.798 -1.64525 1.04673 0
M  V30 7365 O 694.068 -1.95586 0.110864 0
M  V30 7366 H 692.648 -0.182764 0.724297 0
M  V30 7367 H 695.31 0.238787 1.93432 0
M  V30 7368 H 694.406 -0.854025 3.00188 0
M  V30 7369 N 694.707 -1.5719 -0.113559 0
M  V30 7370 C 695.617 -2.04041 -1.15777 0
M  V30 7371 C 696.633 -0.961812 -1.45001 0
M  V30 7372 O 697.809 -1.2737 -1.56009 0
M  V30 7373 C 694.874 -2.43994 -2.46308 0
M  V30 7374 C 693.935 -3.65962 -2.24433 0
M  V30 7375 C 693.168 -4.04 -3.4874 0
M  V30 7376 O 693.391 -3.42321 -4.56259 0
M  V30 7377 O 692.325 -4.97069 -3.3942 0
M  V30 7378 H 696.151 -2.93248 -0.789899 0
M  V30 7379 H 693.736 -1.45828 -0.324748 0
M  V30 7380 H 695.618 -2.70401 -3.23204 0
M  V30 7381 H 694.293 -1.57932 -2.82558 0
M  V30 7382 H 693.2 -3.44697 -1.45377 0
M  V30 7383 H 694.533 -4.52746 -1.93084 0
M  V30 7384 N 696.185 0.383891 -1.52853 0
M  V30 7385 C 697.133 1.48965 -1.7864 0
M  V30 7386 C 698.127 1.56242 -0.654577 0
M  V30 7387 O 699.333 1.59347 -0.83716 0
M  V30 7388 H 695.708 0.495892 -0.565328 0
M  V30 7389 H 697.679 1.24411 -2.71228 0
M  V30 7390 C 696.428 2.86036 -1.97683 0
M  V30 7391 H 695.751 2.81188 -2.84206 0
M  V30 7392 H 697.191 3.62632 -2.19713 0
M  V30 7393 C 695.65 3.28428 -0.750776 0
M  V30 7394 O 696.18 4.0164 0.0693491 0
M  V30 7395 N 694.386 2.84765 -0.579427 0
M  V30 7396 H 693.933 2.25353 -1.24795 0
M  V30 7397 H 693.891 3.13486 0.239544 0
M  V30 7398 N 697.663 1.43903 0.642637 0
M  V30 7399 C 698.611 1.50164 1.77634 0
M  V30 7400 C 699.605 0.374294 1.65213 0
M  V30 7401 O 700.811 0.548748 1.71431 0
M  V30 7402 H 697.186 0.470974 0.586249 0
M  V30 7403 H 699.157 2.45603 1.69474 0
M  V30 7404 C 697.906 1.45196 3.15933 0
M  V30 7405 H 697.229 2.31253 3.26132 0
M  V30 7406 H 698.669 1.53638 3.95185 0
M  V30 7407 C 697.128 0.171043 3.36466 0
M  V30 7408 O 697.658 -0.763413 3.94379 0
M  V30 7409 N 695.864 0.077847 2.90496 0
M  V30 7410 H 695.411 0.8391 2.43551 0
M  V30 7411 H 695.369 -0.778473 3.0461 0
M  V30 7412 N 699.141 -0.881989 1.30609 0
M  V30 7413 C 700.366 -1.67236 1.22665 0
M  V30 7414 C 700.791 -1.8696 -0.206777 0
M  V30 7415 O 700.149 -1.4027 -1.14865 0
M  V30 7416 C 700.197 -3.02446 1.96363 0
M  V30 7417 O 699.301 -3.91614 1.29276 0
M  V30 7418 H 698.642 -0.510902 0.424117 0
M  V30 7419 H 701.172 -1.10055 1.72479 0
M  V30 7420 H 701.182 -3.52468 2.055 0
M  V30 7421 H 699.857 -2.8741 3.00613 0
M  V30 7422 H 698.434 -3.50055 1.28514 0
M  V30 7423 N 700.619 -1.13374 -1.09472 0
M  V30 7424 C 701.549 -0.833268 -2.18126 0
M  V30 7425 C 702.53 0.207169 -1.68834 0
M  V30 7426 O 703.715 0.0662012 -1.94087 0
M  V30 7427 C 700.845 -0.297979 -3.46019 0
M  V30 7428 C 699.799 -1.27261 -4.08642 0
M  V30 7429 C 699.125 -0.597104 -5.31356 0
M  V30 7430 C 700.425 -2.63095 -4.51197 0
M  V30 7431 H 702.119 -1.74182 -2.43518 0
M  V30 7432 H 699.665 -0.838921 -1.17039 0
M  V30 7433 H 701.618 -0.0754444 -4.21332 0
M  V30 7434 H 700.342 0.645959 -3.20148 0
M  V30 7435 H 699.001 -1.48113 -3.35348 0
M  V30 7436 H 698.649 0.352293 -5.01765 0
M  V30 7437 H 698.349 -1.24734 -5.74208 0
M  V30 7438 H 699.873 -0.38384 -6.09392 0
M  V30 7439 H 701.287 -2.46214 -5.17737 0
M  V30 7440 H 699.684 -3.2429 -5.04932 0
M  V30 7441 H 700.754 -3.20793 -3.6362 0
M  V30 7442 N 702.098 1.27442 -0.927168 0
M  V30 7443 C 703.323 1.99036 -0.583042 0
M  V30 7444 C 703.748 1.68711 0.83176 0
M  V30 7445 O 703.106 0.927081 1.55804 0
M  V30 7446 C 703.154 3.51271 -0.814925 0
M  V30 7447 O 702.258 4.12226 0.119742 0
M  V30 7448 H 701.599 0.624883 -0.224538 0
M  V30 7449 H 704.129 1.62263 -1.24628 0
M  V30 7450 H 704.139 4.01411 -0.730282 0
M  V30 7451 H 702.814 3.72676 -1.84623 0
M  V30 7452 H 701.391 3.72897 -0.0147688 0
M  V30 7453 N 703.576 0.692616 1.41565 0
M  V30 7454 C 704.486 0.0258451 2.34586 0
M  V30 7455 C 705.502 -0.769324 1.56069 0
M  V30 7456 O 706.678 -0.707563 1.88562 0
M  V30 7457 C 703.743 -0.901289 3.3478 0
M  V30 7458 C 702.804 -0.0986579 4.29187 0
M  V30 7459 C 702.037 -0.981634 5.24595 0
M  V30 7460 O 702.26 -2.22115 5.25377 0
M  V30 7461 O 701.194 -0.432892 6.00341 0
M  V30 7462 H 705.02 0.792537 2.93177 0
M  V30 7463 H 702.605 0.452935 1.42369 0
M  V30 7464 H 704.487 -1.43302 3.96286 0
M  V30 7465 H 703.162 -1.64752 2.78637 0
M  V30 7466 H 702.069 0.477604 3.71039 0
M  V30 7467 H 703.402 0.608848 4.8842 0
M  V30 7468 N 705.054 -1.51416 0.437162 0
M  V30 7469 C 706.017 -2.26312 -0.362729 0
M  V30 7470 C 707.017 -1.29748 -0.949847 0
M  V30 7471 O 708.207 -1.53462 -0.824325 0
M  V30 7472 C 705.339 -3.05475 -1.5132 0
M  V30 7473 H 706.532 -2.98459 0.29365 0
M  V30 7474 H 704.085 -1.55137 0.190327 0
M  V30 7475 H 704.82 -2.37744 -2.20563 0
M  V30 7476 H 704.605 -3.76401 -1.09838 0
M  V30 7477 H 706.095 -3.62209 -2.07833 0
M  V30 7478 N 706.532 -0.168513 -1.56696 0
M  V30 7479 C 707.78 0.476216 -1.96409 0
M  V30 7480 C 708.101 1.63968 -1.05544 0
M  V30 7481 O 707.371 1.95525 -0.121235 0
M  V30 7482 H 705.951 0.178921 -0.725256 0
M  V30 7483 H 708.613 -0.249042 -1.93302 0
M  V30 7484 H 707.709 0.838094 -3.00637 0
M  V30 7485 N 708.01 1.57248 0.105221 0
M  V30 7486 C 708.973 2.00388 1.11252 0
M  V30 7487 C 709.973 0.89594 1.33527 0
M  V30 7488 O 711.163 1.16166 1.29811 0
M  V30 7489 C 708.295 2.35589 2.46395 0
M  V30 7490 H 709.488 2.90591 0.741424 0
M  V30 7491 H 707.041 1.52332 0.349956 0
M  V30 7492 H 707.776 1.4831 2.884 0
M  V30 7493 H 707.561 3.16408 2.31578 0
M  V30 7494 H 709.051 2.69658 3.18864 0
M  V30 7495 N 709.488 -0.375779 1.53054 0
M  V30 7496 C 710.765 -1.13453 1.59336 0
M  V30 7497 C 711.145 -2.07379 0.394614 0
M  V30 7498 O 710.493 -2.2004 -0.616 0
M  V30 7499 C 710.703 -1.8826 2.93869 0
M  V30 7500 C 712.051 -2.43155 3.48081 0
M  V30 7501 O 713.075 -1.984 2.95831 0
M  V30 7502 O 711.934 -3.24944 4.39401 0
M  V30 7503 H 709.028 -0.519856 0.643179 0
M  V30 7504 H 711.574 -0.379865 1.65394 0
M  V30 7505 H 710.346 -1.19652 3.72558 0
M  V30 7506 H 709.969 -2.70658 2.91256 0
M  V30 7507 N 710.966 -1.44241 -0.634997 0
M  V30 7508 C 712.382 -1.28043 -0.952742 0
M  V30 7509 C 712.582 -0.21338 -2.00367 0
M  V30 7510 O 711.638 0.402042 -2.49279 0
M  V30 7511 C 712.951 -2.65076 -1.41968 0
M  V30 7512 C 714.499 -2.72755 -1.53537 0
M  V30 7513 C 714.974 -4.10249 -2.03616 0
M  V30 7514 N 716.465 -4.12406 -2.10892 0
M  V30 7515 C 717.2 -5.15641 -2.50803 0
M  V30 7516 N 716.696 -6.29239 -2.89879 0
M  V30 7517 N 718.489 -5.02995 -2.50903 0
M  V30 7518 H 710.64 -2.12315 0.060098 0
M  V30 7519 H 712.903 -0.947326 -0.0357325 0
M  V30 7520 H 712.609 -3.44213 -0.721804 0
M  V30 7521 H 712.483 -2.91704 -2.39141 0
M  V30 7522 H 714.87 -1.93939 -2.22422 0
M  V30 7523 H 714.951 -2.49872 -0.547496 0
M  V30 7524 H 714.595 -4.8954 -1.35327 0
M  V30 7525 H 714.525 -4.30507 -3.03268 0
M  V30 7526 H 717.016 -3.30417 -1.83393 0
M  V30 7527 H 717.329 -7.03827 -3.19135 0
M  V30 7528 H 715.674 -6.32683 -2.8764 0
M  V30 7529 H 718.865 -4.13306 -2.19763 0
M  V30 7530 H 719.038 -5.83574 -2.81683 0
M  V30 7531 N 712.444 0.87505 -1.31075 0
M  V30 7532 C 713.376 1.98773 -1.14114 0
M  V30 7533 C 714.389 1.62595 -0.0816119 0
M  V30 7534 O 715.578 1.75449 -0.32861 0
M  V30 7535 C 712.678 3.31159 -0.720224 0
M  V30 7536 C 711.851 3.9571 -1.86366 0
M  V30 7537 C 710.91 5.06407 -1.42965 0
M  V30 7538 O 709.936 5.27501 -2.13848 0
M  V30 7539 N 711.138 5.79649 -0.314194 0
M  V30 7540 H 713.903 2.1387 -2.09951 0
M  V30 7541 H 711.464 1.04873 -1.23342 0
M  V30 7542 H 713.456 4.0259 -0.412687 0
M  V30 7543 H 712.026 3.12257 0.146396 0
M  V30 7544 H 711.246 3.17324 -2.33879 0
M  V30 7545 H 712.534 4.35576 -2.62966 0
M  V30 7546 H 711.932 5.65025 0.276228 0
M  V30 7547 H 710.489 6.51766 -0.0661641 0
M  V30 7548 N 713.922 1.13953 1.08869 0
M  V30 7549 C 715.17 0.903023 1.80803 0
M  V30 7550 C 715.491 -0.572151 1.86417 0
M  V30 7551 O 714.761 -1.41589 1.35386 0
M  V30 7552 H 713.341 0.331099 0.669614 0
M  V30 7553 H 716.003 1.43719 1.31647 0
M  V30 7554 H 715.099 1.29881 2.83791 0
M  V30 7555 N 715.4 -1.26948 0.933913 0
M  V30 7556 C 716.628 -1.98186 0.59414 0
M  V30 7557 C 717.043 -1.69614 -0.829257 0
M  V30 7558 O 716.4 -0.960213 -1.55197 0
M  V30 7559 C 716.451 -3.52123 0.818026 0
M  V30 7560 O 716.172 -3.79698 2.18543 0
M  V30 7561 C 717.673 -4.40608 0.48781 0
M  V30 7562 H 714.893 -0.632305 0.224569 0
M  V30 7563 H 717.437 -1.61646 1.25263 0
M  V30 7564 H 715.592 -3.86851 0.206246 0
M  V30 7565 H 716.006 -4.7426 2.24005 0
M  V30 7566 H 717.48 -5.47606 0.695126 0
M  V30 7567 H 717.957 -4.35394 -0.576913 0
M  V30 7568 H 718.563 -4.11411 1.078 0
M  V30 7569 N 716.879 -0.700114 -1.41195 0
M  V30 7570 C 718.125 -0.233351 -2.01453 0
M  V30 7571 C 718.458 1.16548 -1.55339 0
M  V30 7572 O 717.733 1.78756 -0.766575 0
M  V30 7573 C 718.016 -0.2961 -3.58881 0
M  V30 7574 C 717.869 -1.7322 -4.15108 0
M  V30 7575 C 719.188 0.341525 -4.38773 0
M  V30 7576 H 716.307 -0.0862667 -0.731934 0
M  V30 7577 H 718.949 -0.889693 -1.67882 0
M  V30 7578 H 717.099 0.262736 -3.87611 0
M  V30 7579 H 718.771 -2.34523 -3.97236 0
M  V30 7580 H 717.014 -2.2649 -3.69979 0
M  V30 7581 H 717.685 -1.7276 -5.24269 0
M  V30 7582 H 720.161 -0.134461 -4.15883 0
M  V30 7583 H 719.037 0.267098 -5.4825 0
M  V30 7584 H 719.298 1.42289 -4.18577 0
M  V30 7585 N 718.357 1.51182 -0.445186 0
M  V30 7586 C 719.582 2.07056 0.119445 0
M  V30 7587 C 720.007 1.30966 1.35016 0
M  V30 7588 O 719.365 0.349827 1.77893 0
M  V30 7589 C 719.413 3.58234 0.412428 0
M  V30 7590 O 718.517 3.84249 1.49754 0
M  V30 7591 H 717.858 0.663998 -0.00157797 0
M  V30 7592 H 720.388 1.94699 -0.628779 0
M  V30 7593 H 720.398 4.02617 0.660583 0
M  V30 7594 H 719.073 4.13038 -0.487049 0
M  V30 7595 H 717.65 3.51724 1.23873 0
M  V30 7596 N 719.835 0.176821 1.56605 0
M  V30 7597 C 721.082 -0.466715 1.97048 0
M  V30 7598 C 721.41 -1.6288 1.06302 0
M  V30 7599 O 720.665 -1.95453 0.0982571 0
M  V30 7600 C 720.964 -0.986208 3.43524 0
M  V30 7601 C 720.63 0.0605667 4.50859 0
M  V30 7602 C 719.292 0.348242 4.79938 0
M  V30 7603 C 721.644 0.770794 5.15469 0
M  V30 7604 C 718.972 1.35144 5.70923 0
M  V30 7605 C 721.324 1.76301 6.07537 0
M  V30 7606 C 719.988 2.05808 6.3498 0
M  V30 7607 H 719.258 -0.170783 0.721051 0
M  V30 7608 H 721.905 0.269942 1.89588 0
M  V30 7609 H 720.21 -1.80079 3.47964 0
M  V30 7610 H 721.907 -1.49323 3.72161 0
M  V30 7611 H 718.497 -0.173823 4.28247 0
M  V30 7612 H 722.681 0.56176 4.9311 0
M  V30 7613 H 717.937 1.58616 5.90467 0
M  V30 7614 H 722.111 2.31868 6.56666 0
M  V30 7615 H 719.738 2.8369 7.05283 0
M  V30 7616 N 721.313 -1.57302 -0.09688 0
M  V30 7617 C 722.261 -2.02942 -1.13654 0
M  V30 7618 C 723.255 -0.930173 -1.41577 0
M  V30 7619 O 724.461 -1.11535 -1.41279 0
M  V30 7620 H 720.836 -0.646726 -0.383731 0
M  V30 7621 H 722.807 -2.89452 -0.725267 0
M  V30 7622 C 721.556 -2.46815 -2.44903 0
M  V30 7623 H 720.879 -3.30979 -2.24261 0
M  V30 7624 H 722.319 -2.82527 -3.16156 0
M  V30 7625 C 720.778 -1.34071 -3.09074 0
M  V30 7626 O 721.308 -0.668856 -3.96092 0
M  V30 7627 N 719.514 -1.09214 -2.69296 0
M  V30 7628 H 719.061 -1.64029 -1.98626 0
M  V30 7629 H 719.019 -0.339785 -3.12559 0
M  V30 7630 N 722.791 0.367657 -1.53252 0
M  V30 7631 C 724.038 1.11052 -1.69333 0
M  V30 7632 C 724.366 1.89363 -0.444064 0
M  V30 7633 O 723.621 1.87094 0.573953 0
M  V30 7634 C 723.92 2.09825 -2.89324 0
M  V30 7635 C 723.586 1.4801 -4.25915 0
M  V30 7636 C 722.248 1.30879 -4.6306 0
M  V30 7637 C 724.6 1.03268 -5.10867 0
M  V30 7638 C 721.928 0.675868 -5.82794 0
M  V30 7639 C 724.28 0.41377 -6.31245 0
M  V30 7640 C 722.944 0.229939 -6.67104 0
M  V30 7641 H 722.214 0.406367 -0.619634 0
M  V30 7642 H 724.861 0.392558 -1.87433 0
M  V30 7643 H 723.166 2.87917 -2.65728 0
M  V30 7644 H 724.863 2.67252 -2.98961 0
M  V30 7645 H 721.453 1.62336 -3.96667 0
M  V30 7646 H 725.637 1.15297 -4.82722 0
M  V30 7647 H 720.893 0.521833 -6.09169 0
M  V30 7648 H 725.067 0.0588768 -6.96375 0
M  V30 7649 H 722.694 -0.262562 -7.59746 0
M  V30 7650 N 724.269 1.44576 0.627338 0
M  V30 7651 C 725.68 1.42266 1.20902 0
M  V30 7652 C 726.031 0.139964 1.957 0
M  V30 7653 O 725.156 -0.759489 2.02634 0
M  V30 7654 C 725.751 2.57727 2.19914 0
M  V30 7655 C 724.31 2.58599 2.73502 0
M  V30 7656 C 723.457 2.34145 1.48564 0
M  V30 7657 H 726.408 1.53102 0.417791 0
M  V30 7658 H 726.429 2.30697 3.02588 0
M  V30 7659 H 725.941 3.51068 1.65447 0
M  V30 7660 H 724.042 1.6921 3.31962 0
M  V30 7661 H 724.155 3.57205 3.19282 0
M  V30 7662 H 722.519 1.83313 1.76829 0
M  V30 7663 H 723.302 3.29606 0.959935 0
M  V30 7664 N 725.747 -0.868086 1.31537 0
M  V30 7665 C 726.679 -1.98165 1.15166 0
M  V30 7666 C 727.692 -1.6255 0.0902335 0
M  V30 7667 O 728.881 -1.75272 0.33791 0
M  V30 7668 C 725.981 -3.30772 0.737776 0
M  V30 7669 C 725.154 -3.94716 1.88462 0
M  V30 7670 C 724.213 -5.05641 1.45648 0
M  V30 7671 O 723.239 -5.2636 2.16642 0
M  V30 7672 N 724.441 -5.79474 0.34493 0
M  V30 7673 H 727.206 -2.12754 2.11083 0
M  V30 7674 H 724.767 -1.04217 1.23897 0
M  V30 7675 H 726.759 -4.02366 0.434032 0
M  V30 7676 H 725.329 -3.1233 -0.129834 0
M  V30 7677 H 724.549 -3.16079 2.35558 0
M  V30 7678 H 725.837 -4.34175 2.65273 0
M  V30 7679 H 725.235 -5.65164 -0.246259 0
M  V30 7680 H 723.792 -6.51722 0.100728 0
M  V30 7681 N 727.225 -1.14528 -1.08264 0
M  V30 7682 C 728.474 -0.908992 -1.80056 0
M  V30 7683 C 728.787 0.565859 -1.87236 0
M  V30 7684 O 729.993 0.919454 -2.55457 0
M  V30 7685 C 728.449 -1.57681 -3.23519 0
M  V30 7686 C 728.057 -3.08803 -3.24569 0
M  V30 7687 C 729.801 -1.4217 -3.99985 0
M  V30 7688 C 727.708 -3.68414 -4.62629 0
M  V30 7689 H 726.638 -0.336432 -0.674781 0
M  V30 7690 H 729.289 -1.37437 -1.21587 0
M  V30 7691 H 727.671 -1.03911 -3.82124 0
M  V30 7692 H 728.845 -3.69252 -2.75663 0
M  V30 7693 H 727.16 -3.23968 -2.61598 0
M  V30 7694 H 729.757 -1.84106 -5.02005 0
M  V30 7695 H 730.1 -0.367989 -4.1467 0
M  V30 7696 H 730.633 -1.92984 -3.47853 0
M  V30 7697 H 727.372 -4.73644 -4.53147 0
M  V30 7698 H 726.892 -3.12746 -5.11811 0
M  V30 7699 H 728.571 -3.68793 -5.31602 0
M  V30 7700 N 728.703 1.26451 -0.940633 0
M  V30 7701 C 729.931 1.97868 -0.604642 0
M  V30 7702 C 730.346 1.70051 0.820251 0
M  V30 7703 O 729.703 0.96843 1.54686 0
M  V30 7704 C 729.754 3.51684 -0.836689 0
M  V30 7705 O 729.475 3.78533 -2.20554 0
M  V30 7706 C 730.976 4.40343 -0.511169 0
M  V30 7707 H 728.196 0.631105 -0.227919 0
M  V30 7708 H 730.74 1.60979 -1.26119 0
M  V30 7709 H 728.895 3.86736 -0.226759 0
M  V30 7710 H 729.309 4.73065 -2.26517 0
M  V30 7711 H 730.783 5.47229 -0.724157 0
M  V30 7712 H 731.26 4.35694 0.553815 0
M  V30 7713 H 731.866 4.10834 -1.0998 0
M  V30 7714 N 730.181 0.707592 1.40822 0
M  V30 7715 C 731.111 0.0644925 2.33411 0
M  V30 7716 C 732.092 -0.754205 1.52466 0
M  V30 7717 O 733.277 -0.704749 1.80961 0
M  V30 7718 C 730.407 -0.863865 3.36385 0
M  V30 7719 C 729.361 -0.15138 4.27732 0
M  V30 7720 C 728.687 -1.19491 5.21177 0
M  V30 7721 C 729.987 0.989607 5.12839 0
M  V30 7722 H 731.681 0.837829 2.87438 0
M  V30 7723 H 729.227 0.404346 1.38207 0
M  V30 7724 H 731.18 -1.32309 4.0009 0
M  V30 7725 H 729.904 -1.66901 2.80734 0
M  V30 7726 H 728.563 0.287937 3.65467 0
M  V30 7727 H 728.211 -1.9929 4.61836 0
M  V30 7728 H 727.911 -0.723123 5.83134 0
M  V30 7729 H 729.435 -1.6544 5.8776 0
M  V30 7730 H 730.849 0.610114 5.70044 0
M  V30 7731 H 729.246 1.38926 5.83798 0
M  V30 7732 H 730.316 1.82389 4.49291 0
M  V30 7733 N 731.66 -1.50943 0.453197 0
M  V30 7734 C 732.906 -2.03153 -0.100277 0
M  V30 7735 C 733.261 -1.33032 -1.38997 0
M  V30 7736 O 732.554 -0.441423 -1.86446 0
M  V30 7737 C 732.748 -3.55603 -0.357944 0
M  V30 7738 C 732.577 -4.40495 0.905223 0
M  V30 7739 C 731.347 -4.84247 1.44337 0
M  V30 7740 C 733.545 -4.81931 1.79575 0
M  V30 7741 N 731.527 -5.53403 2.65742 0
M  V30 7742 C 732.898 -5.50314 2.85577 0
M  V30 7743 C 734.953 -4.63903 1.80828 0
M  V30 7744 C 733.656 -6.02581 3.92797 0
M  V30 7745 C 735.682 -5.17097 2.86993 0
M  V30 7746 C 735.044 -5.8544 3.91713 0
M  V30 7747 H 731.143 -0.781995 0.00287755 0
M  V30 7748 H 733.727 -1.84651 0.617411 0
M  V30 7749 H 731.898 -3.74087 -1.04467 0
M  V30 7750 H 733.63 -3.9447 -0.904175 0
M  V30 7751 H 730.385 -4.63029 0.995045 0
M  V30 7752 H 730.809 -5.92598 3.27348 0
M  V30 7753 H 735.451 -4.10512 1.0119 0
M  V30 7754 H 733.169 -6.55018 4.73262 0
M  V30 7755 H 736.755 -5.0499 2.88923 0
M  V30 7756 H 735.635 -6.25861 4.72512 0
M  V30 7757 N 733.138 -0.185124 -1.56509 0
M  V30 7758 C 734.07 0.771401 -2.15829 0
M  V30 7759 C 735.083 1.18392 -1.11747 0
M  V30 7760 O 736.272 1.12137 -1.38879 0
M  V30 7761 C 733.372 2.05169 -2.69739 0
M  V30 7762 C 732.545 1.80056 -3.98621 0
M  V30 7763 C 731.604 2.92435 -4.37456 0
M  V30 7764 O 730.63 2.62473 -5.05071 0
M  V30 7765 N 731.832 4.20554 -4.00143 0
M  V30 7766 H 734.597 0.264184 -2.98533 0
M  V30 7767 H 732.158 -0.00281069 -1.619 0
M  V30 7768 H 734.15 2.7947 -2.92709 0
M  V30 7769 H 732.72 2.47041 -1.91545 0
M  V30 7770 H 731.94 0.895862 -3.83885 0
M  V30 7771 H 733.228 1.60662 -4.82768 0
M  V30 7772 H 732.626 4.47753 -3.45736 0
M  V30 7773 H 731.183 4.91514 -4.28085 0
M  V30 7774 N 734.616 1.57351 0.0885366 0
M  V30 7775 C 736.032 1.53331 0.442916 0
M  V30 7776 C 736.232 0.902831 1.80142 0
M  V30 7777 O 735.288 0.498147 2.47537 0
M  V30 7778 C 736.601 2.98036 0.399372 0
M  V30 7779 C 738.149 3.09286 0.480759 0
M  V30 7780 C 738.624 4.5561 0.467296 0
M  V30 7781 N 740.115 4.60182 0.52786 0
M  V30 7782 C 740.85 5.70857 0.539388 0
M  V30 7783 N 740.346 6.90944 0.506729 0
M  V30 7784 N 742.139 5.59051 0.584691 0
M  V30 7785 H 734.29 1.96709 -0.801215 0
M  V30 7786 H 736.553 0.899639 -0.298922 0
M  V30 7787 H 736.259 3.47656 -0.531806 0
M  V30 7788 H 736.133 3.57066 1.21589 0
M  V30 7789 H 738.52 2.5965 1.40236 0
M  V30 7790 H 738.601 2.53197 -0.364023 0
M  V30 7791 H 738.245 5.05899 -0.450384 0
M  V30 7792 H 738.175 5.09544 1.32938 0
M  V30 7793 H 740.666 3.73757 0.558028 0
M  V30 7794 H 740.979 7.71055 0.518989 0
M  V30 7795 H 739.324 6.93384 0.473675 0
M  V30 7796 H 742.515 4.64138 0.607781 0
M  V30 7797 H 742.688 6.45307 0.590206 0
M  V30 7798 N 736.094 -0.359525 1.53444 0
M  V30 7799 C 737.505 -0.936009 1.61542 0
M  V30 7800 C 737.856 -1.90069 0.486633 0
M  V30 7801 O 736.981 -2.12929 -0.386047 0
M  V30 7802 C 737.576 -1.70441 2.92806 0
M  V30 7803 C 736.135 -2.23015 3.03218 0
M  V30 7804 C 735.282 -1.04438 2.56881 0
M  V30 7805 H 738.233 -0.138134 1.58098 0
M  V30 7806 H 738.254 -2.56609 2.80948 0
M  V30 7807 H 737.766 -1.00205 3.74941 0
M  V30 7808 H 735.867 -2.96475 2.25684 0
M  V30 7809 H 735.98 -2.50481 4.08407 0
M  V30 7810 H 734.344 -1.41314 2.11902 0
M  V30 7811 H 735.127 -0.356905 3.4144 0
M  V30 7812 N 737.572 -1.44907 -0.619662 0
M  V30 7813 C 738.502 -1.55488 -1.742 0
M  V30 7814 C 739.483 -0.407143 -1.65156 0
M  V30 7815 O 740.668 -0.628743 -1.8374 0
M  V30 7816 C 737.798 -1.5097 -3.1277 0
M  V30 7817 C 736.752 -2.64337 -3.36615 0
M  V30 7818 C 736.078 -2.44872 -4.75333 0
M  V30 7819 C 737.378 -4.06423 -3.28051 0
M  V30 7820 H 739.072 -2.49432 -1.65602 0
M  V30 7821 H 736.618 -1.20047 -0.795281 0
M  V30 7822 H 738.571 -1.56971 -3.91073 0
M  V30 7823 H 737.295 -0.535486 -3.2218 0
M  V30 7824 H 735.954 -2.57744 -2.60698 0
M  V30 7825 H 735.602 -1.45617 -4.81461 0
M  V30 7826 H 735.302 -3.20888 -4.92244 0
M  V30 7827 H 736.826 -2.52709 -5.55851 0
M  V30 7828 H 738.24 -4.14324 -3.96243 0
M  V30 7829 H 736.637 -4.82733 -3.56495 0
M  V30 7830 H 737.707 -4.29183 -2.25676 0
M  V30 7831 N 739.05 0.861098 -1.31996 0
M  V30 7832 C 740.296 1.61721 -1.22369 0
M  V30 7833 C 740.629 1.93 0.215587 0
M  V30 7834 O 739.904 1.56789 1.15098 0
M  V30 7835 C 740.187 2.9417 -2.07691 0
M  V30 7836 C 740.04 2.69714 -3.59965 0
M  V30 7837 C 741.359 3.95372 -1.93312 0
M  V30 7838 H 738.478 0.586822 -0.44588 0
M  V30 7839 H 741.12 0.994788 -1.61876 0
M  V30 7840 H 739.27 3.47292 -1.74128 0
M  V30 7841 H 740.942 2.23196 -4.03709 0
M  V30 7842 H 739.185 2.03789 -3.82952 0
M  V30 7843 H 739.856 3.63996 -4.14983 0
M  V30 7844 H 742.332 3.51487 -2.22701 0
M  V30 7845 H 741.208 4.85916 -2.55298 0
M  V30 7846 H 741.469 4.32865 -0.898922 0
M  V30 7847 N 740.528 1.15101 1.07655 0
M  V30 7848 C 741.756 0.947731 1.83918 0
M  V30 7849 C 742.171 -0.503927 1.81951 0
M  V30 7850 O 741.528 -1.34941 1.2287 0
M  V30 7851 C 741.579 1.4503 3.31132 0
M  V30 7852 O 741.3 2.84508 3.33146 0
M  V30 7853 C 742.801 1.28806 4.24174 0
M  V30 7854 H 740.021 0.336786 0.580358 0
M  V30 7855 H 742.565 1.52799 1.35914 0
M  V30 7856 H 740.72 0.912632 3.76497 0
M  V30 7857 H 741.134 3.0723 4.251 0
M  V30 7858 H 742.608 1.6882 5.25551 0
M  V30 7859 H 743.085 0.231851 4.38588 0
M  V30 7860 H 743.691 1.81465 3.84643 0
M  V30 7861 N 742.006 -1.2595 0.947325 0
M  V30 7862 C 743.255 -1.92759 0.593887 0
M  V30 7863 C 743.568 -1.75083 -0.872093 0
M  V30 7864 O 744.774 -2.36401 -1.33518 0
M  V30 7865 C 743.23 -3.45395 1.01144 0
M  V30 7866 C 742.838 -3.71795 2.49946 0
M  V30 7867 C 744.582 -4.18173 0.730185 0
M  V30 7868 C 742.489 -5.17901 2.85539 0
M  V30 7869 H 741.419 -0.721676 0.218403 0
M  V30 7870 H 744.07 -1.4293 1.15079 0
M  V30 7871 H 742.452 -3.94143 0.383007 0
M  V30 7872 H 743.626 -3.33728 3.17746 0
M  V30 7873 H 741.941 -3.12263 2.75465 0
M  V30 7874 H 744.538 -5.25784 0.972367 0
M  V30 7875 H 744.881 -4.14964 -0.333223 0
M  V30 7876 H 745.414 -3.75309 1.31862 0
M  V30 7877 H 742.153 -5.26216 3.90867 0
M  V30 7878 H 741.673 -5.57042 2.22406 0
M  V30 7879 H 743.352 -5.8596 2.74336 0
M  V30 7880 N 743.484 -0.715051 -1.40445 0
M  V30 7881 C 744.9 -0.388555 -1.54798 0
M  V30 7882 C 745.1 1.10271 -1.68649 0
M  V30 7883 O 744.156 1.88875 -1.67578 0
M  V30 7884 C 745.469 -1.15414 -2.77669 0
M  V30 7885 C 747.017 -1.14039 -2.91486 0
M  V30 7886 C 747.492 -1.88812 -4.1727 0
M  V30 7887 N 748.983 -1.85878 -4.24268 0
M  V30 7888 C 749.718 -2.40558 -5.20499 0
M  V30 7889 N 749.214 -3.03791 -6.22642 0
M  V30 7890 N 751.007 -2.30703 -5.12574 0
M  V30 7891 H 743.158 -1.68201 -1.297 0
M  V30 7892 H 745.421 -0.710915 -0.627139 0
M  V30 7893 H 745.127 -2.20853 -2.7371 0
M  V30 7894 H 745.001 -0.745412 -3.69761 0
M  V30 7895 H 747.388 -0.0941996 -2.9495 0
M  V30 7896 H 747.469 -1.58834 -2.00513 0
M  V30 7897 H 747.113 -2.93422 -4.14568 0
M  V30 7898 H 747.043 -1.41438 -5.0725 0
M  V30 7899 H 749.534 -1.39794 -3.51093 0
M  V30 7900 H 749.847 -3.43032 -6.92495 0
M  V30 7901 H 748.192 -3.07875 -6.23087 0
M  V30 7902 H 751.383 -1.80961 -4.31707 0
M  V30 7903 H 751.556 -2.73618 -5.87398 0
M  V30 7904 N 744.962 1.50701 -0.461195 0
M  V30 7905 C 746.211 2.01458 0.0988277 0
M  V30 7906 C 746.524 1.34863 1.41673 0
M  V30 7907 O 747.73 1.76721 2.06111 0
M  V30 7908 C 746.186 3.59186 0.226648 0
M  V30 7909 C 745.794 4.34732 -1.08223 0
M  V30 7910 C 747.538 4.18015 0.73916 0
M  V30 7911 C 745.445 5.8422 -0.918747 0
M  V30 7912 H 744.375 0.7529 0.040709 0
M  V30 7913 H 747.026 1.736 -0.594589 0
M  V30 7914 H 745.408 3.83589 0.983621 0
M  V30 7915 H 746.582 4.22059 -1.84939 0
M  V30 7916 H 744.897 3.87466 -1.52509 0
M  V30 7917 H 747.494 5.27436 0.878347 0
M  V30 7918 H 747.837 3.78746 1.72793 0
M  V30 7919 H 748.37 3.9778 0.0398469 0
M  V30 7920 H 745.109 6.27944 -1.88059 0
M  V30 7921 H 744.629 5.99493 -0.191801 0
M  V30 7922 H 746.308 6.44382 -0.581405 0
M  V30 7923 N 746.441 0.193421 1.56409 0
M  V30 7924 C 747.689 -0.444908 1.97142 0
M  V30 7925 C 748.01 -1.62268 1.08139 0
M  V30 7926 O 747.28 -1.95307 0.152326 0
M  V30 7927 H 745.86 -0.16736 0.728011 0
M  V30 7928 H 748.522 0.279763 1.92882 0
M  V30 7929 H 747.618 -0.790159 3.01932 0
M  V30 7930 N 747.919 -1.57396 -0.0801906 0
M  V30 7931 C 749.167 -1.86467 -0.779384 0
M  V30 7932 C 749.488 -0.784243 -1.78535 0
M  V30 7933 O 748.758 0.187986 -1.94996 0
M  V30 7934 H 747.338 -0.68806 -0.29083 0
M  V30 7935 H 750 -1.94813 -0.0582749 0
M  V30 7936 H 749.096 -2.83701 -1.30078 0
M  V30 7937 N 749.397 0.351382 -1.53633 0
M  V30 7938 C 750.329 1.45159 -1.77374 0
M  V30 7939 C 751.342 1.4905 -0.654826 0
M  V30 7940 O 752.531 1.52274 -0.931396 0
M  V30 7941 C 749.631 2.83858 -1.85143 0
M  V30 7942 C 748.804 3.03498 -3.14972 0
M  V30 7943 C 747.863 4.22393 -3.138 0
M  V30 7944 O 746.889 4.16885 -3.87551 0
M  V30 7945 N 748.091 5.30533 -2.35617 0
M  V30 7946 H 750.856 1.25167 -2.72311 0
M  V30 7947 H 748.417 0.54121 -1.52586 0
M  V30 7948 H 750.409 3.61557 -1.8182 0
M  V30 7949 H 748.979 2.9703 -0.974275 0
M  V30 7950 H 748.199 2.13336 -3.31484 0
M  V30 7951 H 749.487 3.13498 -4.00745 0
M  V30 7952 H 748.885 5.37875 -1.75235 0
M  V30 7953 H 747.442 6.06756 -2.38098 0
M  V30 7954 N 750.875 1.45233 0.611969 0
M  V30 7955 C 751.805 1.5641 1.73373 0
M  V30 7956 C 752.786 0.415896 1.64937 0
M  V30 7957 O 753.971 0.638478 1.83404 0
M  V30 7958 C 751.101 1.52627 3.11965 0
M  V30 7959 C 750.055 2.66119 3.35208 0
M  V30 7960 C 749.381 2.4739 4.74028 0
M  V30 7961 C 750.681 4.08157 3.25891 0
M  V30 7962 H 752.375 2.50307 1.64277 0
M  V30 7963 H 749.921 1.20467 0.788904 0
M  V30 7964 H 751.874 1.59043 3.90235 0
M  V30 7965 H 750.598 0.552564 3.21892 0
M  V30 7966 H 749.257 2.59123 2.59327 0
M  V30 7967 H 748.905 1.48168 4.80682 0
M  V30 7968 H 748.605 3.23494 4.90536 0
M  V30 7969 H 750.129 2.55653 5.54503 0
M  V30 7970 H 751.543 4.1642 3.9404 0
M  V30 7971 H 749.94 4.84617 3.5393 0
M  V30 7972 H 751.01 4.30374 2.23397 0
M  V30 7973 N 752.353 -0.854086 1.3245 0
M  V30 7974 C 753.3 -1.96271 1.21434 0
M  V30 7975 C 754.27 -1.6582 0.0963851 0
M  V30 7976 O 755.455 -1.88851 0.27203 0
M  V30 7977 C 752.595 -3.31939 0.943952 0
M  V30 7978 C 751.708 -3.74885 2.14675 0
M  V30 7979 C 750.843 -4.99347 1.81179 0
M  V30 7980 C 749.882 -5.34785 2.97777 0
M  V30 7981 N 749.019 -6.50425 2.6437 0
M  V30 7982 H 753.859 -2.05025 2.16261 0
M  V30 7983 H 751.396 -1.00348 1.07558 0
M  V30 7984 H 753.354 -4.10076 0.767675 0
M  V30 7985 H 751.984 -3.22784 0.0324763 0
M  V30 7986 H 751.036 -2.92396 2.43328 0
M  V30 7987 H 752.348 -3.97068 3.01891 0
M  V30 7988 H 751.502 -5.85193 1.60107 0
M  V30 7989 H 750.241 -4.79101 0.911777 0
M  V30 7990 H 749.246 -4.47451 3.1948 0
M  V30 7991 H 750.471 -5.56988 3.88511 0
M  V30 7992 H 748.417 -6.31695 1.7691 0
M  V30 7993 H 748.334 -6.7263 3.45116 0
M  V30 7994 H 749.602 -7.39422 2.46729 0
M  V30 7995 N 753.831 -1.1567 -1.07043 0
M  V30 7996 C 754.741 -0.870435 -2.17855 0
M  V30 7997 C 755.757 0.154452 -1.73313 0
M  V30 7998 O 756.933 -0.0203759 -2.0139 0
M  V30 7999 C 753.998 -0.367219 -3.4475 0
M  V30 8000 C 753.059 -1.45639 -4.03841 0
M  V30 8001 C 752.292 -0.977092 -5.2468 0
M  V30 8002 O 752.515 0.176127 -5.70128 0
M  V30 8003 O 751.449 -1.76215 -5.75527 0
M  V30 8004 H 755.275 -1.79687 -2.44839 0
M  V30 8005 H 752.86 -0.936064 -1.1644 0
M  V30 8006 H 754.742 -0.0931947 -4.21297 0
M  V30 8007 H 753.417 0.53131 -3.1931 0
M  V30 8008 H 752.324 -1.78406 -3.28819 0
M  V30 8009 H 753.657 -2.32995 -4.3356 0
M  V30 8010 N 755.309 1.25446 -0.953992 0
M  V30 8011 C 756.272 2.24156 -0.478179 0
M  V30 8012 C 757.272 1.55278 0.417776 0
M  V30 8013 O 758.462 1.72866 0.215155 0
M  V30 8014 C 755.594 3.39495 0.309202 0
M  V30 8015 H 756.787 2.67764 -1.35064 0
M  V30 8016 H 754.34 1.37822 -0.737206 0
M  V30 8017 H 755.075 3.01307 1.19936 0
M  V30 8018 H 754.86 3.90679 -0.333562 0
M  V30 8019 H 756.35 4.12796 0.631594 0
M  V30 8020 N 756.787 0.722489 1.40064 0
M  V30 8021 C 757.717 0.0892452 2.33329 0
M  V30 8022 C 758.698 -0.737992 1.53257 0
M  V30 8023 O 759.883 -0.685516 1.81698 0
M  V30 8024 C 757.013 -0.828139 3.37282 0
M  V30 8025 C 755.967 -0.106005 4.27869 0
M  V30 8026 C 755.293 -1.13957 5.22415 0
M  V30 8027 C 756.593 1.04395 5.11761 0
M  V30 8028 H 758.287 0.868269 2.86534 0
M  V30 8029 H 755.833 0.418982 1.3777 0
M  V30 8030 H 757.786 -1.28058 4.01471 0
M  V30 8031 H 756.51 -1.63914 2.82489 0
M  V30 8032 H 755.169 0.326683 3.65142 0
M  V30 8033 H 754.817 -1.9438 4.63924 0
M  V30 8034 H 754.517 -0.661233 5.83868 0
M  V30 8035 H 756.041 -1.59197 5.89482 0
M  V30 8036 H 757.455 0.670541 5.69365 0
M  V30 8037 H 755.852 1.4511 5.82291 0
M  V30 8038 H 756.922 1.87144 4.47331 0
M  V30 8039 N 758.265 -1.50454 0.469181 0
M  V30 8040 C 759.195 -2.31353 -0.31592 0
M  V30 8041 C 760.176 -1.38172 -0.992094 0
M  V30 8042 O 761.361 -1.67093 -0.989633 0
M  V30 8043 C 758.491 -3.1786 -1.39937 0
M  V30 8044 C 757.445 -4.19578 -0.844909 0
M  V30 8045 C 756.771 -4.9481 -2.0265 0
M  V30 8046 C 758.071 -5.22106 0.142499 0
M  V30 8047 H 759.765 -2.97237 0.359269 0
M  V30 8048 H 757.311 -1.42942 0.174224 0
M  V30 8049 H 759.264 -3.7325 -1.95607 0
M  V30 8050 H 757.988 -2.49858 -2.1033 0
M  V30 8051 H 756.647 -3.65285 -0.310189 0
M  V30 8052 H 756.295 -4.23282 -2.71737 0
M  V30 8053 H 755.995 -5.63613 -1.66174 0
M  V30 8054 H 757.519 -5.53035 -2.58815 0
M  V30 8055 H 758.933 -5.72378 -0.324966 0
M  V30 8056 H 757.33 -5.98618 0.421441 0
M  V30 8057 H 758.4 -4.7297 1.06901 0
M  V30 8058 N 759.743 -0.201713 -1.56304 0
M  V30 8059 C 761.02 0.483273 -1.89536 0
M  V30 8060 C 761.4 1.79176 -1.11621 0
M  V30 8061 O 760.748 2.27445 -0.219339 0
M  V30 8062 C 760.958 0.695604 -3.41998 0
M  V30 8063 C 762.306 1.012 -4.12364 0
M  V30 8064 O 763.33 0.783094 -3.47485 0
M  V30 8065 O 762.189 1.44534 -5.27041 0
M  V30 8066 H 759.283 0.252801 -0.787414 0
M  V30 8067 H 761.829 -0.24242 -1.6796 0
M  V30 8068 H 760.601 -0.228165 -3.90634 0
M  V30 8069 H 760.224 1.47351 -3.69288 0
M  V30 8070 N 761.222 1.57436 0.0718424 0
M  V30 8071 C 762.45 1.91474 0.783932 0
M  V30 8072 C 762.865 0.797669 1.71122 0
M  V30 8073 O 762.222 -0.228989 1.81058 0
M  V30 8074 C 762.273 3.25259 1.57761 0
M  V30 8075 O 761.994 4.3267 0.687596 0
M  V30 8076 C 763.495 3.7331 2.3907 0
M  V30 8077 H 760.715 0.632901 0.222885 0
M  V30 8078 H 763.259 2.04457 0.0421262 0
M  V30 8079 H 761.414 3.13804 2.27169 0
M  V30 8080 H 761.828 5.09641 1.23962 0
M  V30 8081 H 763.302 4.69551 2.90216 0
M  V30 8082 H 763.779 3.02318 3.18591 0
M  V30 8083 H 764.385 3.8771 1.74818 0
M  V30 8084 N 762.7 -0.34323 1.53817 0
M  V30 8085 C 763.948 -1.0813 1.70741 0
M  V30 8086 C 764.269 -1.89165 0.473461 0
M  V30 8087 O 763.539 -1.89075 -0.512605 0
M  V30 8088 H 762.119 -0.40219 0.629486 0
M  V30 8089 H 764.781 -0.384426 1.91071 0
M  V30 8090 H 763.877 -1.7585 2.57843 0
M  V30 8091 N 764.178 -1.45556 -0.604258 0
M  V30 8092 C 765.141 -1.54091 -1.69672 0
M  V30 8093 C 766.141 -0.420076 -1.55216 0
M  V30 8094 O 767.331 -0.683671 -1.60224 0
M  V30 8095 C 764.463 -1.44063 -3.08964 0
M  V30 8096 H 765.656 -2.51431 -1.6347 0
M  V30 8097 H 763.209 -1.33046 -0.820273 0
M  V30 8098 H 763.944 -0.479201 -3.2074 0
M  V30 8099 H 763.729 -2.25362 -3.20865 0
M  V30 8100 H 765.219 -1.53075 -3.88533 0
M  V30 8101 N 765.656 0.84705 -1.32902 0
M  V30 8102 C 766.933 1.58583 -1.14503 0
M  V30 8103 C 767.313 2.09075 0.291724 0
M  V30 8104 O 766.661 1.88636 1.28952 0
M  V30 8105 C 766.871 2.72605 -2.17916 0
M  V30 8106 C 768.219 3.41993 -2.51646 0
M  V30 8107 O 769.243 2.82838 -2.1652 0
M  V30 8108 O 768.102 4.48761 -3.1189 0
M  V30 8109 H 765.196 0.698756 -0.442345 0
M  V30 8110 H 767.742 0.890516 -1.44457 0
M  V30 8111 H 766.514 2.32876 -3.14459 0
M  V30 8112 H 766.137 3.49807 -1.89 0
M  V30 8113 N 767.134 1.16236 1.06428 0
M  V30 8114 C 768.411 0.853294 1.76006 0
M  V30 8115 C 768.791 -0.649162 2.00871 0
M  V30 8116 O 768.139 -1.59653 1.63472 0
M  V30 8117 C 768.349 1.67448 3.06206 0
M  V30 8118 C 769.697 1.8866 3.80385 0
M  V30 8119 O 770.721 1.64303 3.16043 0
M  V30 8120 O 769.58 2.29518 4.95968 0
M  V30 8121 H 766.674 0.314737 0.764767 0
M  V30 8122 H 769.22 1.26865 1.12709 0
M  V30 8123 H 767.992 2.69411 2.83784 0
M  V30 8124 H 767.615 1.25608 3.77238 0
M  V30 8125 N 768.612 -1.24939 0.960631 0
M  V30 8126 C 769.84 -1.96881 0.636045 0
M  V30 8127 C 770.255 -1.71334 -0.793093 0
M  V30 8128 O 769.612 -0.992917 -1.53125 0
M  V30 8129 C 769.663 -3.50309 0.892533 0
M  V30 8130 O 769.384 -3.74977 2.26548 0
M  V30 8131 C 770.885 -4.39474 0.581159 0
M  V30 8132 H 768.105 -0.627399 0.237931 0
M  V30 8133 H 770.649 -1.58952 1.28664 0
M  V30 8134 H 768.804 -3.86326 0.288257 0
M  V30 8135 H 769.218 -4.69401 2.34014 0
M  V30 8136 H 770.692 -5.46008 0.811125 0
M  V30 8137 H 771.169 -4.3652 -0.48443 0
M  V30 8138 H 771.775 -4.09032 1.16502 0
M  V30 8139 N 770.09 -0.729906 -1.39679 0
M  V30 8140 C 771.336 -0.27603 -2.00913 0
M  V30 8141 C 771.669 1.13227 -1.57776 0
M  V30 8142 O 770.944 1.7709 -0.804319 0
M  V30 8143 C 771.227 -0.372157 -3.58172 0
M  V30 8144 C 771.08 -1.81986 -4.11341 0
M  V30 8145 C 772.399 0.248378 -4.39399 0
M  V30 8146 H 769.518 -0.101773 -0.729939 0
M  V30 8147 H 772.16 -0.925104 -1.65957 0
M  V30 8148 H 770.31 0.180459 -3.88081 0
M  V30 8149 H 771.982 -2.42896 -3.92172 0
M  V30 8150 H 770.225 -2.34287 -3.65092 0
M  V30 8151 H 770.896 -1.83842 -5.20486 0
M  V30 8152 H 773.372 -0.222645 -4.15504 0
M  V30 8153 H 772.248 0.150746 -5.48693 0
M  V30 8154 H 772.509 1.33378 -4.21501 0
M  V30 8155 N 771.568 1.50203 -0.477153 0
M  V30 8156 C 772.498 2.31517 0.303646 0
M  V30 8157 C 773.479 1.38696 0.984753 0
M  V30 8158 O 774.664 1.67615 0.980758 0
M  V30 8159 C 771.794 3.18598 1.38249 0
M  V30 8160 C 770.748 4.2002 0.822645 0
M  V30 8161 C 770.074 4.95878 2.00024 0
M  V30 8162 C 771.374 5.22023 -0.170185 0
M  V30 8163 H 773.068 2.97042 -0.375027 0
M  V30 8164 H 770.614 1.42848 -0.181802 0
M  V30 8165 H 772.567 3.74282 1.93625 0
M  V30 8166 H 771.291 2.5097 2.09002 0
M  V30 8167 H 769.95 3.65445 0.290813 0
M  V30 8168 H 769.598 4.24717 2.69489 0
M  V30 8169 H 769.298 5.64487 1.63183 0
M  V30 8170 H 770.822 5.54399 2.55878 0
M  V30 8171 H 772.236 5.72543 0.294606 0
M  V30 8172 H 770.633 5.98386 -0.453181 0
M  V30 8173 H 771.703 4.72396 -1.09408 0
M  V30 8174 N 773.046 0.209999 1.56195 0
M  V30 8175 C 773.956 -0.716459 2.23392 0
M  V30 8176 C 774.972 -1.22291 1.23778 0
M  V30 8177 O 776.148 -1.26694 1.56558 0
M  V30 8178 C 773.213 -1.91261 2.89172 0
M  V30 8179 C 772.274 -1.44927 4.04097 0
M  V30 8180 C 771.507 -2.5884 4.66731 0
M  V30 8181 O 771.73 -3.76693 4.2832 0
M  V30 8182 O 770.664 -2.30701 5.55932 0
M  V30 8183 H 774.49 -0.174089 3.03201 0
M  V30 8184 H 772.075 -0.0199505 1.49387 0
M  V30 8185 H 773.957 -2.6114 3.30733 0
M  V30 8186 H 772.632 -2.4433 2.12331 0
M  V30 8187 H 771.539 -0.718839 3.67129 0
M  V30 8188 H 772.872 -0.965084 4.82646 0
M  V30 8189 N 774.524 -1.57472 -0.0634922 0
M  V30 8190 C 775.434 -2.07621 -1.09227 0
M  V30 8191 C 776.45 -1.00746 -1.41867 0
M  V30 8192 O 777.626 -1.32269 -1.51878 0
M  V30 8193 C 774.691 -2.51707 -2.38421 0
M  V30 8194 C 773.752 -3.72917 -2.12676 0
M  V30 8195 C 772.985 -4.14891 -3.3571 0
M  V30 8196 O 773.208 -3.56663 -4.45137 0
M  V30 8197 O 772.142 -5.07616 -3.23434 0
M  V30 8198 H 775.968 -2.95612 -0.696205 0
M  V30 8199 H 773.553 -1.46787 -0.27819 0
M  V30 8200 H 775.435 -2.80547 -3.14438 0
M  V30 8201 H 774.11 -1.66842 -2.77391 0
M  V30 8202 H 773.017 -3.49148 -1.34337 0
M  V30 8203 H 774.35 -4.5866 -1.78583 0
M  V30 8204 N 776.003 0.335068 -1.53997 0
M  V30 8205 C 776.936 1.43533 -1.77407 0
M  V30 8206 C 777.914 1.5017 -0.623529 0
M  V30 8207 O 779.098 1.67756 -0.85966 0
M  V30 8208 C 776.225 2.81712 -1.88033 0
M  V30 8209 C 775.271 2.92661 -3.10245 0
M  V30 8210 S 776.104 2.58254 -4.69111 0
M  V30 8211 C 777.26 3.98525 -4.82627 0
M  V30 8212 H 777.493 1.2346 -2.70453 0
M  V30 8213 H 775.026 0.531234 -1.44973 0
M  V30 8214 H 776.984 3.61314 -1.9484 0
M  V30 8215 H 775.645 2.99075 -0.959849 0
M  V30 8216 H 774.838 3.93931 -3.14379 0
M  V30 8217 H 774.44 2.21017 -3.01708 0
M  V30 8218 H 776.732 4.93146 -4.64557 0
M  V30 8219 H 777.675 3.9938 -5.84723 0
M  V30 8220 H 778.083 3.86945 -4.11016 0
M  V30 8221 N 777.481 1.45874 0.596531 0
M  V30 8222 C 778.429 1.55739 1.72766 0
M  V30 8223 C 779.423 0.426666 1.63939 0
M  V30 8224 O 780.629 0.60301 1.69599 0
M  V30 8225 H 777.004 0.489386 0.570968 0
M  V30 8226 H 778.975 2.50871 1.61575 0
M  V30 8227 C 777.724 1.55174 3.11153 0
M  V30 8228 H 777.047 2.41511 3.1861 0
M  V30 8229 H 778.487 1.66133 3.90097 0
M  V30 8230 C 776.946 0.278001 3.35751 0
M  V30 8231 O 777.476 -0.637557 3.96608 0
M  V30 8232 N 775.682 0.170227 2.90101 0
M  V30 8233 H 775.229 0.916159 2.40758 0
M  V30 8234 H 775.187 -0.68117 3.06932 0
M  V30 8235 N 778.959 -0.83999 1.33349 0
M  V30 8236 C 779.889 -1.965 1.26135 0
M  V30 8237 C 780.87 -1.69505 0.142152 0
M  V30 8238 O 782.055 -1.91346 0.331743 0
M  V30 8239 C 779.185 -3.32632 0.99866 0
M  V30 8240 C 778.139 -3.74021 2.08068 0
M  V30 8241 C 777.465 -5.07947 1.67014 0
M  V30 8242 C 778.765 -3.87925 3.49731 0
M  V30 8243 H 780.459 -2.02793 2.20262 0
M  V30 8244 H 778.005 -0.974297 1.06035 0
M  V30 8245 H 779.958 -4.10903 0.934696 0
M  V30 8246 H 778.682 -3.26593 0.0217759 0
M  V30 8247 H 777.341 -2.98012 2.13505 0
M  V30 8248 H 776.989 -4.98378 0.680316 0
M  V30 8249 H 776.689 -5.36611 2.39422 0
M  V30 8250 H 778.213 -5.88695 1.62082 0
M  V30 8251 H 779.627 -4.5651 3.46802 0
M  V30 8252 H 778.024 -4.28023 4.20614 0
M  V30 8253 H 779.094 -2.90407 3.88319 0
M  V30 8254 N 780.437 -1.16799 -1.0581 0
M  V30 8255 C 781.848 -0.95945 -1.60161 0
M  V30 8256 C 782.199 0.49543 -1.89842 0
M  V30 8257 O 781.324 1.36957 -1.67546 0
M  V30 8258 C 781.919 -1.73527 -2.90987 0
M  V30 8259 C 780.478 -1.57158 -3.42021 0
M  V30 8260 C 779.625 -1.74089 -2.15843 0
M  V30 8261 H 782.576 -1.31598 -0.886992 0
M  V30 8262 H 782.597 -1.21397 -3.60615 0
M  V30 8263 H 782.109 -2.79411 -2.69353 0
M  V30 8264 H 780.21 -0.537361 -3.68705 0
M  V30 8265 H 780.323 -2.35858 -4.17022 0
M  V30 8266 H 778.687 -1.16874 -2.26302 0
M  V30 8267 H 779.47 -2.81371 -1.96686 0
M  V30 8268 N 781.915 1.24427 -0.967243 0
M  V30 8269 C 783.163 1.92107 -0.627638 0
M  V30 8270 C 783.484 1.75991 0.83978 0
M  V30 8271 O 782.754 1.13118 1.59941 0
M  V30 8272 H 781.334 0.710986 -0.229145 0
M  V30 8273 H 783.996 1.51331 -1.22821 0
M  V30 8274 H 783.092 2.99791 -0.867844 0
M  V30 8275 N 783.393 0.737304 1.3929 0
M  V30 8276 C 784.34 0.0988364 2.30588 0
M  V30 8277 C 785.31 -0.727206 1.49335 0
M  V30 8278 O 786.495 -0.686694 1.78014 0
M  V30 8279 C 783.635 -0.800734 3.35682 0
M  V30 8280 C 782.748 0.0381731 4.31983 0
M  V30 8281 C 781.883 -0.862884 5.24145 0
M  V30 8282 C 780.922 -0.0193639 6.12097 0
M  V30 8283 N 780.059 -0.87648 6.96608 0
M  V30 8284 H 784.899 0.883031 2.84617 0
M  V30 8285 H 782.436 0.447111 1.4014 0
M  V30 8286 H 784.394 -1.33676 3.95205 0
M  V30 8287 H 783.024 -1.55088 2.83103 0
M  V30 8288 H 782.076 0.691641 3.74059 0
M  V30 8289 H 783.388 0.690294 4.94 0
M  V30 8290 H 782.542 -1.46667 5.88705 0
M  V30 8291 H 781.281 -1.54878 4.62454 0
M  V30 8292 H 780.286 0.597202 5.46547 0
M  V30 8293 H 781.511 0.663348 6.75852 0
M  V30 8294 H 779.457 -1.54762 6.37483 0
M  V30 8295 H 779.374 -0.280892 7.55478 0
M  V30 8296 H 780.642 -1.46575 7.65595 0
M  V30 8297 N 784.871 -1.49948 0.485112 0
M  V30 8298 C 786.117 -2.0332 -0.0571625 0
M  V30 8299 C 786.472 -1.35951 -1.36144 0
M  V30 8300 O 785.765 -0.480871 -1.85467 0
M  V30 8301 C 785.959 -3.56282 -0.282434 0
M  V30 8302 C 785.788 -4.38476 0.998455 0
M  V30 8303 C 784.558 -4.81076 1.54576 0
M  V30 8304 C 786.756 -4.78013 1.89758 0
M  V30 8305 N 784.738 -5.47641 2.77421 0
M  V30 8306 C 786.109 -5.44133 2.97186 0
M  V30 8307 C 788.164 -4.59963 1.90627 0
M  V30 8308 C 786.867 -5.94113 4.0549 0
M  V30 8309 C 788.893 -5.10893 2.97897 0
M  V30 8310 C 788.255 -5.77 4.04043 0
M  V30 8311 H 784.354 -0.781758 0.0194642 0
M  V30 8312 H 786.938 -1.833 0.65644 0
M  V30 8313 H 785.109 -3.76219 -0.965083 0
M  V30 8314 H 786.841 -3.96299 -0.820298 0
M  V30 8315 H 783.596 -4.60814 1.09304 0
M  V30 8316 H 784.02 -5.85521 3.39844 0
M  V30 8317 H 788.662 -4.08274 1.09875 0
M  V30 8318 H 786.38 -6.44832 4.8705 0
M  V30 8319 H 789.966 -4.98748 2.9957 0
M  V30 8320 H 788.846 -6.15698 4.85681 0
M  V30 8321 N 786.349 -0.21828 -1.56081 0
M  V30 8322 C 787.296 0.693189 -2.20144 0
M  V30 8323 C 788.266 1.19274 -1.15598 0
M  V30 8324 O 789.451 1.25243 -1.4394 0
M  V30 8325 C 786.591 1.89715 -2.88275 0
M  V30 8326 C 785.704 1.4368 -4.07407 0
M  V30 8327 C 784.839 2.59807 -4.63329 0
M  V30 8328 C 783.878 2.10492 -5.74769 0
M  V30 8329 N 783.015 3.1988 -6.24997 0
M  V30 8330 H 787.855 0.14016 -2.9767 0
M  V30 8331 H 785.392 0.0574292 -1.46988 0
M  V30 8332 H 787.35 2.60398 -3.25958 0
M  V30 8333 H 785.98 2.42311 -2.13273 0
M  V30 8334 H 785.032 0.625007 -3.7523 0
M  V30 8335 H 786.344 1.03517 -4.8794 0
M  V30 8336 H 785.498 3.38577 -5.03438 0
M  V30 8337 H 784.237 3.03256 -3.81951 0
M  V30 8338 H 783.242 1.30182 -5.34165 0
M  V30 8339 H 784.467 1.68045 -6.5798 0
M  V30 8340 H 782.413 3.62817 -5.46534 0
M  V30 8341 H 782.33 2.83958 -7.00645 0
M  V30 8342 H 783.598 3.98796 -6.69763 0
M  V30 8343 N 787.827 1.57504 0.0551401 0
M  V30 8344 C 789.238 1.76626 0.604979 0
M  V30 8345 C 789.589 0.845978 1.77024 0
M  V30 8346 O 788.714 0.0341936 2.16373 0
M  V30 8347 C 789.309 3.203 1.10425 0
M  V30 8348 C 787.868 3.4071 1.59981 0
M  V30 8349 C 787.015 2.72258 0.526414 0
M  V30 8350 H 789.966 1.57775 -0.171072 0
M  V30 8351 H 789.987 3.25377 1.97256 0
M  V30 8352 H 789.499 3.87255 0.255939 0
M  V30 8353 H 787.6 2.78892 2.47083 0
M  V30 8354 H 787.713 4.49227 1.66528 0
M  V30 8355 H 786.077 2.35283 0.97539 0
M  V30 8356 H 786.86 3.41879 -0.311991 0
M  V30 8357 N 789.305 -0.326896 1.54172 0
M  V30 8358 C 790.252 -1.40216 1.83325 0
M  V30 8359 C 791.222 -1.51538 0.680107 0
M  V30 8360 O 792.407 -1.66811 0.926206 0
M  V30 8361 C 789.547 -2.76626 2.0633 0
M  V30 8362 C 788.66 -2.73963 3.34019 0
M  V30 8363 C 787.795 -4.02198 3.47002 0
M  V30 8364 C 786.834 -3.93828 4.68578 0
M  V30 8365 N 785.971 -5.13787 4.78506 0
M  V30 8366 H 790.811 -1.14656 2.7506 0
M  V30 8367 H 788.348 -0.555089 1.36225 0
M  V30 8368 H 790.306 -3.55922 2.17659 0
M  V30 8369 H 788.936 -3.00503 1.1789 0
M  V30 8370 H 787.988 -1.86677 3.31445 0
M  V30 8371 H 789.3 -2.6366 4.2342 0
M  V30 8372 H 788.454 -4.89923 3.57855 0
M  V30 8373 H 787.193 -4.15302 2.55687 0
M  V30 8374 H 786.198 -3.04487 4.57786 0
M  V30 8375 H 787.423 -3.82292 5.61275 0
M  V30 8376 H 785.369 -5.27403 3.90105 0
M  V30 8377 H 785.286 -5.05807 5.61868 0
M  V30 8378 H 786.554 -6.03236 4.93686 0
M  V30 8379 N 790.784 -1.46188 -0.588786 0
M  V30 8380 C 791.717 -1.508 -1.71274 0
M  V30 8381 C 792.695 -0.362635 -1.58505 0
M  V30 8382 O 793.879 -0.565899 -1.79805 0
M  V30 8383 C 791.006 -1.38082 -3.09275 0
M  V30 8384 C 790.052 -2.56723 -3.40581 0
M  V30 8385 S 790.885 -4.1911 -3.33327 0
M  V30 8386 C 792.041 -4.08891 -4.73877 0
M  V30 8387 H 792.274 -2.45895 -1.67102 0
M  V30 8388 H 789.807 -1.34 -0.767025 0
M  V30 8389 H 791.765 -1.31432 -3.88891 0
M  V30 8390 H 790.426 -0.444259 -3.10942 0
M  V30 8391 H 789.619 -2.43801 -4.41109 0
M  V30 8392 H 789.221 -2.60332 -2.68521 0
M  V30 8393 H 791.513 -3.75196 -5.64123 0
M  V30 8394 H 792.456 -5.09395 -4.91856 0
M  V30 8395 H 792.864 -3.40239 -4.50441 0
M  V30 8396 N 792.262 0.832906 -1.33792 0
M  V30 8397 C 793.511 1.58351 -1.24932 0
M  V30 8398 C 793.824 1.94754 0.181703 0
M  V30 8399 O 795.03 2.6865 0.392375 0
M  V30 8400 C 793.486 2.85643 -2.18943 0
M  V30 8401 C 793.094 2.56581 -3.67247 0
M  V30 8402 C 794.838 3.63667 -2.18968 0
M  V30 8403 C 792.745 3.80006 -4.53155 0
M  V30 8404 H 791.675 0.594278 -0.464058 0
M  V30 8405 H 794.326 0.91786 -1.58895 0
M  V30 8406 H 792.708 3.53781 -1.77919 0
M  V30 8407 H 793.882 1.96617 -4.16747 0
M  V30 8408 H 792.197 1.91851 -3.6957 0
M  V30 8409 H 794.794 4.55293 -2.80379 0
M  V30 8410 H 795.137 3.99039 -1.18631 0
M  V30 8411 H 795.67 3.0246 -2.58384 0
M  V30 8412 H 792.409 3.4976 -5.5439 0
M  V30 8413 H 791.929 4.39288 -4.08395 0
M  V30 8414 H 793.608 4.47523 -4.6726 0
M  V30 8415 N 793.74 1.17359 1.05189 0
M  V30 8416 C 794.988 0.960087 1.77839 0
M  V30 8417 C 795.309 -0.512554 1.88143 0
M  V30 8418 O 794.579 -1.3721 1.39822 0
M  V30 8419 H 793.159 0.352234 0.658741 0
M  V30 8420 H 795.821 1.47834 1.27008 0
M  V30 8421 H 794.917 1.38843 2.79516 0
M  V30 8422 N 795.218 -1.23913 0.973828 0
M  V30 8423 C 796.466 -1.91771 0.637817 0
M  V30 8424 C 796.787 -1.76434 -0.830435 0
M  V30 8425 O 796.057 -1.13965 -1.59339 0
M  V30 8426 H 794.637 -0.709761 0.232912 0
M  V30 8427 H 797.299 -1.50677 1.23622 0
M  V30 8428 H 796.395 -2.99327 0.883731 0
M  V30 8429 N 796.696 -0.74468 -1.38897 0
M  V30 8430 C 797.945 -0.293716 -1.9955 0
M  V30 8431 C 798.258 1.12831 -1.59777 0
M  V30 8432 O 799.464 1.67929 -2.13336 0
M  V30 8433 C 797.92 -0.474188 -3.56762 0
M  V30 8434 C 797.528 -1.90472 -4.05493 0
M  V30 8435 C 799.272 -0.0854875 -4.24414 0
M  V30 8436 C 797.179 -2.03423 -5.55314 0
M  V30 8437 H 796.109 -0.106066 -0.746502 0
M  V30 8438 H 798.76 -0.919948 -1.58774 0
M  V30 8439 H 797.142 0.221092 -3.95382 0
M  V30 8440 H 798.316 -2.63274 -3.78184 0
M  V30 8441 H 796.631 -2.24752 -3.50536 0
M  V30 8442 H 799.228 -0.161133 -5.34457 0
M  V30 8443 H 799.571 0.96066 -4.05064 0
M  V30 8444 H 800.104 -0.732286 -3.91002 0
M  V30 8445 H 796.843 -3.0626 -5.79556 0
M  V30 8446 H 796.363 -1.3507 -5.84394 0
M  V30 8447 H 798.042 -1.81996 -6.20876 0
M  V30 8448 N 798.174 1.49689 -0.493057 0
M  V30 8449 C 799.422 2.02027 0.0541642 0
M  V30 8450 C 799.743 1.37554 1.38217 0
M  V30 8451 O 799.013 0.528174 1.88646 0
M  V30 8452 H 797.593 0.746646 0.0230069 0
M  V30 8453 H 800.255 1.83795 -0.648489 0
M  V30 8454 H 799.351 3.11523 0.189652 0
M  V30 8455 N 799.652 0.226554 1.55963 0
M  V30 8456 C 800.9 -0.402991 1.98041 0
M  V30 8457 C 801.221 -1.59938 1.11557 0
M  V30 8458 O 800.491 -1.9494 0.193719 0
M  V30 8459 H 799.071 -0.15188 0.731397 0
M  V30 8460 H 801.733 0.320613 1.92245 0
M  V30 8461 H 800.829 -0.725937 3.0354 0
M  V30 8462 N 801.13 -1.57531 -0.0467866 0
M  V30 8463 C 802.377 -1.88451 -0.74112 0
M  V30 8464 C 802.705 -0.821592 -1.76296 0
M  V30 8465 O 801.96 0.179585 -1.94874 0
M  V30 8466 C 802.259 -3.26091 -1.46285 0
M  V30 8467 C 801.925 -4.47171 -0.578669 0
M  V30 8468 C 800.587 -4.80032 -0.335083 0
M  V30 8469 C 802.939 -5.2119 0.0328809 0
M  V30 8470 C 800.267 -5.84309 0.529121 0
M  V30 8471 C 802.619 -6.26383 0.884684 0
M  V30 8472 C 801.283 -6.57729 1.1379 0
M  V30 8473 H 800.553 -0.68959 -0.271195 0
M  V30 8474 H 803.2 -1.915 -0.00132378 0
M  V30 8475 H 801.505 -3.18948 -2.27551 0
M  V30 8476 H 803.202 -3.47258 -2.00532 0
M  V30 8477 H 799.792 -4.21467 -0.778666 0
M  V30 8478 H 803.976 -4.96096 -0.142375 0
M  V30 8479 H 799.232 -6.06981 0.733794 0
M  V30 8480 H 803.406 -6.82888 1.36516 0
M  V30 8481 H 801.033 -7.38355 1.80929 0
M  V30 8482 N 802.608 0.318715 -1.54344 0
M  V30 8483 C 803.857 1.05363 -1.71993 0
M  V30 8484 C 804.17 1.89018 -0.503155 0
M  V30 8485 O 805.376 2.65639 -0.561085 0
M  V30 8486 C 803.832 1.92281 -3.0423 0
M  V30 8487 C 803.44 1.13715 -4.33328 0
M  V30 8488 C 805.184 2.65479 -3.31242 0
M  V30 8489 C 803.091 1.99806 -5.56625 0
M  V30 8490 H 802.021 0.397081 -0.64097 0
M  V30 8491 H 804.672 0.311598 -1.80835 0
M  V30 8492 H 803.054 2.70402 -2.89307 0
M  V30 8493 H 804.228 0.403305 -4.59032 0
M  V30 8494 H 802.543 0.521769 -4.13118 0
M  V30 8495 H 805.14 3.30209 -4.20555 0
M  V30 8496 H 805.483 3.33374 -2.49334 0
M  V30 8497 H 806.016 1.94417 -3.47054 0
M  V30 8498 H 802.755 1.36411 -6.41149 0
M  V30 8499 H 802.275 2.70911 -5.35133 0
M  V30 8500 H 803.954 2.58277 -5.93213 0
M  V30 8501 N 804.086 1.46499 0.581025 0
M  V30 8502 C 805.033 1.5719 1.68997 0
M  V30 8503 C 806.003 0.416114 1.60803 0
M  V30 8504 O 807.188 0.633086 1.79991 0
M  V30 8505 C 804.328 1.56973 3.07333 0
M  V30 8506 C 803.441 2.83298 3.26139 0
M  V30 8507 C 802.576 2.74574 4.54734 0
M  V30 8508 C 801.615 3.9583 4.66889 0
M  V30 8509 N 800.752 3.85482 5.86811 0
M  V30 8510 H 805.592 2.51914 1.59196 0
M  V30 8511 H 803.129 1.24975 0.775857 0
M  V30 8512 H 805.087 1.54832 3.87405 0
M  V30 8513 H 803.717 0.657803 3.16027 0
M  V30 8514 H 802.769 2.95411 2.3966 0
M  V30 8515 H 804.081 3.7316 3.30988 0
M  V30 8516 H 803.235 2.70548 5.43036 0
M  V30 8517 H 801.974 1.82354 4.52325 0
M  V30 8518 H 800.979 4.00186 3.77003 0
M  V30 8519 H 802.204 4.89148 4.71075 0
M  V30 8520 H 800.15 2.96051 5.85397 0
M  V30 8521 H 800.067 4.69002 5.92936 0
M  V30 8522 H 801.335 3.85434 6.7754 0
M  V30 8523 N 805.565 -0.825799 1.34232 0
M  V30 8524 C 806.811 -1.58419 1.26614 0
M  V30 8525 C 807.144 -1.93503 -0.164341 0
M  V30 8526 O 806.419 -1.59785 -1.109 0
M  V30 8527 C 806.702 -2.8856 2.15418 0
M  V30 8528 C 806.555 -2.60075 3.66989 0
M  V30 8529 C 807.874 -3.90107 2.03726 0
M  V30 8530 H 804.993 -0.574794 0.461282 0
M  V30 8531 H 807.635 -0.951519 1.64457 0
M  V30 8532 H 805.785 -3.42553 1.83275 0
M  V30 8533 H 807.457 -2.12414 4.09485 0
M  V30 8534 H 805.7 -1.93565 3.88221 0
M  V30 8535 H 806.371 -3.52866 4.24488 0
M  V30 8536 H 808.847 -3.45459 2.31942 0
M  V30 8537 H 807.723 -4.78976 2.68092 0
M  V30 8538 H 807.984 -4.30329 1.01337 0
M  V30 8539 N 807.043 -1.17915 -1.04565 0
M  V30 8540 C 808.459 -0.927761 -1.29864 0
M  V30 8541 C 808.659 0.409536 -1.97294 0
M  V30 8542 O 807.715 1.14505 -2.25044 0
M  V30 8543 C 809.028 -2.08967 -2.16225 0
M  V30 8544 C 810.576 -2.12741 -2.29587 0
M  V30 8545 C 811.051 -3.28335 -3.19312 0
M  V30 8546 N 812.542 -3.28164 -3.26898 0
M  V30 8547 C 813.277 -4.14249 -3.96466 0
M  V30 8548 N 812.773 -5.10457 -4.68407 0
M  V30 8549 N 814.566 -4.02179 -3.92694 0
M  V30 8550 H 806.717 -2.03983 -0.592011 0
M  V30 8551 H 808.98 -0.891023 -0.323701 0
M  V30 8552 H 808.686 -3.05654 -1.73979 0
M  V30 8553 H 808.56 -2.04606 -3.16885 0
M  V30 8554 H 810.947 -1.16636 -2.71072 0
M  V30 8555 H 811.028 -2.21162 -1.28535 0
M  V30 8556 H 810.672 -4.2471 -2.78539 0
M  V30 8557 H 810.602 -3.17151 -4.20384 0
M  V30 8558 H 813.093 -2.58511 -2.75646 0
M  V30 8559 H 813.406 -5.72526 -5.1907 0
M  V30 8560 H 811.751 -5.14422 -4.67328 0
M  V30 8561 H 814.942 -3.26308 -3.3562 0
M  V30 8562 H 815.115 -4.69486 -4.4664 0
M  V30 8563 N 808.521 1.23394 -0.980386 0
M  V30 8564 C 809.453 2.24146 -0.478657 0
M  V30 8565 C 810.466 1.57303 0.419492 0
M  V30 8566 O 811.655 1.77094 0.223631 0
M  V30 8567 C 808.755 3.3732 0.326913 0
M  V30 8568 C 807.928 4.33744 -0.56436 0
M  V30 8569 C 806.987 5.25866 0.187358 0
M  V30 8570 O 806.013 5.67626 -0.423019 0
M  V30 8571 N 807.215 5.61492 1.47335 0
M  V30 8572 H 809.98 2.67826 -1.34496 0
M  V30 8573 H 807.541 1.37566 -0.853653 0
M  V30 8574 H 809.533 3.95926 0.838148 0
M  V30 8575 H 808.103 2.92823 1.09422 0
M  V30 8576 H 807.323 3.73641 -1.25642 0
M  V30 8577 H 808.611 4.95123 -1.17177 0
M  V30 8578 H 808.009 5.29514 1.99077 0
M  V30 8579 H 806.566 6.2257 1.93002 0
M  V30 8580 N 809.999 0.752036 1.385 0
M  V30 8581 C 811.229 0.317812 2.04141 0
M  V30 8582 C 811.637 -1.05822 1.56839 0
M  V30 8583 O 810.98 -1.68311 0.736016 0
M  V30 8584 C 811.042 0.260205 3.58557 0
M  V30 8585 C 810.706 1.57753 4.28909 0
M  V30 8586 C 811.703 2.52642 4.54387 0
M  V30 8587 C 809.388 1.84653 4.67128 0
M  V30 8588 C 811.382 3.72653 5.17116 0
M  V30 8589 C 809.069 3.04938 5.29581 0
M  V30 8590 C 810.067 3.98759 5.54509 0
M  V30 8591 O 809.755 5.16929 6.15662 0
M  V30 8592 H 809.487 0.133931 0.6626 0
M  V30 8593 H 812.041 1.02138 1.78205 0
M  V30 8594 H 810.271 -0.499596 3.83459 0
M  V30 8595 H 811.96 -0.144295 4.05643 0
M  V30 8596 H 812.726 2.33135 4.25292 0
M  V30 8597 H 808.605 1.12464 4.47071 0
M  V30 8598 H 812.149 4.45898 5.36489 0
M  V30 8599 H 808.046 3.24339 5.58099 0
M  V30 8600 H 808.814 5.1749 6.3415 0
M  V30 8601 N 811.477 -1.49425 0.500989 0
M  V30 8602 C 812.754 -1.9531 -0.106551 0
M  V30 8603 C 813.134 -1.44248 -1.54129 0
M  V30 8604 O 812.482 -0.656237 -2.18874 0
M  V30 8605 C 812.692 -3.48995 -0.0191972 0
M  V30 8606 C 814.04 -4.24161 -0.193129 0
M  V30 8607 O 815.064 -3.56075 -0.0943843 0
M  V30 8608 O 813.923 -5.45064 -0.395869 0
M  V30 8609 H 811.017 -0.82149 -0.0953068 0
M  V30 8610 H 813.563 -1.6007 0.563526 0
M  V30 8611 H 812.335 -3.78794 0.981353 0
M  V30 8612 H 811.958 -3.90852 -0.72942 0
M  V30 8613 N 812.955 -0.234822 -1.55841 0
M  V30 8614 C 813.887 0.702346 -2.18174 0
M  V30 8615 C 814.9 1.14776 -1.15457 0
M  V30 8616 O 816.089 1.07662 -1.42377 0
M  V30 8617 C 813.189 1.96483 -2.76129 0
M  V30 8618 C 812.362 1.67283 -4.04148 0
M  V30 8619 C 811.421 2.7837 -4.46539 0
M  V30 8620 O 810.447 2.46272 -5.13166 0
M  V30 8621 N 811.649 4.07611 -4.1332 0
M  V30 8622 H 814.414 0.169074 -2.99223 0
M  V30 8623 H 811.975 -0.0543164 -1.61809 0
M  V30 8624 H 813.967 2.70016 -3.01452 0
M  V30 8625 H 812.537 2.40822 -1.99307 0
M  V30 8626 H 811.757 0.773278 -3.86541 0
M  V30 8627 H 813.045 1.45222 -4.87635 0
M  V30 8628 H 812.443 4.36527 -3.59806 0
M  V30 8629 H 811 4.77646 -4.43506 0
M  V30 8630 N 814.433 1.57553 0.0384317 0
M  V30 8631 C 815.682 1.88022 0.730108 0
M  V30 8632 C 815.995 0.83209 1.77019 0
M  V30 8633 O 817.201 1.0257 2.51379 0
M  V30 8634 C 815.657 3.33637 1.3496 0
M  V30 8635 C 815.265 4.46659 0.346352 0
M  V30 8636 C 817.009 3.73266 2.02169 0
M  V30 8637 C 814.916 5.8333 0.973652 0
M  V30 8638 H 813.846 0.701496 0.276442 0
M  V30 8639 H 816.497 1.83493 -0.0158028 0
M  V30 8640 H 814.879 3.32882 2.1449 0
M  V30 8641 H 816.053 4.58868 -0.421558 0
M  V30 8642 H 814.368 4.15802 -0.223133 0
M  V30 8643 H 816.965 4.72689 2.49938 0
M  V30 8644 H 817.308 3.04776 2.8358 0
M  V30 8645 H 817.841 3.76156 1.29427 0
M  V30 8646 H 814.58 6.55197 0.199163 0
M  V30 8647 H 814.1 5.7486 1.71162 0
M  V30 8648 H 815.779 6.29757 1.48376 0
M  V30 8649 N 815.911 -0.310526 1.54511 0
M  V30 8650 C 817.322 -0.884142 1.64438 0
M  V30 8651 C 817.673 -1.88425 0.546855 0
M  V30 8652 O 816.798 -2.14049 -0.31811 0
M  V30 8653 C 817.393 -1.6104 2.9808 0
M  V30 8654 C 815.952 -2.13255 3.1016 0
M  V30 8655 C 815.099 -0.96213 2.60074 0
M  V30 8656 H 818.05 -0.0877666 1.58457 0
M  V30 8657 H 818.071 -2.47541 2.8897 0
M  V30 8658 H 817.583 -0.882255 3.77939 0
M  V30 8659 H 815.684 -2.89145 2.35002 0
M  V30 8660 H 815.797 -2.37361 4.16169 0
M  V30 8661 H 814.161 -1.34501 2.16291 0
M  V30 8662 H 814.944 -0.248098 3.42402 0
M  V30 8663 N 817.389 -1.46805 -0.573248 0
M  V30 8664 C 818.635 -1.5283 -1.33307 0
M  V30 8665 C 818.968 -0.183287 -1.93333 0
M  V30 8666 O 818.243 0.806354 -1.76998 0
M  V30 8667 C 818.526 -2.63414 -2.45531 0
M  V30 8668 C 818.379 -4.07478 -1.90478 0
M  V30 8669 C 819.698 -2.70014 -3.47535 0
M  V30 8670 H 816.817 -0.556371 -0.483343 0
M  V30 8671 H 819.459 -1.78787 -0.643066 0
M  V30 8672 H 817.609 -2.41412 -3.04389 0
M  V30 8673 H 819.281 -4.40795 -1.36004 0
M  V30 8674 H 817.524 -4.16511 -1.21248 0
M  V30 8675 H 818.195 -4.80598 -2.71531 0
M  V30 8676 H 820.671 -2.89817 -2.98572 0
M  V30 8677 H 819.547 -3.49192 -4.23504 0
M  V30 8678 H 819.808 -1.76436 -4.05367 0
M  V30 8679 N 818.867 0.818669 -1.34668 0
M  V30 8680 C 819.777 1.9616 -1.2868 0
M  V30 8681 C 820.793 1.72918 -0.193742 0
M  V30 8682 O 821.969 1.96951 -0.420975 0
M  V30 8683 C 819.034 3.30534 -1.04633 0
M  V30 8684 C 818.095 3.66755 -2.23136 0
M  V30 8685 C 817.328 4.94717 -2.00227 0
M  V30 8686 O 817.551 5.62218 -0.96264 0
M  V30 8687 O 816.485 5.28915 -2.87286 0
M  V30 8688 H 820.311 2.04157 -2.24842 0
M  V30 8689 H 817.896 0.954691 -1.14917 0
M  V30 8690 H 819.778 4.11005 -0.930216 0
M  V30 8691 H 818.453 3.23495 -0.115139 0
M  V30 8692 H 817.36 2.8671 -2.40308 0
M  V30 8693 H 818.693 3.78484 -3.1466 0
M  V30 8694 N 820.346 1.18468 1.03938 0
M  V30 8695 C 821.595 0.975193 1.76558 0
M  V30 8696 C 821.908 -0.495978 1.89207 0
M  V30 8697 O 823.114 -0.824009 2.58694 0
M  V30 8698 C 821.57 1.69579 3.17444 0
M  V30 8699 C 821.178 3.20636 3.12884 0
M  V30 8700 C 822.922 1.56917 3.94433 0
M  V30 8701 C 820.829 3.8533 4.48636 0
M  V30 8702 H 819.759 0.361244 0.66183 0
M  V30 8703 H 822.41 1.41854 1.16403 0
M  V30 8704 H 820.792 1.18022 3.78004 0
M  V30 8705 H 821.966 3.79228 2.61768 0
M  V30 8706 H 820.281 3.33454 2.49394 0
M  V30 8707 H 822.878 2.02611 4.94826 0
M  V30 8708 H 823.221 0.521638 4.13019 0
M  V30 8709 H 823.754 2.05762 3.40451 0
M  V30 8710 H 820.493 4.90136 4.35255 0
M  V30 8711 H 820.013 3.31526 4.99851 0
M  V30 8712 H 821.692 3.88269 5.17549 0
M  V30 8713 N 821.824 -1.22873 0.986916 0
M  V30 8714 C 823.064 -1.93192 0.667543 0
M  V30 8715 C 823.428 -1.7521 -0.785196 0
M  V30 8716 O 824.629 -2.39737 -1.2157 0
M  V30 8717 C 822.9 -3.4147 1.05513 0
M  V30 8718 S 824.459 -4.30425 0.853218 0
M  V30 8719 H 821.277 -0.667726 0.244261 0
M  V30 8720 H 823.879 -1.48808 1.26793 0
M  V30 8721 H 822.583 -3.52069 2.10892 0
M  V30 8722 H 822.114 -3.9086 0.446293 0
M  V30 8723 H 824.129 -4.95521 -0.259444 0
M  V30 8724 N 823.302 -0.75937 -1.38099 0
M  V30 8725 C 824.55 -0.317485 -1.99591 0
M  V30 8726 C 824.871 1.10628 -1.60581 0
M  V30 8727 O 824.141 1.7575 -0.865378 0
M  V30 8728 H 822.721 -0.114397 -0.738189 0
M  V30 8729 H 825.383 -0.974749 -1.68774 0
M  V30 8730 H 824.479 -0.385227 -3.09713 0
M  V30 8731 N 824.78 1.49157 -0.508906 0
M  V30 8732 C 825.73 2.26215 0.284705 0
M  V30 8733 C 826.714 1.31401 0.928586 0
M  V30 8734 O 827.906 1.56073 0.834877 0
M  V30 8735 C 825.035 3.15906 1.34382 0
M  V30 8736 C 824.121 4.18186 0.705785 0
M  V30 8737 N 824.512 5.05419 -0.196214 0
M  V30 8738 C 822.81 4.35425 0.965457 0
M  V30 8739 C 823.511 5.78977 -0.562222 0
M  V30 8740 N 822.487 5.43553 0.0717389 0
M  V30 8741 H 826.289 2.91033 -0.409543 0
M  V30 8742 H 823.803 1.59104 -0.325508 0
M  V30 8743 H 825.8 3.6975 1.92589 0
M  V30 8744 H 824.46 2.52642 2.03966 0
M  V30 8745 H 825.471 5.14781 -0.567526 0
M  V30 8746 H 822.148 3.83363 1.65346 0
M  V30 8747 H 823.538 6.59192 -1.30062 0
M  V30 8748 N 826.258 0.243083 1.55714 0
M  V30 8749 C 827.205 -0.658078 2.21219 0
M  V30 8750 C 828.175 -1.1742 1.17481 0
M  V30 8751 O 829.36 -1.22937 1.45915 0
M  V30 8752 C 826.5 -1.85104 2.91257 0
M  V30 8753 C 825.613 -1.3718 4.09641 0
M  V30 8754 C 824.748 -2.52403 4.67404 0
M  V30 8755 C 823.787 -2.01321 5.78045 0
M  V30 8756 N 822.924 -3.09896 6.30007 0
M  V30 8757 H 827.764 -0.0927854 2.97856 0
M  V30 8758 H 825.301 -0.0340375 1.47061 0
M  V30 8759 H 827.259 -2.55179 3.3006 0
M  V30 8760 H 825.889 -2.38887 2.17101 0
M  V30 8761 H 824.941 -0.565232 3.76177 0
M  V30 8762 H 826.253 -0.957409 4.89525 0
M  V30 8763 H 825.407 -3.30525 5.08761 0
M  V30 8764 H 824.146 -2.97142 3.86728 0
M  V30 8765 H 823.151 -1.21667 5.36169 0
M  V30 8766 H 824.376 -1.57556 6.6057 0
M  V30 8767 H 822.322 -3.54077 5.52237 0
M  V30 8768 H 822.239 -2.72776 7.05074 0
M  V30 8769 H 823.507 -3.8809 6.76023 0
M  V30 8770 N 827.736 -1.57571 -0.0300757 0
M  V30 8771 C 828.699 -2.05468 -1.01565 0
M  V30 8772 C 829.699 -0.958628 -1.29101 0
M  V30 8773 O 830.889 -1.22228 -1.24121 0
M  V30 8774 C 828.021 -2.47077 -2.34874 0
M  V30 8775 H 829.214 -2.93797 -0.601936 0
M  V30 8776 H 826.767 -1.53828 -0.276878 0
M  V30 8777 H 827.502 -1.61901 -2.80996 0
M  V30 8778 H 827.287 -3.27097 -2.16218 0
M  V30 8779 H 828.777 -2.84564 -3.05635 0
M  V30 8780 N 829.214 0.302327 -1.54673 0
M  V30 8781 C 830.463 1.03533 -1.73101 0
M  V30 8782 C 830.776 1.88473 -0.523174 0
M  V30 8783 O 831.982 2.65029 -0.589229 0
M  V30 8784 C 830.438 1.89043 -3.06252 0
M  V30 8785 C 830.046 1.09112 -4.3451 0
M  V30 8786 C 831.79 2.61951 -3.34039 0
M  V30 8787 C 829.697 1.93891 -5.58713 0
M  V30 8788 H 828.627 0.390261 -0.645145 0
M  V30 8789 H 831.278 0.2924 -1.81155 0
M  V30 8790 H 829.66 2.67319 -2.92159 0
M  V30 8791 H 830.834 0.354596 -4.59434 0
M  V30 8792 H 829.149 0.477923 -4.13648 0
M  V30 8793 H 831.746 3.25729 -4.24033 0
M  V30 8794 H 832.089 3.30711 -2.52855 0
M  V30 8795 H 832.622 1.90725 -3.49097 0
M  V30 8796 H 829.361 1.29604 -6.4256 0
M  V30 8797 H 828.881 2.6522 -5.37976 0
M  V30 8798 H 830.56 2.51971 -5.95919 0
M  V30 8799 N 830.692 1.47107 0.565454 0
M  V30 8800 C 831.94 1.53005 1.32038 0
M  V30 8801 C 832.261 0.190453 1.94068 0
M  V30 8802 O 831.531 -0.784783 1.79494 0
M  V30 8803 H 830.111 0.563578 0.490294 0
M  V30 8804 H 832.773 1.83351 0.660928 0
M  V30 8805 H 831.869 2.29215 2.11818 0
M  V30 8806 N 832.17 -0.811516 1.35101 0
M  V30 8807 C 833.398 -1.59981 1.31201 0
M  V30 8808 C 833.813 -1.8847 -0.111552 0
M  V30 8809 O 833.17 -1.48414 -1.06205 0
M  V30 8810 C 833.221 -2.934 2.11184 0
M  V30 8811 O 832.942 -2.66148 3.4799 0
M  V30 8812 C 834.443 -3.87776 2.14813 0
M  V30 8813 H 831.663 -0.496921 0.450899 0
M  V30 8814 H 834.207 -1.00886 1.77883 0
M  V30 8815 H 832.362 -3.49022 1.68115 0
M  V30 8816 H 832.776 -3.51301 3.89471 0
M  V30 8817 H 834.25 -4.7852 2.75178 0
M  V30 8818 H 834.727 -4.23997 1.14556 0
M  V30 8819 H 835.333 -3.3809 2.58022 0
M  V30 8820 N 833.648 -1.19017 -1.03309 0
M  V30 8821 C 834.894 -0.991681 -1.769 0
M  V30 8822 C 835.227 0.476813 -1.88255 0
M  V30 8823 O 834.502 1.35407 -1.39625 0
M  V30 8824 C 834.785 -1.65627 -3.19749 0
M  V30 8825 C 834.638 -3.19813 -3.1629 0
M  V30 8826 C 835.957 -1.37579 -4.18043 0
M  V30 8827 H 833.076 -0.361674 -0.642153 0
M  V30 8828 H 835.718 -1.46795 -1.20628 0
M  V30 8829 H 833.868 -1.25132 -3.67796 0
M  V30 8830 H 835.54 -3.69494 -2.76174 0
M  V30 8831 H 833.783 -3.51578 -2.54117 0
M  V30 8832 H 834.454 -3.61457 -4.17196 0
M  V30 8833 H 836.93 -1.72679 -3.78578 0
M  V30 8834 H 835.806 -1.86636 -5.16196 0
M  V30 8835 H 836.067 -0.300118 -4.4108 0
M  V30 8836 N 835.127 1.22348 -0.993418 0
M  V30 8837 C 836.057 2.26584 -0.564088 0
M  V30 8838 C 837.038 1.65102 0.409298 0
M  V30 8839 O 838.223 1.91872 0.299819 0
M  V30 8840 C 835.353 3.47087 0.121554 0
M  V30 8841 C 834.307 4.21009 -0.770429 0
M  V30 8842 C 833.633 5.34678 0.0481586 0
M  V30 8843 C 834.933 4.79636 -2.06752 0
M  V30 8844 H 836.627 2.62749 -1.43538 0
M  V30 8845 H 834.173 1.26303 -0.691628 0
M  V30 8846 H 836.126 4.19166 0.433303 0
M  V30 8847 H 834.85 3.1002 1.0274 0
M  V30 8848 H 833.509 3.50764 -1.06583 0
M  V30 8849 H 833.157 4.93852 0.954933 0
M  V30 8850 H 832.857 5.85061 -0.545641 0
M  V30 8851 H 834.381 6.09573 0.353991 0
M  V30 8852 H 835.795 5.43654 -1.81969 0
M  V30 8853 H 834.192 5.4036 -2.61019 0
M  V30 8854 H 835.262 3.99659 -2.74592 0
M  V30 8855 N 836.605 0.766683 1.37694 0
M  V30 8856 C 837.851 0.329201 2.0011 0
M  V30 8857 C 838.184 -1.09004 1.60723 0
M  V30 8858 O 837.459 -1.74895 0.850989 0
M  V30 8859 C 837.742 0.466989 3.57059 0
M  V30 8860 C 837.595 1.92828 4.06371 0
M  V30 8861 C 838.914 -0.131792 4.39903 0
M  V30 8862 H 836.033 0.12109 0.726984 0
M  V30 8863 H 838.675 0.968779 1.63446 0
M  V30 8864 H 836.825 -0.0775023 3.88423 0
M  V30 8865 H 838.497 2.53208 3.85595 0
M  V30 8866 H 836.74 2.43884 3.58752 0
M  V30 8867 H 837.411 1.97577 5.15429 0
M  V30 8868 H 839.887 0.332731 4.14768 0
M  V30 8869 H 838.763 -0.005217 5.489 0
M  V30 8870 H 839.024 -1.22156 4.24889 0
M  V30 8871 N 838.083 -1.48885 0.516809 0
M  V30 8872 C 839.331 -2.02088 -0.0220166 0
M  V30 8873 C 839.652 -1.39735 -1.36011 0
M  V30 8874 O 838.922 -0.558119 -1.87781 0
M  V30 8875 H 837.502 -0.746917 -0.0111255 0
M  V30 8876 H 840.164 -1.8274 0.677647 0
M  V30 8877 H 839.26 -3.11786 -0.140067 0
M  V30 8878 N 839.561 -0.251338 -1.55583 0
M  V30 8879 C 840.972 0.25098 -1.85005 0
M  V30 8880 C 841.323 1.57259 -1.17321 0
M  V30 8881 O 840.448 2.11603 -0.453136 0
M  V30 8882 C 841.043 0.462161 -3.35633 0
M  V30 8883 C 839.602 0.908737 -3.65266 0
M  V30 8884 C 838.749 -0.0115418 -2.77298 0
M  V30 8885 H 841.7 -0.473782 -1.51463 0
M  V30 8886 H 841.721 1.30415 -3.57452 0
M  V30 8887 H 841.233 -0.499886 -3.84867 0
M  V30 8888 H 839.334 1.8831 -3.21512 0
M  V30 8889 H 839.447 0.762526 -4.72993 0
M  V30 8890 H 837.811 0.500612 -2.49732 0
M  V30 8891 H 838.594 -0.969042 -3.29339 0
M  V30 8892 N 841.039 1.57585 0.0217189 0
M  V30 8893 C 842.267 1.93871 0.722619 0
M  V30 8894 C 842.682 0.851706 1.68498 0
M  V30 8895 O 842.039 -0.17127 1.81695 0
M  V30 8896 C 842.09 3.30114 1.47333 0
M  V30 8897 O 841.811 4.34639 0.549597 0
M  V30 8898 C 843.312 3.80727 2.27072 0
M  V30 8899 H 840.532 0.639671 0.202637 0
M  V30 8900 H 843.076 2.04487 -0.0229414 0
M  V30 8901 H 841.231 3.20872 2.17071 0
M  V30 8902 H 841.645 5.13326 1.07686 0
M  V30 8903 H 843.119 4.78547 2.75131 0
M  V30 8904 H 843.596 3.12301 3.08812 0
M  V30 8905 H 844.202 3.93075 1.62395 0
M  V30 8906 N 842.517 -0.29412 1.54831 0
M  V30 8907 C 843.928 -0.866651 1.65366 0
M  V30 8908 C 844.279 -1.87834 0.56681 0
M  V30 8909 O 843.404 -2.14374 -0.295389 0
M  V30 8910 C 843.999 -1.57869 2.99771 0
M  V30 8911 C 842.558 -2.09954 3.12404 0
M  V30 8912 C 841.705 -0.934492 2.6108 0
M  V30 8913 H 844.656 -0.0709551 1.58541 0
M  V30 8914 H 844.677 -2.44462 2.91579 0
M  V30 8915 H 844.189 -0.84212 3.78853 0
M  V30 8916 H 842.29 -2.86637 2.38055 0
M  V30 8917 H 842.403 -2.32934 4.18663 0
M  V30 8918 H 840.767 -1.32199 2.17705 0
M  V30 8919 H 841.55 -0.211768 3.42646 0
M  V30 8920 N 843.995 -1.47404 -0.557645 0
M  V30 8921 C 845.241 -1.54235 -1.31679 0
M  V30 8922 C 845.574 -0.203782 -1.93128 0
M  V30 8923 O 844.849 0.787536 -1.77843 0
M  V30 8924 C 845.132 -2.66003 -2.42723 0
M  V30 8925 C 844.985 -4.09475 -1.86145 0
M  V30 8926 C 846.304 -2.73685 -3.44652 0
M  V30 8927 H 843.423 -0.561466 -0.477415 0
M  V30 8928 H 846.065 -1.79459 -0.624067 0
M  V30 8929 H 844.215 -2.44627 -3.01811 0
M  V30 8930 H 845.887 -4.42213 -1.31321 0
M  V30 8931 H 844.13 -4.17774 -1.16823 0
M  V30 8932 H 844.801 -4.83451 -2.66418 0
M  V30 8933 H 847.277 -2.92968 -2.95481 0
M  V30 8934 H 846.153 -3.53665 -4.19777 0
M  V30 8935 H 846.414 -1.80726 -4.03473 0
M  V30 8936 N 845.473 0.80434 -1.35529 0
M  V30 8937 C 846.421 1.93769 -1.28671 0
M  V30 8938 C 847.415 1.68428 -0.181222 0
M  V30 8939 O 848.621 1.76617 -0.347338 0
M  V30 8940 H 844.996 0.636663 -0.400206 0
M  V30 8941 H 846.967 1.96673 -2.24415 0
M  V30 8942 C 845.716 3.30572 -1.07784 0
M  V30 8943 H 845.039 3.5063 -1.9209 0
M  V30 8944 H 846.479 4.1027 -1.07027 0
M  V30 8945 C 844.938 3.36193 0.218213 0
M  V30 8946 O 845.468 3.82941 1.21323 0
M  V30 8947 N 843.674 2.89455 0.257761 0
M  V30 8948 H 843.221 2.51604 -0.552562 0
M  V30 8949 H 843.179 2.93597 1.12465 0
M  V30 8950 N 846.951 1.19563 1.02676 0
M  V30 8951 C 848.2 0.993864 1.75514 0
M  V30 8952 C 848.513 -0.475882 1.89723 0
M  V30 8953 O 849.719 -0.796525 2.59553 0
M  V30 8954 C 848.175 1.72937 3.15628 0
M  V30 8955 C 847.783 3.23937 3.09466 0
M  V30 8956 C 849.527 1.61092 3.92746 0
M  V30 8957 C 847.434 3.90067 4.44524 0
M  V30 8958 H 846.364 0.368244 0.657961 0
M  V30 8959 H 849.015 1.43081 1.14891 0
M  V30 8960 H 847.397 1.22025 3.76731 0
M  V30 8961 H 848.571 3.81983 2.57731 0
M  V30 8962 H 846.886 3.3608 2.45843 0
M  V30 8963 H 849.483 2.07848 4.92649 0
M  V30 8964 H 849.826 0.565415 4.12442 0
M  V30 8965 H 850.359 2.09361 3.3825 0
M  V30 8966 H 847.098 4.94725 4.30032 0
M  V30 8967 H 846.618 3.36809 4.96306 0
M  V30 8968 H 848.297 3.93736 5.13401 0
M  V30 8969 N 848.429 -1.21819 0.999893 0
M  V30 8970 C 849.678 -1.90066 0.675108 0
M  V30 8971 C 849.991 -1.78624 -0.79705 0
M  V30 8972 O 851.197 -2.41851 -1.23371 0
M  V30 8973 C 849.653 -3.40795 1.15702 0
M  V30 8974 C 849.261 -3.60859 2.6549 0
M  V30 8975 C 851.005 -4.147 0.906889 0
M  V30 8976 C 848.912 -5.05324 3.07248 0
M  V30 8977 H 847.842 -0.711763 0.248815 0
M  V30 8978 H 850.493 -1.3792 1.21038 0
M  V30 8979 H 848.875 -3.92164 0.549832 0
M  V30 8980 H 850.049 -3.19951 3.31614 0
M  V30 8981 H 848.364 -3.00298 2.88461 0
M  V30 8982 H 850.961 -5.21187 1.1945 0
M  V30 8983 H 851.304 -4.16004 -0.156923 0
M  V30 8984 H 851.837 -3.69379 1.47662 0
M  V30 8985 H 848.576 -5.09164 4.12834 0
M  V30 8986 H 848.096 -5.47108 2.45832 0
M  V30 8987 H 849.775 -5.73797 2.98941 0
M  V30 8988 N 849.908 -0.773975 -1.37286 0
M  V30 8989 C 851.156 -0.338636 -1.99243 0
M  V30 8990 C 851.477 1.08919 -1.61746 0
M  V30 8991 O 850.747 1.74822 -0.88397 0
M  V30 8992 H 849.327 -0.12222 -0.736934 0
M  V30 8993 H 851.989 -0.992595 -1.67731 0
M  V30 8994 H 851.085 -0.418055 -3.09287 0
M  V30 8995 N 851.386 1.48609 -0.524698 0
M  V30 8996 C 852.802 1.58557 -0.182199 0
M  V30 8997 C 853.002 1.52732 1.31435 0
M  V30 8998 O 852.058 1.41362 2.0922 0
M  V30 8999 C 853.371 2.90406 -0.78004 0
M  V30 9000 C 854.919 3.03924 -0.748293 0
M  V30 9001 C 855.394 4.38427 -1.32462 0
M  V30 9002 N 856.885 4.4498 -1.28635 0
M  V30 9003 C 857.62 5.47551 -1.70223 0
M  V30 9004 N 857.116 6.57103 -2.19515 0
M  V30 9005 N 858.909 5.38402 -1.61493 0
M  V30 9006 H 851.06 1.50638 -1.4974 0
M  V30 9007 H 853.323 0.714952 -0.622533 0
M  V30 9008 H 853.029 3.00308 -1.83052 0
M  V30 9009 H 852.903 3.76343 -0.254075 0
M  V30 9010 H 855.29 2.93638 0.293407 0
M  V30 9011 H 855.371 2.19611 -1.31167 0
M  V30 9012 H 855.015 4.49466 -2.36522 0
M  V30 9013 H 854.945 5.21418 -0.736967 0
M  V30 9014 H 857.436 3.66393 -0.92545 0
M  V30 9015 H 857.749 7.31499 -2.49257 0
M  V30 9016 H 856.094 6.58081 -2.23506 0
M  V30 9017 H 859.285 4.5171 -1.22785 0
M  V30 9018 H 859.458 6.18208 -1.94225 0
M  V30 9019 N 852.864 0.259585 1.55447 0
M  V30 9020 C 853.812 -0.6507 2.23313 0
M  V30 9021 C 854.806 -1.17014 1.22491 0
M  V30 9022 O 856.012 -1.12557 1.40467 0
M  V30 9023 H 852.387 -0.228354 0.71649 0
M  V30 9024 H 854.358 -0.0553039 2.98349 0
M  V30 9025 C 853.107 -1.83081 2.95596 0
M  V30 9026 H 852.43 -1.44027 3.72956 0
M  V30 9027 H 853.87 -2.44469 3.46426 0
M  V30 9028 C 852.329 -2.70976 2.00184 0
M  V30 9029 O 852.859 -3.70882 1.54304 0
M  V30 9030 N 851.065 -2.37813 1.67014 0
M  V30 9031 H 850.612 -1.5662 2.04519 0
M  V30 9032 H 850.57 -2.96896 1.03443 0
M  V30 9033 N 854.342 -1.57594 -0.0133615 0
M  V30 9034 C 855.272 -2.10611 -1.00823 0
M  V30 9035 C 856.253 -1.01217 -1.36708 0
M  V30 9036 O 857.438 -1.28827 -1.45318 0
M  V30 9037 C 854.568 -2.59844 -2.30431 0
M  V30 9038 C 853.522 -3.73644 -2.08745 0
M  V30 9039 C 852.848 -4.09141 -3.4425 0
M  V30 9040 C 854.148 -5.01454 -1.46086 0
M  V30 9041 H 855.842 -2.93985 -0.566849 0
M  V30 9042 H 853.388 -1.41423 -0.271219 0
M  V30 9043 H 855.341 -2.95557 -3.00373 0
M  V30 9044 H 854.065 -1.73573 -2.76658 0
M  V30 9045 H 852.724 -3.38303 -1.41232 0
M  V30 9046 H 852.372 -3.19914 -3.88155 0
M  V30 9047 H 852.072 -4.85802 -3.3056 0
M  V30 9048 H 853.596 -4.47402 -4.15528 0
M  V30 9049 H 855.01 -5.35024 -2.05966 0
M  V30 9050 H 853.407 -5.82832 -1.42924 0
M  V30 9051 H 854.477 -4.83003 -0.428471 0
M  V30 9052 N 855.82 0.285905 -1.54985 0
M  V30 9053 C 856.75 1.35752 -1.89983 0
M  V30 9054 C 857.731 1.52163 -0.760295 0
M  V30 9055 O 858.916 1.65421 -1.01733 0
M  V30 9056 C 856.046 2.71925 -2.16042 0
M  V30 9057 C 855 2.70261 -3.31878 0
M  V30 9058 C 854.326 4.09864 -3.43388 0
M  V30 9059 C 855.626 2.30667 -4.68604 0
M  V30 9060 H 857.32 1.06709 -2.79738 0
M  V30 9061 H 854.866 0.511884 -1.34595 0
M  V30 9062 H 856.819 3.46992 -2.39113 0
M  V30 9063 H 855.543 3.02523 -1.23074 0
M  V30 9064 H 854.202 1.97651 -3.08755 0
M  V30 9065 H 853.85 4.37664 -2.47909 0
M  V30 9066 H 853.55 4.09648 -4.21262 0
M  V30 9067 H 855.074 4.86689 -3.68736 0
M  V30 9068 H 856.488 2.95453 -4.91305 0
M  V30 9069 H 854.885 2.41637 -5.49301 0
M  V30 9070 H 855.955 1.25793 -4.68299 0
M  V30 9071 N 857.298 1.47698 0.54982 0
M  V30 9072 C 858.526 1.5833 1.33188 0
M  V30 9073 C 858.941 0.236193 1.87317 0
M  V30 9074 O 858.298 -0.77167 1.65383 0
M  V30 9075 C 858.349 2.61438 2.49664 0
M  V30 9076 O 858.07 3.9092 1.97771 0
M  V30 9077 C 859.571 2.82324 3.41772 0
M  V30 9078 H 856.791 0.53443 0.405741 0
M  V30 9079 H 859.335 1.93375 0.665309 0
M  V30 9080 H 857.49 2.29307 3.12245 0
M  V30 9081 H 857.904 4.47323 2.73866 0
M  V30 9082 H 859.378 3.58316 4.19897 0
M  V30 9083 H 859.855 1.90416 3.95776 0
M  V30 9084 H 860.461 3.15682 2.85 0
M  V30 9085 N 858.776 -0.797141 1.35954 0
M  V30 9086 C 859.708 -1.91782 1.25509 0
M  V30 9087 C 860.721 -1.61843 0.176271 0
M  V30 9088 O 861.91 -1.73235 0.430343 0
M  V30 9089 C 859.01 -3.26396 0.912073 0
M  V30 9090 C 858.183 -3.84171 2.0912 0
M  V30 9091 C 857.242 -4.9721 1.72246 0
M  V30 9092 O 856.268 -5.14136 2.44239 0
M  V30 9093 N 857.47 -5.76831 0.651611 0
M  V30 9094 H 860.235 -2.01266 2.22063 0
M  V30 9095 H 857.796 -0.975033 1.29247 0
M  V30 9096 H 859.788 -3.99499 0.646707 0
M  V30 9097 H 858.358 -3.12579 0.0359079 0
M  V30 9098 H 857.578 -3.03148 2.51982 0
M  V30 9099 H 858.866 -4.19503 2.87914 0
M  V30 9100 H 858.264 -5.65675 0.0536678 0
M  V30 9101 H 856.821 -6.50272 0.44605 0
M  V30 9102 N 860.254 -1.20106 -1.0204 0
M  V30 9103 C 861.503 -1.00316 -1.74985 0
M  V30 9104 C 861.816 0.465814 -1.89972 0
M  V30 9105 O 863.022 0.782749 -2.59972 0
M  V30 9106 C 861.478 -1.74608 -3.14706 0
M  V30 9107 C 861.086 -3.25573 -3.07744 0
M  V30 9108 C 862.83 -1.63172 -3.91887 0
M  V30 9109 C 860.737 -3.92419 -4.42449 0
M  V30 9110 H 859.667 -0.371728 -0.655999 0
M  V30 9111 H 862.318 -1.43688 -1.14131 0
M  V30 9112 H 860.7 -1.24021 -3.76078 0
M  V30 9113 H 861.874 -3.83345 -2.55702 0
M  V30 9114 H 860.189 -3.3738 -2.44057 0
M  V30 9115 H 862.786 -2.10457 -4.9154 0
M  V30 9116 H 863.129 -0.58728 -4.12137 0
M  V30 9117 H 863.662 -2.11152 -3.37135 0
M  V30 9118 H 860.401 -4.96998 -4.27403 0
M  V30 9119 H 859.921 -3.39436 -4.94513 0
M  V30 9120 H 861.6 -3.96453 -5.11306 0
M  V30 9121 N 861.732 1.21287 -1.00634 0
M  V30 9122 C 862.98 1.90013 -0.688438 0
M  V30 9123 C 863.301 1.78573 0.783365 0
M  V30 9124 O 862.571 1.1815 1.56261 0
M  V30 9125 H 861.151 0.703336 -0.251648 0
M  V30 9126 H 863.813 1.47346 -1.27574 0
M  V30 9127 H 862.909 2.96879 -0.962781 0
M  V30 9128 N 863.21 0.781244 1.36873 0
M  V30 9129 C 864.45 0.355185 2.0129 0
M  V30 9130 C 864.814 -1.05115 1.6067 0
M  V30 9131 O 866.015 -1.57785 2.17618 0
M  V30 9132 C 864.286 0.504587 3.5382 0
M  V30 9133 S 865.845 0.165196 4.38489 0
M  V30 9134 H 862.663 0.136133 0.697846 0
M  V30 9135 H 865.265 1.01794 1.66908 0
M  V30 9136 H 863.969 1.52857 3.80871 0
M  V30 9137 H 863.5 -0.174392 3.93013 0
M  V30 9138 H 865.515 -1.03605 4.85263 0
M  V30 9139 N 864.689 -1.48329 0.532571 0
M  V30 9140 C 865.917 -2.069 0.00354299 0
M  V30 9141 C 866.332 -1.38876 -1.27902 0
M  V30 9142 O 865.689 -0.477119 -1.76153 0
M  V30 9143 C 865.74 -3.60821 -0.221416 0
M  V30 9144 O 865.461 -4.26291 1.01034 0
M  V30 9145 C 866.962 -4.36194 -0.790531 0
M  V30 9146 H 864.182 -0.670103 0.0346836 0
M  V30 9147 H 866.726 -1.90682 0.738955 0
M  V30 9148 H 864.881 -3.76636 -0.906884 0
M  V30 9149 H 865.295 -5.18475 0.792683 0
M  V30 9150 H 866.769 -5.44657 -0.897347 0
M  V30 9151 H 867.246 -4.00798 -1.79605 0
M  V30 9152 H 867.852 -4.25064 -0.141546 0
M  V30 9153 N 866.167 -0.267825 -1.55308 0
M  V30 9154 C 867.097 0.616585 -2.25212 0
M  V30 9155 C 868.078 1.16472 -1.23969 0
M  V30 9156 O 869.263 1.20021 -1.52672 0
M  V30 9157 C 866.393 1.80412 -2.96764 0
M  V30 9158 C 865.347 1.38784 -4.04874 0
M  V30 9159 C 864.673 2.65789 -4.63961 0
M  V30 9160 C 865.973 0.543415 -5.19465 0
M  V30 9161 H 867.667 0.0336257 -2.99381 0
M  V30 9162 H 865.213 0.0147328 -1.43992 0
M  V30 9163 H 867.166 2.42866 -3.44375 0
M  V30 9164 H 865.89 2.4128 -2.20118 0
M  V30 9165 H 864.549 0.786541 -3.58063 0
M  V30 9166 H 864.197 3.24899 -3.83992 0
M  V30 9167 H 863.897 2.38651 -5.36954 0
M  V30 9168 H 865.421 3.29104 -5.14318 0
M  V30 9169 H 866.835 1.07277 -5.63174 0
M  V30 9170 H 865.232 0.367219 -5.98975 0
M  V30 9171 H 866.302 -0.439534 -4.82904 0
M  V30 9172 N 867.645 1.57599 0.00500368 0
M  V30 9173 C 868.593 2.09223 1.01628 0
M  V30 9174 C 869.587 1.01113 1.35913 0
M  V30 9175 O 870.793 1.19583 1.34536 0
M  V30 9176 H 867.168 0.667999 0.345372 0
M  V30 9177 H 869.139 2.93188 0.555274 0
M  V30 9178 C 867.888 2.60674 2.30097 0
M  V30 9179 H 867.211 3.43491 2.04582 0
M  V30 9180 H 868.651 3.00479 2.99146 0
M  V30 9181 C 867.11 1.51862 3.00731 0
M  V30 9182 O 867.64 0.898651 3.91519 0
M  V30 9183 N 865.846 1.24729 2.62471 0
M  V30 9184 H 865.393 1.7533 1.88725 0
M  V30 9185 H 865.351 0.521437 3.10046 0
M  V30 9186 N 869.123 -0.277682 1.55134 0
M  V30 9187 C 870.37 -1.0099 1.7552 0
M  V30 9188 C 870.698 -1.86452 0.553712 0
M  V30 9189 O 869.953 -1.90122 -0.463896 0
M  V30 9190 C 870.252 -1.92599 3.01065 0
M  V30 9191 C 869.918 -1.22926 4.3382 0
M  V30 9192 C 868.58 -1.03659 4.69902 0
M  V30 9193 C 870.932 -0.733071 5.16019 0
M  V30 9194 C 868.26 -0.334933 5.85743 0
M  V30 9195 C 870.612 -0.0450319 6.32584 0
M  V30 9196 C 869.276 0.159393 6.6731 0
M  V30 9197 H 868.546 -0.36955 0.642273 0
M  V30 9198 H 871.193 -0.282611 1.89403 0
M  V30 9199 H 869.498 -2.71934 2.82062 0
M  V30 9200 H 871.195 -2.49367 3.14034 0
M  V30 9201 H 867.785 -1.38933 4.05457 0
M  V30 9202 H 871.969 -0.869565 4.88623 0
M  V30 9203 H 867.225 -0.165783 6.11175 0
M  V30 9204 H 871.399 0.34723 6.95534 0
M  V30 9205 H 869.026 0.70507 7.56923 0
M  V30 9206 N 870.601 -1.47988 -0.541979 0
M  V30 9207 C 872.012 -1.49073 -1.12402 0
M  V30 9208 C 872.363 -0.253825 -1.94551 0
M  V30 9209 O 871.488 0.640056 -2.06718 0
M  V30 9210 C 872.083 -2.7011 -2.04514 0
M  V30 9211 C 870.642 -2.74105 -2.5796 0
M  V30 9212 C 869.789 -2.42409 -1.3466 0
M  V30 9213 H 872.74 -1.55277 -0.327818 0
M  V30 9214 H 872.761 -2.47946 -2.88623 0
M  V30 9215 H 872.273 -3.60117 -1.44697 0
M  V30 9216 H 870.374 -1.88276 -3.21532 0
M  V30 9217 H 870.487 -3.75213 -2.97913 0
M  V30 9218 H 868.851 -1.9331 -1.65841 0
M  V30 9219 H 869.634 -3.34642 -0.766133 0
M  V30 9220 N 872.079 0.78992 -1.36375 0
M  V30 9221 C 873.328 1.54296 -1.29906 0
M  V30 9222 C 873.641 1.95234 0.119651 0
M  V30 9223 O 874.847 2.69762 0.306708 0
M  V30 9224 C 873.303 2.78533 -2.27919 0
M  V30 9225 C 872.911 2.44767 -3.75224 0
M  V30 9226 C 874.655 3.56516 -2.30427 0
M  V30 9227 C 872.562 3.65397 -4.65015 0
M  V30 9228 H 871.492 0.579214 -0.482729 0
M  V30 9229 H 874.143 0.866845 -1.61735 0
M  V30 9230 H 872.525 3.47941 -1.89084 0
M  V30 9231 H 873.699 1.83259 -4.22792 0
M  V30 9232 H 872.014 1.79996 -3.75487 0
M  V30 9233 H 874.611 4.46143 -2.94722 0
M  V30 9234 H 874.954 3.95063 -1.31266 0
M  V30 9235 H 875.487 2.94087 -2.67876 0
M  V30 9236 H 872.226 3.31946 -5.65236 0
M  V30 9237 H 871.746 4.26072 -4.22164 0
M  V30 9238 H 873.425 4.32431 -4.81261 0
M  V30 9239 N 873.557 1.20646 1.01402 0
M  V30 9240 C 874.782 1.04462 1.79172 0
M  V30 9241 C 875.207 -0.401588 1.83763 0
M  V30 9242 O 874.565 -1.28934 1.27459 0
M  V30 9243 C 874.613 1.63583 3.21361 0
M  V30 9244 O 873.717 0.875198 4.03006 0
M  V30 9245 H 873.058 0.368235 0.552539 0
M  V30 9246 H 875.588 1.59994 1.27526 0
M  V30 9247 H 875.598 1.67426 3.72065 0
M  V30 9248 H 874.273 2.68835 3.17334 0
M  V30 9249 H 872.85 0.911172 3.61597 0
M  V30 9250 N 875.035 -1.20752 1.01276 0
M  V30 9251 C 876.446 -1.7175 0.732033 0
M  V30 9252 C 876.797 -1.8131 -0.749733 0
M  V30 9253 O 875.922 -1.47301 -1.58529 0
M  V30 9254 C 876.517 -3.11936 1.32217 0
M  V30 9255 C 875.076 -3.6026 1.09039 0
M  V30 9256 C 874.223 -2.37571 1.43022 0
M  V30 9257 H 877.174 -1.0582 1.1827 0
M  V30 9258 H 877.195 -3.73802 0.710771 0
M  V30 9259 H 876.707 -3.04946 2.40061 0
M  V30 9260 H 874.808 -3.72588 0.0294464 0
M  V30 9261 H 874.921 -4.45295 1.76775 0
M  V30 9262 H 873.285 -2.40128 0.849159 0
M  V30 9263 H 874.068 -2.33225 2.51915 0
M  V30 9264 N 876.513 -0.788492 -1.36457 0
M  V30 9265 C 877.762 -0.357052 -1.98515 0
M  V30 9266 C 878.075 1.0769 -1.63285 0
M  V30 9267 O 879.281 1.61057 -2.1857 0
M  V30 9268 C 877.737 -0.587449 -3.55073 0
M  V30 9269 C 877.345 -2.03276 -3.99228 0
M  V30 9270 C 879.089 -0.220468 -4.23927 0
M  V30 9271 C 876.996 -2.20987 -5.48561 0
M  V30 9272 H 875.926 -0.129762 -0.74275 0
M  V30 9273 H 878.577 -0.969995 -1.55767 0
M  V30 9274 H 876.959 0.0951918 -3.95886 0
M  V30 9275 H 878.133 -2.75173 -3.69617 0
M  V30 9276 H 876.448 -2.3579 -3.43208 0
M  V30 9277 H 879.045 -0.331085 -5.33674 0
M  V30 9278 H 879.388 0.831306 -4.07915 0
M  V30 9279 H 879.921 -0.856309 -3.88474 0
M  V30 9280 H 876.66 -3.24543 -5.69519 0
M  V30 9281 H 876.18 -1.53594 -5.79801 0
M  V30 9282 H 877.859 -2.01656 -6.14771 0
M  V30 9283 N 877.991 1.48044 -0.54043 0
M  V30 9284 C 878.901 2.33565 0.220163 0
M  V30 9285 C 879.917 1.47146 0.928659 0
M  V30 9286 O 881.093 1.80107 0.901295 0
M  V30 9287 C 878.158 3.2349 1.2472 0
M  V30 9288 C 877.219 4.25789 0.547938 0
M  V30 9289 C 876.452 5.11417 1.52605 0
M  V30 9290 O 876.675 4.99204 2.75956 0
M  V30 9291 O 875.609 5.92498 1.05972 0
M  V30 9292 H 879.435 2.99868 -0.480898 0
M  V30 9293 H 877.02 1.46332 -0.301226 0
M  V30 9294 H 878.902 3.79084 1.84047 0
M  V30 9295 H 877.577 2.59835 1.93048 0
M  V30 9296 H 876.484 3.74001 -0.0860941 0
M  V30 9297 H 877.817 4.92111 -0.0935896 0
M  V30 9298 N 879.47 0.276058 1.55163 0
M  V30 9299 C 880.698 -0.343772 2.04024 0
M  V30 9300 C 881.113 -1.49397 1.15438 0
M  V30 9301 O 880.47 -1.81662 0.174692 0
M  V30 9302 C 880.521 -0.823885 3.51986 0
M  V30 9303 O 880.242 0.280507 4.37201 0
M  V30 9304 C 881.743 -1.51143 4.16738 0
M  V30 9305 H 878.963 -0.07828 0.666418 0
M  V30 9306 H 881.507 0.408427 2.0038 0
M  V30 9307 H 879.662 -1.52617 3.56071 0
M  V30 9308 H 880.076 -0.0887831 5.24425 0
M  V30 9309 H 881.55 -1.79878 5.2187 0
M  V30 9310 H 882.027 -2.44327 3.64967 0
M  V30 9311 H 882.633 -0.852975 4.16659 0
M  V30 9312 N 880.948 -1.576 0.00335426 0
M  V30 9313 C 882.194 -1.90996 -0.681799 0
M  V30 9314 C 882.527 -0.877643 -1.73237 0
M  V30 9315 O 881.802 0.103183 -1.94226 0
M  V30 9316 C 882.085 -3.34961 -1.32187 0
M  V30 9317 C 881.938 -4.48911 -0.28261 0
M  V30 9318 C 883.257 -3.78408 -2.24711 0
M  V30 9319 H 880.376 -0.694596 -0.246386 0
M  V30 9320 H 883.018 -1.89919 0.055336 0
M  V30 9321 H 881.168 -3.36008 -1.95014 0
M  V30 9322 H 882.84 -4.59999 0.346241 0
M  V30 9323 H 881.083 -4.32 0.394768 0
M  V30 9324 H 881.754 -5.46609 -0.769576 0
M  V30 9325 H 884.23 -3.78934 -1.71897 0
M  V30 9326 H 883.106 -4.79885 -2.66461 0
M  V30 9327 H 883.367 -3.12464 -3.1276 0
M  V30 9328 N 882.426 0.269451 -1.5528 0
M  V30 9329 C 883.837 0.840233 -1.66724 0
M  V30 9330 C 884.188 1.86909 -0.596621 0
M  V30 9331 O 883.313 2.14817 0.261246 0
M  V30 9332 C 883.908 1.5308 -3.02245 0
M  V30 9333 C 882.467 2.04957 -3.15705 0
M  V30 9334 C 881.614 0.892838 -2.62533 0
M  V30 9335 H 884.565 0.0457236 -1.58634 0
M  V30 9336 H 884.586 2.39792 -2.95432 0
M  V30 9337 H 884.098 0.781741 -3.80145 0
M  V30 9338 H 882.199 2.82813 -2.42585 0
M  V30 9339 H 882.312 2.26244 -4.22316 0
M  V30 9340 H 880.676 1.28719 -2.19781 0
M  V30 9341 H 881.459 0.157229 -3.4294 0
M  V30 9342 N 883.904 1.48273 0.534124 0
M  V30 9343 C 885.15 1.56311 1.29208 0
M  V30 9344 C 885.483 0.234481 1.92779 0
M  V30 9345 O 884.758 -0.759143 1.79073 0
M  V30 9346 C 885.041 2.69831 2.3846 0
M  V30 9347 C 884.894 4.12385 1.79608 0
M  V30 9348 C 886.213 2.79133 3.40254 0
M  V30 9349 H 883.332 0.56899 0.468422 0
M  V30 9350 H 885.974 1.80429 0.595438 0
M  V30 9351 H 884.124 2.49397 2.97881 0
M  V30 9352 H 885.796 4.44246 1.24269 0
M  V30 9353 H 884.039 4.19579 1.10162 0
M  V30 9354 H 884.71 4.87629 2.58693 0
M  V30 9355 H 887.186 2.97632 2.90783 0
M  V30 9356 H 886.062 3.60298 4.14097 0
M  V30 9357 H 886.323 1.87122 4.00547 0
M  V30 9358 N 885.382 -0.782676 1.36792 0
M  V30 9359 C 886.329 -1.89558 1.31667 0
M  V30 9360 C 887.299 -1.65076 0.184147 0
M  V30 9361 O 888.484 -1.87143 0.371753 0
M  V30 9362 C 885.624 -3.26469 1.11858 0
M  V30 9363 C 884.737 -3.62978 2.34245 0
M  V30 9364 C 883.872 -4.89041 2.07394 0
M  V30 9365 C 882.911 -5.18249 3.25706 0
M  V30 9366 N 882.048 -6.35497 2.98476 0
M  V30 9367 H 886.888 -1.93274 2.26824 0
M  V30 9368 H 884.425 -0.945057 1.12726 0
M  V30 9369 H 886.383 -4.05431 0.983968 0
M  V30 9370 H 885.013 -3.22158 0.203531 0
M  V30 9371 H 884.065 -2.79087 2.58485 0
M  V30 9372 H 885.377 -3.80507 3.22514 0
M  V30 9373 H 884.531 -5.75883 1.90901 0
M  V30 9374 H 883.27 -4.73594 1.16446 0
M  V30 9375 H 882.275 -4.29887 3.4275 0
M  V30 9376 H 883.5 -5.35611 4.1749 0
M  V30 9377 H 881.446 -6.21429 2.10146 0
M  V30 9378 H 881.363 -6.5339 3.80286 0
M  V30 9379 H 882.631 -7.25304 2.85577 0
M  V30 9380 N 886.86 -1.21182 -1.00761 0
M  V30 9381 C 887.79 -0.992773 -2.11344 0
M  V30 9382 C 888.771 0.0813618 -1.69905 0
M  V30 9383 O 889.956 -0.0779503 -1.94043 0
M  V30 9384 C 887.086 -0.553826 -3.42856 0
M  V30 9385 C 886.04 -1.57223 -3.98077 0
M  V30 9386 C 885.366 -0.989605 -5.25463 0
M  V30 9387 C 886.666 -2.95839 -4.30438 0
M  V30 9388 H 888.36 -1.91766 -2.29927 0
M  V30 9389 H 885.906 -0.923426 -1.10494 0
M  V30 9390 H 887.859 -0.387771 -4.19612 0
M  V30 9391 H 886.583 0.406702 -3.24058 0
M  V30 9392 H 885.242 -1.7258 -3.23437 0
M  V30 9393 H 884.89 -0.0208743 -5.02996 0
M  V30 9394 H 884.59 -1.66984 -5.63374 0
M  V30 9395 H 886.114 -0.834815 -6.04866 0
M  V30 9396 H 887.528 -2.8394 -4.98047 0
M  V30 9397 H 885.925 -3.60851 -4.79486 0
M  V30 9398 H 886.995 -3.46882 -3.38823 0
M  V30 9399 N 888.338 1.20213 -1.01915 0
M  V30 9400 C 889.285 2.2309 -0.591571 0
M  V30 9401 C 890.255 1.61465 0.389649 0
M  V30 9402 O 891.44 1.88606 0.288511 0
M  V30 9403 C 888.58 3.45045 0.0614028 0
M  V30 9404 C 887.693 4.21091 -0.964688 0
M  V30 9405 C 886.828 5.30448 -0.282499 0
M  V30 9406 C 885.867 5.98241 -1.29517 0
M  V30 9407 N 885.004 6.99182 -0.639472 0
M  V30 9408 H 889.844 2.59023 -1.47347 0
M  V30 9409 H 887.381 1.27274 -0.737547 0
M  V30 9410 H 889.339 4.14688 0.45714 0
M  V30 9411 H 887.969 3.09797 0.906937 0
M  V30 9412 H 887.021 3.50489 -1.47857 0
M  V30 9413 H 888.333 4.67662 -1.73475 0
M  V30 9414 H 887.487 6.06466 0.168603 0
M  V30 9415 H 886.226 4.84922 0.519843 0
M  V30 9416 H 885.231 5.20982 -1.75663 0
M  V30 9417 H 886.456 6.45853 -2.09884 0
M  V30 9418 H 884.402 6.55844 0.142955 0
M  V30 9419 H 884.319 7.43893 -1.34756 0
M  V30 9420 H 885.587 7.79212 -0.212047 0
M  V30 9421 N 889.816 0.795718 1.36037 0
M  V30 9422 C 891.227 0.433379 1.816 0
M  V30 9423 C 891.578 -1.04341 1.66155 0
M  V30 9424 O 890.703 -1.81004 1.18603 0
M  V30 9425 C 891.298 0.77985 3.29703 0
M  V30 9426 C 889.857 0.470256 3.73451 0
M  V30 9427 C 889.004 1.01119 2.58206 0
M  V30 9428 H 891.955 0.988317 1.24169 0
M  V30 9429 H 891.976 0.0732898 3.80429 0
M  V30 9430 H 891.488 1.85473 3.40913 0
M  V30 9431 H 889.589 -0.596332 3.67797 0
M  V30 9432 H 889.702 0.995276 4.68648 0
M  V30 9433 H 888.066 0.434077 2.50974 0
M  V30 9434 H 888.849 2.09196 2.72198 0
M  V30 9435 N 891.294 -1.47756 0.548274 0
M  V30 9436 C 892.542 -2.02089 0.0208542 0
M  V30 9437 C 892.863 -1.42589 -1.33017 0
M  V30 9438 O 892.133 -0.597825 -1.86555 0
M  V30 9439 H 890.713 -0.746985 0.00472023 0
M  V30 9440 H 893.375 -1.81262 0.716257 0
M  V30 9441 H 892.471 -3.12012 -0.0739016 0
M  V30 9442 N 892.772 -0.284283 -1.55015 0
M  V30 9443 C 893.705 0.640779 -2.19019 0
M  V30 9444 C 894.683 1.14541 -1.15409 0
M  V30 9445 O 895.867 1.21669 -1.43975 0
M  V30 9446 C 892.994 1.87488 -2.82074 0
M  V30 9447 C 892.04 1.50494 -3.99066 0
M  V30 9448 S 892.873 0.575218 -5.32402 0
M  V30 9449 C 894.029 1.81749 -5.98931 0
M  V30 9450 H 894.262 0.0969761 -2.97142 0
M  V30 9451 H 891.795 -0.0684929 -1.54248 0
M  V30 9452 H 893.753 2.58319 -3.19032 0
M  V30 9453 H 892.414 2.38984 -2.03828 0
M  V30 9454 H 891.607 2.42349 -4.41908 0
M  V30 9455 H 891.209 0.876741 -3.63578 0
M  V30 9456 H 893.501 2.76026 -6.18721 0
M  V30 9457 H 894.444 1.43192 -6.93471 0
M  V30 9458 H 894.852 1.98661 -5.28388 0
M  V30 9459 N 894.251 1.57596 -0.0117121 0
M  V30 9460 C 895.528 1.82323 0.708356 0
M  V30 9461 C 895.908 0.891947 1.91331 0
M  V30 9462 O 895.256 -0.0565984 2.2843 0
M  V30 9463 C 895.466 3.31111 1.10303 0
M  V30 9464 C 896.814 3.97147 1.50199 0
M  V30 9465 O 897.838 3.35503 1.1965 0
M  V30 9466 O 896.697 5.0576 2.07049 0
M  V30 9467 H 893.791 0.751173 0.345931 0
M  V30 9468 H 896.337 1.69657 -0.0380632 0
M  V30 9469 H 895.109 3.90534 0.24467 0
M  V30 9470 H 894.732 3.48818 1.90818 0
M  V30 9471 N 895.729 -0.261212 1.5542 0
M  V30 9472 C 896.977 -0.989272 1.76232 0
M  V30 9473 C 897.298 -1.86389 0.573067 0
M  V30 9474 O 896.568 -1.91526 -0.41166 0
M  V30 9475 H 895.148 -0.368256 0.64992 0
M  V30 9476 H 897.81 -0.282603 1.9284 0
M  V30 9477 H 896.906 -1.61935 2.66802 0
M  V30 9478 N 897.207 -1.48554 -0.526253 0
M  V30 9479 C 898.618 -1.50256 -1.10815 0
M  V30 9480 C 898.969 -0.274445 -1.94271 0
M  V30 9481 O 898.094 0.618094 -2.07385 0
M  V30 9482 C 898.689 -2.72264 -2.01638 0
M  V30 9483 C 897.248 -2.76826 -2.55038 0
M  V30 9484 C 896.395 -2.43823 -1.32081 0
M  V30 9485 H 899.346 -1.55616 -0.31133 0
M  V30 9486 H 899.367 -2.50993 -2.85977 0
M  V30 9487 H 898.879 -3.61632 -1.4087 0
M  V30 9488 H 896.98 -1.91676 -3.19517 0
M  V30 9489 H 897.093 -3.78351 -2.93917 0
M  V30 9490 H 895.457 -1.95058 -1.63781 0
M  V30 9491 H 896.24 -3.35436 -0.730596 0
M  V30 9492 N 898.685 0.775411 -1.37205 0
M  V30 9493 C 899.632 1.88857 -1.32671 0
M  V30 9494 C 900.602 1.64976 -0.192899 0
M  V30 9495 O 901.787 1.86944 -0.381673 0
M  V30 9496 C 898.927 3.25871 -1.13588 0
M  V30 9497 C 898.04 3.61731 -2.36167 0
M  V30 9498 C 897.175 4.87934 -2.09985 0
M  V30 9499 C 896.214 5.16514 -3.2845 0
M  V30 9500 N 895.351 6.33905 -3.01842 0
M  V30 9501 H 900.191 1.92068 -2.27846 0
M  V30 9502 H 897.728 0.939066 -1.13225 0
M  V30 9503 H 899.686 4.04903 -1.00546 0
M  V30 9504 H 898.316 3.22045 -0.220613 0
M  V30 9505 H 897.368 2.77712 -2.59962 0
M  V30 9506 H 898.68 3.78792 -3.24528 0
M  V30 9507 H 897.834 5.74863 -1.93953 0
M  V30 9508 H 896.573 4.7297 -1.18956 0
M  V30 9509 H 895.578 4.28063 -3.45025 0
M  V30 9510 H 896.803 5.33389 -4.20325 0
M  V30 9511 H 894.749 6.20306 -2.13439 0
M  V30 9512 H 894.666 6.51364 -3.83746 0
M  V30 9513 H 895.934 7.23779 -2.8942 0
M  V30 9514 N 900.163 1.21714 1.00117 0
M  V30 9515 C 901.409 1.03823 1.74208 0
M  V30 9516 C 901.742 -0.426733 1.89454 0
M  V30 9517 O 901.017 -1.31658 1.43166 0
M  V30 9518 C 901.3 1.74047 3.15246 0
M  V30 9519 C 901.153 3.28087 3.077 0
M  V30 9520 C 902.472 1.48614 4.14249 0
M  V30 9521 H 899.591 0.378573 0.632338 0
M  V30 9522 H 902.233 1.49942 1.16694 0
M  V30 9523 H 900.383 1.3484 3.64349 0
M  V30 9524 H 902.055 3.76686 2.6628 0
M  V30 9525 H 900.298 3.58191 2.44707 0
M  V30 9526 H 900.969 3.72392 4.07466 0
M  V30 9527 H 903.445 1.82656 3.73866 0
M  V30 9528 H 902.321 2.00257 5.11066 0
M  V30 9529 H 902.582 0.416957 4.40129 0
M  V30 9530 N 901.641 -1.19671 1.02551 0
M  V30 9531 C 902.588 -2.22773 0.603394 0
M  V30 9532 C 903.558 -1.61669 -0.381081 0
M  V30 9533 O 904.743 -1.88756 -0.278505 0
M  V30 9534 C 901.883 -3.45073 -0.0431034 0
M  V30 9535 C 900.996 -4.20574 0.987006 0
M  V30 9536 C 900.131 -5.30291 0.310626 0
M  V30 9537 C 899.17 -5.97545 1.32688 0
M  V30 9538 N 898.307 -6.98833 0.676542 0
M  V30 9539 H 903.147 -2.58238 1.48719 0
M  V30 9540 H 900.684 -1.26881 0.744286 0
M  V30 9541 H 902.642 -4.14925 -0.435141 0
M  V30 9542 H 901.272 -3.10274 -0.890495 0
M  V30 9543 H 900.324 -3.497 1.49713 0
M  V30 9544 H 901.636 -4.66736 1.75952 0
M  V30 9545 H 900.79 -6.06547 -0.136438 0
M  V30 9546 H 899.529 -4.8519 -0.49412 0
M  V30 9547 H 898.534 -5.20043 1.78424 0
M  V30 9548 H 899.759 -6.4473 2.13306 0
M  V30 9549 H 897.705 -6.55911 -0.108172 0
M  V30 9550 H 897.622 -7.43168 1.38699 0
M  V30 9551 H 898.89 -7.79088 0.253367 0
M  V30 9552 N 903.119 -0.802921 -1.35613 0
M  V30 9553 C 904.051 -0.168461 -2.2858 0
M  V30 9554 C 905.064 0.630123 -1.50111 0
M  V30 9555 O 906.253 0.463086 -1.72388 0
M  V30 9556 C 903.353 0.783943 -3.29708 0
M  V30 9557 C 902.526 0.0325165 -4.37388 0
M  V30 9558 C 901.585 0.902859 -5.18396 0
M  V30 9559 O 900.611 0.355144 -5.68091 0
M  V30 9560 N 901.813 2.22542 -5.36149 0
M  V30 9561 H 904.578 -0.96709 -2.83668 0
M  V30 9562 H 902.139 -0.658043 -1.47924 0
M  V30 9563 H 904.131 1.37034 -3.80794 0
M  V30 9564 H 902.701 1.48339 -2.75162 0
M  V30 9565 H 901.921 -0.735057 -3.87286 0
M  V30 9566 H 903.209 -0.485499 -5.06478 0
M  V30 9567 H 902.607 2.69439 -4.97412 0
M  V30 9568 H 901.164 2.76113 -5.90428 0
M  V30 9569 N 904.597 1.47463 -0.556102 0
M  V30 9570 C 905.843 2.03361 -0.039909 0
M  V30 9571 C 906.198 1.42292 1.29502 0
M  V30 9572 O 905.491 0.568813 1.82962 0
M  V30 9573 C 905.685 3.57224 0.112126 0
M  V30 9574 C 905.514 4.33213 -1.20652 0
M  V30 9575 C 904.284 4.73153 -1.77352 0
M  V30 9576 C 906.482 4.68415 -2.12348 0
M  V30 9577 N 904.464 5.33781 -3.03233 0
M  V30 9578 C 905.835 5.29334 -3.22808 0
M  V30 9579 C 907.89 4.50344 -2.12356 0
M  V30 9580 C 906.593 5.7409 -4.33374 0
M  V30 9581 C 908.619 4.96098 -3.21933 0
M  V30 9582 C 907.981 5.57065 -4.31112 0
M  V30 9583 H 904.08 0.779939 -0.0567407 0
M  V30 9584 H 906.664 1.79959 -0.743147 0
M  V30 9585 H 904.835 3.80395 0.784485 0
M  V30 9586 H 906.567 3.99762 0.630285 0
M  V30 9587 H 903.322 4.55074 -1.31165 0
M  V30 9588 H 903.746 5.6864 -3.67393 0
M  V30 9589 H 908.388 4.02566 -1.29229 0
M  V30 9590 H 906.106 6.2086 -5.17261 0
M  V30 9591 H 909.692 4.83887 -3.23024 0
M  V30 9592 H 908.572 5.91824 -5.14504 0
M  V30 9593 N 906.075 0.2925 1.54862 0
M  V30 9594 C 907.486 -0.201841 1.85606 0
M  V30 9595 C 907.837 -1.54093 1.21449 0
M  V30 9596 O 906.962 -2.10327 0.509079 0
M  V30 9597 C 907.557 -0.373011 3.3674 0
M  V30 9598 C 906.116 -0.811574 3.67547 0
M  V30 9599 C 905.263 0.0850583 2.7717 0
M  V30 9600 H 908.214 0.513774 1.50153 0
M  V30 9601 H 908.235 -1.20892 3.60785 0
M  V30 9602 H 907.747 0.601751 3.83407 0
M  V30 9603 H 905.848 -1.79719 3.26392 0
M  V30 9604 H 905.961 -0.636853 4.74848 0
M  V30 9605 H 904.325 -0.434224 2.50971 0
M  V30 9606 H 905.108 1.05602 3.26654 0
M  V30 9607 N 907.553 -1.57587 0.0200696 0
M  V30 9608 C 908.483 -2.12702 -0.963333 0
M  V30 9609 C 909.464 -1.04094 -1.34531 0
M  V30 9610 O 910.649 -1.31881 -1.42552 0
M  V30 9611 C 907.779 -2.64673 -2.24868 0
M  V30 9612 C 906.733 -3.77987 -2.00772 0
M  V30 9613 C 906.059 -4.16351 -3.35494 0
M  V30 9614 C 907.359 -5.0444 -1.35416 0
M  V30 9615 H 909.053 -2.95121 -0.504363 0
M  V30 9616 H 906.599 -1.41966 -0.24116 0
M  V30 9617 H 908.552 -3.01862 -2.94036 0
M  V30 9618 H 907.276 -1.79403 -2.72914 0
M  V30 9619 H 905.935 -3.41223 -1.34025 0
M  V30 9620 H 905.583 -3.28075 -3.81282 0
M  V30 9621 H 905.283 -4.92705 -3.20181 0
M  V30 9622 H 906.807 -4.56115 -4.05945 0
M  V30 9623 H 908.221 -5.39273 -1.94571 0
M  V30 9624 H 906.618 -5.85732 -1.30529 0
M  V30 9625 H 907.688 -4.83803 -0.325923 0
M  V30 9626 N 909.032 0.252966 -1.55557 0
M  V30 9627 C 910.26 0.999565 -1.81153 0
M  V30 9628 C 910.675 1.79181 -0.594955 0
M  V30 9629 O 910.032 1.77208 0.436311 0
M  V30 9630 C 910.083 1.94227 -3.04891 0
M  V30 9631 O 909.804 1.18209 -4.21851 0
M  V30 9632 C 911.305 2.80536 -3.43241 0
M  V30 9633 H 908.525 0.294402 -0.602966 0
M  V30 9634 H 911.069 0.277686 -2.02606 0
M  V30 9635 H 909.224 2.6185 -2.85505 0
M  V30 9636 H 909.638 1.81922 -4.9194 0
M  V30 9637 H 911.112 3.42442 -4.32941 0
M  V30 9638 H 911.589 3.51337 -2.6355 0
M  V30 9639 H 912.195 2.18373 -3.64956 0
M  V30 9640 N 910.51 1.48831 0.518367 0
M  V30 9641 C 911.42 1.6692 1.64848 0
M  V30 9642 C 912.436 0.551711 1.65022 0
M  V30 9643 O 913.612 0.824251 1.83761 0
M  V30 9644 C 910.677 1.71559 3.01278 0
M  V30 9645 C 909.738 2.9502 3.11868 0
M  V30 9646 C 908.971 2.99428 4.4179 0
M  V30 9647 O 909.194 2.11914 5.29574 0
M  V30 9648 O 908.128 3.91719 4.5699 0
M  V30 9649 H 911.954 2.62623 1.52521 0
M  V30 9650 H 909.539 1.32368 0.692749 0
M  V30 9651 H 911.421 1.77064 3.82396 0
M  V30 9652 H 910.096 0.790316 3.13904 0
M  V30 9653 H 909.003 2.95042 2.30003 0
M  V30 9654 H 910.336 3.8697 3.04163 0
M  V30 9655 N 911.988 -0.768124 1.37614 0
M  V30 9656 C 912.898 -1.91249 1.35871 0
M  V30 9657 C 913.914 -1.7208 0.257786 0
M  V30 9658 O 915.09 -1.95253 0.493782 0
M  V30 9659 C 912.155 -3.26423 1.16829 0
M  V30 9660 C 911.216 -3.5822 2.36594 0
M  V30 9661 C 910.449 -4.86945 2.1845 0
M  V30 9662 O 910.672 -5.58258 1.17064 0
M  V30 9663 O 909.606 -5.17888 3.06718 0
M  V30 9664 H 913.432 -1.95671 2.32264 0
M  V30 9665 H 911.017 -0.911382 1.18382 0
M  V30 9666 H 912.899 -4.07269 1.08212 0
M  V30 9667 H 911.574 -3.22845 0.235123 0
M  V30 9668 H 910.481 -2.77594 2.50783 0
M  V30 9669 H 911.814 -3.66545 3.2849 0
M  V30 9670 N 913.466 -1.22244 -0.994698 0
M  V30 9671 C 914.413 -0.990906 -2.08446 0
M  V30 9672 C 915.383 0.086737 -1.65873 0
M  V30 9673 O 916.568 -0.0624882 -1.90698 0
M  V30 9674 C 913.708 -0.572813 -3.40313 0
M  V30 9675 C 912.821 -1.72103 -3.96238 0
M  V30 9676 C 911.956 -1.2511 -5.16257 0
M  V30 9677 C 910.995 -2.37098 -5.64315 0
M  V30 9678 N 910.132 -1.91164 -6.75574 0
M  V30 9679 H 914.972 -1.92377 -2.27585 0
M  V30 9680 H 912.509 -0.958576 -1.11578 0
M  V30 9681 H 914.467 -0.311594 -4.16035 0
M  V30 9682 H 913.097 0.323044 -3.21179 0
M  V30 9683 H 912.149 -2.09662 -3.17405 0
M  V30 9684 H 913.461 -2.56347 -4.27888 0
M  V30 9685 H 912.615 -0.947152 -5.99261 0
M  V30 9686 H 911.354 -0.378836 -4.86226 0
M  V30 9687 H 910.359 -2.68283 -4.799 0
M  V30 9688 H 911.584 -3.24837 -5.96371 0
M  V30 9689 H 909.53 -1.06298 -6.47331 0
M  V30 9690 H 909.447 -2.68975 -7.06533 0
M  V30 9691 H 910.715 -1.63833 -7.62088 0
M  V30 9692 N 914.944 1.19125 -1.03184 0
M  V30 9693 C 916.193 1.8821 -0.725264 0
M  V30 9694 C 916.506 1.80674 0.749411 0
M  V30 9695 O 917.712 2.45037 1.16915 0
M  V30 9696 C 916.168 3.37607 -1.24697 0
M  V30 9697 C 915.776 3.53693 -2.74964 0
M  V30 9698 C 917.52 4.12149 -1.01652 0
M  V30 9699 C 915.427 4.97001 -3.20538 0
M  V30 9700 H 914.357 0.704916 -0.267599 0
M  V30 9701 H 917.008 1.34663 -1.24652 0
M  V30 9702 H 915.39 3.90569 -0.653614 0
M  V30 9703 H 916.564 3.11046 -3.39981 0
M  V30 9704 H 914.879 2.92544 -2.96322 0
M  V30 9705 H 917.476 5.17837 -1.33226 0
M  V30 9706 H 917.819 4.16274 0.0465712 0
M  V30 9707 H 918.352 3.65334 -1.57403 0
M  V30 9708 H 915.091 4.9804 -4.26189 0
M  V30 9709 H 914.611 5.40398 -2.60251 0
M  V30 9710 H 916.29 5.65669 -3.14049 0
M  V30 9711 N 916.422 0.810101 1.35185 0
M  V30 9712 C 917.369 0.220927 2.2974 0
M  V30 9713 C 918.339 -0.647024 1.5298 0
M  V30 9714 O 919.524 -0.591367 1.81404 0
M  V30 9715 C 916.664 -0.62167 3.39454 0
M  V30 9716 C 915.777 0.267104 4.31173 0
M  V30 9717 C 914.912 -0.583833 5.27982 0
M  V30 9718 C 913.951 0.305123 6.11339 0
M  V30 9719 N 913.088 -0.505992 7.00274 0
M  V30 9720 H 917.928 1.03266 2.79536 0
M  V30 9721 H 915.465 0.520768 1.37573 0
M  V30 9722 H 917.423 -1.12539 4.01735 0
M  V30 9723 H 916.053 -1.39863 2.90926 0
M  V30 9724 H 915.105 0.88895 3.69867 0
M  V30 9725 H 916.417 0.951182 4.89647 0
M  V30 9726 H 915.571 -1.15254 5.95652 0
M  V30 9727 H 914.31 -1.30146 4.70014 0
M  V30 9728 H 913.315 0.886075 5.42613 0
M  V30 9729 H 914.54 1.02067 6.71386 0
M  V30 9730 H 912.486 -1.20753 6.4479 0
M  V30 9731 H 912.403 0.119966 7.55905 0
M  V30 9732 H 913.671 -1.05787 7.72288 0
M  V30 9733 N 917.9 -1.47166 0.563914 0
M  V30 9734 C 918.863 -2.28571 -0.169624 0
M  V30 9735 C 919.863 -1.37331 -0.836467 0
M  V30 9736 O 921.053 -1.59896 -0.6913 0
M  V30 9737 C 918.185 -3.17201 -1.24886 0
M  V30 9738 H 919.378 -2.94896 0.545539 0
M  V30 9739 H 916.931 -1.52966 0.321121 0
M  V30 9740 H 917.666 -2.55582 -1.99621 0
M  V30 9741 H 917.451 -3.84356 -0.775426 0
M  V30 9742 H 918.941 -3.7852 -1.76388 0
M  V30 9743 N 919.378 -0.300708 -1.54705 0
M  V30 9744 C 920.308 0.568675 -2.26469 0
M  V30 9745 C 921.289 1.13817 -1.26411 0
M  V30 9746 O 922.474 1.16756 -1.55183 0
M  V30 9747 C 919.604 1.74077 -3.00524 0
M  V30 9748 C 918.558 1.30165 -4.07727 0
M  V30 9749 C 917.884 2.55888 -4.69495 0
M  V30 9750 C 919.184 0.433106 -5.20501 0
M  V30 9751 H 920.878 -0.0298851 -2.99385 0
M  V30 9752 H 918.424 -0.0158135 -1.43991 0
M  V30 9753 H 920.377 2.35506 -3.49449 0
M  V30 9754 H 919.101 2.36556 -2.25186 0
M  V30 9755 H 917.76 0.710414 -3.59651 0
M  V30 9756 H 917.408 3.16681 -3.90797 0
M  V30 9757 H 917.108 2.27207 -5.41895 0
M  V30 9758 H 918.632 3.18121 -5.21183 0
M  V30 9759 H 920.046 0.95307 -5.65322 0
M  V30 9760 H 918.443 0.240085 -5.9962 0
M  V30 9761 H 919.513 -0.541866 -4.81863 0
M  V30 9762 N 920.856 1.57574 -0.0284266 0
M  V30 9763 C 922.102 1.92056 0.651327 0
M  V30 9764 C 922.435 0.905092 1.71819 0
M  V30 9765 O 921.71 -0.0722703 1.94366 0
M  V30 9766 C 921.993 3.37021 1.26841 0
M  V30 9767 C 921.846 4.49304 0.211157 0
M  V30 9768 C 923.165 3.81936 2.18662 0
M  V30 9769 H 920.284 0.698428 0.235304 0
M  V30 9770 H 922.926 1.89807 -0.0855435 0
M  V30 9771 H 921.076 3.39068 1.89644 0
M  V30 9772 H 922.748 4.5939 -0.419379 0
M  V30 9773 H 920.991 4.31317 -0.463445 0
M  V30 9774 H 921.662 5.47764 0.682518 0
M  V30 9775 H 924.138 3.8162 1.65847 0
M  V30 9776 H 923.014 4.84064 2.58792 0
M  V30 9777 H 923.275 3.174 3.07749 0
M  V30 9778 N 922.334 -0.244713 1.55689 0
M  V30 9779 C 923.244 -1.32447 1.93636 0
M  V30 9780 C 924.26 -1.52541 0.837086 0
M  V30 9781 O 925.436 -1.66121 1.13867 0
M  V30 9782 C 922.501 -2.65864 2.22525 0
M  V30 9783 C 921.562 -2.54273 3.45896 0
M  V30 9784 C 920.795 -3.81327 3.73397 0
M  V30 9785 O 921.018 -4.83307 3.02936 0
M  V30 9786 O 919.952 -3.79829 4.66919 0
M  V30 9787 H 923.778 -1.03255 2.85608 0
M  V30 9788 H 921.363 -0.445652 1.42598 0
M  V30 9789 H 923.245 -3.447 2.42404 0
M  V30 9790 H 921.92 -2.94784 1.33731 0
M  V30 9791 H 920.827 -1.73715 3.31321 0
M  V30 9792 H 922.16 -2.30297 4.34999 0
M  V30 9793 N 923.813 -1.49104 -0.510467 0
M  V30 9794 C 925.062 -1.57362 -1.26175 0
M  V30 9795 C 925.375 -0.261218 -1.93848 0
M  V30 9796 O 926.581 -0.222238 -2.70589 0
M  V30 9797 C 925.037 -2.77606 -2.29048 0
M  V30 9798 C 924.645 -4.15567 -1.67357 0
M  V30 9799 C 926.389 -2.95188 -3.05064 0
M  V30 9800 C 924.296 -5.27046 -2.68285 0
M  V30 9801 H 923.226 -0.585887 -0.474608 0
M  V30 9802 H 925.877 -1.75474 -0.536753 0
M  V30 9803 H 924.259 -2.52968 -3.04669 0
M  V30 9804 H 925.433 -4.50304 -0.977924 0
M  V30 9805 H 923.748 -4.03264 -1.03765 0
M  V30 9806 H 926.345 -3.75643 -3.80521 0
M  V30 9807 H 926.688 -2.05385 -3.62108 0
M  V30 9808 H 927.221 -3.19821 -2.36558 0
M  V30 9809 H 923.96 -6.18878 -2.16034 0
M  V30 9810 H 923.48 -4.96774 -3.36118 0
M  V30 9811 H 925.159 -5.55983 -3.30896 0
M  V30 9812 N 925.291 0.760815 -1.38019 0
M  V30 9813 C 926.531 1.53264 -1.35239 0
M  V30 9814 C 926.895 1.91908 0.0595038 0
M  V30 9815 O 928.096 2.67962 0.212122 0
M  V30 9816 C 926.367 2.75643 -2.27499 0
M  V30 9817 S 927.926 3.6559 -2.42672 0
M  V30 9818 H 924.744 0.52457 -0.479945 0
M  V30 9819 H 927.346 0.893737 -1.73875 0
M  V30 9820 H 926.05 2.4535 -3.28986 0
M  V30 9821 H 925.581 3.44483 -1.89987 0
M  V30 9822 H 927.596 4.68124 -1.64542 0
M  V30 9823 N 926.769 1.22769 0.988202 0
M  V30 9824 C 927.997 1.08155 1.76381 0
M  V30 9825 C 928.412 -0.367573 1.85187 0
M  V30 9826 O 927.769 -1.25455 1.32541 0
M  V30 9827 C 927.82 1.69193 3.19462 0
M  V30 9828 O 927.541 3.08437 3.11125 0
M  V30 9829 C 929.042 1.59915 4.13451 0
M  V30 9830 H 926.262 0.378908 0.553778 0
M  V30 9831 H 928.806 1.6246 1.24206 0
M  V30 9832 H 926.961 1.18939 3.6869 0
M  V30 9833 H 927.375 3.37916 4.0114 0
M  V30 9834 H 928.849 2.07339 5.1158 0
M  V30 9835 H 929.326 0.556546 4.3566 0
M  V30 9836 H 929.932 2.09497 3.70123 0
M  V30 9837 N 928.247 -1.18576 1.03814 0
M  V30 9838 C 929.157 -2.25778 0.637311 0
M  V30 9839 C 930.173 -1.7074 -0.335248 0
M  V30 9840 O 931.349 -2.00494 -0.19081 0
M  V30 9841 C 928.414 -3.467 0.00386953 0
M  V30 9842 C 927.475 -4.16881 1.02511 0
M  V30 9843 C 926.708 -5.32031 0.421802 0
M  V30 9844 O 926.931 -5.65142 -0.772699 0
M  V30 9845 O 925.865 -5.90826 1.14925 0
M  V30 9846 H 929.691 -2.62323 1.53037 0
M  V30 9847 H 927.276 -1.25609 0.80887 0
M  V30 9848 H 929.158 -4.19953 -0.348873 0
M  V30 9849 H 927.833 -3.11983 -0.863047 0
M  V30 9850 H 926.74 -3.45707 1.4296 0
M  V30 9851 H 928.073 -4.55592 1.86271 0
M  V30 9852 N 929.725 -0.817259 -1.34754 0
M  V30 9853 C 930.658 -0.180483 -2.27485 0
M  V30 9854 C 931.636 0.659792 -1.48612 0
M  V30 9855 O 932.82 0.624761 -1.77845 0
M  V30 9856 C 929.947 0.748487 -3.30326 0
M  V30 9857 C 928.993 -0.0135304 -4.26498 0
M  V30 9858 S 929.826 -1.35685 -5.18025 0
M  V30 9859 C 930.982 -0.432605 -6.24403 0
M  V30 9860 H 931.215 -0.966677 -2.81145 0
M  V30 9861 H 928.748 -0.612864 -1.41716 0
M  V30 9862 H 930.706 1.27893 -3.90069 0
M  V30 9863 H 929.367 1.50816 -2.75524 0
M  V30 9864 H 928.56 0.692454 -4.9922 0
M  V30 9865 H 928.162 -0.474344 -3.7098 0
M  V30 9866 H 930.454 0.378035 -6.76444 0
M  V30 9867 H 931.397 -1.12934 -6.99036 0
M  V30 9868 H 931.805 -0.0235533 -5.64495 0
M  V30 9869 N 931.203 1.46865 -0.571711 0
M  V30 9870 C 932.113 2.33979 0.170571 0
M  V30 9871 C 933.129 1.49083 0.897239 0
M  V30 9872 O 934.305 1.81979 0.862888 0
M  V30 9873 C 931.37 3.26063 1.17831 0
M  V30 9874 C 930.431 4.26855 0.457499 0
M  V30 9875 C 929.664 5.14539 1.41722 0
M  V30 9876 O 929.887 5.04945 2.65305 0
M  V30 9877 O 928.821 5.94612 0.9338 0
M  V30 9878 H 932.647 2.98781 -0.544396 0
M  V30 9879 H 930.232 1.4566 -0.332198 0
M  V30 9880 H 932.114 3.82903 1.75965 0
M  V30 9881 H 930.789 2.63871 1.87493 0
M  V30 9882 H 929.696 3.73734 -0.165406 0
M  V30 9883 H 931.029 4.91802 -0.197953 0
M  V30 9884 N 932.681 0.308908 1.54543 0
M  V30 9885 C 933.628 -0.563659 2.23811 0
M  V30 9886 C 934.598 -1.12332 1.22355 0
M  V30 9887 O 935.783 -1.16638 1.50997 0
M  V30 9888 C 932.923 -1.72585 2.98845 0
M  V30 9889 C 932.036 -1.19682 4.1509 0
M  V30 9890 C 931.171 -2.32351 4.77688 0
M  V30 9891 C 930.21 -1.76623 5.86064 0
M  V30 9892 N 929.347 -2.82896 6.42584 0
M  V30 9893 H 934.187 0.0336288 2.97981 0
M  V30 9894 H 931.724 0.0283666 1.47073 0
M  V30 9895 H 933.682 -2.40951 3.40586 0
M  V30 9896 H 932.312 -2.29464 2.27037 0
M  V30 9897 H 931.364 -0.405173 3.78236 0
M  V30 9898 H 932.676 -0.748923 4.93146 0
M  V30 9899 H 931.83 -3.0865 5.22322 0
M  V30 9900 H 930.569 -2.80472 3.98982 0
M  V30 9901 H 929.574 -0.988171 5.40847 0
M  V30 9902 H 930.799 -1.29398 6.66658 0
M  V30 9903 H 928.745 -3.30336 5.66758 0
M  V30 9904 H 928.662 -2.42626 7.16009 0
M  V30 9905 H 929.93 -3.59068 6.91875 0
M  V30 9906 N 934.159 -1.57557 0.0367827 0
M  V30 9907 C 935.069 -2.14148 -0.958017 0
M  V30 9908 C 936.085 -1.09564 -1.35173 0
M  V30 9909 O 937.261 -1.4166 -1.43158 0
M  V30 9910 C 934.326 -2.6636 -2.21931 0
M  V30 9911 C 933.387 -3.85688 -1.8853 0
M  V30 9912 C 932.62 -4.35401 -3.08645 0
M  V30 9913 O 932.843 -3.8425 -4.21554 0
M  V30 9914 O 931.777 -5.27158 -2.90497 0
M  V30 9915 H 935.603 -2.99442 -0.506797 0
M  V30 9916 H 933.188 -1.48259 -0.184275 0
M  V30 9917 H 935.07 -2.99976 -2.9596 0
M  V30 9918 H 933.745 -1.84145 -2.66219 0
M  V30 9919 H 932.652 -3.56985 -1.11861 0
M  V30 9920 H 933.985 -4.69089 -1.49052 0
M  V30 9921 N 935.637 0.236453 -1.55816 0
M  V30 9922 C 936.885 0.96111 -1.77784 0
M  V30 9923 C 937.206 1.85454 -0.602648 0
M  V30 9924 O 936.476 1.92157 0.381137 0
M  V30 9925 H 935.056 0.35787 -0.655697 0
M  V30 9926 H 937.718 0.251888 -1.93265 0
M  V30 9927 H 936.814 1.5767 -2.69345 0
M  V30 9928 N 937.115 1.49373 0.502552 0
M  V30 9929 C 938.062 1.65927 1.60427 0
M  V30 9930 C 939.032 0.500768 1.58371 0
M  V30 9931 O 940.217 0.727606 1.76382 0
M  V30 9932 C 937.357 1.73043 2.9858 0
M  V30 9933 C 936.47 3.00187 3.10663 0
M  V30 9934 C 935.605 2.98292 4.3954 0
M  V30 9935 C 934.644 4.20022 4.4525 0
M  V30 9936 N 933.781 4.16046 5.65553 0
M  V30 9937 H 938.621 2.59998 1.45619 0
M  V30 9938 H 936.158 1.28912 0.708519 0
M  V30 9939 H 938.116 1.7515 3.78653 0
M  V30 9940 H 936.746 0.824397 3.12095 0
M  V30 9941 H 935.798 3.07699 2.23663 0
M  V30 9942 H 937.11 3.9018 3.10742 0
M  V30 9943 H 936.264 2.98953 5.27932 0
M  V30 9944 H 935.003 2.06075 4.42023 0
M  V30 9945 H 934.008 4.19607 3.5526 0
M  V30 9946 H 935.233 5.13431 4.44484 0
M  V30 9947 H 933.179 3.26665 5.68881 0
M  V30 9948 H 933.096 4.99773 5.67242 0
M  V30 9949 H 934.364 4.20807 6.56156 0
M  V30 9950 N 938.594 -0.753485 1.38421 0
M  V30 9951 C 939.843 -1.50797 1.33952 0
M  V30 9952 C 940.156 -1.95482 -0.0678464 0
M  V30 9953 O 941.362 -2.7048 -0.235078 0
M  V30 9954 C 939.818 -2.72393 2.35224 0
M  V30 9955 C 939.426 -2.34733 3.81582 0
M  V30 9956 C 941.17 -3.50281 2.39798 0
M  V30 9957 C 939.077 -3.52939 4.7454 0
M  V30 9958 H 938.007 -0.566211 0.497916 0
M  V30 9959 H 940.658 -0.823659 1.63976 0
M  V30 9960 H 939.04 -3.42806 1.98243 0
M  V30 9961 H 940.214 -1.71985 4.27502 0
M  V30 9962 H 938.529 -1.69978 3.80127 0
M  V30 9963 H 941.126 -4.38172 3.06447 0
M  V30 9964 H 941.469 -3.91444 1.41695 0
M  V30 9965 H 942.002 -2.86881 2.75579 0
M  V30 9966 H 938.741 -3.16843 5.73839 0
M  V30 9967 H 938.261 -4.1473 4.33312 0
M  V30 9968 H 939.94 -4.19519 4.92557 0
M  V30 9969 N 940.072 -1.23292 -0.981677 0
M  V30 9970 C 941.297 -1.09176 -1.76339 0
M  V30 9971 C 941.722 0.352726 -1.84763 0
M  V30 9972 O 941.08 1.25509 -1.30832 0
M  V30 9973 C 941.128 -1.72046 -3.16911 0
M  V30 9974 O 940.232 -0.98174 -4.00544 0
M  V30 9975 H 939.573 -0.382755 -0.542581 0
M  V30 9976 H 942.103 -1.63319 -1.23239 0
M  V30 9977 H 942.113 -1.77232 -3.67495 0
M  V30 9978 H 940.788 -2.77154 -3.10095 0
M  V30 9979 H 939.365 -1.00672 -3.59054 0
M  V30 9980 N 941.55 1.18024 -1.04442 0
M  V30 9981 C 942.497 2.21785 -0.638759 0
M  V30 9982 C 943.467 1.62255 0.355312 0
M  V30 9983 O 944.652 1.89176 0.24844 0
M  V30 9984 C 941.792 3.45098 -0.0118002 0
M  V30 9985 C 940.905 4.1895 -1.05379 0
M  V30 9986 C 940.04 5.2973 -0.394951 0
M  V30 9987 C 939.079 5.95359 -1.42178 0
M  V30 9988 N 938.216 6.97668 -0.787635 0
M  V30 9989 H 943.056 2.55839 -1.52808 0
M  V30 9990 H 940.593 1.25681 -0.764378 0
M  V30 9991 H 942.551 4.15564 0.369075 0
M  V30 9992 H 941.181 3.11652 0.84102 0
M  V30 9993 H 940.233 3.47274 -1.55258 0
M  V30 9994 H 941.545 4.63877 -1.83355 0
M  V30 9995 H 940.699 6.06687 0.0399244 0
M  V30 9996 H 939.438 4.85915 0.416867 0
M  V30 9997 H 938.443 5.17139 -1.86675 0
M  V30 9998 H 939.668 6.41255 -2.23536 0
M  V30 9999 H 937.614 6.56 0.00380893 0
M  V30 10000 H 937.531 7.40867 -1.50505 0
M  V30 10001 H 938.799 7.78586 -0.377282 0
M  V30 10002 N 943.028 0.824394 1.34319 0
M  V30 10003 C 944.277 0.40956 1.97498 0
M  V30 10004 C 944.59 -1.03323 1.66083 0
M  V30 10005 O 945.796 -1.55205 2.22764 0
M  V30 10006 C 944.252 0.681384 3.53391 0
M  V30 10007 C 943.86 2.1379 3.93698 0
M  V30 10008 C 945.604 0.332788 4.23194 0
M  V30 10009 C 943.511 2.35453 5.42509 0
M  V30 10010 H 942.441 0.149409 0.739049 0
M  V30 10011 H 945.092 1.01095 1.5314 0
M  V30 10012 H 943.474 0.00980375 3.95999 0
M  V30 10013 H 944.648 2.84876 3.62191 0
M  V30 10014 H 942.963 2.44807 3.36836 0
M  V30 10015 H 945.56 0.472463 5.32609 0
M  V30 10016 H 945.903 -0.722862 4.09976 0
M  V30 10017 H 946.436 0.959005 3.86067 0
M  V30 10018 H 943.175 3.39529 5.60714 0
M  V30 10019 H 942.695 1.68912 5.75525 0
M  V30 10020 H 944.374 2.17885 6.09209 0
M  V30 10021 N 944.506 -1.46559 0.579492 0
M  V30 10022 C 945.754 -2.02 0.0637157 0
M  V30 10023 C 946.075 -1.45378 -1.29962 0
M  V30 10024 O 945.345 -0.637262 -1.85245 0
M  V30 10025 H 943.925 -0.746717 0.0205638 0
M  V30 10026 H 946.587 -1.79702 0.754544 0
M  V30 10027 H 945.683 -3.12099 -0.00770254 0
M  V30 10028 N 945.984 -0.3171 -1.54377 0
M  V30 10029 C 947.395 0.172287 -1.85903 0
M  V30 10030 C 947.746 1.52141 -1.23885 0
M  V30 10031 O 946.871 2.0949 -0.542476 0
M  V30 10032 C 947.466 0.319392 -3.37291 0
M  V30 10033 C 946.025 0.752998 -3.68791 0
M  V30 10034 C 945.172 -0.129143 -2.76999 0
M  V30 10035 H 948.123 -0.537597 -1.49317 0
M  V30 10036 H 948.144 1.15137 -3.62662 0
M  V30 10037 H 947.656 -0.662671 -3.82401 0
M  V30 10038 H 945.757 1.74504 -3.2921 0
M  V30 10039 H 945.87 0.561228 -4.75801 0
M  V30 10040 H 944.234 0.394242 -2.5163 0
M  V30 10041 H 945.017 -1.10785 -3.24933 0
M  V30 10042 N 947.462 1.57535 -0.0451378 0
M  V30 10043 C 948.372 2.14653 0.946646 0
M  V30 10044 C 949.388 1.10279 1.3459 0
M  V30 10045 O 950.564 1.42417 1.42405 0
M  V30 10046 C 947.629 2.67533 2.20515 0
M  V30 10047 C 946.69 3.86682 1.86481 0
M  V30 10048 C 945.923 4.37031 3.06332 0
M  V30 10049 O 946.146 3.86481 4.1951 0
M  V30 10050 O 945.08 5.28691 2.87697 0
M  V30 10051 H 948.906 2.99706 0.49091 0
M  V30 10052 H 946.491 1.48355 0.17641 0
M  V30 10053 H 948.373 3.01542 2.94365 0
M  V30 10054 H 947.048 1.85554 2.65238 0
M  V30 10055 H 945.955 3.57573 1.09966 0
M  V30 10056 H 947.288 4.69873 1.46562 0
M  V30 10057 N 948.94 -0.228186 1.55939 0
M  V30 10058 C 949.888 -1.30239 1.92719 0
M  V30 10059 C 950.882 -1.48865 0.808424 0
M  V30 10060 O 952.088 -1.50118 0.993204 0
M  V30 10061 H 948.463 -0.436509 0.612343 0
M  V30 10062 H 950.434 -0.964965 2.82367 0
M  V30 10063 C 949.183 -2.647 2.25453 0
M  V30 10064 H 948.506 -2.51173 3.1105 0
M  V30 10065 H 949.946 -3.38691 2.55077 0
M  V30 10066 C 948.405 -3.1921 1.07734 0
M  V30 10067 O 948.935 -4.00301 0.335019 0
M  V30 10068 N 947.141 -2.77492 0.862938 0
M  V30 10069 H 946.688 -2.11657 1.4683 0
M  V30 10070 H 946.646 -3.14306 0.0770119 0
M  V30 10071 N 950.418 -1.49637 -0.494624 0
M  V30 10072 C 951.829 -1.52573 -1.07603 0
M  V30 10073 C 952.18 -0.315591 -1.93645 0
M  V30 10074 O 951.305 0.573966 -2.08649 0
M  V30 10075 C 951.9 -2.7648 -1.95817 0
M  V30 10076 C 950.459 -2.82173 -2.49109 0
M  V30 10077 C 949.606 -2.4657 -1.2688 0
M  V30 10078 H 952.557 -1.56242 -0.278251 0
M  V30 10079 H 952.578 -2.57003 -2.80588 0
M  V30 10080 H 952.09 -3.64538 -1.33167 0
M  V30 10081 H 950.191 -1.9841 -3.15379 0
M  V30 10082 H 950.304 -3.84501 -2.85825 0
M  V30 10083 H 948.668 -1.98489 -1.59607 0
M  V30 10084 H 949.451 -3.3691 -0.659281 0
M  V30 10085 N 951.896 0.746133 -1.38819 0
M  V30 10086 C 953.126 1.53316 -1.38484 0
M  V30 10087 C 953.534 1.89183 0.0253332 0
M  V30 10088 O 952.877 1.5382 1.00424 0
M  V30 10089 C 952.939 2.85623 -2.18311 0
M  V30 10090 C 952.603 2.72253 -3.67052 0
M  V30 10091 C 953.6 2.41547 -4.60381 0
M  V30 10092 C 951.285 2.89472 -4.10501 0
M  V30 10093 C 953.279 2.28226 -5.9514 0
M  V30 10094 C 950.966 2.7577 -5.45338 0
M  V30 10095 C 951.964 2.45191 -6.37472 0
M  V30 10096 O 951.652 2.31561 -7.69828 0
M  V30 10097 H 951.384 0.480763 -0.475229 0
M  V30 10098 H 953.938 0.93057 -1.83111 0
M  V30 10099 H 952.168 3.481 -1.68414 0
M  V30 10100 H 953.857 3.47178 -2.10291 0
M  V30 10101 H 954.623 2.27905 -4.28117 0
M  V30 10102 H 950.502 3.12269 -3.3913 0
M  V30 10103 H 954.046 2.04279 -6.6702 0
M  V30 10104 H 949.943 2.88987 -5.77197 0
M  V30 10105 H 950.711 2.46716 -7.80432 0
M  V30 10106 N 953.375 1.23811 0.975125 0
M  V30 10107 C 954.323 1.02149 2.0897 0
M  V30 10108 C 955.317 -0.0412172 1.6935 0
M  V30 10109 O 956.523 0.112726 1.79647 0
M  V30 10110 H 952.898 0.313259 0.683647 0
M  V30 10111 H 954.869 1.96686 2.24404 0
M  V30 10112 C 953.618 0.635023 3.41852 0
M  V30 10113 H 952.941 1.44449 3.72793 0
M  V30 10114 H 954.381 0.52301 4.20762 0
M  V30 10115 C 952.84 -0.657207 3.30428 0
M  V30 10116 O 953.37 -1.70494 3.63723 0
M  V30 10117 N 951.576 -0.635122 2.83575 0
M  V30 10118 H 951.123 0.21784 2.56677 0
M  V30 10119 H 951.081 -1.49995 2.76313 0
M  V30 10120 N 954.853 -1.17469 1.05066 0
M  V30 10121 C 956.081 -1.9162 0.780334 0
M  V30 10122 C 956.496 -1.76745 -0.663817 0
M  V30 10123 O 955.853 -1.10377 -1.45338 0
M  V30 10124 C 955.904 -3.42723 1.14992 0
M  V30 10125 O 955.625 -3.57139 2.53739 0
M  V30 10126 C 957.126 -4.33952 0.905549 0
M  V30 10127 H 954.346 -0.608022 0.283814 0
M  V30 10128 H 956.89 -1.4897 1.401 0
M  V30 10129 H 955.045 -3.83124 0.57403 0
M  V30 10130 H 955.459 -4.5075 2.68189 0
M  V30 10131 H 956.933 -5.38487 1.21391 0
M  V30 10132 H 957.41 -4.38911 -0.159295 0
M  V30 10133 H 958.016 -3.99263 1.46522 0
M  V30 10134 N 956.331 -0.831506 -1.3388 0
M  V30 10135 C 957.742 -0.481375 -1.80388 0
M  V30 10136 C 958.093 0.998993 -1.68863 0
M  V30 10137 O 957.218 1.77795 -1.2336 0
M  V30 10138 C 957.813 -0.86699 -3.27519 0
M  V30 10139 C 956.372 -0.569105 -3.72073 0
M  V30 10140 C 955.519 -1.07929 -2.55434 0
M  V30 10141 H 958.47 -1.02089 -1.21505 0
M  V30 10142 H 958.491 -0.174128 -3.80101 0
M  V30 10143 H 958.003 -1.94447 -3.35875 0
M  V30 10144 H 956.104 0.498607 -3.69249 0
M  V30 10145 H 956.217 -1.11918 -4.65845 0
M  V30 10146 H 954.581 -0.500465 -2.49735 0
M  V30 10147 H 955.364 -2.16339 -2.66556 0
M  V30 10148 N 957.809 1.4625 -0.587256 0
M  V30 10149 C 959.055 2.02662 -0.0746851 0
M  V30 10150 C 959.388 1.45723 1.28368 0
M  V30 10151 O 958.663 0.624062 1.84216 0
M  V30 10152 C 958.946 3.60097 -0.0138109 0
M  V30 10153 C 958.799 4.27412 -1.4014 0
M  V30 10154 C 960.118 4.34744 0.684491 0
M  V30 10155 H 957.237 0.736444 -0.0286144 0
M  V30 10156 H 959.879 1.74341 -0.755328 0
M  V30 10157 H 958.029 3.84357 0.56583 0
M  V30 10158 H 959.701 4.14401 -2.02656 0
M  V30 10159 H 957.944 3.86598 -1.96785 0
M  V30 10160 H 958.615 5.362 -1.31124 0
M  V30 10161 H 961.091 4.15657 0.192023 0
M  V30 10162 H 959.967 5.44468 0.696127 0
M  V30 10163 H 960.228 4.06132 1.74669 0
M  V30 10164 N 959.287 0.325282 1.54207 0
M  V30 10165 C 960.534 -0.276775 2.006 0
M  V30 10166 C 960.862 -1.52007 1.21343 0
M  V30 10167 O 960.117 -1.93627 0.284104 0
M  V30 10168 C 960.416 -0.654292 3.5136 0
M  V30 10169 C 960.082 0.490023 4.48229 0
M  V30 10170 C 958.744 0.804104 4.74434 0
M  V30 10171 C 961.096 1.2586 5.05775 0
M  V30 10172 C 958.424 1.88945 5.55443 0
M  V30 10173 C 960.776 2.33405 5.87967 0
M  V30 10174 C 959.44 2.65393 6.12473 0
M  V30 10175 H 958.71 -0.101279 0.734046 0
M  V30 10176 H 961.357 0.449416 1.86152 0
M  V30 10177 H 959.662 -1.46093 3.63544 0
M  V30 10178 H 961.359 -1.13171 3.84699 0
M  V30 10179 H 957.949 0.235147 4.27954 0
M  V30 10180 H 962.133 1.02921 4.85511 0
M  V30 10181 H 957.389 2.14174 5.7266 0
M  V30 10182 H 961.563 2.93402 6.31576 0
M  V30 10183 H 959.19 3.49622 6.75032 0
M  V30 10184 N 960.765 -1.57509 0.0534917 0
M  V30 10185 C 961.728 -2.10563 -0.905307 0
M  V30 10186 C 962.728 -1.02571 -1.23838 0
M  V30 10187 O 963.918 -1.28635 -1.17468 0
M  V30 10188 C 961.05 -2.5918 -2.21447 0
M  V30 10189 H 962.243 -2.96575 -0.445354 0
M  V30 10190 H 959.796 -1.55079 -0.194947 0
M  V30 10191 H 960.531 -1.76568 -2.72019 0
M  V30 10192 H 960.316 -3.38098 -1.98575 0
M  V30 10193 H 961.806 -3.00365 -2.90122 0
M  V30 10194 N 962.243 0.219913 -1.56058 0
M  V30 10195 C 963.492 0.942119 -1.78345 0
M  V30 10196 C 963.805 1.85435 -0.622344 0
M  V30 10197 O 965.011 2.61533 -0.728886 0
M  V30 10198 C 963.467 1.72544 -3.15843 0
M  V30 10199 C 963.075 0.859263 -4.39682 0
M  V30 10200 C 964.819 2.43876 -3.47455 0
M  V30 10201 C 962.726 1.64003 -5.68205 0
M  V30 10202 H 961.656 0.355514 -0.664925 0
M  V30 10203 H 964.307 0.195963 -1.82451 0
M  V30 10204 H 962.689 2.51456 -3.05918 0
M  V30 10205 H 963.863 0.110562 -4.60667 0
M  V30 10206 H 962.178 0.257985 -4.156 0
M  V30 10207 H 964.775 3.02794 -4.40704 0
M  V30 10208 H 965.118 3.16843 -2.7003 0
M  V30 10209 H 965.651 1.71952 -3.58716 0
M  V30 10210 H 962.39 0.953606 -6.48526 0
M  V30 10211 H 961.91 2.3633 -5.51279 0
M  V30 10212 H 963.589 2.20028 -6.08438 0
M  V30 10213 N 963.721 1.49897 0.486681 0
M  V30 10214 C 964.668 1.67619 1.58658 0
M  V30 10215 C 965.638 0.517537 1.57831 0
M  V30 10216 O 966.823 0.746272 1.756 0
M  V30 10217 C 963.963 1.762 2.96728 0
M  V30 10218 C 963.076 3.03465 3.07462 0
M  V30 10219 C 962.211 3.02937 4.36351 0
M  V30 10220 C 961.25 4.24721 4.4077 0
M  V30 10221 N 960.387 4.22021 5.61108 0
M  V30 10222 H 965.227 2.61528 1.42853 0
M  V30 10223 H 962.764 1.29657 0.694807 0
M  V30 10224 H 964.722 1.79156 3.76774 0
M  V30 10225 H 963.352 0.857452 3.11203 0
M  V30 10226 H 962.404 3.10054 2.20387 0
M  V30 10227 H 963.716 3.93454 3.06586 0
M  V30 10228 H 962.87 3.04536 5.24731 0
M  V30 10229 H 961.609 2.10751 4.39813 0
M  V30 10230 H 960.614 4.23352 3.5079 0
M  V30 10231 H 961.839 5.18116 4.39013 0
M  V30 10232 H 959.785 3.3268 5.65385 0
M  V30 10233 H 959.702 5.05761 5.61909 0
M  V30 10234 H 960.97 4.27743 6.51656 0
M  V30 10235 N 965.199 -0.738761 1.39212 0
M  V30 10236 C 966.146 -1.85273 1.37631 0
M  V30 10237 C 967.116 -1.64407 0.236572 0
M  V30 10238 O 968.301 -1.85866 0.431104 0
M  V30 10239 C 965.441 -3.22745 1.22188 0
M  V30 10240 C 964.554 -3.55342 2.45674 0
M  V30 10241 C 963.689 -4.82195 2.22847 0
M  V30 10242 C 962.728 -5.07625 3.42029 0
M  V30 10243 N 961.865 -6.25679 3.18543 0
M  V30 10244 H 966.705 -1.85959 2.32859 0
M  V30 10245 H 964.242 -0.908716 1.15675 0
M  V30 10246 H 966.2 -4.02095 1.11245 0
M  V30 10247 H 964.83 -3.21347 0.30592 0
M  V30 10248 H 963.882 -2.70722 2.67233 0
M  V30 10249 H 965.194 -3.70054 3.34457 0
M  V30 10250 H 964.348 -5.69518 2.09126 0
M  V30 10251 H 963.087 -4.6965 1.31454 0
M  V30 10252 H 962.092 -4.18765 3.56253 0
M  V30 10253 H 963.317 -5.22058 4.34319 0
M  V30 10254 H 961.263 -6.14429 2.2981 0
M  V30 10255 H 961.18 -6.40961 4.0088 0
M  V30 10256 H 962.448 -7.15851 3.08508 0
M  V30 10257 N 966.677 -1.24326 -0.968545 0
M  V30 10258 C 967.624 -1.0349 -2.06297 0
M  V30 10259 C 968.594 0.0515333 -1.6602 0
M  V30 10260 O 969.779 -0.102924 -1.90522 0
M  V30 10261 C 966.919 -0.64487 -3.39021 0
M  V30 10262 C 966.032 -1.80469 -3.92498 0
M  V30 10263 C 965.167 -1.36032 -5.13487 0
M  V30 10264 C 964.206 -2.49014 -5.59159 0
M  V30 10265 N 963.343 -2.05451 -6.71367 0
M  V30 10266 H 968.183 -1.97161 -2.23454 0
M  V30 10267 H 965.72 -0.982028 -1.0952 0
M  V30 10268 H 967.678 -0.399771 -4.1528 0
M  V30 10269 H 966.308 0.254845 -3.21792 0
M  V30 10270 H 965.36 -2.16348 -3.12886 0
M  V30 10271 H 966.672 -2.65365 -4.22354 0
M  V30 10272 H 965.826 -1.07405 -5.97117 0
M  V30 10273 H 964.565 -0.481887 -4.85313 0
M  V30 10274 H 963.57 -2.78402 -4.74102 0
M  V30 10275 H 964.795 -3.37413 -5.89346 0
M  V30 10276 H 962.741 -1.20004 -6.4493 0
M  V30 10277 H 962.658 -2.83901 -7.00668 0
M  V30 10278 H 963.926 -1.79962 -7.58442 0
M  V30 10279 N 968.156 1.1691 -1.05688 0
M  V30 10280 C 969.433 1.83266 -0.683601 0
M  V30 10281 C 969.813 1.93858 0.835602 0
M  V30 10282 O 969.161 1.47696 1.7435 0
M  V30 10283 C 969.371 3.20625 -1.37842 0
M  V30 10284 C 970.719 3.96473 -1.51967 0
M  V30 10285 O 971.743 3.30122 -1.33783 0
M  V30 10286 O 970.602 5.15393 -1.81749 0
M  V30 10287 H 967.696 0.791028 -0.241254 0
M  V30 10288 H 970.242 1.24165 -1.15677 0
M  V30 10289 H 969.014 3.07914 -2.41463 0
M  V30 10290 H 968.637 3.87398 -0.894921 0
M  V30 10291 N 969.634 0.838594 1.33437 0
M  V30 10292 C 970.859 0.446701 2.02532 0
M  V30 10293 C 971.284 -0.944275 1.62681 0
M  V30 10294 O 970.642 -1.61733 0.81927 0
M  V30 10295 C 970.69 0.574794 3.55989 0
M  V30 10296 O 969.794 -0.399063 4.10465 0
M  V30 10297 H 969.135 0.181637 0.638674 0
M  V30 10298 H 971.665 1.13335 1.70342 0
M  V30 10299 H 971.675 0.456339 4.0544 0
M  V30 10300 H 970.35 1.58921 3.8434 0
M  V30 10301 H 968.927 -0.238187 3.72139 0
M  V30 10302 N 971.112 -1.45937 0.595003 0
M  V30 10303 C 972.34 -2.06698 0.091293 0
M  V30 10304 C 972.755 -1.44176 -1.21897 0
M  V30 10305 O 972.112 -0.551402 -1.73971 0
M  V30 10306 C 972.163 -3.61436 -0.0681801 0
M  V30 10307 O 971.884 -4.21622 1.19023 0
M  V30 10308 C 973.385 -4.39155 -0.604814 0
M  V30 10309 H 970.605 -0.668029 0.0630737 0
M  V30 10310 H 973.149 -1.87376 0.819165 0
M  V30 10311 H 971.304 -3.80143 -0.746324 0
M  V30 10312 H 971.718 -5.14647 1.01187 0
M  V30 10313 H 973.192 -5.47973 -0.665532 0
M  V30 10314 H 973.669 -4.08055 -1.62444 0
M  V30 10315 H 974.275 -4.25282 0.0388658 0
M  V30 10316 N 972.59 -0.333456 -1.54032 0
M  V30 10317 C 973.537 0.527981 -2.2468 0
M  V30 10318 C 974.507 1.10371 -1.24127 0
M  V30 10319 O 975.692 1.14221 -1.52834 0
M  V30 10320 C 972.832 1.67808 -3.01553 0
M  V30 10321 C 971.945 1.13064 -4.16942 0
M  V30 10322 C 971.08 2.24722 -4.81325 0
M  V30 10323 C 970.119 1.67277 -5.88799 0
M  V30 10324 N 969.256 2.72638 -6.47003 0
M  V30 10325 H 974.096 -0.0810308 -2.9789 0
M  V30 10326 H 971.633 -0.051761 -1.47009 0
M  V30 10327 H 973.591 2.35502 -3.44376 0
M  V30 10328 H 972.221 2.25823 -2.30659 0
M  V30 10329 H 971.273 0.344948 -3.78833 0
M  V30 10330 H 972.585 0.670373 -4.94275 0
M  V30 10331 H 971.739 3.00301 -5.27166 0
M  V30 10332 H 970.478 2.74089 -4.03394 0
M  V30 10333 H 969.483 0.902002 -5.4235 0
M  V30 10334 H 970.708 1.18775 -6.68632 0
M  V30 10335 H 968.654 3.21277 -5.71941 0
M  V30 10336 H 968.571 2.31204 -7.19778 0
M  V30 10337 H 969.839 3.48015 -6.97499 0
M  V30 10338 N 974.068 1.57479 -0.061844 0
M  V30 10339 C 975.314 1.9421 0.604485 0
M  V30 10340 C 975.669 0.941011 1.67818 0
M  V30 10341 O 974.962 -0.0382264 1.91562 0
M  V30 10342 C 975.156 3.35394 1.23474 0
M  V30 10343 C 974.985 4.49144 0.223628 0
M  V30 10344 C 973.755 5.04949 -0.188187 0
M  V30 10345 C 975.953 5.11508 -0.535193 0
M  V30 10346 N 973.935 6.02235 -1.19105 0
M  V30 10347 C 975.306 6.04199 -1.39082 0
M  V30 10348 C 977.361 4.94364 -0.592346 0
M  V30 10349 C 976.064 6.81587 -2.2985 0
M  V30 10350 C 978.09 5.72388 -1.48749 0
M  V30 10351 C 977.452 6.6472 -2.33082 0
M  V30 10352 H 973.551 0.757931 0.192522 0
M  V30 10353 H 976.135 1.9422 -0.136667 0
M  V30 10354 H 974.306 3.36141 1.94587 0
M  V30 10355 H 976.038 3.59387 1.86073 0
M  V30 10356 H 972.793 4.73207 0.192933 0
M  V30 10357 H 973.217 6.55575 -1.68969 0
M  V30 10358 H 977.859 4.22776 0.045445 0
M  V30 10359 H 975.577 7.5246 -2.94669 0
M  V30 10360 H 979.163 5.61146 -1.53642 0
M  V30 10361 H 978.043 7.2404 -3.01225 0
M  V30 10362 N 975.546 -0.211634 1.56173 0
M  V30 10363 C 976.962 -0.56177 1.49386 0
M  V30 10364 C 977.162 -1.86666 0.758813 0
M  V30 10365 O 976.218 -2.50681 0.302534 0
M  V30 10366 C 977.531 -0.631815 2.93987 0
M  V30 10367 C 979.079 -0.721773 3.04564 0
M  V30 10368 C 979.554 -0.823075 4.50544 0
M  V30 10369 N 981.045 -0.887038 4.54627 0
M  V30 10370 C 981.78 -0.985304 5.64871 0
M  V30 10371 N 981.276 -1.0469 6.84844 0
M  V30 10372 N 983.069 -1.02121 5.52746 0
M  V30 10373 H 975.22 0.64452 2.02385 0
M  V30 10374 H 977.483 0.227466 0.920306 0
M  V30 10375 H 977.189 0.257592 3.50755 0
M  V30 10376 H 977.063 -1.4921 3.46433 0
M  V30 10377 H 979.45 -1.60162 2.47855 0
M  V30 10378 H 979.531 0.164385 2.55271 0
M  V30 10379 H 979.175 0.0523511 5.07873 0
M  V30 10380 H 979.105 -1.72479 4.97552 0
M  V30 10381 H 981.596 -0.849352 3.68231 0
M  V30 10382 H 981.909 -1.12193 7.64613 0
M  V30 10383 H 980.254 -1.01586 6.87536 0
M  V30 10384 H 983.445 -0.969814 4.57943 0
M  V30 10385 H 983.618 -1.09434 6.38693 0
M  V30 10386 N 977.024 -1.50153 -0.478725 0
M  V30 10387 C 977.971 -1.68458 -1.57767 0
M  V30 10388 C 978.941 -0.5259 -1.57555 0
M  V30 10389 O 980.126 -0.755574 -1.75202 0
M  V30 10390 C 977.266 -1.77772 -2.95789 0
M  V30 10391 C 976.379 -3.05092 -3.05848 0
M  V30 10392 C 975.514 -3.05247 -4.34739 0
M  V30 10393 C 974.553 -4.27053 -4.38512 0
M  V30 10394 N 973.69 -4.24991 -5.58862 0
M  V30 10395 H 978.53 -2.62282 -1.41464 0
M  V30 10396 H 976.067 -1.30023 -0.687921 0
M  V30 10397 H 978.025 -1.81152 -3.75819 0
M  V30 10398 H 976.655 -0.873944 -3.10744 0
M  V30 10399 H 975.707 -3.11219 -2.1874 0
M  V30 10400 H 977.019 -3.95075 -3.04495 0
M  V30 10401 H 976.173 -3.07314 -5.23109 0
M  V30 10402 H 974.912 -2.13081 -4.38689 0
M  V30 10403 H 973.917 -4.25206 -3.4854 0
M  V30 10404 H 975.142 -5.20437 -4.36259 0
M  V30 10405 H 973.088 -3.35674 -5.63612 0
M  V30 10406 H 973.005 -5.08734 -5.59219 0
M  V30 10407 H 974.273 -4.31193 -6.49379 0
M  V30 10408 N 978.502 0.731368 -1.39602 0
M  V30 10409 C 979.432 1.85855 -1.41351 0
M  V30 10410 C 980.413 1.67839 -0.2764 0
M  V30 10411 O 981.598 1.88104 -0.482747 0
M  V30 10412 C 978.728 3.23644 -1.25983 0
M  V30 10413 C 977.682 3.56304 -2.37132 0
M  V30 10414 C 977.008 4.93069 -2.0685 0
M  V30 10415 C 978.308 3.58906 -3.79452 0
M  V30 10416 H 980.002 1.84648 -2.3568 0
M  V30 10417 H 977.548 0.886955 -1.13442 0
M  V30 10418 H 979.501 4.02176 -1.25826 0
M  V30 10419 H 978.225 3.25387 -0.281234 0
M  V30 10420 H 976.884 2.80104 -2.36511 0
M  V30 10421 H 976.532 4.91396 -1.0742 0
M  V30 10422 H 976.232 5.15888 -2.81306 0
M  V30 10423 H 977.756 5.73953 -2.0835 0
M  V30 10424 H 979.17 4.27508 -3.81982 0
M  V30 10425 H 977.567 3.93246 -4.53297 0
M  V30 10426 H 978.637 2.58631 -4.10168 0
M  V30 10427 N 979.98 1.24838 0.961938 0
M  V30 10428 C 981.226 1.09313 1.70817 0
M  V30 10429 C 981.559 -0.366244 1.90715 0
M  V30 10430 O 980.834 -1.27036 1.47282 0
M  V30 10431 C 981.117 1.83988 3.09549 0
M  V30 10432 C 980.97 3.3771 2.97106 0
M  V30 10433 C 982.289 1.61718 4.09311 0
M  V30 10434 H 979.408 0.398498 0.619974 0
M  V30 10435 H 982.05 1.53579 1.11864 0
M  V30 10436 H 980.2 1.46363 3.59875 0
M  V30 10437 H 981.872 3.84967 2.54161 0
M  V30 10438 H 980.115 3.65795 2.33187 0
M  V30 10439 H 980.786 3.85166 3.95412 0
M  V30 10440 H 983.262 1.94458 3.67866 0
M  V30 10441 H 982.138 2.16415 5.04436 0
M  V30 10442 H 982.399 0.55677 4.3858 0
M  V30 10443 N 981.458 -1.16348 1.06306 0
M  V30 10444 C 982.735 -1.829 0.69331 0
M  V30 10445 C 983.115 -1.94298 -0.82531 0
M  V30 10446 O 982.463 -1.48619 -1.73565 0
M  V30 10447 C 982.673 -3.1989 1.3954 0
M  V30 10448 C 984.021 -3.95662 1.54068 0
M  V30 10449 O 985.045 -3.29408 1.35532 0
M  V30 10450 O 983.904 -5.14422 1.84479 0
M  V30 10451 H 980.998 -0.789738 0.245445 0
M  V30 10452 H 983.544 -1.23549 1.16334 0
M  V30 10453 H 982.316 -3.06629 2.43093 0
M  V30 10454 H 981.939 -3.86918 0.915453 0
M  V30 10455 N 982.937 -0.845659 -1.3299 0
M  V30 10456 C 984.184 -0.444653 -1.97558 0
M  V30 10457 C 984.512 0.997682 -1.66963 0
M  V30 10458 O 983.767 1.71349 -0.94541 0
M  V30 10459 C 984.066 -0.6201 -3.51979 0
M  V30 10460 C 983.732 -2.03155 -4.02541 0
M  V30 10461 C 982.394 -2.4176 -4.16059 0
M  V30 10462 C 984.746 -2.95317 -4.29462 0
M  V30 10463 C 982.074 -3.71818 -4.53837 0
M  V30 10464 C 984.426 -4.24863 -4.68694 0
M  V30 10465 C 983.09 -4.63416 -4.80419 0
M  V30 10466 H 982.36 -0.16271 -0.722915 0
M  V30 10467 H 985.007 -1.07399 -1.58549 0
M  V30 10468 H 983.312 0.092513 -3.91691 0
M  V30 10469 H 985.009 -0.290012 -3.9995 0
M  V30 10470 H 981.599 -1.72174 -3.92497 0
M  V30 10471 H 985.783 -2.66726 -4.18534 0
M  V30 10472 H 981.039 -4.01484 -4.61108 0
M  V30 10473 H 985.213 -4.96347 -4.8848 0
M  V30 10474 H 982.84 -5.6424 -5.09448 0
M  V30 10475 N 984.415 1.45619 -0.602734 0
M  V30 10476 C 985.831 1.57368 -0.26599 0
M  V30 10477 C 986.031 1.59485 1.23154 0
M  V30 10478 O 985.087 1.52254 2.01432 0
M  V30 10479 C 986.4 2.85863 -0.932881 0
M  V30 10480 C 987.948 2.9953 -0.908344 0
M  V30 10481 C 988.423 4.30789 -1.55515 0
M  V30 10482 N 989.914 4.37536 -1.52042 0
M  V30 10483 C 990.649 5.37758 -1.99008 0
M  V30 10484 N 990.145 6.44544 -2.54038 0
M  V30 10485 N 991.938 5.29085 -1.89805 0
M  V30 10486 H 984.089 1.42489 -1.57514 0
M  V30 10487 H 986.352 0.680948 -0.659556 0
M  V30 10488 H 986.058 2.90183 -1.98713 0
M  V30 10489 H 985.932 3.74467 -0.453209 0
M  V30 10490 H 988.319 2.9478 0.137344 0
M  V30 10491 H 988.4 2.12349 -1.42623 0
M  V30 10492 H 988.044 4.36297 -2.60014 0
M  V30 10493 H 987.974 5.16778 -1.01232 0
M  V30 10494 H 990.465 3.60972 -1.11837 0
M  V30 10495 H 990.778 7.17258 -2.87682 0
M  V30 10496 H 989.123 6.45308 -2.58075 0
M  V30 10497 H 992.314 4.44566 -1.46556 0
M  V30 10498 H 992.487 6.07043 -2.26722 0
M  V30 10499 N 985.893 0.34162 1.53853 0
M  V30 10500 C 986.803 -0.524555 2.2866 0
M  V30 10501 C 987.819 -1.1136 1.33697 0
M  V30 10502 O 988.995 -1.1297 1.66732 0
M  V30 10503 C 986.06 -1.66065 3.04341 0
M  V30 10504 C 985.121 -1.10158 4.14926 0
M  V30 10505 C 984.354 -2.18353 4.86988 0
M  V30 10506 O 984.577 -3.39038 4.58704 0
M  V30 10507 O 983.511 -1.82756 5.73484 0
M  V30 10508 H 987.337 0.0835014 3.03585 0
M  V30 10509 H 984.922 0.106727 1.49018 0
M  V30 10510 H 986.804 -2.3217 3.51674 0
M  V30 10511 H 985.479 -2.25456 2.32275 0
M  V30 10512 H 984.386 -0.405109 3.719 0
M  V30 10513 H 985.719 -0.552567 4.89088 0
M  V30 10514 N 987.371 -1.57444 0.0701946 0
M  V30 10515 C 988.301 -2.15659 -0.895176 0
M  V30 10516 C 989.282 -1.08321 -1.31151 0
M  V30 10517 O 990.467 -1.36349 -1.38284 0
M  V30 10518 C 987.597 -2.71693 -2.16334 0
M  V30 10519 C 986.551 -3.84183 -1.88645 0
M  V30 10520 C 985.877 -4.26814 -3.22078 0
M  V30 10521 C 987.177 -5.08493 -1.19299 0
M  V30 10522 H 988.871 -2.96576 -0.410217 0
M  V30 10523 H 986.417 -1.42662 -0.195872 0
M  V30 10524 H 988.37 -3.11064 -2.84284 0
M  V30 10525 H 987.094 -1.87994 -2.67069 0
M  V30 10526 H 985.753 -3.45314 -1.23101 0
M  V30 10527 H 985.401 -3.40039 -3.70651 0
M  V30 10528 H 985.101 -5.02642 -3.04344 0
M  V30 10529 H 986.625 -4.68799 -3.91228 0
M  V30 10530 H 988.039 -5.4519 -1.77316 0
M  V30 10531 H 986.436 -5.89588 -1.11828 0
M  V30 10532 H 987.506 -4.84595 -0.171839 0
M  V30 10533 N 988.849 0.203349 -1.56283 0
M  V30 10534 C 989.797 1.27157 -1.94766 0
M  V30 10535 C 990.791 1.4756 -0.832005 0
M  V30 10536 O 991.997 1.48519 -1.01696 0
M  V30 10537 H 988.372 0.426712 -0.61921 0
M  V30 10538 H 990.343 0.919921 -2.83866 0
M  V30 10539 C 989.092 2.6108 -2.29636 0
M  V30 10540 H 988.415 2.46193 -3.15006 0
M  V30 10541 H 989.855 3.34591 -2.60433 0
M  V30 10542 C 988.314 3.17456 -1.12799 0
M  V30 10543 O 988.844 3.99717 -0.398661 0
M  V30 10544 N 987.05 2.76084 -0.906975 0
M  V30 10545 H 986.597 2.09294 -1.50179 0
M  V30 10546 H 986.555 3.14143 -0.127005 0
M  V30 10547 N 990.327 1.50405 0.470755 0
M  V30 10548 C 991.274 1.69293 1.56871 0
M  V30 10549 C 992.244 0.534248 1.57274 0
M  V30 10550 O 993.429 0.764855 1.74799 0
M  V30 10551 C 990.569 1.79338 2.94842 0
M  V30 10552 C 989.682 3.06709 3.04226 0
M  V30 10553 C 988.817 3.07548 4.33114 0
M  V30 10554 C 987.856 4.29372 4.36241 0
M  V30 10555 N 986.993 4.27949 5.56601 0
M  V30 10556 H 991.833 2.63029 1.40071 0
M  V30 10557 H 989.37 1.30386 0.681016 0
M  V30 10558 H 991.328 1.83143 3.74853 0
M  V30 10559 H 989.958 0.890411 3.10277 0
M  V30 10560 H 989.01 3.12374 2.17086 0
M  V30 10561 H 990.322 3.96684 3.02396 0
M  V30 10562 H 989.476 3.10084 5.21472 0
M  V30 10563 H 988.215 2.15404 4.37553 0
M  V30 10564 H 987.22 4.27048 3.4628 0
M  V30 10565 H 988.445 5.22743 4.33493 0
M  V30 10566 H 986.391 3.38658 5.61824 0
M  V30 10567 H 986.308 5.11692 5.56513 0
M  V30 10568 H 987.576 4.34631 6.47083 0
M  V30 10569 N 991.805 -0.723954 1.39988 0
M  V30 10570 C 993.221 -1.03095 1.21834 0
M  V30 10571 C 993.421 -2.01309 0.0876647 0
M  V30 10572 O 992.477 -2.46277 -0.55714 0
M  V30 10573 C 993.79 -1.58267 2.5568 0
M  V30 10574 C 995.338 -1.70293 2.6262 0
M  V30 10575 C 995.813 -2.28872 3.96713 0
M  V30 10576 N 997.304 -2.36269 3.98411 0
M  V30 10577 C 998.039 -2.82557 4.98948 0
M  V30 10578 N 997.535 -3.28661 6.0988 0
M  V30 10579 N 999.328 -2.81866 4.86321 0
M  V30 10580 H 991.479 -0.0727891 2.12275 0
M  V30 10581 H 993.742 -0.0949029 0.943238 0
M  V30 10582 H 993.448 -0.935642 3.39026 0
M  V30 10583 H 993.322 -2.56914 2.76179 0
M  V30 10584 H 995.709 -2.34115 1.7965 0
M  V30 10585 H 995.79 -0.70268 2.45959 0
M  V30 10586 H 995.434 -1.65675 4.80119 0
M  V30 10587 H 995.364 -3.29595 4.107 0
M  V30 10588 H 997.855 -2.03697 3.18302 0
M  V30 10589 H 998.168 -3.62524 6.82493 0
M  V30 10590 H 996.513 -3.26641 6.13458 0
M  V30 10591 H 999.704 -2.45179 3.98754 0
M  V30 10592 H 999.877 -3.17626 5.64817 0
M  V30 10593 N 993.283 -1.25346 -0.955304 0
M  V30 10594 C 994.511 -1.12793 -1.73451 0
M  V30 10595 C 994.926 0.318344 -1.86097 0
M  V30 10596 O 994.283 1.21897 -1.35821 0
M  V30 10597 C 994.334 -1.77603 -3.14864 0
M  V30 10598 O 994.055 -3.16577 -3.02837 0
M  V30 10599 C 995.556 -1.70821 -4.09066 0
M  V30 10600 H 992.776 -0.393457 -0.543537 0
M  V30 10601 H 995.32 -1.65696 -1.19855 0
M  V30 10602 H 993.475 -1.28673 -3.65407 0
M  V30 10603 H 993.889 -3.48433 -3.92039 0
M  V30 10604 H 995.363 -2.2083 -5.05903 0
M  V30 10605 H 995.84 -0.671858 -4.34031 0
M  V30 10606 H 996.446 -2.19237 -3.64438 0
M  V30 10607 N 994.761 1.15782 -1.06922 0
M  V30 10608 C 995.693 2.19978 -0.643604 0
M  V30 10609 C 996.706 1.59981 0.301653 0
M  V30 10610 O 997.895 1.78265 0.0916508 0
M  V30 10611 C 994.995 3.38815 0.0757973 0
M  V30 10612 C 994.168 4.28363 -0.884545 0
M  V30 10613 C 993.227 5.25807 -0.203233 0
M  V30 10614 O 992.253 5.62924 -0.842904 0
M  V30 10615 N 993.455 5.70874 1.05279 0
M  V30 10616 H 996.22 2.57112 -1.53992 0
M  V30 10617 H 993.781 1.30855 -0.953344 0
M  V30 10618 H 995.773 4.01052 0.542151 0
M  V30 10619 H 994.343 3.00133 0.874 0
M  V30 10620 H 993.563 3.63292 -1.53012 0
M  V30 10621 H 994.851 4.85067 -1.53581 0
M  V30 10622 H 994.249 5.42822 1.5925 0
M  V30 10623 H 992.806 6.35171 1.46289 0
M  V30 10624 N 996.239 0.8527 1.3254 0
M  V30 10625 C 997.516 0.376491 1.91942 0
M  V30 10626 C 997.896 -1.13972 1.7769 0
M  V30 10627 O 997.244 -1.96047 1.17379 0
M  V30 10628 C 997.454 0.838694 3.38773 0
M  V30 10629 C 998.802 0.854736 4.15908 0
M  V30 10630 O 999.826 0.783203 3.47483 0
M  V30 10631 O 998.685 0.955207 5.38087 0
M  V30 10632 H 995.779 0.109412 0.81973 0
M  V30 10633 H 998.325 0.93947 1.41322 0
M  V30 10634 H 997.097 1.88179 3.43081 0
M  V30 10635 H 996.72 0.253055 3.96794 0
M  V30 10636 N 997.718 -1.45297 0.610449 0
M  V30 10637 C 998.965 -2.02218 0.106759 0
M  V30 10638 C 999.293 -1.47849 -1.26376 0
M  V30 10639 O 998.548 -0.644402 -1.84786 0
M  V30 10640 C 998.847 -3.57394 0.0205329 0
M  V30 10641 C 998.513 -4.30928 1.32709 0
M  V30 10642 C 997.175 -4.50735 1.68498 0
M  V30 10643 C 999.527 -4.72936 2.19046 0
M  V30 10644 C 996.855 -5.09806 2.90371 0
M  V30 10645 C 999.207 -5.33355 3.40169 0
M  V30 10646 C 997.871 -5.51384 3.76207 0
M  V30 10647 H 997.141 -0.739969 0.039066 0
M  V30 10648 H 999.788 -1.74326 0.792638 0
M  V30 10649 H 998.093 -3.84581 -0.748623 0
M  V30 10650 H 999.79 -3.99144 -0.385386 0
M  V30 10651 H 996.38 -4.15827 1.03854 0
M  V30 10652 H 1000.56 -4.57365 1.92695 0
M  V30 10653 H 995.82 -5.21953 3.18395 0
M  V30 10654 H 999.994 -5.64859 4.07318 0
M  V30 10655 H 997.621 -5.96924 4.70729 0
M  V30 10656 N 999.196 -0.349774 -1.5367 0
M  V30 10657 C 1000.44 0.237837 -2.02005 0
M  V30 10658 C 1000.8 1.477 -1.23298 0
M  V30 10659 O 1000.09 1.8901 -0.313947 0
M  V30 10660 C 1000.28 0.598311 -3.52356 0
M  V30 10661 C 1000.11 -0.604368 -4.4562 0
M  V30 10662 C 998.883 -1.1116 -4.92922 0
M  V30 10663 C 1001.08 -1.46474 -4.93001 0
M  V30 10664 N 999.063 -2.27595 -5.70152 0
M  V30 10665 C 1000.43 -2.47593 -5.68417 0
M  V30 10666 C 1002.49 -1.48947 -4.75099 0
M  V30 10667 C 1001.19 -3.51021 -6.27835 0
M  V30 10668 C 1003.22 -2.51259 -5.35372 0
M  V30 10669 C 1002.58 -3.51103 -6.1066 0
M  V30 10670 H 998.679 0.0501688 -0.780389 0
M  V30 10671 H 1001.26 -0.490748 -1.88414 0
M  V30 10672 H 999.434 1.29599 -3.6614 0
M  V30 10673 H 1001.17 1.16965 -3.87429 0
M  V30 10674 H 997.921 -0.678699 -4.68712 0
M  V30 10675 H 998.345 -2.864 -6.13436 0
M  V30 10676 H 1002.99 -0.731138 -4.1643 0
M  V30 10677 H 1000.7 -4.27745 -6.85609 0
M  V30 10678 H 1004.29 -2.54006 -5.23423 0
M  V30 10679 H 1003.17 -4.28974 -6.56469 0
M  V30 10680 N 1000.67 1.57404 -0.0785433 0
M  V30 10681 C 1001.58 2.16612 0.900902 0
M  V30 10682 C 1002.6 1.13109 1.32221 0
M  V30 10683 O 1003.78 1.45406 1.39352 0
M  V30 10684 C 1000.84 2.7215 2.14791 0
M  V30 10685 C 999.902 3.90551 1.78237 0
M  V30 10686 C 999.135 4.43431 2.96993 0
M  V30 10687 O 999.358 3.95292 4.11218 0
M  V30 10688 O 998.292 5.34674 2.76418 0
M  V30 10689 H 1002.12 3.0068 0.427227 0
M  V30 10690 H 999.703 1.48696 0.144902 0
M  V30 10691 H 1001.58 3.07718 2.87902 0
M  V30 10692 H 1000.26 1.91139 2.61243 0
M  V30 10693 H 999.167 3.59825 1.02357 0
M  V30 10694 H 1000.5 4.72876 1.36562 0
M  V30 10695 N 1002.15 -0.195058 1.56388 0
M  V30 10696 C 1003.4 -0.9168 1.80894 0
M  V30 10697 C 1003.73 -1.82907 0.652592 0
M  V30 10698 O 1003.01 -1.91382 -0.346853 0
M  V30 10699 C 1003.29 -1.733 3.15657 0
M  V30 10700 C 1003.14 -0.845449 4.41783 0
M  V30 10701 C 1004.46 -2.70557 3.47112 0
M  V30 10702 H 1001.58 -0.331861 0.658056 0
M  V30 10703 H 1004.22 -0.184174 1.89105 0
M  V30 10704 H 1002.37 -2.3576 3.08787 0
M  V30 10705 H 1004.04 -0.235557 4.60698 0
M  V30 10706 H 1002.29 -0.152172 4.33533 0
M  V30 10707 H 1002.96 -1.45152 5.32574 0
M  V30 10708 H 1005.43 -2.1823 3.54281 0
M  V30 10709 H 1004.31 -3.24749 4.42526 0
M  V30 10710 H 1004.57 -3.49605 2.70608 0
M  V30 10711 N 1003.63 -1.50653 -0.462772 0
M  V30 10712 C 1004.56 -1.66286 -1.5774 0
M  V30 10713 C 1005.57 -0.544094 -1.53439 0
M  V30 10714 O 1006.76 -0.817566 -1.58676 0
M  V30 10715 C 1003.86 -1.63893 -2.96635 0
M  V30 10716 C 1003.04 -2.91939 -3.25716 0
M  V30 10717 C 1002.1 -2.82076 -4.44206 0
M  V30 10718 O 1001.12 -3.56032 -4.44106 0
M  V30 10719 N 1002.32 -1.96196 -5.4634 0
M  V30 10720 H 1005.09 -2.6243 -1.44742 0
M  V30 10721 H 1002.65 -1.48221 -0.651326 0
M  V30 10722 H 1004.64 -1.54897 -3.73884 0
M  V30 10723 H 1003.21 -0.75449 -3.03358 0
M  V30 10724 H 1002.43 -3.14998 -2.37002 0
M  V30 10725 H 1003.72 -3.7675 -3.4196 0
M  V30 10726 H 1003.12 -1.35439 -5.49247 0
M  V30 10727 H 1001.67 -1.93097 -6.2254 0
M  V30 10728 N 1005.11 0.71652 -1.4037 0
M  V30 10729 C 1006.04 1.84345 -1.43315 0
M  V30 10730 C 1007.02 1.67537 -0.294186 0
M  V30 10731 O 1008.2 1.87582 -0.502671 0
M  V30 10732 C 1005.33 3.2229 -1.29408 0
M  V30 10733 C 1004.29 3.53769 -2.40897 0
M  V30 10734 C 1003.61 4.90847 -2.12068 0
M  V30 10735 C 1004.91 3.54862 -3.83237 0
M  V30 10736 H 1006.61 1.82138 -2.37626 0
M  V30 10737 H 1004.15 0.874873 -1.14376 0
M  V30 10738 H 1006.11 4.00819 -1.30085 0
M  V30 10739 H 1004.83 3.2507 -0.31573 0
M  V30 10740 H 1003.49 2.77579 -2.39469 0
M  V30 10741 H 1003.14 4.90229 -1.12626 0
M  V30 10742 H 1002.84 5.12875 -2.86762 0
M  V30 10743 H 1004.36 5.71711 -2.14426 0
M  V30 10744 H 1005.78 4.23432 -3.86494 0
M  V30 10745 H 1004.17 3.88416 -4.57442 0
M  V30 10746 H 1005.24 2.54266 -4.12888 0
M  V30 10747 N 1006.59 1.25851 0.948643 0
M  V30 10748 C 1007.83 1.10735 1.69062 0
M  V30 10749 C 1008.16 -0.351257 1.9181 0
M  V30 10750 O 1007.43 -1.24867 1.50947 0
M  V30 10751 H 1006.01 0.406796 0.626519 0
M  V30 10752 H 1008.67 1.58066 1.14022 0
M  V30 10753 H 1007.76 1.62033 2.66743 0
M  V30 10754 N 1008.06 -1.15214 1.07534 0
M  V30 10755 C 1009.31 -1.85388 0.794617 0
M  V30 10756 C 1009.63 -1.83331 -0.681838 0
M  V30 10757 O 1010.83 -2.49207 -1.0774 0
M  V30 10758 C 1009.29 -3.32747 1.37141 0
M  V30 10759 C 1008.9 -3.43244 2.87902 0
M  V30 10760 C 1010.64 -4.08093 1.16879 0
M  V30 10761 C 1008.55 -4.84762 3.38763 0
M  V30 10762 H 1007.48 -0.694499 0.293577 0
M  V30 10763 H 1010.13 -1.29944 1.29564 0
M  V30 10764 H 1008.51 -3.87874 0.798121 0
M  V30 10765 H 1009.68 -2.98214 3.51291 0
M  V30 10766 H 1008 -2.81345 3.06975 0
M  V30 10767 H 1010.6 -5.12535 1.52353 0
M  V30 10768 H 1010.94 -4.1616 0.107958 0
M  V30 10769 H 1011.47 -3.59241 1.70854 0
M  V30 10770 H 1008.21 -4.81879 4.4438 0
M  V30 10771 H 1007.73 -5.30366 2.80128 0
M  V30 10772 H 1009.41 -5.53624 3.34827 0
M  V30 10773 N 1009.54 -0.859717 -1.32086 0
M  V30 10774 C 1010.95 -0.519529 -1.79326 0
M  V30 10775 C 1011.3 0.96295 -1.70944 0
M  V30 10776 O 1010.43 1.75139 -1.27104 0
M  V30 10777 C 1011.02 -0.936267 -3.25606 0
M  V30 10778 C 1009.58 -0.647899 -3.70782 0
M  V30 10779 C 1008.73 -1.13323 -2.53087 0
M  V30 10780 H 1011.68 -1.04643 -1.19312 0
M  V30 10781 H 1011.7 -0.254714 -3.79646 0
M  V30 10782 H 1011.21 -2.01527 -3.31675 0
M  V30 10783 H 1009.32 0.420172 -3.70223 0
M  V30 10784 H 1009.43 -1.21774 -4.63366 0
M  V30 10785 H 1007.79 -0.553325 -2.48617 0
M  V30 10786 H 1008.58 -2.21945 -2.61907 0
M  V30 10787 N 1011.02 1.44971 -0.618145 0
M  V30 10788 C 1011.97 2.27704 0.116119 0
M  V30 10789 C 1012.95 1.37927 0.828558 0
M  V30 10790 O 1014.15 1.61836 0.716806 0
M  V30 10791 C 1011.28 3.25004 1.10578 0
M  V30 10792 C 1010.36 4.22269 0.39364 0
M  V30 10793 N 1010.75 5.02571 -0.570581 0
M  V30 10794 C 1009.05 4.41387 0.639809 0
M  V30 10795 C 1009.75 5.73211 -0.990144 0
M  V30 10796 N 1008.73 5.42587 -0.331653 0
M  V30 10797 H 1012.53 2.87193 -0.624295 0
M  V30 10798 H 1010.04 1.56252 -0.442631 0
M  V30 10799 H 1012.04 3.83017 1.64631 0
M  V30 10800 H 1010.7 2.67075 1.84664 0
M  V30 10801 H 1011.71 5.09153 -0.947814 0
M  V30 10802 H 1008.39 3.94572 1.36453 0
M  V30 10803 H 1009.78 6.47728 -1.78601 0
M  V30 10804 N 1012.5 0.357919 1.53482 0
M  V30 10805 C 1013.91 -0.122938 1.86295 0
M  V30 10806 C 1014.26 -1.48803 1.27875 0
M  V30 10807 O 1013.39 -2.07978 0.597828 0
M  V30 10808 C 1013.98 -0.229853 3.38019 0
M  V30 10809 C 1012.54 -0.654955 3.70658 0
M  V30 10810 C 1011.69 0.202539 2.76559 0
M  V30 10811 H 1014.64 0.576997 1.47839 0
M  V30 10812 H 1014.66 -1.05481 3.65587 0
M  V30 10813 H 1014.17 0.763825 3.80509 0
M  V30 10814 H 1012.27 -1.65714 3.33721 0
M  V30 10815 H 1012.38 -0.43488 4.77122 0
M  V30 10816 H 1010.75 -0.327388 2.52587 0
M  V30 10817 H 1011.53 1.19361 3.21882 0
M  V30 10818 N 1013.98 -1.5736 0.0868897 0
M  V30 10819 C 1014.94 -2.12436 -0.860439 0
M  V30 10820 C 1015.94 -1.05175 -1.21634 0
M  V30 10821 O 1017.13 -1.31098 -1.14713 0
M  V30 10822 C 1014.26 -2.63818 -2.159 0
M  V30 10823 H 1015.45 -2.97453 -0.382346 0
M  V30 10824 H 1013.01 -1.55458 -0.162009 0
M  V30 10825 H 1013.74 -1.82298 -2.68212 0
M  V30 10826 H 1013.53 -3.42234 -1.91359 0
M  V30 10827 H 1015.02 -3.06452 -2.83685 0
M  V30 10828 N 1015.45 0.186762 -1.56489 0
M  V30 10829 C 1016.7 0.904063 -1.80752 0
M  V30 10830 C 1017.02 1.83443 -0.661343 0
M  V30 10831 O 1016.29 1.93272 0.319811 0
M  V30 10832 H 1014.87 0.336828 -0.66675 0
M  V30 10833 H 1017.54 0.190275 -1.93969 0
M  V30 10834 H 1016.63 1.49021 -2.74225 0
M  V30 10835 N 1016.93 1.50896 0.454776 0
M  V30 10836 C 1017.86 1.73885 1.5584 0
M  V30 10837 C 1018.84 0.588172 1.59607 0
M  V30 10838 O 1020.03 0.829054 1.75614 0
M  V30 10839 C 1017.16 1.84796 2.94054 0
M  V30 10840 C 1016.11 3.00111 3.05152 0
M  V30 10841 C 1015.44 2.96183 4.45174 0
M  V30 10842 C 1016.74 4.40365 2.80849 0
M  V30 10843 H 1018.43 2.66292 1.36854 0
M  V30 10844 H 1015.98 1.28142 0.656936 0
M  V30 10845 H 1017.93 1.99462 3.71204 0
M  V30 10846 H 1016.66 0.890235 3.14233 0
M  V30 10847 H 1015.31 2.85121 2.30438 0
M  V30 10848 H 1014.96 1.98224 4.62295 0
M  V30 10849 H 1014.66 3.73608 4.53532 0
M  V30 10850 H 1016.19 3.1292 5.24322 0
M  V30 10851 H 1017.6 4.55795 3.47741 0
M  V30 10852 H 1016 5.19363 3.00636 0
M  V30 10853 H 1017.07 4.51606 1.76579 0
M  V30 10854 N 1018.41 -0.709066 1.40748 0
M  V30 10855 C 1019.36 -1.82312 1.4153 0
M  V30 10856 C 1020.33 -1.63868 0.271392 0
M  V30 10857 O 1021.51 -1.8491 0.470431 0
M  V30 10858 C 1018.65 -3.2008 1.29006 0
M  V30 10859 C 1017.77 -3.50051 2.53156 0
M  V30 10860 C 1016.9 -4.7736 2.33025 0
M  V30 10861 C 1015.94 -5.00255 3.52719 0
M  V30 10862 N 1015.08 -6.18782 3.31743 0
M  V30 10863 H 1019.92 -1.80978 2.36751 0
M  V30 10864 H 1017.45 -0.883975 1.17577 0
M  V30 10865 H 1019.41 -3.99645 1.19749 0
M  V30 10866 H 1018.04 -3.20626 0.374014 0
M  V30 10867 H 1017.09 -2.64993 2.72916 0
M  V30 10868 H 1018.41 -3.62877 3.42231 0
M  V30 10869 H 1017.56 -5.64954 2.21159 0
M  V30 10870 H 1016.3 -4.66756 1.41386 0
M  V30 10871 H 1015.3 -4.11114 3.65055 0
M  V30 10872 H 1016.53 -5.12728 4.45295 0
M  V30 10873 H 1014.47 -6.09416 2.42791 0
M  V30 10874 H 1014.39 -6.32313 4.14386 0
M  V30 10875 H 1015.66 -7.09146 3.23623 0
M  V30 10876 N 1019.89 -1.26353 -0.941956 0
M  V30 10877 C 1020.84 -1.07842 -2.04056 0
M  V30 10878 C 1021.81 0.0163064 -1.66092 0
M  V30 10879 O 1022.99 -0.143313 -1.90261 0
M  V30 10880 C 1020.13 -0.716636 -3.37577 0
M  V30 10881 C 1019.24 -1.88754 -3.88582 0
M  V30 10882 C 1018.38 -1.46893 -5.10486 0
M  V30 10883 C 1017.42 -2.60819 -5.53751 0
M  V30 10884 N 1016.56 -2.19646 -6.66858 0
M  V30 10885 H 1021.4 -2.01856 -2.19221 0
M  V30 10886 H 1018.93 -1.00504 -1.07412 0
M  V30 10887 H 1020.89 -0.487768 -4.14339 0
M  V30 10888 H 1019.52 0.18653 -3.22261 0
M  V30 10889 H 1018.57 -2.22936 -3.08227 0
M  V30 10890 H 1019.88 -2.74264 -4.1663 0
M  V30 10891 H 1019.04 -1.20047 -5.94705 0
M  V30 10892 H 1017.78 -0.584721 -4.84182 0
M  V30 10893 H 1016.78 -2.88396 -4.6809 0
M  V30 10894 H 1018.01 -3.49838 -5.82057 0
M  V30 10895 H 1015.95 -1.33657 -6.4224 0
M  V30 10896 H 1015.87 -2.987 -6.94489 0
M  V30 10897 H 1017.14 -1.96009 -7.54454 0
M  V30 10898 N 1021.37 1.14642 -1.08144 0
M  V30 10899 C 1022.31 2.1964 -0.708995 0
M  V30 10900 C 1023.28 1.63303 0.303512 0
M  V30 10901 O 1024.47 1.8987 0.18813 0
M  V30 10902 C 1021.61 3.44886 -0.121585 0
M  V30 10903 C 1020.72 4.15386 -1.18654 0
M  V30 10904 C 1019.86 5.28205 -0.56328 0
M  V30 10905 C 1018.9 5.90534 -1.61046 0
M  V30 10906 N 1018.03 6.94809 -1.00919 0
M  V30 10907 H 1022.87 2.50848 -1.6087 0
M  V30 10908 H 1020.41 1.23185 -0.803975 0
M  V30 10909 H 1022.37 4.16528 0.23668 0
M  V30 10910 H 1021 3.14169 0.741445 0
M  V30 10911 H 1020.05 3.42159 -1.66227 0
M  V30 10912 H 1021.36 4.57809 -1.9802 0
M  V30 10913 H 1020.52 6.06507 -0.153109 0
M  V30 10914 H 1019.26 4.86995 0.262066 0
M  V30 10915 H 1018.26 5.10938 -2.03033 0
M  V30 10916 H 1019.49 6.33819 -2.43824 0
M  V30 10917 H 1017.43 6.5568 -0.204894 0
M  V30 10918 H 1017.35 7.35704 -1.73999 0
M  V30 10919 H 1018.62 7.76992 -0.624792 0
M  V30 10920 N 1022.85 0.866709 1.31628 0
M  V30 10921 C 1023.79 0.318169 2.28596 0
M  V30 10922 C 1024.76 -0.581558 1.55586 0
M  V30 10923 O 1025.95 -0.513895 1.83749 0
M  V30 10924 C 1023.09 -0.477137 3.41786 0
M  V30 10925 C 1022.2 0.449739 4.29653 0
M  V30 10926 C 1021.34 -0.359373 5.29983 0
M  V30 10927 C 1020.37 0.564138 6.09495 0
M  V30 10928 N 1019.51 -0.208526 7.0179 0
M  V30 10929 H 1024.35 1.15029 2.74904 0
M  V30 10930 H 1021.89 0.578649 1.35241 0
M  V30 10931 H 1023.85 -0.953985 4.06146 0
M  V30 10932 H 1022.48 -1.27398 2.96597 0
M  V30 10933 H 1021.53 1.04502 3.65764 0
M  V30 10934 H 1022.84 1.158 4.85172 0
M  V30 10935 H 1021.99 -0.89887 6.00004 0
M  V30 10936 H 1020.73 -1.10094 4.75111 0
M  V30 10937 H 1019.74 1.11542 5.38366 0
M  V30 10938 H 1020.96 1.30451 6.66453 0
M  V30 10939 H 1018.91 -0.932969 6.49332 0
M  V30 10940 H 1018.83 0.440463 7.54716 0
M  V30 10941 H 1020.09 -0.72936 7.7608 0
M  V30 10942 N 1024.32 -1.44642 0.625825 0
M  V30 10943 C 1025.55 -2.06971 0.133373 0
M  V30 10944 C 1025.97 -1.46421 -1.18078 0
M  V30 10945 O 1025.33 -0.563676 -1.72315 0
M  V30 10946 C 1025.38 -3.6059 0.0265097 0
M  V30 10947 O 1024.48 -3.99615 -1.01889 0
M  V30 10948 H 1023.82 -0.658873 0.0823568 0
M  V30 10949 H 1026.35 -1.85601 0.861002 0
M  V30 10950 H 1026.36 -4.07663 -0.1658 0
M  V30 10951 H 1025.04 -4.04043 0.985986 0
M  V30 10952 H 1023.62 -3.64183 -0.801577 0
M  V30 10953 N 1025.8 -0.366053 -1.5329 0
M  V30 10954 C 1027.05 0.223824 -2.01561 0
M  V30 10955 C 1027.38 1.48382 -1.25286 0
M  V30 10956 O 1026.66 1.91385 -0.34669 0
M  V30 10957 C 1026.94 0.5153 -3.56394 0
M  V30 10958 C 1026.79 -0.758357 -4.43361 0
M  V30 10959 C 1028.11 1.31568 -4.19974 0
M  V30 10960 H 1025.23 0.0798751 -0.732659 0
M  V30 10961 H 1027.87 -0.491038 -1.83545 0
M  V30 10962 H 1026.02 1.12429 -3.71876 0
M  V30 10963 H 1027.69 -1.39584 -4.39675 0
M  V30 10964 H 1025.94 -1.37862 -4.11311 0
M  V30 10965 H 1026.61 -0.509366 -5.49645 0
M  V30 10966 H 1029.08 0.800514 -4.08327 0
M  V30 10967 H 1027.96 1.48837 -5.28336 0
M  V30 10968 H 1028.22 2.32432 -3.76069 0
M  V30 10969 N 1027.28 1.57312 -0.0952337 0
M  V30 10970 C 1028.51 1.98697 0.57682 0
M  V30 10971 C 1028.92 0.974347 1.61716 0
M  V30 10972 O 1028.28 -0.036022 1.82464 0
M  V30 10973 C 1028.33 3.40133 1.2244 0
M  V30 10974 O 1028.05 4.37518 0.225678 0
M  V30 10975 C 1029.55 3.96522 1.98205 0
M  V30 10976 H 1026.77 0.65294 0.154629 0
M  V30 10977 H 1029.32 2.03754 -0.174562 0
M  V30 10978 H 1027.47 3.3609 1.92671 0
M  V30 10979 H 1027.89 5.199 0.693116 0
M  V30 10980 H 1029.36 4.97637 2.38875 0
M  V30 10981 H 1029.84 3.34347 2.84796 0
M  V30 10982 H 1030.44 4.04038 1.3279 0
M  V30 10983 N 1028.76 -0.17846 1.56586 0
M  V30 10984 C 1030 -0.897562 1.81856 0
M  V30 10985 C 1030.34 -1.82204 0.671955 0
M  V30 10986 O 1029.61 -1.91739 -0.326535 0
M  V30 10987 C 1029.89 -1.69942 3.17477 0
M  V30 10988 C 1029.75 -0.798545 4.42655 0
M  V30 10989 C 1031.07 -2.66861 3.49962 0
M  V30 10990 H 1028.19 -0.324863 0.661539 0
M  V30 10991 H 1030.83 -0.164106 1.8929 0
M  V30 10992 H 1028.98 -2.32471 3.11271 0
M  V30 10993 H 1030.65 -0.18668 4.60922 0
M  V30 10994 H 1028.89 -0.106181 4.3367 0
M  V30 10995 H 1029.56 -1.39496 5.34083 0
M  V30 10996 H 1032.04 -2.1446 3.56576 0
M  V30 10997 H 1030.92 -3.20037 4.45946 0
M  V30 10998 H 1031.18 -3.46715 2.74301 0
M  V30 10999 N 1030.24 -1.51135 -0.446768 0
M  V30 11000 C 1031.17 -1.74709 -1.54916 0
M  V30 11001 C 1032.15 -0.596628 -1.59293 0
M  V30 11002 O 1033.33 -0.838356 -1.75172 0
M  V30 11003 C 1030.46 -1.86353 -2.9307 0
M  V30 11004 C 1029.42 -3.01725 -3.03556 0
M  V30 11005 C 1028.74 -2.9854 -4.43597 0
M  V30 11006 C 1030.04 -4.41848 -2.7851 0
M  V30 11007 H 1031.74 -2.67014 -1.3544 0
M  V30 11008 H 1029.28 -1.28489 -0.650131 0
M  V30 11009 H 1031.23 -2.01428 -3.70141 0
M  V30 11010 H 1029.96 -0.906887 -3.13756 0
M  V30 11011 H 1028.62 -2.86339 -2.28922 0
M  V30 11012 H 1028.27 -2.00673 -4.61237 0
M  V30 11013 H 1027.97 -3.76008 -4.51544 0
M  V30 11014 H 1029.49 -3.15696 -5.22655 0
M  V30 11015 H 1030.9 -4.57633 -3.45319 0
M  V30 11016 H 1029.3 -5.2095 -2.97877 0
M  V30 11017 H 1030.37 -4.52536 -1.74182 0
M  V30 11018 N 1031.71 0.701592 -1.41122 0
M  V30 11019 C 1032.99 1.45569 -1.30648 0
M  V30 11020 C 1033.37 2.10988 0.068744 0
M  V30 11021 O 1032.72 2.01228 1.08257 0
M  V30 11022 C 1032.93 2.48003 -2.45551 0
M  V30 11023 C 1034.28 3.13431 -2.86437 0
M  V30 11024 O 1035.3 2.58327 -2.45247 0
M  V30 11025 O 1034.16 4.13221 -3.57646 0
M  V30 11026 H 1031.25 0.648 -0.513834 0
M  V30 11027 H 1033.8 0.73258 -1.53073 0
M  V30 11028 H 1032.57 1.98276 -3.37346 0
M  V30 11029 H 1032.19 3.27832 -2.24971 0
M  V30 11030 N 1033.19 1.2685 0.935242 0
M  V30 11031 C 1034.44 1.12912 1.6846 0
M  V30 11032 C 1034.77 -0.325708 1.91449 0
M  V30 11033 O 1034.05 -1.23884 1.49944 0
M  V30 11034 C 1034.33 1.90513 3.05576 0
M  V30 11035 C 1034.18 3.43936 2.89876 0
M  V30 11036 C 1035.5 1.70363 4.05789 0
M  V30 11037 H 1032.62 0.411559 0.611382 0
M  V30 11038 H 1035.26 1.55917 1.08582 0
M  V30 11039 H 1033.41 1.53963 3.5669 0
M  V30 11040 H 1035.08 3.90272 2.45939 0
M  V30 11041 H 1033.33 3.70659 2.25376 0
M  V30 11042 H 1034 3.93467 3.87153 0
M  V30 11043 H 1036.47 2.02217 3.63659 0
M  V30 11044 H 1035.35 2.27066 4.99732 0
M  V30 11045 H 1035.61 0.649674 4.373 0
M  V30 11046 N 1034.67 -1.14067 1.0875 0
M  V30 11047 C 1035.92 -1.84819 0.817698 0
M  V30 11048 C 1036.24 -1.83545 -0.658488 0
M  V30 11049 O 1035.51 -1.28633 -1.47751 0
M  V30 11050 H 1034.09 -0.68433 0.299502 0
M  V30 11051 H 1036.75 -1.38208 1.37421 0
M  V30 11052 H 1035.85 -2.89541 1.16501 0
M  V30 11053 N 1036.15 -0.873678 -1.31166 0
M  V30 11054 C 1037.43 -0.40698 -1.91319 0
M  V30 11055 C 1037.81 1.1113 -1.79481 0
M  V30 11056 O 1037.15 1.94155 -1.20483 0
M  V30 11057 C 1037.36 -0.892484 -3.37396 0
M  V30 11058 C 1038.71 -0.920795 -4.14496 0
M  V30 11059 O 1039.74 -0.838386 -3.46193 0
M  V30 11060 O 1038.59 -1.04069 -5.365 0
M  V30 11061 H 1035.69 -0.122439 -0.817886 0
M  V30 11062 H 1038.23 -0.961835 -1.3981 0
M  V30 11063 H 1037.01 -1.93613 -3.40044 0
M  V30 11064 H 1036.63 -0.31615 -3.96341 0
M  V30 11065 N 1037.63 1.44308 -0.633487 0
M  V30 11066 C 1038.59 2.2912 0.060376 0
M  V30 11067 C 1039.59 1.41166 0.769992 0
M  V30 11068 O 1040.78 1.63012 0.614224 0
M  V30 11069 C 1037.91 3.22798 1.0961 0
M  V30 11070 H 1039.1 2.91958 -0.685617 0
M  V30 11071 H 1036.66 1.51259 -0.393738 0
M  V30 11072 H 1037.39 2.64815 1.87199 0
M  V30 11073 H 1037.18 3.87618 0.591161 0
M  V30 11074 H 1038.67 3.86504 1.58127 0
M  V30 11075 N 1039.1 0.374177 1.53094 0
M  V30 11076 C 1040.33 -0.213015 2.05499 0
M  V30 11077 C 1040.74 -1.42303 1.24686 0
M  V30 11078 O 1040.09 -1.81512 0.282702 0
M  V30 11079 C 1040.15 -0.662308 3.53346 0
M  V30 11080 C 1039.81 0.432183 4.54952 0
M  V30 11081 C 1040.81 1.2848 5.03775 0
M  V30 11082 C 1038.49 0.594887 4.98765 0
M  V30 11083 C 1040.49 2.28538 5.9502 0
M  V30 11084 C 1038.17 1.59882 5.89814 0
M  V30 11085 C 1039.17 2.4425 6.37833 0
M  V30 11086 O 1038.86 3.4293 7.27086 0
M  V30 11087 H 1038.59 -0.0393809 0.674852 0
M  V30 11088 H 1041.15 0.533423 1.98353 0
M  V30 11089 H 1039.38 -1.46049 3.5806 0
M  V30 11090 H 1041.07 -1.17347 3.88567 0
M  V30 11091 H 1041.83 1.17033 4.70668 0
M  V30 11092 H 1037.71 -0.0520401 4.60971 0
M  V30 11093 H 1041.25 2.94426 6.32423 0
M  V30 11094 H 1037.15 1.71373 6.22335 0
M  V30 11095 H 1037.92 3.3876 7.45107 0
M  V30 11096 N 1040.58 -1.57259 0.103575 0
M  V30 11097 C 1041.83 -1.94657 -0.558126 0
M  V30 11098 C 1042.16 -0.985886 -1.67662 0
M  V30 11099 O 1041.41 -0.0069745 -1.95699 0
M  V30 11100 C 1041.71 -3.38549 -1.14538 0
M  V30 11101 C 1041.38 -4.50651 -0.149818 0
M  V30 11102 C 1040.04 -4.8104 0.12398 0
M  V30 11103 C 1042.39 -5.18503 0.529497 0
M  V30 11104 C 1039.72 -5.76606 1.08364 0
M  V30 11105 C 1042.07 -6.15099 1.47769 0
M  V30 11106 C 1040.74 -6.43889 1.75963 0
M  V30 11107 H 1040.01 -0.712299 -0.204233 0
M  V30 11108 H 1042.65 -1.90641 0.181208 0
M  V30 11109 H 1040.96 -3.39185 -1.96115 0
M  V30 11110 H 1042.65 -3.6479 -1.66521 0
M  V30 11111 H 1039.24 -4.2697 -0.373404 0
M  V30 11112 H 1043.43 -4.95194 0.331121 0
M  V30 11113 H 1038.68 -5.97223 1.30899 0
M  V30 11114 H 1042.86 -6.66767 2.00983 0
M  V30 11115 H 1040.49 -7.17749 2.50481 0
M  V30 11116 N 1042.06 0.170153 -1.56679 0
M  V30 11117 C 1043.29 0.90618 -1.86556 0
M  V30 11118 C 1043.71 1.74986 -0.690044 0
M  V30 11119 O 1043.07 1.77672 0.360862 0
M  V30 11120 C 1043.12 1.75777 -3.14857 0
M  V30 11121 O 1042.22 2.85952 -2.97162 0
M  V30 11122 H 1041.56 0.253781 -0.613589 0
M  V30 11123 H 1044.09 0.167943 -2.0391 0
M  V30 11124 H 1044.1 2.15747 -3.46291 0
M  V30 11125 H 1042.78 1.13807 -4.00026 0
M  V30 11126 H 1041.35 2.49557 -2.77084 0
M  V30 11127 N 1043.54 1.5137 0.438746 0
M  V30 11128 C 1044.78 1.64211 1.19006 0
M  V30 11129 C 1045.12 0.356607 1.90898 0
M  V30 11130 O 1044.39 -0.643722 1.83539 0
M  V30 11131 C 1044.68 2.8445 2.20817 0
M  V30 11132 C 1044.53 4.22972 1.53018 0
M  V30 11133 C 1045.85 3.00207 3.21813 0
M  V30 11134 H 1042.97 0.597628 0.431288 0
M  V30 11135 H 1045.61 1.8385 0.479487 0
M  V30 11136 H 1043.76 2.67836 2.81418 0
M  V30 11137 H 1045.43 4.5125 0.957654 0
M  V30 11138 H 1043.67 4.25736 0.832556 0
M  V30 11139 H 1044.34 5.03094 2.27158 0
M  V30 11140 H 1046.82 3.15522 2.71266 0
M  V30 11141 H 1045.7 3.85904 3.90345 0
M  V30 11142 H 1045.96 2.12216 3.87836 0
M  V30 11143 N 1045.02 -0.694098 1.41492 0
M  V30 11144 C 1046.43 -1.27407 1.36471 0
M  V30 11145 C 1046.78 -1.9614 0.0485209 0
M  V30 11146 O 1045.9 -1.98871 -0.853188 0
M  V30 11147 C 1046.5 -2.31698 2.47188 0
M  V30 11148 C 1045.06 -2.85268 2.45559 0
M  V30 11149 C 1044.2 -1.59325 2.2696 0
M  V30 11150 H 1047.16 -0.488756 1.50986 0
M  V30 11151 H 1047.18 -3.1302 2.1633 0
M  V30 11152 H 1046.69 -1.81644 3.42968 0
M  V30 11153 H 1044.79 -3.39494 1.5354 0
M  V30 11154 H 1044.9 -3.35598 3.41922 0
M  V30 11155 H 1043.27 -1.85188 1.74864 0
M  V30 11156 H 1044.05 -1.11265 3.24769 0
M  V30 11157 N 1046.49 -1.27344 -0.928501 0
M  V30 11158 C 1047.42 -1.12517 -2.04602 0
M  V30 11159 C 1048.41 -0.0268563 -1.70079 0
M  V30 11160 O 1049.59 -0.201197 -1.93155 0
M  V30 11161 C 1046.72 -0.770749 -3.3864 0
M  V30 11162 C 1045.67 -1.8222 -3.87272 0
M  V30 11163 C 1045 -1.32178 -5.18105 0
M  V30 11164 C 1046.3 -3.22614 -4.10752 0
M  V30 11165 H 1047.99 -2.06 -2.17265 0
M  V30 11166 H 1045.54 -0.991827 -1.04397 0
M  V30 11167 H 1047.49 -0.653843 -4.16297 0
M  V30 11168 H 1046.22 0.19979 -3.25988 0
M  V30 11169 H 1044.88 -1.928 -3.11807 0
M  V30 11170 H 1044.52 -0.340719 -5.01845 0
M  V30 11171 H 1044.22 -2.02474 -5.51614 0
M  V30 11172 H 1045.75 -1.2178 -5.98333 0
M  V30 11173 H 1047.16 -3.1504 -4.78981 0
M  V30 11174 H 1045.56 -3.90614 -4.55566 0
M  V30 11175 H 1046.63 -3.67727 -3.16077 0
M  V30 11176 N 1047.97 1.13488 -1.09353 0
M  V30 11177 C 1049.25 1.80998 -0.741559 0
M  V30 11178 C 1049.63 1.96418 0.773505 0
M  V30 11179 O 1048.98 1.53168 1.69563 0
M  V30 11180 C 1049.19 3.16078 -1.47972 0
M  V30 11181 C 1050.54 3.91438 -1.64504 0
M  V30 11182 O 1051.56 3.25699 -1.44218 0
M  V30 11183 O 1050.42 5.0935 -1.98054 0
M  V30 11184 H 1047.51 0.782953 -0.266297 0
M  V30 11185 H 1050.06 1.20422 -1.19569 0
M  V30 11186 H 1048.83 3.00076 -2.51137 0
M  V30 11187 H 1048.45 3.84354 -1.01772 0
M  V30 11188 N 1049.45 0.880621 1.30701 0
M  V30 11189 C 1050.4 0.342397 2.28246 0
M  V30 11190 C 1051.37 -0.565023 1.56194 0
M  V30 11191 O 1052.55 -0.494377 1.84284 0
M  V30 11192 C 1049.69 -0.440859 3.42272 0
M  V30 11193 C 1048.81 0.495284 4.29151 0
M  V30 11194 C 1047.94 -0.303141 5.30334 0
M  V30 11195 C 1046.98 0.628751 6.08862 0
M  V30 11196 N 1046.12 -0.13408 7.01972 0
M  V30 11197 H 1050.96 1.17938 2.73669 0
M  V30 11198 H 1048.49 0.59296 1.34619 0
M  V30 11199 H 1050.45 -0.910854 4.07135 0
M  V30 11200 H 1049.08 -1.24245 2.97931 0
M  V30 11201 H 1048.13 1.08376 3.64635 0
M  V30 11202 H 1049.45 1.2094 4.83916 0
M  V30 11203 H 1048.6 -0.835181 6.00924 0
M  V30 11204 H 1047.34 -1.05049 4.76252 0
M  V30 11205 H 1046.34 1.17246 5.37153 0
M  V30 11206 H 1047.57 1.37512 6.65032 0
M  V30 11207 H 1045.52 -0.864046 6.50285 0
M  V30 11208 H 1045.43 0.520486 7.54206 0
M  V30 11209 H 1046.7 -0.647005 7.7681 0
M  V30 11210 N 1050.93 -1.4397 0.641131 0
M  V30 11211 C 1052.21 -1.95436 0.0800918 0
M  V30 11212 C 1052.59 -1.58282 -1.39678 0
M  V30 11213 O 1051.93 -0.861867 -2.11623 0
M  V30 11214 C 1052.14 -3.47589 0.313531 0
M  V30 11215 C 1053.49 -4.2407 0.212034 0
M  V30 11216 O 1054.52 -3.55353 0.245434 0
M  V30 11217 O 1053.38 -5.46356 0.125455 0
M  V30 11218 H 1050.47 -0.826834 -0.0165735 0
M  V30 11219 H 1053.02 -1.5397 0.71353 0
M  V30 11220 H 1051.79 -3.67716 1.33793 0
M  V30 11221 H 1051.41 -3.96025 -0.353563 0
M  V30 11222 N 1052.41 -0.382291 -1.52893 0
M  V30 11223 C 1053.65 0.202133 -2.01489 0
M  V30 11224 C 1053.98 1.47399 -1.26901 0
M  V30 11225 O 1053.24 1.92439 -0.355771 0
M  V30 11226 C 1053.54 0.523437 -3.53546 0
M  V30 11227 C 1053.2 -0.656042 -4.46102 0
M  V30 11228 C 1051.86 -0.979633 -4.71123 0
M  V30 11229 C 1054.22 -1.44545 -5.00756 0
M  V30 11230 C 1051.54 -2.0943 -5.48047 0
M  V30 11231 C 1053.9 -2.55066 -5.78899 0
M  V30 11232 C 1052.56 -2.87942 -6.02201 0
M  V30 11233 H 1051.83 0.0739659 -0.737299 0
M  V30 11234 H 1054.48 -0.518196 -1.84356 0
M  V30 11235 H 1052.78 1.325 -3.68715 0
M  V30 11236 H 1054.48 0.988148 -3.88634 0
M  V30 11237 H 1051.07 -0.393818 -4.26787 0
M  V30 11238 H 1055.25 -1.20869 -4.81357 0
M  V30 11239 H 1050.51 -2.3528 -5.64317 0
M  V30 11240 H 1054.68 -3.1664 -6.20252 0
M  V30 11241 H 1052.31 -3.74435 -6.61591 0
M  V30 11242 N 1053.89 1.57202 -0.111913 0
M  V30 11243 C 1055.3 1.57713 0.244702 0
M  V30 11244 C 1055.5 1.12419 1.67225 0
M  V30 11245 O 1054.56 0.808329 2.39212 0
M  V30 11246 C 1055.87 3.00695 0.0178289 0
M  V30 11247 C 1057.42 3.12887 0.0842781 0
M  V30 11248 C 1057.89 4.57856 -0.114812 0
M  V30 11249 N 1059.38 4.6316 -0.0605423 0
M  V30 11250 C 1060.12 5.73086 -0.189594 0
M  V30 11251 N 1059.62 6.91787 -0.37442 0
M  V30 11252 N 1061.41 5.6195 -0.12967 0
M  V30 11253 H 1053.56 1.84947 -1.04443 0
M  V30 11254 H 1055.82 0.854418 -0.4107 0
M  V30 11255 H 1055.53 3.38093 -0.968802 0
M  V30 11256 H 1055.4 3.69611 0.752815 0
M  V30 11257 H 1057.79 2.7535 1.06143 0
M  V30 11258 H 1057.87 2.46528 -0.682474 0
M  V30 11259 H 1057.51 4.9609 -1.0889 0
M  V30 11260 H 1057.44 5.22297 0.671839 0
M  V30 11261 H 1059.94 3.77817 0.0790856 0
M  V30 11262 H 1060.25 7.71406 -0.463948 0
M  V30 11263 H 1058.59 6.93788 -0.410303 0
M  V30 11264 H 1061.78 4.68098 0.0137115 0
M  V30 11265 H 1061.96 6.47578 -0.233688 0
M  V30 11266 N 1055.36 -0.161842 1.56767 0
M  V30 11267 C 1056.31 -1.2002 1.97139 0
M  V30 11268 C 1057.28 -1.43486 0.836713 0
M  V30 11269 O 1058.47 -1.56069 1.0976 0
M  V30 11270 C 1055.61 -2.53228 2.34456 0
M  V30 11271 C 1054.72 -2.37062 3.61145 0
M  V30 11272 C 1053.85 -3.63202 3.87631 0
M  V30 11273 C 1052.89 -3.42008 5.07638 0
M  V30 11274 N 1052.03 -4.60242 5.30209 0
M  V30 11275 H 1056.87 -0.848918 2.85653 0
M  V30 11276 H 1054.41 -0.407753 1.41336 0
M  V30 11277 H 1056.36 -3.30879 2.54116 0
M  V30 11278 H 1054.99 -2.86333 1.4904 0
M  V30 11279 H 1054.05 -1.50539 3.49345 0
M  V30 11280 H 1055.36 -2.17353 4.48953 0
M  V30 11281 H 1054.51 -4.49285 4.0771 0
M  V30 11282 H 1053.25 -3.85899 2.98216 0
M  V30 11283 H 1052.26 -2.54312 4.87448 0
M  V30 11284 H 1053.48 -3.20724 5.98593 0
M  V30 11285 H 1051.43 -4.8314 4.43747 0
M  V30 11286 H 1051.34 -4.43481 6.12259 0
M  V30 11287 H 1052.61 -5.47581 5.54775 0
M  V30 11288 N 1056.84 -1.516 -0.430713 0
M  V30 11289 C 1058.07 -1.68169 -1.20011 0
M  V30 11290 C 1058.48 -0.381406 -1.85316 0
M  V30 11291 O 1057.82 0.6506 -1.71793 0
M  V30 11292 C 1057.88 -2.7454 -2.32095 0
M  V30 11293 C 1057.55 -4.16942 -1.87104 0
M  V30 11294 C 1058.55 -5.01503 -1.37078 0
M  V30 11295 C 1056.23 -4.63075 -1.94594 0
M  V30 11296 C 1058.22 -6.3026 -0.951362 0
M  V30 11297 C 1055.91 -5.91827 -1.52264 0
M  V30 11298 C 1056.91 -6.75247 -1.02618 0
M  V30 11299 O 1056.6 -8.01591 -0.608905 0
M  V30 11300 H 1056.33 -0.567361 -0.367528 0
M  V30 11301 H 1058.88 -1.98819 -0.515759 0
M  V30 11302 H 1057.11 -2.39219 -3.03828 0
M  V30 11303 H 1058.8 -2.79921 -2.93937 0
M  V30 11304 H 1059.57 -4.67063 -1.30681 0
M  V30 11305 H 1055.45 -3.98262 -2.32182 0
M  V30 11306 H 1058.99 -6.95323 -0.563163 0
M  V30 11307 H 1054.89 -6.2578 -1.58333 0
M  V30 11308 H 1055.66 -8.15201 -0.73416 0
M  V30 11309 N 1058.32 0.686584 -1.41858 0
M  V30 11310 C 1059.55 1.47519 -1.45072 0
M  V30 11311 C 1059.96 1.88709 -0.0585868 0
M  V30 11312 O 1059.32 1.57373 0.924116 0
M  V30 11313 C 1059.37 2.73195 -2.36742 0
M  V30 11314 O 1059.09 2.33736 -3.70539 0
M  V30 11315 C 1060.59 3.66861 -2.48854 0
M  V30 11316 H 1057.81 0.454307 -0.493808 0
M  V30 11317 H 1060.36 0.844612 -1.86243 0
M  V30 11318 H 1058.51 3.32468 -1.98856 0
M  V30 11319 H 1058.93 3.14809 -4.19518 0
M  V30 11320 H 1060.4 4.51801 -3.17143 0
M  V30 11321 H 1060.88 4.11961 -1.52265 0
M  V30 11322 H 1061.48 3.13486 -2.87414 0
M  V30 11323 N 1059.8 1.27835 0.921735 0
M  V30 11324 C 1060.76 1.11108 2.00469 0
M  V30 11325 C 1061.76 0.053203 1.60712 0
M  V30 11326 O 1062.95 0.298308 1.71627 0
M  V30 11327 C 1060.08 0.694269 3.33755 0
M  V30 11328 H 1061.28 2.07279 2.16738 0
M  V30 11329 H 1058.83 1.10708 1.10333 0
M  V30 11330 H 1059.56 -0.268561 3.23186 0
M  V30 11331 H 1059.35 1.45836 3.6397 0
M  V30 11332 H 1060.84 0.59965 4.13272 0
M  V30 11333 N 1061.28 -1.12907 1.09954 0
M  V30 11334 C 1062.52 -1.84306 0.838912 0
M  V30 11335 C 1062.85 -1.83825 -0.635508 0
M  V30 11336 O 1062.11 -1.27556 -1.48418 0
M  V30 11337 C 1062.4 -3.31885 1.32616 0
M  V30 11338 C 1062.07 -3.52542 2.81114 0
M  V30 11339 C 1060.73 -3.57888 3.21667 0
M  V30 11340 C 1063.08 -3.60065 3.76833 0
M  V30 11341 C 1060.41 -3.68296 4.567 0
M  V30 11342 C 1062.76 -3.72001 5.11662 0
M  V30 11343 C 1061.43 -3.75602 5.51797 0
M  V30 11344 H 1060.7 -0.674422 0.30698 0
M  V30 11345 H 1063.35 -1.33261 1.37527 0
M  V30 11346 H 1061.65 -3.85318 0.709719 0
M  V30 11347 H 1063.35 -3.85588 1.10105 0
M  V30 11348 H 1059.94 -3.4904 2.48735 0
M  V30 11349 H 1064.12 -3.55209 3.46612 0
M  V30 11350 H 1059.38 -3.69352 4.87226 0
M  V30 11351 H 1063.55 -3.76765 5.8568 0
M  V30 11352 H 1061.18 -3.83419 6.56425 0
M  V30 11353 N 1062.75 -0.88754 -1.30232 0
M  V30 11354 C 1063.98 -0.522306 -2.00199 0
M  V30 11355 C 1064.4 0.889866 -1.66514 0
M  V30 11356 O 1063.75 1.58558 -0.903639 0
M  V30 11357 C 1063.8 -0.690551 -3.54843 0
M  V30 11358 O 1063.53 -2.04713 -3.8733 0
M  V30 11359 C 1065.03 -0.328649 -4.4208 0
M  V30 11360 H 1062.25 -0.201628 -0.63999 0
M  V30 11361 H 1064.79 -1.19355 -1.66056 0
M  V30 11362 H 1062.95 -0.0666493 -3.87343 0
M  V30 11363 H 1063.36 -2.06762 -4.82027 0
M  V30 11364 H 1064.83 -0.497257 -5.49756 0
M  V30 11365 H 1065.31 0.733502 -4.33032 0
M  V30 11366 H 1065.92 -0.928982 -4.1503 0
M  V30 11367 N 1064.23 1.43628 -0.648757 0
M  V30 11368 C 1065.48 2.01083 -0.157692 0
M  V30 11369 C 1065.79 1.51756 1.23408 0
M  V30 11370 O 1067 2.01455 1.82012 0
M  V30 11371 C 1065.46 3.59157 -0.231118 0
M  V30 11372 C 1065.06 4.17478 -1.6253 0
M  V30 11373 C 1066.81 4.24016 0.202573 0
M  V30 11374 C 1064.72 5.67832 -1.6529 0
M  V30 11375 H 1063.65 0.751977 -0.0551897 0
M  V30 11376 H 1066.3 1.64648 -0.810139 0
M  V30 11377 H 1064.68 3.92972 0.488755 0
M  V30 11378 H 1065.85 3.9517 -2.37017 0
M  V30 11379 H 1064.17 3.64973 -2.00459 0
M  V30 11380 H 1066.76 5.34319 0.20174 0
M  V30 11381 H 1067.11 3.97616 1.23319 0
M  V30 11382 H 1067.64 3.95068 -0.465398 0
M  V30 11383 H 1064.38 5.98994 -2.66246 0
M  V30 11384 H 1063.9 5.92209 -0.951217 0
M  V30 11385 H 1065.58 6.3179 -1.39465 0
M  V30 11386 N 1065.71 0.390394 1.52688 0
M  V30 11387 C 1067.12 -0.083394 1.86514 0
M  V30 11388 C 1067.47 -1.46057 1.31003 0
M  V30 11389 O 1066.6 -2.06663 0.641809 0
M  V30 11390 C 1067.19 -0.158102 3.38431 0
M  V30 11391 C 1065.75 -0.576186 3.71964 0
M  V30 11392 C 1064.9 0.261156 2.76068 0
M  V30 11393 H 1067.85 0.608226 1.46582 0
M  V30 11394 H 1067.87 -0.977023 3.67742 0
M  V30 11395 H 1067.38 0.844365 3.78803 0
M  V30 11396 H 1065.48 -1.58598 3.37161 0
M  V30 11397 H 1065.6 -0.333577 4.77937 0
M  V30 11398 H 1063.96 -0.273737 2.53225 0
M  V30 11399 H 1064.74 1.26162 3.19277 0
M  V30 11400 N 1067.19 -1.57141 0.120249 0
M  V30 11401 C 1068.41 -2.00017 -0.548454 0
M  V30 11402 C 1068.84 -0.999433 -1.59352 0
M  V30 11403 O 1068.2 0.0286978 -1.81277 0
M  V30 11404 C 1068.24 -3.41766 -1.15015 0
M  V30 11405 O 1067.35 -3.44589 -2.26566 0
M  V30 11406 H 1066.69 -0.649739 -0.136875 0
M  V30 11407 H 1069.22 -2.03529 0.209092 0
M  V30 11408 H 1069.23 -3.80001 -1.48537 0
M  V30 11409 H 1067.9 -4.14117 -0.384681 0
M  V30 11410 H 1066.48 -3.18174 -1.94473 0
M  V30 11411 N 1068.67 0.153526 -1.5685 0
M  V30 11412 C 1069.92 0.865628 -1.82181 0
M  V30 11413 C 1070.23 1.82629 -0.700434 0
M  V30 11414 O 1071.43 2.58206 -0.839155 0
M  V30 11415 C 1069.89 1.58993 -3.22877 0
M  V30 11416 C 1069.5 0.672006 -4.42931 0
M  V30 11417 C 1071.24 2.2892 -3.57486 0
M  V30 11418 C 1069.15 1.39755 -5.7465 0
M  V30 11419 H 1068.08 0.326993 -0.679406 0
M  V30 11420 H 1070.73 0.118403 -1.83118 0
M  V30 11421 H 1069.11 2.38255 -3.16308 0
M  V30 11422 H 1070.29 -0.0849226 -4.60722 0
M  V30 11423 H 1068.6 0.0814825 -4.1632 0
M  V30 11424 H 1071.2 2.8383 -4.5315 0
M  V30 11425 H 1071.54 3.05105 -2.83226 0
M  V30 11426 H 1072.07 1.56583 -3.65686 0
M  V30 11427 H 1068.81 0.677686 -6.51987 0
M  V30 11428 H 1068.33 2.12736 -5.60806 0
M  V30 11429 H 1070.01 1.94024 -6.17223 0
M  V30 11430 N 1070.14 1.51827 0.422667 0
M  V30 11431 C 1071.09 1.74791 1.53463 0
M  V30 11432 C 1072.09 0.614602 1.57858 0
M  V30 11433 O 1073.29 0.796336 1.61426 0
M  V30 11434 H 1069.67 0.552524 0.510118 0
M  V30 11435 H 1071.64 2.67974 1.31273 0
M  V30 11436 C 1070.39 1.90339 2.90975 0
M  V30 11437 H 1069.71 2.76958 2.8833 0
M  V30 11438 H 1071.15 2.10413 3.68106 0
M  V30 11439 C 1069.61 0.66695 3.30232 0
M  V30 11440 O 1070.14 -0.171542 4.01334 0
M  V30 11441 N 1068.35 0.506768 2.86147 0
M  V30 11442 H 1067.89 1.19019 2.28456 0
M  V30 11443 H 1067.85 -0.319247 3.12775 0
M  V30 11444 N 1071.62 -0.679052 1.4222 0
M  V30 11445 C 1072.57 -1.81398 1.45594 0
M  V30 11446 C 1073.56 -1.66112 0.332127 0
M  V30 11447 O 1074.77 -1.72772 0.504942 0
M  V30 11448 H 1071.15 -0.598045 0.455902 0
M  V30 11449 H 1073.12 -1.7567 2.41211 0
M  V30 11450 C 1071.87 -3.19525 1.37109 0
M  V30 11451 H 1071.19 -3.31912 2.22878 0
M  V30 11452 H 1072.63 -3.98967 1.43531 0
M  V30 11453 C 1071.09 -3.36792 0.0853593 0
M  V30 11454 O 1071.62 -3.92309 -0.863532 0
M  V30 11455 N 1069.82 -2.906 0.00389229 0
M  V30 11456 H 1069.37 -2.45607 0.776846 0
M  V30 11457 H 1069.33 -3.0253 -0.855742 0
M  V30 11458 N 1073.1 -1.28322 -0.914942 0
M  V30 11459 C 1074.01 -1.13993 -2.05043 0
M  V30 11460 C 1075.03 -0.0667921 -1.73872 0
M  V30 11461 O 1076.2 -0.275845 -1.99502 0
M  V30 11462 C 1073.27 -0.801856 -3.373 0
M  V30 11463 C 1072.33 -1.95723 -3.82088 0
M  V30 11464 C 1071.56 -1.63519 -5.08033 0
M  V30 11465 O 1071.78 -0.54899 -5.67752 0
M  V30 11466 O 1070.72 -2.47844 -5.48504 0
M  V30 11467 H 1074.54 -2.09313 -2.2005 0
M  V30 11468 H 1072.13 -1.0763 -1.03616 0
M  V30 11469 H 1074.01 -0.627214 -4.16706 0
M  V30 11470 H 1072.69 0.121696 -3.23471 0
M  V30 11471 H 1071.59 -2.18702 -3.03514 0
M  V30 11472 H 1072.93 -2.86144 -4.00478 0
M  V30 11473 N 1074.58 1.12322 -1.10551 0
M  V30 11474 C 1075.81 1.87679 -0.87087 0
M  V30 11475 C 1076.22 1.79711 0.578733 0
M  V30 11476 O 1075.58 1.17185 1.39907 0
M  V30 11477 C 1075.63 3.36846 -1.31213 0
M  V30 11478 O 1075.35 3.44626 -2.70489 0
M  V30 11479 C 1076.85 4.29138 -1.11156 0
M  V30 11480 H 1074.07 0.593788 -0.3125 0
M  V30 11481 H 1076.62 1.42116 -1.47048 0
M  V30 11482 H 1074.77 3.79948 -0.756169 0
M  V30 11483 H 1075.18 4.37441 -2.89389 0
M  V30 11484 H 1076.66 5.32082 -1.46944 0
M  V30 11485 H 1077.14 4.39171 -0.0502963 0
M  V30 11486 H 1077.74 3.91818 -1.65405 0
M  V30 11487 N 1076.06 0.894434 1.2976 0
M  V30 11488 C 1077.47 0.566892 1.77885 0
M  V30 11489 C 1077.82 -0.917289 1.73437 0
M  V30 11490 O 1076.94 -1.71707 1.31703 0
M  V30 11491 C 1077.54 1.02227 3.2301 0
M  V30 11492 C 1076.1 0.745978 3.68934 0
M  V30 11493 C 1075.24 1.19993 2.49994 0
M  V30 11494 H 1078.2 1.0777 1.16496 0
M  V30 11495 H 1078.22 0.355281 3.78838 0
M  V30 11496 H 1077.73 2.1025 3.26215 0
M  V30 11497 H 1075.83 -0.321866 3.71207 0
M  V30 11498 H 1075.94 1.34017 4.59974 0
M  V30 11499 H 1074.31 0.619047 2.47063 0
M  V30 11500 H 1075.09 2.28811 2.55931 0
M  V30 11501 N 1077.53 -1.43282 0.656365 0
M  V30 11502 C 1078.78 -2.01378 0.170702 0
M  V30 11503 C 1079.1 -1.52063 -1.22073 0
M  V30 11504 O 1078.37 -0.73456 -1.81607 0
M  V30 11505 H 1076.95 -0.744577 0.0601168 0
M  V30 11506 H 1079.62 -1.75449 0.848739 0
M  V30 11507 H 1078.71 -3.11701 0.157745 0
M  V30 11508 N 1079.01 -0.398486 -1.52479 0
M  V30 11509 C 1080.26 0.182046 -2.00877 0
M  V30 11510 C 1080.58 1.47128 -1.2889 0
M  V30 11511 O 1081.78 2.13242 -1.68048 0
M  V30 11512 C 1080.24 0.374978 -3.57941 0
M  V30 11513 C 1079.85 -0.901544 -4.38835 0
M  V30 11514 C 1081.59 0.911378 -4.14601 0
M  V30 11515 C 1079.5 -0.676385 -5.87519 0
M  V30 11516 H 1078.43 0.0718068 -0.750573 0
M  V30 11517 H 1081.08 -0.522297 -1.7591 0
M  V30 11518 H 1079.46 1.14139 -3.79194 0
M  V30 11519 H 1080.63 -1.67329 -4.29346 0
M  V30 11520 H 1078.95 -1.36357 -3.93441 0
M  V30 11521 H 1081.55 1.09569 -5.23353 0
M  V30 11522 H 1081.89 1.88306 -3.71277 0
M  V30 11523 H 1082.42 0.204296 -3.97275 0
M  V30 11524 H 1079.16 -1.61933 -6.35184 0
M  V30 11525 H 1078.68 0.0562542 -5.99774 0
M  V30 11526 H 1080.36 -0.314454 -6.46235 0
M  V30 11527 N 1080.49 1.57075 -0.12858 0
M  V30 11528 C 1081.91 1.57964 0.227961 0
M  V30 11529 C 1082.11 1.14186 1.66023 0
M  V30 11530 O 1081.16 0.833655 2.38341 0
M  V30 11531 C 1082.48 3.00697 -0.0140648 0
M  V30 11532 C 1084.02 3.12958 0.0510876 0
M  V30 11533 C 1084.5 4.57709 -0.163368 0
M  V30 11534 N 1085.99 4.6307 -0.109663 0
M  V30 11535 C 1086.73 5.72853 -0.250366 0
M  V30 11536 N 1086.22 6.91351 -0.447772 0
M  V30 11537 N 1088.01 5.61781 -0.189265 0
M  V30 11538 H 1080.17 1.83829 -1.06398 0
M  V30 11539 H 1082.43 0.850014 -0.419739 0
M  V30 11540 H 1082.13 3.37047 -1.00461 0
M  V30 11541 H 1082.01 3.70389 0.713571 0
M  V30 11542 H 1084.4 2.7646 1.03216 0
M  V30 11543 H 1084.48 2.4579 -0.708583 0
M  V30 11544 H 1084.12 4.94907 -1.14146 0
M  V30 11545 H 1084.05 5.2298 0.616405 0
M  V30 11546 H 1086.54 3.7788 0.0390086 0
M  V30 11547 H 1086.85 7.70871 -0.54574 0
M  V30 11548 H 1085.2 6.93314 -0.483866 0
M  V30 11549 H 1088.39 4.68086 -0.0359374 0
M  V30 11550 H 1088.56 6.47294 -0.302359 0
M  V30 11551 N 1081.97 -0.145205 1.5693 0
M  V30 11552 C 1083.2 -0.871133 1.87336 0
M  V30 11553 C 1083.61 -1.7517 0.714992 0
M  V30 11554 O 1082.95 -1.80815 -0.324304 0
M  V30 11555 C 1083.01 -1.77775 3.12468 0
M  V30 11556 C 1082.68 -1.07416 4.44197 0
M  V30 11557 C 1083.67 -0.42722 5.18142 0
M  V30 11558 C 1081.36 -1.06313 4.9092 0
M  V30 11559 C 1083.35 0.221348 6.37016 0
M  V30 11560 C 1081.04 -0.410755 6.09718 0
M  V30 11561 C 1082.04 0.230357 6.82611 0
M  V30 11562 O 1081.73 0.872389 7.99152 0
M  V30 11563 H 1081.46 -0.257174 0.62517 0
M  V30 11564 H 1084.01 -0.142159 2.04907 0
M  V30 11565 H 1082.24 -2.54771 2.9091 0
M  V30 11566 H 1083.93 -2.37579 3.29107 0
M  V30 11567 H 1084.7 -0.427536 4.83112 0
M  V30 11568 H 1080.58 -1.55156 4.34105 0
M  V30 11569 H 1084.12 0.722349 6.9385 0
M  V30 11570 H 1080.02 -0.408112 6.44209 0
M  V30 11571 H 1080.78 0.774236 8.1483 0
M  V30 11572 N 1083.45 -1.52049 -0.414609 0
M  V30 11573 C 1084.38 -1.7122 -1.52369 0
M  V30 11574 C 1085.39 -0.592634 -1.5163 0
M  V30 11575 O 1086.58 -0.867634 -1.55995 0
M  V30 11576 C 1083.68 -1.73247 -2.91271 0
M  V30 11577 C 1082.85 -3.02153 -3.16263 0
M  V30 11578 C 1081.91 -2.96066 -4.35007 0
M  V30 11579 O 1080.94 -3.69981 -4.32554 0
M  V30 11580 N 1082.14 -2.13478 -5.39822 0
M  V30 11581 H 1084.91 -2.66902 -1.3632 0
M  V30 11582 H 1082.47 -1.50218 -0.603842 0
M  V30 11583 H 1084.46 -1.66714 -3.68766 0
M  V30 11584 H 1083.03 -0.85062 -3.00804 0
M  V30 11585 H 1082.25 -3.22379 -2.2686 0
M  V30 11586 H 1083.54 -3.87439 -3.29801 0
M  V30 11587 H 1082.94 -1.52844 -5.44661 0
M  V30 11588 H 1081.49 -2.12805 -6.16082 0
M  V30 11589 N 1084.93 0.6715 -1.42579 0
M  V30 11590 C 1086.16 1.4576 -1.46416 0
M  V30 11591 C 1086.56 1.89051 -0.0749843 0
M  V30 11592 O 1085.91 1.58927 0.921296 0
M  V30 11593 C 1085.97 2.7365 -2.33144 0
M  V30 11594 C 1085.63 2.52414 -3.80968 0
M  V30 11595 C 1086.63 2.16804 -4.72538 0
M  V30 11596 C 1084.31 2.67306 -4.25268 0
M  V30 11597 C 1086.31 1.96358 -6.06401 0
M  V30 11598 C 1084 2.46475 -5.5919 0
M  V30 11599 C 1084.99 2.11055 -6.49573 0
M  V30 11600 O 1084.68 1.90428 -7.8102 0
M  V30 11601 H 1084.41 0.454896 -0.500045 0
M  V30 11602 H 1086.97 0.832198 -1.87786 0
M  V30 11603 H 1085.2 3.38684 -1.86629 0
M  V30 11604 H 1086.89 3.35543 -2.28398 0
M  V30 11605 H 1087.65 2.04891 -4.39596 0
M  V30 11606 H 1083.53 2.93854 -3.55206 0
M  V30 11607 H 1087.08 1.68634 -6.76911 0
M  V30 11608 H 1082.97 2.57985 -5.91704 0
M  V30 11609 H 1083.74 2.05 -7.92412 0
M  V30 11610 N 1086.4 1.28806 0.908124 0
M  V30 11611 C 1087.35 1.13083 2.03261 0
M  V30 11612 C 1088.35 0.0486094 1.6933 0
M  V30 11613 O 1089.55 0.207794 1.78797 0
M  V30 11614 H 1085.93 0.349057 0.666081 0
M  V30 11615 H 1087.9 2.08304 2.13663 0
M  V30 11616 C 1086.65 0.815339 3.38005 0
M  V30 11617 H 1085.97 1.64007 3.64612 0
M  V30 11618 H 1087.41 0.745311 4.17398 0
M  V30 11619 C 1085.87 -0.48113 3.33447 0
M  V30 11620 O 1086.4 -1.50974 3.7225 0
M  V30 11621 N 1084.6 -0.483912 2.86543 0
M  V30 11622 H 1084.15 0.353593 2.55162 0
M  V30 11623 H 1084.11 -1.35138 2.83875 0
M  V30 11624 N 1087.88 -1.11734 1.11145 0
M  V30 11625 C 1089.13 -1.83677 0.859684 0
M  V30 11626 C 1089.46 -1.84265 -0.613182 0
M  V30 11627 O 1088.74 -1.29351 -1.45254 0
M  V30 11628 C 1089.02 -3.31003 1.41805 0
M  V30 11629 C 1088.87 -3.38827 2.95831 0
M  V30 11630 C 1090.19 -4.26984 1.06645 0
M  V30 11631 H 1087.31 -0.666879 0.313754 0
M  V30 11632 H 1089.95 -1.31038 1.37583 0
M  V30 11633 H 1088.1 -3.75961 0.979054 0
M  V30 11634 H 1089.77 -3.02451 3.48312 0
M  V30 11635 H 1088.02 -2.79143 3.32056 0
M  V30 11636 H 1088.69 -4.42508 3.29986 0
M  V30 11637 H 1091.16 -3.9019 1.44537 0
M  V30 11638 H 1090.04 -5.2846 1.48394 0
M  V30 11639 H 1090.3 -4.42094 -0.0231866 0
M  V30 11640 N 1089.36 -0.901303 -1.29284 0
M  V30 11641 C 1090.29 -0.396909 -2.30102 0
M  V30 11642 C 1091.27 0.528919 -1.61668 0
M  V30 11643 O 1092.46 0.439306 -1.89166 0
M  V30 11644 C 1089.59 0.375006 -3.45269 0
M  V30 11645 C 1088.54 -0.46054 -4.25515 0
M  V30 11646 C 1087.87 0.438967 -5.32895 0
M  V30 11647 C 1089.17 -1.7113 -4.93469 0
M  V30 11648 H 1090.86 -1.23943 -2.72541 0
M  V30 11649 H 1088.41 -0.597428 -1.31022 0
M  V30 11650 H 1090.36 0.738622 -4.14876 0
M  V30 11651 H 1089.08 1.25132 -3.01678 0
M  V30 11652 H 1087.74 -0.80651 -3.57618 0
M  V30 11653 H 1087.39 1.31346 -4.85548 0
M  V30 11654 H 1087.09 -0.116406 -5.87485 0
M  V30 11655 H 1088.61 0.79874 -6.05353 0
M  V30 11656 H 1090.03 -1.41732 -5.55504 0
M  V30 11657 H 1088.42 -2.20811 -5.57999 0
M  V30 11658 H 1089.49 -2.44636 -4.18666 0
M  V30 11659 N 1090.84 1.42931 -0.663954 0
M  V30 11660 C 1092.25 1.84877 -0.260283 0
M  V30 11661 C 1092.6 1.5558 1.19538 0
M  V30 11662 O 1091.72 1.01015 1.91377 0
M  V30 11663 C 1092.32 3.35585 -0.465618 0
M  V30 11664 C 1090.88 3.76221 -0.116169 0
M  V30 11665 C 1090.03 2.66587 -0.763317 0
M  V30 11666 H 1092.98 1.32932 -0.866882 0
M  V30 11667 H 1093 3.79427 0.285608 0
M  V30 11668 H 1092.51 3.56877 -1.52515 0
M  V30 11669 H 1090.61 3.60539 0.940342 0
M  V30 11670 H 1090.72 4.75943 -0.549123 0
M  V30 11671 H 1089.09 2.53948 -0.19559 0
M  V30 11672 H 1089.87 2.90704 -1.82609 0
M  V30 11673 N 1092.32 0.406567 1.52266 0
M  V30 11674 C 1093.25 -0.45552 2.24628 0
M  V30 11675 C 1094.26 -1.01234 1.27497 0
M  V30 11676 O 1095.45 -0.911718 1.5346 0
M  V30 11677 C 1092.55 -1.64578 2.96256 0
M  V30 11678 C 1091.72 -1.2133 4.20235 0
M  V30 11679 C 1090.78 -2.27018 4.7471 0
M  V30 11680 O 1089.81 -1.87714 5.37357 0
M  V30 11681 N 1091.01 -3.5915 4.56061 0
M  V30 11682 H 1093.77 0.164525 2.99248 0
M  V30 11683 H 1091.34 0.233812 1.60203 0
M  V30 11684 H 1093.33 -2.3484 3.29594 0
M  V30 11685 H 1091.9 -2.1718 2.24837 0
M  V30 11686 H 1091.12 -0.338892 3.92741 0
M  V30 11687 H 1092.41 -0.901268 5.00754 0
M  V30 11688 H 1091.8 -3.93834 4.06092 0
M  V30 11689 H 1090.36 -4.25397 4.93843 0
M  V30 11690 N 1093.79 -1.57004 0.136909 0
M  V30 11691 C 1095.04 -1.9541 -0.51569 0
M  V30 11692 C 1095.36 -1.02219 -1.66061 0
M  V30 11693 O 1094.63 -0.0818172 -1.95729 0
M  V30 11694 H 1093.21 -0.721504 -0.193497 0
M  V30 11695 H 1095.88 -1.93765 0.210046 0
M  V30 11696 H 1094.97 -2.98887 -0.898494 0
M  V30 11697 N 1095.27 0.136881 -1.57004 0
M  V30 11698 C 1096.52 0.844147 -1.85056 0
M  V30 11699 C 1096.87 1.78328 -0.722278 0
M  V30 11700 O 1096.17 1.89557 0.279059 0
M  V30 11701 C 1096.36 1.64711 -3.17183 0
M  V30 11702 C 1096.19 0.787229 -4.42756 0
M  V30 11703 C 1094.96 0.448938 -5.03302 0
M  V30 11704 C 1097.16 0.112947 -5.14176 0
M  V30 11705 N 1095.14 -0.423481 -6.12438 0
M  V30 11706 C 1096.51 -0.619195 -6.169 0
M  V30 11707 C 1098.57 0.0346687 -4.97888 0
M  V30 11708 C 1097.27 -1.42224 -7.05099 0
M  V30 11709 C 1099.29 -0.755143 -5.86559 0
M  V30 11710 C 1098.66 -1.47553 -6.88772 0
M  V30 11711 H 1094.76 0.286398 -0.727668 0
M  V30 11712 H 1097.34 0.108903 -1.94395 0
M  V30 11713 H 1095.51 2.35352 -3.08972 0
M  V30 11714 H 1097.24 2.29833 -3.33105 0
M  V30 11715 H 1094 0.787068 -4.67014 0
M  V30 11716 H 1094.42 -0.851013 -6.7163 0
M  V30 11717 H 1099.06 0.577271 -4.18841 0
M  V30 11718 H 1096.78 -1.97606 -7.83567 0
M  V30 11719 H 1100.37 -0.817835 -5.76023 0
M  V30 11720 H 1099.25 -2.07687 -7.56198 0
M  V30 11721 N 1096.75 1.52266 0.40654 0
M  V30 11722 C 1097.7 1.75794 1.4955 0
M  V30 11723 C 1098.67 0.600472 1.54866 0
M  V30 11724 O 1099.85 0.838305 1.71397 0
M  V30 11725 C 1096.99 1.91682 2.86971 0
M  V30 11726 C 1096.11 3.19337 2.90943 0
M  V30 11727 C 1095.24 3.25641 4.1968 0
M  V30 11728 C 1094.28 4.47488 4.17637 0
M  V30 11729 N 1093.42 4.51171 5.37949 0
M  V30 11730 H 1098.26 2.68733 1.28789 0
M  V30 11731 H 1095.79 1.33157 0.625102 0
M  V30 11732 H 1097.75 1.98877 3.66748 0
M  V30 11733 H 1096.38 1.02121 3.06221 0
M  V30 11734 H 1095.43 3.21301 2.03642 0
M  V30 11735 H 1096.75 4.09153 2.85299 0
M  V30 11736 H 1095.9 3.31922 5.07851 0
M  V30 11737 H 1094.64 2.33769 4.28023 0
M  V30 11738 H 1093.64 4.41351 3.27856 0
M  V30 11739 H 1094.87 5.40659 4.10932 0
M  V30 11740 H 1092.81 3.62182 5.46955 0
M  V30 11741 H 1092.73 5.34835 5.3431 0
M  V30 11742 H 1094 4.61685 6.28066 0
M  V30 11743 N 1098.23 -0.663929 1.42933 0
M  V30 11744 C 1099.48 -1.42111 1.43697 0
M  V30 11745 C 1099.8 -1.94913 0.0583858 0
M  V30 11746 O 1099.07 -1.73757 -0.904719 0
M  V30 11747 H 1097.65 -0.527391 0.529026 0
M  V30 11748 H 1100.31 -0.783766 1.78446 0
M  V30 11749 H 1099.41 -2.26877 2.1432 0
M  V30 11750 N 1099.71 -1.29285 -0.901281 0
M  V30 11751 C 1100.93 -1.20169 -1.69039 0
M  V30 11752 C 1101.36 0.234509 -1.86632 0
M  V30 11753 O 1100.71 1.16935 -1.38549 0
M  V30 11754 C 1100.76 -1.91852 -3.05328 0
M  V30 11755 O 1099.87 -1.23448 -3.9349 0
M  V30 11756 H 1099.21 -0.416486 -0.517141 0
M  V30 11757 H 1101.74 -1.70826 -1.12603 0
M  V30 11758 H 1101.75 -2.00244 -3.5548 0
M  V30 11759 H 1100.42 -2.96313 -2.91841 0
M  V30 11760 H 1099 -1.23303 -3.51924 0
M  V30 11761 N 1101.18 1.11143 -1.11736 0
M  V30 11762 C 1102.6 1.64462 -0.883693 0
M  V30 11763 C 1102.95 1.87324 0.583448 0
M  V30 11764 O 1102.07 1.60975 1.44623 0
M  V30 11765 C 1102.67 2.98765 -1.59764 0
M  V30 11766 C 1101.23 3.4898 -1.41032 0
M  V30 11767 C 1100.37 2.23729 -1.63831 0
M  V30 11768 H 1103.32 0.947415 -1.27317 0
M  V30 11769 H 1103.34 3.65885 -1.04443 0
M  V30 11770 H 1102.86 2.82094 -2.66542 0
M  V30 11771 H 1100.96 3.7081 -0.364781 0
M  V30 11772 H 1101.07 4.27571 -2.16148 0
M  V30 11773 H 1099.43 2.31507 -1.06191 0
M  V30 11774 H 1100.22 2.09597 -2.7189 0
M  V30 11775 N 1102.66 0.908147 1.28804 0
M  V30 11776 C 1103.63 0.397058 2.25735 0
M  V30 11777 C 1104.63 -0.473483 1.53671 0
M  V30 11778 O 1105.82 -0.277335 1.71978 0
M  V30 11779 C 1102.95 -0.431392 3.38159 0
M  V30 11780 H 1104.14 1.25323 2.72459 0
M  V30 11781 H 1101.69 0.687041 1.4039 0
M  V30 11782 H 1102.43 -1.3072 2.96787 0
M  V30 11783 H 1102.21 0.192502 3.91627 0
M  V30 11784 H 1103.7 -0.78 4.10251 0
M  V30 11785 N 1104.14 -1.42577 0.671525 0
M  V30 11786 C 1105.39 -2.00806 0.189663 0
M  V30 11787 C 1105.7 -1.537 -1.20978 0
M  V30 11788 O 1106.91 -2.04325 -1.78784 0
M  V30 11789 C 1105.36 -3.58744 0.288227 0
M  V30 11790 C 1104.97 -4.14839 1.69152 0
M  V30 11791 C 1106.72 -4.24285 -0.13509 0
M  V30 11792 C 1104.62 -5.65131 1.74302 0
M  V30 11793 H 1103.55 -0.751004 0.067146 0
M  V30 11794 H 1106.2 -1.63338 0.83623 0
M  V30 11795 H 1104.59 -3.937 -0.426175 0
M  V30 11796 H 1105.76 -3.91349 2.43274 0
M  V30 11797 H 1104.08 -3.61738 2.0624 0
M  V30 11798 H 1106.67 -5.34573 -0.116709 0
M  V30 11799 H 1107.02 -3.99527 -1.16977 0
M  V30 11800 H 1107.55 -3.94278 0.528191 0
M  V30 11801 H 1104.29 -5.94682 2.75742 0
M  V30 11802 H 1103.81 -5.90621 1.04531 0
M  V30 11803 H 1105.49 -6.29491 1.49498 0
M  V30 11804 N 1105.62 -0.414636 -1.52048 0
M  V30 11805 C 1106.87 0.159349 -2.01872 0
M  V30 11806 C 1107.19 1.44674 -1.29999 0
M  V30 11807 O 1106.45 1.91641 -0.396511 0
M  V30 11808 C 1106.75 0.448327 -3.54577 0
M  V30 11809 C 1106.41 -0.75052 -4.4461 0
M  V30 11810 C 1105.08 -1.07935 -4.68939 0
M  V30 11811 C 1107.43 -1.55134 -4.97577 0
M  V30 11812 C 1104.76 -2.21008 -5.43482 0
M  V30 11813 C 1107.11 -2.67288 -5.73358 0
M  V30 11814 C 1105.77 -3.00651 -5.95958 0
M  V30 11815 H 1105.04 0.05831 -0.738702 0
M  V30 11816 H 1107.69 -0.557184 -1.83215 0
M  V30 11817 H 1105.99 1.24649 -3.71443 0
M  V30 11818 H 1107.69 0.90549 -3.90643 0
M  V30 11819 H 1104.28 -0.484257 -4.25856 0
M  V30 11820 H 1108.46 -1.31052 -4.78685 0
M  V30 11821 H 1103.72 -2.47197 -5.59199 0
M  V30 11822 H 1107.89 -3.29725 -6.13396 0
M  V30 11823 H 1105.52 -3.88384 -6.535 0
M  V30 11824 N 1107.1 1.56929 -0.145233 0
M  V30 11825 C 1108.03 2.13796 0.826078 0
M  V30 11826 C 1109.04 1.08697 1.21197 0
M  V30 11827 O 1110.23 1.3598 1.15635 0
M  V30 11828 C 1107.33 2.6443 2.11967 0
M  V30 11829 C 1106.5 3.9391 1.90142 0
M  V30 11830 C 1105.56 4.29872 3.03474 0
M  V30 11831 O 1104.59 4.98227 2.75242 0
M  V30 11832 N 1105.79 3.8931 4.30602 0
M  V30 11833 H 1108.56 2.97764 0.340073 0
M  V30 11834 H 1106.12 1.61854 0.0383928 0
M  V30 11835 H 1108.11 2.85502 2.86829 0
M  V30 11836 H 1106.68 1.85196 2.51836 0
M  V30 11837 H 1105.9 3.81481 0.993268 0
M  V30 11838 H 1107.19 4.78523 1.72896 0
M  V30 11839 H 1106.58 3.34229 4.56407 0
M  V30 11840 H 1105.14 4.15438 5.0225 0
M  V30 11841 N 1108.58 -0.128553 1.57075 0
M  V30 11842 C 1109.8 -0.8564 1.88893 0
M  V30 11843 C 1110.23 -1.73095 0.736196 0
M  V30 11844 O 1109.58 -1.78567 -0.313629 0
M  V30 11845 C 1109.63 -1.67368 3.19406 0
M  V30 11846 O 1108.74 -2.77973 3.04639 0
M  V30 11847 H 1108.08 -0.237424 0.620102 0
M  V30 11848 H 1110.61 -0.113821 2.04283 0
M  V30 11849 H 1110.62 -2.0649 3.51889 0
M  V30 11850 H 1109.29 -1.03161 4.02903 0
M  V30 11851 H 1107.87 -2.42123 2.83603 0
M  V30 11852 N 1110.05 -1.5248 -0.398459 0
M  V30 11853 C 1111.28 -1.71221 -1.17039 0
M  V30 11854 C 1111.7 -0.425515 -1.83224 0
M  V30 11855 O 1111.06 0.617938 -1.70444 0
M  V30 11856 C 1111.11 -2.8562 -2.20121 0
M  V30 11857 O 1110.21 -2.51934 -3.26501 0
M  V30 11858 H 1109.55 -0.569654 -0.34116 0
M  V30 11859 H 1112.08 -1.99231 -0.465652 0
M  V30 11860 H 1112.09 -3.10842 -2.64275 0
M  V30 11861 H 1110.77 -3.78969 -1.71334 0
M  V30 11862 H 1109.35 -2.3742 -2.87552 0
M  V30 11863 N 1111.53 0.65634 -1.43283 0
M  V30 11864 C 1112.46 1.78122 -1.42646 0
M  V30 11865 C 1113.44 1.60024 -0.288301 0
M  V30 11866 O 1114.63 1.82249 -0.481407 0
M  V30 11867 C 1111.75 3.1538 -1.23505 0
M  V30 11868 C 1110.8 3.52186 -2.40556 0
M  V30 11869 S 1111.63 3.52515 -4.03105 0
M  V30 11870 C 1112.79 4.92435 -3.8634 0
M  V30 11871 H 1113.02 1.78391 -2.37832 0
M  V30 11872 H 1110.55 0.828699 -1.30276 0
M  V30 11873 H 1112.51 3.94598 -1.13148 0
M  V30 11874 H 1111.17 3.12676 -0.298726 0
M  V30 11875 H 1110.37 4.52002 -2.22959 0
M  V30 11876 H 1109.97 2.80373 -2.47522 0
M  V30 11877 H 1112.26 5.81011 -3.48472 0
M  V30 11878 H 1113.2 5.15082 -4.85897 0
M  V30 11879 H 1113.61 4.65823 -3.18857 0
M  V30 11880 N 1113.01 1.29761 0.894412 0
M  V30 11881 C 1114.24 1.2094 1.67872 0
M  V30 11882 C 1114.65 -0.229192 1.87404 0
M  V30 11883 O 1114.01 -1.15278 1.41482 0
M  V30 11884 C 1114.06 1.92424 3.06032 0
M  V30 11885 O 1113.78 3.30665 2.87388 0
M  V30 11886 C 1115.28 1.90144 4.0045 0
M  V30 11887 H 1112.5 0.418942 0.524145 0
M  V30 11888 H 1115.05 1.71226 1.11813 0
M  V30 11889 H 1113.2 1.4596 3.58851 0
M  V30 11890 H 1113.62 3.66741 3.74969 0
M  V30 11891 H 1115.09 2.44716 4.94791 0
M  V30 11892 H 1115.57 0.878175 4.30331 0
M  V30 11893 H 1116.17 2.36375 3.53563 0
M  V30 11894 N 1114.49 -1.10549 1.12324 0
M  V30 11895 C 1115.43 -2.16858 0.790024 0
M  V30 11896 C 1116.4 -1.64317 -0.242694 0
M  V30 11897 O 1117.59 -1.90438 -0.117531 0
M  V30 11898 C 1114.73 -3.44197 0.249503 0
M  V30 11899 C 1113.84 -4.10696 1.33989 0
M  V30 11900 C 1112.98 -5.25751 0.758932 0
M  V30 11901 C 1112.02 -5.8415 1.82853 0
M  V30 11902 N 1111.15 -6.90585 1.26637 0
M  V30 11903 H 1115.99 -2.44705 1.7007 0
M  V30 11904 H 1113.53 -1.20117 0.849141 0
M  V30 11905 H 1115.49 -4.1712 -0.0819251 0
M  V30 11906 H 1114.12 -3.16705 -0.624332 0
M  V30 11907 H 1113.17 -3.35754 1.78812 0
M  V30 11908 H 1114.48 -4.50144 2.14875 0
M  V30 11909 H 1113.64 -6.05521 0.378104 0
M  V30 11910 H 1112.38 -4.87632 -0.0811405 0
M  V30 11911 H 1111.38 -5.03051 2.21856 0
M  V30 11912 H 1112.61 -6.24333 2.6718 0
M  V30 11913 H 1110.55 -6.54468 0.448105 0
M  V30 11914 H 1110.47 -7.28739 2.01184 0
M  V30 11915 H 1111.74 -7.74138 0.912737 0
M  V30 11916 N 1115.97 -0.914965 -1.28321 0
M  V30 11917 C 1117.21 -0.544639 -1.94208 0
M  V30 11918 C 1117.53 0.916368 -1.72806 0
M  V30 11919 O 1118.73 1.39491 -2.32926 0
M  V30 11920 C 1117.19 -0.923209 -3.47858 0
M  V30 11921 C 1116.8 -2.40403 -3.78035 0
M  V30 11922 C 1118.54 -0.623526 -4.19896 0
M  V30 11923 C 1116.45 -2.72266 -5.25 0
M  V30 11924 H 1115.38 -0.199966 -0.727 0
M  V30 11925 H 1118.03 -1.11405 -1.45812 0
M  V30 11926 H 1116.41 -0.282576 -3.94991 0
M  V30 11927 H 1117.59 -3.09149 -3.41706 0
M  V30 11928 H 1115.9 -2.67429 -3.19172 0
M  V30 11929 H 1118.5 -0.838243 -5.28089 0
M  V30 11930 H 1118.84 0.438721 -4.13982 0
M  V30 11931 H 1119.37 -1.22268 -3.78544 0
M  V30 11932 H 1116.11 -3.77349 -5.35993 0
M  V30 11933 H 1115.63 -2.08157 -5.62522 0
M  V30 11934 H 1117.31 -2.59334 -5.92752 0
M  V30 11935 N 1117.44 1.42219 -0.679077 0
M  V30 11936 C 1118.37 2.33493 -0.0174528 0
M  V30 11937 C 1119.35 1.50915 0.78477 0
M  V30 11938 O 1120.54 1.79504 0.741065 0
M  V30 11939 C 1117.67 3.34576 0.931463 0
M  V30 11940 C 1116.62 4.2734 0.237527 0
M  V30 11941 C 1115.95 5.18664 1.29967 0
M  V30 11942 C 1117.25 5.14729 -0.886082 0
M  V30 11943 H 1118.94 2.89068 -0.779748 0
M  V30 11944 H 1116.49 1.38993 -0.376419 0
M  V30 11945 H 1118.44 3.97343 1.40343 0
M  V30 11946 H 1117.17 2.77315 1.72523 0
M  V30 11947 H 1115.83 3.65973 -0.214245 0
M  V30 11948 H 1115.47 4.57727 2.08554 0
M  V30 11949 H 1115.17 5.81558 0.840463 0
M  V30 11950 H 1116.7 5.84308 1.77249 0
M  V30 11951 H 1118.11 5.71158 -0.495141 0
M  V30 11952 H 1116.51 5.86478 -1.27135 0
M  V30 11953 H 1117.58 4.52874 -1.733 0
M  V30 11954 N 1118.92 0.422693 1.51826 0
M  V30 11955 C 1119.83 -0.40261 2.31119 0
M  V30 11956 C 1120.85 -1.04117 1.39412 0
M  V30 11957 O 1122.02 -1.03973 1.72486 0
M  V30 11958 C 1119.09 -1.49699 3.12716 0
M  V30 11959 C 1118.15 -0.880088 4.20182 0
M  V30 11960 C 1117.38 -1.92232 4.97878 0
M  V30 11961 O 1117.61 -3.14246 4.76031 0
M  V30 11962 O 1116.54 -1.521 5.82365 0
M  V30 11963 H 1120.37 0.244308 3.02716 0
M  V30 11964 H 1117.95 0.185569 1.48243 0
M  V30 11965 H 1119.83 -2.13202 3.63487 0
M  V30 11966 H 1118.51 -2.12826 2.43899 0
M  V30 11967 H 1117.41 -0.207404 3.73525 0
M  V30 11968 H 1118.75 -0.292535 4.9133 0
M  V30 11969 N 1120.4 -1.5685 0.153553 0
M  V30 11970 C 1121.81 -1.83074 -0.36618 0
M  V30 11971 C 1122.16 -1.07257 -1.64288 0
M  V30 11972 O 1121.29 -0.319925 -2.14022 0
M  V30 11973 C 1121.88 -3.32086 -0.671142 0
M  V30 11974 C 1120.44 -3.58868 -1.13537 0
M  V30 11975 C 1119.59 -2.76827 -0.161887 0
M  V30 11976 H 1122.54 -1.54129 0.378139 0
M  V30 11977 H 1122.56 -3.48598 -1.52512 0
M  V30 11978 H 1122.07 -3.8724 0.258234 0
M  V30 11979 H 1120.17 -3.09107 -2.08047 0
M  V30 11980 H 1120.29 -4.67299 -1.05682 0
M  V30 11981 H 1118.65 -2.46112 -0.6558 0
M  V30 11982 H 1119.43 -3.34755 0.761195 0
M  V30 11983 N 1121.88 0.120221 -1.57141 0
M  V30 11984 C 1123.12 0.828222 -1.84788 0
M  V30 11985 C 1123.45 1.79936 -0.738459 0
M  V30 11986 O 1122.71 1.93824 0.270295 0
M  V30 11987 C 1123.01 1.61338 -3.18912 0
M  V30 11988 C 1122.67 0.786637 -4.43985 0
M  V30 11989 C 1121.33 0.558645 -4.77946 0
M  V30 11990 C 1123.69 0.210281 -5.20776 0
M  V30 11991 C 1121.01 -0.255975 -5.86141 0
M  V30 11992 C 1123.37 -0.591523 -6.29828 0
M  V30 11993 C 1122.03 -0.829843 -6.62322 0
M  V30 11994 H 1121.3 0.303068 -0.676188 0
M  V30 11995 H 1123.95 0.0906538 -1.91285 0
M  V30 11996 H 1122.25 2.42182 -3.07986 0
M  V30 11997 H 1123.95 2.16513 -3.37525 0
M  V30 11998 H 1120.54 0.974426 -4.17376 0
M  V30 11999 H 1124.72 0.373641 -4.94892 0
M  V30 12000 H 1119.98 -0.449849 -6.09743 0
M  V30 12001 H 1124.15 -1.04512 -6.88513 0
M  V30 12002 H 1121.78 -1.4629 -7.45992 0
M  V30 12003 N 1123.36 1.52689 0.390367 0
M  V30 12004 C 1124.77 1.41909 0.730338 0
M  V30 12005 C 1124.97 0.538427 1.94173 0
M  V30 12006 O 1124.03 0.0113527 2.52497 0
M  V30 12007 C 1125.34 2.84737 0.966714 0
M  V30 12008 C 1126.89 2.94206 1.06827 0
M  V30 12009 C 1127.36 4.38042 1.33728 0
M  V30 12010 N 1128.86 4.4136 1.40553 0
M  V30 12011 C 1129.59 5.49735 1.63031 0
M  V30 12012 N 1129.09 6.68197 1.82988 0
M  V30 12013 N 1130.88 5.37276 1.65199 0
M  V30 12014 H 1123.03 2.08469 -0.406766 0
M  V30 12015 H 1125.29 0.940401 -0.11979 0
M  V30 12016 H 1125 3.51385 0.148725 0
M  V30 12017 H 1124.87 3.26909 1.88176 0
M  V30 12018 H 1127.26 2.27726 1.87683 0
M  V30 12019 H 1127.34 2.55463 0.131168 0
M  V30 12020 H 1126.99 5.05087 0.533832 0
M  V30 12021 H 1126.92 4.74336 2.28721 0
M  V30 12022 H 1129.41 3.55976 1.26844 0
M  V30 12023 H 1129.72 7.46567 1.99643 0
M  V30 12024 H 1128.06 6.71228 1.80215 0
M  V30 12025 H 1131.26 4.437 1.49158 0
M  V30 12026 H 1131.43 6.21806 1.82377 0
M  V30 12027 N 1124.83 -0.648732 1.43629 0
M  V30 12028 C 1125.78 -1.76145 1.49136 0
M  V30 12029 C 1126.75 -1.62569 0.340649 0
M  V30 12030 O 1127.94 -1.82748 0.548435 0
M  V30 12031 C 1125.08 -3.14321 1.42466 0
M  V30 12032 C 1124.19 -3.38999 2.67776 0
M  V30 12033 C 1123.32 -4.67047 2.53062 0
M  V30 12034 C 1122.36 -4.84845 3.7362 0
M  V30 12035 N 1121.5 -6.04155 3.57689 0
M  V30 12036 H 1126.34 -1.70774 2.44213 0
M  V30 12037 H 1123.88 -0.833311 1.2122 0
M  V30 12038 H 1125.84 -3.94206 1.36592 0
M  V30 12039 H 1124.47 -3.18751 0.509666 0
M  V30 12040 H 1123.52 -2.53179 2.83909 0
M  V30 12041 H 1124.83 -3.48035 3.57314 0
M  V30 12042 H 1123.98 -5.55066 2.44922 0
M  V30 12043 H 1122.72 -4.60339 1.61056 0
M  V30 12044 H 1121.73 -3.95261 3.82163 0
M  V30 12045 H 1122.95 -4.9338 4.6664 0
M  V30 12046 H 1120.9 -5.9857 2.6842 0
M  V30 12047 H 1120.82 -6.14169 4.40832 0
M  V30 12048 H 1122.08 -6.94782 3.53409 0
M  V30 12049 N 1126.31 -1.30234 -0.887518 0
M  V30 12050 C 1127.24 -1.12212 -1.99853 0
M  V30 12051 C 1128.26 -0.0660929 -1.62666 0
M  V30 12052 O 1129.45 -0.311853 -1.75755 0
M  V30 12053 C 1126.55 -0.688591 -3.31831 0
M  V30 12054 C 1125.72 -1.82581 -3.97471 0
M  V30 12055 C 1124.78 -1.38126 -5.07748 0
M  V30 12056 O 1123.8 -2.08805 -5.29518 0
M  V30 12057 N 1125.01 -0.258868 -5.79923 0
M  V30 12058 H 1127.77 -2.07901 -2.15864 0
M  V30 12059 H 1125.33 -1.22336 -1.06045 0
M  V30 12060 H 1127.32 -0.374252 -4.02966 0
M  V30 12061 H 1125.89 0.176185 -3.12103 0
M  V30 12062 H 1125.11 -2.3084 -3.19541 0
M  V30 12063 H 1126.4 -2.58798 -4.38065 0
M  V30 12064 H 1125.8 0.330131 -5.64736 0
M  V30 12065 H 1124.36 -0.00396813 -6.518 0
M  V30 12066 N 1127.79 1.09952 -1.12909 0
M  V30 12067 C 1128.74 2.18525 -0.796849 0
M  V30 12068 C 1129.73 1.67985 0.218483 0
M  V30 12069 O 1130.94 1.79839 0.07618 0
M  V30 12070 H 1127.31 0.712714 -0.239882 0
M  V30 12071 H 1129.28 2.43783 -1.72083 0
M  V30 12072 C 1128.03 3.46625 -0.273237 0
M  V30 12073 H 1127.36 3.85879 -1.04582 0
M  V30 12074 H 1128.8 4.23926 -0.0791355 0
M  V30 12075 C 1127.26 3.2172 0.999903 0
M  V30 12076 O 1127.79 3.43851 2.07676 0
M  V30 12077 N 1125.99 2.75356 0.928833 0
M  V30 12078 H 1125.54 2.57547 0.052379 0
M  V30 12079 H 1125.5 2.5907 1.78129 0
M  V30 12080 N 1129.27 0.921757 1.27833 0
M  V30 12081 C 1130.68 0.604496 1.76643 0
M  V30 12082 C 1131.03 -0.880294 1.75343 0
M  V30 12083 O 1130.16 -1.68875 1.35315 0
M  V30 12084 C 1130.75 1.09055 3.20768 0
M  V30 12085 C 1129.31 0.824066 3.67268 0
M  V30 12086 C 1128.46 1.25269 2.47392 0
M  V30 12087 H 1131.41 1.10217 1.14184 0
M  V30 12088 H 1131.43 0.435558 3.77999 0
M  V30 12089 H 1130.94 2.17122 3.21682 0
M  V30 12090 H 1129.04 -0.243055 3.71806 0
M  V30 12091 H 1129.15 1.43743 4.57028 0
M  V30 12092 H 1127.52 0.671313 2.45694 0
M  V30 12093 H 1128.3 2.34188 2.5102 0
M  V30 12094 N 1130.75 -1.41857 0.686609 0
M  V30 12095 C 1132.02 -1.95082 0.142228 0
M  V30 12096 C 1132.4 -1.62646 -1.34572 0
M  V30 12097 O 1131.75 -0.928757 -2.08773 0
M  V30 12098 C 1131.96 -3.46415 0.423955 0
M  V30 12099 C 1133.31 -4.23181 0.346842 0
M  V30 12100 O 1134.33 -3.54393 0.358363 0
M  V30 12101 O 1133.19 -5.4568 0.299211 0
M  V30 12102 H 1130.29 -0.826943 0.00974 0
M  V30 12103 H 1132.83 -1.51622 0.762153 0
M  V30 12104 H 1131.6 -3.63273 1.45424 0
M  V30 12105 H 1131.23 -3.96949 -0.227391 0
M  V30 12106 N 1132.22 -0.430739 -1.51599 0
M  V30 12107 C 1133.47 0.139396 -2.01218 0
M  V30 12108 C 1133.79 1.44361 -1.31982 0
M  V30 12109 O 1134.99 2.0963 -1.72533 0
M  V30 12110 C 1133.45 0.298969 -3.58656 0
M  V30 12111 C 1133.06 -0.994424 -4.36824 0
M  V30 12112 C 1134.8 0.82323 -4.16441 0
M  V30 12113 C 1132.71 -0.800855 -5.85952 0
M  V30 12114 H 1131.64 0.0558698 -0.751927 0
M  V30 12115 H 1134.29 -0.559493 -1.74762 0
M  V30 12116 H 1132.67 1.06071 -3.8153 0
M  V30 12117 H 1133.84 -1.76398 -4.257 0
M  V30 12118 H 1132.16 -1.44672 -3.9046 0
M  V30 12119 H 1134.76 0.984434 -5.2556 0
M  V30 12120 H 1135.1 1.80388 -3.75188 0
M  V30 12121 H 1135.63 0.119982 -3.97619 0
M  V30 12122 H 1132.37 -1.75369 -6.31606 0
M  V30 12123 H 1131.89 -0.0709793 -5.99758 0
M  V30 12124 H 1133.57 -0.451459 -6.45423 0
M  V30 12125 N 1133.7 1.56767 -0.161869 0
M  V30 12126 C 1134.95 1.96885 0.486215 0
M  V30 12127 C 1135.28 1.04745 1.6353 0
M  V30 12128 O 1134.56 0.0927156 1.94279 0
M  V30 12129 C 1134.84 3.46559 0.97822 0
M  V30 12130 C 1134.69 4.49477 -0.17039 0
M  V30 12131 C 1136.01 3.99093 1.85506 0
M  V30 12132 H 1133.13 0.715857 0.175265 0
M  V30 12133 H 1135.77 1.88399 -0.246098 0
M  V30 12134 H 1133.92 3.53921 1.60225 0
M  V30 12135 H 1135.59 4.54183 -0.807205 0
M  V30 12136 H 1133.84 4.25838 -0.827322 0
M  V30 12137 H 1134.51 5.51578 0.21583 0
M  V30 12138 H 1136.98 3.94303 1.32908 0
M  V30 12139 H 1135.86 5.04255 2.16837 0
M  V30 12140 H 1136.12 3.4234 2.79742 0
M  V30 12141 N 1135.18 -0.111886 1.57202 0
M  V30 12142 C 1136.43 -0.817022 1.84412 0
M  V30 12143 C 1136.74 -1.80708 0.748608 0
M  V30 12144 O 1137.95 -2.55891 0.907319 0
M  V30 12145 C 1136.4 -1.50376 3.26979 0
M  V30 12146 C 1136.01 -0.554334 4.44557 0
M  V30 12147 C 1137.76 -2.19361 3.63429 0
M  V30 12148 C 1135.66 -1.24471 5.78153 0
M  V30 12149 H 1134.59 -0.308864 0.687836 0
M  V30 12150 H 1137.24 -0.0698109 1.83367 0
M  V30 12151 H 1135.63 -2.29785 3.22514 0
M  V30 12152 H 1136.8 0.207045 4.60335 0
M  V30 12153 H 1135.12 0.0289261 4.1639 0
M  V30 12154 H 1137.71 -2.71716 4.60515 0
M  V30 12155 H 1138.06 -2.97488 2.91215 0
M  V30 12156 H 1138.59 -1.46833 3.69709 0
M  V30 12157 H 1135.33 -0.504584 6.53555 0
M  V30 12158 H 1134.85 -1.97792 5.66249 0
M  V30 12159 H 1136.53 -1.77591 6.2215 0
M  V30 12160 N 1136.66 -1.52894 -0.382264 0
M  V30 12161 C 1137.89 -1.71902 -1.146 0
M  V30 12162 C 1138.3 -0.44017 -1.84009 0
M  V30 12163 O 1137.64 0.595616 -1.73776 0
M  V30 12164 C 1137.7 -2.81785 -2.23244 0
M  V30 12165 C 1137.37 -4.22684 -1.73745 0
M  V30 12166 C 1138.36 -5.05611 -1.21054 0
M  V30 12167 C 1136.05 -4.69031 -1.79763 0
M  V30 12168 C 1138.04 -6.32968 -0.750368 0
M  V30 12169 C 1135.73 -5.96371 -1.33358 0
M  V30 12170 C 1136.73 -6.7817 -0.810832 0
M  V30 12171 O 1136.41 -8.03122 -0.353577 0
M  V30 12172 H 1136.15 -0.578767 -0.349292 0
M  V30 12173 H 1138.7 -2.00359 -0.452246 0
M  V30 12174 H 1136.93 -2.48764 -2.96063 0
M  V30 12175 H 1138.62 -2.89131 -2.84883 0
M  V30 12176 H 1139.39 -4.70984 -1.15755 0
M  V30 12177 H 1135.26 -4.05447 -2.19394 0
M  V30 12178 H 1138.81 -6.96763 -0.341666 0
M  V30 12179 H 1134.71 -6.30501 -1.38344 0
M  V30 12180 H 1135.47 -8.17124 -0.474439 0
M  V30 12181 N 1138.14 0.641106 -1.43971 0
M  V30 12182 C 1139.07 1.76645 -1.46046 0
M  V30 12183 C 1140.08 1.58881 -0.355049 0
M  V30 12184 O 1141.27 1.67379 -0.620207 0
M  V30 12185 C 1138.37 3.14237 -1.26918 0
M  V30 12186 C 1137.54 3.5855 -2.50521 0
M  V30 12187 C 1136.6 4.74986 -2.26438 0
M  V30 12188 O 1135.63 4.83807 -2.99866 0
M  V30 12189 N 1136.83 5.66016 -1.28866 0
M  V30 12190 H 1139.6 1.75339 -2.43056 0
M  V30 12191 H 1137.16 0.82535 -1.39282 0
M  V30 12192 H 1139.15 3.89837 -1.0867 0
M  V30 12193 H 1137.72 3.10244 -0.383082 0
M  V30 12194 H 1136.94 2.73265 -2.84112 0
M  V30 12195 H 1138.23 3.84906 -3.32754 0
M  V30 12196 H 1137.63 5.61574 -0.682018 0
M  V30 12197 H 1136.18 6.41286 -1.16599 0
M  V30 12198 N 1139.62 1.30703 0.880598 0
M  V30 12199 C 1140.85 1.22536 1.66339 0
M  V30 12200 C 1141.25 -0.213507 1.87991 0
M  V30 12201 O 1140.6 -1.15236 1.43061 0
M  V30 12202 C 1140.66 1.88798 3.05934 0
M  V30 12203 C 1140.32 3.38131 3.07435 0
M  V30 12204 C 1141.32 4.34053 2.86171 0
M  V30 12205 C 1139 3.79651 3.28893 0
M  V30 12206 C 1141 5.69469 2.86328 0
M  V30 12207 C 1138.69 5.15182 3.2868 0
M  V30 12208 C 1139.68 6.09902 3.07423 0
M  V30 12209 O 1139.37 7.42957 3.07034 0
M  V30 12210 H 1139.1 0.425018 0.525677 0
M  V30 12211 H 1141.66 1.72939 1.1082 0
M  V30 12212 H 1139.89 1.3293 3.63134 0
M  V30 12213 H 1141.58 1.74691 3.66385 0
M  V30 12214 H 1142.34 4.03307 2.69385 0
M  V30 12215 H 1138.22 3.06365 3.44473 0
M  V30 12216 H 1141.77 6.43375 2.69655 0
M  V30 12217 H 1137.66 5.45567 3.45002 0
M  V30 12218 H 1138.43 7.52 3.23169 0
M  V30 12219 N 1141.09 -1.09351 1.1349 0
M  V30 12220 C 1142.03 -2.15291 0.756645 0
M  V30 12221 C 1143 -1.60548 -0.257497 0
M  V30 12222 O 1144.19 -1.87912 -0.14882 0
M  V30 12223 C 1141.32 -3.38481 0.121799 0
M  V30 12224 C 1140.36 -4.11949 1.10456 0
M  V30 12225 S 1141.19 -4.6605 2.63738 0
M  V30 12226 C 1142.35 -5.92539 2.01615 0
M  V30 12227 H 1142.58 -2.47044 1.65398 0
M  V30 12228 H 1140.12 -1.21312 0.955129 0
M  V30 12229 H 1142.07 -4.09809 -0.238086 0
M  V30 12230 H 1140.74 -3.04945 -0.752821 0
M  V30 12231 H 1139.93 -5.00317 0.608195 0
M  V30 12232 H 1139.53 -3.46486 1.40795 0
M  V30 12233 H 1141.82 -6.63593 1.36569 0
M  V30 12234 H 1142.77 -6.46856 2.88068 0
M  V30 12235 H 1143.17 -5.45094 1.46741 0
M  V30 12236 N 1142.57 -0.928524 -1.27343 0
M  V30 12237 C 1143.85 -0.487758 -1.89421 0
M  V30 12238 C 1144.23 1.03418 -1.84032 0
M  V30 12239 O 1143.58 1.8887 -1.2861 0
M  V30 12240 C 1143.79 -1.03478 -3.33307 0
M  V30 12241 C 1145.13 -1.09577 -4.10217 0
M  V30 12242 O 1146.16 -0.984463 -3.42326 0
M  V30 12243 O 1145.02 -1.2673 -5.31603 0
M  V30 12244 H 1142.11 -0.157018 -0.811957 0
M  V30 12245 H 1144.66 -1.02027 -1.35605 0
M  V30 12246 H 1143.43 -2.07861 -3.31526 0
M  V30 12247 H 1143.05 -0.483967 -3.94644 0
M  V30 12248 N 1144.05 1.41491 -0.694123 0
M  V30 12249 C 1145.33 1.95004 -0.152571 0
M  V30 12250 C 1145.71 1.63357 1.33707 0
M  V30 12251 O 1145.05 0.939815 2.08278 0
M  V30 12252 C 1145.26 3.46186 -0.44232 0
M  V30 12253 C 1146.61 4.22991 -0.369279 0
M  V30 12254 O 1147.64 3.54198 -0.377152 0
M  V30 12255 O 1146.5 5.45514 -0.328145 0
M  V30 12256 H 1143.59 0.826879 -0.0141253 0
M  V30 12257 H 1146.14 1.51216 -0.770183 0
M  V30 12258 H 1144.91 3.62497 -1.47348 0
M  V30 12259 H 1144.53 3.97064 0.206337 0
M  V30 12260 N 1145.53 0.438773 1.51369 0
M  V30 12261 C 1146.46 -0.362467 2.3067 0
M  V30 12262 C 1147.44 -1.01973 1.36145 0
M  V30 12263 O 1148.62 -1.0231 1.65065 0
M  V30 12264 C 1145.75 -1.46313 3.14976 0
M  V30 12265 C 1144.71 -0.929272 4.1779 0
M  V30 12266 C 1144.03 -2.12579 4.90627 0
M  V30 12267 C 1145.33 0.0372782 5.22287 0
M  V30 12268 H 1147.03 0.29931 2.979 0
M  V30 12269 H 1144.57 0.14539 1.43264 0
M  V30 12270 H 1146.53 -2.03088 3.69233 0
M  V30 12271 H 1145.25 -2.15321 2.45569 0
M  V30 12272 H 1143.91 -0.383722 3.64586 0
M  V30 12273 H 1143.56 -2.8021 4.17722 0
M  V30 12274 H 1143.26 -1.77496 5.60151 0
M  V30 12275 H 1144.78 -2.69905 5.47708 0
M  V30 12276 H 1146.2 -0.44022 5.71607 0
M  V30 12277 H 1144.59 0.300748 5.99346 0
M  V30 12278 H 1145.66 0.973503 4.75027 0
M  V30 12279 N 1147.01 -1.56678 0.170181 0
M  V30 12280 C 1148.24 -2.00931 -0.480664 0
M  V30 12281 C 1148.64 -1.04947 -1.57425 0
M  V30 12282 O 1147.99 -0.042229 -1.83651 0
M  V30 12283 C 1148.05 -3.4161 -1.11996 0
M  V30 12284 C 1147.71 -4.5669 -0.168167 0
M  V30 12285 C 1148.71 -5.16273 0.613059 0
M  V30 12286 C 1146.39 -5.02259 -0.0643243 0
M  V30 12287 C 1148.39 -6.19852 1.48534 0
M  V30 12288 C 1146.08 -6.05687 0.811542 0
M  V30 12289 C 1147.07 -6.64355 1.58496 0
M  V30 12290 O 1146.76 -7.65778 2.44619 0
M  V30 12291 H 1146.49 -0.66386 -0.12754 0
M  V30 12292 H 1149.05 -2.03635 0.2687 0
M  V30 12293 H 1147.28 -3.35815 -1.91743 0
M  V30 12294 H 1148.97 -3.69823 -1.67289 0
M  V30 12295 H 1149.73 -4.81951 0.542999 0
M  V30 12296 H 1145.61 -4.56307 -0.656102 0
M  V30 12297 H 1149.16 -6.65572 2.08948 0
M  V30 12298 H 1145.05 -6.39435 0.88281 0
M  V30 12299 H 1145.82 -7.83096 2.38122 0
M  V30 12300 N 1148.48 0.103547 -1.57259 0
M  V30 12301 C 1149.73 0.809774 -1.85931 0
M  V30 12302 C 1150.06 1.78791 -0.758122 0
M  V30 12303 O 1149.34 1.93079 0.234682 0
M  V30 12304 C 1149.62 1.54601 -3.25224 0
M  V30 12305 C 1149.47 0.586439 -4.45961 0
M  V30 12306 C 1150.79 2.4986 -3.62296 0
M  V30 12307 H 1147.91 0.29293 -0.676285 0
M  V30 12308 H 1150.55 0.0736065 -1.89857 0
M  V30 12309 H 1148.7 2.17355 -3.22008 0
M  V30 12310 H 1150.38 -0.0334441 -4.61288 0
M  V30 12311 H 1148.62 -0.10085 -4.33683 0
M  V30 12312 H 1149.29 1.13855 -5.40131 0
M  V30 12313 H 1151.77 1.97203 -3.66402 0
M  V30 12314 H 1150.64 2.98396 -4.60707 0
M  V30 12315 H 1150.9 3.33233 -2.90531 0
M  V30 12316 N 1149.96 1.53094 0.37415 0
M  V30 12317 C 1151.21 1.68527 1.11548 0
M  V30 12318 C 1151.53 0.435253 1.9008 0
M  V30 12319 O 1150.8 -0.550594 1.88003 0
M  V30 12320 H 1149.38 0.621255 0.41479 0
M  V30 12321 H 1152.04 1.90258 0.422844 0
M  V30 12322 H 1151.14 2.54248 1.81009 0
M  V30 12323 N 1151.44 -0.633461 1.44309 0
M  V30 12324 C 1152.66 -1.42527 1.50668 0
M  V30 12325 C 1153.09 -1.87637 0.131861 0
M  V30 12326 O 1152.45 -1.58595 -0.878477 0
M  V30 12327 C 1152.5 -2.62328 2.47419 0
M  V30 12328 O 1151.6 -3.62081 1.97411 0
M  V30 12329 H 1150.94 -0.426559 0.508864 0
M  V30 12330 H 1153.47 -0.773392 1.8942 0
M  V30 12331 H 1153.48 -3.09901 2.65378 0
M  V30 12332 H 1152.16 -2.2884 3.47283 0
M  V30 12333 H 1150.73 -3.21333 1.89208 0
M  V30 12334 N 1152.92 -1.31168 -0.873655 0
M  V30 12335 C 1154.2 -1.11285 -1.60857 0
M  V30 12336 C 1154.58 0.333788 -2.08444 0
M  V30 12337 O 1153.92 1.32726 -1.86 0
M  V30 12338 C 1154.13 -2.12379 -2.7694 0
M  V30 12339 C 1155.48 -2.44704 -3.46994 0
M  V30 12340 O 1156.51 -2.10778 -2.87143 0
M  V30 12341 O 1155.36 -3.02786 -4.54954 0
M  V30 12342 H 1152.46 -0.428177 -0.707526 0
M  V30 12343 H 1155 -1.42634 -0.91944 0
M  V30 12344 H 1153.78 -3.09703 -2.39164 0
M  V30 12345 H 1153.4 -1.81914 -3.53544 0
M  V30 12346 N 1154.4 1.08748 -1.14068 0
M  V30 12347 C 1155.33 2.17591 -0.84714 0
M  V30 12348 C 1156.31 1.68962 0.196415 0
M  V30 12349 O 1157.49 1.94125 0.0538415 0
M  V30 12350 C 1154.62 3.45823 -0.320005 0
M  V30 12351 C 1153.58 4.07824 -1.2986 0
M  V30 12352 C 1152.9 5.30965 -0.630925 0
M  V30 12353 C 1154.2 4.49512 -2.65963 0
M  V30 12354 H 1155.9 2.42404 -1.75729 0
M  V30 12355 H 1153.44 1.16502 -0.846356 0
M  V30 12356 H 1155.4 4.21276 -0.102271 0
M  V30 12357 H 1154.12 3.20553 0.625561 0
M  V30 12358 H 1152.78 3.34398 -1.50245 0
M  V30 12359 H 1152.43 5.01979 0.320337 0
M  V30 12360 H 1152.13 5.73402 -1.28388 0
M  V30 12361 H 1153.65 6.09136 -0.422635 0
M  V30 12362 H 1155.06 5.16159 -2.49506 0
M  V30 12363 H 1153.46 5.02857 -3.27498 0
M  V30 12364 H 1154.53 3.6157 -3.23102 0
M  V30 12365 N 1155.87 0.935264 1.26849 0
M  V30 12366 C 1156.78 0.446122 2.30319 0
M  V30 12367 C 1157.8 -0.476965 1.67335 0
M  V30 12368 O 1158.98 -0.357934 1.98194 0
M  V30 12369 C 1156.04 -0.286297 3.45516 0
M  V30 12370 C 1155.1 0.672626 4.23998 0
M  V30 12371 C 1154.34 -0.0249345 5.33694 0
M  V30 12372 O 1154.56 -1.24296 5.56693 0
M  V30 12373 O 1153.49 0.650752 5.98372 0
M  V30 12374 H 1157.32 1.30546 2.74211 0
M  V30 12375 H 1154.9 0.70091 1.31938 0
M  V30 12376 H 1156.79 -0.699109 4.1556 0
M  V30 12377 H 1155.46 -1.12112 3.03665 0
M  V30 12378 H 1154.37 1.13527 3.56458 0
M  V30 12379 H 1155.7 1.47489 4.69583 0
M  V30 12380 N 1157.35 -1.41121 0.701616 0
M  V30 12381 C 1158.6 -2.00359 0.232214 0
M  V30 12382 C 1158.91 -1.56231 -1.17691 0
M  V30 12383 O 1160.12 -2.08071 -1.74409 0
M  V30 12384 C 1158.58 -3.58052 0.364257 0
M  V30 12385 C 1158.18 -4.11158 1.77913 0
M  V30 12386 C 1159.93 -4.24476 -0.0450628 0
M  V30 12387 C 1157.84 -5.61306 1.8625 0
M  V30 12388 H 1156.77 -0.749411 0.0830609 0
M  V30 12389 H 1159.42 -1.61528 0.870689 0
M  V30 12390 H 1157.8 -3.94515 -0.342569 0
M  V30 12391 H 1158.97 -3.86101 2.5152 0
M  V30 12392 H 1157.29 -3.57282 2.13866 0
M  V30 12393 H 1159.88 -5.347 -0.00329209 0
M  V30 12394 H 1160.23 -4.01919 -1.08477 0
M  V30 12395 H 1160.76 -3.93069 0.611704 0
M  V30 12396 H 1157.5 -5.88699 2.88294 0
M  V30 12397 H 1157.02 -5.88271 1.17036 0
M  V30 12398 H 1158.7 -6.26179 1.62817 0
M  V30 12399 N 1158.83 -0.446794 -1.51134 0
M  V30 12400 C 1160.08 0.116263 -2.01765 0
M  V30 12401 C 1160.4 1.42382 -1.33238 0
M  V30 12402 O 1159.67 1.9018 -0.469915 0
M  V30 12403 H 1158.25 0.0459558 -0.745585 0
M  V30 12404 H 1160.91 -0.591664 -1.85702 0
M  V30 12405 H 1160.01 0.285358 -3.10793 0
M  V30 12406 N 1160.31 1.56586 -0.178487 0
M  V30 12407 C 1161.24 2.155 0.780543 0
M  V30 12408 C 1162.25 1.11244 1.18864 0
M  V30 12409 O 1163.44 1.38403 1.12725 0
M  V30 12410 C 1160.54 2.68867 2.0631 0
M  V30 12411 C 1159.72 3.97854 1.81744 0
M  V30 12412 C 1158.77 4.36213 2.94287 0
M  V30 12413 O 1157.8 5.03954 2.64612 0
M  V30 12414 N 1159 3.98356 4.22247 0
M  V30 12415 H 1161.77 2.98419 0.276836 0
M  V30 12416 H 1159.33 1.61899 0.00405241 0
M  V30 12417 H 1161.32 2.91522 2.80708 0
M  V30 12418 H 1159.89 1.90496 2.47851 0
M  V30 12419 H 1159.11 3.83502 0.912127 0
M  V30 12420 H 1160.4 4.82083 1.62707 0
M  V30 12421 H 1159.8 3.43835 4.49215 0
M  V30 12422 H 1158.35 4.25998 4.93325 0
M  V30 12423 N 1161.79 -0.095206 1.57312 0
M  V30 12424 C 1162.74 -1.12188 1.98489 0
M  V30 12425 C 1163.72 -1.35778 0.863317 0
M  V30 12426 O 1164.91 -1.36471 1.12715 0
M  V30 12427 C 1162.04 -2.44214 2.41277 0
M  V30 12428 C 1161.13 -2.23998 3.60119 0
M  V30 12429 N 1161.52 -1.7365 4.75057 0
M  V30 12430 C 1159.82 -2.54565 3.66214 0
M  V30 12431 C 1160.52 -1.67702 5.57002 0
M  V30 12432 N 1159.49 -2.12912 5.00169 0
M  V30 12433 H 1163.3 -0.725545 2.84804 0
M  V30 12434 H 1160.81 -0.302634 1.59555 0
M  V30 12435 H 1162.81 -3.185 2.69004 0
M  V30 12436 H 1161.47 -2.84585 1.56339 0
M  V30 12437 H 1162.48 -1.42849 4.9781 0
M  V30 12438 H 1159.15 -2.98461 2.91937 0
M  V30 12439 H 1160.54 -1.29827 6.59238 0
M  V30 12440 N 1163.26 -1.53291 -0.366026 0
M  V30 12441 C 1164.68 -1.43053 -0.707669 0
M  V30 12442 C 1164.88 -0.56925 -1.93292 0
M  V30 12443 O 1163.94 -0.0515214 -2.52447 0
M  V30 12444 C 1165.25 -2.86239 -0.921292 0
M  V30 12445 C 1166.8 -2.95868 -1.02133 0
M  V30 12446 C 1167.27 -4.40114 -1.26743 0
M  V30 12447 N 1168.76 -4.43541 -1.33514 0
M  V30 12448 C 1169.5 -5.52259 -1.54264 0
M  V30 12449 N 1168.99 -6.71024 -1.72335 0
M  V30 12450 N 1170.79 -5.39836 -1.5663 0
M  V30 12451 H 1162.94 -2.07795 0.43988 0
M  V30 12452 H 1165.2 -0.938376 0.134736 0
M  V30 12453 H 1164.91 -3.51578 -0.0928042 0
M  V30 12454 H 1164.78 -3.29862 -1.82951 0
M  V30 12455 H 1167.17 -2.30683 -1.84036 0
M  V30 12456 H 1167.25 -2.5564 -0.0905097 0
M  V30 12457 H 1166.89 -5.05872 -0.453409 0
M  V30 12458 H 1166.82 -4.77914 -2.21146 0
M  V30 12459 H 1169.31 -3.57949 -1.21165 0
M  V30 12460 H 1169.63 -7.49649 -1.8774 0
M  V30 12461 H 1167.97 -6.7401 -1.69514 0
M  V30 12462 H 1171.16 -4.46017 -1.4208 0
M  V30 12463 H 1171.34 -6.24629 -1.72461 0
M  V30 12464 N 1164.74 0.6258 -1.44643 0
M  V30 12465 C 1165.97 1.41233 -1.51198 0
M  V30 12466 C 1166.39 1.88291 -0.138572 0
M  V30 12467 O 1165.74 1.61151 0.856537 0
M  V30 12468 C 1165.79 2.62908 -2.48117 0
M  V30 12469 O 1165.51 2.1781 -3.80119 0
M  V30 12470 C 1167.02 3.55976 -2.6419 0
M  V30 12471 H 1164.24 0.432954 -0.512632 0
M  V30 12472 H 1166.78 0.76486 -1.89658 0
M  V30 12473 H 1164.93 3.23735 -2.12778 0
M  V30 12474 H 1165.35 2.96732 -4.32493 0
M  V30 12475 H 1166.82 4.37943 -3.3602 0
M  V30 12476 H 1167.3 4.05133 -1.696 0
M  V30 12477 H 1167.91 3.01014 -3.00451 0
M  V30 12478 N 1166.22 1.31629 0.866686 0
M  V30 12479 C 1167.17 1.19556 1.97421 0
M  V30 12480 C 1168.14 0.0805578 1.65905 0
M  V30 12481 O 1169.32 0.253997 1.89102 0
M  V30 12482 C 1166.46 0.912234 3.32825 0
M  V30 12483 C 1165.58 2.11088 3.76916 0
M  V30 12484 C 1164.71 1.76406 5.01053 0
M  V30 12485 C 1163.75 2.9266 5.37602 0
M  V30 12486 N 1162.89 2.58152 6.52918 0
M  V30 12487 H 1167.73 2.14294 2.0708 0
M  V30 12488 H 1165.26 1.06595 1.0137 0
M  V30 12489 H 1167.22 0.72851 4.1079 0
M  V30 12490 H 1165.85 0.00167404 3.228 0
M  V30 12491 H 1164.9 2.40527 2.94705 0
M  V30 12492 H 1166.22 2.98089 3.99931 0
M  V30 12493 H 1165.37 1.54515 5.86694 0
M  V30 12494 H 1164.11 0.866018 4.79949 0
M  V30 12495 H 1163.11 3.15196 4.50479 0
M  V30 12496 H 1164.34 3.83179 5.6067 0
M  V30 12497 H 1162.28 1.70874 6.33355 0
M  V30 12498 H 1162.2 3.38682 6.75892 0
M  V30 12499 H 1163.47 2.39662 7.41743 0
M  V30 12500 N 1167.7 -1.08142 1.14644 0
M  V30 12501 C 1168.95 -1.79959 0.910908 0
M  V30 12502 C 1169.26 -1.87296 -0.563866 0
M  V30 12503 O 1170.47 -2.55555 -0.916735 0
M  V30 12504 C 1168.92 -3.23351 1.58025 0
M  V30 12505 C 1168.53 -3.2424 3.09148 0
M  V30 12506 C 1170.28 -3.99834 1.42595 0
M  V30 12507 C 1168.18 -4.62236 3.68906 0
M  V30 12508 H 1167.11 -0.674423 0.33715 0
M  V30 12509 H 1169.76 -1.21441 1.37566 0
M  V30 12510 H 1168.15 -3.82013 1.04318 0
M  V30 12511 H 1169.32 -2.75269 3.69545 0
M  V30 12512 H 1167.63 -2.61253 3.24246 0
M  V30 12513 H 1170.23 -5.01809 1.8464 0
M  V30 12514 H 1170.57 -4.14631 0.372402 0
M  V30 12515 H 1171.11 -3.47648 1.93354 0
M  V30 12516 H 1167.85 -4.52642 4.74126 0
M  V30 12517 H 1167.37 -5.11477 3.1329 0
M  V30 12518 H 1169.05 -5.3121 3.69358 0
M  V30 12519 N 1169.18 -0.941978 -1.26351 0
M  V30 12520 C 1170.09 -0.45833 -2.30079 0
M  V30 12521 C 1171.1 0.468084 -1.67586 0
M  V30 12522 O 1172.28 0.347418 -1.98381 0
M  V30 12523 C 1169.34 0.26797 -3.45663 0
M  V30 12524 C 1168.41 -0.695102 -4.23635 0
M  V30 12525 C 1167.64 -0.003369 -5.337 0
M  V30 12526 O 1167.86 1.21342 -5.57344 0
M  V30 12527 O 1166.8 -0.682476 -5.98018 0
M  V30 12528 H 1170.62 -1.31998 -2.73514 0
M  V30 12529 H 1168.21 -0.707897 -1.31564 0
M  V30 12530 H 1170.09 0.677061 -4.15925 0
M  V30 12531 H 1168.76 1.105 -3.04256 0
M  V30 12532 H 1167.67 -1.15415 -3.55851 0
M  V30 12533 H 1169 -1.49977 -4.68794 0
M  V30 12534 N 1170.66 1.40747 -0.709091 0
M  V30 12535 C 1171.57 2.3454 -0.0532205 0
M  V30 12536 C 1172.58 1.56956 0.751057 0
M  V30 12537 O 1173.76 1.89375 0.685509 0
M  V30 12538 C 1170.82 3.35809 0.862157 0
M  V30 12539 C 1169.88 4.29273 0.0485632 0
M  V30 12540 C 1169.12 5.25705 0.920345 0
M  V30 12541 O 1169.34 5.27933 2.15969 0
M  V30 12542 O 1168.27 6.00806 0.3628 0
M  V30 12543 H 1172.1 2.92232 -0.826698 0
M  V30 12544 H 1169.68 1.4183 -0.469519 0
M  V30 12545 H 1171.57 3.97931 1.38668 0
M  V30 12546 H 1170.24 2.8054 1.61489 0
M  V30 12547 H 1169.15 3.70456 -0.520873 0
M  V30 12548 H 1170.48 4.87676 -0.665807 0
M  V30 12549 N 1172.13 0.454803 1.50895 0
M  V30 12550 C 1173.06 -0.337982 2.31041 0
M  V30 12551 C 1174.04 -1.00523 1.37219 0
M  V30 12552 O 1175.23 -1.00553 1.66141 0
M  V30 12553 C 1172.36 -1.42964 3.1651 0
M  V30 12554 C 1171.31 -0.884907 4.18752 0
M  V30 12555 C 1170.64 -2.07363 4.92854 0
M  V30 12556 C 1171.94 0.0926716 5.22218 0
M  V30 12557 H 1173.63 0.33089 2.97566 0
M  V30 12558 H 1171.18 0.160577 1.43102 0
M  V30 12559 H 1173.13 -1.9916 3.71367 0
M  V30 12560 H 1171.86 -2.12705 2.47839 0
M  V30 12561 H 1170.52 -0.345031 3.64973 0
M  V30 12562 H 1170.16 -2.75764 4.2067 0
M  V30 12563 H 1169.86 -1.71545 5.62002 0
M  V30 12564 H 1171.39 -2.6408 5.5054 0
M  V30 12565 H 1172.8 -0.379568 5.72042 0
M  V30 12566 H 1171.2 0.3643 5.98993 0
M  V30 12567 H 1172.27 1.02383 4.73968 0
M  V30 12568 N 1173.61 -1.56489 0.186789 0
M  V30 12569 C 1175.03 -1.58701 -0.169176 0
M  V30 12570 C 1175.23 -1.2027 -1.61671 0
M  V30 12571 O 1174.28 -0.92154 -2.35083 0
M  V30 12572 C 1175.6 -3.00437 0.125657 0
M  V30 12573 C 1177.14 -3.12932 0.0651 0
M  V30 12574 C 1177.62 -4.56787 0.333131 0
M  V30 12575 N 1179.11 -4.62344 0.281453 0
M  V30 12576 C 1179.85 -5.71529 0.462805 0
M  V30 12577 N 1179.34 -6.89213 0.704054 0
M  V30 12578 N 1181.13 -5.60692 0.397636 0
M  V30 12579 H 1173.29 -1.79754 1.13148 0
M  V30 12580 H 1175.55 -0.83385 0.450997 0
M  V30 12581 H 1175.25 -3.33086 1.12901 0
M  V30 12582 H 1175.13 -3.72782 -0.575612 0
M  V30 12583 H 1177.52 -2.80101 -0.928845 0
M  V30 12584 H 1177.6 -2.42991 0.799318 0
M  V30 12585 H 1177.24 -4.9033 1.32436 0
M  V30 12586 H 1177.17 -5.24907 -0.421879 0
M  V30 12587 H 1179.66 -3.77764 0.101266 0
M  V30 12588 H 1179.97 -7.68314 0.831468 0
M  V30 12589 H 1178.32 -6.9104 0.740851 0
M  V30 12590 H 1181.51 -4.6763 0.20964 0
M  V30 12591 H 1181.68 -6.45726 0.54239 0
M  V30 12592 N 1175.09 0.086862 -1.5736 0
M  V30 12593 C 1176.02 1.13117 -1.99342 0
M  V30 12594 C 1177.03 1.35849 -0.897151 0
M  V30 12595 O 1178.22 1.34356 -1.17519 0
M  V30 12596 C 1175.32 2.48511 -2.30425 0
M  V30 12597 C 1174.5 2.45942 -3.61706 0
M  V30 12598 C 1173.56 3.63327 -3.80631 0
M  V30 12599 O 1172.58 3.45443 -4.52392 0
M  V30 12600 N 1173.78 4.83118 -3.21835 0
M  V30 12601 H 1176.55 0.773782 -2.89539 0
M  V30 12602 H 1174.11 0.275731 -1.59535 0
M  V30 12603 H 1176.1 3.25656 -2.40272 0
M  V30 12604 H 1174.67 2.76308 -1.46194 0
M  V30 12605 H 1173.89 1.54287 -3.62752 0
M  V30 12606 H 1175.18 2.41313 -4.47935 0
M  V30 12607 H 1174.58 5.00552 -2.6356 0
M  V30 12608 H 1173.13 5.57827 -3.37154 0
M  V30 12609 N 1176.57 1.53483 0.357892 0
M  V30 12610 C 1177.52 1.76843 1.43911 0
M  V30 12611 C 1178.5 0.623178 1.48342 0
M  V30 12612 O 1179.69 0.882102 1.53453 0
M  V30 12613 C 1176.82 1.96865 2.81246 0
M  V30 12614 C 1175.91 3.17414 2.81263 0
M  V30 12615 N 1176.3 4.39172 2.50921 0
M  V30 12616 C 1174.6 3.18292 3.1242 0
M  V30 12617 C 1175.3 5.20953 2.58811 0
M  V30 12618 N 1174.27 4.57338 2.93841 0
M  V30 12619 H 1178.08 2.68586 1.19327 0
M  V30 12620 H 1175.59 1.52212 0.566142 0
M  V30 12621 H 1177.59 2.11731 3.59132 0
M  V30 12622 H 1176.25 1.06355 3.06788 0
M  V30 12623 H 1177.26 4.66772 2.24376 0
M  V30 12624 H 1173.94 2.37702 3.43226 0
M  V30 12625 H 1175.33 6.28095 2.38633 0
M  V30 12626 N 1178.05 -0.61812 1.44973 0
M  V30 12627 C 1178.98 -1.74035 1.55673 0
M  V30 12628 C 1179.96 -1.65112 0.4089 0
M  V30 12629 O 1181.14 -1.83673 0.630698 0
M  V30 12630 C 1178.27 -3.1261 1.51303 0
M  V30 12631 C 1177.23 -3.36334 2.64696 0
M  V30 12632 C 1176.55 -4.75072 2.45378 0
M  V30 12633 C 1177.85 -3.27618 4.06772 0
M  V30 12634 H 1179.55 -1.65336 2.49608 0
M  V30 12635 H 1177.09 -0.794003 1.20132 0
M  V30 12636 H 1179.04 -3.90906 1.57388 0
M  V30 12637 H 1177.77 -3.22123 0.538914 0
M  V30 12638 H 1176.43 -2.60423 2.58022 0
M  V30 12639 H 1176.08 -4.81306 1.46129 0
M  V30 12640 H 1175.78 -4.91903 3.21412 0
M  V30 12641 H 1177.3 -5.55582 2.53301 0
M  V30 12642 H 1178.71 -3.95802 4.14746 0
M  V30 12643 H 1177.11 -3.55981 4.83113 0
M  V30 12644 H 1178.18 -2.25219 4.29423 0
M  V30 12645 N 1179.52 -1.32087 -0.859693 0
M  V30 12646 C 1180.45 -1.23204 -1.98351 0
M  V30 12647 C 1181.43 -0.116974 -1.69697 0
M  V30 12648 O 1182.62 -0.303301 -1.91817 0
M  V30 12649 C 1179.75 -0.949171 -3.34078 0
M  V30 12650 C 1178.7 -2.02493 -3.77069 0
M  V30 12651 C 1178.03 -1.59455 -5.1037 0
M  V30 12652 C 1179.33 -3.43934 -3.93074 0
M  V30 12653 H 1181.02 -2.17227 -2.0604 0
M  V30 12654 H 1178.57 -1.04577 -0.989931 0
M  V30 12655 H 1180.52 -0.873594 -4.12245 0
M  V30 12656 H 1179.25 0.0267095 -3.26589 0
M  V30 12657 H 1177.91 -2.09057 -3.01149 0
M  V30 12658 H 1177.55 -0.606256 -4.99333 0
M  V30 12659 H 1177.25 -2.31429 -5.40106 0
M  V30 12660 H 1178.78 -1.53325 -5.91036 0
M  V30 12661 H 1180.19 -3.39986 -4.61608 0
M  V30 12662 H 1178.59 -4.14214 -4.3422 0
M  V30 12663 H 1179.66 -3.83965 -2.9614 0
M  V30 12664 N 1181 1.07532 -1.15215 0
M  V30 12665 C 1182.42 1.32183 -0.894411 0
M  V30 12666 C 1182.62 1.96188 0.459614 0
M  V30 12667 O 1181.67 2.22057 1.20195 0
M  V30 12668 C 1182.99 2.21473 -2.03397 0
M  V30 12669 C 1184.53 2.34927 -2.06829 0
M  V30 12670 C 1185.01 3.27564 -3.20103 0
M  V30 12671 N 1186.5 3.35144 -3.19738 0
M  V30 12672 C 1187.24 4.0688 -4.04025 0
M  V30 12673 N 1186.73 4.81246 -4.98371 0
M  V30 12674 N 1188.52 4.02802 -3.92055 0
M  V30 12675 H 1180.68 0.643732 -2.0241 0
M  V30 12676 H 1182.94 0.346272 -0.882496 0
M  V30 12677 H 1182.64 1.81701 -3.01127 0
M  V30 12678 H 1182.52 3.2199 -1.96475 0
M  V30 12679 H 1184.91 2.73953 -1.09699 0
M  V30 12680 H 1184.99 1.34121 -2.17819 0
M  V30 12681 H 1184.63 2.89258 -4.17483 0
M  V30 12682 H 1184.56 4.2832 -3.06349 0
M  V30 12683 H 1187.05 2.82135 -2.51412 0
M  V30 12684 H 1187.36 5.33472 -5.59131 0
M  V30 12685 H 1185.71 4.80268 -5.02362 0
M  V30 12686 H 1188.9 3.43816 -3.17661 0
M  V30 12687 H 1189.07 4.58443 -4.57967 0
M  V30 12688 N 1182.48 0.948665 1.2585 0
M  V30 12689 C 1183.73 0.610669 1.94016 0
M  V30 12690 C 1184.08 -0.842181 1.72989 0
M  V30 12691 O 1183.37 -1.59556 1.06078 0
M  V30 12692 C 1183.57 0.89784 3.45939 0
M  V30 12693 C 1183.4 2.37705 3.81741 0
M  V30 12694 C 1182.17 3.03355 4.04109 0
M  V30 12695 C 1184.37 3.35602 3.89712 0
M  V30 12696 N 1182.35 4.41211 4.26856 0
M  V30 12697 C 1183.72 4.58743 4.17079 0
M  V30 12698 C 1185.77 3.30523 3.72369 0
M  V30 12699 C 1184.48 5.77436 4.28906 0
M  V30 12700 C 1186.5 4.48548 3.85433 0
M  V30 12701 C 1185.86 5.70474 4.13205 0
M  V30 12702 H 1181.96 0.273966 0.732439 0
M  V30 12703 H 1184.55 1.21961 1.51768 0
M  V30 12704 H 1182.72 0.317878 3.87097 0
M  V30 12705 H 1184.45 0.520353 4.01341 0
M  V30 12706 H 1181.21 2.53947 3.9976 0
M  V30 12707 H 1181.63 5.12589 4.42247 0
M  V30 12708 H 1186.27 2.3731 3.4992 0
M  V30 12709 H 1183.99 6.71095 4.50174 0
M  V30 12710 H 1187.58 4.46159 3.73408 0
M  V30 12711 H 1186.46 6.60277 4.23088 0
M  V30 12712 N 1183.96 -1.40369 0.716545 0
M  V30 12713 C 1185.21 -2.00473 0.255959 0
M  V30 12714 C 1185.53 -1.57104 -1.15514 0
M  V30 12715 O 1184.8 -0.810925 -1.78328 0
M  V30 12716 H 1183.38 -0.741357 0.0916427 0
M  V30 12717 H 1186.04 -1.71692 0.922389 0
M  V30 12718 H 1185.14 -3.10752 0.289806 0
M  V30 12719 N 1185.44 -0.462799 -1.50652 0
M  V30 12720 C 1186.68 0.0950445 -2.02277 0
M  V30 12721 C 1187.01 1.40465 -1.34536 0
M  V30 12722 O 1186.27 1.90283 -0.457279 0
M  V30 12723 C 1186.57 0.335294 -3.55824 0
M  V30 12724 C 1186.23 -0.891589 -4.41997 0
M  V30 12725 C 1184.89 -1.22799 -4.65268 0
M  V30 12726 C 1187.25 -1.70885 -4.9239 0
M  V30 12727 C 1184.57 -2.38186 -5.36175 0
M  V30 12728 C 1186.93 -2.85394 -5.64564 0
M  V30 12729 C 1185.59 -3.19458 -5.86091 0
M  V30 12730 H 1184.86 0.0347793 -0.740183 0
M  V30 12731 H 1187.51 -0.61519 -1.8135 0
M  V30 12732 H 1185.81 1.12769 -3.7522 0
M  V30 12733 H 1187.51 0.780752 -3.93326 0
M  V30 12734 H 1184.1 -0.619495 -4.24099 0
M  V30 12735 H 1188.28 -1.46215 -4.74273 0
M  V30 12736 H 1183.54 -2.64862 -5.51052 0
M  V30 12737 H 1187.71 -3.49073 -6.02595 0
M  V30 12738 H 1185.34 -4.08978 -6.40813 0
M  V30 12739 N 1186.91 1.56388 -0.195085 0
M  V30 12740 C 1188.14 2.01963 0.449289 0
M  V30 12741 C 1188.56 1.07522 1.55192 0
M  V30 12742 O 1187.91 0.0800915 1.82324 0
M  V30 12743 C 1187.97 3.47231 1.00561 0
M  V30 12744 O 1187.69 4.38068 -0.0530241 0
M  V30 12745 C 1189.19 4.08324 1.72587 0
M  V30 12746 H 1186.41 0.661452 0.112792 0
M  V30 12747 H 1188.95 2.02231 -0.303788 0
M  V30 12748 H 1187.11 3.47663 1.70907 0
M  V30 12749 H 1187.52 5.23256 0.361076 0
M  V30 12750 H 1188.99 5.11821 2.06744 0
M  V30 12751 H 1189.47 3.51782 2.62956 0
M  V30 12752 H 1190.08 4.11665 1.06826 0
M  V30 12753 N 1188.39 -0.0785156 1.57404 0
M  V30 12754 C 1189.62 -0.792042 1.9114 0
M  V30 12755 C 1190.04 -1.71458 0.790408 0
M  V30 12756 O 1189.39 -1.80959 -0.236662 0
M  V30 12757 C 1189.44 -1.59138 3.24588 0
M  V30 12758 O 1189.16 -0.705931 4.32375 0
M  V30 12759 C 1190.67 -2.4065 3.72293 0
M  V30 12760 H 1187.89 -0.225566 0.63195 0
M  V30 12761 H 1190.43 -0.0507929 2.04437 0
M  V30 12762 H 1188.58 -2.28498 3.12838 0
M  V30 12763 H 1189 -1.26121 5.09111 0
M  V30 12764 H 1190.47 -2.92204 4.68317 0
M  V30 12765 H 1190.95 -3.1987 3.00965 0
M  V30 12766 H 1191.56 -1.7646 3.86965 0
M  V30 12767 N 1189.87 -1.5367 -0.349747 0
M  V30 12768 C 1191.28 -1.62135 -0.925704 0
M  V30 12769 C 1191.63 -0.498725 -1.89756 0
M  V30 12770 O 1190.76 0.372481 -2.1317 0
M  V30 12771 C 1191.35 -2.93885 -1.68573 0
M  V30 12772 C 1189.91 -3.04632 -2.2108 0
M  V30 12773 C 1189.06 -2.57541 -1.02801 0
M  V30 12774 H 1192.01 -1.58182 -0.128065 0
M  V30 12775 H 1192.03 -2.82577 -2.54815 0
M  V30 12776 H 1191.54 -3.75571 -0.978153 0
M  V30 12777 H 1189.64 -2.27567 -2.95032 0
M  V30 12778 H 1189.76 -4.09993 -2.47876 0
M  V30 12779 H 1188.12 -2.12798 -1.39962 0
M  V30 12780 H 1188.9 -3.4166 -0.335157 0
M  V30 12781 N 1191.35 0.610423 -1.45298 0
M  V30 12782 C 1192.63 1.36966 -1.39641 0
M  V30 12783 C 1193.01 2.10998 -0.0655757 0
M  V30 12784 O 1192.35 2.07705 0.952407 0
M  V30 12785 C 1192.56 2.31885 -2.60826 0
M  V30 12786 C 1193.91 2.9458 -3.05791 0
M  V30 12787 O 1194.94 2.42207 -2.61179 0
M  V30 12788 O 1193.79 3.89639 -3.83202 0
M  V30 12789 H 1190.89 0.61401 -0.554004 0
M  V30 12790 H 1193.43 0.633748 -1.57422 0
M  V30 12791 H 1192.21 1.76421 -3.49272 0
M  V30 12792 H 1191.83 3.12861 -2.45364 0
M  V30 12793 N 1192.83 1.32541 0.852676 0
M  V30 12794 C 1193.77 1.21643 1.96142 0
M  V30 12795 C 1194.74 0.0981496 1.6581 0
M  V30 12796 O 1195.93 0.27404 1.88822 0
M  V30 12797 C 1193.07 0.947483 3.31838 0
M  V30 12798 C 1192.18 2.15074 3.74656 0
M  V30 12799 C 1191.32 1.81711 4.99154 0
M  V30 12800 C 1190.36 2.98346 5.34468 0
M  V30 12801 N 1189.49 2.65062 6.50143 0
M  V30 12802 H 1194.33 2.16479 2.04795 0
M  V30 12803 H 1191.87 1.07664 1.00234 0
M  V30 12804 H 1193.83 0.772038 4.09994 0
M  V30 12805 H 1192.46 0.0359112 3.2278 0
M  V30 12806 H 1191.51 2.43639 2.92137 0
M  V30 12807 H 1192.82 3.02314 3.96747 0
M  V30 12808 H 1191.98 1.60729 5.85022 0
M  V30 12809 H 1190.71 0.916875 4.79004 0
M  V30 12810 H 1189.72 3.19956 4.47111 0
M  V30 12811 H 1190.94 3.89104 5.56574 0
M  V30 12812 H 1188.89 1.77582 6.31507 0
M  V30 12813 H 1188.81 3.45832 6.72262 0
M  V30 12814 H 1190.08 2.47516 7.39159 0
M  V30 12815 N 1194.3 -1.0692 1.15784 0
M  V30 12816 C 1195.25 -2.14235 0.858616 0
M  V30 12817 C 1196.22 -1.65006 -0.190295 0
M  V30 12818 O 1197.41 -1.90715 -0.0568853 0
M  V30 12819 C 1194.55 -3.43229 0.35888 0
M  V30 12820 C 1193.66 -4.06225 1.46987 0
M  V30 12821 C 1192.79 -5.2307 0.925812 0
M  V30 12822 C 1191.83 -5.78037 2.01345 0
M  V30 12823 N 1190.97 -6.86206 1.48544 0
M  V30 12824 H 1195.81 -2.3917 1.77769 0
M  V30 12825 H 1193.35 -1.17354 0.886925 0
M  V30 12826 H 1195.31 -4.17169 0.0508198 0
M  V30 12827 H 1193.94 -3.18531 -0.523259 0
M  V30 12828 H 1192.99 -3.29895 1.89403 0
M  V30 12829 H 1194.3 -4.43081 2.29088 0
M  V30 12830 H 1193.45 -6.04011 0.570555 0
M  V30 12831 H 1192.19 -4.87644 0.0740371 0
M  V30 12832 H 1191.2 -4.95738 2.37748 0
M  V30 12833 H 1192.42 -6.15517 2.86907 0
M  V30 12834 H 1190.37 -6.52711 0.656092 0
M  V30 12835 H 1190.29 -7.2197 2.24266 0
M  V30 12836 H 1191.55 -7.70842 1.15856 0
M  V30 12837 N 1195.78 -0.955326 -1.25345 0
M  V30 12838 C 1196.73 -0.446792 -2.23579 0
M  V30 12839 C 1197.72 0.464354 -1.54054 0
M  V30 12840 O 1198.91 0.297293 -1.74485 0
M  V30 12841 C 1196.04 0.273533 -3.42209 0
M  V30 12842 C 1195.12 -0.655722 -4.19 0
M  V30 12843 N 1195.51 -1.78766 -4.73156 0
M  V30 12844 C 1193.81 -0.464059 -4.43579 0
M  V30 12845 C 1194.51 -2.36789 -5.31324 0
M  V30 12846 N 1193.49 -1.65435 -5.17815 0
M  V30 12847 H 1197.29 -1.31065 -2.63057 0
M  V30 12848 H 1194.81 -0.812899 -1.40591 0
M  V30 12849 H 1196.8 0.654986 -4.11723 0
M  V30 12850 H 1195.46 1.13399 -3.04254 0
M  V30 12851 H 1196.47 -2.1695 -4.70269 0
M  V30 12852 H 1193.15 0.353459 -4.16001 0
M  V30 12853 H 1194.54 -3.32242 -5.84008 0
M  V30 12854 N 1197.26 1.39987 -0.723979 0
M  V30 12855 C 1198.19 2.2917 -0.0373445 0
M  V30 12856 C 1199.21 1.46258 0.715015 0
M  V30 12857 O 1200.4 1.69455 0.561003 0
M  V30 12858 C 1197.5 3.2468 0.971384 0
M  V30 12859 C 1196.67 4.36485 0.282826 0
M  V30 12860 C 1195.73 5.12379 1.19811 0
M  V30 12861 O 1194.75 5.65127 0.67974 0
M  V30 12862 N 1195.96 5.22531 2.52866 0
M  V30 12863 H 1198.72 2.88738 -0.803131 0
M  V30 12864 H 1196.28 1.51448 -0.572292 0
M  V30 12865 H 1198.27 3.72326 1.58606 0
M  V30 12866 H 1196.84 2.6622 1.63846 0
M  V30 12867 H 1196.06 3.90859 -0.512167 0
M  V30 12868 H 1197.35 5.08427 -0.194793 0
M  V30 12869 H 1196.75 4.81174 2.97469 0
M  V30 12870 H 1195.31 5.73655 3.09457 0
M  V30 12871 N 1198.74 0.470782 1.50404 0
M  V30 12872 C 1199.69 -0.32355 2.28521 0
M  V30 12873 C 1200.66 -0.987472 1.3356 0
M  V30 12874 O 1201.84 -0.999969 1.62497 0
M  V30 12875 C 1198.98 -1.39977 3.15437 0
M  V30 12876 C 1198.09 -0.750656 4.25428 0
M  V30 12877 C 1197.23 -1.80474 4.99602 0
M  V30 12878 C 1196.27 -1.13586 6.01469 0
M  V30 12879 N 1195.41 -2.13279 6.68922 0
M  V30 12880 H 1200.25 0.348902 2.9595 0
M  V30 12881 H 1197.78 0.183908 1.45946 0
M  V30 12882 H 1199.74 -2.0354 3.6418 0
M  V30 12883 H 1198.37 -2.04139 2.50054 0
M  V30 12884 H 1197.42 -0.00247092 3.804 0
M  V30 12885 H 1198.73 -0.222638 4.98303 0
M  V30 12886 H 1197.89 -2.51619 5.52062 0
M  V30 12887 H 1196.63 -2.36657 4.26433 0
M  V30 12888 H 1195.63 -0.410042 5.48269 0
M  V30 12889 H 1196.86 -0.580935 6.76611 0
M  V30 12890 H 1194.8 -2.68479 5.98544 0
M  V30 12891 H 1194.72 -1.65461 7.37671 0
M  V30 12892 H 1195.99 -2.83804 7.26 0
M  V30 12893 N 1200.22 -1.56282 0.203376 0
M  V30 12894 C 1201.13 -2.23086 -0.725922 0
M  V30 12895 C 1202.14 -1.23258 -1.22814 0
M  V30 12896 O 1203.32 -1.5602 -1.27357 0
M  V30 12897 C 1200.38 -2.88358 -1.92485 0
M  V30 12898 C 1199.45 -4.03479 -1.46639 0
M  V30 12899 C 1198.68 -4.65629 -2.60816 0
M  V30 12900 O 1198.9 -4.2672 -3.78506 0
M  V30 12901 O 1197.84 -5.54949 -2.33056 0
M  V30 12902 H 1201.66 -3.03124 -0.18694 0
M  V30 12903 H 1199.25 -1.49377 -0.0262829 0
M  V30 12904 H 1201.13 -3.29623 -2.62539 0
M  V30 12905 H 1199.8 -2.11294 -2.45228 0
M  V30 12906 H 1198.71 -3.66821 -0.734396 0
M  V30 12907 H 1200.04 -4.82232 -0.985535 0
M  V30 12908 N 1201.7 0.070167 -1.57444 0
M  V30 12909 C 1203.11 0.621805 -1.76041 0
M  V30 12910 C 1203.46 1.77824 -0.829047 0
M  V30 12911 O 1202.58 2.16396 -0.0135453 0
M  V30 12912 C 1203.18 1.13476 -3.19231 0
M  V30 12913 C 1201.74 1.63225 -3.39167 0
M  V30 12914 C 1200.88 0.552369 -2.71743 0
M  V30 12915 H 1203.83 -0.156009 -1.57931 0
M  V30 12916 H 1203.86 2.00352 -3.2348 0
M  V30 12917 H 1203.37 0.29288 -3.86993 0
M  V30 12918 H 1201.47 2.49733 -2.76522 0
M  V30 12919 H 1201.58 1.70807 -4.47618 0
M  V30 12920 H 1199.95 0.997797 -2.34342 0
M  V30 12921 H 1200.73 -0.279354 -3.42162 0
M  V30 12922 N 1203.17 1.53854 0.341593 0
M  V30 12923 C 1204.58 1.62623 0.917093 0
M  V30 12924 C 1204.94 0.508781 1.89488 0
M  V30 12925 O 1204.06 -0.361171 2.13365 0
M  V30 12926 C 1204.66 2.94775 1.67012 0
M  V30 12927 C 1203.21 3.058 2.19461 0
M  V30 12928 C 1202.36 2.58082 1.01433 0
M  V30 12929 H 1205.31 1.58248 0.119674 0
M  V30 12930 H 1205.33 2.83924 2.53313 0
M  V30 12931 H 1204.85 3.76085 0.958221 0
M  V30 12932 H 1202.95 2.29128 2.93821 0
M  V30 12933 H 1203.06 4.11302 2.45698 0
M  V30 12934 H 1201.42 2.13537 1.38831 0
M  V30 12935 H 1202.21 3.41833 0.317033 0
M  V30 12936 N 1204.65 -0.602709 1.4562 0
M  V30 12937 C 1205.9 -1.36158 1.49891 0
M  V30 12938 C 1206.23 -1.93977 0.142581 0
M  V30 12939 O 1205.48 -1.75822 -0.859374 0
M  V30 12940 C 1205.78 -2.52474 2.52966 0
M  V30 12941 C 1205.45 -2.12772 3.97541 0
M  V30 12942 C 1204.11 -2.01658 4.36907 0
M  V30 12943 C 1206.46 -1.8186 4.88443 0
M  V30 12944 C 1203.79 -1.57862 5.65063 0
M  V30 12945 C 1206.14 -1.39548 6.17016 0
M  V30 12946 C 1204.8 -1.26997 6.55308 0
M  V30 12947 H 1204.07 -0.498236 0.54849 0
M  V30 12948 H 1206.72 -0.680738 1.78992 0
M  V30 12949 H 1205.03 -3.25917 2.17452 0
M  V30 12950 H 1206.72 -3.10701 2.53507 0
M  V30 12951 H 1203.31 -2.22349 3.66413 0
M  V30 12952 H 1207.5 -1.89341 4.58763 0
M  V30 12953 H 1202.75 -1.46771 5.93522 0
M  V30 12954 H 1206.93 -1.14677 6.86893 0
M  V30 12955 H 1204.55 -0.928346 7.5451 0
M  V30 12956 N 1206.13 -1.32992 -0.845635 0
M  V30 12957 C 1207.06 -1.25301 -1.97033 0
M  V30 12958 C 1208.04 -0.134966 -1.69564 0
M  V30 12959 O 1209.23 -0.323629 -1.91484 0
M  V30 12960 C 1206.36 -0.984551 -3.33052 0
M  V30 12961 C 1205.31 -2.06481 -3.749 0
M  V30 12962 C 1204.64 -1.6486 -5.08651 0
M  V30 12963 C 1205.94 -3.48083 -3.89404 0
M  V30 12964 H 1207.63 -2.194 -2.03725 0
M  V30 12965 H 1205.18 -1.05621 -0.978783 0
M  V30 12966 H 1207.13 -0.917269 -4.11296 0
M  V30 12967 H 1205.85 -0.00793116 -3.26599 0
M  V30 12968 H 1204.51 -2.1224 -2.98915 0
M  V30 12969 H 1204.16 -0.659183 -4.98662 0
M  V30 12970 H 1203.86 -2.37145 -5.37621 0
M  V30 12971 H 1205.38 -1.59585 -5.89377 0
M  V30 12972 H 1206.8 -3.44863 -4.57976 0
M  V30 12973 H 1205.19 -4.18796 -4.29802 0
M  V30 12974 H 1206.26 -3.87084 -2.92051 0
M  V30 12975 N 1207.61 1.06304 -1.1635 0
M  V30 12976 C 1208.85 1.79516 -0.956328 0
M  V30 12977 C 1209.21 1.85506 0.510438 0
M  V30 12978 O 1208.5 1.33556 1.37381 0
M  V30 12979 C 1208.7 3.23589 -1.51741 0
M  V30 12980 C 1208.52 3.31639 -3.0372 0
M  V30 12981 C 1207.29 3.41579 -3.7236 0
M  V30 12982 C 1209.49 3.2151 -4.01417 0
M  V30 12983 N 1207.47 3.38643 -5.12049 0
M  V30 12984 C 1208.85 3.25815 -5.27489 0
M  V30 12985 C 1210.9 3.05393 -3.93242 0
M  V30 12986 C 1209.6 3.1566 -6.46337 0
M  V30 12987 C 1211.63 2.96577 -5.1166 0
M  V30 12988 C 1210.99 3.01504 -6.36612 0
M  V30 12989 H 1207.09 0.669727 -0.40372 0
M  V30 12990 H 1209.67 1.2681 -1.4774 0
M  V30 12991 H 1207.85 3.7469 -1.02282 0
M  V30 12992 H 1209.58 3.84977 -1.248 0
M  V30 12993 H 1206.33 3.46371 -3.22992 0
M  V30 12994 H 1206.76 3.40674 -5.85038 0
M  V30 12995 H 1211.4 3.0043 -2.97492 0
M  V30 12996 H 1209.12 3.1938 -7.42308 0
M  V30 12997 H 1212.7 2.85195 -5.07105 0
M  V30 12998 H 1211.58 2.9474 -7.26704 0
M  V30 12999 N 1209.09 0.96196 1.24836 0
M  V30 13000 C 1210.02 0.432188 2.2407 0
M  V30 13001 C 1211 -0.490539 1.55024 0
M  V30 13002 O 1212.18 -0.423236 1.83687 0
M  V30 13003 C 1209.31 -0.37673 3.36598 0
M  V30 13004 C 1208.35 0.48745 4.23705 0
M  V30 13005 S 1209.19 1.92417 4.99736 0
M  V30 13006 C 1210.34 1.12388 6.15727 0
M  V30 13007 H 1210.58 1.27315 2.6866 0
M  V30 13008 H 1208.11 0.766568 1.34026 0
M  V30 13009 H 1210.07 -0.837488 4.01866 0
M  V30 13010 H 1208.73 -1.1926 2.90579 0
M  V30 13011 H 1207.92 -0.133338 5.03824 0
M  V30 13012 H 1207.52 0.883707 3.6341 0
M  V30 13013 H 1209.81 0.376097 6.76455 0
M  V30 13014 H 1210.76 1.89924 6.82154 0
M  V30 13015 H 1211.17 0.650779 5.60736 0
M  V30 13016 N 1210.56 -1.39601 0.731392 0
M  V30 13017 C 1211.81 -2.0019 0.277208 0
M  V30 13018 C 1212.13 -1.5832 -1.13841 0
M  V30 13019 O 1211.4 -0.829793 -1.77458 0
M  V30 13020 H 1209.98 -0.740344 0.0995006 0
M  V30 13021 H 1212.64 -1.70704 0.940547 0
M  V30 13022 H 1211.74 -3.10427 0.322749 0
M  V30 13023 N 1212.04 -0.478751 -1.50152 0
M  V30 13024 C 1213.27 0.0709455 -2.06478 0
M  V30 13025 C 1213.68 1.33376 -1.34192 0
M  V30 13026 O 1213.02 1.79133 -0.40707 0
M  V30 13027 C 1213.09 0.417322 -3.5707 0
M  V30 13028 C 1212.75 -0.744563 -4.50894 0
M  V30 13029 C 1213.75 -1.62879 -4.93727 0
M  V30 13030 C 1211.43 -0.937062 -4.93482 0
M  V30 13031 C 1213.43 -2.68985 -5.77863 0
M  V30 13032 C 1211.11 -2.00134 -5.77399 0
M  V30 13033 C 1212.11 -2.87609 -6.19492 0
M  V30 13034 O 1211.8 -3.92203 -7.01735 0
M  V30 13035 H 1211.53 -0.00720177 -0.675962 0
M  V30 13036 H 1214.08 -0.668797 -1.94207 0
M  V30 13037 H 1212.31 1.21036 -3.6727 0
M  V30 13038 H 1214 0.903002 -3.95728 0
M  V30 13039 H 1214.77 -1.49179 -4.61488 0
M  V30 13040 H 1210.65 -0.265636 -4.60234 0
M  V30 13041 H 1214.19 -3.37293 -6.10639 0
M  V30 13042 H 1210.09 -2.13837 -6.09052 0
M  V30 13043 H 1210.86 -3.89284 -7.2 0
M  V30 13044 N 1213.52 1.56172 -0.211661 0
M  V30 13045 C 1214.43 2.23468 0.714081 0
M  V30 13046 C 1215.45 1.23908 1.22159 0
M  V30 13047 O 1216.62 1.56693 1.26528 0
M  V30 13048 C 1213.69 2.89375 1.90953 0
M  V30 13049 C 1212.75 4.04251 1.44497 0
M  V30 13050 C 1211.98 4.67006 2.58343 0
M  V30 13051 O 1212.2 4.28721 3.76237 0
M  V30 13052 O 1211.14 5.56177 2.3011 0
M  V30 13053 H 1214.96 3.03219 0.170862 0
M  V30 13054 H 1212.55 1.49389 0.0183607 0
M  V30 13055 H 1214.43 3.3101 2.60787 0
M  V30 13056 H 1213.11 2.12591 2.44104 0
M  V30 13057 H 1212.01 3.67205 0.714932 0
M  V30 13058 H 1213.35 4.82748 0.959947 0
M  V30 13059 N 1215 -0.0618163 1.57479 0
M  V30 13060 C 1215.93 -1.07252 2.07411 0
M  V30 13061 C 1216.91 -1.39756 0.969649 0
M  V30 13062 O 1218.09 -1.4921 1.24298 0
M  V30 13063 C 1215.22 -2.38313 2.52635 0
M  V30 13064 C 1214.18 -2.20136 3.67048 0
M  V30 13065 C 1213.5 -3.56668 3.98361 0
M  V30 13066 C 1214.8 -1.61437 4.96725 0
M  V30 13067 H 1216.5 -0.656983 2.92103 0
M  V30 13068 H 1214.04 -0.314579 1.40522 0
M  V30 13069 H 1216 -3.09319 2.86181 0
M  V30 13070 H 1214.72 -2.81865 1.64984 0
M  V30 13071 H 1213.38 -1.51569 3.338 0
M  V30 13072 H 1213.03 -3.97809 3.07826 0
M  V30 13073 H 1212.73 -3.45342 4.75408 0
M  V30 13074 H 1214.25 -4.2909 4.34413 0
M  V30 13075 H 1215.67 -2.2232 5.28438 0
M  V30 13076 H 1214.06 -1.60779 5.78161 0
M  V30 13077 H 1215.13 -0.576795 4.81457 0
M  V30 13078 N 1216.48 -1.54033 -0.333429 0
M  V30 13079 C 1217.43 -1.7911 -1.4108 0
M  V30 13080 C 1218.41 -0.646699 -1.47332 0
M  V30 13081 O 1219.6 -0.906403 -1.52031 0
M  V30 13082 C 1216.73 -2.01314 -2.78078 0
M  V30 13083 C 1215.82 -3.21849 -2.76178 0
M  V30 13084 N 1216.21 -4.43109 -2.43903 0
M  V30 13085 C 1214.51 -3.23222 -3.07316 0
M  V30 13086 C 1215.21 -5.25004 -2.5049 0
M  V30 13087 N 1214.18 -4.61955 -2.86528 0
M  V30 13088 H 1217.99 -2.7045 -1.15039 0
M  V30 13089 H 1215.5 -1.53094 -0.541854 0
M  V30 13090 H 1217.5 -2.17417 -3.55718 0
M  V30 13091 H 1216.16 -1.11223 -3.05057 0
M  V30 13092 H 1217.17 -4.70282 -2.16922 0
M  V30 13093 H 1213.84 -2.43132 -3.39401 0
M  V30 13094 H 1215.23 -6.31812 -2.28611 0
M  V30 13095 N 1217.95 0.594978 -1.45938 0
M  V30 13096 C 1219.37 1.17703 -1.44924 0
M  V30 13097 C 1219.72 1.9534 -0.183522 0
M  V30 13098 O 1218.84 2.04276 0.714163 0
M  V30 13099 C 1219.44 2.14119 -2.62561 0
M  V30 13100 C 1218 2.67674 -2.64627 0
M  V30 13101 C 1217.14 1.43312 -2.37397 0
M  V30 13102 H 1220.09 0.383583 -1.53995 0
M  V30 13103 H 1220.11 2.97374 -2.3738 0
M  V30 13104 H 1219.63 1.57586 -3.54667 0
M  V30 13105 H 1217.73 3.28111 -1.76562 0
M  V30 13106 H 1217.84 3.11246 -3.64229 0
M  V30 13107 H 1216.2 1.72702 -1.87206 0
M  V30 13108 H 1216.99 0.886276 -3.31663 0
M  V30 13109 N 1219.43 1.33438 0.838571 0
M  V30 13110 C 1220.71 1.1551 1.5785 0
M  V30 13111 C 1221.09 -0.278405 2.09256 0
M  V30 13112 O 1220.44 -1.27748 1.89453 0
M  V30 13113 C 1220.65 2.19647 2.71212 0
M  V30 13114 C 1222 2.53818 3.40384 0
M  V30 13115 O 1223.02 2.18317 2.81454 0
M  V30 13116 O 1221.88 3.14741 4.46766 0
M  V30 13117 H 1218.97 0.446785 0.695925 0
M  V30 13118 H 1221.52 1.45021 0.8813 0
M  V30 13119 H 1220.29 3.15936 2.30869 0
M  V30 13120 H 1219.91 1.91224 3.48596 0
M  V30 13121 N 1220.91 -1.05686 1.16912 0
M  V30 13122 C 1221.86 -2.13312 0.88129 0
M  V30 13123 C 1222.83 -1.65199 -0.172783 0
M  V30 13124 O 1224.01 -1.90765 -0.0366542 0
M  V30 13125 C 1221.15 -3.42829 0.395264 0
M  V30 13126 C 1220.27 -4.04643 1.51288 0
M  V30 13127 C 1219.4 -5.22059 0.981238 0
M  V30 13128 C 1218.44 -5.75869 2.07464 0
M  V30 13129 N 1217.58 -6.84592 1.55813 0
M  V30 13130 H 1222.42 -2.37271 1.80295 0
M  V30 13131 H 1219.95 -1.16407 0.899322 0
M  V30 13132 H 1221.91 -4.17092 0.0950633 0
M  V30 13133 H 1220.54 -3.19068 -0.489445 0
M  V30 13134 H 1219.59 -3.27867 1.92891 0
M  V30 13135 H 1220.91 -4.40626 2.33774 0
M  V30 13136 H 1220.06 -6.03372 0.634586 0
M  V30 13137 H 1218.8 -4.87538 0.125754 0
M  V30 13138 H 1217.8 -4.93188 2.42992 0
M  V30 13139 H 1219.03 -6.12439 2.93419 0
M  V30 13140 H 1216.97 -6.51978 0.725283 0
M  V30 13141 H 1216.89 -7.19551 2.31911 0
M  V30 13142 H 1218.16 -7.6957 1.24025 0
M  V30 13143 N 1222.39 -0.968567 -1.24324 0
M  V30 13144 C 1223.63 -0.641458 -1.9302 0
M  V30 13145 C 1223.99 0.814553 -1.74307 0
M  V30 13146 O 1223.28 1.57848 -1.08603 0
M  V30 13147 C 1223.48 -0.952762 -3.44467 0
M  V30 13148 C 1223.31 -2.43748 -3.77911 0
M  V30 13149 C 1222.08 -3.09746 -3.99231 0
M  V30 13150 C 1224.27 -3.4176 -3.84324 0
M  V30 13151 N 1222.26 -4.47947 -4.19782 0
M  V30 13152 C 1223.63 -4.65321 -4.09728 0
M  V30 13153 C 1225.68 -3.36406 -3.67064 0
M  V30 13154 C 1224.38 -5.84186 -4.19665 0
M  V30 13155 C 1226.41 -4.54624 -3.78248 0
M  V30 13156 C 1225.77 -5.76976 -4.04077 0
M  V30 13157 H 1221.87 -0.285584 -0.727987 0
M  V30 13158 H 1224.46 -1.2436 -1.49808 0
M  V30 13159 H 1222.63 -0.379421 -3.86542 0
M  V30 13160 H 1224.36 -0.584137 -4.00462 0
M  V30 13161 H 1221.11 -2.60274 -3.95669 0
M  V30 13162 H 1221.54 -5.19559 -4.34036 0
M  V30 13163 H 1226.18 -2.42847 -3.461 0
M  V30 13164 H 1223.9 -6.78172 -4.3944 0
M  V30 13165 H 1227.48 -4.52043 -3.66262 0
M  V30 13166 H 1226.36 -6.66925 -4.1253 0
M  V30 13167 N 1223.87 1.39211 -0.738786 0
M  V30 13168 C 1225.09 2.04732 -0.298751 0
M  V30 13169 C 1225.51 1.55706 1.06776 0
M  V30 13170 O 1224.87 0.723605 1.67542 0
M  V30 13171 C 1224.92 3.60288 -0.29574 0
M  V30 13172 O 1224.64 4.07511 -1.60831 0
M  V30 13173 C 1226.14 4.43011 0.159994 0
M  V30 13174 H 1223.36 0.658296 -0.129952 0
M  V30 13175 H 1225.9 1.78186 -1.0035 0
M  V30 13176 H 1224.06 3.85722 0.360146 0
M  V30 13177 H 1224.47 5.01858 -1.52443 0
M  V30 13178 H 1225.95 5.51889 0.110941 0
M  V30 13179 H 1226.42 4.22325 1.20573 0
M  V30 13180 H 1227.03 4.22734 -0.466467 0
M  V30 13181 N 1225.34 0.486708 1.49896 0
M  V30 13182 C 1226.59 -0.0629451 2.02702 0
M  V30 13183 C 1226.92 -1.37956 1.36681 0
M  V30 13184 O 1226.2 -1.88025 0.497678 0
M  V30 13185 C 1226.48 -0.230461 3.59362 0
M  V30 13186 C 1226.33 1.10828 4.35933 0
M  V30 13187 C 1227.65 -0.977785 4.29101 0
M  V30 13188 H 1224.77 -0.0214017 0.736689 0
M  V30 13189 H 1227.41 0.635339 1.79063 0
M  V30 13190 H 1225.56 -0.825222 3.79634 0
M  V30 13191 H 1227.24 1.74082 4.27192 0
M  V30 13192 H 1225.48 1.7011 3.99055 0
M  V30 13193 H 1226.15 0.944532 5.43859 0
M  V30 13194 H 1228.63 -0.473505 4.13397 0
M  V30 13195 H 1227.5 -1.06382 5.38492 0
M  V30 13196 H 1227.76 -2.01813 3.9335 0
M  V30 13197 N 1226.82 -1.56058 0.219941 0
M  V30 13198 C 1227.76 -2.17494 -0.723133 0
M  V30 13199 C 1228.77 -1.14356 -1.15873 0
M  V30 13200 O 1229.96 -1.41343 -1.09016 0
M  V30 13201 C 1227.06 -2.74242 -1.99109 0
M  V30 13202 C 1226.23 -4.02533 -1.71132 0
M  V30 13203 C 1225.29 -4.43862 -2.82618 0
M  V30 13204 O 1224.32 -5.10792 -2.51157 0
M  V30 13205 N 1225.52 -4.09412 -4.11537 0
M  V30 13206 H 1228.28 -2.99048 -0.197619 0
M  V30 13207 H 1225.84 -1.61853 0.0388738 0
M  V30 13208 H 1227.84 -2.98862 -2.7288 0
M  V30 13209 H 1226.41 -1.97 -2.42713 0
M  V30 13210 H 1225.63 -3.85786 -0.810128 0
M  V30 13211 H 1226.91 -4.86227 -1.49868 0
M  V30 13212 H 1226.31 -3.55624 -4.39941 0
M  V30 13213 H 1224.87 -4.38928 -4.81857 0
M  V30 13214 N 1228.3 0.053464 -1.57509 0
M  V30 13215 C 1229.71 0.603099 -1.76691 0
M  V30 13216 C 1230.06 1.76934 -0.847861 0
M  V30 13217 O 1229.19 2.16369 -0.0364962 0
M  V30 13218 C 1229.78 1.10084 -3.20417 0
M  V30 13219 C 1228.34 1.59618 -3.4088 0
M  V30 13220 C 1227.49 0.523516 -2.72313 0
M  V30 13221 H 1230.44 -0.172751 -1.57757 0
M  V30 13222 H 1230.46 1.9691 -3.25587 0
M  V30 13223 H 1229.97 0.251818 -3.87282 0
M  V30 13224 H 1228.07 2.46786 -2.79155 0
M  V30 13225 H 1228.19 1.6605 -4.49404 0
M  V30 13226 H 1226.55 0.972886 -2.35387 0
M  V30 13227 H 1227.33 -0.315629 -3.41846 0
M  V30 13228 N 1229.78 1.54207 0.325255 0
M  V30 13229 C 1231.03 1.71544 1.06091 0
M  V30 13230 C 1231.34 0.495137 1.89229 0
M  V30 13231 O 1232.55 0.54982 2.65874 0
M  V30 13232 C 1231 3.03412 1.93569 0
M  V30 13233 C 1230.61 4.32842 1.1555 0
M  V30 13234 C 1232.36 3.30113 2.66881 0
M  V30 13235 C 1230.26 5.55773 2.02164 0
M  V30 13236 H 1229.19 0.639281 0.399795 0
M  V30 13237 H 1231.84 1.80701 0.319261 0
M  V30 13238 H 1230.23 2.88158 2.71626 0
M  V30 13239 H 1231.4 4.58857 0.42276 0
M  V30 13240 H 1229.71 4.12893 0.539277 0
M  V30 13241 H 1232.31 4.19151 3.31988 0
M  V30 13242 H 1232.65 2.47918 3.34428 0
M  V30 13243 H 1233.19 3.46227 1.95887 0
M  V30 13244 H 1229.93 6.40565 1.39128 0
M  V30 13245 H 1229.45 5.3398 2.73177 0
M  V30 13246 H 1231.13 5.92113 2.60789 0
M  V30 13247 N 1231.26 -0.58723 1.46251 0
M  V30 13248 C 1232.19 -1.71113 1.50982 0
M  V30 13249 C 1233.17 -1.58466 0.364322 0
M  V30 13250 O 1234.35 -1.79745 0.567812 0
M  V30 13251 C 1231.48 -3.09128 1.38411 0
M  V30 13252 C 1230.53 -3.40308 2.57085 0
M  V30 13253 S 1231.36 -3.32881 4.19464 0
M  V30 13254 C 1232.51 -4.73441 4.09395 0
M  V30 13255 H 1232.75 -1.66841 2.46072 0
M  V30 13256 H 1230.28 -0.765598 1.34082 0
M  V30 13257 H 1232.24 -3.88751 1.31846 0
M  V30 13258 H 1230.9 -3.10895 0.447567 0
M  V30 13259 H 1230.09 -4.40849 2.4427 0
M  V30 13260 H 1229.69 -2.68244 2.60617 0
M  V30 13261 H 1231.99 -5.63723 3.75796 0
M  V30 13262 H 1232.93 -4.91313 5.09919 0
M  V30 13263 H 1233.34 -4.50079 3.40719 0
M  V30 13264 N 1232.74 -1.33881 -0.831482 0
M  V30 13265 C 1233.67 -1.27384 -1.95693 0
M  V30 13266 C 1234.65 -0.152943 -1.69411 0
M  V30 13267 O 1235.83 -0.34392 -1.9113 0
M  V30 13268 C 1232.96 -1.01982 -3.31989 0
M  V30 13269 C 1231.92 -2.10445 -3.72689 0
M  V30 13270 C 1231.24 -1.70245 -5.06873 0
M  V30 13271 C 1232.54 -3.52194 -3.8569 0
M  V30 13272 H 1234.24 -2.21549 -2.01386 0
M  V30 13273 H 1231.78 -1.06653 -0.967526 0
M  V30 13274 H 1233.73 -0.960841 -4.103 0
M  V30 13275 H 1232.46 -0.0425709 -3.26572 0
M  V30 13276 H 1231.12 -2.15398 -2.96647 0
M  V30 13277 H 1230.77 -0.712036 -4.97935 0
M  V30 13278 H 1230.47 -2.42834 -5.35075 0
M  V30 13279 H 1231.99 -1.65827 -5.87651 0
M  V30 13280 H 1233.4 -3.49701 -4.54293 0
M  V30 13281 H 1231.8 -4.23331 -4.25336 0
M  V30 13282 H 1232.87 -3.9016 -2.87929 0
M  V30 13283 N 1234.21 1.05064 -1.1747 0
M  V30 13284 C 1235.62 1.59547 -0.969628 0
M  V30 13285 C 1235.98 1.90153 0.483332 0
M  V30 13286 O 1235.1 1.68415 1.35887 0
M  V30 13287 C 1235.7 2.89877 -1.75377 0
M  V30 13288 C 1234.25 3.41013 -1.59332 0
M  V30 13289 C 1233.4 2.1473 -1.7546 0
M  V30 13290 H 1236.35 0.878595 -1.3216 0
M  V30 13291 H 1236.37 3.59834 -1.23691 0
M  V30 13292 H 1235.89 2.67569 -2.8112 0
M  V30 13293 H 1233.99 3.68355 -0.560827 0
M  V30 13294 H 1234.1 4.15512 -2.38509 0
M  V30 13295 H 1232.46 2.25553 -1.18313 0
M  V30 13296 H 1233.25 1.9489 -2.82618 0
M  V30 13297 N 1235.69 0.975146 1.23809 0
M  V30 13298 C 1236.6 0.51917 2.28783 0
M  V30 13299 C 1237.62 -0.423487 1.68768 0
M  V30 13300 O 1238.79 -0.294699 1.99232 0
M  V30 13301 C 1235.86 -0.176229 3.46252 0
M  V30 13302 C 1234.92 0.807177 4.21643 0
M  V30 13303 C 1234.15 0.144869 5.33503 0
M  V30 13304 O 1234.38 -1.06522 5.60365 0
M  V30 13305 O 1233.31 0.84079 5.95999 0
M  V30 13306 H 1237.14 1.39204 2.69919 0
M  V30 13307 H 1234.72 0.74253 1.29641 0
M  V30 13308 H 1236.6 -0.566547 4.17574 0
M  V30 13309 H 1235.28 -1.02394 3.07078 0
M  V30 13310 H 1234.18 1.2481 3.52666 0
M  V30 13311 H 1235.52 1.62354 4.64653 0
M  V30 13312 N 1237.17 -1.38817 0.746158 0
M  V30 13313 C 1238.12 -2.30521 0.113517 0
M  V30 13314 C 1239.09 -1.49795 -0.717682 0
M  V30 13315 O 1240.27 -1.78448 -0.675345 0
M  V30 13316 C 1237.41 -3.36185 -0.779343 0
M  V30 13317 C 1236.52 -4.3195 0.0656784 0
M  V30 13318 C 1235.66 -5.24684 -0.829492 0
M  V30 13319 C 1234.7 -6.12097 0.0196112 0
M  V30 13320 N 1233.84 -6.97152 -0.832107 0
M  V30 13321 H 1238.68 -2.84048 0.901136 0
M  V30 13322 H 1236.21 -1.39853 0.456025 0
M  V30 13323 H 1238.17 -3.96048 -1.31156 0
M  V30 13324 H 1236.8 -2.84085 -1.53282 0
M  V30 13325 H 1235.85 -3.73611 0.715445 0
M  V30 13326 H 1237.16 -4.93551 0.721735 0
M  V30 13327 H 1236.32 -5.89627 -1.42915 0
M  V30 13328 H 1235.06 -4.63431 -1.5193 0
M  V30 13329 H 1234.06 -5.46156 0.631991 0
M  V30 13330 H 1235.29 -6.75416 0.706369 0
M  V30 13331 H 1233.23 -6.38456 -1.507 0
M  V30 13332 H 1233.15 -7.55642 -0.232782 0
M  V30 13333 H 1234.42 -7.66513 -1.41697 0
M  V30 13334 N 1238.65 -0.49465 -1.49636 0
M  V30 13335 C 1239.92 0.114829 -1.95263 0
M  V30 13336 C 1240.3 1.54739 -1.43593 0
M  V30 13337 O 1239.65 2.1915 -0.646953 0
M  V30 13338 C 1239.86 0.0339912 -3.48983 0
M  V30 13339 C 1241.21 0.211108 -4.24075 0
M  V30 13340 O 1242.23 0.109478 -3.56032 0
M  V30 13341 O 1241.09 0.418971 -5.44892 0
M  V30 13342 H 1238.19 0.0987883 -0.821078 0
M  V30 13343 H 1240.73 -0.556736 -1.60308 0
M  V30 13344 H 1239.51 -0.965287 -3.79207 0
M  V30 13345 H 1239.13 0.745982 -3.90539 0
M  V30 13346 N 1240.13 1.55939 -0.228214 0
M  V30 13347 C 1241.35 2.0332 0.409364 0
M  V30 13348 C 1241.78 1.10683 1.52088 0
M  V30 13349 O 1241.13 0.0962484 1.81044 0
M  V30 13350 C 1241.18 3.48877 0.911981 0
M  V30 13351 O 1240.29 3.59378 2.02289 0
M  V30 13352 H 1239.63 0.657625 0.0917909 0
M  V30 13353 H 1242.16 2.01605 -0.348802 0
M  V30 13354 H 1242.17 3.89331 1.22007 0
M  V30 13355 H 1240.84 4.15783 0.0984902 0
M  V30 13356 H 1239.42 3.30815 1.72093 0
M  V30 13357 N 1241.6 -0.0451101 1.57535 0
M  V30 13358 C 1242.85 -0.734819 1.89663 0
M  V30 13359 C 1243.21 -1.73814 0.82502 0
M  V30 13360 O 1242.5 -1.90861 -0.168067 0
M  V30 13361 C 1242.69 -1.45938 3.26247 0
M  V30 13362 C 1242.52 -0.52775 4.46593 0
M  V30 13363 C 1241.29 -0.154735 5.05063 0
M  V30 13364 C 1243.49 0.187025 5.1396 0
M  V30 13365 N 1241.47 0.77983 6.08927 0
M  V30 13366 C 1242.84 0.977812 6.12241 0
M  V30 13367 C 1244.9 0.255673 4.97243 0
M  V30 13368 C 1243.6 1.83091 6.95608 0
M  V30 13369 C 1245.63 1.09584 5.81159 0
M  V30 13370 C 1244.99 1.8746 6.78998 0
M  V30 13371 H 1241.09 -0.243486 0.743128 0
M  V30 13372 H 1243.67 0.00462003 1.94699 0
M  V30 13373 H 1241.84 -2.16938 3.22169 0
M  V30 13374 H 1243.57 -2.10021 3.45938 0
M  V30 13375 H 1240.33 -0.513447 4.70809 0
M  V30 13376 H 1240.75 1.24114 6.65526 0
M  V30 13377 H 1245.4 -0.332093 4.21494 0
M  V30 13378 H 1243.11 2.42954 7.70713 0
M  V30 13379 H 1246.7 1.15228 5.70275 0
M  V30 13380 H 1245.58 2.51422 7.42803 0
M  V30 13381 N 1243.08 -1.54377 -0.317073 0
M  V30 13382 C 1244.31 -1.76865 -1.07362 0
M  V30 13383 C 1244.73 -0.520354 -1.81488 0
M  V30 13384 O 1244.08 0.509213 -1.75252 0
M  V30 13385 C 1244.13 -2.96598 -2.06668 0
M  V30 13386 O 1243.85 -4.16602 -1.35552 0
M  V30 13387 C 1245.36 -3.31348 -2.94489 0
M  V30 13388 H 1242.58 -0.590277 -0.319083 0
M  V30 13389 H 1245.12 -2.01284 -0.361227 0
M  V30 13390 H 1243.27 -2.74433 -2.73432 0
M  V30 13391 H 1243.69 -4.83996 -2.02108 0
M  V30 13392 H 1245.16 -4.1841 -3.60051 0
M  V30 13393 H 1245.64 -2.48797 -3.61935 0
M  V30 13394 H 1246.25 -3.55614 -2.33278 0
M  V30 13395 N 1244.56 0.579466 -1.4656 0
M  V30 13396 C 1245.81 1.33954 -1.52264 0
M  V30 13397 C 1246.14 1.93409 -0.175089 0
M  V30 13398 O 1245.41 1.76654 0.81385 0
M  V30 13399 C 1245.7 2.46645 -2.6237 0
M  V30 13400 C 1245.55 1.92204 -4.06667 0
M  V30 13401 C 1246.87 3.48676 -2.68538 0
M  V30 13402 H 1243.99 0.485697 -0.554317 0
M  V30 13403 H 1246.63 0.650639 -1.78512 0
M  V30 13404 H 1244.78 3.0541 -2.40119 0
M  V30 13405 H 1246.45 1.37871 -4.40215 0
M  V30 13406 H 1244.7 1.23012 -4.15993 0
M  V30 13407 H 1245.37 2.73566 -4.79443 0
M  V30 13408 H 1247.84 2.99798 -2.88549 0
M  V30 13409 H 1246.72 4.24981 -3.47394 0
M  V30 13410 H 1246.98 4.06112 -1.74716 0
M  V30 13411 N 1246.04 1.3432 0.824371 0
M  V30 13412 C 1246.99 1.2578 1.95658 0
M  V30 13413 C 1247.98 0.156199 1.68678 0
M  V30 13414 O 1249.19 0.321081 1.77113 0
M  V30 13415 H 1245.56 0.390711 0.642533 0
M  V30 13416 H 1247.53 2.21471 1.99983 0
M  V30 13417 C 1246.28 1.02865 3.32136 0
M  V30 13418 H 1245.6 1.86863 3.53443 0
M  V30 13419 H 1247.04 1.00925 4.11813 0
M  V30 13420 C 1245.5 -0.268097 3.35832 0
M  V30 13421 O 1246.03 -1.26995 3.81097 0
M  V30 13422 N 1244.24 -0.300702 2.8904 0
M  V30 13423 H 1243.79 0.51515 2.52396 0
M  V30 13424 H 1243.74 -1.16811 2.91895 0
M  V30 13425 N 1247.52 -1.0444 1.18026 0
M  V30 13426 C 1248.79 -1.74533 0.883045 0
M  V30 13427 C 1249.17 -2.01944 -0.614975 0
M  V30 13428 O 1248.52 -1.66158 -1.56855 0
M  V30 13429 C 1248.73 -3.0332 1.72621 0
M  V30 13430 C 1250.08 -3.77128 1.9509 0
M  V30 13431 O 1251.1 -3.13209 1.69643 0
M  V30 13432 O 1249.96 -4.92001 2.37903 0
M  V30 13433 H 1247.06 -0.759315 0.327673 0
M  V30 13434 H 1249.6 -1.10539 1.2876 0
M  V30 13435 H 1248.37 -2.79171 2.74188 0
M  V30 13436 H 1248 -3.75052 1.31993 0
M  V30 13437 N 1248.99 -0.981699 -1.2329 0
M  V30 13438 C 1250.24 -0.646818 -1.91048 0
M  V30 13439 C 1250.56 0.823479 -1.77421 0
M  V30 13440 O 1251.76 1.26948 -2.39993 0
M  V30 13441 C 1250.22 -1.1063 -3.42475 0
M  V30 13442 C 1249.83 -2.60103 -3.6476 0
M  V30 13443 C 1251.57 -0.845227 -4.16 0
M  V30 13444 C 1249.48 -2.99712 -5.0983 0
M  V30 13445 H 1248.41 -0.238221 -0.715379 0
M  V30 13446 H 1251.06 -1.18977 -1.39702 0
M  V30 13447 H 1249.44 -0.491554 -3.92937 0
M  V30 13448 H 1250.61 -3.26828 -3.24839 0
M  V30 13449 H 1248.93 -2.83972 -3.04547 0
M  V30 13450 H 1251.53 -1.11699 -5.22903 0
M  V30 13451 H 1251.87 0.218661 -4.15725 0
M  V30 13452 H 1252.4 -1.42162 -3.7153 0
M  V30 13453 H 1249.14 -4.0523 -5.15237 0
M  V30 13454 H 1248.66 -2.37683 -5.50697 0
M  V30 13455 H 1250.34 -2.9039 -5.78172 0
M  V30 13456 N 1250.47 1.3842 -0.753509 0
M  V30 13457 C 1251.4 2.29039 -0.0859463 0
M  V30 13458 C 1252.42 1.47742 0.68383 0
M  V30 13459 O 1253.61 1.70607 0.524933 0
M  V30 13460 C 1250.71 3.26668 0.902296 0
M  V30 13461 C 1249.88 4.36986 0.190178 0
M  V30 13462 C 1248.94 5.14805 1.08916 0
M  V30 13463 O 1247.96 5.66441 0.559715 0
M  V30 13464 N 1249.17 5.27777 2.41726 0
M  V30 13465 H 1251.93 2.8697 -0.864196 0
M  V30 13466 H 1249.49 1.502 -0.604288 0
M  V30 13467 H 1251.48 3.75606 1.50672 0
M  V30 13468 H 1250.05 2.69636 1.58163 0
M  V30 13469 H 1249.27 3.89684 -0.594959 0
M  V30 13470 H 1250.56 5.07899 -0.302594 0
M  V30 13471 H 1249.96 4.87376 2.87196 0
M  V30 13472 H 1248.52 5.8009 2.97219 0
M  V30 13473 N 1251.95 0.502579 1.49372 0
M  V30 13474 C 1252.9 -0.275004 2.29156 0
M  V30 13475 C 1253.87 -0.95892 1.35624 0
M  V30 13476 O 1255.05 -0.965276 1.64581 0
M  V30 13477 C 1252.19 -1.33255 3.18335 0
M  V30 13478 C 1251.31 -0.660248 4.26925 0
M  V30 13479 C 1250.44 -1.69837 5.03318 0
M  V30 13480 C 1249.48 -1.00802 6.03743 0
M  V30 13481 N 1248.62 -1.99042 6.73295 0
M  V30 13482 H 1253.46 0.411599 2.95144 0
M  V30 13483 H 1250.99 0.214824 1.45523 0
M  V30 13484 H 1252.95 -1.95769 3.68416 0
M  V30 13485 H 1251.58 -1.98789 2.54328 0
M  V30 13486 H 1250.63 0.0782181 3.8032 0
M  V30 13487 H 1251.95 -0.11689 4.98663 0
M  V30 13488 H 1251.1 -2.39852 5.57275 0
M  V30 13489 H 1249.84 -2.27558 4.31357 0
M  V30 13490 H 1248.84 -0.293654 5.49015 0
M  V30 13491 H 1250.07 -0.437285 6.77691 0
M  V30 13492 H 1248.01 -2.55722 6.04104 0
M  V30 13493 H 1247.93 -1.49776 7.41015 0
M  V30 13494 H 1249.2 -2.6834 7.31856 0
M  V30 13495 N 1253.43 -1.55816 0.23648 0
M  V30 13496 C 1254.36 -2.23924 -0.661834 0
M  V30 13497 C 1255.34 -1.21597 -1.18946 0
M  V30 13498 O 1256.52 -1.50222 -1.23073 0
M  V30 13499 C 1253.65 -2.93069 -1.86355 0
M  V30 13500 C 1252.61 -4.01996 -1.46913 0
M  V30 13501 C 1251.93 -4.58512 -2.75083 0
M  V30 13502 C 1253.23 -5.18265 -0.647964 0
M  V30 13503 H 1254.93 -2.99253 -0.0939368 0
M  V30 13504 H 1252.47 -1.43934 -0.0437407 0
M  V30 13505 H 1254.43 -3.39412 -2.49755 0
M  V30 13506 H 1253.15 -2.15212 -2.45665 0
M  V30 13507 H 1251.81 -3.56406 -0.858522 0
M  V30 13508 H 1251.46 -3.77368 -3.3257 0
M  V30 13509 H 1251.16 -5.32037 -2.49421 0
M  V30 13510 H 1252.68 -5.07583 -3.39399 0
M  V30 13511 H 1254.1 -5.60898 -1.18602 0
M  V30 13512 H 1252.49 -5.98114 -0.487823 0
M  V30 13513 H 1253.56 -4.83691 0.342151 0
M  V30 13514 N 1254.91 0.036755 -1.57557 0
M  V30 13515 C 1256.15 0.730186 -1.89199 0
M  V30 13516 C 1256.49 1.75414 -0.833271 0
M  V30 13517 O 1255.76 1.93901 0.152579 0
M  V30 13518 C 1256.04 1.40669 -3.31488 0
M  V30 13519 C 1255.9 0.396764 -4.48047 0
M  V30 13520 C 1257.22 2.34268 -3.72567 0
M  V30 13521 H 1254.33 0.263983 -0.6881 0
M  V30 13522 H 1256.98 -0.0069847 -1.89999 0
M  V30 13523 H 1255.13 2.03502 -3.30937 0
M  V30 13524 H 1256.8 -0.229062 -4.60731 0
M  V30 13525 H 1255.04 -0.284698 -4.32865 0
M  V30 13526 H 1255.71 0.908436 -5.44474 0
M  V30 13527 H 1258.19 1.81485 -3.74436 0
M  V30 13528 H 1257.06 2.78587 -4.72949 0
M  V30 13529 H 1257.33 3.20611 -3.04403 0
M  V30 13530 N 1256.39 1.54543 0.308881 0
M  V30 13531 C 1257.63 1.73107 1.043 0
M  V30 13532 C 1257.95 0.515481 1.88063 0
M  V30 13533 O 1257.22 -0.47036 1.90169 0
M  V30 13534 H 1255.8 0.638289 0.388068 0
M  V30 13535 H 1258.47 1.9188 0.341769 0
M  V30 13536 H 1257.56 2.61697 1.70063 0
M  V30 13537 N 1257.86 -0.571685 1.46866 0
M  V30 13538 C 1258.81 -1.67992 1.58263 0
M  V30 13539 C 1259.78 -1.60535 0.426345 0
M  V30 13540 O 1260.97 -1.79584 0.644534 0
M  V30 13541 C 1258.11 -3.06327 1.58927 0
M  V30 13542 C 1257.22 -3.24328 2.85369 0
M  V30 13543 C 1256.35 -4.52976 2.77464 0
M  V30 13544 C 1255.39 -4.64359 3.98795 0
M  V30 13545 N 1254.53 -5.84345 3.89211 0
M  V30 13546 H 1259.37 -1.57589 2.52922 0
M  V30 13547 H 1256.91 -0.767883 1.25467 0
M  V30 13548 H 1258.86 -3.86411 1.57296 0
M  V30 13549 H 1257.49 -3.15601 0.677912 0
M  V30 13550 H 1256.55 -2.37774 2.96931 0
M  V30 13551 H 1257.86 -3.28605 3.7526 0
M  V30 13552 H 1257.01 -5.41303 2.74001 0
M  V30 13553 H 1255.75 -4.51155 1.85231 0
M  V30 13554 H 1254.76 -3.74448 4.02578 0
M  V30 13555 H 1255.98 -4.6795 4.92137 0
M  V30 13556 H 1253.93 -5.835 2.99772 0
M  V30 13557 H 1253.84 -5.89938 4.72768 0
M  V30 13558 H 1255.11 -6.75072 3.89741 0
M  V30 13559 N 1259.34 -1.34755 -0.817236 0
M  V30 13560 C 1260.27 -1.29452 -1.94331 0
M  V30 13561 C 1261.25 -0.170902 -1.69239 0
M  V30 13562 O 1262.44 -0.364173 -1.90755 0
M  V30 13563 C 1259.57 -1.05497 -3.30889 0
M  V30 13564 C 1258.52 -2.14386 -3.70436 0
M  V30 13565 C 1257.85 -1.75612 -5.05039 0
M  V30 13566 C 1259.15 -3.56265 -3.81933 0
M  V30 13567 H 1260.84 -2.23672 -1.99025 0
M  V30 13568 H 1258.39 -1.07674 -0.956159 0
M  V30 13569 H 1260.34 -1.0043 -4.09257 0
M  V30 13570 H 1259.06 -0.0772059 -3.26509 0
M  V30 13571 H 1257.72 -2.18532 -2.94345 0
M  V30 13572 H 1257.37 -0.764809 -4.97152 0
M  V30 13573 H 1257.07 -2.48495 -5.3247 0
M  V30 13574 H 1258.6 -1.72051 -5.85859 0
M  V30 13575 H 1260.01 -3.545 -4.50558 0
M  V30 13576 H 1258.41 -4.27818 -4.20822 0
M  V30 13577 H 1259.48 -3.93192 -2.83775 0
M  V30 13578 N 1260.82 1.03812 -1.18578 0
M  V30 13579 C 1261.77 2.13994 -0.911563 0
M  V30 13580 C 1262.76 1.68907 0.129131 0
M  V30 13581 O 1263.97 1.7999 -0.0192557 0
M  V30 13582 H 1260.34 0.698996 -0.277324 0
M  V30 13583 H 1262.31 2.34318 -1.84763 0
M  V30 13584 C 1261.06 3.44689 -0.456591 0
M  V30 13585 H 1260.39 3.79793 -1.2489 0
M  V30 13586 H 1261.83 4.22911 -0.303738 0
M  V30 13587 C 1260.28 3.26568 0.827961 0
M  V30 13588 O 1260.81 3.54376 1.89158 0
M  V30 13589 N 1259.02 2.79893 0.781567 0
M  V30 13590 H 1258.57 2.57462 -0.0842145 0
M  V30 13591 H 1258.53 2.68148 1.64146 0
M  V30 13592 N 1262.3 0.988223 1.22768 0
M  V30 13593 C 1263.54 0.672085 1.91975 0
M  V30 13594 C 1263.9 -0.786719 1.7558 0
M  V30 13595 O 1263.19 -1.561 1.111 0
M  V30 13596 C 1263.39 1.00744 3.42907 0
M  V30 13597 C 1263.21 2.4973 3.73985 0
M  V30 13598 C 1261.98 3.16058 3.94253 0
M  V30 13599 C 1264.18 3.47831 3.78838 0
M  V30 13600 N 1262.16 4.54568 4.12603 0
M  V30 13601 C 1263.54 4.7178 4.02273 0
M  V30 13602 C 1265.59 3.42203 3.61665 0
M  V30 13603 C 1264.29 5.90789 4.10318 0
M  V30 13604 C 1266.32 4.60584 3.70967 0
M  V30 13605 C 1265.68 5.83331 3.94847 0
M  V30 13606 H 1261.78 0.297129 0.723352 0
M  V30 13607 H 1264.36 1.26728 1.47811 0
M  V30 13608 H 1262.54 0.440869 3.8589 0
M  V30 13609 H 1264.27 0.647774 3.99482 0
M  V30 13610 H 1261.02 2.66536 3.91479 0
M  V30 13611 H 1261.45 5.26399 4.25715 0
M  V30 13612 H 1266.09 2.48323 3.42193 0
M  V30 13613 H 1263.81 6.85078 4.28596 0
M  V30 13614 H 1267.39 4.57813 3.59024 0
M  V30 13615 H 1266.27 6.73403 4.01868 0
M  V30 13616 N 1263.78 -1.38018 0.760839 0
M  V30 13617 C 1264.74 -2.28734 0.146154 0
M  V30 13618 C 1265.74 -1.47525 -0.639768 0
M  V30 13619 O 1266.93 -1.6788 -0.464964 0
M  V30 13620 C 1264.06 -3.31356 -0.801019 0
M  V30 13621 H 1265.25 -2.84599 0.945692 0
M  V30 13622 H 1262.81 -1.471 0.528323 0
M  V30 13623 H 1263.54 -2.80594 -1.62597 0
M  V30 13624 H 1263.33 -3.91366 -0.239775 0
M  V30 13625 H 1264.82 -3.99171 -1.22687 0
M  V30 13626 N 1265.25 -0.510493 -1.49103 0
M  V30 13627 C 1266.48 0.0293113 -2.07379 0
M  V30 13628 C 1266.9 1.29195 -1.36713 0
M  V30 13629 O 1266.26 1.76204 -0.426838 0
M  V30 13630 C 1266.31 0.25629 -3.59688 0
M  V30 13631 O 1265.41 1.32907 -3.90397 0
M  V30 13632 H 1264.75 -0.0304449 -0.663302 0
M  V30 13633 H 1267.28 -0.712832 -1.91781 0
M  V30 13634 H 1267.29 0.484915 -4.05108 0
M  V30 13635 H 1265.97 -0.666163 -4.1053 0
M  V30 13636 H 1264.55 1.08464 -3.56777 0
M  V30 13637 N 1266.73 1.55688 -0.24474 0
M  V30 13638 C 1267.66 2.18616 0.68844 0
M  V30 13639 C 1268.68 1.16185 1.14039 0
M  V30 13640 O 1269.87 1.43059 1.06754 0
M  V30 13641 C 1266.97 2.77375 1.94721 0
M  V30 13642 C 1266.14 4.05204 1.64706 0
M  V30 13643 C 1265.2 4.48302 2.75521 0
M  V30 13644 O 1264.22 5.14723 2.42999 0
M  V30 13645 N 1265.43 4.15907 4.04971 0
M  V30 13646 H 1268.19 2.99324 0.150018 0
M  V30 13647 H 1265.75 1.61771 -0.0646183 0
M  V30 13648 H 1267.74 3.03165 2.68091 0
M  V30 13649 H 1266.31 2.00837 2.39548 0
M  V30 13650 H 1265.53 3.87026 0.74865 0
M  V30 13651 H 1266.82 4.8855 1.42114 0
M  V30 13652 H 1266.22 3.62579 4.34227 0
M  V30 13653 H 1264.78 4.46538 4.74813 0
M  V30 13654 N 1268.21 -0.0283989 1.57574 0
M  V30 13655 C 1269.46 -0.718121 1.88483 0
M  V30 13656 C 1269.77 -1.76485 0.843345 0
M  V30 13657 O 1270.98 -2.50721 1.04169 0
M  V30 13658 C 1269.43 -1.32832 3.3449 0
M  V30 13659 C 1269.04 -0.317905 4.46871 0
M  V30 13660 C 1270.79 -1.99788 3.74546 0
M  V30 13661 C 1268.69 -0.936489 5.83938 0
M  V30 13662 H 1267.62 -0.271969 0.703242 0
M  V30 13663 H 1270.27 0.0274862 1.83479 0
M  V30 13664 H 1268.66 -2.12366 3.34241 0
M  V30 13665 H 1269.83 0.450767 4.5859 0
M  V30 13666 H 1268.14 0.249605 4.15651 0
M  V30 13667 H 1270.74 -2.46923 4.74271 0
M  V30 13668 H 1271.08 -2.81633 3.06575 0
M  V30 13669 H 1271.62 -1.27029 3.76973 0
M  V30 13670 H 1268.36 -0.15744 6.55311 0
M  V30 13671 H 1267.88 -1.67499 5.75938 0
M  V30 13672 H 1269.56 -1.44363 6.30689 0
M  V30 13673 N 1269.69 -1.54705 -0.300681 0
M  V30 13674 C 1270.92 -1.77735 -1.05327 0
M  V30 13675 C 1271.33 -0.53709 -1.81417 0
M  V30 13676 O 1270.67 0.502663 -1.76689 0
M  V30 13677 C 1270.73 -2.93222 -2.07993 0
M  V30 13678 C 1270.39 -4.313 -1.51095 0
M  V30 13679 C 1271.39 -5.11317 -0.94082 0
M  V30 13680 C 1269.08 -4.77901 -1.54648 0
M  V30 13681 C 1271.07 -6.36055 -0.413791 0
M  V30 13682 C 1268.76 -6.02602 -1.01558 0
M  V30 13683 C 1269.76 -6.81515 -0.450209 0
M  V30 13684 O 1269.44 -8.03867 0.0726375 0
M  V30 13685 H 1269.18 -0.596468 -0.318122 0
M  V30 13686 H 1271.73 -2.02475 -0.345404 0
M  V30 13687 H 1269.96 -2.64108 -2.82461 0
M  V30 13688 H 1271.65 -3.03826 -2.69156 0
M  V30 13689 H 1272.41 -4.76458 -0.906268 0
M  V30 13690 H 1268.29 -4.16507 -1.97594 0
M  V30 13691 H 1271.84 -6.97594 0.0281534 0
M  V30 13692 H 1267.73 -6.36948 -1.04728 0
M  V30 13693 H 1268.5 -8.1849 -0.0406321 0
M  V30 13694 N 1271.17 0.563888 -1.47167 0
M  V30 13695 C 1272.13 1.65359 -1.58711 0
M  V30 13696 C 1273.13 1.53999 -0.46272 0
M  V30 13697 O 1274.32 1.58277 -0.727595 0
M  V30 13698 C 1271.45 3.04874 -1.52529 0
M  V30 13699 H 1272.64 1.56475 -2.55843 0
M  V30 13700 H 1270.2 0.783271 -1.35257 0
M  V30 13701 H 1270.93 3.19297 -0.56747 0
M  V30 13702 H 1270.72 3.14528 -2.34125 0
M  V30 13703 H 1272.21 3.84164 -1.63731 0
M  V30 13704 N 1272.64 1.35187 0.810078 0
M  V30 13705 C 1273.89 1.28011 1.56389 0
M  V30 13706 C 1274.21 -0.14622 1.94451 0
M  V30 13707 O 1273.48 -1.08185 1.63318 0
M  V30 13708 H 1272.06 0.470837 0.579932 0
M  V30 13709 H 1274.73 1.69249 0.966476 0
M  V30 13710 H 1273.82 1.89362 2.4809 0
M  V30 13711 N 1274.12 -1.03182 1.19127 0
M  V30 13712 C 1275.37 -1.75934 0.986415 0
M  V30 13713 C 1275.68 -1.89519 -0.48392 0
M  V30 13714 O 1276.89 -2.59213 -0.80752 0
M  V30 13715 C 1275.35 -3.16358 1.71597 0
M  V30 13716 C 1274.95 -3.10836 3.22622 0
M  V30 13717 C 1276.7 -3.93426 1.59425 0
M  V30 13718 C 1274.61 -4.46174 3.88179 0
M  V30 13719 H 1273.54 -0.659516 0.365451 0
M  V30 13720 H 1276.19 -1.15497 1.42593 0
M  V30 13721 H 1274.57 -3.77245 1.20426 0
M  V30 13722 H 1275.74 -2.59348 3.80887 0
M  V30 13723 H 1274.06 -2.47266 3.35035 0
M  V30 13724 H 1276.65 -4.93526 2.05757 0
M  V30 13725 H 1277 -4.12678 0.547926 0
M  V30 13726 H 1277.53 -3.39134 2.07925 0
M  V30 13727 H 1274.27 -4.32126 4.92897 0
M  V30 13728 H 1273.79 -4.97729 3.34702 0
M  V30 13729 H 1275.47 -5.15066 3.91556 0
M  V30 13730 N 1275.6 -0.99472 -1.22242 0
M  V30 13731 C 1276.55 -0.546504 -2.24236 0
M  V30 13732 C 1277.52 0.422101 -1.60647 0
M  V30 13733 O 1278.7 0.326452 -1.87987 0
M  V30 13734 C 1275.84 0.130909 -3.44852 0
M  V30 13735 C 1274.96 -0.879653 -4.22949 0
M  V30 13736 C 1274.09 -0.175569 -5.3091 0
M  V30 13737 C 1273.13 -1.17438 -6.00729 0
M  V30 13738 N 1272.27 -0.498474 -7.00328 0
M  V30 13739 H 1277.11 -1.42099 -2.61939 0
M  V30 13740 H 1274.64 -0.711755 -1.28734 0
M  V30 13741 H 1276.6 0.540596 -4.13683 0
M  V30 13742 H 1275.23 0.96917 -3.07907 0
M  V30 13743 H 1274.28 -1.40765 -3.53397 0
M  V30 13744 H 1275.6 -1.64017 -4.71062 0
M  V30 13745 H 1274.75 0.290756 -6.06003 0
M  V30 13746 H 1273.49 0.617438 -4.83776 0
M  V30 13747 H 1272.49 -1.65131 -5.24416 0
M  V30 13748 H 1273.72 -1.96829 -6.4995 0
M  V30 13749 H 1271.66 0.275063 -6.55423 0
M  V30 13750 H 1271.58 -1.19741 -7.46457 0
M  V30 13751 H 1272.85 -0.0550119 -7.79481 0
M  V30 13752 N 1277.08 1.37613 -0.768148 0
M  V30 13753 C 1278.32 2.00075 -0.331331 0
M  V30 13754 C 1278.66 1.60839 1.08833 0
M  V30 13755 O 1277.93 0.852849 1.74805 0
M  V30 13756 C 1278.22 3.57009 -0.470789 0
M  V30 13757 C 1278.07 4.06166 -1.9326 0
M  V30 13758 C 1279.39 4.39916 0.127111 0
M  V30 13759 H 1276.51 0.726855 -0.121864 0
M  V30 13760 H 1279.15 1.63343 -0.970518 0
M  V30 13761 H 1277.3 3.88431 0.0733688 0
M  V30 13762 H 1278.97 3.85325 -2.53618 0
M  V30 13763 H 1277.21 3.58492 -2.44266 0
M  V30 13764 H 1277.88 5.15219 -1.98125 0
M  V30 13765 H 1280.36 4.14732 -0.337144 0
M  V30 13766 H 1279.24 5.489 -0.000624226 0
M  V30 13767 H 1279.5 4.25018 1.21704 0
M  V30 13768 N 1278.56 0.518393 1.4883 0
M  V30 13769 C 1279.5 -0.250684 2.29435 0
M  V30 13770 C 1280.47 -0.944481 1.36634 0
M  V30 13771 O 1281.66 -0.947766 1.65596 0
M  V30 13772 C 1278.8 -1.29871 3.1973 0
M  V30 13773 C 1277.91 -0.61493 4.27601 0
M  V30 13774 C 1277.05 -1.64489 5.05091 0
M  V30 13775 C 1276.09 -0.943932 6.04778 0
M  V30 13776 N 1275.22 -1.91889 6.75369 0
M  V30 13777 H 1280.06 0.44288 2.94691 0
M  V30 13778 H 1277.6 0.230246 1.45287 0
M  V30 13779 H 1279.56 -1.91851 3.70471 0
M  V30 13780 H 1278.19 -1.96081 2.56422 0
M  V30 13781 H 1277.24 0.118552 3.80215 0
M  V30 13782 H 1278.55 -0.063994 4.98759 0
M  V30 13783 H 1277.71 -2.33928 5.59788 0
M  V30 13784 H 1276.44 -2.2297 4.33746 0
M  V30 13785 H 1275.45 -0.235407 5.49296 0
M  V30 13786 H 1276.67 -0.365383 6.78116 0
M  V30 13787 H 1274.62 -2.493 6.06783 0
M  V30 13788 H 1274.54 -1.41909 7.42562 0
M  V30 13789 H 1275.81 -2.60563 7.34661 0
M  V30 13790 N 1280.03 -1.55556 0.252993 0
M  V30 13791 C 1280.97 -2.18978 -0.676837 0
M  V30 13792 C 1281.98 -1.16788 -1.13421 0
M  V30 13793 O 1283.17 -1.43623 -1.05993 0
M  V30 13794 C 1280.27 -2.78404 -1.93248 0
M  V30 13795 C 1279.44 -4.06072 -1.62555 0
M  V30 13796 C 1278.5 -4.49757 -2.7314 0
M  V30 13797 O 1277.53 -5.16005 -2.40266 0
M  V30 13798 N 1278.73 -4.18049 -4.0276 0
M  V30 13799 H 1281.49 -2.994 -0.134142 0
M  V30 13800 H 1279.05 -1.61734 0.0731965 0
M  V30 13801 H 1281.05 -3.04583 -2.6648 0
M  V30 13802 H 1279.62 -2.02104 -2.3848 0
M  V30 13803 H 1278.84 -3.87417 -0.728115 0
M  V30 13804 H 1280.12 -4.89297 -1.39521 0
M  V30 13805 H 1279.52 -3.64876 -4.32298 0
M  V30 13806 H 1278.08 -4.4905 -4.72438 0
M  V30 13807 N 1281.51 0.0200419 -1.57587 0
M  V30 13808 C 1282.44 1.01715 -2.10181 0
M  V30 13809 C 1283.42 1.37136 -1.00636 0
M  V30 13810 O 1284.61 1.45862 -1.2821 0
M  V30 13811 C 1281.74 2.31531 -2.58865 0
M  V30 13812 C 1280.69 2.10327 -3.72755 0
M  V30 13813 C 1280.02 3.45981 -4.07678 0
M  V30 13814 C 1281.32 1.4821 -5.0083 0
M  V30 13815 H 1283.01 0.579307 -2.93742 0
M  V30 13816 H 1280.56 0.277211 -1.41307 0
M  V30 13817 H 1282.51 3.01623 -2.94281 0
M  V30 13818 H 1281.24 2.77392 -1.72399 0
M  V30 13819 H 1279.89 1.42665 -3.37701 0
M  V30 13820 H 1279.54 3.89508 -3.18265 0
M  V30 13821 H 1279.24 3.32616 -4.84397 0
M  V30 13822 H 1280.77 4.17421 -4.45637 0
M  V30 13823 H 1282.18 2.08232 -5.34146 0
M  V30 13824 H 1280.58 1.45393 -5.82221 0
M  V30 13825 H 1281.65 0.448942 -4.82817 0
M  V30 13826 N 1282.99 1.54862 0.292472 0
M  V30 13827 C 1284.23 1.76289 1.03448 0
M  V30 13828 C 1284.59 0.541914 1.84194 0
M  V30 13829 O 1285.8 0.634075 2.61214 0
M  V30 13830 C 1284.07 3.02112 1.90953 0
M  V30 13831 S 1285.63 3.44577 2.71683 0
M  V30 13832 H 1282.44 0.619596 0.348744 0
M  V30 13833 H 1285.05 1.93075 0.306952 0
M  V30 13834 H 1283.75 3.89091 1.30523 0
M  V30 13835 H 1283.28 2.87937 2.68059 0
M  V30 13836 H 1285.3 3.02318 3.93469 0
M  V30 13837 N 1284.47 -0.556076 1.47464 0
M  V30 13838 C 1285.42 -1.66304 1.60036 0
M  V30 13839 C 1286.39 -1.60074 0.443348 0
M  V30 13840 O 1287.57 -1.7889 0.663545 0
M  V30 13841 C 1284.71 -3.04624 1.62167 0
M  V30 13842 C 1283.82 -3.21283 2.88793 0
M  V30 13843 C 1282.96 -4.50008 2.82252 0
M  V30 13844 C 1282 -4.60103 4.03698 0
M  V30 13845 N 1281.13 -5.80184 3.95387 0
M  V30 13846 H 1285.97 -1.54897 2.5458 0
M  V30 13847 H 1283.51 -0.754533 1.26274 0
M  V30 13848 H 1285.47 -3.84721 1.61386 0
M  V30 13849 H 1284.1 -3.14865 0.711348 0
M  V30 13850 H 1283.15 -2.34611 2.99436 0
M  V30 13851 H 1284.46 -3.24607 3.78724 0
M  V30 13852 H 1283.62 -5.38366 2.79726 0
M  V30 13853 H 1282.36 -4.49165 1.90005 0
M  V30 13854 H 1281.36 -3.70157 4.06527 0
M  V30 13855 H 1282.59 -4.62704 4.97073 0
M  V30 13856 H 1280.53 -5.80288 3.05944 0
M  V30 13857 H 1280.45 -5.8489 4.78998 0
M  V30 13858 H 1281.72 -6.709 3.96879 0
M  V30 13859 N 1285.95 -1.35615 -0.802897 0
M  V30 13860 C 1286.88 -1.31506 -1.92947 0
M  V30 13861 C 1287.86 -0.188843 -1.69048 0
M  V30 13862 O 1289.04 -0.384384 -1.90358 0
M  V30 13863 C 1286.17 -1.09001 -3.29752 0
M  V30 13864 C 1285.13 -2.18303 -3.68141 0
M  V30 13865 C 1284.45 -1.80959 -5.03148 0
M  V30 13866 C 1285.75 -3.60296 -3.78132 0
M  V30 13867 H 1287.45 -2.25771 -1.96642 0
M  V30 13868 H 1284.99 -1.08682 -0.944685 0
M  V30 13869 H 1286.95 -1.04766 -4.08169 0
M  V30 13870 H 1285.67 -0.111832 -3.26408 0
M  V30 13871 H 1284.33 -2.21642 -2.92011 0
M  V30 13872 H 1283.98 -0.817495 -4.96312 0
M  V30 13873 H 1283.68 -2.54129 -5.29804 0
M  V30 13874 H 1285.2 -1.78255 -5.84001 0
M  V30 13875 H 1286.62 -3.59259 -4.46773 0
M  V30 13876 H 1285.01 -4.32258 -4.16261 0
M  V30 13877 H 1286.08 -3.9618 -2.79588 0
M  V30 13878 N 1287.43 1.02549 -1.19673 0
M  V30 13879 C 1288.36 2.12794 -0.961289 0
M  V30 13880 C 1289.34 1.69766 0.106575 0
M  V30 13881 O 1290.52 1.94138 -0.0491358 0
M  V30 13882 C 1287.65 3.4364 -0.502868 0
M  V30 13883 C 1286.61 4.00367 -1.51296 0
M  V30 13884 C 1285.93 5.26874 -0.911491 0
M  V30 13885 C 1287.23 4.34782 -2.89416 0
M  V30 13886 H 1288.93 2.32748 -1.88331 0
M  V30 13887 H 1286.47 1.11852 -0.906922 0
M  V30 13888 H 1288.42 4.20141 -0.325436 0
M  V30 13889 H 1287.15 3.23418 0.454764 0
M  V30 13890 H 1285.81 3.25964 -1.67759 0
M  V30 13891 H 1285.46 5.02971 0.0537982 0
M  V30 13892 H 1285.16 5.65791 -1.58602 0
M  V30 13893 H 1286.68 6.06039 -0.74493 0
M  V30 13894 H 1288.09 5.02207 -2.76516 0
M  V30 13895 H 1286.49 4.8479 -3.53693 0
M  V30 13896 H 1287.56 3.43935 -3.41814 0
M  V30 13897 N 1288.9 1.00119 1.21713 0
M  V30 13898 C 1290.32 0.713343 1.42771 0
M  V30 13899 C 1290.52 -0.712923 1.88467 0
M  V30 13900 O 1289.58 -1.48277 2.04378 0
M  V30 13901 C 1290.89 1.72596 2.46234 0
M  V30 13902 C 1292.44 1.74235 2.60022 0
M  V30 13903 C 1292.91 2.74382 3.66713 0
M  V30 13904 N 1294.4 2.73027 3.7418 0
M  V30 13905 C 1295.14 3.47178 4.56349 0
M  V30 13906 N 1294.63 4.30958 5.42446 0
M  V30 13907 N 1296.43 3.35846 4.50737 0
M  V30 13908 H 1288.58 1.9222 0.903611 0
M  V30 13909 H 1290.84 0.829466 0.459011 0
M  V30 13910 H 1290.55 2.74699 2.19621 0
M  V30 13911 H 1290.42 1.52553 3.44975 0
M  V30 13912 H 1292.81 0.728261 2.85973 0
M  V30 13913 H 1292.89 1.98349 1.61528 0
M  V30 13914 H 1292.53 3.75945 3.41508 0
M  V30 13915 H 1292.46 2.47534 4.64795 0
M  V30 13916 H 1294.95 2.12242 3.12669 0
M  V30 13917 H 1295.27 4.84344 6.02189 0
M  V30 13918 H 1293.61 4.35042 5.42 0
M  V30 13919 H 1296.8 2.6983 3.82504 0
M  V30 13920 H 1296.98 3.93892 5.14541 0
M  V30 13921 N 1290.38 -1.37203 0.775435 0
M  V30 13922 C 1291.63 -1.99207 0.340756 0
M  V30 13923 C 1291.95 -1.61861 -1.08747 0
M  V30 13924 O 1291.22 -0.88583 -1.74728 0
M  V30 13925 H 1289.8 -0.736803 0.123004 0
M  V30 13926 H 1292.46 -1.67625 0.994379 0
M  V30 13927 H 1291.56 -3.09243 0.421346 0
M  V30 13928 N 1291.86 -0.526279 -1.48553 0
M  V30 13929 C 1293.09 0.0052277 -2.06899 0
M  V30 13930 C 1293.5 1.2849 -1.38332 0
M  V30 13931 O 1292.86 1.76354 -0.469648 0
M  V30 13932 C 1292.91 0.236709 -3.60724 0
M  V30 13933 O 1292.63 -0.992256 -4.26715 0
M  V30 13934 C 1294.13 0.809014 -4.35855 0
M  V30 13935 H 1291.35 -0.0318426 -0.670244 0
M  V30 13936 H 1293.9 -0.730865 -1.90994 0
M  V30 13937 H 1292.05 0.922842 -3.76248 0
M  V30 13938 H 1292.47 -0.770697 -5.18807 0
M  V30 13939 H 1293.94 0.920428 -5.44272 0
M  V30 13940 H 1294.42 1.81302 -4.00033 0
M  V30 13941 H 1295.02 0.159564 -4.25001 0
M  V30 13942 N 1293.34 1.5542 -0.261239 0
M  V30 13943 C 1294.28 2.21972 0.632216 0
M  V30 13944 C 1295.25 1.18843 1.16041 0
M  V30 13945 O 1296.44 1.47339 1.21226 0
M  V30 13946 C 1293.58 2.93397 1.81693 0
M  V30 13947 C 1292.69 4.11214 1.3239 0
M  V30 13948 C 1291.83 4.70318 2.46931 0
M  V30 13949 C 1290.87 5.80355 1.94561 0
M  V30 13950 N 1290 6.33581 3.02523 0
M  V30 13951 H 1294.84 2.97944 0.058018 0
M  V30 13952 H 1292.38 1.4709 0.0168725 0
M  V30 13953 H 1294.34 3.33015 2.5131 0
M  V30 13954 H 1292.97 2.19874 2.36337 0
M  V30 13955 H 1292.02 3.76811 0.521292 0
M  V30 13956 H 1293.33 4.90609 0.900214 0
M  V30 13957 H 1292.49 5.12584 3.24565 0
M  V30 13958 H 1291.23 3.90169 2.92608 0
M  V30 13959 H 1290.23 5.37552 1.15402 0
M  V30 13960 H 1291.46 6.62364 1.49836 0
M  V30 13961 H 1289.4 5.56332 3.47608 0
M  V30 13962 H 1289.32 7.08209 2.64529 0
M  V30 13963 H 1290.59 6.80506 3.80174 0
M  V30 13964 N 1294.82 -0.0116844 1.57596 0
M  V30 13965 C 1295.78 -0.991601 2.0664 0
M  V30 13966 C 1296.78 -1.27973 0.973629 0
M  V30 13967 O 1297.97 -1.22686 1.23668 0
M  V30 13968 C 1295.1 -2.31975 2.49801 0
M  V30 13969 H 1296.29 -0.567607 2.9448 0
M  V30 13970 H 1293.85 -0.258906 1.54141 0
M  V30 13971 H 1294.58 -2.79087 1.65169 0
M  V30 13972 H 1294.37 -2.12386 3.29598 0
M  V30 13973 H 1295.86 -3.02294 2.88112 0
M  V30 13974 N 1296.29 -1.55015 -0.284256 0
M  V30 13975 C 1297.22 -1.90128 -1.3555 0
M  V30 13976 C 1298.2 -0.761914 -1.52082 0
M  V30 13977 O 1299.39 -1.01909 -1.65312 0
M  V30 13978 C 1296.52 -2.16332 -2.71695 0
M  V30 13979 C 1295.47 -3.32166 -2.69907 0
M  V30 13980 C 1294.8 -3.43824 -4.09498 0
M  V30 13981 C 1296.1 -4.6885 -2.30168 0
M  V30 13982 H 1297.79 -2.79852 -1.06411 0
M  V30 13983 H 1295.34 -1.34649 -0.510451 0
M  V30 13984 H 1297.29 -2.39482 -3.46737 0
M  V30 13985 H 1296.02 -1.23395 -3.02392 0
M  V30 13986 H 1294.68 -3.08965 -1.97322 0
M  V30 13987 H 1294.32 -2.48375 -4.374 0
M  V30 13988 H 1294.02 -4.21698 -4.092 0
M  V30 13989 H 1295.55 -3.69254 -4.86296 0
M  V30 13990 H 1296.96 -4.91619 -2.9493 0
M  V30 13991 H 1295.36 -5.49558 -2.41052 0
M  V30 13992 H 1296.43 -4.68433 -1.25294 0
M  V30 13993 N 1297.77 0.548248 -1.47757 0
M  V30 13994 C 1299 1.3302 -1.58472 0
M  V30 13995 C 1299.41 1.87292 -0.238186 0
M  V30 13996 O 1298.77 1.65465 0.76991 0
M  V30 13997 C 1298.82 2.49386 -2.61704 0
M  V30 13998 O 1298.54 1.97355 -3.9113 0
M  V30 13999 C 1300.04 3.41471 -2.82688 0
M  V30 14000 H 1297.26 0.405172 -0.534861 0
M  V30 14001 H 1299.81 0.663251 -1.93446 0
M  V30 14002 H 1297.96 3.12001 -2.29639 0
M  V30 14003 H 1298.38 2.7339 -4.47614 0
M  V30 14004 H 1299.85 4.19516 -3.58762 0
M  V30 14005 H 1300.33 3.95573 -1.90837 0
M  V30 14006 H 1300.93 2.84664 -3.15985 0
M  V30 14007 N 1299.25 1.36039 0.795694 0
M  V30 14008 C 1300.16 1.31991 1.93948 0
M  V30 14009 C 1301.18 0.223064 1.72564 0
M  V30 14010 O 1302.35 0.454344 1.96208 0
M  V30 14011 C 1299.42 1.10228 3.28711 0
M  V30 14012 C 1298.48 2.29328 3.62914 0
M  V30 14013 C 1297.71 2.08595 4.91247 0
M  V30 14014 O 1297.93 1.05793 5.60503 0
M  V30 14015 O 1296.87 2.96222 5.23962 0
M  V30 14016 H 1300.69 2.28274 2.00311 0
M  V30 14017 H 1298.28 1.16521 0.935048 0
M  V30 14018 H 1300.16 0.999842 4.09367 0
M  V30 14019 H 1298.84 0.17003 3.23253 0
M  V30 14020 H 1297.74 2.4514 2.8259 0
M  V30 14021 H 1299.08 3.21038 3.73089 0
M  V30 14022 N 1300.73 -1.01913 1.20215 0
M  V30 14023 C 1301.97 -1.7573 1.01226 0
M  V30 14024 C 1302.31 -1.88799 -0.45481 0
M  V30 14025 O 1301.58 -1.41196 -1.33768 0
M  V30 14026 C 1301.87 -3.17795 1.69348 0
M  V30 14027 C 1301.72 -3.12536 3.23483 0
M  V30 14028 C 1303.04 -4.16409 1.42448 0
M  V30 14029 H 1300.16 -0.637889 0.369144 0
M  V30 14030 H 1302.8 -1.18907 1.48193 0
M  V30 14031 H 1300.95 -3.66311 1.29416 0
M  V30 14032 H 1302.62 -2.71843 3.72692 0
M  V30 14033 H 1300.86 -2.49997 3.54519 0
M  V30 14034 H 1301.53 -4.12949 3.66302 0
M  V30 14035 H 1304.01 -3.76537 1.77086 0
M  V30 14036 H 1302.89 -5.13983 1.92648 0
M  V30 14037 H 1303.15 -4.407 0.351574 0
M  V30 14038 N 1302.21 -1.00763 -1.2118 0
M  V30 14039 C 1303.46 -0.687197 -1.89633 0
M  V30 14040 C 1303.77 0.78566 -1.79128 0
M  V30 14041 O 1304.97 1.21828 -2.42632 0
M  V30 14042 C 1303.43 -1.1787 -3.40051 0
M  V30 14043 C 1303.04 -2.67782 -3.59161 0
M  V30 14044 C 1304.78 -0.933277 -4.14114 0
M  V30 14045 C 1302.69 -3.10459 -5.03358 0
M  V30 14046 H 1301.62 -0.253342 -0.710165 0
M  V30 14047 H 1304.27 -1.21914 -1.37147 0
M  V30 14048 H 1302.65 -0.574791 -3.91806 0
M  V30 14049 H 1303.83 -3.33645 -3.17833 0
M  V30 14050 H 1302.14 -2.90368 -2.98455 0
M  V30 14051 H 1304.74 -1.22766 -5.20416 0
M  V30 14052 H 1305.08 0.130431 -4.16096 0
M  V30 14053 H 1305.61 -1.50011 -3.68431 0
M  V30 14054 H 1302.35 -4.16068 -5.06525 0
M  V30 14055 H 1301.87 -2.4931 -5.45531 0
M  V30 14056 H 1303.55 -3.02589 -5.71882 0
M  V30 14057 N 1303.68 1.3679 -0.7827 0
M  V30 14058 C 1305.1 1.82006 -0.41603 0
M  V30 14059 C 1305.45 1.65151 1.05922 0
M  V30 14060 O 1304.57 1.1687 1.82127 0
M  V30 14061 C 1305.17 3.30432 -0.748353 0
M  V30 14062 C 1303.73 3.73883 -0.4346 0
M  V30 14063 C 1302.87 2.59159 -0.986505 0
M  V30 14064 H 1305.82 1.25107 -0.976423 0
M  V30 14065 H 1305.84 3.80482 -0.036985 0
M  V30 14066 H 1305.36 3.42667 -1.82212 0
M  V30 14067 H 1303.46 3.67211 0.631401 0
M  V30 14068 H 1303.57 4.69577 -0.950511 0
M  V30 14069 H 1301.93 2.51377 -0.410108 0
M  V30 14070 H 1302.72 2.74182 -2.06589 0
M  V30 14071 N 1305.16 0.53415 1.48272 0
M  V30 14072 C 1306.09 -0.215037 2.32508 0
M  V30 14073 C 1307.07 -0.931083 1.42355 0
M  V30 14074 O 1308.26 -0.916051 1.71237 0
M  V30 14075 C 1305.39 -1.25985 3.23643 0
M  V30 14076 C 1304.34 -0.661692 4.22854 0
M  V30 14077 C 1303.67 -1.80946 5.03153 0
M  V30 14078 C 1304.97 0.369358 5.20992 0
M  V30 14079 H 1306.66 0.488158 2.95394 0
M  V30 14080 H 1304.21 0.236206 1.4205 0
M  V30 14081 H 1306.16 -1.79195 3.81402 0
M  V30 14082 H 1304.89 -1.99268 2.58766 0
M  V30 14083 H 1303.54 -0.151082 3.66289 0
M  V30 14084 H 1303.19 -2.53077 4.34696 0
M  V30 14085 H 1302.89 -1.41513 5.70305 0
M  V30 14086 H 1304.42 -2.34526 5.63764 0
M  V30 14087 H 1305.83 -0.0758076 5.7325 0
M  V30 14088 H 1304.23 0.681301 5.9622 0
M  V30 14089 H 1305.3 1.27363 4.67875 0
M  V30 14090 N 1306.64 -1.55279 0.269478 0
M  V30 14091 C 1307.87 -2.03876 -0.352418 0
M  V30 14092 C 1308.28 -1.14804 -1.49885 0
M  V30 14093 O 1307.64 -0.166989 -1.81734 0
M  V30 14094 C 1307.69 -3.51634 -0.838799 0
M  V30 14095 O 1307.41 -4.37316 0.261972 0
M  V30 14096 C 1308.91 -4.16094 -1.52909 0
M  V30 14097 H 1306.13 -0.66608 -0.0811043 0
M  V30 14098 H 1308.68 -2.00551 0.399929 0
M  V30 14099 H 1306.83 -3.55421 -1.54125 0
M  V30 14100 H 1307.25 -5.24383 -0.111013 0
M  V30 14101 H 1308.72 -5.21102 -1.82089 0
M  V30 14102 H 1309.2 -3.63928 -2.45872 0
M  V30 14103 H 1309.8 -4.16293 -0.87063 0
M  V30 14104 N 1308.12 0.00332656 -1.576 0
M  V30 14105 C 1309.03 1.01221 -2.1164 0
M  V30 14106 C 1310.04 1.37918 -1.06088 0
M  V30 14107 O 1311.22 1.46717 -1.37971 0
M  V30 14108 C 1308.29 2.28638 -2.60626 0
M  V30 14109 C 1307.35 1.98284 -3.80765 0
M  V30 14110 C 1306.58 3.19626 -4.27405 0
M  V30 14111 O 1306.8 4.31196 -3.73398 0
M  V30 14112 O 1305.74 3.03819 -5.19594 0
M  V30 14113 H 1309.56 0.582839 -2.98055 0
M  V30 14114 H 1307.15 0.221947 -1.47742 0
M  V30 14115 H 1309.03 3.03498 -2.92347 0
M  V30 14116 H 1307.7 2.70819 -1.7731 0
M  V30 14117 H 1306.61 1.2091 -3.54022 0
M  V30 14118 H 1307.94 1.60942 -4.65144 0
M  V30 14119 N 1309.6 1.55164 0.276031 0
M  V30 14120 C 1310.51 1.90928 1.36321 0
M  V30 14121 C 1311.52 0.806183 1.54197 0
M  V30 14122 O 1312.7 1.10497 1.68382 0
M  V30 14123 C 1309.76 2.17123 2.70293 0
M  V30 14124 C 1308.82 3.40703 2.6119 0
M  V30 14125 C 1308.06 3.65638 3.88773 0
M  V30 14126 O 1308.28 2.93137 4.89313 0
M  V30 14127 O 1307.21 4.59172 3.89159 0
M  V30 14128 H 1311.04 2.8347 1.08988 0
M  V30 14129 H 1308.63 1.41672 0.474292 0
M  V30 14130 H 1310.51 2.3541 3.49514 0
M  V30 14131 H 1309.18 1.27765 2.97419 0
M  V30 14132 H 1308.09 3.27754 1.80355 0
M  V30 14133 H 1309.42 4.30271 2.39014 0
M  V30 14134 N 1311.07 -0.540404 1.48045 0
M  V30 14135 C 1312.04 -1.62813 1.61322 0
M  V30 14136 C 1313.04 -1.53243 0.487161 0
M  V30 14137 O 1314.23 -1.571 0.752684 0
M  V30 14138 C 1311.36 -3.02408 1.5736 0
M  V30 14139 H 1312.55 -1.52385 2.583 0
M  V30 14140 H 1310.11 -0.761654 1.36486 0
M  V30 14141 H 1310.84 -3.18353 0.618195 0
M  V30 14142 H 1310.63 -3.10763 2.39099 0
M  V30 14143 H 1312.12 -3.8151 1.69822 0
M  V30 14144 N 1312.55 -1.36459 -0.788468 0
M  V30 14145 C 1313.46 -1.33017 -1.93245 0
M  V30 14146 C 1314.48 -0.232212 -1.72444 0
M  V30 14147 O 1315.65 -0.464743 -1.95965 0
M  V30 14148 C 1312.72 -1.1197 -3.28121 0
M  V30 14149 C 1311.78 -2.3125 -3.61693 0
M  V30 14150 C 1311.01 -2.11197 -4.90134 0
M  V30 14151 O 1311.24 -1.08764 -5.59934 0
M  V30 14152 O 1310.17 -2.98996 -5.22384 0
M  V30 14153 H 1314 -2.29333 -1.99098 0
M  V30 14154 H 1311.58 -1.17016 -0.928856 0
M  V30 14155 H 1313.46 -1.02154 -4.08831 0
M  V30 14156 H 1312.14 -0.187171 -3.23158 0
M  V30 14157 H 1311.05 -2.46635 -2.81286 0
M  V30 14158 H 1312.38 -3.23012 -3.71381 0
M  V30 14159 N 1314.03 1.01274 -1.20754 0
M  V30 14160 C 1314.96 2.11763 -0.983805 0
M  V30 14161 C 1315.94 1.69869 0.0885635 0
M  V30 14162 O 1317.13 1.94075 -0.0697239 0
M  V30 14163 C 1314.26 3.43087 -0.539287 0
M  V30 14164 C 1313.21 3.9874 -1.55534 0
M  V30 14165 C 1312.54 5.25877 -0.967322 0
M  V30 14166 C 1313.84 4.31688 -2.94012 0
M  V30 14167 H 1315.53 2.30737 -1.90789 0
M  V30 14168 H 1313.08 1.10884 -0.918734 0
M  V30 14169 H 1315.03 4.19773 -0.369979 0
M  V30 14170 H 1313.75 3.23883 0.420435 0
M  V30 14171 H 1312.41 3.24166 -1.71207 0
M  V30 14172 H 1312.06 5.03 0.000448307 0
M  V30 14173 H 1311.76 5.64077 -1.64594 0
M  V30 14174 H 1313.28 6.05215 -0.809167 0
M  V30 14175 H 1314.7 4.99246 -2.81827 0
M  V30 14176 H 1313.1 4.81011 -3.58815 0
M  V30 14177 H 1314.17 3.4029 -3.45442 0
M  V30 14178 N 1315.51 1.01404 1.20644 0
M  V30 14179 C 1316.42 0.591693 2.27016 0
M  V30 14180 C 1317.44 -0.36958 1.7003 0
M  V30 14181 O 1318.61 -0.231165 2.00069 0
M  V30 14182 C 1315.68 -0.0659827 3.46637 0
M  V30 14183 C 1314.74 0.940911 4.18862 0
M  V30 14184 C 1313.97 0.314526 5.32772 0
M  V30 14185 O 1314.19 -0.886404 5.63471 0
M  V30 14186 O 1313.13 1.02998 5.93022 0
M  V30 14187 H 1316.95 1.4772 2.65353 0
M  V30 14188 H 1314.54 0.783399 1.27213 0
M  V30 14189 H 1316.42 -0.433412 4.19165 0
M  V30 14190 H 1315.1 -0.925729 3.10181 0
M  V30 14191 H 1314 1.35966 3.48517 0
M  V30 14192 H 1315.34 1.77054 4.59252 0
M  V30 14193 N 1316.99 -1.36373 0.789944 0
M  V30 14194 C 1317.92 -2.32616 0.202944 0
M  V30 14195 C 1318.9 -1.56674 -0.662364 0
M  V30 14196 O 1320.08 -1.84826 -0.596078 0
M  V30 14197 C 1317.21 -3.4092 -0.662646 0
M  V30 14198 C 1316.17 -4.27877 0.102811 0
M  V30 14199 C 1315.49 -5.27352 -0.883407 0
M  V30 14200 C 1316.79 -5.0606 1.29231 0
M  V30 14201 H 1318.49 -2.81958 1.00699 0
M  V30 14202 H 1316.03 -1.35562 0.48568 0
M  V30 14203 H 1317.99 -4.07239 -1.08324 0
M  V30 14204 H 1316.71 -2.90147 -1.4994 0
M  V30 14205 H 1315.37 -3.63114 0.504389 0
M  V30 14206 H 1315.02 -4.72853 -1.71521 0
M  V30 14207 H 1314.72 -5.86398 -0.375669 0
M  V30 14208 H 1316.24 -5.96545 -1.30256 0
M  V30 14209 H 1317.66 -5.65417 0.947446 0
M  V30 14210 H 1316.05 -5.74521 1.73338 0
M  V30 14211 H 1317.12 -4.37671 2.08739 0
M  V30 14212 N 1318.47 -0.542005 -1.47987 0
M  V30 14213 C 1319.43 0.203537 -2.28294 0
M  V30 14214 C 1320.43 0.856762 -1.36074 0
M  V30 14215 O 1321.62 0.71496 -1.58852 0
M  V30 14216 C 1318.75 1.29581 -3.15312 0
M  V30 14217 H 1319.94 -0.501701 -2.95674 0
M  V30 14218 H 1317.5 -0.298378 -1.53426 0
M  V30 14219 H 1318.23 2.03393 -2.5259 0
M  V30 14220 H 1318.02 0.832398 -3.83163 0
M  V30 14221 H 1319.51 1.81988 -3.75859 0
M  V30 14222 N 1319.94 1.55134 -0.277709 0
M  V30 14223 C 1320.85 2.26296 0.618658 0
M  V30 14224 C 1321.87 1.28978 1.16794 0
M  V30 14225 O 1323.05 1.61918 1.19768 0
M  V30 14226 C 1320.11 2.97214 1.78508 0
M  V30 14227 C 1319.17 4.10016 1.27221 0
M  V30 14228 C 1318.4 4.77543 2.38304 0
M  V30 14229 O 1318.63 4.44293 3.57715 0
M  V30 14230 O 1317.56 5.65437 2.06313 0
M  V30 14231 H 1321.39 3.03671 0.0421031 0
M  V30 14232 H 1318.97 1.49332 -0.0450166 0
M  V30 14233 H 1320.85 3.41773 2.46513 0
M  V30 14234 H 1319.53 2.22753 2.34867 0
M  V30 14235 H 1318.44 3.69907 0.558544 0
M  V30 14236 H 1319.77 4.86385 0.754333 0
M  V30 14237 N 1321.42 0.00503138 1.57599 0
M  V30 14238 C 1322.37 -1.00294 2.09866 0
M  V30 14239 C 1323.36 -1.35267 1.01977 0
M  V30 14240 O 1324.57 -1.33772 1.20437 0
M  V30 14241 H 1320.94 -0.341112 0.670184 0
M  V30 14242 H 1322.92 -0.536595 2.93536 0
M  V30 14243 C 1321.66 -2.28432 2.62133 0
M  V30 14244 H 1320.99 -2.02391 3.44787 0
M  V30 14245 H 1322.43 -2.97227 3.02378 0
M  V30 14246 C 1320.89 -2.99758 1.53774 0
M  V30 14247 O 1321.42 -3.90939 0.923563 0
M  V30 14248 N 1319.62 -2.61671 1.26398 0
M  V30 14249 H 1319.17 -1.87605 1.76528 0
M  V30 14250 H 1319.13 -3.09707 0.541168 0
M  V30 14251 N 1322.9 -1.55308 -0.267798 0
M  V30 14252 C 1324.32 -1.47264 -0.61526 0
M  V30 14253 C 1324.52 -0.691025 -1.8928 0
M  V30 14254 O 1323.57 -0.211964 -2.51609 0
M  V30 14255 C 1324.88 -2.91519 -0.73739 0
M  V30 14256 C 1326.43 -3.01764 -0.831102 0
M  V30 14257 C 1326.91 -4.47283 -0.984965 0
M  V30 14258 N 1328.4 -4.51134 -1.05036 0
M  V30 14259 C 1329.13 -5.60952 -1.1883 0
M  V30 14260 N 1328.63 -6.80625 -1.29311 0
M  V30 14261 N 1330.42 -5.48705 -1.21982 0
M  V30 14262 H 1322.57 -2.04577 0.57114 0
M  V30 14263 H 1324.84 -0.927908 0.194141 0
M  V30 14264 H 1324.54 -3.51456 0.130974 0
M  V30 14265 H 1324.42 -3.40829 -1.61603 0
M  V30 14266 H 1326.8 -2.4192 -1.68993 0
M  V30 14267 H 1326.88 -2.55698 0.0722509 0
M  V30 14268 H 1326.53 -5.07732 -0.130776 0
M  V30 14269 H 1326.46 -4.91011 -1.90305 0
M  V30 14270 H 1328.95 -3.6493 -0.981551 0
M  V30 14271 H 1329.26 -7.60071 -1.39685 0
M  V30 14272 H 1327.61 -6.83426 -1.26306 0
M  V30 14273 H 1330.8 -4.5415 -1.13428 0
M  V30 14274 H 1330.97 -6.34332 -1.32388 0
M  V30 14275 N 1324.38 0.532545 -1.4833 0
M  V30 14276 C 1325.29 1.66433 -1.65339 0
M  V30 14277 C 1326.3 1.65541 -0.535939 0
M  V30 14278 O 1327.48 1.84539 -0.806679 0
M  V30 14279 C 1324.54 3.02901 -1.68676 0
M  V30 14280 C 1323.61 3.14669 -2.92031 0
M  V30 14281 C 1322.84 4.44627 -2.95199 0
M  V30 14282 O 1323.06 5.31572 -2.06851 0
M  V30 14283 O 1322 4.60707 -3.87341 0
M  V30 14284 H 1325.82 1.5502 -2.61156 0
M  V30 14285 H 1323.41 0.705348 -1.31701 0
M  V30 14286 H 1325.29 3.84068 -1.73407 0
M  V30 14287 H 1323.96 3.14644 -0.760327 0
M  V30 14288 H 1322.87 2.32807 -2.92834 0
M  V30 14289 H 1324.2 3.07841 -3.8405 0
M  V30 14290 N 1325.86 1.36875 0.78122 0
M  V30 14291 C 1327.1 1.30886 1.53466 0
M  V30 14292 C 1327.42 -0.107218 1.95306 0
M  V30 14293 O 1328.62 -0.289525 2.69952 0
M  V30 14294 C 1327.08 2.29688 2.77076 0
M  V30 14295 C 1326.69 3.76775 2.42373 0
M  V30 14296 C 1328.43 2.32692 3.55042 0
M  V30 14297 C 1326.34 4.67332 3.62428 0
M  V30 14298 H 1325.27 0.486408 0.576128 0
M  V30 14299 H 1327.92 1.62283 0.856529 0
M  V30 14300 H 1326.3 1.91296 3.4673 0
M  V30 14301 H 1327.48 4.2395 1.80563 0
M  V30 14302 H 1325.79 3.76625 1.77602 0
M  V30 14303 H 1328.39 2.97556 4.44257 0
M  V30 14304 H 1328.73 1.33779 3.94219 0
M  V30 14305 H 1329.26 2.69743 2.92375 0
M  V30 14306 H 1326 5.67339 3.2834 0
M  V30 14307 H 1325.52 4.24868 4.23376 0
M  V30 14308 H 1327.2 4.84005 4.29358 0
M  V30 14309 N 1327.33 -1.00632 1.21289 0
M  V30 14310 C 1328.26 -2.11238 0.995021 0
M  V30 14311 C 1329.24 -1.69914 -0.0795537 0
M  V30 14312 O 1330.43 -1.94035 0.0800152 0
M  V30 14313 C 1327.56 -3.42797 0.557475 0
M  V30 14314 C 1326.51 -3.97909 1.57646 0
M  V30 14315 C 1325.84 -5.25357 0.995197 0
M  V30 14316 C 1327.14 -4.30123 2.96297 0
M  V30 14317 H 1328.83 -2.29722 1.9201 0
M  V30 14318 H 1326.38 -1.10395 0.924602 0
M  V30 14319 H 1328.33 -4.19571 0.392236 0
M  V30 14320 H 1327.06 -3.24101 -0.403253 0
M  V30 14321 H 1325.72 -3.23254 1.72924 0
M  V30 14322 H 1325.36 -5.02993 0.026227 0
M  V30 14323 H 1325.06 -5.63196 1.67583 0
M  V30 14324 H 1326.59 -6.04777 0.841251 0
M  V30 14325 H 1328 -4.97744 2.8447 0
M  V30 14326 H 1326.4 -4.79101 3.61361 0
M  V30 14327 H 1327.47 -3.38454 3.47242 0
M  V30 14328 N 1328.81 -1.02043 -1.20104 0
M  V30 14329 C 1329.76 -0.593945 -2.23027 0
M  V30 14330 C 1330.73 0.387931 -1.61506 0
M  V30 14331 O 1331.91 0.286504 -1.88637 0
M  V30 14332 C 1329.05 0.0577309 -3.45052 0
M  V30 14333 C 1328.17 -0.969169 -4.20988 0
M  V30 14334 C 1327.3 -0.288143 -5.30418 0
M  V30 14335 C 1326.34 -1.30154 -5.98102 0
M  V30 14336 N 1325.48 -0.646912 -6.99113 0
M  V30 14337 H 1330.32 -1.47623 -2.58866 0
M  V30 14338 H 1327.85 -0.738901 -1.27195 0
M  V30 14339 H 1329.81 0.452726 -4.14736 0
M  V30 14340 H 1328.44 0.90364 -3.09894 0
M  V30 14341 H 1327.49 -1.48229 -3.50332 0
M  V30 14342 H 1328.81 -1.73972 -4.67477 0
M  V30 14343 H 1327.96 0.162149 -6.06483 0
M  V30 14344 H 1326.7 0.514683 -4.84977 0
M  V30 14345 H 1325.7 -1.76218 -5.20795 0
M  V30 14346 H 1326.93 -2.10571 -6.45629 0
M  V30 14347 H 1324.88 0.135976 -6.55859 0
M  V30 14348 H 1324.79 -1.35548 -7.43749 0
M  V30 14349 H 1326.06 -0.220339 -7.79189 0
M  V30 14350 N 1330.29 1.35952 -0.797165 0
M  V30 14351 C 1331.2 2.33726 -0.202271 0
M  V30 14352 C 1332.22 1.61415 0.649719 0
M  V30 14353 O 1333.39 1.93351 0.563686 0
M  V30 14354 C 1330.46 3.40612 0.64685 0
M  V30 14355 C 1329.52 4.28712 -0.224536 0
M  V30 14356 C 1328.75 5.30493 0.584153 0
M  V30 14357 O 1328.97 5.40599 1.81957 0
M  V30 14358 O 1327.91 6.01897 -0.0200239 0
M  V30 14359 H 1331.73 2.86383 -1.01087 0
M  V30 14360 H 1329.32 1.38557 -0.558768 0
M  V30 14361 H 1331.2 4.05944 1.1308 0
M  V30 14362 H 1329.88 2.90243 1.43321 0
M  V30 14363 H 1328.78 3.66394 -0.755415 0
M  V30 14364 H 1330.12 4.82454 -0.974603 0
M  V30 14365 N 1331.77 0.549846 1.47697 0
M  V30 14366 C 1333.18 0.11453 1.86348 0
M  V30 14367 C 1333.53 -1.31368 1.45729 0
M  V30 14368 O 1332.66 -1.98707 0.856989 0
M  V30 14369 C 1333.25 0.201072 3.38203 0
M  V30 14370 C 1331.81 -0.179162 3.75973 0
M  V30 14371 C 1330.96 0.551951 2.71751 0
M  V30 14372 H 1333.91 0.759989 1.39319 0
M  V30 14373 H 1333.93 -0.582216 3.76019 0
M  V30 14374 H 1333.44 1.24065 3.67736 0
M  V30 14375 H 1331.54 -1.22013 3.52056 0
M  V30 14376 H 1331.65 0.174273 4.78783 0
M  V30 14377 H 1330.02 -0.00411819 2.547 0
M  V30 14378 H 1330.8 1.59254 3.04127 0
M  V30 14379 N 1333.25 -1.54984 0.285932 0
M  V30 14380 C 1334.49 -2.00126 -0.328223 0
M  V30 14381 C 1334.83 -1.17409 -1.54689 0
M  V30 14382 O 1334.1 -0.246806 -1.92928 0
M  V30 14383 C 1334.38 -3.53236 -0.699733 0
M  V30 14384 C 1334.24 -4.46702 0.527029 0
M  V30 14385 C 1335.56 -4.12572 -1.53206 0
M  V30 14386 H 1332.67 -0.727521 -0.117825 0
M  V30 14387 H 1335.32 -1.85848 0.395032 0
M  V30 14388 H 1333.47 -3.65534 -1.31594 0
M  V30 14389 H 1335.14 -4.46332 1.16557 0
M  V30 14390 H 1333.38 -4.17917 1.1631 0
M  V30 14391 H 1334.05 -5.51549 0.223165 0
M  V30 14392 H 1336.53 -4.03618 -1.01154 0
M  V30 14393 H 1335.4 -5.19891 -1.7608 0
M  V30 14394 H 1335.67 -3.63487 -2.51654 0
M  V30 14395 N 1334.72 -0.0133892 -1.57594 0
M  V30 14396 C 1335.67 0.982482 -2.05746 0
M  V30 14397 C 1336.66 1.29508 -0.954801 0
M  V30 14398 O 1337.85 1.28382 -1.21848 0
M  V30 14399 C 1334.98 2.27012 -2.57527 0
M  V30 14400 C 1334.07 1.98658 -3.74694 0
M  V30 14401 N 1334.46 1.40512 -4.85891 0
M  V30 14402 C 1332.75 2.28732 -3.82881 0
M  V30 14403 C 1333.46 1.28933 -5.67231 0
M  V30 14404 N 1332.43 1.77951 -5.13648 0
M  V30 14405 H 1336.23 0.527626 -2.89125 0
M  V30 14406 H 1333.75 0.192001 -1.61261 0
M  V30 14407 H 1335.74 2.99212 -2.90306 0
M  V30 14408 H 1334.4 2.73139 -1.75572 0
M  V30 14409 H 1335.42 1.08217 -5.06468 0
M  V30 14410 H 1332.09 2.77641 -3.11804 0
M  V30 14411 H 1333.48 0.841051 -6.66615 0
M  V30 14412 N 1336.2 1.55448 0.259558 0
M  V30 14413 C 1337.11 1.92364 1.34289 0
M  V30 14414 C 1338.13 0.822492 1.53333 0
M  V30 14415 O 1339.3 1.12277 1.672 0
M  V30 14416 C 1336.37 2.19978 2.67975 0
M  V30 14417 C 1335.43 3.43454 2.57562 0
M  V30 14418 C 1334.66 3.69741 3.84873 0
M  V30 14419 O 1334.89 2.9831 4.86176 0
M  V30 14420 O 1333.82 4.63274 3.84267 0
M  V30 14421 H 1337.65 2.8461 1.05975 0
M  V30 14422 H 1335.23 1.42167 0.459239 0
M  V30 14423 H 1337.11 2.39104 3.46998 0
M  V30 14424 H 1335.79 1.30912 2.96047 0
M  V30 14425 H 1334.7 3.29649 1.76869 0
M  V30 14426 H 1336.03 4.32782 2.34437 0
M  V30 14427 N 1337.68 -0.524672 1.4861 0
M  V30 14428 C 1338.93 -1.28211 1.5713 0
M  V30 14429 C 1339.26 -1.92626 0.246751 0
M  V30 14430 O 1338.53 -1.79553 -0.747725 0
M  V30 14431 C 1338.82 -2.36737 2.71344 0
M  V30 14432 C 1338.67 -1.76978 4.1352 0
M  V30 14433 C 1339.99 -3.3847 2.81294 0
M  V30 14434 H 1337.11 -0.46479 0.571961 0
M  V30 14435 H 1339.75 -0.583937 1.80804 0
M  V30 14436 H 1337.9 -2.96287 2.51289 0
M  V30 14437 H 1339.57 -1.21438 4.45029 0
M  V30 14438 H 1337.82 -1.07488 4.20272 0
M  V30 14439 H 1338.49 -2.55583 4.89266 0
M  V30 14440 H 1340.96 -2.88882 2.99477 0
M  V30 14441 H 1339.84 -4.11795 3.62928 0
M  V30 14442 H 1340.1 -3.99347 1.89669 0
M  V30 14443 N 1339.16 -1.37287 -0.77395 0
M  V30 14444 C 1340.39 -1.35366 -1.56075 0
M  V30 14445 C 1340.8 0.0634437 -1.89094 0
M  V30 14446 O 1340.14 1.03503 -1.51766 0
M  V30 14447 C 1340.2 -2.12512 -2.89964 0
M  V30 14448 C 1339.87 -3.61492 -2.79593 0
M  V30 14449 C 1340.86 -4.55421 -2.50774 0
M  V30 14450 C 1338.55 -4.04585 -2.97684 0
M  V30 14451 C 1340.54 -5.90421 -2.4017 0
M  V30 14452 C 1338.23 -5.39672 -2.86701 0
M  V30 14453 C 1339.23 -6.32403 -2.57984 0
M  V30 14454 O 1338.91 -7.65006 -2.47024 0
M  V30 14455 H 1338.65 -0.465447 -0.49024 0
M  V30 14456 H 1341.2 -1.81199 -0.967273 0
M  V30 14457 H 1339.43 -1.61366 -3.51423 0
M  V30 14458 H 1341.12 -2.03253 -3.51345 0
M  V30 14459 H 1341.89 -4.23438 -2.36485 0
M  V30 14460 H 1337.76 -3.32769 -3.19038 0
M  V30 14461 H 1341.31 -6.62769 -2.17676 0
M  V30 14462 H 1337.21 -5.71258 -3.00558 0
M  V30 14463 H 1337.97 -7.75302 -2.6239 0
M  V30 14464 N 1340.64 0.999871 -1.21821 0
M  V30 14465 C 1341.87 1.77148 -1.06312 0
M  V30 14466 C 1342.27 1.85142 0.389747 0
M  V30 14467 O 1341.62 1.31562 1.28207 0
M  V30 14468 C 1341.68 3.22367 -1.59122 0
M  V30 14469 C 1341.34 3.37937 -3.07649 0
M  V30 14470 C 1342.34 3.25808 -4.05148 0
M  V30 14471 C 1340.03 3.63213 -3.46961 0
M  V30 14472 C 1342.02 3.38729 -5.39946 0
M  V30 14473 C 1339.71 3.75775 -4.81909 0
M  V30 14474 C 1340.7 3.6354 -5.78211 0
M  V30 14475 O 1340.39 3.75694 -7.1071 0
M  V30 14476 H 1340.12 0.563396 -0.373578 0
M  V30 14477 H 1342.68 1.26627 -1.61724 0
M  V30 14478 H 1340.91 3.74047 -0.98111 0
M  V30 14479 H 1342.6 3.81219 -1.39379 0
M  V30 14480 H 1343.36 3.062 -3.76121 0
M  V30 14481 H 1339.24 3.71816 -2.72533 0
M  V30 14482 H 1342.79 3.29096 -6.15095 0
M  V30 14483 H 1338.68 3.94889 -5.1062 0
M  V30 14484 H 1339.45 3.9261 -7.18192 0
M  V30 14485 N 1342.11 1.02678 1.19562 0
M  V30 14486 C 1343.39 0.63674 1.84946 0
M  V30 14487 C 1343.77 -0.884667 1.91669 0
M  V30 14488 O 1343.12 -1.78053 1.43211 0
M  V30 14489 C 1343.33 1.29637 3.2403 0
M  V30 14490 C 1344.68 1.41828 4.00212 0
M  V30 14491 O 1345.7 1.25338 3.3342 0
M  V30 14492 O 1344.56 1.68573 5.19851 0
M  V30 14493 H 1341.65 0.221044 0.796912 0
M  V30 14494 H 1344.2 1.1248 1.27068 0
M  V30 14495 H 1342.97 2.33549 3.1396 0
M  V30 14496 H 1342.6 0.796041 3.8955 0
M  V30 14497 N 1343.59 -1.35528 0.804364 0
M  V30 14498 C 1345 -1.81321 0.444933 0
M  V30 14499 C 1345.35 -1.66816 -1.03281 0
M  V30 14500 O 1344.48 -1.19753 -1.80245 0
M  V30 14501 C 1345.07 -3.29199 0.800827 0
M  V30 14502 C 1343.63 -3.73144 0.494026 0
M  V30 14503 C 1342.78 -2.57557 1.02761 0
M  V30 14504 H 1345.73 -1.23537 0.996203 0
M  V30 14505 H 1345.75 -3.80375 0.0975117 0
M  V30 14506 H 1345.26 -3.39725 1.8764 0
M  V30 14507 H 1343.37 -3.68169 -0.572901 0
M  V30 14508 H 1343.48 -4.68005 1.0251 0
M  V30 14509 H 1341.84 -2.50692 0.450048 0
M  V30 14510 H 1342.63 -2.70861 2.10925 0
M  V30 14511 N 1345.07 -0.557671 -1.47404 0
M  V30 14512 C 1346.3 -0.0366797 -2.07368 0
M  V30 14513 C 1346.72 1.2478 -1.40754 0
M  V30 14514 O 1346.08 1.74757 -0.48268 0
M  V30 14515 C 1346.13 0.141728 -3.60321 0
M  V30 14516 O 1345.23 1.20419 -3.94427 0
M  V30 14517 H 1344.57 -0.0515319 -0.661997 0
M  V30 14518 H 1347.1 -0.773485 -1.89416 0
M  V30 14519 H 1347.11 0.355787 -4.06446 0
M  V30 14520 H 1345.79 -0.796433 -4.08203 0
M  V30 14521 H 1344.36 0.970589 -3.60047 0
M  V30 14522 N 1346.55 1.54831 -0.294147 0
M  V30 14523 C 1347.5 2.23263 0.58499 0
M  V30 14524 C 1348.47 1.21278 1.13494 0
M  V30 14525 O 1349.65 1.49878 1.18073 0
M  V30 14526 C 1346.79 2.97185 1.75429 0
M  V30 14527 C 1345.9 4.1393 1.23638 0
M  V30 14528 C 1345.04 4.7545 2.36899 0
M  V30 14529 C 1344.08 5.84352 1.82207 0
M  V30 14530 N 1343.22 6.39855 2.89015 0
M  V30 14531 H 1348.06 2.98 -0.00519329 0
M  V30 14532 H 1345.59 1.47093 -0.0143313 0
M  V30 14533 H 1347.55 3.38271 2.4419 0
M  V30 14534 H 1346.18 2.24837 2.3162 0
M  V30 14535 H 1345.23 3.77832 0.441247 0
M  V30 14536 H 1346.54 4.92409 0.795946 0
M  V30 14537 H 1345.7 5.19353 3.1362 0
M  V30 14538 H 1344.44 3.96288 2.84266 0
M  V30 14539 H 1343.44 5.39879 1.03974 0
M  V30 14540 H 1344.67 6.65393 1.35753 0
M  V30 14541 H 1342.61 5.6358 3.35729 0
M  V30 14542 H 1342.53 7.13661 2.49447 0
M  V30 14543 H 1343.8 6.88417 3.65654 0
M  V30 14544 N 1348.03 0.0217466 1.57585 0
M  V30 14545 C 1349.3 -0.696733 1.8277 0
M  V30 14546 C 1349.68 -1.90759 0.904112 0
M  V30 14547 O 1349.03 -2.28461 -0.0420522 0
M  V30 14548 C 1349.24 -1.08193 3.31806 0
M  V30 14549 C 1350.59 -1.47667 3.98095 0
M  V30 14550 O 1351.61 -1.17511 3.36258 0
M  V30 14551 O 1350.47 -2.03825 5.07068 0
M  V30 14552 H 1347.57 -0.341141 0.75336 0
M  V30 14553 H 1350.11 0.0488652 1.6963 0
M  V30 14554 H 1348.89 -0.219799 3.90682 0
M  V30 14555 H 1348.51 -1.88593 3.50026 0
M  V30 14556 N 1349.51 -1.55583 -0.251311 0
M  V30 14557 C 1350.44 -1.9296 -1.31486 0
M  V30 14558 C 1351.42 -0.794001 -1.50431 0
M  V30 14559 O 1352.6 -1.05393 -1.63113 0
M  V30 14560 C 1349.73 -2.22046 -2.67045 0
M  V30 14561 C 1348.69 -3.37816 -2.62801 0
M  V30 14562 C 1348.01 -3.52433 -4.02113 0
M  V30 14563 C 1349.31 -4.73626 -2.20171 0
M  V30 14564 H 1351.01 -2.82046 -1.00451 0
M  V30 14565 H 1348.55 -1.35702 -0.481775 0
M  V30 14566 H 1350.5 -2.46783 -3.41579 0
M  V30 14567 H 1349.23 -1.29782 -2.99707 0
M  V30 14568 H 1347.89 -3.13081 -1.90724 0
M  V30 14569 H 1347.54 -2.57597 -4.32034 0
M  V30 14570 H 1347.24 -4.30283 -4.00163 0
M  V30 14571 H 1348.76 -3.79486 -4.78354 0
M  V30 14572 H 1350.17 -4.97764 -2.84436 0
M  V30 14573 H 1348.57 -5.54547 -2.29341 0
M  V30 14574 H 1349.64 -4.70985 -1.1533 0
M  V30 14575 N 1350.98 0.516783 -1.48886 0
M  V30 14576 C 1352.23 1.27375 -1.57808 0
M  V30 14577 C 1352.56 1.92492 -0.256963 0
M  V30 14578 O 1351.84 1.79947 0.738193 0
M  V30 14579 C 1352.12 2.35295 -2.72595 0
M  V30 14580 C 1351.97 1.74783 -4.14453 0
M  V30 14581 C 1353.29 3.36973 -2.83085 0
M  V30 14582 H 1350.41 0.46175 -0.574418 0
M  V30 14583 H 1353.05 0.57434 -1.81111 0
M  V30 14584 H 1351.2 2.94951 -2.52857 0
M  V30 14585 H 1352.88 1.19076 -4.45666 0
M  V30 14586 H 1351.12 1.05258 -4.20836 0
M  V30 14587 H 1351.79 2.52985 -4.90615 0
M  V30 14588 H 1354.27 2.87289 -3.01005 0
M  V30 14589 H 1353.14 4.09864 -3.65106 0
M  V30 14590 H 1353.4 3.98336 -1.91784 0
M  V30 14591 N 1352.46 1.37696 0.766659 0
M  V30 14592 C 1353.42 1.33688 1.86172 0
M  V30 14593 C 1354.42 0.239922 1.59 0
M  V30 14594 O 1355.61 0.496066 1.66988 0
M  V30 14595 C 1352.75 1.07807 3.23405 0
M  V30 14596 H 1353.94 2.311 1.91136 0
M  V30 14597 H 1351.49 1.22799 0.966961 0
M  V30 14598 H 1352.23 0.109477 3.24115 0
M  V30 14599 H 1352.01 1.87213 3.4452 0
M  V30 14600 H 1353.5 1.07665 4.03482 0
M  V30 14601 N 1353.94 -0.993397 1.22349 0
M  V30 14602 C 1354.85 -2.11771 1.00947 0
M  V30 14603 C 1355.87 -1.73949 -0.0420679 0
M  V30 14604 O 1357.04 -2.00837 0.150548 0
M  V30 14605 C 1354.11 -3.41654 0.589359 0
M  V30 14606 C 1353.17 -3.93579 1.71446 0
M  V30 14607 C 1352.4 -5.17264 1.3143 0
M  V30 14608 O 1352.62 -5.70074 0.192876 0
M  V30 14609 O 1351.56 -5.62929 2.13059 0
M  V30 14610 H 1355.38 -2.32708 1.95142 0
M  V30 14611 H 1352.97 -1.10144 1.00939 0
M  V30 14612 H 1354.85 -4.19813 0.365403 0
M  V30 14613 H 1353.53 -3.22077 -0.323738 0
M  V30 14614 H 1352.43 -3.16596 1.99294 0
M  V30 14615 H 1353.77 -4.17588 2.6054 0
M  V30 14616 N 1355.42 -1.03311 -1.19015 0
M  V30 14617 C 1356.67 -0.727266 -1.88132 0
M  V30 14618 C 1356.98 0.747488 -1.80754 0
M  V30 14619 O 1358.19 1.16654 -2.45161 0
M  V30 14620 C 1356.64 -1.25056 -3.37474 0
M  V30 14621 C 1356.25 -2.7534 -3.534 0
M  V30 14622 C 1357.99 -1.02091 -4.12041 0
M  V30 14623 C 1355.9 -3.21066 -4.96659 0
M  V30 14624 H 1354.83 -0.268349 -0.704631 0
M  V30 14625 H 1357.48 -1.24795 -1.3453 0
M  V30 14626 H 1355.86 -0.65777 -3.90499 0
M  V30 14627 H 1357.04 -3.40311 -3.10684 0
M  V30 14628 H 1355.35 -2.96633 -2.92229 0
M  V30 14629 H 1357.95 -1.33777 -5.17695 0
M  V30 14630 H 1358.29 0.0421413 -4.16279 0
M  V30 14631 H 1358.83 -1.57792 -3.65166 0
M  V30 14632 H 1355.56 -4.26719 -4.97586 0
M  V30 14633 H 1355.08 -2.60826 -5.4012 0
M  V30 14634 H 1356.76 -3.14651 -5.65335 0
M  V30 14635 N 1356.9 1.35099 -0.81154 0
M  V30 14636 C 1357.83 2.28468 -0.183012 0
M  V30 14637 C 1358.84 1.50509 0.620553 0
M  V30 14638 O 1360.03 1.7268 0.4521 0
M  V30 14639 C 1357.13 3.30201 0.762933 0
M  V30 14640 C 1356.3 4.374 0.00466561 0
M  V30 14641 C 1355.36 5.18961 0.869832 0
M  V30 14642 O 1354.39 5.68306 0.318964 0
M  V30 14643 N 1355.59 5.37555 2.19123 0
M  V30 14644 H 1358.35 2.83046 -0.985132 0
M  V30 14645 H 1355.92 1.47502 -0.667449 0
M  V30 14646 H 1357.91 3.81659 1.34606 0
M  V30 14647 H 1356.48 2.76101 1.46584 0
M  V30 14648 H 1355.7 3.8681 -0.759702 0
M  V30 14649 H 1356.99 5.06159 -0.517739 0
M  V30 14650 H 1356.38 4.99118 2.66266 0
M  V30 14651 H 1354.94 5.92174 2.72348 0
M  V30 14652 N 1358.37 0.56548 1.47106 0
M  V30 14653 C 1359.32 -0.177564 2.30116 0
M  V30 14654 C 1360.29 -0.900534 1.39569 0
M  V30 14655 O 1361.48 -0.894603 1.68527 0
M  V30 14656 C 1358.62 -1.19633 3.237 0
M  V30 14657 C 1357.73 -0.47858 4.29341 0
M  V30 14658 C 1356.86 -1.48336 5.10068 0
M  V30 14659 C 1355.9 -0.751049 6.07475 0
M  V30 14660 N 1355.04 -1.70306 6.81132 0
M  V30 14661 H 1359.88 0.536409 2.93132 0
M  V30 14662 H 1357.42 0.276352 1.44481 0
M  V30 14663 H 1359.37 -1.79967 3.76388 0
M  V30 14664 H 1358 -1.87823 2.6253 0
M  V30 14665 H 1357.06 0.239454 3.79646 0
M  V30 14666 H 1358.37 0.0947147 4.9871 0
M  V30 14667 H 1357.52 -2.16 5.66947 0
M  V30 14668 H 1356.26 -2.09058 4.4062 0
M  V30 14669 H 1355.27 -0.0605336 5.49767 0
M  V30 14670 H 1356.49 -0.14946 6.78936 0
M  V30 14671 H 1354.44 -2.2987 6.14407 0
M  V30 14672 H 1354.35 -1.18213 7.46701 0
M  V30 14673 H 1355.62 -2.37058 7.42579 0
M  V30 14674 N 1359.85 -1.54672 0.302354 0
M  V30 14675 C 1360.78 -2.21021 -0.606828 0
M  V30 14676 C 1361.8 -1.20337 -1.09648 0
M  V30 14677 O 1362.99 -1.46923 -1.0137 0
M  V30 14678 C 1360.09 -2.84411 -1.84293 0
M  V30 14679 C 1359.26 -4.11038 -1.49554 0
M  V30 14680 C 1358.32 -4.58219 -2.58693 0
M  V30 14681 O 1357.34 -5.23387 -2.23728 0
M  V30 14682 N 1358.55 -4.30651 -3.89256 0
M  V30 14683 H 1361.31 -2.99675 -0.0388221 0
M  V30 14684 H 1358.87 -1.6142 0.124614 0
M  V30 14685 H 1360.86 -3.12906 -2.56655 0
M  V30 14686 H 1359.43 -2.09589 -2.31929 0
M  V30 14687 H 1358.65 -3.89538 -0.604492 0
M  V30 14688 H 1359.94 -4.93488 -1.23884 0
M  V30 14689 H 1359.34 -3.78445 -4.20471 0
M  V30 14690 H 1357.9 -4.63853 -4.57913 0
M  V30 14691 N 1361.33 -0.0301034 -1.57571 0
M  V30 14692 C 1362.58 0.647042 -1.91462 0
M  V30 14693 C 1362.9 1.72612 -0.907206 0
M  V30 14694 O 1362.17 1.95833 0.0511268 0
M  V30 14695 H 1360.75 0.241988 -0.706718 0
M  V30 14696 H 1363.41 -0.0781385 -1.94743 0
M  V30 14697 H 1362.51 1.09915 -2.92105 0
M  V30 14698 N 1362.81 1.55714 0.243056 0
M  V30 14699 C 1363.74 1.87093 1.32396 0
M  V30 14700 C 1364.75 0.757482 1.44104 0
M  V30 14701 O 1365.94 1.03563 1.45386 0
M  V30 14702 C 1363.04 2.04546 2.70212 0
M  V30 14703 C 1362.22 3.3543 2.80723 0
M  V30 14704 C 1361.27 3.42578 3.99408 0
M  V30 14705 O 1360.3 4.15762 3.88755 0
M  V30 14706 N 1361.5 2.7215 5.12752 0
M  V30 14707 H 1364.27 2.80399 1.05813 0
M  V30 14708 H 1361.83 1.55998 0.433151 0
M  V30 14709 H 1363.82 2.06665 3.47954 0
M  V30 14710 H 1362.39 1.17966 2.89487 0
M  V30 14711 H 1361.61 3.45594 1.89626 0
M  V30 14712 H 1362.9 4.21692 2.84698 0
M  V30 14713 H 1362.3 2.1243 5.24299 0
M  V30 14714 H 1360.85 2.79957 5.88615 0
M  V30 14715 N 1364.29 -0.50888 1.49158 0
M  V30 14716 C 1365.53 -1.261 1.57934 0
M  V30 14717 C 1365.86 -1.93199 0.264405 0
M  V30 14718 O 1365.13 -1.82359 -0.715684 0
M  V30 14719 H 1363.71 -0.468421 0.581886 0
M  V30 14720 H 1366.37 -0.590447 1.85741 0
M  V30 14721 H 1365.46 -2.02913 2.37135 0
M  V30 14722 N 1365.76 -1.381 -0.759346 0
M  V30 14723 C 1366.7 -1.3075 -1.88248 0
M  V30 14724 C 1367.71 -0.220835 -1.61295 0
M  V30 14725 O 1368.9 -0.477952 -1.71982 0
M  V30 14726 C 1366 -1.00174 -3.23757 0
M  V30 14727 C 1365.17 -2.19635 -3.78258 0
M  V30 14728 C 1364.23 -1.85892 -4.92271 0
M  V30 14729 O 1363.26 -2.58325 -5.07205 0
M  V30 14730 N 1364.46 -0.810436 -5.74815 0
M  V30 14731 H 1367.22 -2.27529 -1.95065 0
M  V30 14732 H 1364.78 -1.31886 -0.93902 0
M  V30 14733 H 1366.78 -0.756631 -3.97564 0
M  V30 14734 H 1365.35 -0.122094 -3.12361 0
M  V30 14735 H 1364.57 -2.60246 -2.96084 0
M  V30 14736 H 1365.85 -2.99373 -4.11404 0
M  V30 14737 H 1365.25 -0.209644 -5.65311 0
M  V30 14738 H 1363.81 -0.625206 -6.48795 0
M  V30 14739 N 1367.24 0.986894 -1.22875 0
M  V30 14740 C 1368.49 1.73071 -1.06856 0
M  V30 14741 C 1368.84 1.88376 0.39143 0
M  V30 14742 O 1368.14 1.42022 1.28609 0
M  V30 14743 C 1368.33 3.13283 -1.72012 0
M  V30 14744 C 1368.16 3.11652 -3.24196 0
M  V30 14745 C 1366.93 3.17207 -3.93329 0
M  V30 14746 C 1369.13 2.9533 -4.21052 0
M  V30 14747 N 1367.11 3.05393 -5.32549 0
M  V30 14748 C 1368.48 2.91609 -5.47142 0
M  V30 14749 C 1370.54 2.79766 -4.11868 0
M  V30 14750 C 1369.24 2.73917 -6.65103 0
M  V30 14751 C 1371.26 2.63437 -5.29486 0
M  V30 14752 C 1370.63 2.60408 -6.54498 0
M  V30 14753 H 1366.73 0.642696 -0.445495 0
M  V30 14754 H 1369.31 1.17158 -1.55506 0
M  V30 14755 H 1367.48 3.67427 -1.25904 0
M  V30 14756 H 1369.21 3.76261 -1.4903 0
M  V30 14757 H 1365.97 3.25129 -3.44366 0
M  V30 14758 H 1366.39 3.02779 -6.0552 0
M  V30 14759 H 1371.03 2.80903 -3.15996 0
M  V30 14760 H 1368.75 2.71526 -7.61117 0
M  V30 14761 H 1372.34 2.52367 -5.24216 0
M  V30 14762 H 1371.22 2.47928 -7.43977 0
M  V30 14763 N 1368.72 1.0394 1.18466 0
M  V30 14764 C 1369.95 0.762014 1.92356 0
M  V30 14765 C 1370.36 -0.680652 1.76104 0
M  V30 14766 O 1369.72 -1.46385 1.08985 0
M  V30 14767 C 1369.77 1.11717 3.43805 0
M  V30 14768 O 1369.49 2.50319 3.59544 0
M  V30 14769 C 1370.99 0.864099 4.34797 0
M  V30 14770 H 1368.21 0.277999 0.610702 0
M  V30 14771 H 1370.76 1.38672 1.503 0
M  V30 14772 H 1368.91 0.537445 3.83654 0
M  V30 14773 H 1369.33 2.63875 4.53288 0
M  V30 14774 H 1370.8 1.16247 5.39621 0
M  V30 14775 H 1371.28 -0.20117 4.38739 0
M  V30 14776 H 1371.88 1.42706 4.00643 0
M  V30 14777 N 1370.2 -1.34667 0.818693 0
M  V30 14778 C 1371.43 -2.02348 0.417002 0
M  V30 14779 C 1371.84 -1.61813 -0.980464 0
M  V30 14780 O 1371.18 -0.817232 -1.64521 0
M  V30 14781 C 1371.24 -3.56861 0.434779 0
M  V30 14782 C 1370.91 -4.20704 1.78485 0
M  V30 14783 C 1371.9 -4.41524 2.74504 0
M  V30 14784 C 1369.59 -4.57566 2.07217 0
M  V30 14785 C 1371.58 -4.98324 3.97431 0
M  V30 14786 C 1369.27 -5.14078 3.30405 0
M  V30 14787 C 1370.27 -5.344 4.2533 0
M  V30 14788 O 1369.95 -5.89717 5.46342 0
M  V30 14789 H 1369.69 -0.655279 0.16609 0
M  V30 14790 H 1372.24 -1.73011 1.10708 0
M  V30 14791 H 1370.47 -3.8544 -0.311973 0
M  V30 14792 H 1372.16 -4.05864 0.0537258 0
M  V30 14793 H 1372.93 -4.13414 2.53601 0
M  V30 14794 H 1368.8 -4.41054 1.34135 0
M  V30 14795 H 1372.35 -5.14102 4.71534 0
M  V30 14796 H 1368.25 -5.41616 3.51174 0
M  V30 14797 H 1369.01 -6.08155 5.47804 0
M  V30 14798 N 1371.68 -0.573274 -1.46804 0
M  V30 14799 C 1372.61 0.20305 -2.28299 0
M  V30 14800 C 1373.62 0.864367 -1.37958 0
M  V30 14801 O 1374.81 0.735516 -1.62642 0
M  V30 14802 C 1371.91 1.30633 -3.12711 0
M  V30 14803 C 1371.08 0.738741 -4.31116 0
M  V30 14804 C 1370.14 1.72853 -4.96999 0
M  V30 14805 O 1369.17 1.2683 -5.5489 0
M  V30 14806 N 1370.37 3.06239 -4.93151 0
M  V30 14807 H 1373.14 -0.496086 -2.95566 0
M  V30 14808 H 1370.7 -0.410411 -1.56612 0
M  V30 14809 H 1372.69 1.96755 -3.53652 0
M  V30 14810 H 1371.26 1.90846 -2.47581 0
M  V30 14811 H 1370.48 -0.0996941 -3.94074 0
M  V30 14812 H 1371.77 0.339154 -5.07668 0
M  V30 14813 H 1371.16 3.46262 -4.47347 0
M  V30 14814 H 1369.72 3.67876 -5.38062 0
M  V30 14815 N 1373.15 1.5451 -0.310553 0
M  V30 14816 C 1374.4 1.99505 0.296731 0
M  V30 14817 C 1374.72 1.20257 1.54265 0
M  V30 14818 O 1375.92 1.55566 2.22512 0
M  V30 14819 C 1374.38 3.55208 0.579251 0
M  V30 14820 C 1373.99 4.43276 -0.648874 0
M  V30 14821 C 1375.73 4.08705 1.1472 0
M  V30 14822 C 1373.64 5.90428 -0.338978 0
M  V30 14823 H 1372.57 0.745232 0.114652 0
M  V30 14824 H 1375.22 1.78611 -0.420749 0
M  V30 14825 H 1373.6 3.72039 1.35658 0
M  V30 14826 H 1374.77 4.3822 -1.42478 0
M  V30 14827 H 1373.09 4.00601 -1.13613 0
M  V30 14828 H 1375.69 5.16223 1.39346 0
M  V30 14829 H 1376.03 3.59889 2.09249 0
M  V30 14830 H 1376.56 3.95454 0.431363 0
M  V30 14831 H 1373.3 6.43411 -1.25309 0
M  V30 14832 H 1372.82 5.98468 0.399475 0
M  V30 14833 H 1374.5 6.46976 0.0559696 0
M  V30 14834 N 1374.63 0.0384594 1.57553 0
M  V30 14835 C 1375.86 -0.647137 1.96203 0
M  V30 14836 C 1376.27 -1.65656 0.914042 0
M  V30 14837 O 1375.61 -1.83361 -0.111617 0
M  V30 14838 C 1375.68 -1.40193 3.31038 0
M  V30 14839 C 1375.34 -0.549782 4.53681 0
M  V30 14840 C 1376.34 0.178839 5.19592 0
M  V30 14841 C 1374.02 -0.48444 4.99958 0
M  V30 14842 C 1376.02 0.961376 6.30108 0
M  V30 14843 C 1373.7 0.301795 6.10354 0
M  V30 14844 C 1374.7 1.0234 6.75289 0
M  V30 14845 O 1374.39 1.79673 7.83564 0
M  V30 14846 H 1374.12 -0.182651 0.650857 0
M  V30 14847 H 1376.68 0.0973346 2.05169 0
M  V30 14848 H 1374.91 -2.19175 3.1859 0
M  V30 14849 H 1376.59 -1.97653 3.54525 0
M  V30 14850 H 1377.36 0.137749 4.84804 0
M  V30 14851 H 1373.24 -1.03568 4.49216 0
M  V30 14852 H 1376.78 1.52513 6.80724 0
M  V30 14853 H 1372.68 0.344569 6.4458 0
M  V30 14854 H 1373.45 1.71749 8.00278 0
M  V30 14855 N 1376.11 -1.55841 -0.234795 0
M  V30 14856 C 1377.04 -1.87793 -1.31402 0
M  V30 14857 C 1378.06 -0.765113 -1.43701 0
M  V30 14858 O 1379.25 -1.04332 -1.44834 0
M  V30 14859 C 1376.35 -2.05976 -2.69123 0
M  V30 14860 C 1375.52 -3.36914 -2.7894 0
M  V30 14861 C 1374.58 -3.44691 -3.97586 0
M  V30 14862 O 1373.6 -4.17818 -3.86545 0
M  V30 14863 N 1374.81 -2.74866 -5.11301 0
M  V30 14864 H 1377.57 -2.80957 -1.04324 0
M  V30 14865 H 1375.13 -1.56226 -0.424872 0
M  V30 14866 H 1377.12 -2.08507 -3.46853 0
M  V30 14867 H 1375.69 -1.195 -2.88857 0
M  V30 14868 H 1374.91 -3.46595 -1.87791 0
M  V30 14869 H 1376.2 -4.23196 -2.82458 0
M  V30 14870 H 1375.6 -2.15208 -5.23165 0
M  V30 14871 H 1374.16 -2.83075 -5.87122 0
M  V30 14872 N 1377.59 0.500963 -1.49426 0
M  V30 14873 C 1378.5 1.62889 -1.68833 0
M  V30 14874 C 1379.52 1.64367 -0.570932 0
M  V30 14875 O 1380.69 1.82786 -0.845641 0
M  V30 14876 C 1377.76 2.99255 -1.75063 0
M  V30 14877 C 1376.82 3.08404 -2.9864 0
M  V30 14878 C 1376.05 4.38266 -3.04564 0
M  V30 14879 O 1376.27 5.27065 -2.1808 0
M  V30 14880 O 1375.21 4.52387 -3.97026 0
M  V30 14881 H 1379.03 1.49446 -2.64385 0
M  V30 14882 H 1376.62 0.677254 -1.33168 0
M  V30 14883 H 1378.5 3.80303 -1.81515 0
M  V30 14884 H 1377.18 3.1296 -0.826896 0
M  V30 14885 H 1376.08 2.26544 -2.97706 0
M  V30 14886 H 1377.42 2.99626 -3.90494 0
M  V30 14887 N 1379.07 1.38501 0.752011 0
M  V30 14888 C 1380.48 1.31086 1.32941 0
M  V30 14889 C 1380.83 -0.0326248 1.96173 0
M  V30 14890 O 1379.95 -0.934692 1.95173 0
M  V30 14891 C 1380.55 2.37395 2.41721 0
M  V30 14892 C 1379.11 2.33553 2.95177 0
M  V30 14893 C 1378.26 2.20178 1.68573 0
M  V30 14894 H 1381.21 1.48836 0.550771 0
M  V30 14895 H 1381.23 2.03202 3.21697 0
M  V30 14896 H 1380.74 3.35164 1.9567 0
M  V30 14897 H 1378.84 1.39371 3.45553 0
M  V30 14898 H 1378.95 3.27753 3.49449 0
M  V30 14899 H 1377.32 1.67057 1.9226 0
M  V30 14900 H 1378.1 3.19891 1.24599 0
M  V30 14901 N 1380.55 -0.980364 1.23396 0
M  V30 14902 C 1381.79 -1.72166 1.06607 0
M  V30 14903 C 1382.12 -1.90405 -0.397029 0
M  V30 14904 O 1381.38 -1.45363 -1.31027 0
M  V30 14905 C 1381.67 -3.12367 1.73671 0
M  V30 14906 C 1381.34 -3.14007 3.2359 0
M  V30 14907 C 1380 -3.14162 3.64494 0
M  V30 14908 C 1382.35 -3.09319 4.19489 0
M  V30 14909 C 1379.68 -3.07345 4.99756 0
M  V30 14910 C 1382.03 -3.04044 5.54743 0
M  V30 14911 C 1380.7 -3.02521 5.9501 0
M  V30 14912 H 1379.97 -0.63 0.390104 0
M  V30 14913 H 1382.62 -1.14727 1.5333 0
M  V30 14914 H 1380.92 -3.73193 1.19308 0
M  V30 14915 H 1382.62 -3.68493 1.58159 0
M  V30 14916 H 1379.21 -3.14644 2.91028 0
M  V30 14917 H 1383.39 -3.08339 3.88897 0
M  V30 14918 H 1378.65 -3.04519 5.30168 0
M  V30 14919 H 1382.82 -2.99374 6.28767 0
M  V30 14920 H 1380.45 -2.96994 6.99785 0
M  V30 14921 N 1382.02 -1.04567 -1.17913 0
M  V30 14922 C 1382.97 -0.641119 -2.21717 0
M  V30 14923 C 1383.94 0.353585 -1.62293 0
M  V30 14924 O 1385.13 0.246427 -1.89202 0
M  V30 14925 C 1382.27 -0.0154726 -3.45097 0
M  V30 14926 C 1381.38 -1.05825 -4.18838 0
M  V30 14927 C 1380.51 -0.400588 -5.29687 0
M  V30 14928 C 1379.55 -1.42811 -5.95207 0
M  V30 14929 N 1378.69 -0.795059 -6.97584 0
M  V30 14930 H 1383.53 -1.5308 -2.55676 0
M  V30 14931 H 1381.07 -0.765715 -1.25599 0
M  V30 14932 H 1383.02 0.364653 -4.15603 0
M  V30 14933 H 1381.65 0.837704 -3.11741 0
M  V30 14934 H 1380.71 -1.55627 -3.47109 0
M  V30 14935 H 1382.02 -1.83849 -4.63682 0
M  V30 14936 H 1381.17 0.0334682 -6.06691 0
M  V30 14937 H 1379.91 0.411696 -4.85959 0
M  V30 14938 H 1378.92 -1.87225 -5.1694 0
M  V30 14939 H 1380.14 -2.24218 -6.41017 0
M  V30 14940 H 1378.09 -0.00317202 -6.56 0
M  V30 14941 H 1378 -1.51293 -7.40707 0
M  V30 14942 H 1379.27 -0.385567 -7.78546 0
M  V30 14943 N 1383.5 1.34231 -0.825823 0
M  V30 14944 C 1384.45 2.31378 -0.23809 0
M  V30 14945 C 1385.44 1.57537 0.622767 0
M  V30 14946 O 1386.65 1.72512 0.513783 0
M  V30 14947 H 1383.02 0.74974 -0.0582516 0
M  V30 14948 H 1385 2.78471 -1.07221 0
M  V30 14949 C 1383.74 3.42778 0.582969 0
M  V30 14950 H 1383.07 3.99739 -0.0701208 0
M  V30 14951 H 1384.51 4.12983 0.960266 0
M  V30 14952 C 1382.97 2.87486 1.75651 0
M  V30 14953 O 1383.5 2.82603 2.85479 0
M  V30 14954 N 1381.7 2.4427 1.57418 0
M  V30 14955 H 1381.25 2.48441 0.680792 0
M  V30 14956 H 1381.21 2.07626 2.36091 0
M  V30 14957 N 1384.98 0.581051 1.46498 0
M  V30 14958 C 1385.91 -0.140957 2.33074 0
M  V30 14959 C 1386.89 -0.885323 1.45245 0
M  V30 14960 O 1388.08 -0.86111 1.74065 0
M  V30 14961 C 1385.21 -1.15625 3.27488 0
M  V30 14962 C 1384.16 -0.526829 4.24745 0
M  V30 14963 C 1383.49 -1.64847 5.08655 0
M  V30 14964 C 1384.79 0.53492 5.19554 0
M  V30 14965 H 1386.48 0.581888 2.93691 0
M  V30 14966 H 1384.03 0.281278 1.41226 0
M  V30 14967 H 1385.98 -1.6697 3.8691 0
M  V30 14968 H 1384.7 -1.90935 2.64974 0
M  V30 14969 H 1383.36 -0.0344738 3.66584 0
M  V30 14970 H 1383.01 -2.3912 4.42528 0
M  V30 14971 H 1382.71 -1.23298 5.74518 0
M  V30 14972 H 1384.23 -2.16472 5.7094 0
M  V30 14973 H 1385.65 0.106606 5.73201 0
M  V30 14974 H 1384.04 0.870639 5.93751 0
M  V30 14975 H 1385.11 1.42184 4.63586 0
M  V30 14976 N 1386.46 -1.54343 0.318742 0
M  V30 14977 C 1387.4 -2.24166 -0.549397 0
M  V30 14978 C 1388.37 -1.23068 -1.1155 0
M  V30 14979 O 1389.56 -1.51737 -1.15674 0
M  V30 14980 C 1386.7 -2.99938 -1.70678 0
M  V30 14981 C 1385.81 -4.15844 -1.17037 0
M  V30 14982 C 1384.95 -4.79158 -2.29305 0
M  V30 14983 C 1383.99 -5.87176 -1.72888 0
M  V30 14984 N 1383.12 -6.44372 -2.78799 0
M  V30 14985 H 1387.96 -2.97954 0.0526018 0
M  V30 14986 H 1385.5 -1.47052 0.0377307 0
M  V30 14987 H 1387.46 -3.42113 -2.38777 0
M  V30 14988 H 1386.09 -2.28494 -2.28014 0
M  V30 14989 H 1385.14 -3.78486 -0.381082 0
M  V30 14990 H 1386.45 -4.93612 -0.717507 0
M  V30 14991 H 1385.61 -5.24277 -3.05317 0
M  V30 14992 H 1384.35 -4.0076 -2.77926 0
M  V30 14993 H 1383.35 -5.41465 -0.953714 0
M  V30 14994 H 1384.58 -6.67469 -1.2515 0
M  V30 14995 H 1382.52 -5.6885 -3.2672 0
M  V30 14996 H 1382.44 -7.17539 -2.38062 0
M  V30 14997 H 1383.71 -6.94147 -3.54655 0
M  V30 14998 N 1387.94 -0.0468143 -1.5753 0
M  V30 14999 C 1389.16 0.637648 -1.96829 0
M  V30 15000 C 1389.58 1.64635 -0.924158 0
M  V30 15001 O 1388.94 1.82267 0.0921139 0
M  V30 15002 C 1388.99 1.32842 -3.36207 0
M  V30 15003 O 1388.71 0.360111 -4.36617 0
M  V30 15004 C 1390.21 2.10305 -3.90239 0
M  V30 15005 H 1387.43 0.174634 -0.647876 0
M  V30 15006 H 1389.97 -0.111824 -2.04194 0
M  V30 15007 H 1388.13 2.02915 -3.30006 0
M  V30 15008 H 1388.54 0.852661 -5.17523 0
M  V30 15009 H 1390.02 2.54065 -4.90056 0
M  V30 15010 H 1390.49 2.94942 -3.25432 0
M  V30 15011 H 1391.1 1.45152 -3.99764 0
M  V30 15012 N 1389.41 1.55964 0.226527 0
M  V30 15013 C 1390.66 1.78392 0.94977 0
M  V30 15014 C 1390.98 0.614444 1.85066 0
M  V30 15015 O 1390.25 -0.368894 1.92395 0
M  V30 15016 H 1388.83 0.657962 0.353688 0
M  V30 15017 H 1391.5 1.93422 0.239577 0
M  V30 15018 H 1390.59 2.70343 1.55952 0
M  V30 15019 N 1390.89 -0.493031 1.4969 0
M  V30 15020 C 1391.84 -1.59367 1.66945 0
M  V30 15021 C 1392.81 -1.58049 0.510842 0
M  V30 15022 O 1393.99 -1.75915 0.738822 0
M  V30 15023 C 1391.13 -2.97472 1.74941 0
M  V30 15024 C 1390.25 -3.08745 3.02159 0
M  V30 15025 C 1389.38 -4.37632 3.01085 0
M  V30 15026 C 1388.42 -4.42567 4.22849 0
M  V30 15027 N 1387.56 -5.62892 4.19639 0
M  V30 15028 H 1392.4 -1.4396 2.6092 0
M  V30 15029 H 1389.94 -0.700297 1.29361 0
M  V30 15030 H 1391.89 -3.7753 1.77558 0
M  V30 15031 H 1390.52 -3.11564 0.844252 0
M  V30 15032 H 1389.58 -2.217 3.09117 0
M  V30 15033 H 1390.89 -3.08251 3.92151 0
M  V30 15034 H 1390.04 -5.26018 3.02309 0
M  V30 15035 H 1388.78 -4.40702 2.08885 0
M  V30 15036 H 1387.79 -3.52581 4.21861 0
M  V30 15037 H 1389.01 -4.41205 5.1625 0
M  V30 15038 H 1386.96 -5.6679 3.30281 0
M  V30 15039 H 1386.87 -5.64048 5.03374 0
M  V30 15040 H 1388.14 -6.53464 4.24977 0
M  V30 15041 N 1392.37 -1.38898 -0.744656 0
M  V30 15042 C 1393.6 -1.38647 -1.53169 0
M  V30 15043 C 1394.01 0.0233199 -1.89186 0
M  V30 15044 O 1393.35 1.00261 -1.53927 0
M  V30 15045 C 1393.41 -2.18615 -2.85391 0
M  V30 15046 C 1393.08 -3.67342 -2.71862 0
M  V30 15047 C 1394.07 -4.60638 -2.41057 0
M  V30 15048 C 1391.76 -4.10809 -2.89035 0
M  V30 15049 C 1393.75 -5.95383 -2.27592 0
M  V30 15050 C 1391.44 -5.45632 -2.7519 0
M  V30 15051 C 1392.44 -6.37733 -2.44512 0
M  V30 15052 O 1392.13 -7.70074 -2.30741 0
M  V30 15053 H 1391.86 -0.475741 -0.480257 0
M  V30 15054 H 1394.41 -1.8321 -0.928621 0
M  V30 15055 H 1392.64 -1.68784 -3.47921 0
M  V30 15056 H 1394.33 -2.1066 -3.46954 0
M  V30 15057 H 1395.1 -4.28359 -2.2745 0
M  V30 15058 H 1390.98 -3.39462 -3.11908 0
M  V30 15059 H 1394.52 -6.67237 -2.03569 0
M  V30 15060 H 1390.42 -5.77504 -2.88373 0
M  V30 15061 H 1391.19 -7.80694 -2.45885 0
M  V30 15062 N 1393.85 0.973806 -1.23914 0
M  V30 15063 C 1394.81 2.04892 -1.02723 0
M  V30 15064 C 1395.81 1.60795 0.0132972 0
M  V30 15065 O 1397 1.72714 -0.227084 0
M  V30 15066 C 1394.13 3.36341 -0.555667 0
M  V30 15067 H 1395.33 2.25124 -1.98139 0
M  V30 15068 H 1392.88 1.14817 -1.06051 0
M  V30 15069 H 1393.61 3.21799 0.40197 0
M  V30 15070 H 1393.4 3.69689 -1.30661 0
M  V30 15071 H 1394.89 4.15398 -0.428248 0
M  V30 15072 N 1395.33 1.05191 1.17357 0
M  V30 15073 C 1396.74 0.773255 1.39617 0
M  V30 15074 C 1396.94 -0.632346 1.91321 0
M  V30 15075 O 1396 -1.39475 2.10483 0
M  V30 15076 C 1397.31 1.82885 2.38692 0
M  V30 15077 C 1398.86 1.85106 2.52398 0
M  V30 15078 C 1399.33 2.89689 3.54746 0
M  V30 15079 N 1400.83 2.88651 3.62263 0
M  V30 15080 C 1401.56 3.66221 4.41214 0
M  V30 15081 N 1401.06 4.53577 5.23679 0
M  V30 15082 N 1402.85 3.54661 4.36087 0
M  V30 15083 H 1395 1.9588 0.82127 0
M  V30 15084 H 1397.26 0.848187 0.423417 0
M  V30 15085 H 1396.97 2.83766 2.07773 0
M  V30 15086 H 1396.84 1.67047 3.38194 0
M  V30 15087 H 1399.23 0.848896 2.82627 0
M  V30 15088 H 1399.31 2.05022 1.5297 0
M  V30 15089 H 1398.96 3.90091 3.25255 0
M  V30 15090 H 1398.89 2.67025 4.53878 0
M  V30 15091 H 1401.38 2.25312 3.03386 0
M  V30 15092 H 1401.69 5.09449 5.81104 0
M  V30 15093 H 1400.03 4.57638 5.23061 0
M  V30 15094 H 1403.23 2.8581 3.70716 0
M  V30 15095 H 1403.4 4.15361 4.97372 0
M  V30 15096 N 1396.8 -1.33791 0.83293 0
M  V30 15097 C 1397.74 -2.27259 0.207019 0
M  V30 15098 C 1398.72 -1.49372 -0.642403 0
M  V30 15099 O 1399.9 -1.78562 -0.603963 0
M  V30 15100 C 1397.03 -3.31177 -0.709885 0
M  V30 15101 C 1396.07 -4.26453 0.0633036 0
M  V30 15102 S 1396.91 -5.16406 1.41721 0
M  V30 15103 C 1398.06 -6.23856 0.505446 0
M  V30 15104 H 1398.29 -2.79998 0.999422 0
M  V30 15105 H 1395.83 -1.40991 0.629361 0
M  V30 15106 H 1397.79 -3.91535 -1.23332 0
M  V30 15107 H 1396.45 -2.77265 -1.4759 0
M  V30 15108 H 1395.64 -4.99995 -0.634145 0
M  V30 15109 H 1395.24 -3.70401 0.517607 0
M  V30 15110 H 1397.53 -6.7684 -0.299066 0
M  V30 15111 H 1398.48 -6.97671 1.21084 0
M  V30 15112 H 1398.88 -5.64429 0.0894308 0
M  V30 15113 N 1398.28 -0.588812 -1.46187 0
M  V30 15114 C 1399.7 -0.250962 -1.57615 0
M  V30 15115 C 1399.9 1.2467 -1.58302 0
M  V30 15116 O 1398.95 2.02876 -1.50325 0
M  V30 15117 C 1400.27 -0.905561 -2.8674 0
M  V30 15118 C 1401.82 -0.879721 -3.00383 0
M  V30 15119 C 1402.29 -1.51398 -4.32253 0
M  V30 15120 N 1403.78 -1.4786 -4.38967 0
M  V30 15121 C 1404.52 -1.93868 -5.39632 0
M  V30 15122 N 1404.01 -2.47876 -6.46938 0
M  V30 15123 N 1405.81 -1.84748 -5.30872 0
M  V30 15124 H 1397.96 -1.56148 -1.43985 0
M  V30 15125 H 1400.22 -0.653028 -0.68721 0
M  V30 15126 H 1399.93 -1.95935 -2.92066 0
M  V30 15127 H 1399.8 -0.417456 -3.74883 0
M  V30 15128 H 1402.19 0.165466 -2.94636 0
M  V30 15129 H 1402.27 -1.40591 -2.137 0
M  V30 15130 H 1401.91 -2.55839 -4.38758 0
M  V30 15131 H 1401.84 -0.962965 -5.17721 0
M  V30 15132 H 1404.33 -1.08387 -3.62023 0
M  V30 15133 H 1404.65 -2.80824 -7.1997 0
M  V30 15134 H 1402.99 -2.51905 -6.47741 0
M  V30 15135 H 1406.18 -1.42307 -4.45944 0
M  V30 15136 H 1406.35 -2.20919 -6.09179 0
M  V30 15137 N 1399.76 1.54172 -0.326923 0
M  V30 15138 C 1401.01 2.00233 0.274098 0
M  V30 15139 C 1401.33 1.21665 1.5239 0
M  V30 15140 O 1400.6 0.319359 1.93279 0
M  V30 15141 H 1399.18 0.739687 0.104271 0
M  V30 15142 H 1401.84 1.8977 -0.444244 0
M  V30 15143 H 1400.94 3.07599 0.528154 0
M  V30 15144 N 1401.24 0.0551678 1.57503 0
M  V30 15145 C 1402.2 -0.903065 2.10659 0
M  V30 15146 C 1403.2 -1.23728 1.02703 0
M  V30 15147 O 1404.39 -1.17331 1.2876 0
M  V30 15148 C 1401.52 -2.21171 2.59415 0
M  V30 15149 H 1402.72 -0.442197 2.96622 0
M  V30 15150 H 1400.27 -0.193297 1.551 0
M  V30 15151 H 1401 -2.71831 1.76858 0
M  V30 15152 H 1400.79 -1.98216 3.38309 0
M  V30 15153 H 1402.28 -2.89802 3.00674 0
M  V30 15154 N 1402.72 -1.56081 -0.218252 0
M  V30 15155 C 1403.67 -1.89082 -1.27405 0
M  V30 15156 C 1404.65 -0.754204 -1.42129 0
M  V30 15157 O 1405.84 -1.01668 -1.44888 0
M  V30 15158 C 1402.97 -2.21387 -2.62379 0
M  V30 15159 C 1402.06 -3.41448 -2.51543 0
M  V30 15160 N 1402.45 -4.5998 -2.10362 0
M  V30 15161 C 1400.75 -3.45128 -2.82494 0
M  V30 15162 C 1401.45 -5.42139 -2.10857 0
M  V30 15163 N 1400.42 -4.81936 -2.51472 0
M  V30 15164 H 1404.23 -2.78238 -0.946609 0
M  V30 15165 H 1401.74 -1.56691 -0.426801 0
M  V30 15166 H 1403.74 -2.43205 -3.38611 0
M  V30 15167 H 1402.4 -1.33545 -2.95966 0
M  V30 15168 H 1403.41 -4.85077 -1.8144 0
M  V30 15169 H 1400.08 -2.67638 -3.20431 0
M  V30 15170 H 1401.47 -6.47029 -1.81114 0
M  V30 15171 N 1404.2 0.485086 -1.49949 0
M  V30 15172 C 1405.42 1.26179 -1.63971 0
M  V30 15173 C 1405.84 1.86113 -0.317408 0
M  V30 15174 O 1405.2 1.68581 0.699038 0
M  V30 15175 C 1405.25 2.38062 -2.72046 0
M  V30 15176 O 1404.97 1.80588 -3.99149 0
M  V30 15177 C 1406.47 3.29174 -2.96916 0
M  V30 15178 H 1403.69 0.382122 -0.551565 0
M  V30 15179 H 1406.23 0.580607 -1.96085 0
M  V30 15180 H 1404.39 3.0198 -2.42666 0
M  V30 15181 H 1404.8 2.54159 -4.58807 0
M  V30 15182 H 1406.28 4.03922 -3.76233 0
M  V30 15183 H 1406.75 3.87123 -2.07443 0
M  V30 15184 H 1407.36 2.71006 -3.27774 0
M  V30 15185 N 1405.67 1.39291 0.737279 0
M  V30 15186 C 1406.62 1.37969 1.87263 0
M  V30 15187 C 1407.62 0.263156 1.67344 0
M  V30 15188 O 1408.82 0.433069 1.74713 0
M  V30 15189 H 1405.2 0.430782 0.616385 0
M  V30 15190 H 1407.17 2.33741 1.85494 0
M  V30 15191 C 1405.92 1.23779 3.24922 0
M  V30 15192 H 1405.24 2.08963 3.40844 0
M  V30 15193 H 1406.68 1.26911 4.04561 0
M  V30 15194 C 1405.14 -0.0539778 3.36857 0
M  V30 15195 O 1405.67 -1.02501 3.88402 0
M  V30 15196 N 1403.87 -0.116275 2.90367 0
M  V30 15197 H 1403.42 0.674622 2.48609 0
M  V30 15198 H 1403.38 -0.980107 2.98733 0
M  V30 15199 N 1407.15 -0.967221 1.24429 0
M  V30 15200 C 1408.43 -1.68564 0.992253 0
M  V30 15201 C 1408.81 -2.05446 -0.485301 0
M  V30 15202 O 1408.16 -1.75798 -1.45971 0
M  V30 15203 C 1408.37 -2.91728 1.91562 0
M  V30 15204 C 1409.71 -3.63957 2.18678 0
M  V30 15205 O 1410.74 -3.01786 1.89219 0
M  V30 15206 O 1409.6 -4.75875 2.68711 0
M  V30 15207 H 1406.69 -0.736939 0.375299 0
M  V30 15208 H 1409.24 -1.02127 1.35529 0
M  V30 15209 H 1408.01 -2.61168 2.91388 0
M  V30 15210 H 1407.63 -3.65898 1.55577 0
M  V30 15211 N 1408.63 -1.05812 -1.16797 0
M  V30 15212 C 1409.88 -0.773066 -1.87487 0
M  V30 15213 C 1410.21 0.698471 -1.81204 0
M  V30 15214 O 1409.48 1.51129 -1.22434 0
M  V30 15215 C 1409.77 -1.2621 -3.37258 0
M  V30 15216 C 1409.62 -2.79704 -3.52258 0
M  V30 15217 C 1410.94 -0.866104 -4.31494 0
M  V30 15218 H 1408.06 -0.282304 -0.680789 0
M  V30 15219 H 1410.7 -1.3132 -1.37314 0
M  V30 15220 H 1408.85 -0.802608 -3.80119 0
M  V30 15221 H 1410.52 -3.33824 -3.1837 0
M  V30 15222 H 1408.76 -3.18673 -2.94329 0
M  V30 15223 H 1409.44 -3.08985 -4.57419 0
M  V30 15224 H 1411.91 -1.26178 -3.96508 0
M  V30 15225 H 1410.79 -1.23581 -5.34807 0
M  V30 15226 H 1411.05 0.229391 -4.41504 0
M  V30 15227 N 1410.11 1.33347 -0.840014 0
M  V30 15228 C 1411.05 2.29191 -0.272048 0
M  V30 15229 C 1412.02 1.54383 0.612787 0
M  V30 15230 O 1413.21 1.82676 0.550812 0
M  V30 15231 C 1410.35 3.40755 0.545901 0
M  V30 15232 C 1409.46 4.30471 -0.363084 0
M  V30 15233 C 1408.6 5.29151 0.466078 0
M  V30 15234 C 1407.64 6.10508 -0.441225 0
M  V30 15235 N 1406.77 7.01228 0.349877 0
M  V30 15236 H 1411.61 2.77166 -1.09467 0
M  V30 15237 H 1409.15 1.36379 -0.551284 0
M  V30 15238 H 1411.11 4.04142 1.03562 0
M  V30 15239 H 1409.74 2.9397 1.33348 0
M  V30 15240 H 1408.79 3.67795 -0.971119 0
M  V30 15241 H 1410.1 4.87406 -1.06002 0
M  V30 15242 H 1409.26 5.98072 1.01957 0
M  V30 15243 H 1408 4.72796 1.19644 0
M  V30 15244 H 1407 5.40504 -1.00672 0
M  V30 15245 H 1408.23 6.68946 -1.16997 0
M  V30 15246 H 1406.17 6.4732 1.0636 0
M  V30 15247 H 1406.09 7.5545 -0.288317 0
M  V30 15248 H 1407.36 7.74453 0.885573 0
M  V30 15249 N 1411.59 0.596556 1.45873 0
M  V30 15250 C 1412.52 -0.166704 2.28593 0
M  V30 15251 C 1413.53 -0.84231 1.39316 0
M  V30 15252 O 1414.72 -0.709548 1.63792 0
M  V30 15253 C 1411.82 -1.25641 3.1475 0
M  V30 15254 C 1410.99 -0.67006 4.32237 0
M  V30 15255 C 1410.05 -1.64924 4.99686 0
M  V30 15256 O 1409.08 -1.17986 5.56838 0
M  V30 15257 N 1410.28 -2.98355 4.9796 0
M  V30 15258 H 1413.04 0.543045 2.94739 0
M  V30 15259 H 1410.61 0.435274 1.55939 0
M  V30 15260 H 1412.6 -1.91104 3.56737 0
M  V30 15261 H 1411.17 -1.86883 2.50586 0
M  V30 15262 H 1410.39 0.162375 3.93865 0
M  V30 15263 H 1411.68 -0.258345 5.08144 0
M  V30 15264 H 1411.07 -3.39101 4.52799 0
M  V30 15265 H 1409.63 -3.5927 5.43846 0
M  V30 15266 N 1413.06 -1.53996 0.335095 0
M  V30 15267 C 1413.99 -2.2768 -0.518087 0
M  V30 15268 C 1414.97 -1.28915 -1.10972 0
M  V30 15269 O 1416.16 -1.57745 -1.1327 0
M  V30 15270 C 1413.29 -3.04327 -1.67339 0
M  V30 15271 C 1412.24 -4.10525 -1.2105 0
M  V30 15272 C 1411.57 -4.75078 -2.45366 0
M  V30 15273 C 1412.87 -5.21337 -0.317055 0
M  V30 15274 H 1414.56 -2.99244 0.0965669 0
M  V30 15275 H 1412.11 -1.4392 0.0478842 0
M  V30 15276 H 1414.06 -3.54608 -2.27664 0
M  V30 15277 H 1412.79 -2.30399 -2.31481 0
M  V30 15278 H 1411.45 -3.61144 -0.630124 0
M  V30 15279 H 1411.09 -3.97754 -3.07897 0
M  V30 15280 H 1410.79 -5.46822 -2.1508 0
M  V30 15281 H 1412.32 -5.2814 -3.06432 0
M  V30 15282 H 1413.73 -5.67305 -0.826905 0
M  V30 15283 H 1412.13 -6.00006 -0.106458 0
M  V30 15284 H 1413.2 -4.80536 0.649068 0
M  V30 15285 N 1414.54 -0.0635198 -1.57472 0
M  V30 15286 C 1415.77 0.616735 -1.97494 0
M  V30 15287 C 1416.18 1.63646 -0.941568 0
M  V30 15288 O 1415.54 1.82355 0.0727768 0
M  V30 15289 C 1415.59 1.29268 -3.37597 0
M  V30 15290 O 1415.31 0.313781 -4.36975 0
M  V30 15291 C 1416.81 2.06154 -3.92448 0
M  V30 15292 H 1414.03 0.167753 -0.649692 0
M  V30 15293 H 1416.58 -0.133475 -2.04064 0
M  V30 15294 H 1414.73 1.99404 -3.3214 0
M  V30 15295 H 1415.15 0.797723 -5.18398 0
M  V30 15296 H 1416.62 2.48853 -4.92723 0
M  V30 15297 H 1417.1 2.91474 -3.28541 0
M  V30 15298 H 1417.7 1.40903 -4.01281 0
M  V30 15299 N 1416.02 1.56195 0.209972 0
M  V30 15300 C 1416.93 1.96539 1.28101 0
M  V30 15301 C 1417.95 0.870858 1.50639 0
M  V30 15302 O 1419.12 1.17539 1.63544 0
M  V30 15303 C 1416.19 2.28392 2.60841 0
M  V30 15304 C 1415.25 3.51474 2.46505 0
M  V30 15305 C 1414.48 3.81798 3.72915 0
M  V30 15306 O 1414.7 3.13627 4.76439 0
M  V30 15307 O 1413.64 4.75264 3.69334 0
M  V30 15308 H 1417.46 2.87838 0.968671 0
M  V30 15309 H 1415.05 1.43556 0.413777 0
M  V30 15310 H 1416.93 2.50022 3.39215 0
M  V30 15311 H 1415.61 1.40264 2.91732 0
M  V30 15312 H 1414.51 3.35109 1.66292 0
M  V30 15313 H 1415.85 4.40021 2.2055 0
M  V30 15314 N 1417.5 -0.477127 1.50204 0
M  V30 15315 C 1418.46 -1.55824 1.68082 0
M  V30 15316 C 1419.46 -1.51039 0.551719 0
M  V30 15317 O 1420.65 -1.53766 0.818638 0
M  V30 15318 C 1417.78 -2.95462 1.70044 0
M  V30 15319 H 1418.98 -1.41292 2.64531 0
M  V30 15320 H 1416.53 -0.70308 1.39594 0
M  V30 15321 H 1417.26 -3.15445 0.752663 0
M  V30 15322 H 1417.05 -3.00343 2.52065 0
M  V30 15323 H 1418.54 -3.73964 1.85851 0
M  V30 15324 N 1418.98 -1.3968 -0.729882 0
M  V30 15325 C 1420.22 -1.37385 -1.49175 0
M  V30 15326 C 1420.56 0.0285839 -1.94179 0
M  V30 15327 O 1419.83 0.994516 -1.67152 0
M  V30 15328 C 1420.11 -2.35075 -2.72785 0
M  V30 15329 C 1419.97 -3.84282 -2.33767 0
M  V30 15330 C 1421.29 -2.30515 -3.74901 0
M  V30 15331 H 1418.4 -0.500359 -0.541119 0
M  V30 15332 H 1421.05 -1.7071 -0.834152 0
M  V30 15333 H 1419.2 -2.06787 -3.28894 0
M  V30 15334 H 1420.87 -4.2334 -1.8325 0
M  V30 15335 H 1419.11 -4.00809 -1.65935 0
M  V30 15336 H 1419.78 -4.48131 -3.22309 0
M  V30 15337 H 1422.26 -2.55539 -3.28389 0
M  V30 15338 H 1421.13 -3.00939 -4.5905 0
M  V30 15339 H 1421.4 -1.3119 -4.22187 0
M  V30 15340 N 1420.45 0.960609 -1.2494 0
M  V30 15341 C 1421.39 2.05948 -1.00588 0
M  V30 15342 C 1422.4 1.62777 0.0271261 0
M  V30 15343 O 1423.59 1.77252 -0.210739 0
M  V30 15344 C 1420.69 3.35228 -0.497521 0
M  V30 15345 C 1419.86 4.0727 -1.59531 0
M  V30 15346 C 1418.92 5.14822 -1.08836 0
M  V30 15347 O 1417.95 5.40602 -1.78153 0
M  V30 15348 N 1419.15 5.80453 0.0735067 0
M  V30 15349 H 1421.91 2.27411 -1.95204 0
M  V30 15350 H 1419.47 1.12874 -1.16065 0
M  V30 15351 H 1421.47 4.04447 -0.142979 0
M  V30 15352 H 1420.04 3.10583 0.354546 0
M  V30 15353 H 1419.26 3.32231 -2.12171 0
M  V30 15354 H 1420.54 4.52161 -2.33299 0
M  V30 15355 H 1419.94 5.6192 0.652848 0
M  V30 15356 H 1418.5 6.50754 0.369132 0
M  V30 15357 N 1421.93 1.0643 1.16234 0
M  V30 15358 C 1422.88 0.676311 2.20669 0
M  V30 15359 C 1423.85 -0.327721 1.62835 0
M  V30 15360 O 1425.03 -0.216296 1.8957 0
M  V30 15361 C 1422.17 0.0703726 3.45028 0
M  V30 15362 C 1421.29 1.12475 4.17101 0
M  V30 15363 C 1420.42 0.484806 5.28983 0
M  V30 15364 C 1419.46 1.52262 5.9286 0
M  V30 15365 N 1418.6 0.905938 6.96231 0
M  V30 15366 H 1423.44 1.57129 2.53209 0
M  V30 15367 H 1420.98 0.7856 1.24365 0
M  V30 15368 H 1422.93 -0.298488 4.16131 0
M  V30 15369 H 1421.56 -0.788002 3.13034 0
M  V30 15370 H 1420.62 1.6113 3.44589 0
M  V30 15371 H 1421.93 1.91202 4.60698 0
M  V30 15372 H 1421.08 0.0630553 6.06667 0
M  V30 15373 H 1419.82 -0.334332 4.86553 0
M  V30 15374 H 1418.83 1.95425 5.13896 0
M  V30 15375 H 1420.05 2.34388 6.37369 0
M  V30 15376 H 1418 0.107536 6.55912 0
M  V30 15377 H 1417.91 1.63058 7.38206 0
M  V30 15378 H 1419.18 0.509378 7.77834 0
M  V30 15379 N 1423.41 -1.329 0.847073 0
M  V30 15380 C 1424.66 -1.97803 0.447417 0
M  V30 15381 C 1424.99 -1.6691 -0.9927 0
M  V30 15382 O 1424.26 -0.953315 -1.69535 0
M  V30 15383 C 1424.55 -3.53657 0.678135 0
M  V30 15384 C 1424.4 -3.94207 2.16612 0
M  V30 15385 C 1425.72 -4.39909 0.129589 0
M  V30 15386 H 1422.84 -0.718514 0.164034 0
M  V30 15387 H 1425.48 -1.57407 1.0641 0
M  V30 15388 H 1423.63 -3.88198 0.153222 0
M  V30 15389 H 1425.3 -3.69883 2.75653 0
M  V30 15390 H 1423.55 -3.43641 2.64752 0
M  V30 15391 H 1424.22 -5.02791 2.27827 0
M  V30 15392 H 1426.69 -4.12061 0.578371 0
M  V30 15393 H 1425.57 -5.47963 0.320648 0
M  V30 15394 H 1425.83 -4.31391 -0.967167 0
M  V30 15395 N 1424.89 -0.604284 -1.45555 0
M  V30 15396 C 1426.11 -0.102634 -2.07146 0
M  V30 15397 C 1426.54 1.20239 -1.44652 0
M  V30 15398 O 1425.9 1.73133 -0.538033 0
M  V30 15399 C 1425.94 0.0270231 -3.6059 0
M  V30 15400 O 1425.05 1.0781 -3.98059 0
M  V30 15401 H 1424.39 -0.0725667 -0.660023 0
M  V30 15402 H 1426.92 -0.833355 -1.86859 0
M  V30 15403 H 1426.93 0.226299 -4.07372 0
M  V30 15404 H 1425.6 -0.925896 -4.05463 0
M  V30 15405 H 1424.18 0.855552 -3.62953 0
M  V30 15406 N 1426.37 1.53816 -0.343257 0
M  V30 15407 C 1427.59 2.05326 0.254744 0
M  V30 15408 C 1428.01 1.21824 1.44237 0
M  V30 15409 O 1427.37 0.253507 1.80731 0
M  V30 15410 C 1427.42 3.55235 0.670075 0
M  V30 15411 O 1427.14 4.35568 -0.470322 0
M  V30 15412 C 1428.64 4.22915 1.32882 0
M  V30 15413 H 1425.86 0.669191 0.0492324 0
M  V30 15414 H 1428.4 1.98415 -0.495159 0
M  V30 15415 H 1426.56 3.6237 1.36992 0
M  V30 15416 H 1426.97 5.24315 -0.139303 0
M  V30 15417 H 1428.45 5.29197 1.57019 0
M  V30 15418 H 1428.92 3.75244 2.28229 0
M  V30 15419 H 1429.53 4.19973 0.67102 0
M  V30 15420 N 1427.84 0.0718701 1.57436 0
M  V30 15421 C 1428.75 -0.910077 2.16229 0
M  V30 15422 C 1429.77 -1.32699 1.12548 0
M  V30 15423 O 1430.95 -1.39967 1.44814 0
M  V30 15424 C 1428.01 -2.15942 2.71238 0
M  V30 15425 C 1427.07 -1.79891 3.89792 0
M  V30 15426 C 1426.31 -2.9887 4.42168 0
M  V30 15427 O 1426.53 -4.1289 3.93545 0
M  V30 15428 O 1425.46 -2.78682 5.33498 0
M  V30 15429 H 1429.29 -0.439969 3.00496 0
M  V30 15430 H 1426.87 -0.151204 1.48633 0
M  V30 15431 H 1428.76 -2.89204 3.06494 0
M  V30 15432 H 1427.43 -2.62051 1.90029 0
M  V30 15433 H 1426.34 -1.03881 3.59388 0
M  V30 15434 H 1427.67 -1.38566 4.72293 0
M  V30 15435 N 1429.32 -1.56304 -0.201686 0
M  V30 15436 C 1430.55 -1.84692 -0.943583 0
M  V30 15437 C 1430.97 -0.654649 -1.7634 0
M  V30 15438 O 1430.33 0.396586 -1.76909 0
M  V30 15439 C 1430.38 -3.11251 -1.82085 0
M  V30 15440 O 1429.48 -2.9134 -2.91881 0
M  V30 15441 H 1428.82 -0.608351 -0.266092 0
M  V30 15442 H 1431.35 -2.0353 -0.208992 0
M  V30 15443 H 1431.36 -3.41874 -2.2268 0
M  V30 15444 H 1430.04 -3.97652 -1.21844 0
M  V30 15445 H 1428.62 -2.72 -2.55089 0
M  V30 15446 N 1430.8 0.469154 -1.50455 0
M  V30 15447 C 1432.05 1.21788 -1.60781 0
M  V30 15448 C 1432.36 1.93054 -0.314576 0
M  V30 15449 O 1433.57 2.69873 -0.296773 0
M  V30 15450 C 1432.02 2.21305 -2.83817 0
M  V30 15451 C 1431.63 1.55833 -4.20024 0
M  V30 15452 C 1433.38 2.96808 -3.03489 0
M  V30 15453 C 1431.28 2.53648 -5.34244 0
M  V30 15454 H 1430.21 0.45827 -0.598752 0
M  V30 15455 H 1432.86 0.488159 -1.76888 0
M  V30 15456 H 1431.25 2.97577 -2.61273 0
M  V30 15457 H 1432.42 0.853371 -4.52829 0
M  V30 15458 H 1430.74 0.926046 -4.05972 0
M  V30 15459 H 1433.33 3.70017 -3.85994 0
M  V30 15460 H 1433.68 3.56307 -2.15293 0
M  V30 15461 H 1434.21 2.27648 -3.26223 0
M  V30 15462 H 1430.95 1.98885 -6.246 0
M  V30 15463 H 1430.47 3.22291 -5.05854 0
M  V30 15464 H 1432.15 3.15438 -5.64897 0
M  V30 15465 N 1432.28 1.40065 0.722464 0
M  V30 15466 C 1433.52 1.38175 1.48444 0
M  V30 15467 C 1433.86 -0.0182857 1.94191 0
M  V30 15468 O 1433.13 -0.985638 1.67677 0
M  V30 15469 C 1433.42 2.36518 2.71535 0
M  V30 15470 C 1433.27 3.85517 2.31726 0
M  V30 15471 C 1434.59 2.325 3.73673 0
M  V30 15472 H 1431.71 0.503221 0.538458 0
M  V30 15473 H 1434.35 1.7115 0.825087 0
M  V30 15474 H 1432.5 2.08529 3.27793 0
M  V30 15475 H 1434.17 4.24306 1.81003 0
M  V30 15476 H 1432.41 4.01684 1.63807 0
M  V30 15477 H 1433.08 4.49834 3.19928 0
M  V30 15478 H 1435.56 2.57277 3.27029 0
M  V30 15479 H 1434.44 3.03369 4.57447 0
M  V30 15480 H 1434.7 1.33427 4.21485 0
M  V30 15481 N 1433.76 -0.95397 1.25448 0
M  V30 15482 C 1435.01 -1.69305 1.09631 0
M  V30 15483 C 1435.32 -1.92213 -0.362413 0
M  V30 15484 O 1436.53 -2.63824 -0.641036 0
M  V30 15485 C 1434.98 -3.04805 1.91369 0
M  V30 15486 C 1434.59 -2.8969 3.41737 0
M  V30 15487 C 1436.33 -3.82491 1.84123 0
M  V30 15488 C 1434.24 -4.20584 4.15768 0
M  V30 15489 H 1433.17 -0.63494 0.406654 0
M  V30 15490 H 1435.82 -1.06195 1.49649 0
M  V30 15491 H 1434.2 -3.68822 1.44174 0
M  V30 15492 H 1435.38 -2.346 3.9661 0
M  V30 15493 H 1433.69 -2.25458 3.50082 0
M  V30 15494 H 1436.29 -4.79442 2.36727 0
M  V30 15495 H 1436.63 -4.08358 0.809265 0
M  V30 15496 H 1437.17 -3.25224 2.29072 0
M  V30 15497 H 1433.9 -3.99905 5.19381 0
M  V30 15498 H 1433.42 -4.75436 3.65678 0
M  V30 15499 H 1435.1 -4.89122 4.2352 0
M  V30 15500 N 1435.24 -1.07045 -1.15668 0
M  V30 15501 C 1436.48 -0.802736 -1.8689 0
M  V30 15502 C 1436.84 0.663897 -1.80583 0
M  V30 15503 O 1436.13 1.48076 -1.2159 0
M  V30 15504 C 1436.32 -1.24127 -3.35153 0
M  V30 15505 C 1436.15 -2.749 -3.55894 0
M  V30 15506 C 1434.92 -3.42466 -3.71544 0
M  V30 15507 C 1437.12 -3.73102 -3.53977 0
M  V30 15508 N 1435.1 -4.81912 -3.80308 0
M  V30 15509 C 1436.47 -4.98371 -3.68817 0
M  V30 15510 C 1438.53 -3.66304 -3.37233 0
M  V30 15511 C 1437.23 -6.17651 -3.68645 0
M  V30 15512 C 1439.26 -4.85045 -3.38357 0
M  V30 15513 C 1438.62 -6.09146 -3.53725 0
M  V30 15514 H 1434.72 -0.346254 -0.701165 0
M  V30 15515 H 1437.3 -1.36609 -1.3873 0
M  V30 15516 H 1435.47 -0.705653 -3.81936 0
M  V30 15517 H 1437.21 -0.92143 -3.94071 0
M  V30 15518 H 1433.96 -2.92871 -3.72187 0
M  V30 15519 H 1434.38 -5.54475 -3.88441 0
M  V30 15520 H 1439.03 -2.71306 -3.24273 0
M  V30 15521 H 1436.74 -7.12975 -3.80384 0
M  V30 15522 H 1440.33 -4.81458 -3.26634 0
M  V30 15523 H 1439.21 -6.99487 -3.54524 0
M  V30 15524 N 1436.71 1.32449 -0.85411 0
M  V30 15525 C 1437.96 1.96881 -0.45632 0
M  V30 15526 C 1438.28 1.67926 0.991248 0
M  V30 15527 O 1437.55 0.986195 1.69266 0
M  V30 15528 H 1436.13 0.728378 -0.165752 0
M  V30 15529 H 1438.79 1.61542 -1.09042 0
M  V30 15530 H 1437.89 3.0626 -0.600927 0
M  V30 15531 N 1438.19 0.611994 1.45232 0
M  V30 15532 C 1439.14 -0.104265 2.30564 0
M  V30 15533 C 1440.11 -0.855676 1.42364 0
M  V30 15534 O 1441.29 -0.840534 1.71288 0
M  V30 15535 C 1438.43 -1.09274 3.27343 0
M  V30 15536 C 1437.55 -0.341747 4.30646 0
M  V30 15537 C 1436.68 -1.32034 5.14529 0
M  V30 15538 C 1435.72 -0.557405 6.09557 0
M  V30 15539 N 1434.86 -1.4855 6.86205 0
M  V30 15540 H 1439.7 0.629396 2.91278 0
M  V30 15541 H 1437.23 0.322177 1.43528 0
M  V30 15542 H 1439.19 -1.67902 3.81923 0
M  V30 15543 H 1437.82 -1.79376 2.68373 0
M  V30 15544 H 1436.87 0.360114 3.78692 0
M  V30 15545 H 1438.19 0.253328 4.98156 0
M  V30 15546 H 1437.34 -1.97854 5.73532 0
M  V30 15547 H 1436.08 -1.94934 4.47048 0
M  V30 15548 H 1435.08 0.114401 5.49681 0
M  V30 15549 H 1436.31 0.0666137 6.79067 0
M  V30 15550 H 1434.26 -2.10207 6.21409 0
M  V30 15551 H 1434.17 -0.943972 7.50083 0
M  V30 15552 H 1435.44 -2.13314 7.49745 0
M  V30 15553 N 1439.67 -1.53632 0.351409 0
M  V30 15554 C 1440.92 -2.00222 -0.243731 0
M  V30 15555 C 1441.23 -1.24305 -1.51022 0
M  V30 15556 O 1442.44 -1.61411 -2.18309 0
M  V30 15557 C 1440.89 -3.56619 -0.48487 0
M  V30 15558 C 1440.5 -4.414 0.766173 0
M  V30 15559 C 1442.25 -4.11603 -1.03844 0
M  V30 15560 C 1440.15 -5.89321 0.4954 0
M  V30 15561 H 1439.08 -0.74801 -0.0948534 0
M  V30 15562 H 1441.73 -1.77433 0.467957 0
M  V30 15563 H 1440.12 -3.75505 -1.25746 0
M  V30 15564 H 1441.29 -4.34288 1.54047 0
M  V30 15565 H 1439.6 -3.97448 1.24194 0
M  V30 15566 H 1442.2 -5.19736 -1.25611 0
M  V30 15567 H 1442.54 -3.65311 -1.99634 0
M  V30 15568 H 1443.08 -3.96459 -0.326363 0
M  V30 15569 H 1439.82 -6.39863 1.42324 0
M  V30 15570 H 1439.34 -5.99317 -0.240662 0
M  V30 15571 H 1441.02 -6.46897 0.115584 0
M  V30 15572 N 1441.15 -0.0802183 -1.57396 0
M  V30 15573 C 1442.56 0.451183 -1.81166 0
M  V30 15574 C 1442.91 1.69112 -0.994764 0
M  V30 15575 O 1442.03 2.15281 -0.219739 0
M  V30 15576 C 1442.63 0.825324 -3.28594 0
M  V30 15577 C 1441.19 1.30154 -3.53181 0
M  V30 15578 C 1440.34 0.290846 -2.75771 0
M  V30 15579 H 1443.29 -0.305829 -1.55725 0
M  V30 15580 H 1443.31 1.68608 -3.41104 0
M  V30 15581 H 1442.82 -0.0773119 -3.88023 0
M  V30 15582 H 1440.92 2.22239 -2.99066 0
M  V30 15583 H 1441.03 1.27365 -4.6186 0
M  V30 15584 H 1439.4 0.769894 -2.42785 0
M  V30 15585 H 1440.18 -0.604209 -3.37941 0
M  V30 15586 N 1442.63 1.56409 0.193394 0
M  V30 15587 C 1443.57 1.94681 1.23968 0
M  V30 15588 C 1444.54 0.807634 1.45143 0
M  V30 15589 O 1445.73 1.06593 1.58248 0
M  V30 15590 C 1442.87 2.29306 2.57901 0
M  V30 15591 C 1441.98 3.56296 2.4429 0
M  V30 15592 C 1441.12 3.80235 3.70938 0
M  V30 15593 C 1440.15 5.00645 3.52167 0
M  V30 15594 N 1439.29 5.20829 4.70831 0
M  V30 15595 H 1444.13 2.83884 0.906298 0
M  V30 15596 H 1441.67 1.40486 0.436146 0
M  V30 15597 H 1443.63 2.47398 3.35932 0
M  V30 15598 H 1442.26 1.43241 2.89278 0
M  V30 15599 H 1441.31 3.46241 1.57547 0
M  V30 15600 H 1442.62 4.44483 2.26354 0
M  V30 15601 H 1441.77 3.98575 4.57408 0
M  V30 15602 H 1440.51 2.90381 3.91829 0
M  V30 15603 H 1439.52 4.82225 2.64081 0
M  V30 15604 H 1440.74 5.92009 3.32719 0
M  V30 15605 H 1438.69 4.33923 4.91983 0
M  V30 15606 H 1438.61 6.03199 4.55726 0
M  V30 15607 H 1439.87 5.4363 5.58648 0
M  V30 15608 N 1444.1 -0.461169 1.50702 0
M  V30 15609 C 1445.35 -1.21251 1.62186 0
M  V30 15610 C 1445.68 -1.91735 0.326818 0
M  V30 15611 O 1444.93 -1.83212 -0.687879 0
M  V30 15612 C 1445.23 -2.27213 2.75879 0
M  V30 15613 C 1444.9 -1.73912 4.16011 0
M  V30 15614 C 1443.56 -1.59097 4.54138 0
M  V30 15615 C 1445.91 -1.34477 5.03553 0
M  V30 15616 C 1443.24 -1.03285 5.77537 0
M  V30 15617 C 1445.59 -0.801027 6.27508 0
M  V30 15618 C 1444.26 -0.639586 6.64429 0
M  V30 15619 H 1443.53 -0.443689 0.593482 0
M  V30 15620 H 1446.17 -0.507035 1.84666 0
M  V30 15621 H 1444.48 -3.03707 2.47526 0
M  V30 15622 H 1446.18 -2.85124 2.81967 0
M  V30 15623 H 1442.77 -1.86413 3.85938 0
M  V30 15624 H 1446.95 -1.44753 4.74721 0
M  V30 15625 H 1442.21 -0.895316 6.04809 0
M  V30 15626 H 1446.38 -0.486842 6.94696 0
M  V30 15627 H 1444.01 -0.204966 7.59924 0
M  V30 15628 N 1445.58 -1.40446 -0.715026 0
M  V30 15629 C 1446.53 -1.40756 -1.82911 0
M  V30 15630 C 1447.5 -0.264443 -1.63981 0
M  V30 15631 O 1448.68 -0.462589 -1.85107 0
M  V30 15632 C 1445.82 -1.27648 -3.20624 0
M  V30 15633 C 1444.94 -2.5167 -3.51121 0
M  V30 15634 C 1444.07 -2.31 -4.78344 0
M  V30 15635 C 1443.11 -3.50596 -5.01746 0
M  V30 15636 N 1442.25 -3.29117 -6.20183 0
M  V30 15637 H 1447.09 -2.35981 -1.8198 0
M  V30 15638 H 1444.62 -1.17201 -0.888951 0
M  V30 15639 H 1446.58 -1.18054 -4.00149 0
M  V30 15640 H 1445.21 -0.360419 -3.20782 0
M  V30 15641 H 1444.26 -2.7179 -2.66147 0
M  V30 15642 H 1445.58 -3.4069 -3.64324 0
M  V30 15643 H 1444.73 -2.18763 -5.65887 0
M  V30 15644 H 1443.47 -1.39406 -4.67351 0
M  V30 15645 H 1442.47 -3.63309 -4.12658 0
M  V30 15646 H 1443.7 -4.43117 -5.14611 0
M  V30 15647 H 1441.65 -2.40206 -6.1044 0
M  V30 15648 H 1441.56 -4.11702 -6.34064 0
M  V30 15649 H 1442.83 -3.20614 -7.10512 0
M  V30 15650 N 1447.06 0.947303 -1.25952 0
M  V30 15651 C 1447.99 2.0625 -1.09467 0
M  V30 15652 C 1448.97 1.701 -0.00160498 0
M  V30 15653 O 1450.16 1.93432 -0.172501 0
M  V30 15654 C 1447.29 3.39746 -0.720392 0
M  V30 15655 C 1446.24 3.89935 -1.76451 0
M  V30 15656 C 1445.57 5.2001 -1.24472 0
M  V30 15657 C 1446.87 4.15496 -3.16481 0
M  V30 15658 H 1448.56 2.203 -2.02752 0
M  V30 15659 H 1446.11 1.05858 -0.97622 0
M  V30 15660 H 1448.06 4.17221 -0.591972 0
M  V30 15661 H 1446.78 3.25656 0.248161 0
M  V30 15662 H 1445.44 3.14635 -1.8815 0
M  V30 15663 H 1445.09 5.02295 -0.266182 0
M  V30 15664 H 1444.79 5.54559 -1.94263 0
M  V30 15665 H 1446.31 6.00075 -1.12884 0
M  V30 15666 H 1447.73 4.83605 -3.07894 0
M  V30 15667 H 1446.12 4.61315 -3.83808 0
M  V30 15668 H 1447.19 3.21501 -3.62995 0
M  V30 15669 N 1448.54 1.07657 1.15099 0
M  V30 15670 C 1449.95 0.823828 1.67541 0
M  V30 15671 C 1450.3 -0.650601 1.85099 0
M  V30 15672 O 1449.43 -1.50333 1.55657 0
M  V30 15673 C 1450.02 1.4889 3.04331 0
M  V30 15674 C 1448.58 1.28359 3.53837 0
M  V30 15675 C 1447.73 1.55659 2.2949 0
M  V30 15676 H 1450.68 1.23819 0.992699 0
M  V30 15677 H 1450.7 0.911848 3.69412 0
M  V30 15678 H 1450.21 2.56199 2.9152 0
M  V30 15679 H 1448.31 0.230864 3.71884 0
M  V30 15680 H 1448.42 2.00593 4.35085 0
M  V30 15681 H 1446.79 0.977755 2.35185 0
M  V30 15682 H 1447.57 2.64157 2.19263 0
M  V30 15683 N 1450.02 -1.31994 0.861122 0
M  V30 15684 C 1451.27 -1.96294 0.463868 0
M  V30 15685 C 1451.58 -1.68869 -0.98704 0
M  V30 15686 O 1452.78 -2.26959 -1.49003 0
M  V30 15687 C 1451.24 -3.51377 0.77858 0
M  V30 15688 C 1450.85 -3.87653 2.24565 0
M  V30 15689 C 1452.59 -4.22115 0.449365 0
M  V30 15690 C 1450.5 -5.35809 2.50324 0
M  V30 15691 H 1449.43 -0.734647 0.169733 0
M  V30 15692 H 1452.08 -1.50294 1.0528 0
M  V30 15693 H 1450.46 -3.95821 0.119005 0
M  V30 15694 H 1451.64 -3.54197 2.94755 0
M  V30 15695 H 1449.95 -3.29957 2.54003 0
M  V30 15696 H 1452.55 -5.31103 0.61916 0
M  V30 15697 H 1452.89 -4.11814 -0.609528 0
M  V30 15698 H 1453.42 -3.83276 1.06511 0
M  V30 15699 H 1450.16 -5.51138 3.54863 0
M  V30 15700 H 1449.68 -5.70648 1.84719 0
M  V30 15701 H 1451.36 -6.02968 2.34602 0
M  V30 15702 N 1451.49 -0.619688 -1.44906 0
M  V30 15703 C 1452.43 0.130316 -2.28829 0
M  V30 15704 C 1453.44 0.820039 -1.40639 0
M  V30 15705 O 1454.63 0.683401 -1.649 0
M  V30 15706 C 1451.73 1.20618 -3.16709 0
M  V30 15707 C 1450.9 0.60121 -4.33248 0
M  V30 15708 C 1449.96 1.56954 -5.02247 0
M  V30 15709 O 1448.99 1.09112 -5.58644 0
M  V30 15710 N 1450.19 2.90395 -5.02644 0
M  V30 15711 H 1452.95 -0.589867 -2.93838 0
M  V30 15712 H 1450.51 -0.460028 -1.55227 0
M  V30 15713 H 1452.51 1.85404 -3.59732 0
M  V30 15714 H 1451.08 1.82873 -2.53528 0
M  V30 15715 H 1450.3 -0.225015 -3.93557 0
M  V30 15716 H 1451.58 0.177471 -5.0849 0
M  V30 15717 H 1450.98 3.31855 -4.58136 0
M  V30 15718 H 1449.54 3.50572 -5.49493 0
M  V30 15719 N 1452.97 1.53444 -0.359552 0
M  V30 15720 C 1453.92 2.25544 0.48977 0
M  V30 15721 C 1454.89 1.25982 1.08248 0
M  V30 15722 O 1456.07 1.54751 1.1161 0
M  V30 15723 C 1453.21 3.04358 1.62666 0
M  V30 15724 C 1452.33 4.18801 1.0597 0
M  V30 15725 C 1451.46 4.85069 2.1652 0
M  V30 15726 C 1450.5 5.91554 1.57259 0
M  V30 15727 N 1449.64 6.51537 2.61617 0
M  V30 15728 H 1454.48 2.97709 -0.13158 0
M  V30 15729 H 1452.02 1.469 -0.0767056 0
M  V30 15730 H 1453.97 3.48324 2.29623 0
M  V30 15731 H 1452.6 2.34459 2.21876 0
M  V30 15732 H 1451.66 3.79364 0.280599 0
M  V30 15733 H 1452.97 4.95341 0.586383 0
M  V30 15734 H 1452.12 5.32187 2.9131 0
M  V30 15735 H 1450.86 4.07988 2.67202 0
M  V30 15736 H 1449.87 5.43803 0.809818 0
M  V30 15737 H 1451.09 6.70552 1.07409 0
M  V30 15738 H 1449.04 5.77312 3.11523 0
M  V30 15739 H 1448.95 7.23599 2.18954 0
M  V30 15740 H 1450.22 7.03306 3.36127 0
M  V30 15741 N 1454.45 0.0885642 1.57351 0
M  V30 15742 C 1455.36 -0.887092 2.17182 0
M  V30 15743 C 1456.38 -1.31498 1.13949 0
M  V30 15744 O 1457.55 -1.38424 1.4629 0
M  V30 15745 C 1454.62 -2.13053 2.73513 0
M  V30 15746 C 1453.68 -1.75747 3.91678 0
M  V30 15747 C 1452.91 -2.94163 4.45313 0
M  V30 15748 O 1453.13 -4.08693 3.97903 0
M  V30 15749 O 1452.07 -2.73008 5.36424 0
M  V30 15750 H 1455.89 -0.408073 3.00946 0
M  V30 15751 H 1453.48 -0.135431 1.48785 0
M  V30 15752 H 1455.36 -2.85937 3.09545 0
M  V30 15753 H 1454.04 -2.6002 1.92798 0
M  V30 15754 H 1452.94 -1.00064 3.60469 0
M  V30 15755 H 1454.28 -1.33549 4.73736 0
M  V30 15756 N 1455.93 -1.56509 -0.185096 0
M  V30 15757 C 1457.16 -1.85327 -0.91986 0
M  V30 15758 C 1457.57 -0.672294 -1.76425 0
M  V30 15759 O 1456.93 0.358854 -1.78937 0
M  V30 15760 C 1456.98 -3.13047 -1.80787 0
M  V30 15761 O 1456.7 -4.26591 -0.997569 0
M  V30 15762 C 1458.2 -3.55114 -2.65347 0
M  V30 15763 H 1455.42 -0.615196 -0.267909 0
M  V30 15764 H 1457.97 -2.03622 -0.189338 0
M  V30 15765 H 1456.12 -2.96619 -2.4919 0
M  V30 15766 H 1456.53 -4.99384 -1.60362 0
M  V30 15767 H 1458.01 -4.47419 -3.23295 0
M  V30 15768 H 1458.49 -2.78576 -3.39547 0
M  V30 15769 H 1459.09 -3.74105 -2.023 0
M  V30 15770 N 1457.41 0.45317 -1.50944 0
M  V30 15771 C 1458.65 1.20269 -1.64033 0
M  V30 15772 C 1459.01 1.89287 -0.344707 0
M  V30 15773 O 1458.3 1.79927 0.65855 0
M  V30 15774 C 1458.49 2.25747 -2.7708 0
M  V30 15775 C 1458.32 1.67079 -4.1751 0
M  V30 15776 C 1457.09 1.46264 -4.83668 0
M  V30 15777 C 1459.29 1.15577 -5.01145 0
M  V30 15778 N 1457.27 0.830278 -6.08259 0
M  V30 15779 C 1458.64 0.647721 -6.16607 0
M  V30 15780 C 1460.7 1.04601 -4.86788 0
M  V30 15781 C 1459.4 0.0407277 -7.19288 0
M  V30 15782 C 1461.43 0.452936 -5.89663 0
M  V30 15783 C 1460.79 -0.0446434 -7.04386 0
M  V30 15784 H 1456.89 0.428334 -0.654259 0
M  V30 15785 H 1459.47 0.501782 -1.88123 0
M  V30 15786 H 1457.64 2.93244 -2.54681 0
M  V30 15787 H 1459.38 2.92745 -2.79432 0
M  V30 15788 H 1456.13 1.71995 -4.41265 0
M  V30 15789 H 1456.56 0.531994 -6.74907 0
M  V30 15790 H 1461.2 1.41661 -3.98362 0
M  V30 15791 H 1458.92 -0.34203 -8.07376 0
M  V30 15792 H 1462.5 0.370136 -5.80621 0
M  V30 15793 H 1461.38 -0.496363 -7.82628 0
M  V30 15794 N 1458.88 1.40823 0.707568 0
M  V30 15795 C 1459.79 1.44058 1.85161 0
M  V30 15796 C 1460.81 0.332357 1.70796 0
M  V30 15797 O 1461.99 0.578205 1.92922 0
M  V30 15798 C 1459.05 1.3091 3.21035 0
M  V30 15799 C 1458.11 2.51944 3.47595 0
M  V30 15800 C 1457.35 2.39414 4.76987 0
M  V30 15801 O 1457.57 1.41224 5.52641 0
M  V30 15802 O 1456.5 3.28944 5.04063 0
M  V30 15803 H 1460.33 2.40551 1.85388 0
M  V30 15804 H 1457.91 1.22232 0.859052 0
M  V30 15805 H 1459.8 1.25816 4.02179 0
M  V30 15806 H 1458.47 0.375263 3.21517 0
M  V30 15807 H 1457.38 2.62615 2.66428 0
M  V30 15808 H 1458.71 3.44115 3.51917 0
M  V30 15809 N 1460.36 -0.94061 1.26453 0
M  V30 15810 C 1461.33 -2.02096 1.0812 0
M  V30 15811 C 1462.33 -1.60773 0.0293393 0
M  V30 15812 O 1463.52 -1.72051 0.272796 0
M  V30 15813 C 1460.65 -3.34749 0.644646 0
M  V30 15814 H 1461.84 -2.19792 2.04038 0
M  V30 15815 H 1459.39 -1.11965 1.09058 0
M  V30 15816 H 1460.13 -3.22752 -0.316509 0
M  V30 15817 H 1459.91 -3.66095 1.40416 0
M  V30 15818 H 1461.4 -4.14117 0.538233 0
M  V30 15819 N 1461.84 -1.08266 -1.14527 0
M  V30 15820 C 1463.09 -0.822513 -1.86028 0
M  V30 15821 C 1463.44 0.644706 -1.81277 0
M  V30 15822 O 1462.73 1.46778 -1.23153 0
M  V30 15823 C 1462.93 -1.27675 -3.33817 0
M  V30 15824 C 1462.76 -2.78659 -3.52958 0
M  V30 15825 C 1461.53 -3.46388 -3.67891 0
M  V30 15826 C 1463.73 -3.76835 -3.49999 0
M  V30 15827 N 1461.71 -4.85918 -3.75176 0
M  V30 15828 C 1463.08 -5.02255 -3.63511 0
M  V30 15829 C 1465.13 -3.6986 -3.33328 0
M  V30 15830 C 1463.84 -6.21527 -3.62073 0
M  V30 15831 C 1465.86 -4.88606 -3.33194 0
M  V30 15832 C 1465.22 -6.12863 -3.47244 0
M  V30 15833 H 1461.32 -0.353671 -0.697453 0
M  V30 15834 H 1463.91 -1.38073 -1.37273 0
M  V30 15835 H 1462.08 -0.746122 -3.81166 0
M  V30 15836 H 1463.81 -0.963174 -3.93071 0
M  V30 15837 H 1460.57 -2.96802 -3.6906 0
M  V30 15838 H 1460.99 -5.58564 -3.82538 0
M  V30 15839 H 1465.63 -2.7473 -3.21377 0
M  V30 15840 H 1463.35 -7.1697 -3.728 0
M  V30 15841 H 1466.94 -4.84895 -3.21509 0
M  V30 15842 H 1465.82 -7.03208 -3.47085 0
M  V30 15843 N 1463.32 1.31536 -0.86811 0
M  V30 15844 C 1464.57 1.97456 -0.488147 0
M  V30 15845 C 1464.92 1.67384 0.948709 0
M  V30 15846 O 1464.21 0.958924 1.65877 0
M  V30 15847 C 1464.41 3.50876 -0.679752 0
M  V30 15848 C 1464.24 3.95859 -2.13368 0
M  V30 15849 C 1463.01 4.22288 -2.77491 0
M  V30 15850 C 1465.2 4.09936 -3.10575 0
M  V30 15851 N 1463.19 4.53611 -4.13655 0
M  V30 15852 C 1464.56 4.44949 -4.31764 0
M  V30 15853 C 1466.61 3.92309 -3.06591 0
M  V30 15854 C 1465.32 4.64176 -5.49485 0
M  V30 15855 C 1467.34 4.12728 -4.23568 0
M  V30 15856 C 1466.7 4.48071 -5.43518 0
M  V30 15857 H 1462.8 0.748137 -0.227628 0
M  V30 15858 H 1465.39 1.59098 -1.12232 0
M  V30 15859 H 1463.56 3.88327 -0.0751875 0
M  V30 15860 H 1465.29 4.03809 -0.26836 0
M  V30 15861 H 1462.04 4.14858 -2.28451 0
M  V30 15862 H 1462.47 4.73435 -4.8393 0
M  V30 15863 H 1467.11 3.64075 -2.14964 0
M  V30 15864 H 1464.83 4.91259 -6.41631 0
M  V30 15865 H 1468.41 4.00577 -4.21935 0
M  V30 15866 H 1467.29 4.6355 -6.32527 0
M  V30 15867 N 1464.8 0.627364 1.44575 0
M  V30 15868 C 1465.73 -0.129056 2.27835 0
M  V30 15869 C 1466.71 -0.854852 1.38315 0
M  V30 15870 O 1467.89 -0.859709 1.67754 0
M  V30 15871 C 1465.02 -1.18866 3.17157 0
M  V30 15872 C 1464.07 -0.563816 4.22757 0
M  V30 15873 S 1464.9 0.643269 5.31622 0
M  V30 15874 C 1466.05 -0.416443 6.24513 0
M  V30 15875 H 1466.29 0.577281 2.91641 0
M  V30 15876 H 1463.82 0.415427 1.48706 0
M  V30 15877 H 1465.78 -1.79508 3.69171 0
M  V30 15878 H 1464.44 -1.86717 2.52578 0
M  V30 15879 H 1463.63 -1.36173 4.85256 0
M  V30 15880 H 1463.23 -0.0321045 3.73986 0
M  V30 15881 H 1465.53 -1.29006 6.65104 0
M  V30 15882 H 1466.47 0.172871 7.07889 0
M  V30 15883 H 1466.88 -0.740651 5.5962 0
M  V30 15884 N 1466.28 -1.53251 0.367684 0
M  V30 15885 C 1467.19 -2.29518 -0.485669 0
M  V30 15886 C 1468.2 -1.35568 -1.09075 0
M  V30 15887 O 1469.38 -1.68626 -1.10124 0
M  V30 15888 C 1466.44 -3.07115 -1.60876 0
M  V30 15889 C 1465.5 -4.16736 -1.031 0
M  V30 15890 C 1464.74 -4.90624 -2.10056 0
M  V30 15891 O 1464.96 -4.64393 -3.31203 0
M  V30 15892 O 1463.89 -5.76503 -1.72996 0
M  V30 15893 H 1467.72 -3.034 0.135017 0
M  V30 15894 H 1465.3 -1.48816 0.132005 0
M  V30 15895 H 1467.19 -3.55564 -2.26168 0
M  V30 15896 H 1465.86 -2.36068 -2.21481 0
M  V30 15897 H 1464.77 -3.72534 -0.341928 0
M  V30 15898 H 1466.1 -4.89956 -0.469473 0
M  V30 15899 N 1467.75 -0.0969077 -1.57302 0
M  V30 15900 C 1468.98 0.573872 -1.9847 0
M  V30 15901 C 1469.39 1.62149 -0.974894 0
M  V30 15902 O 1468.73 1.83649 0.0434873 0
M  V30 15903 C 1468.8 1.2781 -3.36013 0
M  V30 15904 C 1468.46 0.381022 -4.55409 0
M  V30 15905 C 1469.46 -0.371559 -5.18571 0
M  V30 15906 C 1467.14 0.29855 -5.01412 0
M  V30 15907 C 1469.14 -1.19457 -6.26106 0
M  V30 15908 C 1466.82 -0.528116 -6.08814 0
M  V30 15909 C 1467.82 -1.27333 -6.71026 0
M  V30 15910 O 1467.51 -2.08631 -7.76356 0
M  V30 15911 H 1467.24 0.158369 -0.657187 0
M  V30 15912 H 1469.8 -0.173415 -2.04667 0
M  V30 15913 H 1468.03 2.07199 -3.26505 0
M  V30 15914 H 1469.71 1.84359 -3.61617 0
M  V30 15915 H 1470.48 -0.317586 -4.83959 0
M  V30 15916 H 1466.36 0.868247 -4.5275 0
M  V30 15917 H 1469.9 -1.77673 -6.74595 0
M  V30 15918 H 1465.8 -0.583563 -6.42857 0
M  V30 15919 H 1466.57 -2.01333 -7.93352 0
M  V30 15920 N 1469.23 1.56605 0.176793 0
M  V30 15921 C 1470.48 1.82848 0.89097 0
M  V30 15922 C 1470.83 0.676661 1.80108 0
M  V30 15923 O 1470.13 -0.32721 1.88785 0
M  V30 15924 C 1470.32 3.12888 1.7273 0
M  V30 15925 C 1470.15 4.40609 0.899652 0
M  V30 15926 C 1468.92 5.01996 0.57688 0
M  V30 15927 C 1471.12 5.13722 0.243765 0
M  V30 15928 N 1469.1 6.13317 -0.267482 0
M  V30 15929 C 1470.47 6.18276 -0.461997 0
M  V30 15930 C 1472.52 4.97638 0.161367 0
M  V30 15931 C 1471.23 7.0849 -1.24233 0
M  V30 15932 C 1473.25 5.88291 -0.605623 0
M  V30 15933 C 1472.62 6.92304 -1.29977 0
M  V30 15934 H 1468.71 0.720143 0.304824 0
M  V30 15935 H 1471.3 1.94055 0.15834 0
M  V30 15936 H 1469.47 3.02883 2.43139 0
M  V30 15937 H 1471.2 3.27148 2.38236 0
M  V30 15938 H 1467.96 4.6486 0.905666 0
M  V30 15939 H 1468.38 6.73578 -0.679811 0
M  V30 15940 H 1473.02 4.17236 0.683677 0
M  V30 15941 H 1470.74 7.88342 -1.77601 0
M  V30 15942 H 1474.33 5.77918 -0.670976 0
M  V30 15943 H 1473.21 7.61239 -1.88375 0
M  V30 15944 N 1470.71 -0.445159 1.51182 0
M  V30 15945 C 1471.64 -1.55788 1.68115 0
M  V30 15946 C 1472.65 -1.52793 0.561964 0
M  V30 15947 O 1473.84 -1.57711 0.836029 0
M  V30 15948 C 1470.94 -2.94702 1.67344 0
M  V30 15949 C 1470.12 -3.22286 2.9572 0
M  V30 15950 C 1469.18 -4.40884 2.87241 0
M  V30 15951 O 1468.2 -4.3992 3.61191 0
M  V30 15952 N 1469.4 -5.44013 2.02558 0
M  V30 15953 H 1472.17 -1.4167 2.64102 0
M  V30 15954 H 1469.73 -0.633984 1.48971 0
M  V30 15955 H 1471.72 -3.7205 1.5925 0
M  V30 15956 H 1470.29 -3.02457 0.789842 0
M  V30 15957 H 1469.51 -2.33309 3.17743 0
M  V30 15958 H 1470.8 -3.3754 3.80715 0
M  V30 15959 H 1470.2 -5.47629 1.4184 0
M  V30 15960 H 1468.75 -6.20245 2.0035 0
M  V30 15961 N 1472.19 -1.41197 -0.700089 0
M  V30 15962 C 1473.15 -1.42419 -1.79582 0
M  V30 15963 C 1474.15 -0.31551 -1.57674 0
M  V30 15964 O 1475.34 -0.575173 -1.64431 0
M  V30 15965 C 1472.47 -1.23114 -3.17893 0
M  V30 15966 H 1473.67 -2.39956 -1.79892 0
M  V30 15967 H 1471.22 -1.27273 -0.907271 0
M  V30 15968 H 1471.95 -0.263992 -3.23224 0
M  V30 15969 H 1471.74 -2.03437 -3.35195 0
M  V30 15970 H 1473.23 -1.26793 -3.97886 0
M  V30 15971 N 1473.67 0.933891 -1.2695 0
M  V30 15972 C 1474.89 1.71512 -1.15721 0
M  V30 15973 C 1475.31 1.8661 0.286712 0
M  V30 15974 O 1474.67 1.3787 1.19574 0
M  V30 15975 C 1474.72 3.11804 -1.82922 0
M  V30 15976 O 1474.44 2.97421 -3.21672 0
M  V30 15977 C 1475.94 4.06108 -1.7774 0
M  V30 15978 H 1473.16 0.53678 -0.402626 0
M  V30 15979 H 1475.7 1.17025 -1.67706 0
M  V30 15980 H 1473.86 3.6317 -1.34856 0
M  V30 15981 H 1474.27 3.86069 -3.55037 0
M  V30 15982 H 1475.75 5.02082 -2.29385 0
M  V30 15983 H 1476.22 4.32828 -0.74543 0
M  V30 15984 H 1476.83 3.60665 -2.25391 0
M  V30 15985 N 1475.14 1.08871 1.13951 0
M  V30 15986 C 1476.39 0.832367 1.85589 0
M  V30 15987 C 1476.74 -0.635083 1.81616 0
M  V30 15988 O 1476.04 -1.46123 1.2393 0
M  V30 15989 C 1476.23 1.29443 3.33135 0
M  V30 15990 C 1476.06 2.80527 3.51475 0
M  V30 15991 C 1474.83 3.48334 3.66048 0
M  V30 15992 C 1477.03 3.78686 3.47996 0
M  V30 15993 N 1475.01 4.87901 3.72593 0
M  V30 15994 C 1476.38 5.04176 3.60842 0
M  V30 15995 C 1478.44 3.71623 3.31362 0
M  V30 15996 C 1477.14 6.23438 3.58772 0
M  V30 15997 C 1479.17 4.90366 3.30598 0
M  V30 15998 C 1478.53 6.14696 3.43989 0
M  V30 15999 H 1474.63 0.357365 0.695568 0
M  V30 16000 H 1477.21 1.38799 1.36539 0
M  V30 16001 H 1475.38 0.766326 3.80765 0
M  V30 16002 H 1477.11 0.984006 3.92555 0
M  V30 16003 H 1473.87 2.98755 3.67481 0
M  V30 16004 H 1474.29 5.60584 3.79571 0
M  V30 16005 H 1478.93 2.7643 3.19916 0
M  V30 16006 H 1476.65 7.18937 3.68993 0
M  V30 16007 H 1480.24 4.86593 3.18933 0
M  V30 16008 H 1479.12 7.05039 3.43351 0
M  V30 16009 N 1476.62 -1.31073 0.875073 0
M  V30 16010 C 1477.87 -1.95791 0.484661 0
M  V30 16011 C 1478.18 -1.69907 -0.969074 0
M  V30 16012 O 1479.39 -2.28527 -1.46587 0
M  V30 16013 C 1477.85 -3.50532 0.815804 0
M  V30 16014 C 1477.45 -3.85249 2.28664 0
M  V30 16015 C 1479.2 -4.21615 0.494111 0
M  V30 16016 C 1477.1 -5.33124 2.55993 0
M  V30 16017 H 1476.03 -0.732806 0.177516 0
M  V30 16018 H 1478.69 -1.49169 1.06868 0
M  V30 16019 H 1477.07 -3.95673 0.16098 0
M  V30 16020 H 1478.24 -3.51051 2.98496 0
M  V30 16021 H 1476.56 -3.27244 2.57488 0
M  V30 16022 H 1479.15 -5.30417 0.675456 0
M  V30 16023 H 1479.5 -4.12437 -0.565815 0
M  V30 16024 H 1480.03 -3.82125 1.1057 0
M  V30 16025 H 1476.77 -5.47343 3.60688 0
M  V30 16026 H 1476.29 -5.68657 1.90761 0
M  V30 16027 H 1477.97 -6.00446 2.40984 0
M  V30 16028 N 1478.1 -0.635022 -1.4424 0
M  V30 16029 C 1479.51 -0.222982 -1.85364 0
M  V30 16030 C 1479.86 1.22648 -1.5314 0
M  V30 16031 O 1478.99 1.93373 -0.971384 0
M  V30 16032 C 1479.58 -0.397912 -3.36455 0
M  V30 16033 C 1478.14 -0.0403458 -3.76378 0
M  V30 16034 C 1477.29 -0.709451 -2.68071 0
M  V30 16035 H 1480.24 -0.839923 -1.34651 0
M  V30 16036 H 1480.26 0.361996 -3.78774 0
M  V30 16037 H 1479.77 -1.45294 -3.59877 0
M  V30 16038 H 1477.87 1.01279 -3.58571 0
M  V30 16039 H 1477.99 -0.453121 -4.76952 0
M  V30 16040 H 1476.35 -0.144386 -2.5429 0
M  V30 16041 H 1477.13 -1.76715 -2.94324 0
M  V30 16042 N 1479.58 1.53054 -0.375806 0
M  V30 16043 C 1480.49 2.29772 0.47349 0
M  V30 16044 C 1481.5 1.36144 1.08355 0
M  V30 16045 O 1482.68 1.69208 1.09228 0
M  V30 16046 C 1479.75 3.07964 1.59245 0
M  V30 16047 C 1478.81 4.17277 1.00888 0
M  V30 16048 C 1478.04 4.91731 2.07451 0
M  V30 16049 O 1478.26 4.66143 3.28736 0
M  V30 16050 O 1477.2 5.77413 1.69936 0
M  V30 16051 H 1481.02 3.03324 -0.151105 0
M  V30 16052 H 1478.61 1.48744 -0.139895 0
M  V30 16053 H 1480.49 3.56759 2.24279 0
M  V30 16054 H 1479.16 2.37239 2.20226 0
M  V30 16055 H 1478.07 3.7271 0.322167 0
M  V30 16056 H 1479.4 4.90198 0.443483 0
M  V30 16057 N 1481.06 0.105248 1.57248 0
M  V30 16058 C 1482.3 -0.550698 1.95803 0
M  V30 16059 C 1482.66 -1.65159 0.986933 0
M  V30 16060 O 1481.95 -1.91594 0.0146152 0
M  V30 16061 C 1482.14 -1.14178 3.38671 0
M  V30 16062 C 1481.97 -0.0996826 4.4959 0
M  V30 16063 C 1480.74 0.327365 5.04238 0
M  V30 16064 C 1482.94 0.676048 5.09837 0
M  V30 16065 N 1480.92 1.35667 5.98722 0
M  V30 16066 C 1482.29 1.55691 6.00134 0
M  V30 16067 C 1484.35 0.728451 4.92542 0
M  V30 16068 C 1483.05 2.48559 6.7499 0
M  V30 16069 C 1485.08 1.64478 5.68068 0
M  V30 16070 C 1484.44 2.51324 6.58039 0
M  V30 16071 H 1480.54 -0.171547 0.762952 0
M  V30 16072 H 1483.12 0.190175 1.93769 0
M  V30 16073 H 1481.29 -1.85243 3.41379 0
M  V30 16074 H 1483.03 -1.76092 3.64381 0
M  V30 16075 H 1479.78 -0.0623632 4.73559 0
M  V30 16076 H 1480.21 1.86983 6.50666 0
M  V30 16077 H 1484.85 0.0711612 4.2274 0
M  V30 16078 H 1482.57 3.15308 7.44047 0
M  V30 16079 H 1486.15 1.69059 5.56696 0
M  V30 16080 H 1485.03 3.21077 7.15457 0
M  V30 16081 N 1482.53 -1.56697 -0.168486 0
M  V30 16082 C 1483.44 -1.99866 -1.22845 0
M  V30 16083 C 1484.46 -0.910491 -1.48277 0
M  V30 16084 O 1485.64 -1.21834 -1.6037 0
M  V30 16085 C 1482.7 -2.35227 -2.54694 0
M  V30 16086 C 1481.76 -3.57886 -2.37099 0
M  V30 16087 C 1481 -3.91551 -3.62661 0
M  V30 16088 O 1481.22 -3.26148 -4.67957 0
M  V30 16089 O 1480.15 -4.8489 -3.56603 0
M  V30 16090 H 1483.98 -2.90305 -0.892015 0
M  V30 16091 H 1481.56 -1.44602 -0.375571 0
M  V30 16092 H 1483.45 -2.58928 -3.32467 0
M  V30 16093 H 1482.12 -1.4795 -2.87911 0
M  V30 16094 H 1481.03 -3.394 -1.57348 0
M  V30 16095 H 1482.36 -4.45714 -2.08806 0
M  V30 16096 N 1484.01 0.437135 -1.51416 0
M  V30 16097 C 1485.26 1.18655 -1.64095 0
M  V30 16098 C 1485.59 1.9119 -0.35728 0
M  V30 16099 O 1484.84 1.84283 0.658644 0
M  V30 16100 C 1485.14 2.22795 -2.79458 0
M  V30 16101 C 1484.81 1.67271 -4.18726 0
M  V30 16102 C 1483.47 1.51852 -4.56612 0
M  V30 16103 C 1485.82 1.26448 -5.05629 0
M  V30 16104 C 1483.15 0.940834 -5.79107 0
M  V30 16105 C 1485.5 0.701095 -6.28703 0
M  V30 16106 C 1484.17 0.533801 -6.65362 0
M  V30 16107 H 1483.44 0.434191 -0.600466 0
M  V30 16108 H 1486.08 0.477592 -1.85449 0
M  V30 16109 H 1484.39 2.99731 -2.52327 0
M  V30 16110 H 1486.08 2.80602 -2.86467 0
M  V30 16111 H 1482.67 1.80249 -3.88855 0
M  V30 16112 H 1486.86 1.37182 -4.76964 0
M  V30 16113 H 1482.11 0.798982 -6.06157 0
M  V30 16114 H 1486.29 0.37626 -6.95383 0
M  V30 16115 H 1483.92 0.0840431 -7.60154 0
M  V30 16116 N 1485.49 1.41566 0.692592 0
M  V30 16117 C 1486.74 1.41292 1.4548 0
M  V30 16118 C 1487.07 0.0229093 1.94186 0
M  V30 16119 O 1486.34 -0.949849 1.6973 0
M  V30 16120 C 1486.63 2.42225 2.66457 0
M  V30 16121 C 1486.48 3.90345 2.23496 0
M  V30 16122 C 1487.8 2.40374 3.68658 0
M  V30 16123 H 1484.92 0.51453 0.527663 0
M  V30 16124 H 1487.56 1.72862 0.788598 0
M  V30 16125 H 1485.71 2.15435 3.23296 0
M  V30 16126 H 1487.38 4.2805 1.71962 0
M  V30 16127 H 1485.63 4.05068 1.55249 0
M  V30 16128 H 1486.3 4.56518 3.10314 0
M  V30 16129 H 1488.77 2.64156 3.21498 0
M  V30 16130 H 1487.65 3.13004 4.5091 0
M  V30 16131 H 1487.91 1.42338 4.1856 0
M  V30 16132 N 1486.97 -0.927146 1.27443 0
M  V30 16133 C 1487.92 -2.04917 1.10053 0
M  V30 16134 C 1488.91 -1.69384 0.0234668 0
M  V30 16135 O 1490.12 -1.79085 0.181228 0
M  V30 16136 H 1486.49 -0.671189 0.33913 0
M  V30 16137 H 1488.46 -2.16732 2.05109 0
M  V30 16138 C 1487.21 -3.39178 0.765072 0
M  V30 16139 H 1486.53 -3.67006 1.58577 0
M  V30 16140 H 1487.97 -4.18458 0.683266 0
M  V30 16141 C 1486.43 -3.32696 -0.530578 0
M  V30 16142 O 1486.96 -3.69967 -1.56484 0
M  V30 16143 N 1485.17 -2.85793 -0.526396 0
M  V30 16144 H 1484.72 -2.55658 0.315675 0
M  V30 16145 H 1484.67 -2.81838 -1.39337 0
M  V30 16146 N 1488.45 -1.09474 -1.13372 0
M  V30 16147 C 1489.67 -0.852921 -1.88502 0
M  V30 16148 C 1490.09 0.595855 -1.79151 0
M  V30 16149 O 1489.45 1.41019 -1.15845 0
M  V30 16150 C 1489.5 -1.27993 -3.38083 0
M  V30 16151 O 1489.22 -2.67189 -3.47191 0
M  V30 16152 C 1490.72 -1.07056 -4.30179 0
M  V30 16153 H 1487.94 -0.30682 -0.596743 0
M  V30 16154 H 1490.48 -1.45685 -1.43513 0
M  V30 16155 H 1488.64 -0.719879 -3.80653 0
M  V30 16156 H 1489.05 -2.85202 -4.40182 0
M  V30 16157 H 1490.53 -1.4186 -5.3346 0
M  V30 16158 H 1491 -0.00838732 -4.39199 0
M  V30 16159 H 1491.61 -1.61659 -3.93378 0
M  V30 16160 N 1489.92 1.30607 -0.882012 0
M  V30 16161 C 1491.34 1.78418 -0.549892 0
M  V30 16162 C 1491.69 1.72553 0.933797 0
M  V30 16163 O 1490.81 1.30058 1.72956 0
M  V30 16164 C 1491.41 3.2397 -0.991398 0
M  V30 16165 C 1489.97 3.69629 -0.710739 0
M  V30 16166 C 1489.11 2.51127 -1.17602 0
M  V30 16167 H 1492.06 1.17519 -1.06653 0
M  V30 16168 H 1492.08 3.79159 -0.319115 0
M  V30 16169 H 1491.6 3.28207 -2.07128 0
M  V30 16170 H 1489.7 3.70883 0.357273 0
M  V30 16171 H 1489.81 4.61232 -1.29621 0
M  V30 16172 H 1488.17 2.47642 -0.595444 0
M  V30 16173 H 1488.96 2.58103 -2.26358 0
M  V30 16174 N 1491.4 0.642663 1.43901 0
M  V30 16175 C 1492.81 0.232809 1.85243 0
M  V30 16176 C 1493.16 -1.21834 1.53789 0
M  V30 16177 O 1492.29 -1.92855 0.981625 0
M  V30 16178 C 1492.88 0.415749 3.36239 0
M  V30 16179 C 1491.44 0.0603055 3.76352 0
M  V30 16180 C 1490.59 0.723658 2.67691 0
M  V30 16181 H 1493.54 0.847052 1.34204 0
M  V30 16182 H 1493.56 -0.341903 3.78961 0
M  V30 16183 H 1493.07 1.472 3.59101 0
M  V30 16184 H 1491.18 -0.993761 3.59103 0
M  V30 16185 H 1491.29 0.478408 4.76705 0
M  V30 16186 H 1489.65 0.15787 2.5421 0
M  V30 16187 H 1490.44 1.78273 2.93383 0
M  V30 16188 N 1492.88 -1.52852 0.383918 0
M  V30 16189 C 1493.81 -2.29213 -0.44539 0
M  V30 16190 C 1494.79 -1.3238 -1.06815 0
M  V30 16191 O 1495.98 -1.61269 -1.08194 0
M  V30 16192 C 1493.11 -3.09497 -1.57573 0
M  V30 16193 C 1492.06 -4.14168 -1.07928 0
M  V30 16194 C 1491.39 -4.82644 -2.30128 0
M  V30 16195 C 1492.69 -5.22082 -0.151035 0
M  V30 16196 H 1494.38 -2.98786 0.19172 0
M  V30 16197 H 1491.93 -1.43695 0.0936471 0
M  V30 16198 H 1493.88 -3.61672 -2.16267 0
M  V30 16199 H 1492.6 -2.37647 -2.24034 0
M  V30 16200 H 1491.26 -3.62966 -0.514909 0
M  V30 16201 H 1490.91 -4.07348 -2.95087 0
M  V30 16202 H 1490.61 -5.53388 -1.97574 0
M  V30 16203 H 1492.14 -5.37621 -2.89475 0
M  V30 16204 H 1493.55 -5.69649 -0.646003 0
M  V30 16205 H 1491.95 -6.00041 0.0844833 0
M  V30 16206 H 1493.02 -4.78228 0.801618 0
M  V30 16207 N 1494.36 -0.113586 -1.5719 0
M  V30 16208 C 1495.61 0.546529 -1.95297 0
M  V30 16209 C 1495.94 1.66674 -0.996671 0
M  V30 16210 O 1495.21 1.94472 -0.0329298 0
M  V30 16211 C 1495.5 1.08433 -3.43387 0
M  V30 16212 C 1495.35 -0.0320929 -4.49789 0
M  V30 16213 C 1496.67 1.97691 -3.932 0
M  V30 16214 H 1493.79 0.197195 -0.710129 0
M  V30 16215 H 1496.43 -0.188048 -1.89067 0
M  V30 16216 H 1494.58 1.71033 -3.48827 0
M  V30 16217 H 1496.25 -0.66716 -4.5645 0
M  V30 16218 H 1494.49 -0.695983 -4.2818 0
M  V30 16219 H 1495.17 0.385341 -5.50653 0
M  V30 16220 H 1497.64 1.4497 -3.90029 0
M  V30 16221 H 1496.52 2.3224 -4.97349 0
M  V30 16222 H 1496.78 2.90137 -3.33576 0
M  V30 16223 N 1495.84 1.56784 0.160173 0
M  V30 16224 C 1496.78 1.97267 1.1981 0
M  V30 16225 C 1497.75 0.83824 1.43397 0
M  V30 16226 O 1498.94 1.09926 1.55952 0
M  V30 16227 C 1496.08 2.34725 2.52979 0
M  V30 16228 C 1495.19 3.61397 2.36677 0
M  V30 16229 C 1494.33 3.88018 3.62789 0
M  V30 16230 C 1493.37 5.08002 3.41468 0
M  V30 16231 N 1492.5 5.30699 4.59677 0
M  V30 16232 H 1497.34 2.85743 0.845878 0
M  V30 16233 H 1494.88 1.41379 0.406249 0
M  V30 16234 H 1496.84 2.54468 3.30608 0
M  V30 16235 H 1495.47 1.49345 2.86175 0
M  V30 16236 H 1494.52 3.49505 1.50167 0
M  V30 16237 H 1495.83 4.49185 2.16875 0
M  V30 16238 H 1494.99 4.08188 4.48851 0
M  V30 16239 H 1493.73 2.98627 3.85582 0
M  V30 16240 H 1492.73 4.87718 2.53793 0
M  V30 16241 H 1493.96 5.98934 3.20086 0
M  V30 16242 H 1491.9 4.44261 4.82668 0
M  V30 16243 H 1491.82 6.1273 4.42829 0
M  V30 16244 H 1493.09 5.55357 5.46991 0
M  V30 16245 N 1497.32 -0.429099 1.51646 0
M  V30 16246 C 1498.25 -1.52867 1.76505 0
M  V30 16247 C 1499.23 -1.58586 0.615178 0
M  V30 16248 O 1500.41 -1.74182 0.858742 0
M  V30 16249 C 1497.54 -2.90875 1.8976 0
M  V30 16250 C 1496.5 -3.00014 3.05247 0
M  V30 16251 C 1495.82 -4.40082 3.03696 0
M  V30 16252 C 1497.12 -2.73334 4.45068 0
M  V30 16253 H 1498.82 -1.32315 2.68576 0
M  V30 16254 H 1496.36 -0.635091 1.29238 0
M  V30 16255 H 1498.31 -3.67765 2.05734 0
M  V30 16256 H 1497.04 -3.12677 0.943442 0
M  V30 16257 H 1495.7 -2.25565 2.88991 0
M  V30 16258 H 1495.35 -4.58864 2.06042 0
M  V30 16259 H 1495.05 -4.47125 3.81252 0
M  V30 16260 H 1496.57 -5.18935 3.21774 0
M  V30 16261 H 1497.98 -3.39954 4.61632 0
M  V30 16262 H 1496.38 -2.91777 5.24391 0
M  V30 16263 H 1497.45 -1.68889 4.54538 0
M  V30 16264 N 1498.79 -1.41931 -0.685074 0
M  V30 16265 C 1500.04 -1.43062 -1.44585 0
M  V30 16266 C 1500.39 -0.0425175 -1.92353 0
M  V30 16267 O 1499.69 0.933507 -1.67321 0
M  V30 16268 C 1499.88 -2.38099 -2.6654 0
M  V30 16269 C 1499.71 -3.86013 -2.30704 0
M  V30 16270 C 1498.48 -4.54622 -2.20559 0
M  V30 16271 C 1500.68 -4.76711 -1.93005 0
M  V30 16272 N 1498.66 -5.87613 -1.77719 0
M  V30 16273 C 1500.03 -5.9873 -1.61005 0
M  V30 16274 C 1502.09 -4.6426 -1.79907 0
M  V30 16275 C 1500.79 -7.09684 -1.17221 0
M  V30 16276 C 1502.82 -5.75187 -1.37529 0
M  V30 16277 C 1502.18 -6.96311 -1.06445 0
M  V30 16278 H 1498.28 -0.578696 -0.525961 0
M  V30 16279 H 1500.86 -1.77882 -0.791591 0
M  V30 16280 H 1499.03 -2.05358 -3.29671 0
M  V30 16281 H 1500.76 -2.29878 -3.33074 0
M  V30 16282 H 1497.52 -4.08698 -2.39296 0
M  V30 16283 H 1497.94 -6.58124 -1.58751 0
M  V30 16284 H 1502.58 -3.71104 -2.02588 0
M  V30 16285 H 1500.3 -8.02698 -0.932855 0
M  V30 16286 H 1503.89 -5.67561 -1.27929 0
M  V30 16287 H 1502.77 -7.80687 -0.741497 0
M  V30 16288 N 1500.27 0.920374 -1.27933 0
M  V30 16289 C 1501.5 1.70028 -1.17363 0
M  V30 16290 C 1501.91 1.87246 0.271214 0
M  V30 16291 O 1501.25 1.39449 1.19581 0
M  V30 16292 C 1501.31 3.11595 -1.79301 0
M  V30 16293 C 1500.98 3.17687 -3.28518 0
M  V30 16294 C 1501.98 2.99383 -4.25048 0
M  V30 16295 C 1499.66 3.40412 -3.69357 0
M  V30 16296 C 1501.65 3.03704 -5.60395 0
M  V30 16297 C 1499.34 3.44367 -5.04832 0
M  V30 16298 C 1500.34 3.26032 -6.0016 0
M  V30 16299 O 1500.03 3.29735 -7.33164 0
M  V30 16300 H 1499.76 0.538497 -0.408652 0
M  V30 16301 H 1502.31 1.16086 -1.6945 0
M  V30 16302 H 1500.54 3.6705 -1.217 0
M  V30 16303 H 1502.23 3.71584 -1.63341 0
M  V30 16304 H 1503 2.8166 -3.94833 0
M  V30 16305 H 1498.88 3.53731 -2.95627 0
M  V30 16306 H 1502.42 2.89312 -6.34779 0
M  V30 16307 H 1498.32 3.61616 -5.347 0
M  V30 16308 H 1499.09 3.46141 -7.41707 0
M  V30 16309 N 1501.75 1.10074 1.1279 0
M  V30 16310 C 1502.68 0.704023 2.1812 0
M  V30 16311 C 1503.69 -0.25742 1.60752 0
M  V30 16312 O 1504.88 -0.0424559 1.7845 0
M  V30 16313 C 1501.98 0.0176666 3.38895 0
M  V30 16314 C 1501.16 1.00234 4.2576 0
M  V30 16315 C 1500.22 0.348158 5.25047 0
M  V30 16316 O 1499.24 0.997821 5.60386 0
M  V30 16317 N 1500.44 -0.894955 5.7356 0
M  V30 16318 H 1503.21 1.61024 2.52767 0
M  V30 16319 H 1500.77 0.989068 1.28176 0
M  V30 16320 H 1502.76 -0.431346 4.02395 0
M  V30 16321 H 1501.33 -0.7909 3.02429 0
M  V30 16322 H 1500.55 1.62972 3.58934 0
M  V30 16323 H 1501.84 1.669 4.80647 0
M  V30 16324 H 1501.24 -1.4422 5.47007 0
M  V30 16325 H 1499.79 -1.28718 6.38964 0
M  V30 16326 N 1503.23 -1.30138 0.888926 0
M  V30 16327 C 1504.16 -2.3047 0.374934 0
M  V30 16328 C 1505.14 -1.61156 -0.544322 0
M  V30 16329 O 1506.32 -1.88738 -0.457337 0
M  V30 16330 C 1503.45 -3.44896 -0.407935 0
M  V30 16331 C 1502.41 -4.25935 0.419916 0
M  V30 16332 C 1501.73 -5.32452 -0.489797 0
M  V30 16333 C 1503.03 -4.9508 1.66413 0
M  V30 16334 H 1504.73 -2.73711 1.21337 0
M  V30 16335 H 1502.27 -1.31586 0.584899 0
M  V30 16336 H 1504.23 -4.14153 -0.778177 0
M  V30 16337 H 1502.95 -3.0047 -1.28005 0
M  V30 16338 H 1501.61 -3.58372 0.772348 0
M  V30 16339 H 1501.26 -4.84273 -1.35974 0
M  V30 16340 H 1500.96 -5.87569 0.0603412 0
M  V30 16341 H 1502.48 -6.04563 -0.856468 0
M  V30 16342 H 1503.9 -5.56831 1.36425 0
M  V30 16343 H 1502.29 -5.6008 2.15477 0
M  V30 16344 H 1503.36 -4.20981 2.4063 0
M  V30 16345 N 1504.71 -0.650285 -1.43559 0
M  V30 16346 C 1505.62 0.0438076 -2.34559 0
M  V30 16347 C 1506.63 0.815316 -1.53716 0
M  V30 16348 O 1507.81 0.76323 -1.86378 0
M  V30 16349 C 1504.87 1.00028 -3.31957 0
M  V30 16350 C 1503.93 0.226027 -4.28705 0
M  V30 16351 C 1503.17 1.13694 -5.21449 0
M  V30 16352 O 1503.39 2.37614 -5.18551 0
M  V30 16353 O 1502.32 0.610924 -5.98792 0
M  V30 16354 H 1506.15 -0.705152 -2.954 0
M  V30 16355 H 1503.73 -0.410471 -1.43651 0
M  V30 16356 H 1505.62 1.55004 -3.91857 0
M  V30 16357 H 1504.29 1.72952 -2.73623 0
M  V30 16358 H 1503.2 -0.367244 -3.72293 0
M  V30 16359 H 1504.53 -0.463582 -4.90012 0
M  V30 16360 N 1506.18 1.52647 -0.392018 0
M  V30 16361 C 1507.13 2.26532 0.441819 0
M  V30 16362 C 1508.1 1.2825 1.05552 0
M  V30 16363 O 1509.29 1.57083 1.08303 0
M  V30 16364 C 1506.43 3.0774 1.56174 0
M  V30 16365 C 1505.54 4.20955 0.970632 0
M  V30 16366 C 1504.67 4.89553 2.06183 0
M  V30 16367 C 1503.71 5.94756 1.44676 0
M  V30 16368 N 1502.85 6.5694 2.47738 0
M  V30 16369 H 1507.69 2.97363 -0.194699 0
M  V30 16370 H 1505.23 1.46704 -0.107848 0
M  V30 16371 H 1507.18 3.53116 2.22183 0
M  V30 16372 H 1505.81 2.39112 2.16853 0
M  V30 16373 H 1504.87 3.79874 0.200067 0
M  V30 16374 H 1506.18 4.96474 0.481181 0
M  V30 16375 H 1505.33 5.38247 2.79956 0
M  V30 16376 H 1504.07 4.13564 2.58488 0
M  V30 16377 H 1503.08 5.45399 0.694288 0
M  V30 16378 H 1504.3 6.72679 0.931617 0
M  V30 16379 H 1502.25 5.8379 2.99208 0
M  V30 16380 H 1502.16 7.2808 2.03556 0
M  V30 16381 H 1503.43 7.10277 3.21133 0
M  V30 16382 N 1507.66 0.121921 1.57128 0
M  V30 16383 C 1508.57 -0.840825 2.19014 0
M  V30 16384 C 1509.59 -1.29051 1.16712 0
M  V30 16385 O 1510.76 -1.35289 1.49194 0
M  V30 16386 C 1507.83 -2.07204 2.7797 0
M  V30 16387 C 1506.89 -1.67399 3.95318 0
M  V30 16388 C 1506.12 -2.84652 4.51452 0
M  V30 16389 O 1506.35 -4.00161 4.06482 0
M  V30 16390 O 1505.28 -2.61568 5.42094 0
M  V30 16391 H 1509.11 -0.344146 3.01744 0
M  V30 16392 H 1506.69 -0.103841 1.49039 0
M  V30 16393 H 1508.57 -2.79307 3.1554 0
M  V30 16394 H 1507.25 -2.55872 1.9827 0
M  V30 16395 H 1506.16 -0.92395 3.62511 0
M  V30 16396 H 1507.49 -1.2347 4.76462 0
M  V30 16397 N 1509.14 -1.56867 -0.151857 0
M  V30 16398 C 1510.55 -1.72573 -0.712411 0
M  V30 16399 C 1510.9 -0.735557 -1.8189 0
M  V30 16400 O 1510.03 0.09888 -2.16174 0
M  V30 16401 C 1510.62 -3.12906 -1.29905 0
M  V30 16402 C 1509.18 -3.30231 -1.80623 0
M  V30 16403 C 1508.33 -2.68507 -0.692781 0
M  V30 16404 H 1511.28 -1.58528 0.0737603 0
M  V30 16405 H 1511.3 -3.12636 -2.16885 0
M  V30 16406 H 1510.81 -3.84949 -0.493509 0
M  V30 16407 H 1508.91 -2.63176 -2.6376 0
M  V30 16408 H 1509.03 -4.38141 -1.93828 0
M  V30 16409 H 1507.39 -2.28842 -1.11818 0
M  V30 16410 H 1508.17 -3.43151 0.10124 0
M  V30 16411 N 1510.62 0.421051 -1.51871 0
M  V30 16412 C 1511.87 1.16611 -1.64574 0
M  V30 16413 C 1512.18 1.91955 -0.375835 0
M  V30 16414 O 1513.39 2.68792 -0.382481 0
M  V30 16415 C 1511.84 2.12164 -2.90714 0
M  V30 16416 C 1511.45 1.42392 -4.24769 0
M  V30 16417 C 1513.19 2.87002 -3.12778 0
M  V30 16418 C 1511.1 2.36523 -5.42043 0
M  V30 16419 H 1510.03 0.438989 -0.613029 0
M  V30 16420 H 1512.68 0.431636 -1.78351 0
M  V30 16421 H 1511.06 2.89114 -2.70608 0
M  V30 16422 H 1512.24 0.708875 -4.55315 0
M  V30 16423 H 1510.55 0.796421 -4.08713 0
M  V30 16424 H 1513.15 3.5755 -3.9757 0
M  V30 16425 H 1513.49 3.49277 -2.2652 0
M  V30 16426 H 1514.03 2.17154 -3.333 0
M  V30 16427 H 1510.77 1.78913 -6.30611 0
M  V30 16428 H 1510.29 3.06034 -5.15852 0
M  V30 16429 H 1511.96 2.97306 -5.74646 0
M  V30 16430 N 1512.1 1.42293 0.677538 0
M  V30 16431 C 1513.34 1.42827 1.43973 0
M  V30 16432 C 1513.68 0.0435041 1.94151 0
M  V30 16433 O 1512.95 -0.931794 1.70727 0
M  V30 16434 C 1513.23 2.45037 2.63873 0
M  V30 16435 C 1513.09 3.92694 2.19344 0
M  V30 16436 C 1514.41 2.4427 3.66087 0
M  V30 16437 H 1511.52 0.520097 0.522176 0
M  V30 16438 H 1514.17 1.73688 0.770219 0
M  V30 16439 H 1512.32 2.18851 3.20993 0
M  V30 16440 H 1513.99 4.2985 1.67412 0
M  V30 16441 H 1512.23 4.06692 1.50944 0
M  V30 16442 H 1512.9 4.59784 3.05455 0
M  V30 16443 H 1515.38 2.67551 3.18678 0
M  V30 16444 H 1514.25 3.17769 4.47564 0
M  V30 16445 H 1514.52 1.46769 4.17027 0
M  V30 16446 N 1513.57 -0.913576 1.28419 0
M  V30 16447 C 1514.82 -1.65944 1.15355 0
M  V30 16448 C 1515.14 -1.92706 -0.298228 0
M  V30 16449 O 1514.41 -1.54333 -1.20657 0
M  V30 16450 H 1512.99 -0.615063 0.423919 0
M  V30 16451 H 1515.66 -1.0962 1.6115 0
M  V30 16452 H 1514.75 -2.62173 1.69327 0
M  V30 16453 N 1515.05 -1.1067 -1.12204 0
M  V30 16454 C 1516.02 -0.761145 -2.16193 0
M  V30 16455 C 1517.02 0.215599 -1.59348 0
M  V30 16456 O 1518.21 -0.00786723 -1.74198 0
M  V30 16457 C 1515.34 -0.127863 -3.4066 0
M  V30 16458 H 1516.53 -1.68225 -2.48275 0
M  V30 16459 H 1514.08 -0.907542 -1.27253 0
M  V30 16460 H 1514.82 0.803851 -3.14179 0
M  V30 16461 H 1514.6 -0.83085 -3.83196 0
M  V30 16462 H 1516.09 0.0980593 -4.17485 0
M  V30 16463 N 1516.53 1.29665 -0.895815 0
M  V30 16464 C 1517.44 2.31582 -0.375086 0
M  V30 16465 C 1518.46 1.65789 0.528196 0
M  V30 16466 O 1519.63 1.96999 0.41871 0
M  V30 16467 C 1516.7 3.44472 0.39241 0
M  V30 16468 C 1515.76 4.25866 -0.541926 0
M  V30 16469 C 1514.99 5.33365 0.189037 0
M  V30 16470 O 1515.21 5.52607 1.41355 0
M  V30 16471 O 1514.15 6.0009 -0.466441 0
M  V30 16472 H 1517.97 2.78095 -1.22052 0
M  V30 16473 H 1515.56 1.34031 -0.660007 0
M  V30 16474 H 1517.44 4.13214 0.826565 0
M  V30 16475 H 1516.12 3.00074 1.21397 0
M  V30 16476 H 1515.02 3.59781 -1.02512 0
M  V30 16477 H 1516.36 4.73896 -1.32979 0
M  V30 16478 N 1518.01 0.657889 1.43212 0
M  V30 16479 C 1519.24 0.181072 2.06106 0
M  V30 16480 C 1519.65 -1.15513 1.49339 0
M  V30 16481 O 1519.01 -1.71409 0.626517 0
M  V30 16482 C 1519.06 0.0890244 3.6139 0
M  V30 16483 O 1518.78 1.37241 4.16049 0
M  V30 16484 C 1520.28 -0.413313 4.41369 0
M  V30 16485 H 1517.5 0.0920577 0.664655 0
M  V30 16486 H 1520.05 0.899855 1.83638 0
M  V30 16487 H 1518.2 -0.580345 3.83028 0
M  V30 16488 H 1518.61 1.23467 5.09761 0
M  V30 16489 H 1520.09 -0.426663 5.50349 0
M  V30 16490 H 1520.57 -1.44549 4.14731 0
M  V30 16491 H 1521.17 0.223727 4.24711 0
M  V30 16492 N 1519.49 -1.52437 0.400108 0
M  V30 16493 C 1520.73 -2.01711 -0.178605 0
M  V30 16494 C 1521.06 -1.28613 -1.45908 0
M  V30 16495 O 1520.32 -0.378206 -1.92011 0
M  V30 16496 C 1520.62 -3.54133 -0.482141 0
M  V30 16497 C 1520.28 -4.45306 0.70806 0
M  V30 16498 C 1518.94 -4.69947 1.03455 0
M  V30 16499 C 1521.3 -4.99035 1.50379 0
M  V30 16500 C 1518.62 -5.45566 2.15812 0
M  V30 16501 C 1520.98 -5.75883 2.61805 0
M  V30 16502 C 1519.64 -5.98799 2.9495 0
M  V30 16503 H 1518.91 -0.738112 -0.0653562 0
M  V30 16504 H 1521.56 -1.83738 0.539676 0
M  V30 16505 H 1519.86 -3.70237 -1.28188 0
M  V30 16506 H 1521.56 -3.89761 -0.942725 0
M  V30 16507 H 1518.15 -4.26298 0.443599 0
M  V30 16508 H 1522.33 -4.79913 1.26479 0
M  V30 16509 H 1517.59 -5.61532 2.4185 0
M  V30 16510 H 1521.76 -6.16514 3.23857 0
M  V30 16511 H 1519.39 -6.57176 3.8213 0
M  V30 16512 N 1520.96 -0.130252 -1.57061 0
M  V30 16513 C 1522.19 0.531644 -1.99642 0
M  V30 16514 C 1522.6 1.60045 -1.00907 0
M  V30 16515 O 1521.95 1.83699 0.00452296 0
M  V30 16516 C 1522.01 1.20654 -3.38649 0
M  V30 16517 C 1521.67 0.284337 -4.56115 0
M  V30 16518 C 1522.67 -0.481472 -5.17666 0
M  V30 16519 C 1520.35 0.192125 -5.01932 0
M  V30 16520 C 1522.35 -1.32711 -6.23431 0
M  V30 16521 C 1520.03 -0.657135 -6.07557 0
M  V30 16522 C 1521.03 -1.41537 -6.68174 0
M  V30 16523 O 1520.72 -2.25051 -7.71756 0
M  V30 16524 H 1520.45 0.144394 -0.660399 0
M  V30 16525 H 1523.01 -0.216789 -2.04253 0
M  V30 16526 H 1521.24 2.00227 -3.30826 0
M  V30 16527 H 1522.93 1.76647 -3.65446 0
M  V30 16528 H 1523.69 -0.420169 -4.83177 0
M  V30 16529 H 1519.57 0.772017 -4.5449 0
M  V30 16530 H 1523.11 -1.91942 -6.70674 0
M  V30 16531 H 1519.01 -0.719791 -6.41474 0
M  V30 16532 H 1519.78 -2.18116 -7.88903 0
M  V30 16533 N 1522.44 1.56945 0.143535 0
M  V30 16534 C 1523.69 1.8381 0.856831 0
M  V30 16535 C 1524.02 0.712375 1.80662 0
M  V30 16536 O 1523.3 -0.283743 1.92419 0
M  V30 16537 C 1523.58 3.21184 1.62828 0
M  V30 16538 C 1523.43 4.44324 0.699744 0
M  V30 16539 C 1524.75 3.5582 2.58999 0
M  V30 16540 H 1521.87 0.668611 0.310046 0
M  V30 16541 H 1524.51 1.89609 0.1219 0
M  V30 16542 H 1522.66 3.16372 2.2548 0
M  V30 16543 H 1524.34 4.61224 0.0839619 0
M  V30 16544 H 1522.58 4.33799 0.0095529 0
M  V30 16545 H 1523.25 5.37058 1.27564 0
M  V30 16546 H 1525.73 3.61264 2.06464 0
M  V30 16547 H 1524.6 4.52964 3.10024 0
M  V30 16548 H 1524.86 2.81956 3.40519 0
M  V30 16549 N 1523.92 -0.412991 1.52093 0
M  V30 16550 C 1525.2 -1.17304 1.56522 0
M  V30 16551 C 1525.58 -2.0828 0.343926 0
M  V30 16552 O 1524.93 -2.18473 -0.669475 0
M  V30 16553 C 1525.14 -1.95371 2.89191 0
M  V30 16554 C 1526.48 -2.51571 3.42048 0
M  V30 16555 O 1527.51 -2.05555 2.90905 0
M  V30 16556 O 1526.37 -3.35563 4.31347 0
M  V30 16557 H 1523.46 -0.535386 0.63031 0
M  V30 16558 H 1526.01 -0.420084 1.64418 0
M  V30 16559 H 1524.78 -1.28701 3.69529 0
M  V30 16560 H 1524.4 -2.7768 2.84569 0
M  V30 16561 N 1525.4 -1.4265 -0.669982 0
M  V30 16562 C 1526.65 -1.43093 -1.42719 0
M  V30 16563 C 1526.97 -0.0501228 -1.94936 0
M  V30 16564 O 1526.24 0.912077 -1.73372 0
M  V30 16565 H 1524.82 -0.526785 -0.529628 0
M  V30 16566 H 1527.48 -1.78113 -0.791324 0
M  V30 16567 H 1526.58 -2.13357 -2.27783 0
M  V30 16568 N 1526.88 0.906753 -1.28902 0
M  V30 16569 C 1527.84 1.99158 -1.1344 0
M  V30 16570 C 1528.84 1.60639 -0.0719551 0
M  V30 16571 O 1530.03 1.71267 -0.318317 0
M  V30 16572 C 1527.16 3.32923 -0.733172 0
M  V30 16573 H 1528.36 2.14305 -2.09794 0
M  V30 16574 H 1525.91 1.09034 -1.11988 0
M  V30 16575 H 1526.64 3.23477 0.230826 0
M  V30 16576 H 1526.43 3.62244 -1.50073 0
M  V30 16577 H 1527.92 4.12544 -0.64784 0
M  V30 16578 N 1528.36 1.11264 1.11616 0
M  V30 16579 C 1529.32 0.7726 2.15786 0
M  V30 16580 C 1530.32 -0.207145 1.5946 0
M  V30 16581 O 1531.51 0.0171053 1.74192 0
M  V30 16582 C 1528.64 0.145927 3.40588 0
M  V30 16583 H 1529.83 1.69539 2.47379 0
M  V30 16584 H 1527.39 0.914278 1.2677 0
M  V30 16585 H 1528.12 -0.787178 3.14601 0
M  V30 16586 H 1527.91 0.851161 3.8275 0
M  V30 16587 H 1529.4 -0.0759176 4.17531 0
M  V30 16588 N 1529.83 -1.29188 0.902679 0
M  V30 16589 C 1530.78 -2.29597 0.372585 0
M  V30 16590 C 1531.78 -1.609 -0.529858 0
M  V30 16591 O 1532.98 -1.75214 -0.41233 0
M  V30 16592 H 1529.36 -0.745069 0.101864 0
M  V30 16593 H 1531.33 -2.71746 1.23275 0
M  V30 16594 C 1530.08 -3.45594 -0.382128 0
M  V30 16595 H 1529.4 -3.9865 0.303061 0
M  V30 16596 H 1530.84 -4.17879 -0.717852 0
M  V30 16597 C 1529.3 -2.97238 -1.58591 0
M  V30 16598 O 1529.83 -2.98767 -2.68517 0
M  V30 16599 N 1528.03 -2.53032 -1.42909 0
M  V30 16600 H 1527.58 -2.51988 -0.534786 0
M  V30 16601 H 1527.54 -2.21038 -2.23584 0
M  V30 16602 N 1531.31 -0.665475 -1.42861 0
M  V30 16603 C 1532.73 -0.334157 -1.56063 0
M  V30 16604 C 1532.93 1.16104 -1.64688 0
M  V30 16605 O 1531.98 1.94622 -1.60867 0
M  V30 16606 C 1533.3 -1.05628 -2.81537 0
M  V30 16607 C 1534.84 -1.03771 -2.95297 0
M  V30 16608 C 1535.32 -1.74098 -4.2362 0
M  V30 16609 N 1536.81 -1.7092 -4.30512 0
M  V30 16610 C 1537.55 -2.222 -5.28597 0
M  V30 16611 N 1537.04 -2.81821 -6.32889 0
M  V30 16612 N 1538.83 -2.12628 -5.20332 0
M  V30 16613 H 1530.99 -1.6356 -1.35506 0
M  V30 16614 H 1533.25 -0.688538 -0.651628 0
M  V30 16615 H 1532.95 -2.11141 -2.81269 0
M  V30 16616 H 1532.83 -0.615586 -3.72143 0
M  V30 16617 H 1535.22 0.00905324 -2.95099 0
M  V30 16618 H 1535.3 -1.51721 -2.05948 0
M  V30 16619 H 1534.94 -2.78737 -4.2458 0
M  V30 16620 H 1534.87 -1.23604 -5.11888 0
M  V30 16621 H 1537.36 -1.27425 -3.55769 0
M  V30 16622 H 1537.67 -3.18594 -7.04072 0
M  V30 16623 H 1536.02 -2.85887 -6.33478 0
M  V30 16624 H 1539.21 -1.65746 -4.37774 0
M  V30 16625 H 1539.38 -2.52899 -5.96612 0
M  V30 16626 N 1532.79 1.52222 -0.408187 0
M  V30 16627 C 1533.7 2.30725 0.424645 0
M  V30 16628 C 1534.72 1.38412 1.05442 0
M  V30 16629 O 1535.89 1.71486 1.05614 0
M  V30 16630 C 1532.96 3.11273 1.52677 0
M  V30 16631 C 1532.02 4.19323 0.920143 0
M  V30 16632 C 1531.25 4.96021 1.96974 0
M  V30 16633 O 1531.47 4.73011 3.18774 0
M  V30 16634 O 1530.41 5.80887 1.5765 0
M  V30 16635 H 1534.23 3.02935 -0.215411 0
M  V30 16636 H 1531.82 1.48413 -0.171414 0
M  V30 16637 H 1533.7 3.61436 2.16661 0
M  V30 16638 H 1532.38 2.41857 2.15144 0
M  V30 16639 H 1531.28 3.7331 0.243037 0
M  V30 16640 H 1532.62 4.91028 0.339405 0
M  V30 16641 N 1534.27 0.138579 1.5699 0
M  V30 16642 C 1535.5 -0.521806 2.00212 0
M  V30 16643 C 1535.91 -1.58967 1.01857 0
M  V30 16644 O 1535.27 -1.82494 0.0143099 0
M  V30 16645 C 1535.32 -1.13014 3.4338 0
M  V30 16646 O 1535.04 -0.104938 4.37974 0
M  V30 16647 C 1536.54 -1.87195 4.01837 0
M  V30 16648 H 1533.76 -0.136564 0.656956 0
M  V30 16649 H 1536.3 0.230685 2.03195 0
M  V30 16650 H 1534.46 -1.8333 3.41275 0
M  V30 16651 H 1534.87 -0.54948 5.21614 0
M  V30 16652 H 1536.35 -2.25061 5.04035 0
M  V30 16653 H 1536.82 -2.75467 3.42074 0
M  V30 16654 H 1537.43 -1.21597 4.07547 0
M  V30 16655 N 1535.75 -1.57019 -0.13521 0
M  V30 16656 C 1536.69 -1.99148 -1.16657 0
M  V30 16657 C 1537.66 -0.860947 -1.42045 0
M  V30 16658 O 1538.85 -1.12393 -1.54183 0
M  V30 16659 C 1535.99 -2.3872 -2.49212 0
M  V30 16660 C 1535.1 -3.65117 -2.30898 0
M  V30 16661 C 1534.24 -3.9374 -3.5657 0
M  V30 16662 C 1533.27 -5.1337 -3.33343 0
M  V30 16663 N 1532.41 -5.37945 -4.51176 0
M  V30 16664 H 1537.25 -2.87052 -0.800312 0
M  V30 16665 H 1534.79 -1.42007 -0.383705 0
M  V30 16666 H 1536.75 -2.59695 -3.26518 0
M  V30 16667 H 1535.38 -1.53879 -2.83762 0
M  V30 16668 H 1534.43 -3.5185 -1.44588 0
M  V30 16669 H 1535.74 -4.52578 -2.09701 0
M  V30 16670 H 1534.89 -4.15277 -4.423 0
M  V30 16671 H 1533.63 -3.04723 -3.80782 0
M  V30 16672 H 1532.64 -4.91694 -2.46002 0
M  V30 16673 H 1533.86 -6.0395 -3.10517 0
M  V30 16674 H 1531.81 -4.51884 -4.75539 0
M  V30 16675 H 1531.73 -6.19698 -4.33025 0
M  V30 16676 H 1532.99 -5.63989 -5.38086 0
M  V30 16677 N 1537.22 0.404919 -1.52309 0
M  V30 16678 C 1538.15 1.50039 -1.78915 0
M  V30 16679 C 1539.14 1.57587 -0.640329 0
M  V30 16680 O 1540.32 1.72793 -0.886344 0
M  V30 16681 C 1537.45 2.87819 -1.94364 0
M  V30 16682 C 1536.4 2.9512 -3.09981 0
M  V30 16683 C 1535.73 4.35195 -3.10659 0
M  V30 16684 C 1537.03 2.66219 -4.4936 0
M  V30 16685 H 1538.72 1.28025 -2.70647 0
M  V30 16686 H 1536.27 0.61445 -1.30233 0
M  V30 16687 H 1538.22 3.64446 -2.11559 0
M  V30 16688 H 1536.95 3.11136 -0.993067 0
M  V30 16689 H 1535.61 2.20939 -2.92543 0
M  V30 16690 H 1535.25 4.55528 -2.13316 0
M  V30 16691 H 1534.95 4.41003 -3.88317 0
M  V30 16692 H 1536.48 5.1375 -3.29989 0
M  V30 16693 H 1537.89 3.32567 -4.66982 0
M  V30 16694 H 1536.29 2.83398 -5.28967 0
M  V30 16695 H 1537.36 1.61636 -4.57167 0
M  V30 16696 N 1538.7 1.43003 0.662408 0
M  V30 16697 C 1539.95 1.43848 1.41958 0
M  V30 16698 C 1540.27 0.06046 1.94906 0
M  V30 16699 O 1539.54 -0.90287 1.73854 0
M  V30 16700 H 1538.12 0.529587 0.526827 0
M  V30 16701 H 1540.78 1.7853 0.781867 0
M  V30 16702 H 1539.88 2.14562 2.26649 0
M  V30 16703 N 1540.18 -0.899904 1.29381 0
M  V30 16704 C 1541.13 -2.004 1.14493 0
M  V30 16705 C 1542.1 -1.66056 0.0383099 0
M  V30 16706 O 1543.28 -1.89687 0.20579 0
M  V30 16707 C 1540.42 -3.35039 0.827237 0
M  V30 16708 C 1539.54 -3.82166 2.01427 0
M  V30 16709 C 1538.67 -5.0538 1.63598 0
M  V30 16710 C 1537.71 -5.44876 2.78884 0
M  V30 16711 N 1536.85 -6.59276 2.41452 0
M  V30 16712 H 1541.69 -2.12466 2.08955 0
M  V30 16713 H 1539.22 -1.0405 1.03981 0
M  V30 16714 H 1541.18 -4.12511 0.62373 0
M  V30 16715 H 1539.81 -3.227 -0.0804772 0
M  V30 16716 H 1538.86 -3.00731 2.32949 0
M  V30 16717 H 1540.18 -4.07387 2.87814 0
M  V30 16718 H 1539.33 -5.90436 1.39534 0
M  V30 16719 H 1538.07 -4.81998 0.743593 0
M  V30 16720 H 1537.07 -4.58355 3.0363 0
M  V30 16721 H 1538.3 -5.7024 3.68786 0
M  V30 16722 H 1536.24 -6.37498 1.54701 0
M  V30 16723 H 1536.16 -6.84293 3.21372 0
M  V30 16724 H 1537.43 -7.47602 2.20708 0
M  V30 16725 N 1541.66 -1.11854 -1.11024 0
M  V30 16726 C 1542.62 -0.784033 -2.15373 0
M  V30 16727 C 1543.62 0.198686 -1.59568 0
M  V30 16728 O 1544.81 -0.0263428 -1.7418 0
M  V30 16729 C 1541.94 -0.163987 -3.40505 0
M  V30 16730 H 1543.14 -1.70849 -2.46477 0
M  V30 16731 H 1540.69 -0.920988 -1.26283 0
M  V30 16732 H 1541.42 0.770483 -3.15014 0
M  V30 16733 H 1541.21 -0.871447 -3.82293 0
M  V30 16734 H 1542.7 0.0537739 -4.17565 0
M  V30 16735 N 1543.14 1.28707 -0.909517 0
M  V30 16736 C 1544.38 1.94768 -0.539413 0
M  V30 16737 C 1544.71 1.7198 0.919133 0
M  V30 16738 O 1543.98 1.0571 1.64931 0
M  V30 16739 H 1542.56 0.720693 -0.196496 0
M  V30 16740 H 1545.22 1.56772 -1.15795 0
M  V30 16741 H 1544.31 3.03436 -0.730281 0
M  V30 16742 N 1544.61 0.673042 1.42506 0
M  V30 16743 C 1545.84 0.202628 2.05604 0
M  V30 16744 C 1546.25 -1.14466 1.50646 0
M  V30 16745 O 1545.6 -1.7218 0.6403 0
M  V30 16746 C 1545.66 0.0583637 3.59453 0
M  V30 16747 C 1545.32 1.33408 4.37094 0
M  V30 16748 C 1546.32 2.26717 4.67863 0
M  V30 16749 C 1544 1.58119 4.76764 0
M  V30 16750 C 1546 3.43014 5.37234 0
M  V30 16751 C 1543.68 2.74706 5.45875 0
M  V30 16752 C 1544.68 3.66978 5.76035 0
M  V30 16753 O 1544.37 4.81526 6.4373 0
M  V30 16754 H 1544.1 0.0964964 0.669077 0
M  V30 16755 H 1546.66 0.919656 1.83661 0
M  V30 16756 H 1544.89 -0.714227 3.80047 0
M  V30 16757 H 1546.58 -0.37195 4.04192 0
M  V30 16758 H 1547.34 2.08875 4.37717 0
M  V30 16759 H 1543.22 0.871705 4.52683 0
M  V30 16760 H 1546.76 4.15055 5.60692 0
M  V30 16761 H 1542.66 2.92474 5.75438 0
M  V30 16762 H 1543.43 4.81047 6.6222 0
M  V30 16763 N 1546.09 -1.52004 0.416254 0
M  V30 16764 C 1547.34 -2.02188 -0.157434 0
M  V30 16765 C 1547.67 -1.30097 -1.44182 0
M  V30 16766 O 1546.95 -0.409426 -1.90142 0
M  V30 16767 C 1547.23 -3.57896 -0.397847 0
M  V30 16768 C 1547.08 -4.40628 0.903715 0
M  V30 16769 C 1548.4 -4.24072 -1.17689 0
M  V30 16770 H 1545.52 -0.734889 -0.0557437 0
M  V30 16771 H 1548.16 -1.81831 0.551118 0
M  V30 16772 H 1546.31 -3.75372 -1.00142 0
M  V30 16773 H 1547.98 -4.34848 1.53964 0
M  V30 16774 H 1546.23 -4.06556 1.5131 0
M  V30 16775 H 1546.9 -5.47673 0.689802 0
M  V30 16776 H 1549.37 -4.10738 -0.665832 0
M  V30 16777 H 1548.25 -5.32944 -1.31386 0
M  V30 16778 H 1548.51 -3.83507 -2.19942 0
M  V30 16779 N 1547.57 -0.146903 -1.56914 0
M  V30 16780 C 1548.8 0.511181 -2.00486 0
M  V30 16781 C 1549.21 1.58425 -1.02699 0
M  V30 16782 O 1548.57 1.82484 -0.0239878 0
M  V30 16783 C 1548.62 1.11191 -3.43975 0
M  V30 16784 O 1548.34 0.0817094 -4.38024 0
M  V30 16785 C 1549.84 1.85061 -4.02824 0
M  V30 16786 H 1547.06 0.133078 -0.657671 0
M  V30 16787 H 1549.61 -0.241457 -2.0307 0
M  V30 16788 H 1547.76 1.81517 -3.42243 0
M  V30 16789 H 1548.18 0.52181 -5.21898 0
M  V30 16790 H 1549.65 2.22385 -5.05222 0
M  V30 16791 H 1550.13 2.73649 -3.4353 0
M  V30 16792 H 1550.73 1.19434 -4.08186 0
M  V30 16793 N 1549.05 1.57088 0.126881 0
M  V30 16794 C 1550.33 1.7539 0.8659 0
M  V30 16795 C 1550.71 0.720288 1.98432 0
M  V30 16796 O 1550.05 -0.2572 2.27048 0
M  V30 16797 C 1550.26 3.20131 1.38985 0
M  V30 16798 C 1551.61 3.82404 1.84532 0
M  V30 16799 O 1552.64 3.23685 1.48682 0
M  V30 16800 O 1551.49 4.85599 2.50711 0
M  V30 16801 H 1548.59 0.717853 0.41063 0
M  V30 16802 H 1551.13 1.69335 0.111236 0
M  V30 16803 H 1549.91 3.86871 0.587056 0
M  V30 16804 H 1549.53 3.30692 2.20745 0
M  V30 16805 N 1550.53 -0.396836 1.52522 0
M  V30 16806 C 1551.94 -0.736347 1.41598 0
M  V30 16807 C 1552.14 -1.944 0.530191 0
M  V30 16808 O 1551.2 -2.525 0.000649033 0
M  V30 16809 C 1552.51 -0.978775 2.84325 0
M  V30 16810 C 1554.06 -1.08073 2.9375 0
M  V30 16811 C 1554.53 -1.35584 4.37471 0
M  V30 16812 N 1556.03 -1.42423 4.40761 0
M  V30 16813 C 1556.76 -1.6536 5.49039 0
M  V30 16814 N 1556.26 -1.85819 6.67415 0
M  V30 16815 N 1558.05 -1.67475 5.36571 0
M  V30 16816 H 1550.2 0.397925 2.08639 0
M  V30 16817 H 1552.46 0.115803 0.9409 0
M  V30 16818 H 1552.17 -0.16362 3.51319 0
M  V30 16819 H 1552.04 -1.8956 3.26109 0
M  V30 16820 H 1554.43 -1.88646 2.26928 0
M  V30 16821 H 1554.51 -0.141996 2.55406 0
M  V30 16822 H 1554.16 -0.555238 5.04856 0
M  V30 16823 H 1554.09 -2.3073 4.73362 0
M  V30 16824 H 1556.58 -1.28352 3.55435 0
M  V30 16825 H 1556.89 -2.02806 7.45714 0
M  V30 16826 H 1555.23 -1.83059 6.70458 0
M  V30 16827 H 1558.43 -1.51038 4.43064 0
M  V30 16828 H 1558.6 -1.85011 6.21027 0
M  V30 16829 N 1552.01 -1.43353 -0.654814 0
M  V30 16830 C 1553.25 -1.44599 -1.41193 0
M  V30 16831 C 1553.57 -0.0707955 -1.94871 0
M  V30 16832 O 1552.84 0.893637 -1.7433 0
M  V30 16833 H 1551.42 -0.532373 -0.524011 0
M  V30 16834 H 1554.09 -1.78942 -0.772388 0
M  V30 16835 H 1553.18 -2.15761 -2.25508 0
M  V30 16836 N 1553.48 0.89303 -1.29857 0
M  V30 16837 C 1554.9 1.17496 -1.08013 0
M  V30 16838 C 1555.1 2.00829 0.164302 0
M  V30 16839 O 1554.16 2.37396 0.860194 0
M  V30 16840 C 1555.47 1.88944 -2.33924 0
M  V30 16841 C 1557.02 2.01742 -2.3931 0
M  V30 16842 C 1557.49 2.76601 -3.65042 0
M  V30 16843 N 1558.98 2.84152 -3.65803 0
M  V30 16844 C 1559.72 3.42628 -4.59776 0
M  V30 16845 N 1559.21 4.02218 -5.64086 0
M  V30 16846 N 1561.01 3.40366 -4.47334 0
M  V30 16847 H 1553.16 0.33719 -2.09706 0
M  V30 16848 H 1555.42 0.211899 -0.924014 0
M  V30 16849 H 1555.13 1.35151 -3.24695 0
M  V30 16850 H 1555 2.89379 -2.4195 0
M  V30 16851 H 1557.39 2.54708 -1.49022 0
M  V30 16852 H 1557.47 1.0042 -2.35265 0
M  V30 16853 H 1557.11 2.24309 -4.55684 0
M  V30 16854 H 1557.04 3.78283 -3.66346 0
M  V30 16855 H 1559.53 2.41835 -2.90386 0
M  V30 16856 H 1559.85 4.4488 -6.31903 0
M  V30 16857 H 1558.19 4.00661 -5.67887 0
M  V30 16858 H 1561.38 2.93035 -3.65031 0
M  V30 16859 H 1561.56 3.85644 -5.20752 0
M  V30 16860 N 1554.96 1.12442 1.10429 0
M  V30 16861 C 1555.89 0.750131 2.16577 0
M  V30 16862 C 1556.91 -0.223265 1.61262 0
M  V30 16863 O 1558.1 -0.00459454 1.78499 0
M  V30 16864 C 1555.2 0.0895474 3.38782 0
M  V30 16865 C 1554.37 1.09242 4.23539 0
M  V30 16866 C 1553.43 0.45945 5.2419 0
M  V30 16867 O 1552.45 1.11646 5.58143 0
M  V30 16868 N 1553.66 -0.773093 5.75329 0
M  V30 16869 H 1556.42 1.66349 2.49295 0
M  V30 16870 H 1553.98 1.01603 1.26049 0
M  V30 16871 H 1555.97 -0.345895 4.03219 0
M  V30 16872 H 1554.54 -0.726572 3.04039 0
M  V30 16873 H 1553.76 1.70549 3.55396 0
M  V30 16874 H 1555.05 1.77057 4.76999 0
M  V30 16875 H 1554.45 -1.32585 5.49943 0
M  V30 16876 H 1553.01 -1.15135 6.41551 0
M  V30 16877 N 1556.44 -1.28223 0.91633 0
M  V30 16878 C 1557.39 -2.27215 0.40521 0
M  V30 16879 C 1558.36 -1.57693 -0.521734 0
M  V30 16880 O 1559.54 -1.85577 -0.443369 0
M  V30 16881 C 1556.68 -3.43358 -0.346303 0
M  V30 16882 C 1555.79 -4.27622 0.613443 0
M  V30 16883 C 1554.93 -5.30969 -0.156775 0
M  V30 16884 C 1553.97 -6.06897 0.796418 0
M  V30 16885 N 1553.11 -7.02075 0.0595539 0
M  V30 16886 H 1557.95 -2.70312 1.2544 0
M  V30 16887 H 1555.48 -1.32933 0.629859 0
M  V30 16888 H 1557.44 -4.09492 -0.798231 0
M  V30 16889 H 1556.07 -3.01244 -1.15982 0
M  V30 16890 H 1555.12 -3.61508 1.1839 0
M  V30 16891 H 1556.43 -4.80397 1.34239 0
M  V30 16892 H 1555.59 -6.02999 -0.669146 0
M  V30 16893 H 1554.33 -4.78968 -0.918755 0
M  V30 16894 H 1553.33 -5.33716 1.32014 0
M  V30 16895 H 1554.56 -6.60987 1.558 0
M  V30 16896 H 1552.5 -6.5242 -0.684388 0
M  V30 16897 H 1552.42 -7.52484 0.728275 0
M  V30 16898 H 1553.69 -7.78299 -0.432538 0
M  V30 16899 N 1557.92 -0.68059 -1.42147 0
M  V30 16900 C 1559.16 -0.205567 -2.01755 0
M  V30 16901 C 1559.5 1.18677 -1.53718 0
M  V30 16902 O 1558.77 1.79796 -0.741867 0
M  V30 16903 C 1559.05 -0.246615 -3.59255 0
M  V30 16904 C 1558.91 -1.67483 -4.17456 0
M  V30 16905 C 1560.23 0.40196 -4.38261 0
M  V30 16906 H 1557.35 -0.0761717 -0.733053 0
M  V30 16907 H 1559.99 -0.866473 -1.69092 0
M  V30 16908 H 1558.14 0.316127 -3.87212 0
M  V30 16909 H 1559.81 -2.29026 -4.00431 0
M  V30 16910 H 1558.05 -2.2137 -3.73065 0
M  V30 16911 H 1558.72 -1.65519 -5.266 0
M  V30 16912 H 1561.2 -0.077135 -4.16028 0
M  V30 16913 H 1560.08 0.342627 -5.4783 0
M  V30 16914 H 1560.34 1.48044 -4.16576 0
M  V30 16915 N 1559.4 1.51781 -0.424309 0
M  V30 16916 C 1560.64 2.02269 0.146709 0
M  V30 16917 C 1560.97 1.30859 1.4349 0
M  V30 16918 O 1560.25 0.419504 1.89922 0
M  V30 16919 C 1560.53 3.58101 0.378861 0
M  V30 16920 C 1560.39 4.40143 -0.92707 0
M  V30 16921 C 1561.7 4.2469 1.15438 0
M  V30 16922 H 1558.82 0.735174 0.0518456 0
M  V30 16923 H 1561.47 1.81537 -0.560753 0
M  V30 16924 H 1559.62 3.75897 0.981496 0
M  V30 16925 H 1561.29 4.34025 -1.56268 0
M  V30 16926 H 1559.53 4.05748 -1.53464 0
M  V30 16927 H 1560.2 5.47299 -0.718837 0
M  V30 16928 H 1562.68 4.11086 0.644041 0
M  V30 16929 H 1561.55 5.33633 1.28557 0
M  V30 16930 H 1561.81 3.84668 2.17905 0
M  V30 16931 N 1560.87 0.155222 1.56834 0
M  V30 16932 C 1562.1 -0.503763 2.01189 0
M  V30 16933 C 1562.52 -1.57086 1.03468 0
M  V30 16934 O 1561.88 -1.81296 0.0116895 0
M  V30 16935 C 1561.93 -1.07373 3.44243 0
M  V30 16936 O 1561.03 -2.18834 3.49551 0
M  V30 16937 H 1560.37 -0.122368 0.652627 0
M  V30 16938 H 1562.9 0.254377 2.03013 0
M  V30 16939 H 1562.91 -1.40036 3.83215 0
M  V30 16940 H 1561.59 -0.292339 4.14871 0
M  V30 16941 H 1560.17 -1.87337 3.22427 0
M  V30 16942 N 1562.35 -1.57153 -0.118549 0
M  V30 16943 C 1563.6 -1.84064 -0.824832 0
M  V30 16944 C 1563.91 -0.740941 -1.81023 0
M  V30 16945 O 1565.12 -0.896464 -2.56273 0
M  V30 16946 C 1563.58 -3.26338 -1.51761 0
M  V30 16947 C 1563.18 -4.44318 -0.573174 0
M  V30 16948 C 1564.93 -3.62496 -2.209 0
M  V30 16949 C 1562.83 -5.7762 -1.2692 0
M  V30 16950 H 1561.76 -0.686521 -0.311777 0
M  V30 16951 H 1564.42 -1.83336 -0.0775833 0
M  V30 16952 H 1562.8 -3.21537 -2.3115 0
M  V30 16953 H 1563.97 -4.60418 0.187529 0
M  V30 16954 H 1562.29 -4.16398 0.0112747 0
M  V30 16955 H 1564.88 -4.5936 -2.73666 0
M  V30 16956 H 1565.23 -2.89952 -2.9872 0
M  V30 16957 H 1565.76 -3.69084 -1.48399 0
M  V30 16958 H 1562.5 -6.53335 -0.532285 0
M  V30 16959 H 1562.02 -5.65406 -2.00191 0
M  V30 16960 H 1563.7 -6.21391 -1.80227 0
M  V30 16961 N 1563.83 0.388742 -1.5273 0
M  V30 16962 C 1564.79 1.45759 -1.76881 0
M  V30 16963 C 1565.79 1.47565 -0.63884 0
M  V30 16964 O 1566.98 1.48731 -0.906895 0
M  V30 16965 C 1564.11 2.85045 -1.86981 0
M  V30 16966 H 1565.31 1.25629 -2.72319 0
M  V30 16967 H 1562.86 0.620497 -1.43456 0
M  V30 16968 H 1563.6 3.1052 -0.935296 0
M  V30 16969 H 1563.38 2.85136 -2.69147 0
M  V30 16970 H 1564.87 3.62492 -2.07338 0
M  V30 16971 N 1565.31 1.43698 0.647203 0
M  V30 16972 C 1566.58 1.3611 1.40476 0
M  V30 16973 C 1566.96 0.0118567 2.11097 0
M  V30 16974 O 1566.31 -1.00496 2.05214 0
M  V30 16975 C 1566.52 2.5484 2.38448 0
M  V30 16976 C 1567.87 2.98195 3.02267 0
M  V30 16977 O 1568.89 2.5493 2.48775 0
M  V30 16978 O 1567.75 3.73162 3.99265 0
M  V30 16979 H 1564.85 0.538198 0.62791 0
M  V30 16980 H 1567.39 1.55758 0.673606 0
M  V30 16981 H 1566.17 3.4467 1.85253 0
M  V30 16982 H 1565.79 2.37323 3.19004 0
M  V30 16983 N 1566.79 -0.886131 1.30328 0
M  V30 16984 C 1568.01 -1.67099 1.22007 0
M  V30 16985 C 1568.43 -1.87546 -0.217255 0
M  V30 16986 O 1567.79 -1.42213 -1.14375 0
M  V30 16987 C 1567.84 -3.048 1.94368 0
M  V30 16988 O 1567.56 -2.85277 3.32489 0
M  V30 16989 C 1569.06 -3.99231 1.9269 0
M  V30 16990 H 1566.28 -0.521467 0.422271 0
M  V30 16991 H 1568.82 -1.1072 1.71934 0
M  V30 16992 H 1566.98 -3.57915 1.48242 0
M  V30 16993 H 1567.39 -3.72626 3.69121 0
M  V30 16994 H 1568.87 -4.93223 2.47861 0
M  V30 16995 H 1569.34 -4.29763 0.905558 0
M  V30 16996 H 1569.95 -3.52051 2.38621 0
M  V30 16997 N 1568.26 -1.13026 -1.09832 0
M  V30 16998 C 1569.49 -0.91246 -1.85693 0
M  V30 16999 C 1569.91 0.538558 -1.80956 0
M  V30 17000 O 1569.26 1.37262 -1.20273 0
M  V30 17001 C 1569.32 -1.38684 -3.3384 0
M  V30 17002 O 1569.04 -2.78099 -3.38515 0
M  V30 17003 C 1570.54 -1.20688 -4.26555 0
M  V30 17004 H 1567.76 -0.32565 -0.58668 0
M  V30 17005 H 1570.3 -1.50177 -1.38806 0
M  V30 17006 H 1568.46 -0.840617 -3.7817 0
M  V30 17007 H 1568.87 -2.99061 -4.30886 0
M  V30 17008 H 1570.34 -1.5876 -5.28677 0
M  V30 17009 H 1570.82 -0.148111 -4.3895 0
M  V30 17010 H 1571.43 -1.74092 -3.88036 0
M  V30 17011 N 1569.74 1.27735 -0.923117 0
M  V30 17012 C 1570.69 2.28975 -0.409065 0
M  V30 17013 C 1571.68 1.61723 0.504194 0
M  V30 17014 O 1572.89 1.75848 0.384402 0
M  V30 17015 H 1569.27 0.743354 -0.113705 0
M  V30 17016 H 1571.24 2.69751 -1.27582 0
M  V30 17017 C 1569.99 3.46158 0.327099 0
M  V30 17018 H 1569.31 3.98117 -0.366444 0
M  V30 17019 H 1570.75 4.18968 0.65128 0
M  V30 17020 C 1569.21 2.99724 1.53842 0
M  V30 17021 O 1569.74 3.03001 2.6373 0
M  V30 17022 N 1567.94 2.55274 1.38865 0
M  V30 17023 H 1567.49 2.52807 0.494629 0
M  V30 17024 H 1567.45 2.24567 2.20039 0
M  V30 17025 N 1571.22 0.688118 1.41784 0
M  V30 17026 C 1572.15 -0.02099 2.2919 0
M  V30 17027 C 1573.17 -0.752005 1.44391 0
M  V30 17028 O 1574.35 -0.603947 1.67972 0
M  V30 17029 C 1571.45 -1.0537 3.22103 0
M  V30 17030 C 1570.63 -0.393817 4.35624 0
M  V30 17031 C 1569.69 -1.32812 5.09163 0
M  V30 17032 O 1568.71 -0.823341 5.63214 0
M  V30 17033 N 1569.91 -2.66083 5.15927 0
M  V30 17034 H 1572.68 0.729389 2.90689 0
M  V30 17035 H 1570.24 0.533564 1.52855 0
M  V30 17036 H 1572.23 -1.6803 3.68169 0
M  V30 17037 H 1570.8 -1.70568 2.61964 0
M  V30 17038 H 1570.02 0.41253 3.92035 0
M  V30 17039 H 1571.31 0.065338 5.08758 0
M  V30 17040 H 1570.71 -3.09619 4.73448 0
M  V30 17041 H 1569.27 -3.23956 5.65593 0
M  V30 17042 N 1572.7 -1.51554 0.432352 0
M  V30 17043 C 1573.65 -2.27623 -0.381602 0
M  V30 17044 C 1574.62 -1.31003 -1.02114 0
M  V30 17045 O 1575.8 -1.59899 -1.041 0
M  V30 17046 C 1572.94 -3.11772 -1.47959 0
M  V30 17047 C 1572.05 -4.2338 -0.858682 0
M  V30 17048 C 1571.19 -4.94847 -1.93131 0
M  V30 17049 C 1570.23 -5.98383 -1.28856 0
M  V30 17050 N 1569.36 -6.63278 -2.30233 0
M  V30 17051 H 1574.2 -2.96743 0.273472 0
M  V30 17052 H 1571.74 -1.46367 0.146706 0
M  V30 17053 H 1573.7 -3.58882 -2.12742 0
M  V30 17054 H 1572.33 -2.44778 -2.10437 0
M  V30 17055 H 1571.38 -3.8027 -0.0992797 0
M  V30 17056 H 1572.69 -4.97575 -0.349381 0
M  V30 17057 H 1571.85 -5.4548 -2.65587 0
M  V30 17058 H 1570.59 -4.20272 -2.47432 0
M  V30 17059 H 1569.59 -5.47048 -0.549441 0
M  V30 17060 H 1570.82 -6.74913 -0.752941 0
M  V30 17061 H 1568.76 -5.91518 -2.83624 0
M  V30 17062 H 1568.68 -7.33221 -1.84181 0
M  V30 17063 H 1569.95 -7.18542 -3.02188 0
M  V30 17064 N 1574.18 -0.163538 -1.56749 0
M  V30 17065 C 1575.4 0.489888 -2.01017 0
M  V30 17066 C 1575.82 1.57327 -1.04373 0
M  V30 17067 O 1575.18 1.82449 -0.0433414 0
M  V30 17068 C 1575.23 1.07537 -3.45135 0
M  V30 17069 O 1574.95 0.0352465 -4.38086 0
M  V30 17070 C 1576.45 1.80779 -4.04764 0
M  V30 17071 H 1573.67 0.126095 -0.659046 0
M  V30 17072 H 1576.21 -0.262982 -2.02802 0
M  V30 17073 H 1574.37 1.77877 -3.44149 0
M  V30 17074 H 1574.78 0.466426 -5.22422 0
M  V30 17075 H 1576.26 2.17014 -5.07552 0
M  V30 17076 H 1576.73 2.6999 -3.46413 0
M  V30 17077 H 1577.34 1.15098 -4.09429 0
M  V30 17078 N 1575.65 1.57214 0.110213 0
M  V30 17079 C 1576.56 2.04287 1.15342 0
M  V30 17080 C 1577.58 0.964895 1.44796 0
M  V30 17081 O 1578.76 1.27702 1.55737 0
M  V30 17082 C 1575.82 2.44518 2.45788 0
M  V30 17083 C 1574.88 3.66439 2.23653 0
M  V30 17084 C 1574.12 4.04742 3.47879 0
M  V30 17085 O 1574.34 3.43291 4.5553 0
M  V30 17086 O 1573.27 4.97791 3.38361 0
M  V30 17087 H 1577.1 2.93415 0.783656 0
M  V30 17088 H 1574.68 1.45897 0.321644 0
M  V30 17089 H 1576.57 2.71089 3.22628 0
M  V30 17090 H 1575.24 1.58533 2.82221 0
M  V30 17091 H 1574.15 3.45006 1.44643 0
M  V30 17092 H 1575.48 4.53156 1.9212 0
M  V30 17093 N 1577.13 -0.380637 1.52934 0
M  V30 17094 C 1578.06 -1.47174 1.81279 0
M  V30 17095 C 1579.04 -1.56549 0.665319 0
M  V30 17096 O 1580.23 -1.71362 0.913722 0
M  V30 17097 C 1577.36 -2.84691 1.98918 0
M  V30 17098 C 1576.31 -2.90151 3.14637 0
M  V30 17099 C 1575.64 -4.30198 3.17544 0
M  V30 17100 C 1576.94 -2.59037 4.53539 0
M  V30 17101 H 1578.63 -1.23703 2.7265 0
M  V30 17102 H 1576.18 -0.593654 1.31194 0
M  V30 17103 H 1578.13 -3.61034 2.1733 0
M  V30 17104 H 1576.86 -3.09517 1.04244 0
M  V30 17105 H 1575.51 -2.16257 2.96021 0
M  V30 17106 H 1575.16 -4.52076 2.20536 0
M  V30 17107 H 1574.86 -4.3477 3.95284 0
M  V30 17108 H 1576.39 -5.08435 3.38121 0
M  V30 17109 H 1577.8 -3.25096 4.72214 0
M  V30 17110 H 1576.2 -2.74946 5.33408 0
M  V30 17111 H 1577.27 -1.54342 4.59681 0
M  V30 17112 N 1578.61 -1.44039 -0.639573 0
M  V30 17113 C 1579.54 -1.46233 -1.76489 0
M  V30 17114 C 1580.56 -0.356739 -1.58843 0
M  V30 17115 O 1581.74 -0.621988 -1.67313 0
M  V30 17116 C 1578.84 -1.27252 -3.14102 0
M  V30 17117 C 1578.02 -2.50902 -3.58283 0
M  V30 17118 C 1577.08 -2.26944 -4.74745 0
M  V30 17119 O 1576.1 -3.00381 -4.83487 0
M  V30 17120 N 1577.3 -1.29468 -5.65878 0
M  V30 17121 H 1580.07 -2.43243 -1.7508 0
M  V30 17122 H 1577.63 -1.3937 -0.823867 0
M  V30 17123 H 1579.62 -1.09085 -3.89721 0
M  V30 17124 H 1578.19 -0.386383 -3.10203 0
M  V30 17125 H 1577.41 -2.84403 -2.72963 0
M  V30 17126 H 1578.7 -3.33163 -3.84552 0
M  V30 17127 H 1578.1 -0.687994 -5.61501 0
M  V30 17128 H 1576.66 -1.17281 -6.41162 0
M  V30 17129 N 1580.09 0.879207 -1.30796 0
M  V30 17130 C 1581.05 1.96707 -1.17639 0
M  V30 17131 C 1582.05 1.6045 -0.106013 0
M  V30 17132 O 1583.24 1.70553 -0.354573 0
M  V30 17133 C 1580.37 3.31292 -0.803625 0
M  V30 17134 H 1581.57 2.09806 -2.14293 0
M  V30 17135 H 1579.12 1.06634 -1.14276 0
M  V30 17136 H 1579.85 3.23894 0.162159 0
M  V30 17137 H 1579.64 3.58979 -1.57723 0
M  V30 17138 H 1581.13 4.11077 -0.735201 0
M  V30 17139 N 1581.57 1.13606 1.09231 0
M  V30 17140 C 1582.82 0.893694 1.8082 0
M  V30 17141 C 1583.13 -0.581713 1.8675 0
M  V30 17142 O 1584.34 -0.941079 2.54668 0
M  V30 17143 C 1582.79 1.54932 3.24845 0
M  V30 17144 C 1582.4 3.0604 3.27175 0
M  V30 17145 C 1584.14 1.38773 4.01176 0
M  V30 17146 C 1582.05 3.64478 4.65735 0
M  V30 17147 H 1580.98 0.330699 0.677609 0
M  V30 17148 H 1583.63 1.36401 1.22748 0
M  V30 17149 H 1582.01 1.00668 3.82991 0
M  V30 17150 H 1583.19 3.66901 2.78783 0
M  V30 17151 H 1581.5 3.21739 2.64335 0
M  V30 17152 H 1584.1 1.79843 5.03548 0
M  V30 17153 H 1584.44 0.33282 4.14967 0
M  V30 17154 H 1584.98 1.90028 3.49477 0
M  V30 17155 H 1581.71 4.69785 4.57146 0
M  V30 17156 H 1581.23 3.08396 5.14444 0
M  V30 17157 H 1582.91 3.64272 5.3471 0
M  V30 17158 N 1583.05 -1.27244 0.929878 0
M  V30 17159 C 1584 -2.24434 0.401656 0
M  V30 17160 C 1584.98 -1.53087 -0.495298 0
M  V30 17161 O 1586.17 -1.73851 -0.332387 0
M  V30 17162 C 1583.3 -3.41588 -0.342424 0
M  V30 17163 C 1582.39 -4.20236 0.571171 0
M  V30 17164 N 1582.78 -4.76661 1.69197 0
M  V30 17165 C 1581.08 -4.44424 0.374595 0
M  V30 17166 C 1581.78 -5.35987 2.26036 0
M  V30 17167 N 1580.75 -5.21043 1.54969 0
M  V30 17168 H 1584.55 -2.65644 1.25739 0
M  V30 17169 H 1582.07 -1.422 0.784408 0
M  V30 17170 H 1584.07 -4.10319 -0.737805 0
M  V30 17171 H 1582.73 -3.01908 -1.19506 0
M  V30 17172 H 1583.74 -4.74545 2.07431 0
M  V30 17173 H 1580.41 -4.15205 -0.437201 0
M  V30 17174 H 1581.8 -5.90583 3.20408 0
M  V30 17175 N 1584.52 -0.695628 -1.41417 0
M  V30 17176 C 1585.45 -0.0447013 -2.33457 0
M  V30 17177 C 1586.43 0.767104 -1.51821 0
M  V30 17178 O 1587.62 0.720066 -1.80357 0
M  V30 17179 C 1584.75 0.892353 -3.3564 0
M  V30 17180 C 1583.7 0.187638 -4.27588 0
M  V30 17181 C 1583.03 1.23906 -5.20146 0
M  V30 17182 C 1584.33 -0.946093 -5.1366 0
M  V30 17183 H 1586.02 -0.81343 -2.88138 0
M  V30 17184 H 1583.57 -0.392614 -1.38544 0
M  V30 17185 H 1585.52 1.35696 -3.98954 0
M  V30 17186 H 1584.25 1.69275 -2.79309 0
M  V30 17187 H 1582.91 -0.256942 -3.65698 0
M  V30 17188 H 1582.55 2.03198 -4.6013 0
M  V30 17189 H 1582.25 0.772536 -5.82499 0
M  V30 17190 H 1583.78 1.70417 -5.86336 0
M  V30 17191 H 1585.19 -0.561764 -5.70541 0
M  V30 17192 H 1583.59 -1.33971 -5.84954 0
M  V30 17193 H 1584.66 -1.78573 -4.50821 0
M  V30 17194 N 1586 1.51322 -0.440383 0
M  V30 17195 C 1586.96 2.26388 0.357911 0
M  V30 17196 C 1587.96 1.2995 0.947083 0
M  V30 17197 O 1589.15 1.53637 0.821057 0
M  V30 17198 C 1586.29 3.05797 1.50669 0
M  V30 17199 H 1587.48 2.98396 -0.300002 0
M  V30 17200 H 1585.03 1.55096 -0.193628 0
M  V30 17201 H 1585.77 2.38213 2.20057 0
M  V30 17202 H 1585.55 3.76634 1.09037 0
M  V30 17203 H 1587.04 3.6265 2.07062 0
M  V30 17204 N 1587.48 0.171848 1.5666 0
M  V30 17205 C 1588.41 -0.753861 2.20996 0
M  V30 17206 C 1589.39 -1.23873 1.16574 0
M  V30 17207 O 1590.58 -1.29179 1.45005 0
M  V30 17208 C 1587.71 -1.98314 2.85112 0
M  V30 17209 C 1586.66 -1.6341 3.95577 0
M  V30 17210 C 1585.99 -2.93807 4.46745 0
M  V30 17211 C 1587.29 -0.861713 5.15142 0
M  V30 17212 H 1588.98 -0.217598 2.98608 0
M  V30 17213 H 1586.53 -0.10322 1.4363 0
M  V30 17214 H 1588.48 -2.63576 3.28794 0
M  V30 17215 H 1587.2 -2.54354 2.04869 0
M  V30 17216 H 1585.86 -1.00516 3.52551 0
M  V30 17217 H 1585.51 -3.47889 3.63293 0
M  V30 17218 H 1585.21 -2.71207 5.21268 0
M  V30 17219 H 1586.73 -3.60098 4.93114 0
M  V30 17220 H 1588.15 -1.41693 5.55514 0
M  V30 17221 H 1586.54 -0.734727 5.95585 0
M  V30 17222 H 1587.61 0.141851 4.84692 0
M  V30 17223 N 1588.96 -1.5727 -0.101874 0
M  V30 17224 C 1589.89 -1.98253 -1.15014 0
M  V30 17225 C 1590.9 -0.884147 -1.36699 0
M  V30 17226 O 1592.09 -1.16232 -1.35471 0
M  V30 17227 C 1589.19 -2.28043 -2.50698 0
M  V30 17228 C 1588.36 -3.59343 -2.49383 0
M  V30 17229 C 1587.42 -3.77147 -3.66943 0
M  V30 17230 O 1586.45 -4.49075 -3.49744 0
M  V30 17231 N 1587.65 -3.1721 -4.86167 0
M  V30 17232 H 1590.42 -2.88787 -0.801375 0
M  V30 17233 H 1587.98 -1.59264 -0.290941 0
M  V30 17234 H 1589.97 -2.37153 -3.27934 0
M  V30 17235 H 1588.54 -1.4355 -2.77691 0
M  V30 17236 H 1587.76 -3.61264 -1.57741 0
M  V30 17237 H 1589.05 -4.45612 -2.45576 0
M  V30 17238 H 1588.45 -2.58772 -5.03044 0
M  V30 17239 H 1587 -3.31816 -5.61018 0
M  V30 17240 N 1590.44 0.372521 -1.53134 0
M  V30 17241 C 1591.71 1.13113 -1.59577 0
M  V30 17242 C 1592.09 2.07294 -0.399027 0
M  V30 17243 O 1591.44 2.20171 0.611316 0
M  V30 17244 C 1591.65 1.87635 -2.94269 0
M  V30 17245 C 1593 2.42414 -3.48598 0
M  V30 17246 O 1594.02 1.9777 -2.96252 0
M  V30 17247 O 1592.88 3.24008 -4.40092 0
M  V30 17248 H 1589.98 0.518486 -0.644284 0
M  V30 17249 H 1592.52 0.376344 -1.65474 0
M  V30 17250 H 1591.29 1.18859 -3.72811 0
M  V30 17251 H 1590.92 2.70037 -2.91831 0
M  V30 17252 N 1591.91 1.44376 0.631925 0
M  V30 17253 C 1593.14 1.5082 1.42366 0
M  V30 17254 C 1593.56 0.133858 1.87623 0
M  V30 17255 O 1592.92 -0.876789 1.58689 0
M  V30 17256 C 1592.97 2.47698 2.62065 0
M  V30 17257 O 1592.07 1.97796 3.61871 0
M  V30 17258 H 1591.41 0.509318 0.426018 0
M  V30 17259 H 1593.94 1.89502 0.771376 0
M  V30 17260 H 1593.95 2.65708 3.09618 0
M  V30 17261 H 1592.63 3.47526 2.2847 0
M  V30 17262 H 1591.21 1.89549 3.21131 0
M  V30 17263 N 1593.39 -0.872258 1.31261 0
M  V30 17264 C 1594.64 -1.6219 1.20576 0
M  V30 17265 C 1594.96 -1.93557 -0.236769 0
M  V30 17266 O 1594.23 -1.58094 -1.15686 0
M  V30 17267 H 1592.81 -0.601265 0.443272 0
M  V30 17268 H 1595.47 -1.04438 1.64556 0
M  V30 17269 H 1594.57 -2.56653 1.77582 0
M  V30 17270 N 1594.87 -1.14184 -1.08627 0
M  V30 17271 C 1595.8 -0.849455 -2.17501 0
M  V30 17272 C 1596.78 0.194617 -1.68983 0
M  V30 17273 O 1597.97 0.0517757 -1.94131 0
M  V30 17274 C 1595.1 -0.323685 -3.45788 0
M  V30 17275 C 1594.05 -1.30294 -4.07685 0
M  V30 17276 C 1593.38 -0.636575 -5.30897 0
M  V30 17277 C 1594.68 -2.66441 -4.49229 0
M  V30 17278 H 1596.37 -1.75987 -2.42217 0
M  V30 17279 H 1593.92 -0.847595 -1.16412 0
M  V30 17280 H 1595.87 -0.106754 -4.21265 0
M  V30 17281 H 1594.59 0.62215 -3.20619 0
M  V30 17282 H 1593.25 -1.50601 -3.34238 0
M  V30 17283 H 1592.9 0.314995 -5.02013 0
M  V30 17284 H 1592.6 -1.28998 -5.73266 0
M  V30 17285 H 1594.12 -0.429117 -6.0909 0
M  V30 17286 H 1595.54 -2.50055 -5.15893 0
M  V30 17287 H 1593.93 -3.28033 -5.02508 0
M  V30 17288 H 1595 -3.23486 -3.61226 0
M  V30 17289 N 1596.35 1.26749 -0.936613 0
M  V30 17290 C 1597.26 2.30272 -0.448573 0
M  V30 17291 C 1598.27 1.67386 0.475184 0
M  V30 17292 O 1599.45 1.98232 0.355825 0
M  V30 17293 C 1596.52 3.45546 0.28262 0
M  V30 17294 C 1595.58 4.23926 -0.677138 0
M  V30 17295 C 1594.81 5.33697 0.019255 0
M  V30 17296 O 1595.03 5.56825 1.23703 0
M  V30 17297 O 1593.97 5.98302 -0.657119 0
M  V30 17298 H 1597.79 2.74072 -1.30838 0
M  V30 17299 H 1595.38 1.31863 -0.702314 0
M  V30 17300 H 1597.26 4.15635 0.694686 0
M  V30 17301 H 1595.93 3.03784 1.11789 0
M  V30 17302 H 1594.84 3.56337 -1.13906 0
M  V30 17303 H 1596.17 4.69425 -1.47988 0
M  V30 17304 N 1597.83 0.703118 1.41046 0
M  V30 17305 C 1599.07 0.237638 2.01403 0
M  V30 17306 C 1599.41 -1.16217 1.55587 0
M  V30 17307 O 1598.68 -1.78593 0.770377 0
M  V30 17308 C 1598.96 0.303738 3.58817 0
M  V30 17309 C 1598.82 1.74103 4.14739 0
M  V30 17310 C 1600.14 -0.332186 4.38845 0
M  V30 17311 H 1597.25 0.0878243 0.731749 0
M  V30 17312 H 1599.9 0.893264 1.67693 0
M  V30 17313 H 1598.05 -0.254485 3.87666 0
M  V30 17314 H 1599.72 2.35368 3.96736 0
M  V30 17315 H 1597.96 2.27277 3.69496 0
M  V30 17316 H 1598.63 1.73876 5.239 0
M  V30 17317 H 1601.11 0.143312 4.15853 0
M  V30 17318 H 1599.98 -0.255429 5.48305 0
M  V30 17319 H 1600.25 -1.41397 4.18878 0
M  V30 17320 N 1599.3 -1.51086 0.448402 0
M  V30 17321 C 1600.25 -2.29611 -0.371711 0
M  V30 17322 C 1601.25 -1.35926 -1.01096 0
M  V30 17323 O 1602.45 -1.53219 -0.944663 0
M  V30 17324 H 1598.83 -0.739099 -0.138694 0
M  V30 17325 H 1600.8 -2.96772 0.311275 0
M  V30 17326 C 1599.55 -3.1583 -1.45418 0
M  V30 17327 H 1598.87 -3.87813 -0.971661 0
M  V30 17328 H 1600.31 -3.7381 -2.00105 0
M  V30 17329 C 1598.77 -2.31927 -2.44359 0
M  V30 17330 O 1599.3 -1.98655 -3.4914 0
M  V30 17331 N 1597.51 -1.94938 -2.15517 0
M  V30 17332 H 1597.05 -2.22195 -1.30335 0
M  V30 17333 H 1597.01 -1.39098 -2.81956 0
M  V30 17334 N 1600.78 -0.180154 -1.56567 0
M  V30 17335 C 1602.03 0.462656 -1.96322 0
M  V30 17336 C 1602.34 1.63788 -1.06925 0
M  V30 17337 O 1603.55 2.34751 -1.36398 0
M  V30 17338 C 1602.01 0.874492 -3.49114 0
M  V30 17339 C 1601.61 -0.27562 -4.47151 0
M  V30 17340 C 1603.36 1.48522 -3.9767 0
M  V30 17341 C 1601.27 0.156341 -5.91193 0
M  V30 17342 H 1600.2 0.176619 -0.733022 0
M  V30 17343 H 1602.85 -0.269793 -1.81506 0
M  V30 17344 H 1601.23 1.66318 -3.59381 0
M  V30 17345 H 1602.4 -1.05304 -4.48606 0
M  V30 17346 H 1600.72 -0.796878 -4.08704 0
M  V30 17347 H 1603.31 1.8206 -5.02751 0
M  V30 17348 H 1603.66 2.38634 -3.41115 0
M  V30 17349 H 1604.19 0.760806 -3.90457 0
M  V30 17350 H 1600.93 -0.710221 -6.51641 0
M  V30 17351 H 1600.45 0.898933 -5.93025 0
M  V30 17352 H 1602.13 0.597228 -6.44238 0
M  V30 17353 N 1602.26 1.57322 0.0935319 0
M  V30 17354 C 1603.51 1.86443 0.797919 0
M  V30 17355 C 1603.84 0.769491 1.78304 0
M  V30 17356 O 1603.11 -0.222383 1.93225 0
M  V30 17357 C 1603.4 3.26201 1.52528 0
M  V30 17358 C 1603.25 4.46325 0.558031 0
M  V30 17359 C 1604.57 3.63879 2.47548 0
M  V30 17360 H 1601.69 0.678136 0.288618 0
M  V30 17361 H 1604.33 1.899 0.0615161 0
M  V30 17362 H 1602.48 3.23385 2.15301 0
M  V30 17363 H 1604.15 4.61257 -0.0628154 0
M  V30 17364 H 1602.4 4.3361 -0.128462 0
M  V30 17365 H 1603.07 5.40845 1.10413 0
M  V30 17366 H 1605.54 3.6765 1.94866 0
M  V30 17367 H 1604.42 4.62598 2.95456 0
M  V30 17368 H 1604.68 2.92647 3.31376 0
M  V30 17369 N 1603.74 -0.364395 1.53329 0
M  V30 17370 C 1604.97 -1.1275 1.7348 0
M  V30 17371 C 1605.38 -1.83002 0.4643 0
M  V30 17372 O 1604.74 -1.73603 -0.562864 0
M  V30 17373 C 1604.79 -2.15691 2.90103 0
M  V30 17374 O 1604.51 -1.48298 4.12237 0
M  V30 17375 C 1606.01 -3.04539 3.22135 0
M  V30 17376 H 1603.23 -0.337084 0.580186 0
M  V30 17377 H 1605.78 -0.422952 2.00078 0
M  V30 17378 H 1603.93 -2.81742 2.65895 0
M  V30 17379 H 1604.34 -2.16896 4.77553 0
M  V30 17380 H 1605.82 -3.72747 4.07141 0
M  V30 17381 H 1606.3 -3.69414 2.3755 0
M  V30 17382 H 1606.9 -2.44103 3.48273 0
M  V30 17383 N 1605.22 -1.44709 -0.62426 0
M  V30 17384 C 1606.49 -1.38328 -1.38292 0
M  V30 17385 C 1606.87 -0.0454388 -2.11051 0
M  V30 17386 O 1606.22 0.972183 -2.06787 0
M  V30 17387 C 1606.43 -2.58602 -2.34364 0
M  V30 17388 C 1607.78 -3.02966 -2.97484 0
M  V30 17389 O 1608.8 -2.58856 -2.44688 0
M  V30 17390 O 1607.66 -3.79466 -3.93278 0
M  V30 17391 H 1604.76 -0.54812 -0.619269 0
M  V30 17392 H 1607.3 -1.5681 -0.648741 0
M  V30 17393 H 1606.07 -3.47573 -1.79746 0
M  V30 17394 H 1605.7 -2.42368 -3.15188 0
M  V30 17395 N 1606.69 0.865285 -1.31722 0
M  V30 17396 C 1607.92 1.65661 -1.24785 0
M  V30 17397 C 1608.34 1.87208 0.182952 0
M  V30 17398 O 1607.7 1.41721 1.1307 0
M  V30 17399 C 1607.75 2.99921 -2.00199 0
M  V30 17400 O 1606.85 3.89936 -1.34253 0
M  V30 17401 H 1606.2 0.505459 -0.430589 0
M  V30 17402 H 1608.73 1.0785 -1.73867 0
M  V30 17403 H 1608.74 3.49823 -2.09971 0
M  V30 17404 H 1607.41 2.83559 -3.04249 0
M  V30 17405 H 1605.99 3.4839 -1.32961 0
M  V30 17406 N 1608.17 1.14759 1.0802 0
M  V30 17407 C 1609.1 0.795901 2.14937 0
M  V30 17408 C 1610.12 -0.189008 1.61699 0
M  V30 17409 O 1611.31 0.0332689 1.78469 0
M  V30 17410 C 1608.41 0.161388 3.38516 0
M  V30 17411 C 1607.58 1.18202 4.21126 0
M  V30 17412 C 1606.64 0.570535 5.23098 0
M  V30 17413 O 1605.66 1.2346 5.55649 0
M  V30 17414 N 1606.87 -0.650883 5.76839 0
M  V30 17415 H 1609.63 1.716 2.4571 0
M  V30 17416 H 1607.19 1.04254 1.23866 0
M  V30 17417 H 1609.18 -0.260289 4.03862 0
M  V30 17418 H 1607.75 -0.661917 3.05512 0
M  V30 17419 H 1606.97 1.78049 3.51699 0
M  V30 17420 H 1608.26 1.87135 4.73136 0
M  V30 17421 H 1607.66 -1.2089 5.52632 0
M  V30 17422 H 1606.22 -1.01501 6.43848 0
M  V30 17423 N 1609.65 -1.26251 0.943322 0
M  V30 17424 C 1610.88 -1.97452 0.607969 0
M  V30 17425 C 1611.29 -1.70422 -0.82177 0
M  V30 17426 O 1610.63 -0.970323 -1.55982 0
M  V30 17427 C 1610.69 -3.51092 0.772938 0
M  V30 17428 C 1610.36 -4.01777 2.17771 0
M  V30 17429 C 1611.35 -4.1335 3.15338 0
M  V30 17430 C 1609.04 -4.35732 2.49886 0
M  V30 17431 C 1611.03 -4.58175 4.43119 0
M  V30 17432 C 1608.72 -4.80245 3.779 0
M  V30 17433 C 1609.72 -4.91427 4.74329 0
M  V30 17434 O 1609.41 -5.34958 6.00063 0
M  V30 17435 H 1609.14 -0.636465 0.227791 0
M  V30 17436 H 1611.69 -1.61671 1.26695 0
M  V30 17437 H 1609.92 -3.86658 0.0568252 0
M  V30 17438 H 1611.61 -4.03505 0.440326 0
M  V30 17439 H 1612.38 -3.87361 2.91851 0
M  V30 17440 H 1608.26 -4.26261 1.75563 0
M  V30 17441 H 1611.8 -4.66818 5.18389 0
M  V30 17442 H 1607.7 -5.05678 4.01198 0
M  V30 17443 H 1608.47 -5.53173 6.03276 0
M  V30 17444 N 1611.13 -0.710588 -1.40671 0
M  V30 17445 C 1612.09 -0.0635988 -2.29112 0
M  V30 17446 C 1613.09 0.692537 -1.45123 0
M  V30 17447 O 1614.28 0.525184 -1.66095 0
M  V30 17448 C 1611.41 0.919955 -3.28252 0
M  V30 17449 H 1612.61 -0.842477 -2.87823 0
M  V30 17450 H 1610.16 -0.474948 -1.48909 0
M  V30 17451 H 1610.9 1.72607 -2.7455 0
M  V30 17452 H 1610.68 0.38071 -3.90247 0
M  V30 17453 H 1612.17 1.36997 -3.94489 0
M  V30 17454 N 1612.61 1.50847 -0.456408 0
M  V30 17455 C 1613.54 2.31077 0.335523 0
M  V30 17456 C 1614.52 1.37326 1.00377 0
M  V30 17457 O 1615.7 1.66247 1.00376 0
M  V30 17458 C 1612.83 3.16662 1.42627 0
M  V30 17459 C 1611.79 4.18846 0.88045 0
M  V30 17460 C 1611.11 4.93074 2.06838 0
M  V30 17461 C 1612.41 5.22208 -0.0982288 0
M  V30 17462 H 1614.11 2.97531 -0.334056 0
M  V30 17463 H 1611.65 1.43085 -0.162099 0
M  V30 17464 H 1613.61 3.71578 1.98765 0
M  V30 17465 H 1612.33 2.48066 2.12441 0
M  V30 17466 H 1610.99 3.65009 0.341147 0
M  V30 17467 H 1610.64 4.20963 2.75316 0
M  V30 17468 H 1610.34 5.62184 1.70947 0
M  V30 17469 H 1611.86 5.5082 2.63494 0
M  V30 17470 H 1613.28 5.72082 0.373481 0
M  V30 17471 H 1611.67 5.98954 -0.370674 0
M  V30 17472 H 1612.74 4.73859 -1.02887 0
M  V30 17473 N 1614.09 0.188454 1.56469 0
M  V30 17474 C 1615.33 -0.451165 1.97 0
M  V30 17475 C 1615.65 -1.6261 1.07624 0
M  V30 17476 O 1614.92 -1.95354 0.146125 0
M  V30 17477 H 1613.5 -0.16967 0.727476 0
M  V30 17478 H 1616.17 0.273638 1.9297 0
M  V30 17479 H 1615.26 -0.799741 3.0168 0
M  V30 17480 N 1615.56 -1.5737 -0.0851874 0
M  V30 17481 C 1616.81 -1.85772 -0.785604 0
M  V30 17482 C 1617.13 -0.779172 -1.79411 0
M  V30 17483 O 1618.33 -0.950621 -2.54314 0
M  V30 17484 C 1616.79 -3.29484 -1.44805 0
M  V30 17485 C 1616.4 -4.45434 -0.478799 0
M  V30 17486 C 1618.14 -3.671 -2.13161 0
M  V30 17487 C 1616.05 -5.80183 -1.1464 0
M  V30 17488 H 1614.98 -0.69298 -0.297145 0
M  V30 17489 H 1617.63 -1.83459 -0.0386776 0
M  V30 17490 H 1616.01 -3.26367 -2.24278 0
M  V30 17491 H 1617.18 -4.59917 0.285148 0
M  V30 17492 H 1615.5 -4.16281 0.0995964 0
M  V30 17493 H 1618.1 -4.65061 -2.6386 0
M  V30 17494 H 1618.44 -2.96223 -2.92503 0
M  V30 17495 H 1618.97 -3.72148 -1.40536 0
M  V30 17496 H 1615.71 -6.54317 -0.393583 0
M  V30 17497 H 1615.23 -5.69525 -1.88153 0
M  V30 17498 H 1616.91 -6.25074 -1.67006 0
M  V30 17499 N 1617.04 0.356258 -1.53521 0
M  V30 17500 C 1618.29 1.09526 -1.69372 0
M  V30 17501 C 1618.6 1.90189 -0.456912 0
M  V30 17502 O 1619.81 2.66928 -0.496141 0
M  V30 17503 C 1618.27 1.99643 -2.99451 0
M  V30 17504 C 1617.87 1.24248 -4.30426 0
M  V30 17505 C 1619.62 2.73478 -3.24669 0
M  V30 17506 C 1617.52 2.13321 -5.51587 0
M  V30 17507 H 1616.45 0.412594 -0.631096 0
M  V30 17508 H 1619.11 0.355603 -1.80021 0
M  V30 17509 H 1617.49 2.77377 -2.82627 0
M  V30 17510 H 1618.66 0.515123 -4.57912 0
M  V30 17511 H 1616.98 0.622355 -4.11723 0
M  V30 17512 H 1619.57 3.40366 -4.12377 0
M  V30 17513 H 1619.92 3.39355 -2.4113 0
M  V30 17514 H 1620.45 2.02823 -3.4221 0
M  V30 17515 H 1617.19 1.52006 -6.37632 0
M  V30 17516 H 1616.71 2.8388 -5.28368 0
M  V30 17517 H 1618.39 2.72666 -5.86739 0
M  V30 17518 N 1618.52 1.45038 0.616577 0
M  V30 17519 C 1619.45 1.49023 1.7414 0
M  V30 17520 C 1620.46 0.381965 1.58256 0
M  V30 17521 O 1621.65 0.648527 1.66302 0
M  V30 17522 C 1618.75 1.32233 3.12038 0
M  V30 17523 C 1617.93 2.5657 3.54246 0
M  V30 17524 C 1616.99 2.34468 4.71075 0
M  V30 17525 O 1616.01 3.08035 4.78647 0
M  V30 17526 N 1617.21 1.38454 5.63747 0
M  V30 17527 H 1619.98 2.45997 1.71189 0
M  V30 17528 H 1617.54 1.40663 0.80159 0
M  V30 17529 H 1619.53 1.15271 3.87936 0
M  V30 17530 H 1618.1 0.435685 3.09549 0
M  V30 17531 H 1617.32 2.88709 2.68404 0
M  V30 17532 H 1618.61 3.39239 3.79203 0
M  V30 17533 H 1618.01 0.777236 5.60335 0
M  V30 17534 H 1616.56 1.27467 6.39215 0
M  V30 17535 N 1620 -0.858287 1.32179 0
M  V30 17536 C 1620.96 -1.94811 1.20753 0
M  V30 17537 C 1621.96 -1.60261 0.131526 0
M  V30 17538 O 1623.15 -1.69968 0.381662 0
M  V30 17539 C 1620.28 -3.29972 0.856229 0
M  V30 17540 H 1621.48 -2.06371 2.17603 0
M  V30 17541 H 1619.03 -1.04802 1.15958 0
M  V30 17542 H 1619.76 -3.24111 -0.11061 0
M  V30 17543 H 1619.55 -3.56424 1.63414 0
M  V30 17544 H 1621.04 -4.09856 0.800507 0
M  V30 17545 N 1621.48 -1.1533 -1.07409 0
M  V30 17546 C 1622.41 -0.807289 -2.14512 0
M  V30 17547 C 1623.42 0.18043 -1.61797 0
M  V30 17548 O 1624.61 -0.042733 -1.78449 0
M  V30 17549 C 1621.71 -0.179338 -3.38425 0
M  V30 17550 C 1620.88 -1.20433 -4.20493 0
M  V30 17551 C 1619.94 -0.598268 -5.22788 0
M  V30 17552 O 1618.97 -1.26405 -5.54987 0
M  V30 17553 N 1620.17 0.620283 -5.77177 0
M  V30 17554 H 1622.93 -1.729 -2.44797 0
M  V30 17555 H 1620.5 -1.0491 -1.23311 0
M  V30 17556 H 1622.49 0.238867 -4.03994 0
M  V30 17557 H 1621.06 0.645706 -3.05858 0
M  V30 17558 H 1620.28 -1.79912 -3.5075 0
M  V30 17559 H 1621.57 -1.89642 -4.72137 0
M  V30 17560 H 1620.96 1.17958 -5.53265 0
M  V30 17561 H 1619.52 0.980853 -6.44378 0
M  V30 17562 N 1622.95 1.25748 -0.950004 0
M  V30 17563 C 1624.36 1.75253 -0.643694 0
M  V30 17564 C 1624.72 1.77261 0.841017 0
M  V30 17565 O 1623.84 1.39043 1.65819 0
M  V30 17566 C 1624.44 3.1826 -1.16173 0
M  V30 17567 C 1622.99 3.65342 -0.905672 0
M  V30 17568 C 1622.14 2.4454 -1.30749 0
M  V30 17569 H 1625.09 1.117 -1.12733 0
M  V30 17570 H 1625.11 3.76935 -0.519651 0
M  V30 17571 H 1624.63 3.16766 -2.24234 0
M  V30 17572 H 1622.73 3.72256 0.160174 0
M  V30 17573 H 1622.84 4.53713 -1.53888 0
M  V30 17574 H 1621.2 2.44138 -0.725876 0
M  V30 17575 H 1621.99 2.45741 -2.39721 0
M  V30 17576 N 1624.43 0.718038 1.40292 0
M  V30 17577 C 1625.71 0.185648 1.94717 0
M  V30 17578 C 1626.09 -1.30916 1.65603 0
M  V30 17579 O 1625.44 -2.06653 0.975031 0
M  V30 17580 C 1625.65 0.501015 3.45385 0
M  V30 17581 C 1626.99 0.441021 4.22303 0
M  V30 17582 O 1628.02 0.437217 3.53507 0
M  V30 17583 O 1626.88 0.420689 5.44878 0
M  V30 17584 H 1623.97 0.0281581 0.82652 0
M  V30 17585 H 1626.52 0.795738 1.49887 0
M  V30 17586 H 1625.29 1.5348 3.59944 0
M  V30 17587 H 1624.91 -0.138913 3.97357 0
M  V30 17588 N 1625.91 -1.50602 0.464402 0
M  V30 17589 C 1626.86 -2.28382 -0.333234 0
M  V30 17590 C 1627.83 -1.3314 -0.993125 0
M  V30 17591 O 1629.01 -1.62072 -1.00685 0
M  V30 17592 C 1626.15 -3.14841 -1.41313 0
M  V30 17593 C 1625.27 -4.25106 -0.768684 0
M  V30 17594 C 1624.4 -4.98833 -1.82591 0
M  V30 17595 C 1623.44 -6.00982 -1.16135 0
M  V30 17596 N 1622.58 -6.68012 -2.16112 0
M  V30 17597 H 1627.42 -2.96096 0.336354 0
M  V30 17598 H 1624.95 -1.46022 0.17772 0
M  V30 17599 H 1626.91 -3.63314 -2.05082 0
M  V30 17600 H 1625.54 -2.49186 -2.05197 0
M  V30 17601 H 1624.59 -3.80395 -0.0185964 0
M  V30 17602 H 1625.91 -4.98204 -0.243759 0
M  V30 17603 H 1625.06 -5.50991 -2.53957 0
M  V30 17604 H 1623.8 -4.25426 -2.38462 0
M  V30 17605 H 1622.8 -5.4809 -0.43328 0
M  V30 17606 H 1624.03 -6.76358 -0.609612 0
M  V30 17607 H 1621.97 -5.97401 -2.71013 0
M  V30 17608 H 1621.89 -7.36963 -1.68586 0
M  V30 17609 H 1623.16 -7.2479 -2.86879 0
M  V30 17610 N 1627.39 -0.19675 -1.56367 0
M  V30 17611 C 1628.61 0.450245 -2.02454 0
M  V30 17612 C 1629.04 1.54287 -1.07597 0
M  V30 17613 O 1628.4 1.81202 -0.0597529 0
M  V30 17614 C 1628.44 0.982087 -3.46969 0
M  V30 17615 O 1627.55 2.09489 -3.5523 0
M  V30 17616 H 1626.89 0.105022 -0.655642 0
M  V30 17617 H 1629.42 -0.308112 -2.02267 0
M  V30 17618 H 1629.43 1.29826 -3.86793 0
M  V30 17619 H 1628.1 0.18224 -4.15501 0
M  V30 17620 H 1626.68 1.78723 -3.27281 0
M  V30 17621 N 1628.87 1.57413 0.0768405 0
M  V30 17622 C 1629.78 2.06688 1.10983 0
M  V30 17623 C 1630.79 0.995392 1.42716 0
M  V30 17624 O 1631.97 1.30977 1.52994 0
M  V30 17625 C 1629.03 2.49676 2.40546 0
M  V30 17626 C 1628.09 3.71101 2.1583 0
M  V30 17627 C 1627.33 4.1203 3.39216 0
M  V30 17628 O 1627.55 3.52877 4.48145 0
M  V30 17629 O 1626.48 5.04856 3.27726 0
M  V30 17630 H 1630.31 2.95012 0.721242 0
M  V30 17631 H 1627.9 1.46546 0.290624 0
M  V30 17632 H 1629.78 2.77871 3.16805 0
M  V30 17633 H 1628.45 1.64484 2.78795 0
M  V30 17634 H 1627.36 3.47996 1.37293 0
M  V30 17635 H 1628.69 4.5713 1.82465 0
M  V30 17636 N 1630.34 -0.348112 1.53707 0
M  V30 17637 C 1631.57 -1.11346 1.74976 0
M  V30 17638 C 1631.99 -1.81726 0.485525 0
M  V30 17639 O 1631.35 -1.72384 -0.561565 0
M  V30 17640 C 1631.4 -2.10611 2.92703 0
M  V30 17641 O 1630.5 -3.18042 2.62532 0
M  V30 17642 H 1629.85 -0.322247 0.580563 0
M  V30 17643 H 1632.38 -0.399898 2.00654 0
M  V30 17644 H 1632.39 -2.53912 3.19363 0
M  V30 17645 H 1631.06 -1.58782 3.84397 0
M  V30 17646 H 1629.64 -2.79591 2.46746 0
M  V30 17647 N 1631.82 -1.45363 -0.608876 0
M  V30 17648 C 1632.73 -1.56471 -1.74797 0
M  V30 17649 C 1633.75 -0.449225 -1.68101 0
M  V30 17650 O 1634.92 -0.709731 -1.8848 0
M  V30 17651 C 1631.99 -1.52714 -3.11254 0
M  V30 17652 C 1631.05 -2.75291 -3.29414 0
M  V30 17653 C 1630.28 -2.71704 -4.59361 0
M  V30 17654 O 1630.51 -1.78959 -5.41599 0
M  V30 17655 O 1629.44 -3.62886 -4.80205 0
M  V30 17656 H 1633.27 -2.52751 -1.68377 0
M  V30 17657 H 1630.85 -1.27859 -0.772808 0
M  V30 17658 H 1632.73 -1.53222 -3.92557 0
M  V30 17659 H 1631.41 -0.595858 -3.18169 0
M  V30 17660 H 1630.32 -2.80345 -2.47704 0
M  V30 17661 H 1631.65 -3.67541 -3.27375 0
M  V30 17662 N 1633.3 0.851265 -1.32632 0
M  V30 17663 C 1634.23 1.97562 -1.24465 0
M  V30 17664 C 1635.21 1.69619 -0.127777 0
M  V30 17665 O 1636.4 1.9162 -0.315509 0
M  V30 17666 C 1633.53 3.33467 -0.970423 0
M  V30 17667 C 1632.48 3.75772 -2.0489 0
M  V30 17668 C 1631.81 5.09345 -1.62702 0
M  V30 17669 C 1633.11 3.90876 -3.4643 0
M  V30 17670 H 1634.8 2.04653 -2.18535 0
M  V30 17671 H 1632.35 0.983252 -1.05205 0
M  V30 17672 H 1634.3 4.11681 -0.899825 0
M  V30 17673 H 1633.02 3.26599 0.00591373 0
M  V30 17674 H 1631.68 2.99812 -2.1097 0
M  V30 17675 H 1631.33 4.98937 -0.638039 0
M  V30 17676 H 1631.03 5.38621 -2.34864 0
M  V30 17677 H 1632.55 5.90048 -1.57085 0
M  V30 17678 H 1633.97 4.59434 -3.42919 0
M  V30 17679 H 1632.37 4.31574 -4.1697 0
M  V30 17680 H 1633.44 2.93689 -3.85843 0
M  V30 17681 N 1634.78 1.15898 1.06796 0
M  V30 17682 C 1636.02 0.938728 1.79766 0
M  V30 17683 C 1636.36 -0.53249 1.86757 0
M  V30 17684 O 1635.63 -1.39492 1.35544 0
M  V30 17685 C 1635.92 1.56062 3.24525 0
M  V30 17686 C 1635.77 3.10283 3.25645 0
M  V30 17687 C 1637.09 1.25108 4.21943 0
M  V30 17688 H 1634.21 0.342451 0.652607 0
M  V30 17689 H 1636.85 1.4315 1.24933 0
M  V30 17690 H 1635 1.14158 3.71349 0
M  V30 17691 H 1636.67 3.61132 2.87021 0
M  V30 17692 H 1634.91 3.43879 2.64443 0
M  V30 17693 H 1635.58 3.48913 4.27743 0
M  V30 17694 H 1638.06 1.61364 3.83537 0
M  V30 17695 H 1636.94 1.7123 5.21509 0
M  V30 17696 H 1637.2 0.169043 4.41777 0
M  V30 17697 N 1636.26 -1.25243 0.956659 0
M  V30 17698 C 1637.48 -1.97621 0.629337 0
M  V30 17699 C 1637.91 -1.70606 -0.792158 0
M  V30 17700 O 1637.26 -0.963192 -1.53598 0
M  V30 17701 C 1637.31 -3.49273 0.896687 0
M  V30 17702 O 1636.42 -4.12393 -0.0234986 0
M  V30 17703 H 1635.76 -0.619472 0.239061 0
M  V30 17704 H 1638.29 -1.5931 1.28381 0
M  V30 17705 H 1638.3 -3.99597 0.82377 0
M  V30 17706 H 1636.97 -3.68265 1.93271 0
M  V30 17707 H 1635.55 -3.72761 0.101796 0
M  V30 17708 N 1637.73 -0.725468 -1.3991 0
M  V30 17709 C 1638.67 -0.0397832 -2.29165 0
M  V30 17710 C 1639.68 0.713458 -1.46334 0
M  V30 17711 O 1640.87 0.559199 -1.69515 0
M  V30 17712 C 1637.97 0.967929 -3.24784 0
M  V30 17713 C 1637.14 0.278181 -4.36515 0
M  V30 17714 C 1636.2 1.19266 -5.12506 0
M  V30 17715 O 1635.23 0.673726 -5.65199 0
M  V30 17716 N 1636.43 2.5231 -5.228 0
M  V30 17717 H 1639.19 -0.806204 -2.88653 0
M  V30 17718 H 1636.75 -0.573904 -1.51387 0
M  V30 17719 H 1638.75 1.58209 -3.72494 0
M  V30 17720 H 1637.32 1.63563 -2.66394 0
M  V30 17721 H 1636.54 -0.516326 -3.90804 0
M  V30 17722 H 1637.82 -0.200203 -5.08406 0
M  V30 17723 H 1637.22 2.96957 -4.8149 0
M  V30 17724 H 1635.78 3.08846 -5.73984 0
M  V30 17725 N 1639.21 1.50354 -0.472382 0
M  V30 17726 C 1640.46 2.01526 0.0838536 0
M  V30 17727 C 1640.77 1.35913 1.40667 0
M  V30 17728 O 1641.98 1.78248 2.04792 0
M  V30 17729 C 1640.44 3.59344 0.199949 0
M  V30 17730 C 1640.04 4.33916 -1.11451 0
M  V30 17731 C 1641.79 4.18553 0.708075 0
M  V30 17732 C 1639.7 5.83521 -0.962138 0
M  V30 17733 H 1638.63 0.753182 0.0351127 0
M  V30 17734 H 1641.28 1.73153 -0.607474 0
M  V30 17735 H 1639.66 3.8431 0.955088 0
M  V30 17736 H 1640.83 4.20673 -1.8807 0
M  V30 17737 H 1639.15 3.86322 -1.55385 0
M  V30 17738 H 1641.74 5.28075 0.839126 0
M  V30 17739 H 1642.09 3.80019 1.69973 0
M  V30 17740 H 1642.62 3.97799 0.0102847 0
M  V30 17741 H 1639.36 6.26529 -1.9272 0
M  V30 17742 H 1638.88 5.99334 -0.236348 0
M  V30 17743 H 1640.56 6.43933 -0.629276 0
M  V30 17744 N 1640.69 0.205039 1.56261 0
M  V30 17745 C 1641.94 -0.431364 1.97033 0
M  V30 17746 C 1642.25 -1.62066 1.09517 0
M  V30 17747 O 1643.46 -2.32551 1.40116 0
M  V30 17748 C 1641.92 -0.818841 3.50461 0
M  V30 17749 C 1641.52 0.346723 4.46656 0
M  V30 17750 C 1643.27 -1.42177 3.99982 0
M  V30 17751 C 1641.17 -0.0622677 5.91367 0
M  V30 17752 H 1640.1 -0.164934 0.73574 0
M  V30 17753 H 1642.76 0.298635 1.81054 0
M  V30 17754 H 1641.14 -1.60579 3.61981 0
M  V30 17755 H 1642.31 1.12427 4.46874 0
M  V30 17756 H 1640.63 0.861799 4.07384 0
M  V30 17757 H 1643.22 -1.74039 5.05583 0
M  V30 17758 H 1643.57 -2.33177 3.44868 0
M  V30 17759 H 1644.1 -0.698591 3.91618 0
M  V30 17760 H 1640.84 0.813802 6.50429 0
M  V30 17761 H 1640.36 -0.804474 5.94381 0
M  V30 17762 H 1642.04 -0.49466 6.45106 0
M  V30 17763 N 1642.17 -1.57451 -0.0684915 0
M  V30 17764 C 1643.08 -2.07274 -1.09885 0
M  V30 17765 C 1644.1 -1.00295 -1.42186 0
M  V30 17766 O 1645.27 -1.31786 -1.52297 0
M  V30 17767 C 1642.34 -2.50949 -2.39219 0
M  V30 17768 C 1641.4 -3.7224 -2.13859 0
M  V30 17769 C 1640.63 -4.13823 -3.37026 0
M  V30 17770 O 1640.85 -3.55248 -4.46268 0
M  V30 17771 O 1639.79 -5.06587 -3.25044 0
M  V30 17772 H 1643.61 -2.9539 -0.705587 0
M  V30 17773 H 1641.2 -1.46698 -0.282849 0
M  V30 17774 H 1643.08 -2.79547 -3.15327 0
M  V30 17775 H 1641.76 -1.6596 -2.77919 0
M  V30 17776 H 1640.66 -3.4872 -1.35445 0
M  V30 17777 H 1642 -4.58091 -1.80038 0
M  V30 17778 N 1643.65 0.339955 -1.5389 0
M  V30 17779 C 1644.58 1.43837 -1.78448 0
M  V30 17780 C 1645.59 1.48559 -0.665885 0
M  V30 17781 O 1646.78 1.51577 -0.942686 0
M  V30 17782 C 1643.88 2.82474 -1.87248 0
M  V30 17783 C 1643.05 3.01149 -3.17219 0
M  V30 17784 C 1642.11 4.20049 -3.16931 0
M  V30 17785 O 1641.14 4.13994 -3.90638 0
M  V30 17786 N 1642.34 5.28767 -2.39553 0
M  V30 17787 H 1645.11 1.2314 -2.73234 0
M  V30 17788 H 1642.67 0.529855 -1.52984 0
M  V30 17789 H 1644.66 3.60196 -1.84502 0
M  V30 17790 H 1643.23 2.96297 -0.996322 0
M  V30 17791 H 1642.45 2.10867 -3.3306 0
M  V30 17792 H 1643.74 3.10511 -4.03063 0
M  V30 17793 H 1643.14 5.36557 -1.79228 0
M  V30 17794 H 1641.69 6.04969 -2.42601 0
M  V30 17795 N 1645.13 1.45684 0.601159 0
M  V30 17796 C 1646.06 1.57694 1.72206 0
M  V30 17797 C 1647.04 0.428141 1.64624 0
M  V30 17798 O 1648.22 0.65209 1.82925 0
M  V30 17799 C 1645.35 1.54941 3.10822 0
M  V30 17800 C 1644.31 2.68603 3.33222 0
M  V30 17801 C 1643.63 2.50906 4.72176 0
M  V30 17802 C 1644.93 4.10568 3.22849 0
M  V30 17803 H 1646.63 2.51521 1.62412 0
M  V30 17804 H 1644.17 1.2105 0.779929 0
M  V30 17805 H 1646.12 1.61939 3.89042 0
M  V30 17806 H 1644.85 0.576471 3.21472 0
M  V30 17807 H 1643.51 2.61043 2.57394 0
M  V30 17808 H 1643.16 1.51736 4.79568 0
M  V30 17809 H 1642.86 3.27131 4.88118 0
M  V30 17810 H 1644.38 2.59767 5.52588 0
M  V30 17811 H 1645.79 4.19336 3.90935 0
M  V30 17812 H 1644.19 4.87234 3.50318 0
M  V30 17813 H 1645.26 4.32022 2.20192 0
M  V30 17814 N 1646.6 -0.84422 1.33082 0
M  V30 17815 C 1647.85 -1.59404 1.23585 0
M  V30 17816 C 1648.17 -1.94593 -0.198208 0
M  V30 17817 O 1649.37 -2.68307 -0.415138 0
M  V30 17818 C 1647.83 -2.87489 2.16513 0
M  V30 17819 C 1647.44 -2.59685 3.65059 0
M  V30 17820 C 1649.18 -3.6551 2.15877 0
M  V30 17821 C 1647.09 -3.83834 4.49917 0
M  V30 17822 H 1646.02 -0.598191 0.459003 0
M  V30 17823 H 1648.67 -0.931299 1.58111 0
M  V30 17824 H 1647.05 -3.55276 1.74913 0
M  V30 17825 H 1648.22 -2.00143 4.15065 0
M  V30 17826 H 1646.54 -1.94977 3.6793 0
M  V30 17827 H 1649.14 -4.57654 2.76509 0
M  V30 17828 H 1649.48 -4.00031 1.15244 0
M  V30 17829 H 1650.01 -3.0464 2.55811 0
M  V30 17830 H 1646.75 -3.54448 5.51404 0
M  V30 17831 H 1646.27 -4.42734 4.04656 0
M  V30 17832 H 1647.95 -4.51468 4.63449 0
M  V30 17833 N 1648.08 -1.16463 -1.0618 0
M  V30 17834 C 1649.03 -0.87224 -2.13683 0
M  V30 17835 C 1650 0.179784 -1.65124 0
M  V30 17836 O 1651.18 0.0447406 -1.90748 0
M  V30 17837 C 1648.32 -0.380728 -3.42993 0
M  V30 17838 C 1647.44 -1.49571 -4.05281 0
M  V30 17839 C 1646.57 -0.959099 -5.2247 0
M  V30 17840 C 1645.61 -2.05021 -5.76743 0
M  V30 17841 N 1644.75 -1.5291 -6.85247 0
M  V30 17842 H 1649.59 -1.79288 -2.38033 0
M  V30 17843 H 1647.12 -0.894379 -1.16787 0
M  V30 17844 H 1649.08 -0.0773816 -4.17128 0
M  V30 17845 H 1647.71 0.502966 -3.18857 0
M  V30 17846 H 1646.76 -1.915 -3.28682 0
M  V30 17847 H 1648.08 -2.31904 -4.41613 0
M  V30 17848 H 1647.23 -0.609003 -6.03636 0
M  V30 17849 H 1645.97 -0.105086 -4.87587 0
M  V30 17850 H 1644.97 -2.40899 -4.94214 0
M  V30 17851 H 1646.2 -2.90821 -6.13678 0
M  V30 17852 H 1644.15 -0.697639 -6.5228 0
M  V30 17853 H 1644.06 -2.28859 -7.20527 0
M  V30 17854 H 1645.33 -1.20762 -7.70089 0
M  V30 17855 N 1649.56 1.24734 -0.963288 0
M  V30 17856 C 1650.51 2.25555 -0.48926 0
M  V30 17857 C 1651.48 1.59521 0.462848 0
M  V30 17858 O 1652.66 1.87095 0.374188 0
M  V30 17859 C 1649.8 3.44407 0.218629 0
M  V30 17860 C 1648.91 4.25051 -0.77173 0
M  V30 17861 C 1648.05 5.31185 -0.0403986 0
M  V30 17862 C 1647.09 6.03523 -1.02112 0
M  V30 17863 N 1646.23 7.0137 -0.320083 0
M  V30 17864 H 1651.07 2.6547 -1.35386 0
M  V30 17865 H 1648.6 1.30504 -0.678762 0
M  V30 17866 H 1650.56 4.12173 0.645701 0
M  V30 17867 H 1649.19 3.05341 1.04722 0
M  V30 17868 H 1648.24 3.56865 -1.31726 0
M  V30 17869 H 1649.55 4.75084 -1.51976 0
M  V30 17870 H 1648.71 6.05067 0.444886 0
M  V30 17871 H 1647.45 4.82048 0.740356 0
M  V30 17872 H 1646.45 5.28448 -1.51732 0
M  V30 17873 H 1647.68 6.54749 -1.80224 0
M  V30 17874 H 1645.62 6.54511 0.441775 0
M  V30 17875 H 1645.54 7.49263 -1.00705 0
M  V30 17876 H 1646.81 7.79368 0.143379 0
M  V30 17877 N 1651.04 0.732878 1.39523 0
M  V30 17878 C 1651.95 0.0930216 2.34416 0
M  V30 17879 C 1652.96 -0.724309 1.58208 0
M  V30 17880 O 1654.14 -0.653267 1.90511 0
M  V30 17881 C 1651.2 -0.805036 3.37224 0
M  V30 17882 C 1650.27 0.0243049 4.29293 0
M  V30 17883 C 1649.5 -0.830984 5.27191 0
M  V30 17884 O 1649.72 -2.06977 5.31523 0
M  V30 17885 O 1648.66 -0.260772 6.01335 0
M  V30 17886 H 1652.48 0.876179 2.90786 0
M  V30 17887 H 1650.07 0.493525 1.41013 0
M  V30 17888 H 1651.95 -1.31894 4.00228 0
M  V30 17889 H 1650.62 -1.56704 2.83241 0
M  V30 17890 H 1649.53 0.583677 3.69519 0
M  V30 17891 H 1650.86 0.748485 4.86476 0
M  V30 17892 N 1652.52 -1.50101 0.480349 0
M  V30 17893 C 1653.46 -2.28722 -0.308993 0
M  V30 17894 C 1654.43 -1.34186 -0.978948 0
M  V30 17895 O 1655.62 -1.6313 -0.989602 0
M  V30 17896 C 1652.76 -3.16322 -1.37966 0
M  V30 17897 C 1651.87 -4.25898 -0.723552 0
M  V30 17898 C 1651.01 -5.00741 -1.7729 0
M  V30 17899 C 1650.04 -6.0218 -1.09754 0
M  V30 17900 N 1649.18 -6.70266 -2.09015 0
M  V30 17901 H 1654.02 -2.95722 0.367739 0
M  V30 17902 H 1651.56 -1.45826 0.193197 0
M  V30 17903 H 1653.52 -3.65469 -2.01217 0
M  V30 17904 H 1652.15 -2.51349 -2.02543 0
M  V30 17905 H 1651.2 -3.80394 0.0217507 0
M  V30 17906 H 1652.51 -4.98435 -0.190905 0
M  V30 17907 H 1651.66 -5.53653 -2.48098 0
M  V30 17908 H 1650.4 -4.27931 -2.33937 0
M  V30 17909 H 1649.41 -5.48519 -0.375123 0
M  V30 17910 H 1650.63 -6.76967 -0.537841 0
M  V30 17911 H 1648.58 -6.00242 -2.64662 0
M  V30 17912 H 1648.5 -7.3871 -1.6076 0
M  V30 17913 H 1649.76 -7.27792 -2.79175 0
M  V30 17914 N 1653.99 -0.213323 -1.5615 0
M  V30 17915 C 1655.24 0.421221 -1.98377 0
M  V30 17916 C 1655.57 1.59998 -1.10065 0
M  V30 17917 O 1654.85 1.93869 -0.15654 0
M  V30 17918 C 1655.13 0.86375 -3.49587 0
M  V30 17919 C 1654.98 -0.318077 -4.48674 0
M  V30 17920 C 1656.3 1.72285 -4.04976 0
M  V30 17921 H 1653.42 0.151635 -0.721232 0
M  V30 17922 H 1656.06 -0.307907 -1.87488 0
M  V30 17923 H 1654.21 1.48503 -3.58998 0
M  V30 17924 H 1655.89 -0.956094 -4.51283 0
M  V30 17925 H 1654.13 -0.966881 -4.22888 0
M  V30 17926 H 1654.8 0.0343662 -5.51989 0
M  V30 17927 H 1657.28 1.19872 -3.98459 0
M  V30 17928 H 1656.15 2.0014 -5.11112 0
M  V30 17929 H 1656.41 2.68336 -3.51352 0
M  V30 17930 N 1655.47 1.57485 0.0601405 0
M  V30 17931 C 1656.7 1.91772 0.768565 0
M  V30 17932 C 1657.11 0.808661 1.71048 0
M  V30 17933 O 1656.45 -0.226062 1.82304 0
M  V30 17934 C 1656.52 3.21623 1.6062 0
M  V30 17935 C 1656.18 4.49355 0.832411 0
M  V30 17936 C 1657.18 5.19694 0.146434 0
M  V30 17937 C 1654.86 4.95951 0.796137 0
M  V30 17938 C 1656.86 6.34887 -0.565461 0
M  V30 17939 C 1654.54 6.11047 0.0804763 0
M  V30 17940 C 1655.54 6.80367 -0.599112 0
M  V30 17941 O 1655.23 7.93266 -1.30322 0
M  V30 17942 H 1654.96 0.638161 0.222994 0
M  V30 17943 H 1657.51 2.05376 0.0311569 0
M  V30 17944 H 1655.74 3.0426 2.38668 0
M  V30 17945 H 1657.43 3.41471 2.19436 0
M  V30 17946 H 1658.2 4.84717 0.16569 0
M  V30 17947 H 1654.08 4.4186 1.31457 0
M  V30 17948 H 1657.62 6.88929 -1.09646 0
M  V30 17949 H 1653.52 6.45473 0.0591881 0
M  V30 17950 H 1654.29 8.09452 -1.21369 0
M  V30 17951 N 1656.95 -0.331789 1.54068 0
M  V30 17952 C 1657.88 -1.41332 1.8587 0
M  V30 17953 C 1658.86 -1.54353 0.714787 0
M  V30 17954 O 1660.05 -1.68368 0.967777 0
M  V30 17955 C 1657.18 -2.78218 2.07875 0
M  V30 17956 C 1656.13 -2.79994 3.23709 0
M  V30 17957 C 1655.46 -4.19878 3.31069 0
M  V30 17958 C 1656.76 -2.44476 4.6155 0
M  V30 17959 H 1658.45 -1.14966 2.76447 0
M  V30 17960 H 1656 -0.551615 1.33016 0
M  V30 17961 H 1657.95 -3.53937 2.28706 0
M  V30 17962 H 1656.67 -3.06044 1.14038 0
M  V30 17963 H 1655.33 -2.0673 3.02751 0
M  V30 17964 H 1654.98 -4.44831 2.34807 0
M  V30 17965 H 1654.68 -4.21974 4.08915 0
M  V30 17966 H 1656.2 -4.97421 3.54125 0
M  V30 17967 H 1657.62 -3.09908 4.82317 0
M  V30 17968 H 1656.02 -2.57837 5.41886 0
M  V30 17969 H 1657.09 -1.3964 4.64358 0
M  V30 17970 N 1658.43 -1.46001 -0.593424 0
M  V30 17971 C 1659.39 -1.55347 -1.68523 0
M  V30 17972 C 1660.39 -0.431599 -1.549 0
M  V30 17973 O 1661.58 -0.695559 -1.59711 0
M  V30 17974 C 1658.71 -1.46355 -3.07885 0
M  V30 17975 H 1659.91 -2.52639 -1.61597 0
M  V30 17976 H 1657.46 -1.33652 -0.810363 0
M  V30 17977 H 1658.19 -0.503024 -3.20375 0
M  V30 17978 H 1657.98 -2.27741 -3.19181 0
M  V30 17979 H 1659.47 -1.55958 -3.87385 0
M  V30 17980 N 1659.91 0.83715 -1.33527 0
M  V30 17981 C 1661.15 1.59455 -1.26276 0
M  V30 17982 C 1661.51 1.91652 0.169485 0
M  V30 17983 O 1660.8 1.56028 1.11202 0
M  V30 17984 C 1660.99 2.9113 -2.07312 0
M  V30 17985 C 1660.82 2.71794 -3.58271 0
M  V30 17986 C 1659.59 2.69264 -4.2758 0
M  V30 17987 C 1661.79 2.44309 -4.52568 0
M  V30 17988 N 1659.77 2.41324 -5.64478 0
M  V30 17989 C 1661.14 2.25935 -5.77368 0
M  V30 17990 C 1663.2 2.2992 -4.41635 0
M  V30 17991 C 1661.9 1.94632 -6.92467 0
M  V30 17992 C 1663.93 2.0001 -5.56552 0
M  V30 17993 C 1663.29 1.82449 -6.80361 0
M  V30 17994 H 1659.39 0.586468 -0.517281 0
M  V30 17995 H 1661.97 0.982594 -1.68087 0
M  V30 17996 H 1660.14 3.50273 -1.67819 0
M  V30 17997 H 1661.88 3.56355 -1.91816 0
M  V30 17998 H 1658.63 2.82832 -3.79872 0
M  V30 17999 H 1659.06 2.30233 -6.36649 0
M  V30 18000 H 1663.7 2.42209 -3.46547 0
M  V30 18001 H 1661.42 1.8108 -7.8755 0
M  V30 18002 H 1665 1.89629 -5.50029 0
M  V30 18003 H 1663.88 1.59638 -7.6778 0
M  V30 18004 N 1661.38 1.17024 1.05561 0
M  V30 18005 C 1662.63 0.957742 1.7876 0
M  V30 18006 C 1662.96 -0.512652 1.87311 0
M  V30 18007 O 1662.24 -1.38047 1.37016 0
M  V30 18008 C 1662.52 1.59495 3.22852 0
M  V30 18009 C 1662.37 3.13719 3.22336 0
M  V30 18010 C 1663.69 1.29576 4.20593 0
M  V30 18011 H 1660.81 0.349354 0.648938 0
M  V30 18012 H 1663.45 1.44467 1.23408 0
M  V30 18013 H 1661.6 1.18091 3.70117 0
M  V30 18014 H 1663.28 3.64156 2.83175 0
M  V30 18015 H 1661.52 3.46664 2.60781 0
M  V30 18016 H 1662.19 3.5343 4.24018 0
M  V30 18017 H 1664.67 1.65423 3.81804 0
M  V30 18018 H 1663.54 1.76751 5.19663 0
M  V30 18019 H 1663.8 0.21589 4.41573 0
M  V30 18020 N 1662.86 -1.24221 0.969889 0
M  V30 18021 C 1664.27 -1.74206 0.671494 0
M  V30 18022 C 1664.62 -1.78576 -0.81271 0
M  V30 18023 O 1663.75 -1.41664 -1.63586 0
M  V30 18024 C 1664.34 -3.16371 1.21222 0
M  V30 18025 C 1662.9 -3.63855 0.96368 0
M  V30 18026 C 1662.05 -2.42429 1.34623 0
M  V30 18027 H 1665 -1.09893 1.14496 0
M  V30 18028 H 1665.02 -3.7606 0.579552 0
M  V30 18029 H 1664.53 -3.13159 2.29245 0
M  V30 18030 H 1662.64 -3.72463 -0.100931 0
M  V30 18031 H 1662.75 -4.51207 1.61087 0
M  V30 18032 H 1661.11 -2.42952 0.764624 0
M  V30 18033 H 1661.9 -2.41896 2.436 0
M  V30 18034 N 1664.34 -0.740267 -1.39132 0
M  V30 18035 C 1665.3 -0.112183 -2.28925 0
M  V30 18036 C 1666.3 0.661598 -1.46559 0
M  V30 18037 O 1667.49 0.489835 -1.67171 0
M  V30 18038 C 1664.63 0.850121 -3.3013 0
M  V30 18039 H 1665.82 -0.903339 -2.85972 0
M  V30 18040 H 1663.37 -0.506427 -1.47868 0
M  V30 18041 H 1664.11 1.66744 -2.78149 0
M  V30 18042 H 1663.89 0.297847 -3.90967 0
M  V30 18043 H 1665.38 1.28599 -3.97306 0
M  V30 18044 N 1665.82 1.49844 -0.488302 0
M  V30 18045 C 1666.77 2.25802 0.315853 0
M  V30 18046 C 1667.75 1.30108 0.946606 0
M  V30 18047 O 1668.94 1.54908 0.856306 0
M  V30 18048 C 1666.07 3.14024 1.38723 0
M  V30 18049 C 1665.16 4.17174 0.763348 0
M  V30 18050 N 1665.55 5.05642 -0.126544 0
M  V30 18051 C 1663.85 4.34053 1.02537 0
M  V30 18052 C 1664.55 5.79696 -0.482379 0
M  V30 18053 N 1663.53 5.43402 0.146639 0
M  V30 18054 H 1667.33 2.91569 -0.369397 0
M  V30 18055 H 1664.84 1.59538 -0.30355 0
M  V30 18056 H 1666.84 3.67061 1.97666 0
M  V30 18057 H 1665.5 2.49807 2.07429 0
M  V30 18058 H 1666.51 5.15514 -0.49653 0
M  V30 18059 H 1663.19 3.81048 1.70613 0
M  V30 18060 H 1664.58 6.60921 -1.20965 0
M  V30 18061 N 1667.3 0.221601 1.56034 0
M  V30 18062 C 1668.24 -0.688502 2.20291 0
M  V30 18063 C 1669.21 -1.19028 1.15851 0
M  V30 18064 O 1670.4 -1.24936 1.44206 0
M  V30 18065 C 1667.54 -1.89101 2.88678 0
M  V30 18066 C 1666.65 -1.42812 4.07711 0
M  V30 18067 C 1665.79 -2.5882 4.63881 0
M  V30 18068 C 1664.83 -2.09268 5.75216 0
M  V30 18069 N 1663.96 -3.18549 6.25676 0
M  V30 18070 H 1668.8 -0.133824 2.97699 0
M  V30 18071 H 1666.34 -0.0543007 1.47 0
M  V30 18072 H 1668.3 -2.59704 3.26512 0
M  V30 18073 H 1666.93 -2.41857 2.13788 0
M  V30 18074 H 1665.98 -0.617019 3.75363 0
M  V30 18075 H 1667.29 -1.02478 4.8816 0
M  V30 18076 H 1666.45 -3.37505 5.04158 0
M  V30 18077 H 1665.18 -3.02443 3.82596 0
M  V30 18078 H 1664.19 -1.29045 5.34441 0
M  V30 18079 H 1665.41 -1.66645 6.58336 0
M  V30 18080 H 1663.36 -3.61653 5.47305 0
M  V30 18081 H 1663.28 -2.82466 7.01248 0
M  V30 18082 H 1664.55 -3.97369 6.7061 0
M  V30 18083 N 1668.77 -1.57515 -0.0517878 0
M  V30 18084 C 1670.02 -1.87843 -0.745624 0
M  V30 18085 C 1670.34 -0.816318 -1.77091 0
M  V30 18086 O 1669.61 0.152784 -1.95303 0
M  V30 18087 H 1668.19 -0.693194 -0.278372 0
M  V30 18088 H 1670.86 -1.94886 -0.0231267 0
M  V30 18089 H 1669.95 -2.86001 -1.2494 0
M  V30 18090 N 1670.25 0.323614 -1.54242 0
M  V30 18091 C 1671.5 1.05909 -1.71657 0
M  V30 18092 C 1671.82 1.89177 -0.497151 0
M  V30 18093 O 1673.02 2.65816 -0.552649 0
M  V30 18094 C 1671.48 1.93246 -3.03618 0
M  V30 18095 C 1671.09 1.1509 -4.32965 0
M  V30 18096 C 1672.83 2.6653 -3.30397 0
M  V30 18097 C 1670.74 2.01573 -5.55988 0
M  V30 18098 H 1669.67 0.399114 -0.639706 0
M  V30 18099 H 1672.32 0.317338 -1.80735 0
M  V30 18100 H 1670.7 2.71319 -2.88447 0
M  V30 18101 H 1671.87 0.417877 -4.58901 0
M  V30 18102 H 1670.19 0.534882 -4.1295 0
M  V30 18103 H 1672.79 3.31542 -4.19504 0
M  V30 18104 H 1673.13 3.34164 -2.48274 0
M  V30 18105 H 1673.66 1.95518 -3.46435 0
M  V30 18106 H 1670.4 1.38446 -6.40713 0
M  V30 18107 H 1669.92 2.72609 -5.3427 0
M  V30 18108 H 1671.6 2.60159 -5.9239 0
M  V30 18109 N 1671.73 1.46313 0.585673 0
M  V30 18110 C 1672.98 1.51171 1.34134 0
M  V30 18111 C 1673.3 0.163691 1.94312 0
M  V30 18112 O 1672.57 -0.809444 1.78395 0
M  V30 18113 H 1671.15 0.556768 0.498014 0
M  V30 18114 H 1673.81 1.82423 0.686133 0
M  V30 18115 H 1672.91 2.26274 2.14957 0
M  V30 18116 N 1673.21 -0.830057 1.33969 0
M  V30 18117 C 1674.46 -1.58272 1.25675 0
M  V30 18118 C 1674.78 -1.94213 -0.175071 0
M  V30 18119 O 1674.05 -1.61694 -1.10597 0
M  V30 18120 H 1672.63 -0.586858 0.462176 0
M  V30 18121 H 1675.29 -0.991495 1.67796 0
M  V30 18122 H 1674.39 -2.50874 1.85658 0
M  V30 18123 N 1674.69 -1.17582 -1.04939 0
M  V30 18124 C 1675.64 -0.891102 -2.14854 0
M  V30 18125 C 1676.63 0.145242 -1.68776 0
M  V30 18126 O 1677.84 -0.00207978 -1.8 0
M  V30 18127 H 1674.21 -0.270641 -0.701611 0
M  V30 18128 H 1676.18 -1.82519 -2.36071 0
M  V30 18129 C 1674.93 -0.423679 -3.45109 0
M  V30 18130 H 1674.25 -1.2126 -3.80967 0
M  V30 18131 H 1675.69 -0.263369 -4.23181 0
M  V30 18132 C 1674.15 0.859085 -3.25763 0
M  V30 18133 O 1674.68 1.9253 -3.52555 0
M  V30 18134 N 1672.89 0.80824 -2.79134 0
M  V30 18135 H 1672.44 -0.0596431 -2.57531 0
M  V30 18136 H 1672.39 1.66697 -2.6657 0
M  V30 18137 N 1676.17 1.23705 -0.976463 0
M  V30 18138 C 1677.08 2.28728 -0.521605 0
M  V30 18139 C 1678.09 1.68813 0.421691 0
M  V30 18140 O 1679.27 1.99263 0.292579 0
M  V30 18141 C 1676.33 3.4627 0.172545 0
M  V30 18142 C 1675.39 4.21557 -0.811664 0
M  V30 18143 C 1674.63 5.33488 -0.150546 0
M  V30 18144 O 1674.85 5.60478 1.05926 0
M  V30 18145 O 1673.78 5.95909 -0.847132 0
M  V30 18146 H 1677.61 2.6977 -1.39491 0
M  V30 18147 H 1675.19 1.29562 -0.743909 0
M  V30 18148 H 1677.08 4.17634 0.562103 0
M  V30 18149 H 1675.75 3.07187 1.02067 0
M  V30 18150 H 1674.66 3.52533 -1.25185 0
M  V30 18151 H 1675.99 4.6448 -1.62848 0
M  V30 18152 N 1677.64 0.747635 1.38738 0
M  V30 18153 C 1678.58 0.0762364 2.29073 0
M  V30 18154 C 1679.59 -0.690087 1.4745 0
M  V30 18155 O 1680.78 -0.53216 1.70383 0
M  V30 18156 C 1677.88 -0.916136 3.26282 0
M  V30 18157 C 1677.05 -0.2087 4.36902 0
M  V30 18158 C 1676.11 -1.11097 5.14338 0
M  V30 18159 O 1675.14 -0.583722 5.66199 0
M  V30 18160 N 1676.34 -2.43961 5.26748 0
M  V30 18161 H 1679.1 0.852024 2.87334 0
M  V30 18162 H 1676.66 0.597915 1.50455 0
M  V30 18163 H 1678.66 -1.52263 3.74964 0
M  V30 18164 H 1677.23 -1.59304 2.68963 0
M  V30 18165 H 1676.45 0.578435 3.89933 0
M  V30 18166 H 1677.73 0.281061 5.08023 0
M  V30 18167 H 1677.13 -2.89259 4.86154 0
M  V30 18168 H 1675.69 -2.99676 5.78824 0
M  V30 18169 N 1679.12 -1.49583 0.496242 0
M  V30 18170 C 1680.37 -2.02738 -0.050037 0
M  V30 18171 C 1680.7 -1.37556 -1.37083 0
M  V30 18172 O 1679.98 -0.50964 -1.87704 0
M  V30 18173 C 1680.26 -3.59501 -0.207575 0
M  V30 18174 C 1680.11 -4.35218 1.13601 0
M  V30 18175 C 1681.43 -4.29715 -0.950443 0
M  V30 18176 H 1678.55 -0.736811 -0.0167105 0
M  V30 18177 H 1681.19 -1.78654 0.646728 0
M  V30 18178 H 1679.34 -3.80152 -0.801033 0
M  V30 18179 H 1681.01 -4.26075 1.76798 0
M  V30 18180 H 1679.26 -3.97964 1.72648 0
M  V30 18181 H 1679.93 -5.43247 0.979142 0
M  V30 18182 H 1682.4 -4.1369 -0.447173 0
M  V30 18183 H 1681.28 -5.39159 -1.02951 0
M  V30 18184 H 1681.54 -3.94627 -1.99304 0
M  V30 18185 N 1680.6 -0.229873 -1.55915 0
M  V30 18186 C 1681.88 0.449007 -1.90377 0
M  V30 18187 C 1682.26 1.77133 -1.14835 0
M  V30 18188 O 1681.6 2.27012 -0.260328 0
M  V30 18189 C 1681.81 0.633805 -3.43197 0
M  V30 18190 C 1683.16 0.937453 -4.14122 0
M  V30 18191 O 1684.19 0.72029 -3.48841 0
M  V30 18192 O 1683.05 1.35005 -5.29562 0
M  V30 18193 H 1680.14 0.238557 -0.791846 0
M  V30 18194 H 1682.69 -0.272676 -1.67495 0
M  V30 18195 H 1681.46 -0.298587 -3.90159 0
M  V30 18196 H 1681.08 1.40667 -3.71885 0
M  V30 18197 N 1682.08 1.5754 0.0434337 0
M  V30 18198 C 1683.02 2.0561 1.04848 0
M  V30 18199 C 1683.99 0.942299 1.36784 0
M  V30 18200 O 1685.18 1.21191 1.47368 0
M  V30 18201 C 1682.32 2.52844 2.3487 0
M  V30 18202 C 1681.43 3.77958 2.09218 0
M  V30 18203 C 1680.57 4.13859 3.33007 0
M  V30 18204 C 1679.61 5.31932 3.02845 0
M  V30 18205 N 1678.74 5.63335 4.19045 0
M  V30 18206 H 1683.58 2.9123 0.631591 0
M  V30 18207 H 1681.12 1.44003 0.300258 0
M  V30 18208 H 1683.08 2.78291 3.10822 0
M  V30 18209 H 1681.71 1.70161 2.74308 0
M  V30 18210 H 1680.76 3.59681 1.23828 0
M  V30 18211 H 1682.07 4.64034 1.82958 0
M  V30 18212 H 1681.23 4.40358 4.17336 0
M  V30 18213 H 1679.97 3.26406 3.62368 0
M  V30 18214 H 1678.97 5.052 2.16916 0
M  V30 18215 H 1680.2 6.21027 2.74777 0
M  V30 18216 H 1678.14 4.7884 4.48384 0
M  V30 18217 H 1678.06 6.4389 3.96158 0
M  V30 18218 H 1679.33 5.94402 5.04289 0
M  V30 18219 N 1683.56 -0.31543 1.54411 0
M  V30 18220 C 1684.49 -1.39353 1.87358 0
M  V30 18221 C 1685.47 -1.53586 0.731118 0
M  V30 18222 O 1686.65 -1.67332 0.98558 0
M  V30 18223 C 1683.78 -2.75998 2.10814 0
M  V30 18224 C 1682.74 -2.76545 3.2666 0
M  V30 18225 C 1682.06 -4.16343 3.35504 0
M  V30 18226 C 1683.36 -2.39567 4.64117 0
M  V30 18227 H 1685.06 -1.12028 2.77651 0
M  V30 18228 H 1682.6 -0.537476 1.33593 0
M  V30 18229 H 1684.55 -3.51491 2.32447 0
M  V30 18230 H 1683.28 -3.04817 1.17278 0
M  V30 18231 H 1681.94 -2.03507 3.04927 0
M  V30 18232 H 1681.59 -4.42316 2.39512 0
M  V30 18233 H 1681.29 -4.17613 4.13368 0
M  V30 18234 H 1682.81 -4.93637 3.59381 0
M  V30 18235 H 1684.22 -3.04775 4.85577 0
M  V30 18236 H 1682.62 -2.52075 5.4459 0
M  V30 18237 H 1683.69 -1.34707 4.65813 0
M  V30 18238 N 1685.03 -1.46622 -0.577906 0
M  V30 18239 C 1686.28 -1.52406 -1.33792 0
M  V30 18240 C 1686.61 -0.177147 -1.9339 0
M  V30 18241 O 1685.89 0.81197 -1.76741 0
M  V30 18242 C 1686.17 -2.62633 -2.46366 0
M  V30 18243 C 1686.02 -4.06871 -1.91771 0
M  V30 18244 C 1687.34 -2.68909 -3.4839 0
M  V30 18245 H 1684.46 -0.554833 -0.485107 0
M  V30 18246 H 1687.1 -1.78582 -0.648739 0
M  V30 18247 H 1685.25 -2.40444 -3.05154 0
M  V30 18248 H 1686.93 -4.40361 -1.37403 0
M  V30 18249 H 1685.17 -4.16124 -1.2257 0
M  V30 18250 H 1685.84 -4.79734 -2.73056 0
M  V30 18251 H 1688.32 -2.88868 -2.9949 0
M  V30 18252 H 1687.19 -3.47846 -4.24611 0
M  V30 18253 H 1687.45 -1.75148 -4.05925 0
M  V30 18254 N 1686.51 0.822941 -1.34408 0
M  V30 18255 C 1687.74 1.61607 -1.29992 0
M  V30 18256 C 1688.16 1.87695 0.123301 0
M  V30 18257 O 1687.52 1.45247 1.08504 0
M  V30 18258 C 1687.57 2.934 -2.09639 0
M  V30 18259 O 1686.67 3.85467 -1.4659 0
M  V30 18260 H 1686.01 0.491504 -0.446452 0
M  V30 18261 H 1688.54 1.02264 -1.7721 0
M  V30 18262 H 1688.55 3.42966 -2.20994 0
M  V30 18263 H 1687.23 2.73736 -3.13116 0
M  V30 18264 H 1685.81 3.43984 -1.43978 0
M  V30 18265 N 1687.99 1.18137 1.04314 0
M  V30 18266 C 1688.95 0.908268 2.10436 0
M  V30 18267 C 1689.95 -0.105315 1.60455 0
M  V30 18268 O 1691.14 0.12785 1.7373 0
M  V30 18269 C 1688.28 0.362233 3.3897 0
M  V30 18270 H 1689.47 1.84928 2.36096 0
M  V30 18271 H 1687.02 0.993048 1.20699 0
M  V30 18272 H 1687.76 -0.58551 3.18971 0
M  V30 18273 H 1687.54 1.09285 3.76562 0
M  V30 18274 H 1689.03 0.18977 4.17169 0
M  V30 18275 N 1689.47 -1.23186 0.98301 0
M  V30 18276 C 1690.72 -1.91292 0.652051 0
M  V30 18277 C 1691.04 -1.77046 -0.8173 0
M  V30 18278 O 1690.31 -1.15146 -1.58487 0
M  V30 18279 H 1688.89 -0.708011 0.23818 0
M  V30 18280 H 1691.55 -1.49754 1.24739 0
M  V30 18281 H 1690.65 -2.98662 0.905951 0
M  V30 18282 N 1690.95 -0.754982 -1.38339 0
M  V30 18283 C 1692.2 -0.308537 -1.99326 0
M  V30 18284 C 1692.51 1.1164 -1.60611 0
M  V30 18285 O 1693.71 1.66339 -2.14578 0
M  V30 18286 C 1692.17 -0.500688 -3.564 0
M  V30 18287 C 1691.78 -1.9348 -4.04066 0
M  V30 18288 C 1693.52 -0.117026 -4.24339 0
M  V30 18289 C 1691.43 -2.07544 -5.53786 0
M  V30 18290 H 1690.36 -0.111611 -0.745694 0
M  V30 18291 H 1693.01 -0.931722 -1.58086 0
M  V30 18292 H 1691.39 0.191702 -3.95536 0
M  V30 18293 H 1692.57 -2.66077 -3.76217 0
M  V30 18294 H 1690.88 -2.27351 -3.48856 0
M  V30 18295 H 1693.48 -0.200847 -5.34323 0
M  V30 18296 H 1693.82 0.930531 -4.05767 0
M  V30 18297 H 1694.35 -0.761323 -3.90447 0
M  V30 18298 H 1691.09 -3.10559 -5.77264 0
M  V30 18299 H 1690.61 -1.39409 -5.83374 0
M  V30 18300 H 1692.29 -1.86605 -6.19506 0
M  V30 18301 N 1692.42 1.49318 -0.504168 0
M  V30 18302 C 1693.84 1.58793 -0.160331 0
M  V30 18303 C 1694.04 1.50906 1.33527 0
M  V30 18304 O 1693.1 1.38466 2.11148 0
M  V30 18305 C 1694.41 2.91454 -0.739945 0
M  V30 18306 C 1695.96 3.04926 -0.706338 0
M  V30 18307 C 1696.43 4.4021 -1.26407 0
M  V30 18308 N 1697.92 4.46711 -1.22491 0
M  V30 18309 C 1698.66 5.49844 -1.62661 0
M  V30 18310 N 1698.15 6.60066 -2.10439 0
M  V30 18311 N 1699.95 5.40576 -1.54058 0
M  V30 18312 H 1692.1 1.52687 -1.4765 0
M  V30 18313 H 1694.36 0.723463 -0.612622 0
M  V30 18314 H 1694.07 3.02802 -1.78896 0
M  V30 18315 H 1693.94 3.76658 -0.202187 0
M  V30 18316 H 1696.33 2.93206 0.333845 0
M  V30 18317 H 1696.41 2.21398 -1.28128 0
M  V30 18318 H 1696.05 4.52683 -2.30305 0
M  V30 18319 H 1695.98 5.22384 -0.665041 0
M  V30 18320 H 1698.47 3.67634 -0.874869 0
M  V30 18321 H 1698.79 7.34865 -2.39153 0
M  V30 18322 H 1697.13 6.61098 -2.14415 0
M  V30 18323 H 1700.32 4.53359 -1.16548 0
M  V30 18324 H 1700.5 6.20826 -1.85687 0
M  V30 18325 N 1693.9 0.238138 1.5579 0
M  V30 18326 C 1694.85 -0.665098 2.21009 0
M  V30 18327 C 1695.82 -1.17793 1.17107 0
M  V30 18328 O 1697 -1.234 1.45523 0
M  V30 18329 C 1694.14 -1.86028 2.90667 0
M  V30 18330 C 1693.26 -1.3848 4.09203 0
M  V30 18331 C 1692.39 -2.53885 4.666 0
M  V30 18332 C 1691.43 -2.03155 5.77403 0
M  V30 18333 N 1690.57 -3.11895 6.2902 0
M  V30 18334 H 1695.41 -0.102242 2.97825 0
M  V30 18335 H 1692.95 -0.0387064 1.47049 0
M  V30 18336 H 1694.9 -2.56226 3.29248 0
M  V30 18337 H 1693.53 -2.39575 2.16341 0
M  V30 18338 H 1692.59 -0.577172 3.75996 0
M  V30 18339 H 1693.9 -0.972946 4.89219 0
M  V30 18340 H 1693.05 -3.32139 5.07709 0
M  V30 18341 H 1691.79 -2.98368 3.85782 0
M  V30 18342 H 1690.8 -1.23369 5.3578 0
M  V30 18343 H 1692.02 -1.59653 6.60067 0
M  V30 18344 H 1689.97 -3.55828 5.5111 0
M  V30 18345 H 1689.88 -2.75013 7.04204 0
M  V30 18346 H 1691.15 -3.90234 6.74787 0
M  V30 18347 N 1695.38 -1.57561 -0.0350783 0
M  V30 18348 C 1696.63 -1.89276 -0.728172 0
M  V30 18349 C 1696.96 -0.835137 -1.75326 0
M  V30 18350 O 1696.23 0.150516 -1.93917 0
M  V30 18351 C 1696.52 -3.31638 -1.40316 0
M  V30 18352 C 1696.37 -4.48089 -0.391996 0
M  V30 18353 C 1697.69 -3.72816 -2.33872 0
M  V30 18354 H 1694.81 -0.688381 -0.26325 0
M  V30 18355 H 1697.45 -1.89998 0.00900661 0
M  V30 18356 H 1695.6 -3.31153 -2.0315 0
M  V30 18357 H 1697.27 -4.60706 0.233965 0
M  V30 18358 H 1695.52 -4.32834 0.289305 0
M  V30 18359 H 1696.19 -5.4457 -0.902641 0
M  V30 18360 H 1698.66 -3.74629 -1.81086 0
M  V30 18361 H 1697.54 -4.73245 -2.78084 0
M  V30 18362 H 1697.8 -3.04744 -3.20287 0
M  V30 18363 N 1696.86 0.307236 -1.54576 0
M  V30 18364 C 1697.79 1.38357 -1.88095 0
M  V30 18365 C 1698.77 1.53196 -0.739253 0
M  V30 18366 O 1699.95 1.66807 -0.99444 0
M  V30 18367 C 1697.08 2.74876 -2.12274 0
M  V30 18368 C 1696.04 2.74809 -3.28122 0
M  V30 18369 C 1695.36 4.14557 -3.37707 0
M  V30 18370 C 1696.66 2.37103 -4.65381 0
M  V30 18371 H 1698.36 1.10554 -2.78241 0
M  V30 18372 H 1695.9 0.530383 -1.33877 0
M  V30 18373 H 1697.86 3.50254 -2.34308 0
M  V30 18374 H 1696.58 3.04191 -1.18893 0
M  V30 18375 H 1695.24 2.01887 -3.06002 0
M  V30 18376 H 1694.89 4.41039 -2.41854 0
M  V30 18377 H 1694.59 4.15415 -4.15577 0
M  V30 18378 H 1696.11 4.91724 -3.61994 0
M  V30 18379 H 1697.53 3.02196 -4.87186 0
M  V30 18380 H 1695.92 2.49184 -5.45919 0
M  V30 18381 H 1696.99 1.32235 -4.66521 0
M  V30 18382 N 1698.34 1.46926 0.570122 0
M  V30 18383 C 1699.58 1.52887 1.32785 0
M  V30 18384 C 1699.91 0.185754 1.93611 0
M  V30 18385 O 1699.17 -0.819995 1.77692 0
M  V30 18386 C 1699.47 2.58527 2.46776 0
M  V30 18387 C 1699.13 4.02182 2.03863 0
M  V30 18388 C 1697.79 4.4129 1.91876 0
M  V30 18389 C 1700.15 4.92373 1.70935 0
M  V30 18390 C 1697.47 5.6844 1.45235 0
M  V30 18391 C 1699.83 6.19972 1.25769 0
M  V30 18392 C 1698.49 6.57974 1.12368 0
M  V30 18393 H 1697.76 0.559453 0.485895 0
M  V30 18394 H 1700.41 1.80464 0.640698 0
M  V30 18395 H 1698.71 2.24658 3.20992 0
M  V30 18396 H 1700.41 2.60365 3.04977 0
M  V30 18397 H 1697 3.71275 2.14132 0
M  V30 18398 H 1701.18 4.62867 1.79075 0
M  V30 18399 H 1696.44 5.96644 1.33513 0
M  V30 18400 H 1700.61 6.89277 0.993475 0
M  V30 18401 H 1698.24 7.56391 0.760046 0
M  V30 18402 N 1699.82 -0.815801 1.34842 0
M  V30 18403 C 1700.75 -1.94193 1.29659 0
M  V30 18404 C 1701.73 -1.69221 0.172703 0
M  V30 18405 O 1702.91 -1.90716 0.366203 0
M  V30 18406 C 1700.04 -3.30777 1.0585 0
M  V30 18407 C 1699 -3.70207 2.1478 0
M  V30 18408 C 1698.32 -5.04852 1.76149 0
M  V30 18409 C 1699.62 -3.81553 3.56671 0
M  V30 18410 H 1701.32 -1.98787 2.23884 0
M  V30 18411 H 1698.86 -0.955013 1.07775 0
M  V30 18412 H 1700.81 -4.0915 1.00866 0
M  V30 18413 H 1699.54 -3.265 0.0806804 0
M  V30 18414 H 1698.2 -2.94113 2.18845 0
M  V30 18415 H 1697.85 -4.9707 0.770099 0
M  V30 18416 H 1697.55 -5.32205 2.49062 0
M  V30 18417 H 1699.07 -5.85676 1.72674 0
M  V30 18418 H 1700.48 -4.50181 3.54979 0
M  V30 18419 H 1698.88 -4.20367 4.28266 0
M  V30 18420 H 1699.95 -2.83356 3.93494 0
M  V30 18421 N 1701.29 -1.18689 -1.03686 0
M  V30 18422 C 1702.24 -0.91384 -2.13897 0
M  V30 18423 C 1703.24 0.127333 -1.68921 0
M  V30 18424 O 1704.44 -0.0211711 -1.79988 0
M  V30 18425 H 1700.82 -0.278067 -0.698701 0
M  V30 18426 H 1702.79 -1.85013 -2.34122 0
M  V30 18427 C 1701.54 -0.460259 -3.4464 0
M  V30 18428 H 1700.86 -1.25294 -3.7966 0
M  V30 18429 H 1702.3 -0.308239 -4.22878 0
M  V30 18430 C 1700.76 0.824485 -3.26656 0
M  V30 18431 O 1701.29 1.8878 -3.54577 0
M  V30 18432 N 1699.49 0.778588 -2.79976 0
M  V30 18433 H 1699.04 -0.0869543 -2.57453 0
M  V30 18434 H 1699 1.6386 -2.68323 0
M  V30 18435 N 1702.77 1.22662 -0.989529 0
M  V30 18436 C 1704.02 1.90944 -0.662187 0
M  V30 18437 C 1704.34 1.77477 0.807899 0
M  V30 18438 O 1703.61 1.15985 1.57874 0
M  V30 18439 H 1702.19 0.706738 -0.241932 0
M  V30 18440 H 1704.85 1.49091 -1.25531 0
M  V30 18441 H 1703.95 2.98177 -0.921777 0
M  V30 18442 N 1704.25 0.762308 1.37937 0
M  V30 18443 C 1705.5 0.319104 1.9916 0
M  V30 18444 C 1705.81 -1.10787 1.61201 0
M  V30 18445 O 1707.02 -1.65198 2.15457 0
M  V30 18446 C 1705.47 0.519582 3.5613 0
M  V30 18447 C 1705.08 1.9562 4.03034 0
M  V30 18448 C 1706.83 0.139528 4.24271 0
M  V30 18449 C 1704.73 2.10478 5.52678 0
M  V30 18450 H 1703.66 0.115564 0.745091 0
M  V30 18451 H 1706.31 0.940092 1.5759 0
M  V30 18452 H 1704.7 -0.170724 3.95632 0
M  V30 18453 H 1705.87 2.68069 3.74801 0
M  V30 18454 H 1704.18 2.29197 3.47646 0
M  V30 18455 H 1706.78 0.22918 5.34209 0
M  V30 18456 H 1707.12 -0.908999 4.06255 0
M  V30 18457 H 1707.66 0.782019 3.90038 0
M  V30 18458 H 1704.4 3.13616 5.75609 0
M  V30 18459 H 1703.92 1.42501 5.82626 0
M  V30 18460 H 1705.6 1.89887 6.18508 0
M  V30 18461 N 1705.73 -1.49049 0.51208 0
M  V30 18462 C 1707 -1.95383 -0.0920331 0
M  V30 18463 C 1707.38 -1.4539 -1.53053 0
M  V30 18464 O 1706.73 -0.672485 -2.1838 0
M  V30 18465 C 1706.94 -3.48999 0.00673901 0
M  V30 18466 C 1708.29 -4.24292 -0.161602 0
M  V30 18467 O 1709.31 -3.56135 -0.0679198 0
M  V30 18468 O 1708.17 -5.45343 -0.355351 0
M  V30 18469 H 1705.27 -0.822175 -0.0891992 0
M  V30 18470 H 1707.81 -1.59647 0.575406 0
M  V30 18471 H 1706.59 -3.78055 1.00948 0
M  V30 18472 H 1706.21 -3.91383 -0.700353 0
M  V30 18473 N 1707.21 -0.246397 -1.55662 0
M  V30 18474 C 1708.15 0.653368 -2.21359 0
M  V30 18475 C 1709.12 1.1717 -1.1773 0
M  V30 18476 O 1710.31 1.22626 -1.46176 0
M  V30 18477 C 1707.45 1.84484 -2.9165 0
M  V30 18478 C 1706.56 1.36308 -4.09932 0
M  V30 18479 C 1705.7 2.51407 -4.6794 0
M  V30 18480 C 1704.73 2.0009 -5.78472 0
M  V30 18481 N 1703.87 3.08555 -6.30665 0
M  V30 18482 H 1708.71 0.0864458 -2.97875 0
M  V30 18483 H 1706.25 0.0309074 -1.47068 0
M  V30 18484 H 1708.21 2.54476 -3.30602 0
M  V30 18485 H 1706.84 2.38425 -2.17609 0
M  V30 18486 H 1705.89 0.557224 -3.76297 0
M  V30 18487 H 1707.2 0.946988 -4.89728 0
M  V30 18488 H 1706.35 3.29442 -5.09463 0
M  V30 18489 H 1705.09 2.96318 -3.87359 0
M  V30 18490 H 1704.1 1.20526 -5.36427 0
M  V30 18491 H 1705.32 1.5615 -6.60904 0
M  V30 18492 H 1703.27 3.529 -5.52989 0
M  V30 18493 H 1703.19 2.71274 -7.05653 0
M  V30 18494 H 1704.45 3.8665 -6.76847 0
M  V30 18495 N 1708.68 1.57577 0.026722 0
M  V30 18496 C 1709.65 2.05684 1.01127 0
M  V30 18497 C 1710.65 0.961373 1.28896 0
M  V30 18498 O 1711.84 1.22491 1.23861 0
M  V30 18499 C 1708.97 2.47576 2.34348 0
M  V30 18500 H 1710.16 2.93925 0.595681 0
M  V30 18501 H 1707.71 1.53887 0.273603 0
M  V30 18502 H 1708.45 1.62498 2.80651 0
M  V30 18503 H 1708.23 3.27556 2.15521 0
M  V30 18504 H 1709.72 2.85214 3.05029 0
M  V30 18505 N 1710.16 -0.299034 1.54737 0
M  V30 18506 C 1711.09 -1.39055 1.82199 0
M  V30 18507 C 1712.11 -1.46741 0.705038 0
M  V30 18508 O 1713.3 -1.49025 0.982543 0
M  V30 18509 C 1710.4 -2.7741 1.94671 0
M  V30 18510 C 1709.57 -2.92633 3.25092 0
M  V30 18511 C 1708.63 -4.11499 3.27956 0
M  V30 18512 O 1707.65 -4.03491 4.01477 0
M  V30 18513 N 1708.86 -5.2223 2.53488 0
M  V30 18514 H 1711.62 -1.15852 2.76402 0
M  V30 18515 H 1709.18 -0.489108 1.54335 0
M  V30 18516 H 1711.17 -3.55178 1.93987 0
M  V30 18517 H 1709.74 -2.93552 1.07453 0
M  V30 18518 H 1708.96 -2.01962 3.38534 0
M  V30 18519 H 1710.25 -2.99716 4.11154 0
M  V30 18520 H 1709.65 -5.31617 1.93391 0
M  V30 18521 H 1708.21 -5.98325 2.58555 0
M  V30 18522 N 1711.64 -1.47227 -0.562322 0
M  V30 18523 C 1712.55 -1.61953 -1.69731 0
M  V30 18524 C 1713.57 -0.502478 -1.66587 0
M  V30 18525 O 1714.74 -0.769335 -1.86127 0
M  V30 18526 C 1711.81 -1.62539 -3.06238 0
M  V30 18527 C 1710.87 -2.85632 -3.20489 0
M  V30 18528 C 1710.1 -2.86181 -4.50485 0
M  V30 18529 O 1710.32 -1.96099 -5.35632 0
M  V30 18530 O 1709.26 -3.7798 -4.68417 0
M  V30 18531 H 1713.08 -2.5798 -1.6025 0
M  V30 18532 H 1710.67 -1.30253 -0.73174 0
M  V30 18533 H 1712.55 -1.65634 -3.87483 0
M  V30 18534 H 1711.23 -0.696779 -3.16112 0
M  V30 18535 H 1710.13 -2.88084 -2.3866 0
M  V30 18536 H 1711.47 -3.7777 -3.15517 0
M  V30 18537 N 1713.12 0.808639 -1.35273 0
M  V30 18538 C 1714.03 1.95198 -1.30134 0
M  V30 18539 C 1715.04 1.72769 -0.206587 0
M  V30 18540 O 1716.22 1.96633 -0.4356 0
M  V30 18541 C 1713.28 3.29747 -1.07087 0
M  V30 18542 C 1712.35 3.65086 -2.25855 0
M  V30 18543 C 1711.58 4.93215 -2.03898 0
M  V30 18544 O 1711.8 5.61487 -1.00439 0
M  V30 18545 O 1710.74 5.26765 -2.91208 0
M  V30 18546 H 1714.56 2.0248 -2.26353 0
M  V30 18547 H 1712.15 0.946124 -1.15624 0
M  V30 18548 H 1714.03 4.10302 -0.960734 0
M  V30 18549 H 1712.7 3.23401 -0.139177 0
M  V30 18550 H 1711.61 2.84917 -2.42432 0
M  V30 18551 H 1712.94 3.76135 -3.17464 0
M  V30 18552 N 1714.6 1.19237 1.03055 0
M  V30 18553 C 1715.55 0.896404 2.09639 0
M  V30 18554 C 1716.53 -0.138099 1.60306 0
M  V30 18555 O 1717.72 0.0673592 1.76872 0
M  V30 18556 C 1714.85 0.435042 3.40532 0
M  V30 18557 C 1713.94 1.50219 3.96604 0
M  V30 18558 N 1714.33 2.72121 4.26361 0
M  V30 18559 C 1712.63 1.36509 4.24596 0
M  V30 18560 C 1713.33 3.40853 4.71374 0
M  V30 18561 N 1712.3 2.68246 4.72806 0
M  V30 18562 H 1716.11 1.82292 2.30536 0
M  V30 18563 H 1713.62 1.08428 1.20901 0
M  V30 18564 H 1715.62 0.204471 4.16398 0
M  V30 18565 H 1714.28 -0.485016 3.21057 0
M  V30 18566 H 1715.29 3.08899 4.15694 0
M  V30 18567 H 1711.96 0.508358 4.14394 0
M  V30 18568 H 1713.35 4.4509 5.03333 0
M  V30 18569 N 1716.07 -1.22136 0.99602 0
M  V30 18570 C 1716.98 -2.27869 0.557927 0
M  V30 18571 C 1718 -1.69462 -0.394781 0
M  V30 18572 O 1719.18 -1.99704 -0.26084 0
M  V30 18573 C 1716.24 -3.46501 -0.117434 0
M  V30 18574 C 1715.3 -4.20213 0.878627 0
M  V30 18575 C 1714.54 -5.33181 0.2354 0
M  V30 18576 O 1714.76 -5.62093 -0.969954 0
M  V30 18577 O 1713.69 -5.94486 0.941828 0
M  V30 18578 H 1717.52 -2.67517 1.43765 0
M  V30 18579 H 1715.1 -1.28362 0.764428 0
M  V30 18580 H 1716.99 -4.18476 -0.49559 0
M  V30 18581 H 1715.66 -3.08772 -0.971674 0
M  V30 18582 H 1714.57 -3.50497 1.30777 0
M  V30 18583 H 1715.9 -4.6183 1.70217 0
M  V30 18584 N 1717.55 -0.769612 -1.37531 0
M  V30 18585 C 1718.5 -0.152627 -2.30295 0
M  V30 18586 C 1719.47 0.692154 -1.50992 0
M  V30 18587 O 1720.65 0.64496 -1.79569 0
M  V30 18588 C 1717.79 0.72217 -3.37459 0
M  V30 18589 C 1716.91 -0.138985 -4.31776 0
M  V30 18590 C 1716.04 0.740317 -5.26016 0
M  V30 18591 C 1715.08 -0.1235 -6.11975 0
M  V30 18592 N 1714.22 0.713658 -6.98464 0
M  V30 18593 H 1719.06 -0.949218 -2.82478 0
M  V30 18594 H 1716.6 -0.479697 -1.39059 0
M  V30 18595 H 1718.55 1.24415 -3.98217 0
M  V30 18596 H 1717.18 1.48438 -2.86646 0
M  V30 18597 H 1716.24 -0.778756 -3.72343 0
M  V30 18598 H 1717.55 -0.805402 -4.92255 0
M  V30 18599 H 1716.7 1.32887 -5.91968 0
M  V30 18600 H 1715.44 1.44042 -4.65943 0
M  V30 18601 H 1714.45 -0.7246 -5.45004 0
M  V30 18602 H 1715.67 -0.820907 -6.7412 0
M  V30 18603 H 1713.62 1.39842 -6.40921 0
M  V30 18604 H 1713.53 0.104492 -7.55928 0
M  V30 18605 H 1714.8 1.28667 -7.68808 0
M  V30 18606 N 1719.03 1.48775 -0.519977 0
M  V30 18607 C 1720.26 2.06595 0.013978 0
M  V30 18608 C 1720.67 1.37819 1.29624 0
M  V30 18609 O 1720.01 0.456315 1.77942 0
M  V30 18610 C 1720.07 3.58085 0.318694 0
M  V30 18611 C 1719.74 4.48669 -0.868623 0
M  V30 18612 C 1720.73 4.89048 -1.76432 0
M  V30 18613 C 1718.42 4.9071 -1.07279 0
M  V30 18614 C 1720.41 5.70226 -2.84818 0
M  V30 18615 C 1718.1 5.7166 -2.15981 0
M  V30 18616 C 1719.1 6.11325 -3.04583 0
M  V30 18617 O 1718.79 6.90653 -4.11405 0
M  V30 18618 H 1718.52 0.675506 -0.02584 0
M  V30 18619 H 1721.07 1.92289 -0.722099 0
M  V30 18620 H 1719.3 3.70468 1.10861 0
M  V30 18621 H 1720.99 3.98068 0.793529 0
M  V30 18622 H 1721.76 4.57198 -1.61848 0
M  V30 18623 H 1717.64 4.59326 -0.392454 0
M  V30 18624 H 1721.18 6.01105 -3.54004 0
M  V30 18625 H 1717.08 6.02923 -2.30552 0
M  V30 18626 H 1717.85 7.08991 -4.08992 0
M  V30 18627 N 1720.51 0.254649 1.55529 0
M  V30 18628 C 1721.46 -0.655705 2.18368 0
M  V30 18629 C 1722.44 -1.13353 1.14192 0
M  V30 18630 O 1723.63 -1.08201 1.40077 0
M  V30 18631 C 1720.76 -1.84883 2.89263 0
M  V30 18632 C 1719.85 -1.38914 4.00704 0
M  V30 18633 N 1720.24 -0.6442 5.01681 0
M  V30 18634 C 1718.54 -1.67379 4.13401 0
M  V30 18635 C 1719.24 -0.405172 5.80287 0
M  V30 18636 N 1718.22 -0.971651 5.34846 0
M  V30 18637 H 1722.02 -0.0784898 2.93795 0
M  V30 18638 H 1719.53 0.0573 1.62299 0
M  V30 18639 H 1721.53 -2.51209 3.32716 0
M  V30 18640 H 1720.19 -2.43019 2.15341 0
M  V30 18641 H 1721.2 -0.293541 5.17067 0
M  V30 18642 H 1717.88 -2.26599 3.50656 0
M  V30 18643 H 1719.27 0.190059 6.71631 0
M  V30 18644 N 1721.99 -1.57589 -0.0183649 0
M  V30 18645 C 1723.21 -1.94421 -0.722172 0
M  V30 18646 C 1723.64 -0.855471 -1.67521 0
M  V30 18647 O 1722.99 0.187954 -1.80323 0
M  V30 18648 C 1723.04 -3.30331 -1.44615 0
M  V30 18649 O 1722.15 -3.23337 -2.55982 0
M  V30 18650 H 1721.49 -0.63519 -0.193466 0
M  V30 18651 H 1724.02 -2.04579 0.0293527 0
M  V30 18652 H 1724.03 -3.65471 -1.8137 0
M  V30 18653 H 1722.7 -4.09132 -0.747256 0
M  V30 18654 H 1721.28 -2.99845 -2.21692 0
M  V30 18655 N 1723.46 0.290824 -1.54893 0
M  V30 18656 C 1724.41 1.37898 -1.87315 0
M  V30 18657 C 1725.41 1.52001 -0.747794 0
M  V30 18658 O 1726.61 1.53998 -0.93192 0
M  V30 18659 H 1722.99 0.460824 -0.59426 0
M  V30 18660 H 1724.96 1.07794 -2.7825 0
M  V30 18661 C 1723.71 2.73568 -2.14606 0
M  V30 18662 H 1723.03 2.63501 -3.00678 0
M  V30 18663 H 1724.47 3.48693 -2.41225 0
M  V30 18664 C 1722.93 3.23291 -0.947865 0
M  V30 18665 O 1723.46 4.01325 -0.173479 0
M  V30 18666 N 1721.67 2.80743 -0.750444 0
M  V30 18667 H 1721.21 2.174 -1.38184 0
M  V30 18668 H 1721.17 3.14361 0.0496746 0
M  V30 18669 N 1724.94 1.47523 0.554506 0
M  V30 18670 C 1726.19 1.55498 1.31118 0
M  V30 18671 C 1726.54 0.215527 1.91189 0
M  V30 18672 O 1725.84 -0.779071 1.75046 0
M  V30 18673 C 1726.03 2.6113 2.4402 0
M  V30 18674 C 1725.86 4.05216 1.95013 0
M  V30 18675 C 1724.63 4.72634 1.78732 0
M  V30 18676 C 1726.83 4.92152 1.49301 0
M  V30 18677 N 1724.81 6.01227 1.24093 0
M  V30 18678 C 1726.18 6.10794 1.06445 0
M  V30 18679 C 1728.24 4.78573 1.37378 0
M  V30 18680 C 1726.94 7.17356 0.5285 0
M  V30 18681 C 1728.96 5.85233 0.851839 0
M  V30 18682 C 1728.33 7.03067 0.433218 0
M  V30 18683 H 1724.43 0.6237 0.471723 0
M  V30 18684 H 1727.01 1.84286 0.628223 0
M  V30 18685 H 1725.18 2.34205 3.09843 0
M  V30 18686 H 1726.91 2.58933 3.11024 0
M  V30 18687 H 1723.67 4.28583 2.01528 0
M  V30 18688 H 1724.09 6.69744 0.988532 0
M  V30 18689 H 1728.73 3.87836 1.68354 0
M  V30 18690 H 1726.45 8.07836 0.20637 0
M  V30 18691 H 1730.04 5.76774 0.763097 0
M  V30 18692 H 1728.92 7.84192 0.0356063 0
M  V30 18693 N 1726.42 -0.801453 1.357 0
M  V30 18694 C 1727.84 -1.09776 1.1585 0
M  V30 18695 C 1728.04 -2.01484 -0.0255653 0
M  V30 18696 O 1727.09 -2.42758 -0.694613 0
M  V30 18697 C 1728.41 -1.72381 2.46385 0
M  V30 18698 C 1729.95 -1.84777 2.52639 0
M  V30 18699 C 1730.43 -2.50797 3.83229 0
M  V30 18700 N 1731.92 -2.58277 3.84509 0
M  V30 18701 C 1732.65 -3.10141 4.82286 0
M  V30 18702 N 1732.15 -3.62404 5.90454 0
M  V30 18703 N 1733.94 -3.08742 4.69718 0
M  V30 18704 H 1726.09 -0.191926 2.11531 0
M  V30 18705 H 1728.36 -0.147742 0.936417 0
M  V30 18706 H 1728.06 -1.12462 3.33234 0
M  V30 18707 H 1727.94 -2.72024 2.6131 0
M  V30 18708 H 1730.32 -2.43837 1.66215 0
M  V30 18709 H 1730.41 -0.839745 2.41624 0
M  V30 18710 H 1730.05 -1.92385 4.70053 0
M  V30 18711 H 1729.98 -3.52147 3.91535 0
M  V30 18712 H 1732.47 -2.21257 3.06356 0
M  V30 18713 H 1732.78 -4.00293 6.61049 0
M  V30 18714 H 1731.13 -3.60588 5.94139 0
M  V30 18715 H 1734.32 -2.67193 3.84351 0
M  V30 18716 H 1734.49 -3.48854 5.46081 0
M  V30 18717 N 1727.9 -1.19782 -1.02421 0
M  V30 18718 C 1728.86 -0.941631 -2.08964 0
M  V30 18719 C 1729.86 0.0797747 -1.60602 0
M  V30 18720 O 1731.05 -0.155473 -1.73505 0
M  V30 18721 C 1728.18 -0.416114 -3.38351 0
M  V30 18722 H 1729.38 -1.88661 -2.33125 0
M  V30 18723 H 1726.93 -1.01212 -1.19104 0
M  V30 18724 H 1727.66 0.53469 -3.19862 0
M  V30 18725 H 1727.45 -1.15262 -3.74776 0
M  V30 18726 H 1728.94 -0.256114 -4.16814 0
M  V30 18727 N 1729.38 1.21606 -1.00248 0
M  V30 18728 C 1730.31 2.22528 -0.505624 0
M  V30 18729 C 1731.29 1.56553 0.439305 0
M  V30 18730 O 1732.47 1.84979 0.362615 0
M  V30 18731 C 1729.6 3.37655 0.26586 0
M  V30 18732 C 1728.65 4.21874 -0.626492 0
M  V30 18733 S 1729.48 4.9314 -2.08743 0
M  V30 18734 C 1730.63 6.11699 -1.32571 0
M  V30 18735 H 1730.87 2.64329 -1.36079 0
M  V30 18736 H 1728.4 1.31434 -0.810219 0
M  V30 18737 H 1730.36 4.04402 0.70491 0
M  V30 18738 H 1729.02 2.94342 1.09642 0
M  V30 18739 H 1728.21 5.0399 -0.0323809 0
M  V30 18740 H 1727.81 3.60308 -1.00271 0
M  V30 18741 H 1730.11 6.74853 -0.598298 0
M  V30 18742 H 1731.05 6.75541 -2.12249 0
M  V30 18743 H 1731.46 5.58293 -0.834785 0
M  V30 18744 N 1730.86 0.776895 1.37121 0
M  V30 18745 C 1731.82 0.172839 2.28547 0
M  V30 18746 C 1732.82 -0.622508 1.48262 0
M  V30 18747 O 1734.01 -0.44534 1.68411 0
M  V30 18748 C 1731.14 -0.762294 3.32268 0
M  V30 18749 H 1732.33 0.978842 2.83476 0
M  V30 18750 H 1729.89 0.545454 1.46474 0
M  V30 18751 H 1730.62 -1.59311 2.82472 0
M  V30 18752 H 1730.41 -0.194084 3.91619 0
M  V30 18753 H 1731.9 -1.1802 4.00576 0
M  V30 18754 N 1732.33 -1.48497 0.527859 0
M  V30 18755 C 1733.56 -2.07399 -0.00510725 0
M  V30 18756 C 1733.98 -1.38211 -1.2759 0
M  V30 18757 O 1733.34 -0.447373 -1.75694 0
M  V30 18758 C 1733.39 -3.59963 -0.214295 0
M  V30 18759 O 1732.49 -3.91921 -1.28342 0
M  V30 18760 H 1731.83 -0.662901 0.0381838 0
M  V30 18761 H 1734.36 -1.90936 0.735166 0
M  V30 18762 H 1734.37 -4.05646 -0.437604 0
M  V30 18763 H 1733.05 -4.09725 0.714028 0
M  V30 18764 H 1731.63 -3.58019 -1.04293 0
M  V30 18765 N 1733.81 -0.262893 -1.55392 0
M  V30 18766 C 1735.09 0.408525 -1.91286 0
M  V30 18767 C 1735.47 1.74657 -1.18566 0
M  V30 18768 O 1734.82 2.26409 -0.308422 0
M  V30 18769 C 1735.03 0.560865 -3.44464 0
M  V30 18770 C 1736.37 0.849401 -4.16017 0
M  V30 18771 O 1737.4 0.646134 -3.50291 0
M  V30 18772 O 1736.26 1.23741 -5.32307 0
M  V30 18773 H 1733.35 0.221707 -0.796728 0
M  V30 18774 H 1735.9 -0.308143 -1.66879 0
M  V30 18775 H 1734.67 -0.381279 -3.89438 0
M  V30 18776 H 1734.29 1.32747 -3.74785 0
M  V30 18777 N 1735.29 1.57597 0.0100073 0
M  V30 18778 C 1736.54 1.90129 0.696935 0
M  V30 18779 C 1736.86 0.862514 1.7433 0
M  V30 18780 O 1736.12 -0.134054 1.9524 0
M  V30 18781 C 1736.42 3.29416 1.38635 0
M  V30 18782 C 1736.08 4.484 0.474144 0
M  V30 18783 C 1734.75 4.80683 0.222956 0
M  V30 18784 C 1737.1 5.20971 -0.154514 0
M  V30 18785 C 1734.43 5.82915 -0.665351 0
M  V30 18786 C 1736.78 6.24148 -1.03064 0
M  V30 18787 C 1735.44 6.54895 -1.2911 0
M  V30 18788 H 1734.71 0.695732 0.255027 0
M  V30 18789 H 1737.36 1.91451 -0.0433713 0
M  V30 18790 H 1735.66 3.24172 2.20045 0
M  V30 18791 H 1737.36 3.51843 1.92373 0
M  V30 18792 H 1733.95 4.2317 0.680087 0
M  V30 18793 H 1738.14 4.96293 0.0265512 0
M  V30 18794 H 1733.39 6.05103 -0.875259 0
M  V30 18795 H 1737.57 6.79516 -1.52417 0
M  V30 18796 H 1735.19 7.33931 -1.98113 0
M  V30 18797 N 1736.77 -0.282606 1.55045 0
M  V30 18798 C 1737.72 -1.36902 1.88044 0
M  V30 18799 C 1738.71 -1.51603 0.755845 0
M  V30 18800 O 1739.92 -1.53501 0.940074 0
M  V30 18801 H 1736.29 -0.457666 0.596696 0
M  V30 18802 H 1738.26 -1.06317 2.78818 0
M  V30 18803 C 1737.01 -2.72426 2.16054 0
M  V30 18804 H 1736.33 -2.61903 3.02071 0
M  V30 18805 H 1737.77 -3.47409 2.43071 0
M  V30 18806 C 1736.23 -3.22784 0.964996 0
M  V30 18807 O 1736.76 -4.01228 0.194759 0
M  V30 18808 N 1734.97 -2.80341 0.765322 0
M  V30 18809 H 1734.52 -2.16665 1.39335 0
M  V30 18810 H 1734.47 -3.14383 -0.0330026 0
M  V30 18811 N 1738.25 -1.47815 -0.546675 0
M  V30 18812 C 1739.18 -1.63976 -1.66235 0
M  V30 18813 C 1740.16 -0.488945 -1.62921 0
M  V30 18814 O 1741.34 -0.719532 -1.80378 0
M  V30 18815 C 1738.47 -1.6637 -3.04858 0
M  V30 18816 C 1737.43 -2.80785 -3.23023 0
M  V30 18817 C 1736.75 -2.68257 -4.62539 0
M  V30 18818 C 1738.05 -4.22267 -3.07388 0
M  V30 18819 H 1739.75 -2.57375 -1.52965 0
M  V30 18820 H 1737.29 -1.23861 -0.734465 0
M  V30 18821 H 1739.24 -1.76266 -3.82764 0
M  V30 18822 H 1737.97 -0.695386 -3.19111 0
M  V30 18823 H 1736.63 -2.70417 -2.47529 0
M  V30 18824 H 1736.28 -1.69431 -4.73606 0
M  V30 18825 H 1735.98 -3.45022 -4.75641 0
M  V30 18826 H 1737.5 -2.80097 -5.42566 0
M  V30 18827 H 1738.91 -4.33557 -3.75102 0
M  V30 18828 H 1737.31 -4.999 -3.31994 0
M  V30 18829 H 1738.38 -4.39897 -2.04006 0
M  V30 18830 N 1739.72 0.794246 -1.36123 0
M  V30 18831 C 1741.13 1.36909 -1.26936 0
M  V30 18832 C 1741.49 1.9598 0.0929337 0
M  V30 18833 O 1740.61 1.92206 0.994266 0
M  V30 18834 C 1741.21 2.48906 -2.2985 0
M  V30 18835 C 1739.76 3.0222 -2.24366 0
M  V30 18836 C 1738.91 1.75264 -2.1489 0
M  V30 18837 H 1741.86 0.596278 -1.47072 0
M  V30 18838 H 1741.88 3.27794 -1.93213 0
M  V30 18839 H 1741.4 2.05884 -3.28988 0
M  V30 18840 H 1739.5 3.49675 -1.28679 0
M  V30 18841 H 1739.61 3.59363 -3.16852 0
M  V30 18842 H 1737.97 1.97306 -1.61066 0
M  V30 18843 H 1738.76 1.34377 -3.15908 0
M  V30 18844 N 1741.2 1.20323 1.01785 0
M  V30 18845 C 1742.61 1.01326 1.56812 0
M  V30 18846 C 1742.96 -0.430709 1.91414 0
M  V30 18847 O 1742.09 -1.31191 1.72098 0
M  V30 18848 C 1742.68 1.83304 2.8493 0
M  V30 18849 C 1741.24 1.68676 3.3649 0
M  V30 18850 C 1740.39 1.81315 2.0981 0
M  V30 18851 H 1743.34 1.34533 0.841815 0
M  V30 18852 H 1743.36 1.33567 3.56286 0
M  V30 18853 H 1742.87 2.88392 2.59714 0
M  V30 18854 H 1740.97 0.662195 3.66668 0
M  V30 18855 H 1741.09 2.49877 4.08777 0
M  V30 18856 H 1739.45 1.24488 2.22204 0
M  V30 18857 H 1740.23 2.87885 1.87022 0
M  V30 18858 N 1742.68 -1.21073 1.00892 0
M  V30 18859 C 1743.93 -1.90524 0.694879 0
M  V30 18860 C 1744.26 -1.78161 -0.772802 0
M  V30 18861 O 1743.53 -1.1608 -1.56063 0
M  V30 18862 C 1743.82 -3.42188 1.12156 0
M  V30 18863 C 1743.67 -3.63523 2.64898 0
M  V30 18864 C 1744.99 -4.34706 0.68694 0
M  V30 18865 H 1742.11 -0.69188 0.253912 0
M  V30 18866 H 1744.75 -1.42626 1.2553 0
M  V30 18867 H 1742.9 -3.83113 0.644742 0
M  V30 18868 H 1744.57 -3.31901 3.20374 0
M  V30 18869 H 1742.81 -3.07255 3.0623 0
M  V30 18870 H 1743.49 -4.69805 2.89806 0
M  V30 18871 H 1745.96 -4.01386 1.09674 0
M  V30 18872 H 1744.84 -5.3946 1.01361 0
M  V30 18873 H 1745.1 -4.40178 -0.411757 0
M  V30 18874 N 1744.16 -0.784156 -1.36707 0
M  V30 18875 C 1745.4 -0.354658 -1.99675 0
M  V30 18876 C 1745.74 1.06948 -1.62098 0
M  V30 18877 O 1745.01 1.73798 -0.873192 0
M  V30 18878 C 1745.3 -0.512421 -3.56435 0
M  V30 18879 C 1745.15 -1.97987 -4.03883 0
M  V30 18880 C 1746.47 0.075762 -4.40035 0
M  V30 18881 H 1743.59 -0.130338 -0.725383 0
M  V30 18882 H 1746.23 -0.989515 -1.62199 0
M  V30 18883 H 1744.38 0.0280323 -3.8849 0
M  V30 18884 H 1746.05 -2.58098 -3.82339 0
M  V30 18885 H 1744.29 -2.48433 -3.55617 0
M  V30 18886 H 1744.96 -2.04125 -5.12871 0
M  V30 18887 H 1747.44 -0.385522 -4.1431 0
M  V30 18888 H 1746.32 -0.0646832 -5.48862 0
M  V30 18889 H 1746.58 1.16735 -4.2641 0
M  V30 18890 N 1745.64 1.48215 -0.535727 0
M  V30 18891 C 1746.6 2.28206 0.213212 0
M  V30 18892 C 1747.6 1.3571 0.862522 0
M  V30 18893 O 1748.79 1.58547 0.721688 0
M  V30 18894 C 1745.92 3.1476 1.30917 0
M  V30 18895 H 1747.11 2.95884 -0.489163 0
M  V30 18896 H 1744.67 1.53551 -0.291872 0
M  V30 18897 H 1745.4 2.51726 2.04462 0
M  V30 18898 H 1745.19 3.82806 0.848633 0
M  V30 18899 H 1746.68 3.75085 1.83579 0
M  V30 18900 N 1747.11 0.27113 1.5525 0
M  V30 18901 C 1748.06 -0.618069 2.2237 0
M  V30 18902 C 1749.03 -1.15282 1.19579 0
M  V30 18903 O 1750.22 -1.20285 1.48108 0
M  V30 18904 C 1747.36 -1.79821 2.94548 0
M  V30 18905 C 1746.47 -1.29769 4.12049 0
M  V30 18906 C 1745.6 -2.43931 4.7188 0
M  V30 18907 C 1744.64 -1.90862 5.81582 0
M  V30 18908 N 1743.78 -2.98482 6.35494 0
M  V30 18909 H 1748.62 -0.0390456 2.97974 0
M  V30 18910 H 1746.16 -0.00750636 1.47098 0
M  V30 18911 H 1748.12 -2.49184 3.34609 0
M  V30 18912 H 1746.75 -2.34933 2.21374 0
M  V30 18913 H 1745.8 -0.497288 3.77136 0
M  V30 18914 H 1747.11 -0.868957 4.91173 0
M  V30 18915 H 1746.26 -3.21295 5.1464 0
M  V30 18916 H 1745 -2.90118 3.92024 0
M  V30 18917 H 1744.01 -1.11977 5.38276 0
M  V30 18918 H 1745.23 -1.45616 6.63304 0
M  V30 18919 H 1743.18 -3.44058 5.58534 0
M  V30 18920 H 1743.1 -2.60014 7.09879 0
M  V30 18921 H 1744.36 -3.75833 6.82913 0
M  V30 18922 N 1748.59 -1.576 -0.00164943 0
M  V30 18923 C 1749.5 -2.11748 -1.00995 0
M  V30 18924 C 1750.52 -1.06235 -1.37805 0
M  V30 18925 O 1751.69 -1.38127 -1.4657 0
M  V30 18926 C 1748.76 -2.60869 -2.2836 0
M  V30 18927 C 1747.82 -3.80976 -1.97879 0
M  V30 18928 C 1747.05 -4.27745 -3.19171 0
M  V30 18929 O 1747.28 -3.73856 -4.30799 0
M  V30 18930 O 1746.21 -5.19917 -3.03265 0
M  V30 18931 H 1750.04 -2.98117 -0.579667 0
M  V30 18932 H 1747.62 -1.47766 -0.220375 0
M  V30 18933 H 1749.5 -2.9267 -3.03187 0
M  V30 18934 H 1748.18 -1.77598 -2.7063 0
M  V30 18935 H 1747.09 -3.54151 -1.20533 0
M  V30 18936 H 1748.42 -4.65315 -1.60447 0
M  V30 18937 N 1750.07 0.274379 -1.55193 0
M  V30 18938 C 1751.32 1.00394 -1.7494 0
M  V30 18939 C 1751.63 1.87499 -0.557084 0
M  V30 18940 O 1752.84 2.63923 -0.636936 0
M  V30 18941 C 1751.29 1.83489 -3.09612 0
M  V30 18942 C 1750.9 1.01257 -4.36407 0
M  V30 18943 C 1752.65 2.55883 -3.38709 0
M  V30 18944 C 1750.55 1.83782 -5.62119 0
M  V30 18945 H 1749.48 0.378561 -0.65208 0
M  V30 18946 H 1752.13 0.259678 -1.81653 0
M  V30 18947 H 1750.52 2.62005 -2.96933 0
M  V30 18948 H 1751.69 0.27167 -4.59998 0
M  V30 18949 H 1750.01 0.403235 -4.14443 0
M  V30 18950 H 1752.6 3.18028 -4.2984 0
M  V30 18951 H 1752.95 3.26096 -2.58779 0
M  V30 18952 H 1753.48 1.84398 -3.5248 0
M  V30 18953 H 1750.22 1.17992 -6.44793 0
M  V30 18954 H 1749.74 2.55473 -5.42673 0
M  V30 18955 H 1751.42 2.41181 -6.00367 0
M  V30 18956 N 1751.55 1.48103 0.538828 0
M  V30 18957 C 1752.79 1.559 1.29704 0
M  V30 18958 C 1753.13 0.228359 1.92853 0
M  V30 18959 O 1752.4 -0.764825 1.78831 0
M  V30 18960 C 1752.69 2.69072 2.39316 0
M  V30 18961 C 1752.54 4.11812 1.80916 0
M  V30 18962 C 1753.86 2.78051 3.41138 0
M  V30 18963 H 1750.98 0.5675 0.470226 0
M  V30 18964 H 1753.62 1.80239 0.601163 0
M  V30 18965 H 1751.77 2.4845 2.98672 0
M  V30 18966 H 1753.44 4.4385 1.25679 0
M  V30 18967 H 1751.68 4.19227 1.11494 0
M  V30 18968 H 1752.35 4.86805 2.6024 0
M  V30 18969 H 1754.83 2.96707 2.91726 0
M  V30 18970 H 1753.71 3.58982 4.15239 0
M  V30 18971 H 1753.97 1.85849 4.01139 0
M  V30 18972 N 1753.03 -0.787016 1.36542 0
M  V30 18973 C 1753.99 -1.88136 1.3091 0
M  V30 18974 C 1754.99 -1.59339 0.216292 0
M  V30 18975 O 1756.18 -1.67706 0.471222 0
M  V30 18976 C 1753.31 -3.24969 1.02994 0
M  V30 18977 H 1754.5 -1.94546 2.28237 0
M  V30 18978 H 1752.06 -0.985084 1.2135 0
M  V30 18979 H 1752.79 -3.24242 0.0613497 0
M  V30 18980 H 1752.58 -3.47261 1.82078 0
M  V30 18981 H 1754.07 -4.05036 1.01664 0
M  V30 18982 N 1754.5 -1.20861 -1.01145 0
M  V30 18983 C 1755.73 -1.04843 -1.78949 0
M  V30 18984 C 1756.15 0.397676 -1.83848 0
M  V30 18985 O 1755.51 1.28663 -1.27733 0
M  V30 18986 C 1755.56 -1.64267 -3.21012 0
M  V30 18987 O 1754.66 -0.883773 -4.02819 0
M  V30 18988 H 1754.01 -0.36941 -0.551754 0
M  V30 18989 H 1756.54 -1.60266 -1.27185 0
M  V30 18990 H 1756.55 -1.68218 -3.71708 0
M  V30 18991 H 1755.22 -2.69509 -3.16761 0
M  V30 18992 H 1753.8 -0.918866 -3.61402 0
M  V30 18993 N 1755.98 1.20536 -1.01532 0
M  V30 18994 C 1757.22 1.91582 -0.712451 0
M  V30 18995 C 1757.59 1.76995 0.744089 0
M  V30 18996 O 1758.79 2.4251 1.15942 0
M  V30 18997 C 1757.06 3.38914 -1.13454 0
M  V30 18998 S 1758.62 4.28316 -0.953443 0
M  V30 18999 H 1755.44 0.661843 -0.259779 0
M  V30 19000 H 1758.04 1.45808 -1.30232 0
M  V30 19001 H 1756.74 3.47051 -2.19052 0
M  V30 19002 H 1756.27 3.89712 -0.537396 0
M  V30 19003 H 1758.29 4.95992 0.143722 0
M  V30 19004 N 1757.46 0.791395 1.36289 0
M  V30 19005 C 1758.74 0.288602 1.93459 0
M  V30 19006 C 1759.12 -1.21953 1.7231 0
M  V30 19007 O 1758.47 -2.01194 1.0832 0
M  V30 19008 C 1758.68 0.683392 3.42244 0
M  V30 19009 C 1760.02 0.664255 4.19372 0
M  V30 19010 O 1761.05 0.623988 3.50692 0
M  V30 19011 O 1759.91 0.708926 5.41882 0
M  V30 19012 H 1757 0.0719305 0.823866 0
M  V30 19013 H 1759.55 0.874071 1.45458 0
M  V30 19014 H 1758.32 1.72344 3.51302 0
M  V30 19015 H 1757.94 0.0719128 3.97535 0
M  V30 19016 N 1758.94 -1.47929 0.54358 0
M  V30 19017 C 1759.89 -2.29827 -0.211706 0
M  V30 19018 C 1760.86 -1.38217 -0.921154 0
M  V30 19019 O 1762.04 -1.67181 -0.919522 0
M  V30 19020 C 1759.18 -3.21889 -1.24425 0
M  V30 19021 C 1758.29 -4.28583 -0.542264 0
M  V30 19022 C 1757.43 -5.0781 -1.55892 0
M  V30 19023 C 1756.47 -6.06293 -0.841146 0
M  V30 19024 N 1755.61 -6.78528 -1.80399 0
M  V30 19025 H 1760.45 -2.93896 0.492835 0
M  V30 19026 H 1757.98 -1.44875 0.254873 0
M  V30 19027 H 1759.94 -3.73674 -1.85535 0
M  V30 19028 H 1758.57 -2.59713 -1.917 0
M  V30 19029 H 1757.62 -3.79959 0.183069 0
M  V30 19030 H 1758.93 -4.98796 0.0206703 0
M  V30 19031 H 1758.09 -5.63678 -2.24393 0
M  V30 19032 H 1756.83 -4.37468 -2.15576 0
M  V30 19033 H 1755.83 -5.49616 -0.14214 0
M  V30 19034 H 1757.06 -6.78639 -0.250232 0
M  V30 19035 H 1755 -6.10927 -2.38965 0
M  V30 19036 H 1754.92 -7.44863 -1.29285 0
M  V30 19037 H 1756.19 -7.38978 -2.48056 0
M  V30 19038 N 1760.42 -0.27936 -1.55104 0
M  V30 19039 C 1761.66 0.337344 -2.01597 0
M  V30 19040 C 1762.02 1.52732 -1.16348 0
M  V30 19041 O 1763.22 2.21394 -1.5244 0
M  V30 19042 C 1761.49 0.705839 -3.50361 0
M  V30 19043 S 1763.05 1.30847 -4.18837 0
M  V30 19044 H 1759.87 0.104703 -0.703248 0
M  V30 19045 H 1762.47 -0.402184 -1.91318 0
M  V30 19046 H 1761.18 -0.169038 -4.10052 0
M  V30 19047 H 1760.71 1.47672 -3.64632 0
M  V30 19048 H 1762.72 2.59696 -4.22815 0
M  V30 19049 N 1761.9 1.57599 -0.0067085 0
M  V30 19050 C 1762.83 2.05706 1.01084 0
M  V30 19051 C 1763.84 0.976216 1.30284 0
M  V30 19052 O 1765.03 1.25288 1.27142 0
M  V30 19053 C 1762.13 2.44771 2.34393 0
M  V30 19054 C 1761.3 3.75668 2.24036 0
M  V30 19055 C 1760.36 4.01528 3.4009 0
M  V30 19056 O 1759.39 4.72101 3.17977 0
M  V30 19057 N 1760.59 3.49947 4.6316 0
M  V30 19058 H 1763.35 2.93622 0.600532 0
M  V30 19059 H 1760.92 1.6089 0.180536 0
M  V30 19060 H 1762.91 2.5918 3.10818 0
M  V30 19061 H 1761.48 1.62339 2.67142 0
M  V30 19062 H 1760.7 3.71272 1.3248 0
M  V30 19063 H 1761.99 4.6147 2.14295 0
M  V30 19064 H 1761.38 2.92811 4.84023 0
M  V30 19065 H 1759.94 3.69675 5.36828 0
M  V30 19066 N 1763.37 -0.266145 1.55336 0
M  V30 19067 C 1764.3 -1.33322 1.91697 0
M  V30 19068 C 1765.28 -1.51182 0.77961 0
M  V30 19069 O 1766.47 -1.64112 1.03832 0
M  V30 19070 C 1763.6 -2.69151 2.19488 0
M  V30 19071 C 1762.55 -2.66012 3.35293 0
M  V30 19072 C 1761.88 -4.05458 3.4858 0
M  V30 19073 C 1763.18 -2.24681 4.71504 0
M  V30 19074 H 1764.87 -1.03138 2.81075 0
M  V30 19075 H 1762.42 -0.494702 1.35236 0
M  V30 19076 H 1764.37 -3.43918 2.43512 0
M  V30 19077 H 1763.1 -3.00932 1.26916 0
M  V30 19078 H 1761.76 -1.93703 3.11247 0
M  V30 19079 H 1761.4 -4.34472 2.53462 0
M  V30 19080 H 1761.1 -4.04251 4.26445 0
M  V30 19081 H 1762.63 -4.81954 3.74904 0
M  V30 19082 H 1764.04 -2.89173 4.95027 0
M  V30 19083 H 1762.44 -2.34622 5.52334 0
M  V30 19084 H 1763.51 -1.19819 4.69863 0
M  V30 19085 N 1764.85 -1.48386 -0.530967 0
M  V30 19086 C 1765.8 -1.62835 -1.63564 0
M  V30 19087 C 1766.77 -0.470453 -1.59298 0
M  V30 19088 O 1767.95 -0.693813 -1.77738 0
M  V30 19089 C 1765.09 -1.67314 -3.01828 0
M  V30 19090 C 1764.21 -2.94204 -3.16335 0
M  V30 19091 C 1763.34 -2.8985 -4.45152 0
M  V30 19092 C 1762.38 -4.11449 -4.53185 0
M  V30 19093 N 1761.52 -4.05178 -5.7339 0
M  V30 19094 H 1766.36 -2.57172 -1.50554 0
M  V30 19095 H 1763.89 -1.27537 -0.732991 0
M  V30 19096 H 1765.85 -1.67892 -3.81927 0
M  V30 19097 H 1764.48 -0.764688 -3.13612 0
M  V30 19098 H 1763.53 -3.03375 -2.29495 0
M  V30 19099 H 1764.85 -3.84179 -3.18132 0
M  V30 19100 H 1764 -2.88824 -5.33541 0
M  V30 19101 H 1762.74 -1.97602 -4.45875 0
M  V30 19102 H 1761.74 -4.12751 -3.63203 0
M  V30 19103 H 1762.97 -5.04855 -4.54201 0
M  V30 19104 H 1760.92 -3.15749 -5.75012 0
M  V30 19105 H 1760.83 -4.88857 -5.76676 0
M  V30 19106 H 1762.1 -4.08209 -6.64067 0
M  V30 19107 N 1766.33 0.779763 -1.36958 0
M  V30 19108 C 1767.58 1.53499 -1.31463 0
M  V30 19109 C 1767.9 1.94728 0.102869 0
M  V30 19110 O 1767.17 1.65688 1.0452 0
M  V30 19111 H 1765.75 0.5693 -0.483638 0
M  V30 19112 H 1768.41 0.928536 -1.7136 0
M  V30 19113 H 1767.51 2.4381 -1.94841 0
M  V30 19114 N 1767.81 1.21396 1.00503 0
M  V30 19115 C 1768.72 0.989221 2.12724 0
M  V30 19116 C 1769.73 -0.0586646 1.73901 0
M  V30 19117 O 1770.91 0.131377 2.00971 0
M  V30 19118 C 1767.97 0.556731 3.42201 0
M  V30 19119 C 1767.04 1.67683 3.95197 0
M  V30 19120 C 1766.27 1.26488 5.18494 0
M  V30 19121 O 1766.49 0.13847 5.70232 0
M  V30 19122 O 1765.43 2.07678 5.64937 0
M  V30 19123 H 1769.25 1.92913 2.3456 0
M  V30 19124 H 1766.84 0.998837 1.11102 0
M  V30 19125 H 1768.72 0.325327 4.20142 0
M  V30 19126 H 1767.39 -0.354457 3.21753 0
M  V30 19127 H 1766.3 1.96263 3.18483 0
M  V30 19128 H 1767.63 2.56544 4.20055 0
M  V30 19129 N 1769.29 -1.19996 1.0217 0
M  V30 19130 C 1770.25 -2.21179 0.601036 0
M  V30 19131 C 1771.25 -1.57345 -0.331531 0
M  V30 19132 O 1772.44 -1.73789 -0.119521 0
M  V30 19133 C 1769.57 -3.40683 -0.121557 0
M  V30 19134 H 1770.76 -2.5991 1.49622 0
M  V30 19135 H 1768.32 -1.33548 0.812071 0
M  V30 19136 H 1769.05 -3.07461 -1.03142 0
M  V30 19137 H 1768.84 -3.88245 0.548448 0
M  V30 19138 H 1770.33 -4.1565 -0.403046 0
M  V30 19139 N 1770.76 -0.798611 -1.35867 0
M  V30 19140 C 1771.7 -0.149116 -2.27712 0
M  V30 19141 C 1772.67 0.680209 -1.47689 0
M  V30 19142 O 1773.86 0.649211 -1.76968 0
M  V30 19143 C 1770.99 0.793938 -3.29263 0
M  V30 19144 C 1770.03 0.0452467 -4.26476 0
M  V30 19145 S 1770.86 -1.28533 -5.19846 0
M  V30 19146 C 1772.02 -0.346515 -6.2494 0
M  V30 19147 H 1772.25 -0.92784 -2.82451 0
M  V30 19148 H 1769.79 -0.593276 -1.42547 0
M  V30 19149 H 1771.74 1.33256 -3.88269 0
M  V30 19150 H 1770.41 1.54598 -2.73419 0
M  V30 19151 H 1769.6 0.761186 -4.98219 0
M  V30 19152 H 1769.2 -0.423174 -3.71598 0
M  V30 19153 H 1771.49 0.47122 -6.75859 0
M  V30 19154 H 1772.44 -1.0329 -7.00526 0
M  V30 19155 H 1772.84 0.0542422 -5.64474 0
M  V30 19156 N 1772.24 1.47639 -0.551417 0
M  V30 19157 C 1773.19 2.26938 0.219798 0
M  V30 19158 C 1774.18 1.34006 0.890571 0
M  V30 19159 O 1775.37 1.584 0.789834 0
M  V30 19160 C 1772.5 3.19625 1.25279 0
M  V30 19161 C 1771.58 4.20036 0.585724 0
M  V30 19162 N 1771.97 5.0465 -0.34089 0
M  V30 19163 C 1770.27 4.38012 0.840352 0
M  V30 19164 C 1770.97 5.77129 -0.727814 0
M  V30 19165 N 1769.95 5.43535 -0.0839681 0
M  V30 19166 H 1773.75 2.8974 -0.492729 0
M  V30 19167 H 1771.26 1.58107 -0.370943 0
M  V30 19168 H 1773.26 3.75114 1.8192 0
M  V30 19169 H 1771.92 2.5838 1.96647 0
M  V30 19170 H 1772.93 5.12944 -0.71473 0
M  V30 19171 H 1769.61 3.87941 1.54298 0
M  V30 19172 H 1771 6.55196 -1.48888 0
M  V30 19173 N 1773.72 0.287581 1.54954 0
M  V30 19174 C 1774.97 -0.324967 1.9947 0
M  V30 19175 C 1775.29 -1.55437 1.17747 0
M  V30 19176 O 1774.56 -1.9403 0.270067 0
M  V30 19177 H 1773.14 -0.123062 0.736794 0
M  V30 19178 H 1775.8 0.395805 1.90839 0
M  V30 19179 H 1774.9 -0.606265 3.06155 0
M  V30 19180 N 1775.2 -1.57593 0.0150662 0
M  V30 19181 C 1776.13 -2.06239 -0.999912 0
M  V30 19182 C 1777.14 -0.983112 -1.29764 0
M  V30 19183 O 1778.33 -1.25961 -1.26476 0
M  V30 19184 C 1775.43 -2.46011 -2.33092 0
M  V30 19185 C 1774.61 -3.76851 -2.2204 0
M  V30 19186 C 1773.66 -4.03326 -3.37956 0
M  V30 19187 O 1772.69 -4.73781 -3.15469 0
M  V30 19188 N 1773.89 -3.52399 -4.61298 0
M  V30 19189 H 1776.66 -2.93936 -0.584952 0
M  V30 19190 H 1774.22 -1.60984 -0.172001 0
M  V30 19191 H 1776.21 -2.60825 -3.09439 0
M  V30 19192 H 1774.78 -1.63753 -2.66277 0
M  V30 19193 H 1774 -3.71969 -1.30509 0
M  V30 19194 H 1775.29 -4.626 -2.11845 0
M  V30 19195 H 1774.69 -2.95374 -4.82463 0
M  V30 19196 H 1773.24 -3.72516 -5.3486 0
M  V30 19197 N 1776.68 0.257904 -1.55475 0
M  V30 19198 C 1777.92 0.988933 -1.77054 0
M  V30 19199 C 1778.26 1.85387 -0.578375 0
M  V30 19200 O 1777.53 1.8983 0.423673 0
M  V30 19201 C 1777.81 1.85876 -3.08419 0
M  V30 19202 C 1777.67 1.02274 -4.38018 0
M  V30 19203 C 1778.99 2.84322 -3.3593 0
M  V30 19204 H 1776.1 0.358103 -0.644152 0
M  V30 19205 H 1778.75 0.260209 -1.8821 0
M  V30 19206 H 1776.9 2.48008 -2.99039 0
M  V30 19207 H 1778.57 0.420967 -4.59375 0
M  V30 19208 H 1776.81 0.326705 -4.32568 0
M  V30 19209 H 1777.48 1.6649 -5.26294 0
M  V30 19210 H 1779.96 2.32325 -3.45202 0
M  V30 19211 H 1778.83 3.42313 -4.29084 0
M  V30 19212 H 1779.1 3.60223 -2.56304 0
M  V30 19213 N 1778.15 1.48666 0.52309 0
M  V30 19214 C 1779.43 1.47526 1.28435 0
M  V30 19215 C 1779.81 0.190719 2.10237 0
M  V30 19216 O 1779.16 -0.827423 2.12993 0
M  V30 19217 C 1779.37 2.74132 2.15992 0
M  V30 19218 C 1780.72 3.22739 2.75907 0
M  V30 19219 O 1781.74 2.75097 2.26275 0
M  V30 19220 O 1780.6 4.05657 3.66203 0
M  V30 19221 H 1777.69 0.589478 0.580039 0
M  V30 19222 H 1780.24 1.60907 0.539176 0
M  V30 19223 H 1779.01 3.5913 1.55375 0
M  V30 19224 H 1778.64 2.63505 2.97743 0
M  V30 19225 N 1779.63 -0.772489 1.37369 0
M  V30 19226 C 1780.87 -1.54405 1.33935 0
M  V30 19227 C 1781.24 -1.9185 -0.0757718 0
M  V30 19228 O 1782.44 -2.67772 -0.234832 0
M  V30 19229 C 1780.71 -2.77561 2.25154 0
M  V30 19230 S 1782.27 -3.67634 2.39564 0
M  V30 19231 H 1779.09 -0.52862 0.475481 0
M  V30 19232 H 1781.69 -0.908446 1.73111 0
M  V30 19233 H 1780.39 -2.4813 3.26894 0
M  V30 19234 H 1779.92 -3.46081 1.87059 0
M  V30 19235 H 1781.94 -4.69502 1.60567 0
M  V30 19236 N 1781.11 -1.21927 -0.998575 0
M  V30 19237 C 1782.34 -1.06735 -1.77827 0
M  V30 19238 C 1782.76 0.378154 -1.8426 0
M  V30 19239 O 1782.12 1.27301 -1.2909 0
M  V30 19240 C 1782.17 -1.67662 -3.19252 0
M  V30 19241 O 1781.27 -0.926448 -4.01859 0
M  V30 19242 H 1780.61 -0.375241 -0.547805 0
M  V30 19243 H 1783.14 -1.61605 -1.25478 0
M  V30 19244 H 1783.15 -1.72151 -3.69903 0
M  V30 19245 H 1781.83 -2.72854 -3.13885 0
M  V30 19246 H 1780.4 -0.957145 -3.60407 0
M  V30 19247 N 1782.59 1.19452 -1.02805 0
M  V30 19248 C 1784 1.70804 -0.753845 0
M  V30 19249 C 1784.35 1.8225 0.726584 0
M  V30 19250 O 1783.48 1.49307 1.56641 0
M  V30 19251 C 1784.07 3.10227 -1.36178 0
M  V30 19252 C 1782.63 3.58842 -1.13618 0
M  V30 19253 C 1781.78 2.3573 -1.46036 0
M  V30 19254 H 1784.73 1.04305 -1.19608 0
M  V30 19255 H 1784.75 3.72867 -0.758315 0
M  V30 19256 H 1784.26 3.01864 -2.43925 0
M  V30 19257 H 1782.36 3.72521 -0.0768914 0
M  V30 19258 H 1782.47 4.43008 -1.82431 0
M  V30 19259 H 1780.84 2.39027 -0.879669 0
M  V30 19260 H 1781.62 2.29998 -2.54864 0
M  V30 19261 N 1784.07 0.805805 1.35442 0
M  V30 19262 C 1785.31 0.385046 1.98398 0
M  V30 19263 C 1785.64 -1.05114 1.64244 0
M  V30 19264 O 1784.91 -1.72711 0.924532 0
M  V30 19265 H 1783.49 0.139386 0.733881 0
M  V30 19266 H 1786.15 1.03147 1.65368 0
M  V30 19267 H 1785.24 0.490126 3.08227 0
M  V30 19268 N 1785.54 -1.47344 0.559239 0
M  V30 19269 C 1786.79 -2.01672 0.0337843 0
M  V30 19270 C 1787.11 -1.43883 -1.32503 0
M  V30 19271 O 1788.31 -1.89885 -1.94051 0
M  V30 19272 C 1786.77 -3.59899 0.00989925 0
M  V30 19273 C 1786.38 -4.2668 1.3656 0
M  V30 19274 C 1788.12 -4.21969 -0.462842 0
M  V30 19275 C 1786.03 -5.76919 1.30071 0
M  V30 19276 H 1784.96 -0.753948 0.00885972 0
M  V30 19277 H 1787.61 -1.69317 0.707394 0
M  V30 19278 H 1785.99 -3.89225 -0.729399 0
M  V30 19279 H 1787.16 -4.08993 2.12277 0
M  V30 19280 H 1785.48 -3.76605 1.77644 0
M  V30 19281 H 1788.08 -5.32069 -0.529816 0
M  V30 19282 H 1788.42 -3.89283 -1.47528 0
M  V30 19283 H 1788.95 -3.97182 0.221661 0
M  V30 19284 H 1785.69 -6.14227 2.28921 0
M  V30 19285 H 1785.21 -5.96937 0.585375 0
M  V30 19286 H 1786.89 -6.39168 1.00364 0
M  V30 19287 N 1787.02 -0.295795 -1.54799 0
M  V30 19288 C 1788.27 0.308367 -2.01049 0
M  V30 19289 C 1788.62 1.51923 -1.18055 0
M  V30 19290 O 1787.92 1.89993 -0.247625 0
M  V30 19291 C 1788.11 0.721225 -3.50047 0
M  V30 19292 C 1787.94 -0.448087 -4.47462 0
M  V30 19293 C 1786.71 -0.938455 -4.96509 0
M  V30 19294 C 1788.91 -1.29136 -4.97824 0
M  V30 19295 N 1786.89 -2.07507 -5.77766 0
M  V30 19296 C 1788.26 -2.27554 -5.76731 0
M  V30 19297 C 1790.32 -1.32233 -4.8002 0
M  V30 19298 C 1789.02 -3.2884 -6.39732 0
M  V30 19299 C 1791.04 -2.32374 -5.43835 0
M  V30 19300 C 1790.41 -3.29523 -6.22571 0
M  V30 19301 H 1786.51 0.0774419 -0.778156 0
M  V30 19302 H 1789.09 -0.424526 -1.90015 0
M  V30 19303 H 1787.26 1.4233 -3.61382 0
M  V30 19304 H 1788.99 1.30448 -3.831 0
M  V30 19305 H 1785.75 -0.514293 -4.70799 0
M  V30 19306 H 1786.17 -2.64762 -6.23081 0
M  V30 19307 H 1790.81 -0.584993 -4.18733 0
M  V30 19308 H 1788.53 -4.03496 -7.00155 0
M  V30 19309 H 1792.12 -2.35538 -5.3199 0
M  V30 19310 H 1791 -4.05743 -6.71075 0
M  V30 19311 N 1788.5 1.57583 -0.0234236 0
M  V30 19312 C 1789.43 2.06766 0.988961 0
M  V30 19313 C 1790.45 0.98998 1.29241 0
M  V30 19314 O 1791.64 1.2663 1.25806 0
M  V30 19315 C 1788.74 2.47244 2.31784 0
M  V30 19316 C 1787.91 3.78023 2.20039 0
M  V30 19317 C 1786.97 4.05113 3.35812 0
M  V30 19318 O 1785.99 4.75447 3.12952 0
M  V30 19319 N 1787.2 3.5484 4.59422 0
M  V30 19320 H 1789.96 2.94242 0.569355 0
M  V30 19321 H 1787.52 1.61073 0.163461 0
M  V30 19322 H 1789.51 2.62463 3.08051 0
M  V30 19323 H 1788.08 1.65163 2.65405 0
M  V30 19324 H 1787.3 3.72656 1.28534 0
M  V30 19325 H 1788.59 4.63717 2.09389 0
M  V30 19326 H 1787.99 2.97928 4.8089 0
M  V30 19327 H 1786.55 3.75348 5.32877 0
M  V30 19328 N 1789.98 -0.249655 1.5561 0
M  V30 19329 C 1790.91 -1.31281 1.931 0
M  V30 19330 C 1791.89 -1.50347 0.795601 0
M  V30 19331 O 1793.08 -1.63001 1.05566 0
M  V30 19332 C 1790.21 -2.66808 2.2233 0
M  V30 19333 C 1789.16 -2.62441 3.38096 0
M  V30 19334 C 1788.49 -4.01738 3.52861 0
M  V30 19335 C 1789.79 -2.19667 4.7386 0
M  V30 19336 H 1791.48 -1.00151 2.82153 0
M  V30 19337 H 1789.03 -0.480331 1.35753 0
M  V30 19338 H 1790.98 -3.41316 2.47146 0
M  V30 19339 H 1789.7 -2.99569 1.30101 0
M  V30 19340 H 1788.36 -1.90391 3.13284 0
M  V30 19341 H 1788.01 -4.31759 2.58056 0
M  V30 19342 H 1787.71 -3.99705 4.30708 0
M  V30 19343 H 1789.23 -4.7795 3.79995 0
M  V30 19344 H 1790.65 -2.83906 4.98067 0
M  V30 19345 H 1789.04 -2.28751 5.54791 0
M  V30 19346 H 1790.11 -1.14829 4.71108 0
M  V30 19347 N 1791.46 -1.48941 -0.515198 0
M  V30 19348 C 1792.73 -1.48205 -1.27651 0
M  V30 19349 C 1793.11 -0.201866 -2.10133 0
M  V30 19350 O 1792.46 0.816115 -2.13429 0
M  V30 19351 C 1792.67 -2.75274 -2.14535 0
M  V30 19352 C 1794.02 -3.24198 -2.74192 0
M  V30 19353 O 1795.04 -2.76293 -2.24813 0
M  V30 19354 O 1793.9 -4.07593 -3.64047 0
M  V30 19355 H 1791 -0.592546 -0.576904 0
M  V30 19356 H 1793.54 -1.6119 -0.530636 0
M  V30 19357 H 1792.32 -3.59949 -1.53469 0
M  V30 19358 H 1791.94 -2.6508 -2.96342 0
M  V30 19359 N 1792.94 0.765193 -1.37777 0
M  V30 19360 C 1794.18 1.53692 -1.34752 0
M  V30 19361 C 1794.54 1.91888 0.0655965 0
M  V30 19362 O 1795.74 2.67893 0.220628 0
M  V30 19363 C 1794.01 2.76363 -2.26623 0
M  V30 19364 S 1795.57 3.66358 -2.4151 0
M  V30 19365 H 1792.39 0.526091 -0.478277 0
M  V30 19366 H 1794.99 0.899252 -1.73591 0
M  V30 19367 H 1793.69 2.46393 -3.28205 0
M  V30 19368 H 1793.23 3.45085 -1.88892 0
M  V30 19369 H 1795.24 4.68644 -1.63055 0
M  V30 19370 N 1794.41 1.22455 0.992094 0
M  V30 19371 C 1795.64 1.07594 1.76723 0
M  V30 19372 C 1796.06 -0.37345 1.8507 0
M  V30 19373 O 1795.41 -1.25876 1.32142 0
M  V30 19374 C 1795.46 1.68178 3.19998 0
M  V30 19375 O 1795.19 3.07447 3.12102 0
M  V30 19376 C 1796.69 1.58602 4.13957 0
M  V30 19377 H 1793.91 0.377148 0.554978 0
M  V30 19378 H 1796.45 1.62065 1.24721 0
M  V30 19379 H 1794.61 1.17768 3.69066 0
M  V30 19380 H 1795.02 3.36641 4.0221 0
M  V30 19381 H 1796.49 2.05714 5.12236 0
M  V30 19382 H 1796.97 0.542712 4.35834 0
M  V30 19383 H 1797.58 2.08321 3.70786 0
M  V30 19384 N 1795.89 -1.18905 1.03437 0
M  V30 19385 C 1796.84 -2.20223 0.59042 0
M  V30 19386 C 1797.83 -1.56734 -0.363774 0
M  V30 19387 O 1799.02 -1.76043 -0.183852 0
M  V30 19388 C 1796.15 -3.43261 -0.051695 0
M  V30 19389 C 1795.23 -4.13884 0.925268 0
M  V30 19390 N 1795.62 -4.60607 2.08985 0
M  V30 19391 C 1793.92 -4.3965 0.749899 0
M  V30 19392 C 1794.62 -5.14902 2.70648 0
M  V30 19393 N 1793.6 -5.06034 1.9857 0
M  V30 19394 H 1797.4 -2.54032 1.478 0
M  V30 19395 H 1794.91 -1.3504 0.902101 0
M  V30 19396 H 1796.91 -4.15096 -0.387403 0
M  V30 19397 H 1795.57 -3.1095 -0.934891 0
M  V30 19398 H 1796.58 -4.55257 2.46903 0
M  V30 19399 H 1793.26 -4.17416 -0.08374 0
M  V30 19400 H 1794.65 -5.61303 3.69308 0
M  V30 19401 N 1797.37 -0.812977 -1.35013 0
M  V30 19402 C 1798.3 -0.242397 -2.32238 0
M  V30 19403 C 1799.28 0.635676 -1.57776 0
M  V30 19404 O 1800.47 0.564621 -1.85811 0
M  V30 19405 C 1797.6 0.604686 -3.41995 0
M  V30 19406 C 1796.55 -0.17542 -4.2764 0
M  V30 19407 C 1795.88 0.793772 -5.28775 0
M  V30 19408 C 1797.18 -1.37802 -5.03794 0
M  V30 19409 H 1798.87 -1.0547 -2.80208 0
M  V30 19410 H 1796.42 -0.508619 -1.34718 0
M  V30 19411 H 1798.37 1.01396 -4.09019 0
M  V30 19412 H 1797.09 1.44994 -2.9265 0
M  V30 19413 H 1795.75 -0.565948 -3.62205 0
M  V30 19414 H 1795.4 1.63471 -4.75696 0
M  V30 19415 H 1795.1 0.276085 -5.86951 0
M  V30 19416 H 1796.62 1.20112 -5.9867 0
M  V30 19417 H 1798.04 -1.04328 -5.63727 0
M  V30 19418 H 1796.43 -1.83064 -5.71496 0
M  V30 19419 H 1797.5 -2.16138 -4.34065 0
M  V30 19420 N 1798.85 1.47045 -0.567045 0
M  V30 19421 C 1799.76 2.33924 0.177998 0
M  V30 19422 C 1800.77 1.48797 0.901967 0
M  V30 19423 O 1801.95 1.81704 0.868662 0
M  V30 19424 C 1799.01 3.25687 1.18865 0
M  V30 19425 C 1798.08 4.26708 0.471049 0
M  V30 19426 C 1797.31 5.14087 1.43355 0
M  V30 19427 O 1797.53 5.041 2.66907 0
M  V30 19428 O 1796.47 5.94313 0.952674 0
M  V30 19429 H 1800.29 2.98952 -0.534907 0
M  V30 19430 H 1797.88 1.45765 -0.327571 0
M  V30 19431 H 1799.76 3.82342 1.7718 0
M  V30 19432 H 1798.43 2.63274 1.8833 0
M  V30 19433 H 1797.34 3.73785 -0.153539 0
M  V30 19434 H 1798.67 4.91862 -0.182337 0
M  V30 19435 N 1800.33 0.304 1.5464 0
M  V30 19436 C 1801.57 -0.303793 1.99804 0
M  V30 19437 C 1801.89 -1.54179 1.19389 0
M  V30 19438 O 1801.16 -1.93732 0.290631 0
M  V30 19439 H 1799.74 -0.115241 0.738057 0
M  V30 19440 H 1802.41 0.416024 1.90408 0
M  V30 19441 H 1801.5 -0.573759 3.06781 0
M  V30 19442 N 1801.8 -1.57568 0.0317802 0
M  V30 19443 C 1802.75 -2.10379 -0.949183 0
M  V30 19444 C 1803.72 -1.00649 -1.32133 0
M  V30 19445 O 1804.91 -1.28084 -1.41418 0
M  V30 19446 C 1802.05 -2.63762 -2.22539 0
M  V30 19447 C 1801.16 -3.87509 -1.90946 0
M  V30 19448 C 1800.29 -4.29276 -3.12882 0
M  V30 19449 C 1799.33 -5.45775 -2.77121 0
M  V30 19450 N 1798.47 -5.82686 -3.9169 0
M  V30 19451 H 1803.31 -2.93912 -0.491922 0
M  V30 19452 H 1800.85 -1.45272 -0.23121 0
M  V30 19453 H 1802.8 -2.92803 -2.9719 0
M  V30 19454 H 1801.43 -1.83055 -2.65877 0
M  V30 19455 H 1800.49 -3.6518 -1.06526 0
M  V30 19456 H 1801.8 -4.72235 -1.6061 0
M  V30 19457 H 1800.95 -4.59768 -3.95851 0
M  V30 19458 H 1799.69 -3.43323 -3.46382 0
M  V30 19459 H 1798.7 -5.14974 -1.92565 0
M  V30 19460 H 1799.92 -6.3343 -2.44834 0
M  V30 19461 H 1797.87 -4.99688 -4.25027 0
M  V30 19462 H 1797.78 -6.62058 -3.64986 0
M  V30 19463 H 1799.05 -6.17785 -4.75355 0
M  V30 19464 N 1803.28 0.241399 -1.5574 0
M  V30 19465 C 1804.53 0.966607 -1.7703 0
M  V30 19466 C 1804.84 1.86275 -0.59673 0
M  V30 19467 O 1806.05 2.62513 -0.692775 0
M  V30 19468 C 1804.51 1.7688 -3.13435 0
M  V30 19469 C 1804.11 0.919775 -4.38457 0
M  V30 19470 C 1805.86 2.48641 -3.44061 0
M  V30 19471 C 1803.77 1.71817 -5.65891 0
M  V30 19472 H 1802.7 0.364644 -0.659963 0
M  V30 19473 H 1805.35 0.221088 -1.82163 0
M  V30 19474 H 1803.73 2.55648 -3.02424 0
M  V30 19475 H 1804.9 0.174036 -4.60471 0
M  V30 19476 H 1803.22 0.315234 -4.15205 0
M  V30 19477 H 1805.81 3.08839 -4.36489 0
M  V30 19478 H 1806.16 3.20534 -2.65638 0
M  V30 19479 H 1806.69 1.7688 -3.56312 0
M  V30 19480 H 1803.43 1.04289 -6.47151 0
M  V30 19481 H 1802.95 2.43905 -5.47969 0
M  V30 19482 H 1804.63 2.28392 -6.05348 0
M  V30 19483 N 1804.76 1.49212 0.507292 0
M  V30 19484 C 1806.01 1.5763 1.2584 0
M  V30 19485 C 1806.32 0.265343 1.93792 0
M  V30 19486 O 1807.53 0.227996 2.70541 0
M  V30 19487 C 1805.98 2.78093 2.28457 0
M  V30 19488 C 1805.59 4.15922 1.66472 0
M  V30 19489 C 1807.34 2.95837 3.04435 0
M  V30 19490 C 1805.24 5.27616 2.67162 0
M  V30 19491 H 1804.17 0.586896 0.47336 0
M  V30 19492 H 1806.82 1.75588 0.533018 0
M  V30 19493 H 1805.21 2.53616 3.0413 0
M  V30 19494 H 1806.38 4.50511 0.968337 0
M  V30 19495 H 1804.7 4.03484 1.02906 0
M  V30 19496 H 1807.29 3.76452 3.79721 0
M  V30 19497 H 1807.64 2.06156 3.61671 0
M  V30 19498 H 1808.17 3.20323 2.35877 0
M  V30 19499 H 1804.91 6.19336 2.14716 0
M  V30 19500 H 1804.43 4.97488 3.3506 0
M  V30 19501 H 1806.11 5.56686 3.29712 0
M  V30 19502 N 1806.24 -0.757876 1.38181 0
M  V30 19503 C 1807.17 -1.88519 1.37779 0
M  V30 19504 C 1808.15 -1.68336 0.24432 0
M  V30 19505 O 1809.33 -1.88991 0.446762 0
M  V30 19506 C 1806.46 -3.2599 1.19784 0
M  V30 19507 C 1805.42 -3.60764 2.30289 0
M  V30 19508 C 1804.74 -4.96927 1.97403 0
M  V30 19509 C 1806.04 -3.66082 3.72533 0
M  V30 19510 H 1807.74 -1.89112 2.32114 0
M  V30 19511 H 1805.28 -0.908442 1.11729 0
M  V30 19512 H 1807.24 -4.04504 1.18129 0
M  V30 19513 H 1805.96 -3.25864 0.219088 0
M  V30 19514 H 1804.62 -2.84566 2.31123 0
M  V30 19515 H 1804.27 -4.93356 0.98023 0
M  V30 19516 H 1803.97 -5.21162 2.7141 0
M  V30 19517 H 1805.49 -5.77825 1.97359 0
M  V30 19518 H 1806.91 -4.3472 3.73754 0
M  V30 19519 H 1805.3 -4.01824 4.4571 0
M  V30 19520 H 1806.37 -2.66412 4.05158 0
M  V30 19521 N 1807.72 -1.22979 -0.985586 0
M  V30 19522 C 1808.96 -1.06033 -1.72872 0
M  V30 19523 C 1809.3 0.402572 -1.89982 0
M  V30 19524 O 1808.57 1.29824 -1.44831 0
M  V30 19525 C 1808.85 -1.78047 -3.13004 0
M  V30 19526 C 1808.71 -3.31979 -3.03497 0
M  V30 19527 C 1810.03 -1.53877 -4.12323 0
M  V30 19528 H 1807.14 -0.386594 -0.627466 0
M  V30 19529 H 1809.79 -1.51416 -1.14775 0
M  V30 19530 H 1807.94 -1.39469 -3.62603 0
M  V30 19531 H 1809.61 -3.80047 -2.61462 0
M  V30 19532 H 1807.85 -3.61279 -2.40125 0
M  V30 19533 H 1808.52 -3.7755 -4.02691 0
M  V30 19534 H 1811 -1.87402 -3.7151 0
M  V30 19535 H 1809.87 -2.06749 -5.08474 0
M  V30 19536 H 1810.14 -0.472972 -4.39563 0
M  V30 19537 N 1809.19 1.18355 -1.04066 0
M  V30 19538 C 1810.16 2.20195 -0.636148 0
M  V30 19539 C 1811.16 1.57853 0.306457 0
M  V30 19540 O 1812.35 1.73958 0.0918576 0
M  V30 19541 C 1809.48 3.40833 0.0673423 0
M  V30 19542 H 1810.67 2.57497 -1.53738 0
M  V30 19543 H 1808.23 1.32239 -0.833214 0
M  V30 19544 H 1808.96 3.09063 0.982371 0
M  V30 19545 H 1808.75 3.87324 -0.610145 0
M  V30 19546 H 1810.24 4.16239 0.336869 0
M  V30 19547 N 1810.67 0.820125 1.3458 0
M  V30 19548 C 1811.92 0.407473 1.98664 0
M  V30 19549 C 1812.25 -1.02613 1.64877 0
M  V30 19550 O 1811.53 -1.71421 0.918964 0
M  V30 19551 C 1811.81 0.606744 3.54952 0
M  V30 19552 C 1811.66 2.08626 3.98491 0
M  V30 19553 C 1812.98 0.0409321 4.40081 0
M  V30 19554 H 1810.1 0.149524 0.721673 0
M  V30 19555 H 1812.74 1.03217 1.59519 0
M  V30 19556 H 1810.89 0.0749788 3.88428 0
M  V30 19557 H 1812.56 2.68144 3.75361 0
M  V30 19558 H 1810.81 2.57774 3.48905 0
M  V30 19559 H 1811.48 2.17651 5.07279 0
M  V30 19560 H 1813.95 0.495234 4.13142 0
M  V30 19561 H 1812.83 0.210182 5.48497 0
M  V30 19562 H 1813.09 -1.05389 4.29355 0
M  V30 19563 N 1812.15 -1.46743 0.574835 0
M  V30 19564 C 1813.1 -2.27259 -0.183667 0
M  V30 19565 C 1814.08 -1.35406 -0.869139 0
M  V30 19566 O 1815.28 -1.59637 -0.764534 0
M  V30 19567 C 1812.41 -3.21578 -1.20178 0
M  V30 19568 C 1811.49 -4.20914 -0.518826 0
M  V30 19569 N 1811.88 -5.04044 0.421132 0
M  V30 19570 C 1810.18 -4.39293 -0.770561 0
M  V30 19571 C 1810.88 -5.75898 0.819539 0
M  V30 19572 N 1809.86 -5.43333 0.170429 0
M  V30 19573 H 1813.66 -2.8892 0.538761 0
M  V30 19574 H 1811.17 -1.57497 0.396049 0
M  V30 19575 H 1813.17 -3.77961 -1.75929 0
M  V30 19576 H 1811.83 -2.61476 -1.92511 0
M  V30 19577 H 1812.84 -5.11742 0.796245 0
M  V30 19578 H 1809.52 -3.90347 -1.48107 0
M  V30 19579 H 1810.91 -6.52745 1.59293 0
M  V30 19580 N 1813.63 -0.312197 -1.54477 0
M  V30 19581 C 1814.87 0.294208 -2.00655 0
M  V30 19582 C 1815.21 1.52674 -1.20018 0
M  V30 19583 O 1814.48 1.92481 -0.279517 0
M  V30 19584 C 1814.77 0.639677 -3.54373 0
M  V30 19585 C 1814.62 -0.602773 -4.45743 0
M  V30 19586 C 1815.94 1.46181 -4.15113 0
M  V30 19587 H 1813.06 0.10546 -0.729416 0
M  V30 19588 H 1815.7 -0.426519 -1.85151 0
M  V30 19589 H 1813.85 1.25371 -3.67715 0
M  V30 19590 H 1815.52 -1.24116 -4.44289 0
M  V30 19591 H 1813.76 -1.23386 -4.15882 0
M  V30 19592 H 1814.43 -0.316748 -5.5109 0
M  V30 19593 H 1816.91 0.942887 -4.05276 0
M  V30 19594 H 1815.79 1.67231 -5.22805 0
M  V30 19595 H 1816.05 2.45448 -3.67706 0
M  V30 19596 N 1815.11 1.57549 -0.040136 0
M  V30 19597 C 1816.07 2.09788 0.923126 0
M  V30 19598 C 1817.07 1.01518 1.24703 0
M  V30 19599 O 1818.26 1.27635 1.18554 0
M  V30 19600 C 1815.39 2.57293 2.23636 0
M  V30 19601 H 1816.58 2.96187 0.470482 0
M  V30 19602 H 1814.14 1.54909 0.208088 0
M  V30 19603 H 1814.87 1.74256 2.73506 0
M  V30 19604 H 1814.66 3.36402 2.01435 0
M  V30 19605 H 1816.15 2.97895 2.92658 0
M  V30 19606 N 1816.58 -0.233136 1.55866 0
M  V30 19607 C 1817.81 -0.980602 1.82754 0
M  V30 19608 C 1818.23 -1.77624 0.618988 0
M  V30 19609 O 1817.59 -1.76074 -0.432148 0
M  V30 19610 C 1817.64 -1.88319 3.07519 0
M  V30 19611 O 1816.74 -2.97692 2.85401 0
M  V30 19612 H 1816.09 -0.278295 0.602867 0
M  V30 19613 H 1818.62 -0.249956 2.03067 0
M  V30 19614 H 1818.63 -2.29523 3.37318 0
M  V30 19615 H 1817.3 -1.29831 3.95116 0
M  V30 19616 H 1815.88 -2.60517 2.66805 0
M  V30 19617 N 1818.06 -1.49479 -0.499372 0
M  V30 19618 C 1819.31 -1.58734 -1.25092 0
M  V30 19619 C 1819.63 -0.276701 -1.93027 0
M  V30 19620 O 1818.9 0.704058 -1.82811 0
M  V30 19621 H 1817.48 -0.584857 -0.464706 0
M  V30 19622 H 1820.14 -1.86113 -0.578608 0
M  V30 19623 H 1819.24 -2.38422 -2.01399 0
M  V30 19624 N 1819.54 0.750537 -1.38581 0
M  V30 19625 C 1820.77 1.53755 -1.37996 0
M  V30 19626 C 1821.18 1.89174 0.0313394 0
M  V30 19627 O 1820.52 1.535 1.00912 0
M  V30 19628 C 1820.58 2.86315 -2.17403 0
M  V30 19629 C 1820.25 2.73417 -3.66186 0
M  V30 19630 C 1821.25 2.43008 -4.59612 0
M  V30 19631 C 1818.93 2.90774 -4.0958 0
M  V30 19632 C 1820.92 2.30114 -5.94413 0
M  V30 19633 C 1818.61 2.775 -5.4446 0
M  V30 19634 C 1819.61 2.47213 -6.3669 0
M  V30 19635 O 1819.3 2.34004 -7.69089 0
M  V30 19636 H 1819.03 0.482269 -0.473701 0
M  V30 19637 H 1821.58 0.936379 -1.82814 0
M  V30 19638 H 1819.81 3.48633 -1.67307 0
M  V30 19639 H 1821.5 3.47844 -2.09187 0
M  V30 19640 H 1822.27 2.29263 -4.27391 0
M  V30 19641 H 1818.15 3.13344 -3.38137 0
M  V30 19642 H 1821.69 2.06396 -6.66368 0
M  V30 19643 H 1817.59 2.90818 -5.76277 0
M  V30 19644 H 1818.36 2.49193 -7.79644 0
M  V30 19645 N 1821.02 1.235 0.979051 0
M  V30 19646 C 1822.27 1.06197 1.71479 0
M  V30 19647 C 1822.58 -0.401066 1.91444 0
M  V30 19648 O 1823.79 -0.69406 2.62479 0
M  V30 19649 C 1822.24 1.85189 3.08598 0
M  V30 19650 C 1821.85 3.35831 2.96516 0
M  V30 19651 C 1823.6 1.76379 3.86122 0
M  V30 19652 C 1821.5 4.0721 4.28875 0
M  V30 19653 H 1820.43 0.393779 0.643004 0
M  V30 19654 H 1823.08 1.47479 1.09188 0
M  V30 19655 H 1821.47 1.36714 3.71652 0
M  V30 19656 H 1822.64 3.91803 2.42543 0
M  V30 19657 H 1820.95 3.45469 2.32466 0
M  V30 19658 H 1823.55 2.2702 4.84114 0
M  V30 19659 H 1823.89 0.726826 4.09906 0
M  V30 19660 H 1824.43 2.22473 3.29773 0
M  V30 19661 H 1821.17 5.11218 4.10288 0
M  V30 19662 H 1820.69 3.56025 4.82707 0
M  V30 19663 H 1822.37 4.13579 4.97555 0
M  V30 19664 N 1822.5 -1.17802 1.04693 0
M  V30 19665 C 1823.41 -2.25298 0.654072 0
M  V30 19666 C 1824.42 -1.70984 -0.32255 0
M  V30 19667 O 1825.6 -2.0063 -0.175904 0
M  V30 19668 C 1822.66 -3.46687 0.0296345 0
M  V30 19669 C 1821.73 -4.16108 1.05606 0
M  V30 19670 C 1820.96 -5.31702 0.461329 0
M  V30 19671 O 1821.18 -5.65701 -0.730679 0
M  V30 19672 O 1820.12 -5.89956 1.19312 0
M  V30 19673 H 1823.94 -2.61179 1.54982 0
M  V30 19674 H 1821.53 -1.25005 0.818182 0
M  V30 19675 H 1823.41 -4.20201 -0.317654 0
M  V30 19676 H 1822.08 -3.12615 -0.839839 0
M  V30 19677 H 1820.99 -3.44635 1.45526 0
M  V30 19678 H 1822.32 -4.54195 1.89651 0
M  V30 19679 N 1823.98 -0.827251 -1.34143 0
M  V30 19680 C 1824.94 -0.257543 -2.27748 0
M  V30 19681 C 1825.94 0.567053 -1.5047 0
M  V30 19682 O 1827.13 0.382529 -1.69948 0
M  V30 19683 C 1824.26 0.638449 -3.34868 0
M  V30 19684 H 1825.45 -1.08338 -2.79648 0
M  V30 19685 H 1823.01 -0.599441 -1.44348 0
M  V30 19686 H 1823.74 1.48717 -2.8819 0
M  V30 19687 H 1823.53 0.0486033 -3.9207 0
M  V30 19688 H 1825.02 1.03071 -4.0468 0
M  V30 19689 N 1825.45 1.46436 -0.582609 0
M  V30 19690 C 1826.36 2.34099 0.153178 0
M  V30 19691 C 1827.38 1.49745 0.886135 0
M  V30 19692 O 1828.56 1.82615 0.849341 0
M  V30 19693 C 1825.62 3.26929 1.15404 0
M  V30 19694 C 1824.68 4.27183 0.425764 0
M  V30 19695 C 1823.91 5.15578 1.37895 0
M  V30 19696 O 1824.14 5.06903 2.61545 0
M  V30 19697 O 1823.07 5.9529 0.889585 0
M  V30 19698 H 1826.9 2.98368 -0.566585 0
M  V30 19699 H 1824.48 1.45409 -0.343013 0
M  V30 19700 H 1826.36 3.842 1.73114 0
M  V30 19701 H 1825.04 2.65257 1.85527 0
M  V30 19702 H 1823.95 3.73601 -0.193175 0
M  V30 19703 H 1825.28 4.91641 -0.234496 0
M  V30 19704 N 1826.93 0.320385 1.54309 0
M  V30 19705 C 1828.18 -0.283562 2.00808 0
M  V30 19706 C 1828.51 -1.52036 1.20826 0
M  V30 19707 O 1827.79 -1.9233 0.289721 0
M  V30 19708 C 1828.07 -0.620875 3.54707 0
M  V30 19709 C 1827.92 0.626403 4.45417 0
M  V30 19710 C 1829.24 -1.43978 4.15883 0
M  V30 19711 H 1826.36 -0.10159 0.729965 0
M  V30 19712 H 1829 0.436332 1.84922 0
M  V30 19713 H 1827.15 -1.23419 3.68375 0
M  V30 19714 H 1828.82 1.2647 4.43625 0
M  V30 19715 H 1827.07 1.2559 4.15222 0
M  V30 19716 H 1827.74 0.345969 5.50915 0
M  V30 19717 H 1830.21 -0.921381 4.05771 0
M  V30 19718 H 1829.09 -1.64456 5.23685 0
M  V30 19719 H 1829.35 -2.43494 3.69003 0
M  V30 19720 N 1828.41 -1.57525 0.0484906 0
M  V30 19721 C 1829.66 -1.91761 -0.625335 0
M  V30 19722 C 1829.97 -0.928421 -1.72162 0
M  V30 19723 O 1831.18 -1.16273 -2.45342 0
M  V30 19724 C 1829.63 -3.40571 -1.1636 0
M  V30 19725 C 1829.24 -4.47889 -0.0995687 0
M  V30 19726 C 1830.99 -3.83845 -1.81282 0
M  V30 19727 C 1828.89 -5.87811 -0.650563 0
M  V30 19728 H 1827.82 -0.71567 -0.237346 0
M  V30 19729 H 1830.47 -1.83127 0.116944 0
M  V30 19730 H 1828.86 -3.44201 -1.95811 0
M  V30 19731 H 1830.03 -4.55846 0.673904 0
M  V30 19732 H 1828.34 -4.13939 0.452038 0
M  V30 19733 H 1830.94 -4.8575 -2.23497 0
M  V30 19734 H 1831.28 -3.19947 -2.66345 0
M  V30 19735 H 1831.82 -3.8272 -1.08491 0
M  V30 19736 H 1828.56 -6.55299 0.162371 0
M  V30 19737 H 1828.08 -5.83422 -1.39208 0
M  V30 19738 H 1829.76 -6.36979 -1.1343 0
M  V30 19739 N 1829.89 0.224867 -1.55988 0
M  V30 19740 C 1831.3 0.792138 -1.69062 0
M  V30 19741 C 1831.65 1.85123 -0.649908 0
M  V30 19742 O 1830.77 2.15477 0.199614 0
M  V30 19743 C 1831.37 1.44361 -3.06505 0
M  V30 19744 C 1829.93 1.95831 -3.21446 0
M  V30 19745 C 1829.08 0.81728 -2.64983 0
M  V30 19746 H 1832.03 0.000270833 -1.587 0
M  V30 19747 H 1832.05 2.31233 -3.02178 0
M  V30 19748 H 1831.56 0.672544 -3.82228 0
M  V30 19749 H 1829.66 2.75749 -2.50586 0
M  V30 19750 H 1829.77 2.14056 -4.28622 0
M  V30 19751 H 1828.14 1.22371 -2.23377 0
M  V30 19752 H 1828.92 0.058944 -3.43249 0
M  V30 19753 N 1831.37 1.49742 0.491438 0
M  V30 19754 C 1832.33 1.66587 1.57421 0
M  V30 19755 C 1833.33 0.537281 1.51558 0
M  V30 19756 O 1834.52 0.803928 1.5454 0
M  V30 19757 C 1831.65 1.67217 2.97071 0
M  V30 19758 H 1832.84 2.63171 1.4381 0
M  V30 19759 H 1830.4 1.38917 0.716368 0
M  V30 19760 H 1831.13 0.722529 3.16149 0
M  V30 19761 H 1830.92 2.49187 3.02734 0
M  V30 19762 H 1832.41 1.82274 3.75721 0
M  V30 19763 N 1832.84 -0.743177 1.38977 0
M  V30 19764 C 1833.75 -1.88767 1.39299 0
M  V30 19765 C 1834.77 -1.71587 0.288782 0
M  V30 19766 O 1835.95 -1.94331 0.52892 0
M  V30 19767 C 1833.01 -3.24263 1.22697 0
M  V30 19768 C 1832.07 -3.53895 2.43017 0
M  V30 19769 C 1831.31 -4.82925 2.27198 0
M  V30 19770 O 1831.53 -5.56056 1.27114 0
M  V30 19771 O 1830.46 -5.12271 3.16009 0
M  V30 19772 H 1834.29 -1.9145 2.35755 0
M  V30 19773 H 1831.87 -0.889881 1.20006 0
M  V30 19774 H 1833.76 -4.05251 1.1554 0
M  V30 19775 H 1832.43 -3.22368 0.293317 0
M  V30 19776 H 1831.34 -2.73026 2.5575 0
M  V30 19777 H 1832.67 -3.6056 3.35048 0
M  V30 19778 N 1834.32 -1.24018 -0.972487 0
M  V30 19779 C 1835.55 -1.10392 -1.74989 0
M  V30 19780 C 1835.97 0.34396 -1.8564 0
M  V30 19781 O 1835.32 1.23757 -1.34128 0
M  V30 19782 C 1835.37 -1.73247 -3.17282 0
M  V30 19783 O 1835.09 -3.12374 -3.07171 0
M  V30 19784 C 1836.6 -1.65168 -4.11381 0
M  V30 19785 H 1833.82 -0.38593 -0.548907 0
M  V30 19786 H 1836.36 -1.64028 -1.22127 0
M  V30 19787 H 1834.51 -1.23625 -3.67145 0
M  V30 19788 H 1834.93 -3.42997 -3.96804 0
M  V30 19789 H 1836.4 -2.13837 -5.08898 0
M  V30 19790 H 1836.88 -0.61198 -4.34915 0
M  V30 19791 H 1837.49 -2.14194 -3.67425 0
M  V30 19792 N 1835.8 1.17245 -1.05316 0
M  V30 19793 C 1837.05 1.87165 -0.762471 0
M  V30 19794 C 1837.37 1.8151 0.712687 0
M  V30 19795 O 1836.64 1.2419 1.51504 0
M  V30 19796 H 1835.22 0.69292 -0.279054 0
M  V30 19797 H 1837.88 1.42227 -1.33257 0
M  V30 19798 H 1836.98 2.92872 -1.07854 0
M  V30 19799 N 1837.28 0.834353 1.33702 0
M  V30 19800 C 1838.21 0.221764 2.28125 0
M  V30 19801 C 1839.22 -0.594917 1.51541 0
M  V30 19802 O 1840.41 -0.422726 1.73422 0
M  V30 19803 C 1837.51 -0.706778 3.31448 0
M  V30 19804 C 1836.69 0.0695756 4.37345 0
M  V30 19805 C 1835.74 -0.781623 5.20362 0
M  V30 19806 O 1834.77 -0.222459 5.68765 0
M  V30 19807 N 1835.97 -2.09968 5.41197 0
M  V30 19808 H 1838.74 1.03303 2.81333 0
M  V30 19809 H 1836.3 0.692389 1.46348 0
M  V30 19810 H 1838.29 -1.28109 3.83888 0
M  V30 19811 H 1836.86 -1.41877 2.78549 0
M  V30 19812 H 1836.08 0.825247 3.85465 0
M  V30 19813 H 1837.37 0.603576 5.05207 0
M  V30 19814 H 1836.77 -2.57756 5.03565 0
M  V30 19815 H 1835.32 -2.62258 5.96711 0
M  V30 19816 N 1838.76 -1.46125 0.590367 0
M  V30 19817 C 1839.67 -2.34177 -0.140761 0
M  V30 19818 C 1840.68 -1.50213 -0.878181 0
M  V30 19819 O 1841.86 -1.83063 -0.839644 0
M  V30 19820 C 1838.92 -3.27537 -1.13669 0
M  V30 19821 C 1837.98 -4.27403 -0.403103 0
M  V30 19822 C 1837.22 -5.16302 -1.35159 0
M  V30 19823 O 1837.44 -5.08283 -2.58853 0
M  V30 19824 O 1836.37 -5.95753 -0.858003 0
M  V30 19825 H 1840.2 -2.98063 0.582401 0
M  V30 19826 H 1837.79 -1.45225 0.35072 0
M  V30 19827 H 1839.67 -3.85112 -1.71074 0
M  V30 19828 H 1838.34 -2.66237 -1.84118 0
M  V30 19829 H 1837.25 -3.73493 0.212986 0
M  V30 19830 H 1838.58 -4.9151 0.260565 0
M  V30 19831 N 1840.23 -0.328564 -1.54137 0
M  V30 19832 C 1841.46 0.274326 -2.05073 0
M  V30 19833 C 1841.88 1.45393 -1.20442 0
M  V30 19834 O 1841.23 1.80964 -0.23625 0
M  V30 19835 C 1841.29 0.703941 -3.5458 0
M  V30 19836 O 1841.01 -0.428738 -4.35997 0
M  V30 19837 C 1842.51 1.36912 -4.21628 0
M  V30 19838 H 1839.73 0.0556157 -0.668691 0
M  V30 19839 H 1842.27 -0.476204 -1.98878 0
M  V30 19840 H 1840.43 1.40444 -3.61046 0
M  V30 19841 H 1840.84 -0.0892654 -5.24424 0
M  V30 19842 H 1842.31 1.62062 -5.27674 0
M  V30 19843 H 1842.79 2.31799 -3.73049 0
M  V30 19844 H 1843.4 0.711064 -4.19314 0
M  V30 19845 N 1841.71 1.57497 -0.0568439 0
M  V30 19846 C 1842.68 2.10755 0.900823 0
M  V30 19847 C 1843.68 1.02835 1.23619 0
M  V30 19848 O 1844.87 1.28885 1.17194 0
M  V30 19849 C 1842 2.5965 2.20895 0
M  V30 19850 H 1843.19 2.96669 0.439041 0
M  V30 19851 H 1840.74 1.55121 0.191646 0
M  V30 19852 H 1841.48 1.77147 2.71642 0
M  V30 19853 H 1841.26 3.3852 1.97855 0
M  V30 19854 H 1842.75 3.00982 2.89482 0
M  V30 19855 N 1843.19 -0.216591 1.56105 0
M  V30 19856 C 1844.42 -0.955625 1.8317 0
M  V30 19857 C 1844.83 -1.78247 0.634397 0
M  V30 19858 O 1844.17 -1.79148 -0.406391 0
M  V30 19859 C 1844.23 -1.91834 3.04039 0
M  V30 19860 C 1843.9 -1.27553 4.38838 0
M  V30 19861 C 1844.89 -0.662972 5.15656 0
M  V30 19862 C 1842.58 -1.28582 4.85564 0
M  V30 19863 C 1844.57 -0.0692674 6.37362 0
M  V30 19864 C 1842.26 -0.688269 6.07212 0
M  V30 19865 C 1843.26 -0.0810524 6.82952 0
M  V30 19866 O 1842.95 0.507186 8.02298 0
M  V30 19867 H 1842.68 -0.285405 0.612797 0
M  V30 19868 H 1845.23 -0.235419 2.04046 0
M  V30 19869 H 1843.46 -2.67767 2.78994 0
M  V30 19870 H 1845.15 -2.52334 3.17934 0
M  V30 19871 H 1845.92 -0.647319 4.80661 0
M  V30 19872 H 1841.8 -1.74784 4.26581 0
M  V30 19873 H 1845.34 0.405305 6.96422 0
M  V30 19874 H 1841.24 -0.701352 6.41679 0
M  V30 19875 H 1842.01 0.401989 8.17512 0
M  V30 19876 N 1844.67 -1.5 -0.48349 0
M  V30 19877 C 1845.92 -1.60369 -1.23645 0
M  V30 19878 C 1846.24 -0.298319 -1.92199 0
M  V30 19879 O 1845.5 0.715001 -1.82171 0
M  V30 19880 C 1845.8 -2.72475 -2.31283 0
M  V30 19881 C 1845.46 -4.13384 -1.80068 0
M  V30 19882 C 1844.13 -4.51727 -1.65821 0
M  V30 19883 C 1846.48 -5.01501 -1.41937 0
M  V30 19884 C 1843.81 -5.7594 -1.11847 0
M  V30 19885 C 1846.16 -6.2625 -0.894093 0
M  V30 19886 C 1844.82 -6.63406 -0.738151 0
M  V30 19887 H 1844.09 -0.58683 -0.452451 0
M  V30 19888 H 1846.74 -1.83893 -0.534393 0
M  V30 19889 H 1845.04 -2.42991 -3.07348 0
M  V30 19890 H 1846.74 -2.77703 -2.89278 0
M  V30 19891 H 1843.33 -3.83128 -1.92122 0
M  V30 19892 H 1847.51 -4.7252 -1.51784 0
M  V30 19893 H 1842.77 -6.03413 -0.985001 0
M  V30 19894 H 1846.94 -6.93897 -0.589916 0
M  V30 19895 H 1844.57 -7.59536 -0.317755 0
M  V30 19896 N 1846.15 0.735796 -1.39369 0
M  V30 19897 C 1847.08 1.86303 -1.4076 0
M  V30 19898 C 1848.06 1.67926 -0.27107 0
M  V30 19899 O 1849.24 1.88257 -0.476773 0
M  V30 19900 C 1846.37 3.24043 -1.24955 0
M  V30 19901 C 1845.33 3.57055 -2.35999 0
M  V30 19902 C 1844.65 4.93723 -2.05284 0
M  V30 19903 C 1845.95 3.60109 -3.7831 0
M  V30 19904 H 1847.65 1.85396 -2.35093 0
M  V30 19905 H 1845.19 0.890552 -1.1316 0
M  V30 19906 H 1847.15 4.02574 -1.24549 0
M  V30 19907 H 1845.87 3.25475 -0.270902 0
M  V30 19908 H 1844.53 2.80853 -2.35621 0
M  V30 19909 H 1844.18 4.91734 -1.05859 0
M  V30 19910 H 1843.88 5.16779 -2.79667 0
M  V30 19911 H 1845.4 5.74612 -2.06527 0
M  V30 19912 H 1846.81 4.28718 -3.80622 0
M  V30 19913 H 1845.21 3.94683 -4.52046 0
M  V30 19914 H 1846.28 2.59932 -4.09345 0
M  V30 19915 N 1847.63 1.24532 0.965897 0
M  V30 19916 C 1848.56 1.06393 2.07853 0
M  V30 19917 C 1849.54 -0.0236467 1.70084 0
M  V30 19918 O 1850.72 0.143767 1.93667 0
M  V30 19919 C 1847.85 0.669877 3.40778 0
M  V30 19920 C 1846.81 1.70643 3.92511 0
M  V30 19921 C 1846.13 1.16738 5.21801 0
M  V30 19922 C 1847.43 3.10278 4.20149 0
M  V30 19923 H 1849.13 1.99459 2.23285 0
M  V30 19924 H 1846.67 0.960397 1.07296 0
M  V30 19925 H 1848.62 0.52997 4.18054 0
M  V30 19926 H 1847.35 -0.296477 3.25252 0
M  V30 19927 H 1846.01 1.83458 3.17393 0
M  V30 19928 H 1845.66 0.191586 5.02635 0
M  V30 19929 H 1845.36 1.86009 5.57382 0
M  V30 19930 H 1846.88 1.03963 6.01684 0
M  V30 19931 H 1848.29 3.00681 4.88123 0
M  V30 19932 H 1846.69 3.76918 4.66962 0
M  V30 19933 H 1847.76 3.58182 3.26854 0
M  V30 19934 N 1849.1 -1.16685 1.05936 0
M  V30 19935 C 1850.05 -2.20953 0.66695 0
M  V30 19936 C 1851.02 -1.62694 -0.334621 0
M  V30 19937 O 1852.21 -1.89477 -0.22433 0
M  V30 19938 C 1849.35 -3.45055 0.0557459 0
M  V30 19939 C 1848.46 -4.17574 1.10706 0
M  V30 19940 C 1847.59 -5.29184 0.462377 0
M  V30 19941 C 1846.63 -5.935 1.49748 0
M  V30 19942 N 1845.77 -6.96608 0.876416 0
M  V30 19943 H 1850.61 -2.53872 1.56054 0
M  V30 19944 H 1848.15 -1.24697 0.780321 0
M  V30 19945 H 1850.1 -4.16001 -0.316125 0
M  V30 19946 H 1848.73 -3.12697 -0.801265 0
M  V30 19947 H 1847.79 -3.45269 1.59668 0
M  V30 19948 H 1849.1 -4.61505 1.89248 0
M  V30 19949 H 1848.25 -6.06689 0.0373376 0
M  V30 19950 H 1846.99 -4.86407 -0.354955 0
M  V30 19951 H 1846 -5.1472 1.93245 0
M  V30 19952 H 1847.22 -6.38357 2.31684 0
M  V30 19953 H 1845.17 -6.55952 0.0797299 0
M  V30 19954 H 1845.08 -7.38891 1.59927 0
M  V30 19955 H 1846.35 -7.78043 0.4764 0
M  V30 19956 N 1850.58 -0.841432 -1.33258 0
M  V30 19957 C 1851.51 -0.291603 -2.31672 0
M  V30 19958 C 1852.49 0.602066 -1.59089 0
M  V30 19959 O 1853.68 0.525081 -1.86967 0
M  V30 19960 C 1850.81 0.532008 -3.43201 0
M  V30 19961 C 1849.76 -0.26609 -4.27172 0
M  V30 19962 C 1849.09 0.681432 -5.3034 0
M  V30 19963 C 1850.39 -1.48457 -5.00757 0
M  V30 19964 H 1852.08 -1.1139 -2.77908 0
M  V30 19965 H 1849.63 -0.53708 -1.33609 0
M  V30 19966 H 1851.58 0.926977 -4.11078 0
M  V30 19967 H 1850.3 1.38754 -2.9566 0
M  V30 19968 H 1848.96 -0.64265 -3.60923 0
M  V30 19969 H 1848.61 1.53344 -4.79056 0
M  V30 19970 H 1848.31 0.151522 -5.87405 0
M  V30 19971 H 1849.84 1.07386 -6.01083 0
M  V30 19972 H 1851.25 -1.16262 -5.61388 0
M  V30 19973 H 1849.65 -1.95145 -5.67484 0
M  V30 19974 H 1850.72 -2.25296 -4.29383 0
M  V30 19975 N 1852.06 1.4581 -0.598108 0
M  V30 19976 C 1853.02 2.28905 0.11623 0
M  V30 19977 C 1854.02 1.39246 0.804187 0
M  V30 19978 O 1855.21 1.61466 0.653793 0
M  V30 19979 C 1852.34 3.20029 1.17449 0
M  V30 19980 H 1853.54 2.93543 -0.614217 0
M  V30 19981 H 1851.09 1.52175 -0.356735 0
M  V30 19982 H 1851.83 2.60171 1.93601 0
M  V30 19983 H 1851.61 3.86061 0.685508 0
M  V30 19984 H 1853.1 3.82533 1.67505 0
M  V30 19985 N 1853.54 0.336733 1.53961 0
M  V30 19986 C 1854.79 -0.261343 2.00403 0
M  V30 19987 C 1855.11 -1.51612 1.22633 0
M  V30 19988 O 1854.38 -1.93072 0.331659 0
M  V30 19989 H 1852.96 -0.0995594 0.740336 0
M  V30 19990 H 1855.62 0.456319 1.89483 0
M  V30 19991 H 1854.71 -0.508557 3.07929 0
M  V30 19992 N 1855.02 -1.57465 0.0651956 0
M  V30 19993 C 1856.43 -1.56917 -0.291414 0
M  V30 19994 C 1856.63 -1.07405 -1.70489 0
M  V30 19995 O 1855.69 -0.736958 -2.41506 0
M  V30 19996 C 1857 -3.00509 -0.107088 0
M  V30 19997 C 1858.55 -3.12498 -0.177127 0
M  V30 19998 C 1859.02 -4.57995 -0.0211616 0
M  V30 19999 N 1860.51 -4.63136 -0.0769824 0
M  V30 20000 C 1861.25 -5.73397 0.0193783 0
M  V30 20001 N 1860.75 -6.92594 0.168885 0
M  V30 20002 N 1862.54 -5.62088 -0.0372133 0
M  V30 20003 H 1854.69 -1.87966 0.989061 0
M  V30 20004 H 1856.95 -0.866234 0.385154 0
M  V30 20005 H 1856.66 -3.4082 0.868005 0
M  V30 20006 H 1856.53 -3.67214 -0.86221 0
M  V30 20007 H 1858.92 -2.72078 -1.1427 0
M  V30 20008 H 1859 -2.48445 0.608986 0
M  V30 20009 H 1858.64 -4.99104 0.941151 0
M  V30 20010 H 1858.57 -5.20072 -0.826597 0
M  V30 20011 H 1861.07 -3.77416 -0.191213 0
M  V30 20012 H 1861.38 -7.72443 0.234737 0
M  V30 20013 H 1859.72 -6.947 0.204159 0
M  V30 20014 H 1862.91 -4.67851 -0.152669 0
M  V30 20015 H 1863.09 -6.47987 0.0413392 0
M  V30 20016 N 1856.49 0.20831 -1.56217 0
M  V30 20017 C 1857.74 0.927628 -1.81016 0
M  V30 20018 C 1858.09 1.81435 -0.640236 0
M  V30 20019 O 1857.39 1.88088 0.365179 0
M  V30 20020 C 1857.58 1.78999 -3.09345 0
M  V30 20021 C 1857.41 0.988242 -4.38707 0
M  V30 20022 C 1856.18 0.677902 -5.00732 0
M  V30 20023 C 1858.38 0.347218 -5.13127 0
M  V30 20024 N 1856.36 -0.14386 -6.13731 0
M  V30 20025 C 1857.73 -0.337336 -6.19082 0
M  V30 20026 C 1859.79 0.261596 -4.97212 0
M  V30 20027 C 1858.49 -1.09934 -7.1085 0
M  V30 20028 C 1860.52 -0.486974 -5.89392 0
M  V30 20029 C 1859.88 -1.16002 -6.94783 0
M  V30 20030 H 1855.98 0.319271 -0.713856 0
M  V30 20031 H 1858.56 0.197406 -1.93697 0
M  V30 20032 H 1856.73 2.49192 -2.97923 0
M  V30 20033 H 1858.46 2.44778 -3.22282 0
M  V30 20034 H 1855.22 0.99914 -4.62941 0
M  V30 20035 H 1855.64 -0.543964 -6.74811 0
M  V30 20036 H 1860.28 0.7676 -4.15774 0
M  V30 20037 H 1858 -1.61682 -7.9176 0
M  V30 20038 H 1861.59 -0.554403 -5.79152 0
M  V30 20039 H 1860.47 -1.72999 -7.6488 0
M  V30 20040 N 1857.97 1.50255 0.475528 0
M  V30 20041 C 1859.38 1.53931 1.05651 0
M  V30 20042 C 1859.73 0.340226 1.93228 0
M  V30 20043 O 1858.86 -0.547349 2.09363 0
M  V30 20044 C 1859.45 2.78951 1.92281 0
M  V30 20045 C 1858.01 2.85323 2.45495 0
M  V30 20046 C 1857.16 2.48166 1.2373 0
M  V30 20047 H 1860.11 1.56583 0.258332 0
M  V30 20048 H 1860.13 2.60555 2.77293 0
M  V30 20049 H 1859.64 3.66205 1.28514 0
M  V30 20050 H 1857.74 2.0241 3.12827 0
M  V30 20051 H 1857.86 3.88109 2.80906 0
M  V30 20052 H 1856.22 2.00505 1.57066 0
M  V30 20053 H 1857 3.37722 0.616324 0
M  V30 20054 N 1859.45 -0.728395 1.39758 0
M  V30 20055 C 1860.7 -1.49028 1.37544 0
M  V30 20056 C 1861.03 -1.94182 -0.0265175 0
M  V30 20057 O 1860.3 -1.67257 -0.992737 0
M  V30 20058 C 1860.59 -2.72535 2.35365 0
M  V30 20059 C 1860.44 -2.33358 3.84531 0
M  V30 20060 C 1861.76 -3.74656 2.30914 0
M  V30 20061 H 1858.88 -0.540587 0.500934 0
M  V30 20062 H 1861.52 -0.832335 1.70799 0
M  V30 20063 H 1859.67 -3.28674 2.07137 0
M  V30 20064 H 1861.34 -1.828 4.23535 0
M  V30 20065 H 1859.58 -1.65508 4.00986 0
M  V30 20066 H 1860.26 -3.21832 4.48473 0
M  V30 20067 H 1862.73 -3.28117 2.55888 0
M  V30 20068 H 1861.61 -4.58729 3.01428 0
M  V30 20069 H 1861.87 -4.22047 1.31639 0
M  V30 20070 N 1860.93 -1.25042 -0.959279 0
M  V30 20071 C 1861.87 -1.0502 -2.05522 0
M  V30 20072 C 1862.84 0.039194 -1.66054 0
M  V30 20073 O 1864.03 -0.11708 -1.9044 0
M  V30 20074 C 1861.17 -0.670047 -3.38533 0
M  V30 20075 C 1860.28 -1.83381 -3.91146 0
M  V30 20076 C 1859.42 -1.39844 -5.12462 0
M  V30 20077 C 1858.46 -2.53163 -5.57293 0
M  V30 20078 N 1857.59 -2.10435 -6.69822 0
M  V30 20079 H 1862.43 -1.98816 -2.21982 0
M  V30 20080 H 1859.97 -0.990139 -1.08787 0
M  V30 20081 H 1861.93 -0.430621 -4.14972 0
M  V30 20082 H 1860.56 0.230924 -3.21973 0
M  V30 20083 H 1859.61 -2.18667 -3.1127 0
M  V30 20084 H 1860.92 -2.68497 -4.2037 0
M  V30 20085 H 1860.08 -1.1184 -5.96303 0
M  V30 20086 H 1858.82 -0.51794 -4.84942 0
M  V30 20087 H 1857.82 -2.81918 -4.7202 0
M  V30 20088 H 1859.05 -3.41784 -5.86822 0
M  V30 20089 H 1856.99 -1.24794 -6.44021 0
M  V30 20090 H 1856.91 -2.89101 -6.98539 0
M  V30 20091 H 1858.18 -1.85593 -7.57084 0
M  V30 20092 N 1862.41 1.16121 -1.06553 0
M  V30 20093 C 1863.63 1.90611 -0.804673 0
M  V30 20094 C 1864.05 1.77576 0.641255 0
M  V30 20095 O 1863.41 1.12218 1.43921 0
M  V30 20096 C 1863.46 3.41231 -1.19348 0
M  V30 20097 O 1863.18 3.53879 -2.58266 0
M  V30 20098 C 1864.68 4.32764 -0.960738 0
M  V30 20099 H 1861.9 0.604358 -0.291534 0
M  V30 20100 H 1864.44 1.47174 -1.41986 0
M  V30 20101 H 1862.6 3.82361 -0.622772 0
M  V30 20102 H 1863.01 4.47298 -2.73907 0
M  V30 20103 H 1864.49 5.36898 -1.28238 0
M  V30 20104 H 1864.96 4.39078 0.103389 0
M  V30 20105 H 1865.57 3.97365 -1.51595 0
M  V30 20106 N 1863.88 0.848487 1.3281 0
M  V30 20107 C 1865.13 0.445116 1.96727 0
M  V30 20108 C 1865.45 -1.00311 1.6792 0
M  V30 20109 O 1866.65 -1.51162 2.25527 0
M  V30 20110 C 1865.11 0.745015 3.52104 0
M  V30 20111 C 1864.72 2.20856 3.89778 0
M  V30 20112 C 1866.46 0.409065 4.22524 0
M  V30 20113 C 1864.37 2.452 5.38174 0
M  V30 20114 H 1863.3 0.162715 0.736233 0
M  V30 20115 H 1865.95 1.03841 1.51292 0
M  V30 20116 H 1864.33 0.0812291 3.95917 0
M  V30 20117 H 1865.5 2.91362 3.56994 0
M  V30 20118 H 1863.82 2.50842 3.32366 0
M  V30 20119 H 1866.42 0.568453 5.3167 0
M  V30 20120 H 1866.76 -0.648796 4.11213 0
M  V30 20121 H 1867.29 1.02848 3.84275 0
M  V30 20122 H 1864.03 3.49588 5.54499 0
M  V30 20123 H 1863.55 1.79265 5.72384 0
M  V30 20124 H 1865.23 2.28838 6.0518 0
M  V30 20125 N 1865.36 -1.4549 0.605832 0
M  V30 20126 C 1866.31 -2.27597 -0.13542 0
M  V30 20127 C 1867.3 -1.37219 -0.840222 0
M  V30 20128 O 1868.49 -1.61222 -0.730501 0
M  V30 20129 C 1865.62 -3.24054 -1.1333 0
M  V30 20130 C 1864.7 -4.2192 -0.429427 0
M  V30 20131 N 1865.09 -5.03037 0.527952 0
M  V30 20132 C 1863.39 -4.40829 -0.677207 0
M  V30 20133 C 1864.09 -5.7403 0.941511 0
M  V30 20134 N 1863.07 -5.42849 0.28564 0
M  V30 20135 H 1866.87 -2.87712 0.599924 0
M  V30 20136 H 1864.39 -1.56621 0.429367 0
M  V30 20137 H 1866.38 -3.81608 -1.67872 0
M  V30 20138 H 1865.04 -2.655 -1.86922 0
M  V30 20139 H 1866.05 -5.09938 0.904614 0
M  V30 20140 H 1862.73 -3.93401 -1.39794 0
M  V30 20141 H 1864.12 -6.49219 1.73103 0
M  V30 20142 N 1866.84 -0.344893 -1.5378 0
M  V30 20143 C 1868.07 0.252559 -2.05353 0
M  V30 20144 C 1868.48 1.44107 -1.21978 0
M  V30 20145 O 1867.84 1.80704 -0.25543 0
M  V30 20146 C 1867.89 0.666294 -3.55307 0
M  V30 20147 O 1867.61 -0.474957 -4.35518 0
M  V30 20148 C 1869.11 1.32432 -4.23056 0
M  V30 20149 H 1866.33 0.0485202 -0.669243 0
M  V30 20150 H 1868.88 -0.497271 -1.98362 0
M  V30 20151 H 1867.03 1.36606 -3.62515 0
M  V30 20152 H 1867.45 -0.144883 -5.243 0
M  V30 20153 H 1868.92 1.56456 -5.29363 0
M  V30 20154 H 1869.4 2.27829 -3.75487 0
M  V30 20155 H 1870 0.66655 -4.20044 0
M  V30 20156 N 1868.32 1.57428 -0.0735454 0
M  V30 20157 C 1869.6 1.84962 0.636265 0
M  V30 20158 C 1869.98 0.966341 1.87683 0
M  V30 20159 O 1869.32 0.0330837 2.28476 0
M  V30 20160 C 1869.53 3.35184 0.972251 0
M  V30 20161 C 1870.88 4.02735 1.34499 0
M  V30 20162 O 1871.91 3.3994 1.06393 0
M  V30 20163 O 1870.76 5.13495 1.87043 0
M  V30 20164 H 1867.86 0.764169 0.316187 0
M  V30 20165 H 1870.4 1.69377 -0.104609 0
M  V30 20166 H 1869.18 3.91194 0.0912319 0
M  V30 20167 H 1868.8 3.56038 1.76983 0
M  V30 20168 N 1869.8 -0.200022 1.56326 0
M  V30 20169 C 1870.74 -1.26742 1.95036 0
M  V30 20170 C 1871.74 -1.47383 0.835143 0
M  V30 20171 O 1872.94 -1.48302 1.02012 0
M  V30 20172 H 1869.32 -0.425393 0.620117 0
M  V30 20173 H 1871.29 -0.913877 2.84061 0
M  V30 20174 C 1870.04 -2.60591 2.30191 0
M  V30 20175 H 1869.36 -2.45522 3.1553 0
M  V30 20176 H 1870.8 -3.34036 2.61144 0
M  V30 20177 C 1869.26 -3.17215 1.13474 0
M  V30 20178 O 1869.79 -3.99631 0.407168 0
M  V30 20179 N 1868 -2.7589 0.912849 0
M  V30 20180 H 1867.54 -2.08974 1.50624 0
M  V30 20181 H 1867.5 -3.14116 0.133691 0
M  V30 20182 N 1871.27 -1.50505 -0.467553 0
M  V30 20183 C 1872.52 -1.61352 -1.21697 0
M  V30 20184 C 1872.84 -0.317583 -1.92396 0
M  V30 20185 O 1872.11 0.665123 -1.84263 0
M  V30 20186 H 1870.69 -0.594582 -0.452196 0
M  V30 20187 H 1873.36 -1.87299 -0.539 0
M  V30 20188 H 1872.45 -2.4264 -1.96296 0
M  V30 20189 N 1872.75 0.720973 -1.40142 0
M  V30 20190 C 1873.98 1.51519 -1.41622 0
M  V30 20191 C 1874.4 1.88093 -0.0162669 0
M  V30 20192 O 1873.76 1.52895 0.974307 0
M  V30 20193 C 1873.81 2.77041 -2.30826 0
M  V30 20194 O 1872.91 3.73532 -1.74779 0
M  V30 20195 H 1872.25 0.457034 -0.481681 0
M  V30 20196 H 1874.78 0.88837 -1.84307 0
M  V30 20197 H 1874.79 3.25628 -2.45826 0
M  V30 20198 H 1873.47 2.49755 -3.32558 0
M  V30 20199 H 1872.05 3.32356 -1.69097 0
M  V30 20200 N 1874.23 1.25549 0.952634 0
M  V30 20201 C 1875.18 1.05902 2.07093 0
M  V30 20202 C 1876.17 -0.0106646 1.69397 0
M  V30 20203 O 1877.38 0.14511 1.79414 0
M  V30 20204 H 1873.75 0.325539 0.677885 0
M  V30 20205 H 1875.72 2.00701 2.2082 0
M  V30 20206 C 1874.47 0.696581 3.40651 0
M  V30 20207 H 1873.8 1.5115 3.70127 0
M  V30 20208 H 1875.24 0.598818 4.1975 0
M  V30 20209 C 1873.7 -0.5975 3.31559 0
M  V30 20210 O 1874.23 -1.63906 3.66739 0
M  V30 20211 N 1872.43 -0.583869 2.84674 0
M  V30 20212 H 1871.98 0.264102 2.56243 0
M  V30 20213 H 1871.94 -1.44987 2.78973 0
M  V30 20214 N 1875.71 -1.15554 1.07168 0
M  V30 20215 C 1876.96 -1.86296 0.793718 0
M  V30 20216 C 1877.28 -1.8222 -0.680145 0
M  V30 20217 O 1876.54 -1.23899 -1.51485 0
M  V30 20218 C 1876.84 -3.3502 1.24484 0
M  V30 20219 C 1876.5 -3.59292 2.72434 0
M  V30 20220 C 1875.17 -3.65625 3.12844 0
M  V30 20221 C 1877.52 -3.69147 3.6794 0
M  V30 20222 C 1874.85 -3.79323 4.47584 0
M  V30 20223 C 1877.2 -3.84368 5.02438 0
M  V30 20224 C 1875.86 -3.88946 5.42473 0
M  V30 20225 H 1875.13 -0.681707 0.290442 0
M  V30 20226 H 1877.78 -1.36575 1.34236 0
M  V30 20227 H 1876.08 -3.86934 0.615546 0
M  V30 20228 H 1877.78 -3.88158 1.00669 0
M  V30 20229 H 1874.37 -3.55002 2.40149 0
M  V30 20230 H 1878.55 -3.63556 3.37847 0
M  V30 20231 H 1873.81 -3.81124 4.78074 0
M  V30 20232 H 1877.98 -3.90935 5.76318 0
M  V30 20233 H 1875.61 -3.99312 6.4688 0
M  V30 20234 N 1877.19 -0.855519 -1.32358 0
M  V30 20235 C 1878.42 -0.473331 -2.01413 0
M  V30 20236 C 1878.83 0.930206 -1.64294 0
M  V30 20237 O 1878.19 1.60714 -0.864705 0
M  V30 20238 C 1878.24 -0.603815 -3.56422 0
M  V30 20239 O 1877.96 -1.95207 -3.92207 0
M  V30 20240 C 1879.46 -0.220748 -4.4275 0
M  V30 20241 H 1876.68 -0.185962 -0.644716 0
M  V30 20242 H 1879.22 -1.1527 -1.68918 0
M  V30 20243 H 1877.38 0.0278263 -3.8739 0
M  V30 20244 H 1877.79 -1.94946 -4.86925 0
M  V30 20245 H 1879.27 -0.363048 -5.50805 0
M  V30 20246 H 1879.74 0.838881 -4.31114 0
M  V30 20247 H 1880.35 -0.827498 -4.17172 0
M  V30 20248 N 1878.67 1.45167 -0.61354 0
M  V30 20249 C 1879.89 2.07076 -0.115821 0
M  V30 20250 C 1880.32 1.45415 1.19315 0
M  V30 20251 O 1879.67 0.549046 1.72786 0
M  V30 20252 C 1879.72 3.606 0.00406239 0
M  V30 20253 O 1878.83 3.98737 1.05273 0
M  V30 20254 H 1878.17 0.659547 -0.0767679 0
M  V30 20255 H 1880.7 1.86325 -0.845236 0
M  V30 20256 H 1880.71 4.07508 0.200356 0
M  V30 20257 H 1879.38 4.04865 -0.951695 0
M  V30 20258 H 1877.96 3.6349 0.832424 0
M  V30 20259 N 1880.14 0.353044 1.53595 0
M  V30 20260 C 1881.37 -0.241665 2.05484 0
M  V30 20261 C 1881.79 -1.43458 1.2274 0
M  V30 20262 O 1881.14 -1.80566 0.26501 0
M  V30 20263 C 1881.19 -0.647442 3.55655 0
M  V30 20264 O 1880.92 0.498047 4.3526 0
M  V30 20265 C 1882.42 -1.30187 4.23753 0
M  V30 20266 H 1879.64 -0.0449704 0.669491 0
M  V30 20267 H 1882.18 0.507783 1.98095 0
M  V30 20268 H 1880.34 -1.34682 3.63235 0
M  V30 20269 H 1880.75 0.172685 5.24216 0
M  V30 20270 H 1882.22 -1.53646 5.30186 0
M  V30 20271 H 1882.7 -2.25835 3.7669 0
M  V30 20272 H 1883.31 -0.644265 4.20392 0
M  V30 20273 N 1881.62 -1.57387 0.0818932 0
M  V30 20274 C 1882.85 -1.98201 -0.593645 0
M  V30 20275 C 1883.26 -0.960602 -1.62536 0
M  V30 20276 O 1882.62 0.0514903 -1.82427 0
M  V30 20277 C 1882.67 -3.39083 -1.2532 0
M  V30 20278 O 1882.39 -4.37311 -0.262763 0
M  V30 20279 C 1883.89 -3.94827 -2.0156 0
M  V30 20280 H 1881.11 -0.651606 -0.160159 0
M  V30 20281 H 1883.66 -2.03894 0.157281 0
M  V30 20282 H 1881.81 -3.34444 -1.95514 0
M  V30 20283 H 1882.23 -5.19294 -0.737169 0
M  V30 20284 H 1883.7 -4.95594 -2.43086 0
M  V30 20285 H 1884.18 -3.31921 -2.8762 0
M  V30 20286 H 1884.78 -4.02898 -1.36211 0
M  V30 20287 N 1883.1 0.191729 -1.56429 0
M  V30 20288 C 1884.35 0.912948 -1.81089 0
M  V30 20289 C 1884.68 1.82767 -0.656483 0
M  V30 20290 O 1883.95 1.91456 0.342779 0
M  V30 20291 C 1884.24 1.72628 -3.16025 0
M  V30 20292 C 1884.09 0.836045 -4.41962 0
M  V30 20293 C 1885.41 2.69818 -3.47687 0
M  V30 20294 H 1882.53 0.33046 -0.658761 0
M  V30 20295 H 1885.17 0.180148 -1.89144 0
M  V30 20296 H 1883.32 2.35102 -3.09289 0
M  V30 20297 H 1884.99 0.225751 -4.60747 0
M  V30 20298 H 1883.23 0.142944 -4.33564 0
M  V30 20299 H 1883.91 1.44019 -5.32881 0
M  V30 20300 H 1886.38 2.17475 -3.54745 0
M  V30 20301 H 1885.26 3.23806 -4.43216 0
M  V30 20302 H 1885.52 3.49028 -2.71352 0
M  V30 20303 N 1884.58 1.50751 0.459565 0
M  V30 20304 C 1885.52 1.70454 1.55609 0
M  V30 20305 C 1886.49 0.545921 1.56872 0
M  V30 20306 O 1887.68 0.777824 1.74226 0
M  V30 20307 C 1884.82 1.81524 2.93501 0
M  V30 20308 C 1883.93 3.08962 3.01938 0
M  V30 20309 C 1883.07 3.10758 4.30816 0
M  V30 20310 C 1882.11 4.32602 4.33038 0
M  V30 20311 N 1881.24 4.32073 5.53405 0
M  V30 20312 H 1886.08 2.64062 1.38112 0
M  V30 20313 H 1883.62 1.30889 0.671307 0
M  V30 20314 H 1885.58 1.85923 3.73481 0
M  V30 20315 H 1884.21 0.913445 3.09606 0
M  V30 20316 H 1883.26 3.13979 2.14759 0
M  V30 20317 H 1884.57 3.9892 2.9944 0
M  V30 20318 H 1883.73 3.13951 5.19153 0
M  V30 20319 H 1882.47 2.1865 4.3594 0
M  V30 20320 H 1881.47 4.2961 3.43097 0
M  V30 20321 H 1882.7 5.2595 4.29596 0
M  V30 20322 H 1880.64 3.42824 5.59292 0
M  V30 20323 H 1880.56 5.15814 5.52695 0
M  V30 20324 H 1881.83 4.39428 6.43835 0
M  V30 20325 N 1886.06 -0.713531 1.40522 0
M  V30 20326 C 1887.02 -1.80932 1.40699 0
M  V30 20327 C 1888.02 -1.57968 0.30045 0
M  V30 20328 O 1889.21 -1.64972 0.559456 0
M  V30 20329 C 1886.34 -3.19053 1.20075 0
M  V30 20330 H 1887.53 -1.82174 2.38228 0
M  V30 20331 H 1885.09 -0.919374 1.26401 0
M  V30 20332 H 1885.82 -3.23461 0.233137 0
M  V30 20333 H 1885.61 -3.37121 2.00229 0
M  V30 20334 H 1887.1 -3.99078 1.22991 0
M  V30 20335 N 1887.53 -1.26053 -0.945962 0
M  V30 20336 C 1888.5 -1.07262 -2.02553 0
M  V30 20337 C 1889.5 -0.0225237 -1.60784 0
M  V30 20338 O 1890.69 -0.265501 -1.72165 0
M  V30 20339 C 1887.82 -0.63045 -3.3502 0
M  V30 20340 H 1889.01 -2.03105 -2.20655 0
M  V30 20341 H 1886.56 -1.08582 -1.12426 0
M  V30 20342 H 1887.3 0.330188 -3.22615 0
M  V30 20343 H 1887.08 -1.38863 -3.66687 0
M  V30 20344 H 1888.57 -0.520674 -4.14341 0
M  V30 20345 N 1889.01 1.14984 -1.07779 0
M  V30 20346 C 1890.25 1.87536 -0.813003 0
M  V30 20347 C 1890.62 1.80691 0.649222 0
M  V30 20348 O 1891.82 2.48314 1.02924 0
M  V30 20349 C 1890.09 3.32424 -1.3126 0
M  V30 20350 S 1891.65 4.2266 -1.17914 0
M  V30 20351 H 1888.46 0.647142 -0.294496 0
M  V30 20352 H 1891.07 1.387 -1.37778 0
M  V30 20353 H 1889.77 3.34952 -2.3714 0
M  V30 20354 H 1889.3 3.86316 -0.743218 0
M  V30 20355 H 1891.32 4.96056 -0.119394 0
M  V30 20356 N 1890.49 0.862526 1.31902 0
M  V30 20357 C 1891.74 0.479773 1.97661 0
M  V30 20358 C 1892.09 -0.955796 1.6698 0
M  V30 20359 O 1891.38 -1.66282 0.951884 0
M  V30 20360 C 1891.58 0.664872 3.51161 0
M  V30 20361 C 1891.41 2.11688 3.9676 0
M  V30 20362 C 1890.18 2.75698 4.2346 0
M  V30 20363 C 1892.37 3.08835 4.11249 0
M  V30 20364 N 1890.36 4.11728 4.5536 0
M  V30 20365 C 1891.73 4.29874 4.46776 0
M  V30 20366 C 1893.78 3.04925 3.93606 0
M  V30 20367 C 1892.49 5.47512 4.66501 0
M  V30 20368 C 1894.51 4.21814 4.1452 0
M  V30 20369 C 1893.87 5.41614 4.50371 0
M  V30 20370 H 1889.97 0.224454 0.749096 0
M  V30 20371 H 1892.56 1.11557 1.59572 0
M  V30 20372 H 1890.73 0.0587253 3.88356 0
M  V30 20373 H 1892.46 0.25124 4.03919 0
M  V30 20374 H 1889.21 2.2669 4.15823 0
M  V30 20375 H 1889.64 4.81918 4.75483 0
M  V30 20376 H 1894.28 2.13419 3.64983 0
M  V30 20377 H 1892 6.39542 4.93975 0
M  V30 20378 H 1895.58 4.20233 4.02362 0
M  V30 20379 H 1894.46 6.30557 4.66227 0
M  V30 20380 N 1891.97 -1.4484 0.62123 0
M  V30 20381 C 1893.21 -2.02981 0.130446 0
M  V30 20382 C 1893.57 -1.47918 -1.23036 0
M  V30 20383 O 1892.86 -0.649739 -1.80247 0
M  V30 20384 C 1893.06 -3.57369 0.0470922 0
M  V30 20385 C 1892.89 -4.27409 1.39827 0
M  V30 20386 C 1891.66 -4.64785 1.98251 0
M  V30 20387 C 1893.85 -4.58492 2.33 0
M  V30 20388 N 1891.84 -5.19746 3.26707 0
M  V30 20389 C 1893.21 -5.14431 3.46064 0
M  V30 20390 C 1895.26 -4.40439 2.32203 0
M  V30 20391 C 1893.96 -5.54218 4.58514 0
M  V30 20392 C 1895.99 -4.81267 3.43709 0
M  V30 20393 C 1895.35 -5.37311 4.55496 0
M  V30 20394 H 1891.45 -0.776638 0.0914226 0
M  V30 20395 H 1894.04 -1.76471 0.822563 0
M  V30 20396 H 1892.21 -3.83512 -0.61428 0
M  V30 20397 H 1893.94 -4.02172 -0.451606 0
M  V30 20398 H 1890.69 -4.48781 1.51304 0
M  V30 20399 H 1891.12 -5.51712 3.92356 0
M  V30 20400 H 1895.76 -3.96411 1.47031 0
M  V30 20401 H 1893.48 -5.97205 5.44401 0
M  V30 20402 H 1897.06 -4.69019 3.44256 0
M  V30 20403 H 1895.94 -5.68321 5.40353 0
M  V30 20404 N 1893.45 -0.361184 -1.53405 0
M  V30 20405 C 1894.41 0.475026 -2.24223 0
M  V30 20406 C 1895.41 1.01331 -1.24855 0
M  V30 20407 O 1896.6 0.899756 -1.49164 0
M  V30 20408 C 1893.73 1.6635 -2.97557 0
M  V30 20409 H 1894.92 -0.144595 -2.99551 0
M  V30 20410 H 1892.48 -0.112802 -1.55892 0
M  V30 20411 H 1893.21 2.32133 -2.26461 0
M  V30 20412 H 1893 1.28454 -3.70462 0
M  V30 20413 H 1894.49 2.2562 -3.51405 0
M  V30 20414 N 1894.92 1.57341 -0.0902386 0
M  V30 20415 C 1896.17 1.93793 0.573474 0
M  V30 20416 C 1896.49 0.972444 1.69022 0
M  V30 20417 O 1895.76 0.0236753 1.95886 0
M  V30 20418 H 1894.34 0.715442 0.21483 0
M  V30 20419 H 1897.01 1.94303 -0.15243 0
M  V30 20420 H 1896.1 2.96088 0.986829 0
M  V30 20421 N 1896.4 -0.183431 1.56529 0
M  V30 20422 C 1897.65 -0.900237 1.80495 0
M  V30 20423 C 1897.96 -1.83932 0.665454 0
M  V30 20424 O 1899.17 -2.59761 0.789728 0
M  V30 20425 C 1897.63 -1.65125 3.19784 0
M  V30 20426 C 1897.23 -0.756411 4.41568 0
M  V30 20427 C 1898.98 -2.357 3.53052 0
M  V30 20428 C 1896.89 -1.50696 5.71878 0
M  V30 20429 H 1895.82 -0.339898 0.673042 0
M  V30 20430 H 1898.47 -0.153327 1.82858 0
M  V30 20431 H 1896.85 -2.44248 3.11703 0
M  V30 20432 H 1898.02 -0.00301509 4.608 0
M  V30 20433 H 1896.34 -0.160916 4.16089 0
M  V30 20434 H 1898.93 -2.92426 4.4765 0
M  V30 20435 H 1899.28 -3.10454 2.77352 0
M  V30 20436 H 1899.81 -1.63533 3.62632 0
M  V30 20437 H 1896.55 -0.801985 6.50575 0
M  V30 20438 H 1896.07 -2.23399 5.56644 0
M  V30 20439 H 1897.75 -2.05768 6.13407 0
M  V30 20440 N 1897.88 -1.50992 -0.451564 0
M  V30 20441 C 1898.83 -1.71277 -1.54703 0
M  V30 20442 C 1899.8 -0.554233 -1.56581 0
M  V30 20443 O 1900.98 -0.787053 -1.73811 0
M  V30 20444 C 1898.12 -1.83078 -2.92535 0
M  V30 20445 C 1897.24 -3.10559 -3.00295 0
M  V30 20446 C 1896.37 -3.13039 -4.29162 0
M  V30 20447 C 1895.41 -4.34893 -4.30737 0
M  V30 20448 N 1894.55 -4.35002 -5.51106 0
M  V30 20449 H 1899.39 -2.64791 -1.3671 0
M  V30 20450 H 1896.92 -1.31243 -0.664356 0
M  V30 20451 H 1898.88 -1.87901 -3.7249 0
M  V30 20452 H 1897.51 -0.929851 -3.09117 0
M  V30 20453 H 1896.56 -3.15113 -2.13091 0
M  V30 20454 H 1897.88 -4.00503 -2.9732 0
M  V30 20455 H 1897.03 -3.167 -5.17481 0
M  V30 20456 H 1895.77 -2.20959 -4.34774 0
M  V30 20457 H 1894.77 -4.31423 -3.40814 0
M  V30 20458 H 1896 -5.28221 -4.26801 0
M  V30 20459 H 1893.94 -3.45785 -5.57466 0
M  V30 20460 H 1893.86 -5.18738 -5.49952 0
M  V30 20461 H 1895.13 -4.42836 -6.41496 0
M  V30 20462 N 1899.36 0.706069 -1.40899 0
M  V30 20463 C 1900.29 1.83119 -1.37841 0
M  V30 20464 C 1901.3 1.60335 -0.282253 0
M  V30 20465 O 1902.49 1.70032 -0.543263 0
M  V30 20466 C 1899.59 3.19696 -1.12461 0
M  V30 20467 C 1898.77 3.69598 -2.33915 0
M  V30 20468 C 1897.82 4.84815 -2.04551 0
M  V30 20469 O 1896.85 4.96973 -2.775 0
M  V30 20470 N 1898.05 5.71302 -1.0293 0
M  V30 20471 H 1900.82 1.86237 -2.34811 0
M  V30 20472 H 1898.38 0.887984 -1.35375 0
M  V30 20473 H 1900.37 3.94386 -0.90786 0
M  V30 20474 H 1898.94 3.11668 -0.241258 0
M  V30 20475 H 1898.16 2.85933 -2.7136 0
M  V30 20476 H 1899.45 3.99674 -3.14862 0
M  V30 20477 H 1898.85 5.64099 -0.425314 0
M  V30 20478 H 1897.4 6.45935 -0.872446 0
M  V30 20479 N 1900.84 1.26553 0.939264 0
M  V30 20480 C 1901.75 1.10059 2.07181 0
M  V30 20481 C 1902.76 0.033599 1.73968 0
M  V30 20482 O 1903.94 0.237723 1.99992 0
M  V30 20483 C 1901 0.737342 3.38769 0
M  V30 20484 C 1900.06 1.88395 3.85753 0
M  V30 20485 C 1899.3 1.53794 5.11061 0
M  V30 20486 O 1899.52 0.440543 5.68696 0
M  V30 20487 O 1898.45 2.37332 5.53134 0
M  V30 20488 H 1902.28 2.05075 2.24004 0
M  V30 20489 H 1899.87 1.05633 1.05651 0
M  V30 20490 H 1901.75 0.547578 4.17827 0
M  V30 20491 H 1900.42 -0.183404 3.2318 0
M  V30 20492 H 1899.33 2.1287 3.07632 0
M  V30 20493 H 1900.66 2.78449 4.05865 0
M  V30 20494 N 1902.31 -1.14411 1.08387 0
M  V30 20495 C 1903.56 -1.85444 0.813433 0
M  V30 20496 C 1903.89 -1.82932 -0.66078 0
M  V30 20497 O 1903.14 -1.25498 -1.50162 0
M  V30 20498 C 1903.44 -3.33681 1.2803 0
M  V30 20499 C 1903.11 -3.56382 2.76229 0
M  V30 20500 C 1901.77 -3.62286 3.16705 0
M  V30 20501 C 1904.12 -3.65224 3.71835 0
M  V30 20502 C 1901.45 -3.74554 4.51582 0
M  V30 20503 C 1903.8 -3.79017 5.06487 0
M  V30 20504 C 1902.47 -3.8317 5.46568 0
M  V30 20505 H 1901.74 -0.678588 0.297656 0
M  V30 20506 H 1904.38 -1.35144 1.35677 0
M  V30 20507 H 1902.69 -3.8626 0.656551 0
M  V30 20508 H 1904.39 -3.87068 1.04781 0
M  V30 20509 H 1900.98 -3.52435 2.43901 0
M  V30 20510 H 1905.16 -3.59952 3.41684 0
M  V30 20511 H 1900.42 -3.76032 4.82089 0
M  V30 20512 H 1904.59 -3.84801 5.80432 0
M  V30 20513 H 1902.22 -3.92429 6.51079 0
M  V30 20514 N 1903.79 -0.869509 -1.31443 0
M  V30 20515 C 1905.04 -0.479265 -1.96335 0
M  V30 20516 C 1905.36 0.971583 -1.69072 0
M  V30 20517 O 1904.63 1.68104 -1.00588 0
M  V30 20518 H 1903.21 -0.174241 -0.726394 0
M  V30 20519 H 1905.87 -1.1092 -1.60259 0
M  V30 20520 H 1904.97 -0.636628 -3.05538 0
M  V30 20521 N 1905.27 1.44508 -0.628902 0
M  V30 20522 C 1906.52 2.01281 -0.129966 0
M  V30 20523 C 1906.83 1.50041 1.25488 0
M  V30 20524 O 1908.04 1.98927 1.84771 0
M  V30 20525 C 1906.49 3.59442 -0.1816 0
M  V30 20526 C 1906.1 4.19678 -1.56762 0
M  V30 20527 C 1907.85 4.23697 0.260988 0
M  V30 20528 C 1905.75 5.70056 -1.57449 0
M  V30 20529 H 1904.68 0.752667 -0.0448215 0
M  V30 20530 H 1907.33 1.65749 -0.787372 0
M  V30 20531 H 1905.72 3.92261 0.542864 0
M  V30 20532 H 1906.89 3.98399 -2.31549 0
M  V30 20533 H 1905.21 3.67701 -1.9541 0
M  V30 20534 H 1907.8 5.33991 0.275356 0
M  V30 20535 H 1908.15 3.95878 1.28787 0
M  V30 20536 H 1908.68 3.95672 -0.410909 0
M  V30 20537 H 1905.42 6.02606 -2.57966 0
M  V30 20538 H 1904.94 5.93464 -0.869514 0
M  V30 20539 H 1906.62 6.33652 -1.30745 0
M  V30 20540 N 1906.75 0.369315 1.53212 0
M  V30 20541 C 1908.16 -0.10909 1.86381 0
M  V30 20542 C 1908.51 -1.47849 1.28977 0
M  V30 20543 O 1907.64 -2.07528 0.613267 0
M  V30 20544 C 1908.23 -0.204726 3.38181 0
M  V30 20545 C 1906.79 -0.627391 3.71134 0
M  V30 20546 C 1905.94 0.223086 2.76401 0
M  V30 20547 H 1908.89 0.587967 1.47406 0
M  V30 20548 H 1908.91 -1.02761 3.66361 0
M  V30 20549 H 1908.42 0.792082 3.79931 0
M  V30 20550 H 1906.52 -1.63229 3.34943 0
M  V30 20551 H 1906.64 -0.39941 4.77432 0
M  V30 20552 H 1905 -0.308608 2.52823 0
M  V30 20553 H 1905.78 1.2175 3.20986 0
M  V30 20554 N 1908.23 -1.57291 0.0985816 0
M  V30 20555 C 1909.46 -1.98531 -0.57176 0
M  V30 20556 C 1909.87 -0.976619 -1.62046 0
M  V30 20557 O 1909.21 0.041533 -1.83653 0
M  V30 20558 C 1909.27 -3.36149 -1.27452 0
M  V30 20559 C 1908.93 -4.55449 -0.376176 0
M  V30 20560 C 1909.93 -5.18531 0.377078 0
M  V30 20561 C 1907.62 -5.01443 -0.293213 0
M  V30 20562 C 1909.61 -6.25978 1.20124 0
M  V30 20563 C 1907.3 -6.08757 0.534594 0
M  V30 20564 C 1908.3 -6.7089 1.28047 0
M  V30 20565 O 1907.98 -7.76133 2.09457 0
M  V30 20566 H 1907.72 -0.657356 -0.15767 0
M  V30 20567 H 1910.27 -2.04648 0.175593 0
M  V30 20568 H 1908.5 -3.26725 -2.06852 0
M  V30 20569 H 1910.19 -3.61813 -1.83974 0
M  V30 20570 H 1910.95 -4.83925 0.322736 0
M  V30 20571 H 1906.83 -4.52842 -0.863429 0
M  V30 20572 H 1910.38 -6.74405 1.7839 0
M  V30 20573 H 1906.27 -6.42794 0.590404 0
M  V30 20574 H 1907.04 -7.93137 2.02177 0
M  V30 20575 N 1909.71 0.175127 -1.56624 0
M  V30 20576 C 1910.65 1.23623 -1.97028 0
M  V30 20577 C 1911.65 1.46036 -0.858485 0
M  V30 20578 O 1912.85 1.46661 -1.04358 0
M  V30 20579 H 1909.23 0.415474 -0.626806 0
M  V30 20580 H 1911.2 0.86857 -2.85479 0
M  V30 20581 C 1909.95 2.56896 -2.34307 0
M  V30 20582 H 1909.27 2.40471 -3.19396 0
M  V30 20583 H 1910.71 3.29839 -2.66425 0
M  V30 20584 C 1909.17 3.15369 -1.18506 0
M  V30 20585 O 1909.7 3.98933 -0.470694 0
M  V30 20586 N 1907.91 2.74403 -0.956625 0
M  V30 20587 H 1907.45 2.06551 -1.5393 0
M  V30 20588 H 1907.41 3.13863 -0.183647 0
M  V30 20589 N 1911.18 1.5123 0.44355 0
M  V30 20590 C 1912.59 1.56137 1.02362 0
M  V30 20591 C 1912.95 0.381135 1.92462 0
M  V30 20592 O 1912.07 -0.502817 2.10477 0
M  V30 20593 C 1912.67 2.82967 1.8632 0
M  V30 20594 C 1911.22 2.90466 2.39388 0
M  V30 20595 C 1910.37 2.50735 1.18438 0
M  V30 20596 H 1913.32 1.57096 0.22506 0
M  V30 20597 H 1913.34 2.66378 2.71704 0
M  V30 20598 H 1912.86 3.68848 1.20717 0
M  V30 20599 H 1910.96 2.09 3.08463 0
M  V30 20600 H 1911.07 3.9398 2.7261 0
M  V30 20601 H 1909.43 2.03792 1.52778 0
M  V30 20602 H 1910.22 3.38954 0.544549 0
M  V30 20603 N 1912.66 -0.698586 1.41271 0
M  V30 20604 C 1913.59 -1.82385 1.38811 0
M  V30 20605 C 1914.61 -1.60183 0.290752 0
M  V30 20606 O 1915.8 -1.69742 0.552272 0
M  V30 20607 C 1912.9 -3.19095 1.14155 0
M  V30 20608 C 1912.07 -3.68352 2.35872 0
M  V30 20609 C 1911.13 -4.83723 2.07119 0
M  V30 20610 O 1910.15 -4.95495 2.80132 0
M  V30 20611 N 1911.36 -5.70748 1.05958 0
M  V30 20612 H 1914.12 -1.84989 2.35795 0
M  V30 20613 H 1911.68 -0.880792 1.35844 0
M  V30 20614 H 1913.67 -3.93899 0.928763 0
M  V30 20615 H 1912.24 -3.11535 0.257783 0
M  V30 20616 H 1911.46 -2.8449 2.72872 0
M  V30 20617 H 1912.75 -3.97999 3.16977 0
M  V30 20618 H 1912.15 -5.63865 0.455223 0
M  V30 20619 H 1910.71 -6.45463 0.906689 0
M  V30 20620 N 1914.14 -1.27049 -0.93254 0
M  V30 20621 C 1915.36 -1.16011 -1.71919 0
M  V30 20622 C 1915.79 0.279951 -1.86005 0
M  V30 20623 O 1915.15 1.20279 -1.35657 0
M  V30 20624 C 1915.2 -1.84349 -3.09916 0
M  V30 20625 O 1914.3 -1.13816 -3.96383 0
M  V30 20626 H 1913.64 -0.403752 -0.527144 0
M  V30 20627 H 1916.17 -1.6803 -1.16736 0
M  V30 20628 H 1916.18 -1.91516 -3.60258 0
M  V30 20629 H 1914.86 -2.89109 -2.9898 0
M  V30 20630 H 1913.43 -1.14684 -3.54827 0
M  V30 20631 N 1915.62 1.13835 -1.08993 0
M  V30 20632 C 1916.55 2.18781 -0.683177 0
M  V30 20633 C 1917.56 1.60499 0.272748 0
M  V30 20634 O 1918.75 1.78401 0.059482 0
M  V30 20635 C 1915.85 3.38897 0.0146723 0
M  V30 20636 C 1915.02 4.26697 -0.961666 0
M  V30 20637 C 1914.08 5.25355 -0.298041 0
M  V30 20638 O 1913.11 5.61312 -0.944303 0
M  V30 20639 N 1914.31 5.7268 0.949645 0
M  V30 20640 H 1917.08 2.54293 -1.58605 0
M  V30 20641 H 1914.64 1.29114 -0.976792 0
M  V30 20642 H 1916.63 4.01965 0.469724 0
M  V30 20643 H 1915.2 3.01661 0.819722 0
M  V30 20644 H 1914.42 3.60473 -1.5954 0
M  V30 20645 H 1915.71 4.82218 -1.62305 0
M  V30 20646 H 1915.11 5.45606 1.49433 0
M  V30 20647 H 1913.66 6.37707 1.34809 0
M  V30 20648 N 1917.1 0.876467 1.3098 0
M  V30 20649 C 1918.34 0.489671 1.96078 0
M  V30 20650 C 1918.66 -0.962603 1.69585 0
M  V30 20651 O 1917.93 -1.67568 1.01478 0
M  V30 20652 H 1916.51 0.178091 0.72546 0
M  V30 20653 H 1919.18 1.11768 1.59668 0
M  V30 20654 H 1918.27 0.652822 3.05196 0
M  V30 20655 N 1918.57 -1.44173 0.636557 0
M  V30 20656 C 1919.82 -2.02292 0.143429 0
M  V30 20657 C 1920.15 -1.49996 -1.23348 0
M  V30 20658 O 1919.43 -0.686228 -1.81992 0
M  V30 20659 C 1919.71 -3.59843 0.136025 0
M  V30 20660 C 1919.56 -4.22409 1.54566 0
M  V30 20661 C 1920.88 -4.36817 -0.536538 0
M  V30 20662 H 1918 -0.735049 0.0535939 0
M  V30 20663 H 1920.64 -1.71677 0.814066 0
M  V30 20664 H 1918.79 -3.86056 -0.435048 0
M  V30 20665 H 1920.47 -4.07284 2.16604 0
M  V30 20666 H 1918.71 -3.79696 2.09793 0
M  V30 20667 H 1919.38 -5.31441 1.49247 0
M  V30 20668 H 1921.86 -4.16069 -0.0508327 0
M  V30 20669 H 1920.73 -5.46517 -0.510926 0
M  V30 20670 H 1920.99 -4.11827 -1.60783 0
M  V30 20671 N 1920.05 -0.377435 -1.53014 0
M  V30 20672 C 1921.3 0.208838 -2.01722 0
M  V30 20673 C 1921.63 1.47446 -1.26385 0
M  V30 20674 O 1920.91 1.91122 -0.360903 0
M  V30 20675 C 1921.19 0.4888 -3.56767 0
M  V30 20676 C 1921.04 -0.791285 -4.42785 0
M  V30 20677 C 1922.36 1.28443 -4.2094 0
M  V30 20678 H 1919.48 0.0744281 -0.733232 0
M  V30 20679 H 1922.12 -0.504664 -1.83175 0
M  V30 20680 H 1920.27 1.09662 -3.72702 0
M  V30 20681 H 1921.94 -1.42848 -4.38625 0
M  V30 20682 H 1920.19 -1.40914 -4.10275 0
M  V30 20683 H 1920.86 -0.550199 -5.49251 0
M  V30 20684 H 1923.33 0.770147 -4.08911 0
M  V30 20685 H 1922.21 1.44906 -5.29427 0
M  V30 20686 H 1922.47 2.29631 -3.77786 0
M  V30 20687 N 1921.53 1.57237 -0.106922 0
M  V30 20688 C 1922.44 2.18202 0.861685 0
M  V30 20689 C 1923.46 1.15476 1.30159 0
M  V30 20690 O 1924.63 1.47896 1.36707 0
M  V30 20691 C 1921.7 2.7598 2.09847 0
M  V30 20692 C 1920.76 3.93702 1.71164 0
M  V30 20693 C 1919.99 4.48716 2.88946 0
M  V30 20694 O 1920.21 4.02645 4.04021 0
M  V30 20695 O 1919.15 5.39573 2.66729 0
M  V30 20696 H 1922.97 3.01402 0.372924 0
M  V30 20697 H 1920.56 1.48933 0.118058 0
M  V30 20698 H 1922.44 3.12861 2.82305 0
M  V30 20699 H 1921.12 1.9582 2.57753 0
M  V30 20700 H 1920.02 3.61613 0.958499 0
M  V30 20701 H 1921.36 4.75262 1.28011 0
M  V30 20702 N 1923.01 -0.166818 1.56715 0
M  V30 20703 C 1924.23 -0.902208 1.86748 0
M  V30 20704 C 1924.66 -1.74838 0.693767 0
M  V30 20705 O 1924.02 -1.77749 -0.35708 0
M  V30 20706 C 1924.06 -1.75107 3.1523 0
M  V30 20707 O 1923.17 -2.85319 2.9777 0
M  V30 20708 H 1922.51 -0.252474 0.614128 0
M  V30 20709 H 1925.04 -0.163603 2.03945 0
M  V30 20710 H 1925.05 -2.15009 3.46749 0
M  V30 20711 H 1923.72 -1.12955 4.00267 0
M  V30 20712 H 1922.3 -2.48967 2.77615 0
M  V30 20713 N 1924.49 -1.51463 -0.435524 0
M  V30 20714 C 1925.42 -1.67594 -1.54879 0
M  V30 20715 C 1926.4 -0.523516 -1.53942 0
M  V30 20716 O 1927.58 -0.747582 -1.73042 0
M  V30 20717 C 1924.71 -1.69117 -2.93457 0
M  V30 20718 C 1923.75 -2.90346 -3.12413 0
M  V30 20719 S 1924.59 -4.51129 -2.88518 0
M  V30 20720 C 1925.74 -4.554 -4.29374 0
M  V30 20721 H 1925.98 -2.61757 -1.40963 0
M  V30 20722 H 1923.51 -1.4117 -0.625338 0
M  V30 20723 H 1925.47 -1.70679 -3.73335 0
M  V30 20724 H 1924.13 -0.761275 -3.04735 0
M  V30 20725 H 1923.32 -2.87818 -4.13735 0
M  V30 20726 H 1922.92 -2.86534 -2.40362 0
M  V30 20727 H 1925.22 -4.31152 -5.22603 0
M  V30 20728 H 1926.16 -5.5722 -4.36935 0
M  V30 20729 H 1926.57 -3.84704 -4.13113 0
M  V30 20730 N 1925.96 0.691085 -1.4164 0
M  V30 20731 C 1926.91 1.82625 -1.44051 0
M  V30 20732 C 1927.91 1.66388 -0.318032 0
M  V30 20733 O 1929.11 1.73194 -0.490276 0
M  V30 20734 H 1925.49 0.601889 -0.450815 0
M  V30 20735 H 1927.46 1.77709 -2.39713 0
M  V30 20736 C 1926.21 3.20676 -1.34395 0
M  V30 20737 H 1925.53 3.3379 -2.20056 0
M  V30 20738 H 1926.97 4.0017 -1.40143 0
M  V30 20739 C 1925.43 3.36852 -0.0568027 0
M  V30 20740 O 1925.96 3.91562 0.896762 0
M  V30 20741 N 1924.17 2.90593 0.0207452 0
M  V30 20742 H 1923.71 2.46257 -0.755995 0
M  V30 20743 H 1923.67 3.01794 0.88136 0
M  V30 20744 N 1927.44 1.27542 0.925789 0
M  V30 20745 C 1928.39 1.10271 2.048 0
M  V30 20746 C 1929.38 0.0252694 1.69381 0
M  V30 20747 O 1930.59 0.183134 1.79066 0
M  V30 20748 H 1926.97 0.339845 0.670828 0
M  V30 20749 H 1928.94 2.0534 2.16513 0
M  V30 20750 C 1927.69 0.768681 3.39097 0
M  V30 20751 H 1927.01 1.58967 3.66837 0
M  V30 20752 H 1928.45 0.687719 4.18386 0
M  V30 20753 C 1926.91 -0.527037 3.32752 0
M  V30 20754 O 1927.44 -1.5609 3.70134 0
M  V30 20755 N 1925.64 -0.523354 2.85848 0
M  V30 20756 H 1925.19 0.318395 2.55625 0
M  V30 20757 H 1925.15 -1.39037 2.81986 0
M  V30 20758 N 1928.92 -1.13255 1.09595 0
M  V30 20759 C 1929.83 -2.22321 0.74904 0
M  V30 20760 C 1930.85 -1.72198 -0.24974 0
M  V30 20761 O 1932.02 -2.01196 -0.090652 0
M  V30 20762 C 1929.09 -3.4625 0.17665 0
M  V30 20763 C 1928.15 -4.11254 1.2316 0
M  V30 20764 C 1927.38 -5.29267 0.686427 0
M  V30 20765 O 1927.6 -5.68291 -0.490088 0
M  V30 20766 O 1926.54 -5.84365 1.44227 0
M  V30 20767 H 1930.36 -2.5437 1.6592 0
M  V30 20768 H 1927.95 -1.21422 0.870465 0
M  V30 20769 H 1929.83 -4.2117 -0.139147 0
M  V30 20770 H 1928.51 -3.15896 -0.706492 0
M  V30 20771 H 1927.41 -3.38152 1.60012 0
M  V30 20772 H 1928.75 -4.45743 2.08745 0
M  V30 20773 N 1930.4 -0.883401 -1.30514 0
M  V30 20774 C 1931.33 -0.36516 -2.30627 0
M  V30 20775 C 1932.31 0.551149 -1.60923 0
M  V30 20776 O 1933.49 0.465333 -1.88543 0
M  V30 20777 C 1930.62 0.422552 -3.4472 0
M  V30 20778 C 1929.58 -0.401856 -4.26109 0
M  V30 20779 C 1928.9 0.512363 -5.3224 0
M  V30 20780 C 1930.2 -1.64313 -4.95781 0
M  V30 20781 H 1931.9 -1.20175 -2.74223 0
M  V30 20782 H 1929.44 -0.579315 -1.31833 0
M  V30 20783 H 1931.4 0.795726 -4.13819 0
M  V30 20784 H 1930.12 1.29278 -2.99925 0
M  V30 20785 H 1928.78 -0.75715 -3.58696 0
M  V30 20786 H 1928.43 1.38025 -4.83692 0
M  V30 20787 H 1928.13 -0.0354331 -5.87589 0
M  V30 20788 H 1929.65 0.882088 -6.04195 0
M  V30 20789 H 1931.07 -1.34063 -5.57405 0
M  V30 20790 H 1929.46 -2.13101 -5.60989 0
M  V30 20791 H 1930.53 -2.38843 -4.21998 0
M  V30 20792 N 1931.88 1.43833 -0.644194 0
M  V30 20793 C 1932.82 2.30739 0.0528797 0
M  V30 20794 C 1933.79 1.44234 0.823751 0
M  V30 20795 O 1934.98 1.73118 0.802171 0
M  V30 20796 C 1932.12 3.29695 1.01956 0
M  V30 20797 C 1931.23 4.31301 0.245734 0
M  V30 20798 C 1930.37 5.17343 1.2054 0
M  V30 20799 C 1929.41 6.10647 0.421486 0
M  V30 20800 N 1928.54 6.89344 1.33228 0
M  V30 20801 H 1933.38 2.89803 -0.694123 0
M  V30 20802 H 1930.92 1.42775 -0.354069 0
M  V30 20803 H 1932.88 3.85568 1.59353 0
M  V30 20804 H 1931.51 2.72302 1.73354 0
M  V30 20805 H 1930.56 3.77795 -0.44438 0
M  V30 20806 H 1931.87 4.97468 -0.364231 0
M  V30 20807 H 1931.03 5.77797 1.85029 0
M  V30 20808 H 1929.76 4.51279 1.84928 0
M  V30 20809 H 1928.77 5.4929 -0.236816 0
M  V30 20810 H 1929.99 6.7875 -0.217862 0
M  V30 20811 H 1927.94 6.25937 1.96312 0
M  V30 20812 H 1927.86 7.52 0.776653 0
M  V30 20813 H 1929.13 7.54311 1.9656 0
M  V30 20814 N 1933.35 0.385544 1.52811 0
M  V30 20815 C 1934.3 -0.451417 2.26342 0
M  V30 20816 C 1935.27 -1.06094 1.27801 0
M  V30 20817 O 1936.46 -1.08968 1.56623 0
M  V30 20818 C 1933.6 -1.57477 3.07075 0
M  V30 20819 C 1932.71 -0.988468 4.20539 0
M  V30 20820 C 1931.84 -2.08256 4.88675 0
M  V30 20821 C 1930.88 -1.47196 5.94138 0
M  V30 20822 N 1930.02 -2.5052 6.55884 0
M  V30 20823 H 1934.86 0.182092 2.97443 0
M  V30 20824 H 1932.4 0.101628 1.46749 0
M  V30 20825 H 1934.36 -2.23677 3.52171 0
M  V30 20826 H 1932.99 -2.17864 2.38191 0
M  V30 20827 H 1932.04 -0.216168 3.79785 0
M  V30 20828 H 1933.35 -0.502223 4.96265 0
M  V30 20829 H 1932.5 -2.82235 5.37055 0
M  V30 20830 H 1931.24 -2.60239 4.12464 0
M  V30 20831 H 1930.25 -0.717401 5.45099 0
M  V30 20832 H 1931.47 -0.960124 6.72279 0
M  V30 20833 H 1929.42 -3.0168 5.82516 0
M  V30 20834 H 1929.34 -2.0664 7.27211 0
M  V30 20835 H 1930.6 -3.24141 7.0891 0
M  V30 20836 N 1934.83 -1.57178 0.115259 0
M  V30 20837 C 1936.08 -1.94241 -0.54344 0
M  V30 20838 C 1936.39 -1.0006 -1.68069 0
M  V30 20839 O 1937.6 -1.26574 -2.4019 0
M  V30 20840 C 1936.06 -3.45199 -1.0181 0
M  V30 20841 C 1935.66 -4.47909 0.0904861 0
M  V30 20842 C 1937.41 -3.91188 -1.64839 0
M  V30 20843 C 1935.32 -5.90041 -0.400667 0
M  V30 20844 H 1934.25 -0.725092 -0.206778 0
M  V30 20845 H 1936.9 -1.82466 0.194509 0
M  V30 20846 H 1935.28 -3.52196 -1.81036 0
M  V30 20847 H 1936.45 -4.52577 0.866638 0
M  V30 20848 H 1934.77 -4.11649 0.627197 0
M  V30 20849 H 1937.36 -4.94792 -2.02694 0
M  V30 20850 H 1937.71 -3.30955 -2.52536 0
M  V30 20851 H 1938.24 -3.86977 -0.92161 0
M  V30 20852 H 1934.98 -6.54021 0.440159 0
M  V30 20853 H 1934.5 -5.88801 -1.14338 0
M  V30 20854 H 1936.18 -6.41217 -0.863111 0
M  V30 20855 N 1936.31 0.158505 -1.56801 0
M  V30 20856 C 1937.56 0.871408 -1.81905 0
M  V30 20857 C 1937.87 1.8285 -0.694632 0
M  V30 20858 O 1939.08 2.58471 -0.830953 0
M  V30 20859 C 1937.54 1.60017 -3.2237 0
M  V30 20860 C 1937.14 0.686065 -4.42716 0
M  V30 20861 C 1938.89 2.30054 -3.56757 0
M  V30 20862 C 1936.79 1.41579 -5.74203 0
M  V30 20863 H 1935.72 0.329148 -0.678364 0
M  V30 20864 H 1938.38 0.124216 -1.83079 0
M  V30 20865 H 1936.76 2.39258 -3.1555 0
M  V30 20866 H 1937.93 -0.0702946 -4.60746 0
M  V30 20867 H 1936.25 0.0947 -4.16292 0
M  V30 20868 H 1938.84 2.85268 -4.52246 0
M  V30 20869 H 1939.19 3.06002 -2.82256 0
M  V30 20870 H 1939.72 1.57744 -3.65187 0
M  V30 20871 H 1936.46 0.698382 -6.51769 0
M  V30 20872 H 1935.98 2.14515 -5.60128 0
M  V30 20873 H 1937.66 1.95983 -6.16603 0
M  V30 20874 N 1937.79 1.51692 0.427485 0
M  V30 20875 C 1939.04 1.64521 1.17376 0
M  V30 20876 C 1939.36 0.368482 1.91487 0
M  V30 20877 O 1938.63 -0.616035 1.85962 0
M  V30 20878 H 1937.21 0.606362 0.436273 0
M  V30 20879 H 1939.87 1.88662 0.489152 0
M  V30 20880 H 1938.97 2.47759 1.89794 0
M  V30 20881 N 1939.27 -0.683564 1.42004 0
M  V30 20882 C 1940.2 -1.80902 1.40737 0
M  V30 20883 C 1941.21 -1.59865 0.307725 0
M  V30 20884 O 1942.4 -1.69146 0.570244 0
M  V30 20885 C 1939.5 -3.17867 1.17533 0
M  V30 20886 C 1938.67 -3.65829 2.39766 0
M  V30 20887 C 1937.73 -4.81499 2.12238 0
M  V30 20888 O 1936.76 -4.92495 2.85371 0
M  V30 20889 N 1937.96 -5.69592 1.12006 0
M  V30 20890 H 1940.73 -1.82478 2.37744 0
M  V30 20891 H 1938.29 -0.866335 1.36771 0
M  V30 20892 H 1940.28 -3.92891 0.970489 0
M  V30 20893 H 1938.85 -3.11244 0.290811 0
M  V30 20894 H 1938.07 -2.81579 2.75874 0
M  V30 20895 H 1939.36 -3.94615 3.2118 0
M  V30 20896 H 1938.76 -5.63351 0.515003 0
M  V30 20897 H 1937.31 -6.44465 0.975098 0
M  V30 20898 N 1940.75 -1.28031 -0.919012 0
M  V30 20899 C 1941.99 -1.15048 -1.67008 0
M  V30 20900 C 1942.32 0.301301 -1.91848 0
M  V30 20901 O 1941.6 1.21964 -1.51509 0
M  V30 20902 C 1941.88 -1.94388 -3.03126 0
M  V30 20903 C 1941.74 -3.476 -2.85473 0
M  V30 20904 C 1943.05 -1.75517 -4.03586 0
M  V30 20905 H 1940.17 -0.419311 -0.606091 0
M  V30 20906 H 1942.82 -1.57287 -1.06587 0
M  V30 20907 H 1940.97 -1.58493 -3.547 0
M  V30 20908 H 1942.64 -3.93372 -2.40949 0
M  V30 20909 H 1940.88 -3.73499 -2.20637 0
M  V30 20910 H 1941.55 -3.98365 -3.82111 0
M  V30 20911 H 1944.03 -2.06832 -3.61054 0
M  V30 20912 H 1942.9 -2.33411 -4.968 0
M  V30 20913 H 1943.16 -0.705309 -4.36438 0
M  V30 20914 N 1942.22 1.12672 -1.10194 0
M  V30 20915 C 1943.64 1.36123 -0.833225 0
M  V30 20916 C 1943.84 1.93889 0.548569 0
M  V30 20917 O 1942.9 2.16347 1.30192 0
M  V30 20918 C 1944.21 2.30515 -1.93089 0
M  V30 20919 C 1945.76 2.44111 -1.95905 0
M  V30 20920 C 1946.23 3.41816 -3.04838 0
M  V30 20921 N 1947.72 3.49371 -3.04128 0
M  V30 20922 C 1948.46 4.24874 -3.85058 0
M  V30 20923 N 1947.95 5.03464 -4.75916 0
M  V30 20924 N 1949.75 4.20255 -3.73285 0
M  V30 20925 H 1941.9 0.735332 -1.99265 0
M  V30 20926 H 1944.16 0.386141 -0.865794 0
M  V30 20927 H 1943.87 1.95239 -2.92531 0
M  V30 20928 H 1943.74 3.30611 -1.81593 0
M  V30 20929 H 1946.13 2.78669 -0.97097 0
M  V30 20930 H 1946.21 1.43911 -2.11479 0
M  V30 20931 H 1945.85 3.07988 -4.03864 0
M  V30 20932 H 1945.78 4.41839 -2.86506 0
M  V30 20933 H 1948.27 2.93303 -2.38289 0
M  V30 20934 H 1948.59 5.58406 -5.34231 0
M  V30 20935 H 1946.93 5.02669 -4.79946 0
M  V30 20936 H 1950.12 3.57939 -3.01658 0
M  V30 20937 H 1950.3 4.78843 -4.36593 0
M  V30 20938 N 1943.7 0.89031 1.30043 0
M  V30 20939 C 1944.98 0.43131 1.90785 0
M  V30 20940 C 1945.36 -1.08836 1.80881 0
M  V30 20941 O 1944.71 -1.92605 1.22946 0
M  V30 20942 C 1944.92 0.935377 3.36232 0
M  V30 20943 C 1946.26 0.973504 4.13289 0
M  V30 20944 O 1947.29 0.882404 3.45097 0
M  V30 20945 O 1946.15 1.10893 5.35131 0
M  V30 20946 H 1943.24 0.132845 0.816261 0
M  V30 20947 H 1945.79 0.979561 1.38574 0
M  V30 20948 H 1944.56 1.97928 3.3755 0
M  V30 20949 H 1944.18 0.366596 3.95906 0
M  V30 20950 N 1945.18 -1.43489 0.651812 0
M  V30 20951 C 1946.11 -2.29063 -0.0793108 0
M  V30 20952 C 1947.12 -1.4243 -0.788508 0
M  V30 20953 O 1948.31 -1.66381 -0.646499 0
M  V30 20954 C 1945.41 -3.19317 -1.13533 0
M  V30 20955 C 1944.59 -4.3448 -0.504553 0
M  V30 20956 C 1943.65 -5.05619 -1.45727 0
M  V30 20957 O 1942.67 -5.60936 -0.966409 0
M  V30 20958 N 1943.87 -5.08988 -2.79126 0
M  V30 20959 H 1946.64 -2.92451 0.655174 0
M  V30 20960 H 1944.2 -1.54164 0.494491 0
M  V30 20961 H 1946.19 -3.63773 -1.77345 0
M  V30 20962 H 1944.76 -2.57538 -1.7718 0
M  V30 20963 H 1943.98 -3.92958 0.312626 0
M  V30 20964 H 1945.27 -5.0876 -0.0641591 0
M  V30 20965 H 1944.67 -4.65415 -3.21567 0
M  V30 20966 H 1943.22 -5.57166 -3.38245 0
M  V30 20967 N 1946.66 -0.393643 -1.52605 0
M  V30 20968 C 1947.62 0.427358 -2.25181 0
M  V30 20969 C 1948.62 0.986595 -1.26976 0
M  V30 20970 O 1949.81 0.867913 -1.51039 0
M  V30 20971 C 1946.94 1.60001 -3.01019 0
M  V30 20972 H 1948.14 -0.208101 -2.99177 0
M  V30 20973 H 1945.69 -0.145844 -1.55618 0
M  V30 20974 H 1946.42 2.27278 -2.31334 0
M  V30 20975 H 1946.21 1.20567 -3.73103 0
M  V30 20976 H 1947.7 2.18115 -3.56112 0
M  V30 20977 N 1948.14 1.57115 -0.123593 0
M  V30 20978 C 1949.05 2.19104 0.838493 0
M  V30 20979 C 1950.06 1.1685 1.28927 0
M  V30 20980 O 1951.24 1.49337 1.35131 0
M  V30 20981 C 1948.3 2.78191 2.06908 0
M  V30 20982 C 1947.36 3.95495 1.66979 0
M  V30 20983 C 1946.6 4.51755 2.84171 0
M  V30 20984 O 1946.82 4.06908 3.99728 0
M  V30 20985 O 1945.75 5.42372 2.60991 0
M  V30 20986 H 1949.58 3.0178 0.340935 0
M  V30 20987 H 1947.16 1.4905 0.102255 0
M  V30 20988 H 1949.05 3.15837 2.78971 0
M  V30 20989 H 1947.72 1.98542 2.55661 0
M  V30 20990 H 1946.63 3.62609 0.920091 0
M  V30 20991 H 1947.96 4.76593 1.22963 0
M  V30 20992 N 1949.61 -0.150187 1.56883 0
M  V30 20993 C 1950.56 -1.19064 1.94442 0
M  V30 20994 C 1951.55 -1.38715 0.815284 0
M  V30 20995 O 1952.74 -1.40331 1.07871 0
M  V30 20996 C 1949.87 -2.52506 2.32585 0
M  V30 20997 C 1948.95 -2.3646 3.52062 0
M  V30 20998 N 1949.35 -1.90165 4.68691 0
M  V30 20999 C 1947.64 -2.67222 3.57083 0
M  V30 21000 C 1948.34 -1.87087 5.50793 0
M  V30 21001 N 1947.32 -2.30281 4.92414 0
M  V30 21002 H 1951.12 -0.824746 2.82091 0
M  V30 21003 H 1948.64 -0.358273 1.58399 0
M  V30 21004 H 1950.63 -3.27717 2.57696 0
M  V30 21005 H 1949.29 -2.8988 1.46286 0
M  V30 21006 H 1950.3 -1.60179 4.92507 0
M  V30 21007 H 1946.98 -3.08492 2.81316 0
M  V30 21008 H 1948.37 -1.52813 6.54292 0
M  V30 21009 N 1951.09 -1.51916 -0.419434 0
M  V30 21010 C 1952.02 -1.77475 -1.5174 0
M  V30 21011 C 1953 -0.625263 -1.58191 0
M  V30 21012 O 1954.19 -0.869815 -1.73631 0
M  V30 21013 C 1951.32 -1.91608 -2.89661 0
M  V30 21014 C 1950.27 -3.07151 -2.98064 0
M  V30 21015 C 1949.6 -3.06493 -4.3814 0
M  V30 21016 C 1950.9 -4.46799 -2.70495 0
M  V30 21017 H 1952.59 -2.69413 -1.30602 0
M  V30 21018 H 1950.14 -1.2964 -0.626849 0
M  V30 21019 H 1952.09 -2.08072 -3.66448 0
M  V30 21020 H 1950.82 -0.963332 -3.1207 0
M  V30 21021 H 1949.47 -2.90422 -2.2372 0
M  V30 21022 H 1949.12 -2.08959 -4.57542 0
M  V30 21023 H 1948.82 -3.84091 -4.44689 0
M  V30 21024 H 1950.35 -3.25072 -5.16876 0
M  V30 21025 H 1951.76 -4.63787 -3.37008 0
M  V30 21026 H 1950.16 -5.26238 -2.88432 0
M  V30 21027 H 1951.23 -4.55604 -1.65991 0
M  V30 21028 N 1952.57 0.676023 -1.42365 0
M  V30 21029 C 1953.52 1.78959 -1.45747 0
M  V30 21030 C 1954.49 1.6319 -0.309563 0
M  V30 21031 O 1955.67 1.83761 -0.51346 0
M  V30 21032 C 1952.81 3.16982 -1.36441 0
M  V30 21033 C 1951.93 3.44047 -2.61257 0
M  V30 21034 C 1951.06 4.71791 -2.44103 0
M  V30 21035 C 1950.1 4.91887 -3.64299 0
M  V30 21036 N 1949.24 6.10871 -3.46094 0
M  V30 21037 H 1954.08 1.75403 -2.4091 0
M  V30 21038 H 1951.61 0.856293 -1.19608 0
M  V30 21039 H 1953.57 3.96741 -1.29044 0
M  V30 21040 H 1952.2 3.19666 -0.448744 0
M  V30 21041 H 1951.25 2.58551 -2.79026 0
M  V30 21042 H 1952.57 3.5479 -3.50607 0
M  V30 21043 H 1951.72 5.59639 -2.34285 0
M  V30 21044 H 1950.46 4.63329 -1.52241 0
M  V30 21045 H 1949.46 4.02482 -3.74551 0
M  V30 21046 H 1950.69 5.02195 -4.5714 0
M  V30 21047 H 1948.63 6.03584 -2.56949 0
M  V30 21048 H 1948.55 6.2247 -4.29031 0
M  V30 21049 H 1949.82 7.014 -3.40085 0
M  V30 21050 N 1954.05 1.28517 0.912209 0
M  V30 21051 C 1955.28 1.18615 1.69523 0
M  V30 21052 C 1955.69 -0.254997 1.8707 0
M  V30 21053 O 1955.05 -1.17217 1.3988 0
M  V30 21054 C 1955.1 1.88188 3.08655 0
M  V30 21055 O 1954.82 3.26673 2.91918 0
M  V30 21056 C 1956.32 1.84607 4.03032 0
M  V30 21057 H 1953.54 0.411679 0.529869 0
M  V30 21058 H 1956.09 1.69668 1.14162 0
M  V30 21059 H 1954.24 1.41001 3.60829 0
M  V30 21060 H 1954.65 3.61538 3.79987 0
M  V30 21061 H 1956.13 2.37874 4.98116 0
M  V30 21062 H 1956.61 0.818787 4.315 0
M  V30 21063 H 1957.21 2.3148 3.56787 0
M  V30 21064 N 1955.53 -1.12086 1.1079 0
M  V30 21065 C 1956.49 -2.16111 0.763446 0
M  V30 21066 C 1957.49 -1.59371 -0.213903 0
M  V30 21067 O 1958.68 -1.74197 0.00972099 0
M  V30 21068 C 1955.81 -3.40646 0.131488 0
M  V30 21069 H 1957 -2.48096 1.68489 0
M  V30 21070 H 1954.56 -1.27156 0.908896 0
M  V30 21071 H 1955.29 -3.14265 -0.800507 0
M  V30 21072 H 1955.08 -3.83108 0.834928 0
M  V30 21073 H 1956.57 -4.17495 -0.0936165 0
M  V30 21074 N 1957 -0.897194 -1.29569 0
M  V30 21075 C 1958.25 -0.522607 -1.95951 0
M  V30 21076 C 1958.58 0.928254 -1.70579 0
M  V30 21077 O 1957.86 1.65772 -1.01734 0
M  V30 21078 C 1958.14 -0.812659 -3.5081 0
M  V30 21079 C 1957.99 -2.31504 -3.8565 0
M  V30 21080 C 1959.31 -0.297442 -4.39094 0
M  V30 21081 H 1956.43 -0.191346 -0.711727 0
M  V30 21082 H 1959.07 -1.12342 -1.5323 0
M  V30 21083 H 1957.22 -0.301316 -3.8733 0
M  V30 21084 H 1958.9 -2.89573 -3.59089 0
M  V30 21085 H 1957.14 -2.77678 -3.33283 0
M  V30 21086 H 1957.81 -2.46857 -4.93726 0
M  V30 21087 H 1960.29 -0.735265 -4.09552 0
M  V30 21088 H 1959.16 -0.529614 -5.46339 0
M  V30 21089 H 1959.42 0.801767 -4.34769 0
M  V30 21090 N 1958.48 1.43142 -0.659413 0
M  V30 21091 C 1959.41 2.29102 0.0671619 0
M  V30 21092 C 1960.43 1.42846 0.780943 0
M  V30 21093 O 1961.62 1.66722 0.637666 0
M  V30 21094 C 1958.72 3.19915 1.11838 0
M  V30 21095 C 1957.89 4.34742 0.481505 0
M  V30 21096 C 1956.95 5.06384 1.43043 0
M  V30 21097 O 1955.97 5.61441 0.936648 0
M  V30 21098 N 1957.18 5.10461 2.76423 0
M  V30 21099 H 1959.94 2.92099 -0.670674 0
M  V30 21100 H 1957.5 1.53899 -0.50266 0
M  V30 21101 H 1959.49 3.64708 1.75413 0
M  V30 21102 H 1958.06 2.58474 1.75812 0
M  V30 21103 H 1957.28 3.92787 -0.333461 0
M  V30 21104 H 1958.57 5.08786 0.0371775 0
M  V30 21105 H 1957.97 4.67114 3.19095 0
M  V30 21106 H 1956.53 5.58952 3.35285 0
M  V30 21107 N 1959.96 0.40173 1.52394 0
M  V30 21108 C 1960.89 -0.4718 2.2327 0
M  V30 21109 C 1961.87 -1.05401 1.23812 0
M  V30 21110 O 1963.06 -1.10329 1.52839 0
M  V30 21111 C 1960.18 -1.6542 2.95557 0
M  V30 21112 C 1959.23 -1.19607 4.09385 0
M  V30 21113 S 1960.06 -0.16732 5.35239 0
M  V30 21114 C 1961.22 -1.35521 6.11052 0
M  V30 21115 H 1961.45 0.130025 2.97016 0
M  V30 21116 H 1958.98 0.185984 1.53276 0
M  V30 21117 H 1960.94 -2.33224 3.37812 0
M  V30 21118 H 1959.6 -2.22735 2.21468 0
M  V30 21119 H 1958.8 -2.07925 4.59111 0
M  V30 21120 H 1958.4 -0.596775 3.69208 0
M  V30 21121 H 1960.69 -2.28013 6.37978 0
M  V30 21122 H 1961.63 -0.898632 7.02375 0
M  V30 21123 H 1962.04 -1.57765 5.42006 0
M  V30 21124 N 1961.44 -1.57047 0.131923 0
M  V30 21125 C 1962.4 -2.14813 -0.799243 0
M  V30 21126 C 1963.4 -1.08616 -1.18572 0
M  V30 21127 O 1964.59 -1.3433 -1.10911 0
M  V30 21128 C 1961.72 -2.69894 -2.08255 0
M  V30 21129 H 1962.92 -2.98426 -0.296996 0
M  V30 21130 H 1960.47 -1.55858 -0.117418 0
M  V30 21131 H 1961.2 -1.89905 -2.62881 0
M  V30 21132 H 1960.99 -3.47574 -1.81479 0
M  V30 21133 H 1962.48 -3.14451 -2.74792 0
M  V30 21134 N 1962.92 0.141865 -1.5696 0
M  V30 21135 C 1964.16 0.854874 -1.83901 0
M  V30 21136 C 1964.5 1.80586 -0.714297 0
M  V30 21137 O 1963.77 1.92449 0.281695 0
M  V30 21138 C 1964.05 1.62486 -3.21357 0
M  V30 21139 C 1963.91 0.695015 -4.44398 0
M  V30 21140 C 1965.23 2.5862 -3.56095 0
M  V30 21141 H 1962.34 0.309334 -0.66894 0
M  V30 21142 H 1964.99 0.119882 -1.89621 0
M  V30 21143 H 1963.14 2.25143 -3.16612 0
M  V30 21144 H 1964.81 0.0790536 -4.61232 0
M  V30 21145 H 1963.05 0.00493655 -4.338 0
M  V30 21146 H 1963.72 1.26992 -5.37194 0
M  V30 21147 H 1966.2 2.06079 -3.61484 0
M  V30 21148 H 1965.07 3.09542 -4.53294 0
M  V30 21149 H 1965.34 3.40219 -2.82319 0
M  V30 21150 N 1964.39 1.52136 0.411372 0
M  V30 21151 C 1965.64 1.66085 1.15853 0
M  V30 21152 C 1965.97 0.38968 1.90556 0
M  V30 21153 O 1965.22 -0.62727 1.85375 0
M  V30 21154 C 1965.52 2.832 2.1802 0
M  V30 21155 C 1965.19 4.21504 1.6014 0
M  V30 21156 C 1963.85 4.59124 1.4408 0
M  V30 21157 C 1966.2 5.07702 1.17848 0
M  V30 21158 C 1963.53 5.80621 0.842405 0
M  V30 21159 C 1965.88 6.29802 0.594283 0
M  V30 21160 C 1964.55 6.66172 0.420791 0
M  V30 21161 H 1963.82 0.607749 0.423937 0
M  V30 21162 H 1966.46 1.86233 0.446046 0
M  V30 21163 H 1964.77 2.57378 2.95405 0
M  V30 21164 H 1966.47 2.91189 2.75699 0
M  V30 21165 H 1963.06 3.91858 1.73623 0
M  V30 21166 H 1967.24 4.79224 1.29066 0
M  V30 21167 H 1962.5 6.07426 0.695983 0
M  V30 21168 H 1966.67 6.95921 0.258177 0
M  V30 21169 H 1964.3 7.60187 -0.044991 0
M  V30 21170 N 1965.87 -0.668464 1.42721 0
M  V30 21171 C 1967.12 -1.42428 1.42819 0
M  V30 21172 C 1967.44 -1.95535 0.0504025 0
M  V30 21173 O 1968.64 -2.71407 -0.0712036 0
M  V30 21174 C 1967.1 -2.57681 2.51254 0
M  V30 21175 C 1966.71 -2.11246 3.95069 0
M  V30 21176 C 1968.45 -3.35151 2.60527 0
M  V30 21177 C 1966.36 -3.23619 4.95 0
M  V30 21178 H 1965.29 -0.535089 0.531221 0
M  V30 21179 H 1967.94 -0.723067 1.68653 0
M  V30 21180 H 1966.32 -3.302 2.18595 0
M  V30 21181 H 1967.49 -1.45838 4.37113 0
M  V30 21182 H 1965.81 -1.46697 3.89704 0
M  V30 21183 H 1968.41 -4.18853 3.32364 0
M  V30 21184 H 1968.75 -3.82166 1.6509 0
M  V30 21185 H 1969.28 -2.69705 2.92411 0
M  V30 21186 H 1966.02 -2.81588 5.91936 0
M  V30 21187 H 1965.54 -3.87788 4.57581 0
M  V30 21188 H 1967.22 -3.88988 5.17008 0
M  V30 21189 N 1967.35 -1.28999 -0.905381 0
M  V30 21190 C 1968.3 -1.10274 -1.99559 0
M  V30 21191 C 1969.29 -0.0238563 -1.60882 0
M  V30 21192 O 1970.48 -0.244936 -1.75297 0
M  V30 21193 C 1967.61 -0.775383 -3.34429 0
M  V30 21194 C 1966.69 -1.89352 -3.79482 0
M  V30 21195 N 1967.08 -3.1363 -3.96825 0
M  V30 21196 C 1965.38 -1.78527 -4.0871 0
M  V30 21197 C 1966.08 -3.86541 -4.34697 0
M  V30 21198 N 1965.06 -3.14445 -4.43424 0
M  V30 21199 H 1968.86 -2.04558 -2.11029 0
M  V30 21200 H 1966.37 -1.2004 -1.09381 0
M  V30 21201 H 1968.37 -0.622296 -4.12229 0
M  V30 21202 H 1967.03 0.159599 -3.24308 0
M  V30 21203 H 1968.04 -3.49148 -3.82513 0
M  V30 21204 H 1964.72 -0.922625 -4.07178 0
M  V30 21205 H 1966.11 -4.93464 -4.56008 0
M  V30 21206 N 1968.83 1.11497 -1.11383 0
M  V30 21207 C 1969.78 2.19602 -0.766658 0
M  V30 21208 C 1970.77 1.67668 0.241612 0
M  V30 21209 O 1971.98 1.79717 0.100956 0
M  V30 21210 H 1968.35 0.715952 -0.230037 0
M  V30 21211 H 1970.32 2.46131 -1.68707 0
M  V30 21212 C 1969.07 3.46968 -0.225442 0
M  V30 21213 H 1968.4 3.87284 -0.992544 0
M  V30 21214 H 1969.84 4.23995 -0.0207066 0
M  V30 21215 C 1968.29 3.20311 1.04414 0
M  V30 21216 O 1968.82 3.40956 2.12395 0
M  V30 21217 N 1967.03 2.7405 0.966692 0
M  V30 21218 H 1966.58 2.5745 0.0878667 0
M  V30 21219 H 1966.54 2.56591 1.81682 0
M  V30 21220 N 1970.31 0.904053 1.29092 0
M  V30 21221 C 1971.55 0.532203 1.95381 0
M  V30 21222 C 1971.88 -0.922327 1.71241 0
M  V30 21223 O 1971.14 -1.66968 1.02079 0
M  V30 21224 C 1971.44 0.776255 3.48868 0
M  V30 21225 C 1971.1 2.20882 3.93093 0
M  V30 21226 C 1969.76 2.60052 4.04878 0
M  V30 21227 C 1972.12 3.14152 4.15882 0
M  V30 21228 C 1969.44 3.91663 4.36826 0
M  V30 21229 C 1971.8 4.45317 4.49306 0
M  V30 21230 C 1970.46 4.84354 4.59301 0
M  V30 21231 H 1969.73 0.194747 0.714951 0
M  V30 21232 H 1972.38 1.14354 1.53608 0
M  V30 21233 H 1970.68 0.0820369 3.91714 0
M  V30 21234 H 1972.38 0.467861 3.98261 0
M  V30 21235 H 1968.97 1.89485 3.84439 0
M  V30 21236 H 1973.15 2.85103 4.06239 0
M  V30 21237 H 1968.41 4.21623 4.42769 0
M  V30 21238 H 1972.58 5.17611 4.65888 0
M  V30 21239 H 1970.21 5.86371 4.83811 0
M  V30 21240 N 1971.79 -1.4279 0.666995 0
M  V30 21241 C 1972.73 -2.30794 -0.0161644 0
M  V30 21242 C 1973.7 -1.45527 -0.800701 0
M  V30 21243 O 1974.89 -1.74372 -0.774527 0
M  V30 21244 C 1972.03 -3.31276 -0.966974 0
M  V30 21245 C 1971.14 -4.31637 -0.177086 0
M  V30 21246 C 1970.28 -5.19195 -1.12294 0
M  V30 21247 C 1969.31 -6.1124 -0.324284 0
M  V30 21248 N 1968.45 -6.91376 -1.22244 0
M  V30 21249 H 1973.29 -2.88662 0.74014 0
M  V30 21250 H 1970.83 -1.42194 0.376738 0
M  V30 21251 H 1972.79 -3.88054 -1.53198 0
M  V30 21252 H 1971.42 -2.75025 -1.69 0
M  V30 21253 H 1970.47 -3.77041 0.504428 0
M  V30 21254 H 1971.78 -4.96826 0.443328 0
M  V30 21255 H 1970.93 -5.80667 -1.75813 0
M  V30 21256 H 1969.67 -4.54164 -1.77725 0
M  V30 21257 H 1968.68 -5.48843 0.324174 0
M  V30 21258 H 1969.9 -6.78318 0.325818 0
M  V30 21259 H 1967.85 -6.28981 -1.86329 0
M  V30 21260 H 1967.77 -7.5314 -0.656918 0
M  V30 21261 H 1969.03 -7.57342 -1.84535 0
M  V30 21262 N 1973.26 -0.409806 -1.52179 0
M  V30 21263 C 1974.68 -0.0607174 -1.59484 0
M  V30 21264 C 1974.88 1.42703 -1.42261 0
M  V30 21265 O 1973.94 2.19394 -1.24991 0
M  V30 21266 C 1975.25 -0.556238 -2.95511 0
M  V30 21267 C 1976.8 -0.514272 -3.08746 0
M  V30 21268 C 1977.27 -0.986314 -4.47254 0
M  V30 21269 N 1978.76 -0.943162 -4.53496 0
M  V30 21270 C 1979.5 -1.27959 -5.5894 0
M  V30 21271 N 1978.99 -1.6875 -6.71934 0
M  V30 21272 N 1980.79 -1.19951 -5.49152 0
M  V30 21273 H 1972.94 -1.37813 -1.61621 0
M  V30 21274 H 1975.2 -0.566181 -0.760357 0
M  V30 21275 H 1974.91 -1.5961 -3.13397 0
M  V30 21276 H 1974.78 0.033749 -3.77185 0
M  V30 21277 H 1977.17 0.516546 -2.90544 0
M  V30 21278 H 1977.25 -1.14032 -2.28977 0
M  V30 21279 H 1976.89 -2.01546 -4.66199 0
M  V30 21280 H 1976.82 -0.337071 -5.2552 0
M  V30 21281 H 1979.31 -0.64326 -3.72385 0
M  V30 21282 H 1979.63 -1.9273 -7.48381 0
M  V30 21283 H 1977.97 -1.72654 -6.73213 0
M  V30 21284 H 1981.16 -0.879693 -4.5976 0
M  V30 21285 H 1981.34 -1.465 -6.31222 0
M  V30 21286 N 1974.74 1.56975 -0.14025 0
M  V30 21287 C 1975.69 2.16418 0.802003 0
M  V30 21288 C 1976.66 1.09512 1.24885 0
M  V30 21289 O 1977.84 1.37522 1.32259 0
M  V30 21290 C 1974.98 2.78465 2.03841 0
M  V30 21291 C 1974.1 3.99743 1.63798 0
M  V30 21292 C 1973.23 4.4981 2.82567 0
M  V30 21293 C 1972.27 5.63569 2.38865 0
M  V30 21294 N 1971.41 6.08285 3.5062 0
M  V30 21295 H 1976.25 2.96602 0.288284 0
M  V30 21296 H 1973.78 1.46519 0.130587 0
M  V30 21297 H 1975.74 3.12581 2.76314 0
M  V30 21298 H 1974.37 2.00936 2.52635 0
M  V30 21299 H 1973.42 3.71651 0.811169 0
M  V30 21300 H 1974.74 4.82177 1.27697 0
M  V30 21301 H 1973.89 4.85945 3.63238 0
M  V30 21302 H 1972.63 3.66369 3.21908 0
M  V30 21303 H 1971.63 5.27017 1.56632 0
M  V30 21304 H 1972.86 6.48791 2.00617 0
M  V30 21305 H 1970.81 5.2778 3.89595 0
M  V30 21306 H 1970.72 6.85628 3.18512 0
M  V30 21307 H 1971.99 6.49063 4.31668 0
M  V30 21308 N 1976.22 -0.133539 1.57033 0
M  V30 21309 C 1977.47 -0.842192 1.83716 0
M  V30 21310 C 1977.79 -1.81092 0.723225 0
M  V30 21311 O 1977.06 -1.94246 -0.254028 0
M  V30 21312 H 1975.64 -0.314004 0.677798 0
M  V30 21313 H 1978.3 -0.124329 1.94503 0
M  V30 21314 H 1977.4 -1.39628 2.79125 0
M  V30 21315 N 1977.7 -1.52352 -0.403298 0
M  V30 21316 C 1978.95 -1.66368 -1.14744 0
M  V30 21317 C 1979.27 -0.398899 -1.90876 0
M  V30 21318 O 1978.54 0.586372 -1.86918 0
M  V30 21319 H 1977.12 -0.613226 -0.426571 0
M  V30 21320 H 1979.78 -1.89416 -0.459075 0
M  V30 21321 H 1978.87 -2.50748 -1.85828 0
M  V30 21322 N 1979.18 0.660885 -1.43074 0
M  V30 21323 C 1980.42 1.41668 -1.43572 0
M  V30 21324 C 1980.74 1.95506 -0.0607715 0
M  V30 21325 O 1981.94 2.71441 0.0568092 0
M  V30 21326 C 1980.4 2.56345 -2.52617 0
M  V30 21327 C 1980.01 2.09147 -3.96183 0
M  V30 21328 C 1981.75 3.33765 -2.623 0
M  V30 21329 C 1979.66 3.20989 -4.96709 0
M  V30 21330 H 1978.59 0.532264 -0.534051 0
M  V30 21331 H 1981.24 0.714113 -1.69035 0
M  V30 21332 H 1979.62 3.29036 -2.20343 0
M  V30 21333 H 1980.8 1.43518 -4.3788 0
M  V30 21334 H 1979.11 1.44628 -3.90476 0
M  V30 21335 H 1981.71 4.17085 -3.34581 0
M  V30 21336 H 1982.05 3.81285 -1.67114 0
M  V30 21337 H 1982.58 2.6815 -2.93837 0
M  V30 21338 H 1979.32 2.78445 -5.93421 0
M  V30 21339 H 1978.84 3.85356 -4.59631 0
M  V30 21340 H 1980.52 3.86241 -5.19063 0
M  V30 21341 N 1980.65 1.29477 0.898527 0
M  V30 21342 C 1981.9 1.17284 1.64587 0
M  V30 21343 C 1982.22 -0.275718 1.93041 0
M  V30 21344 O 1981.49 -1.18847 1.55731 0
M  V30 21345 H 1980.07 0.431068 0.610073 0
M  V30 21346 H 1982.74 1.62419 1.07732 0
M  V30 21347 H 1981.83 1.72375 2.60179 0
M  V30 21348 N 1982.13 -1.10905 1.11972 0
M  V30 21349 C 1983.38 -1.82401 0.870296 0
M  V30 21350 C 1983.7 -1.85356 -0.605649 0
M  V30 21351 O 1982.97 -1.32812 -1.44006 0
M  V30 21352 H 1981.55 -0.675471 0.318979 0
M  V30 21353 H 1984.21 -1.34216 1.41323 0
M  V30 21354 H 1983.31 -2.86086 1.24746 0
M  V30 21355 N 1983.61 -0.910886 -1.2861 0
M  V30 21356 C 1984.84 -0.557522 -1.98935 0
M  V30 21357 C 1985.25 0.864875 -1.68275 0
M  V30 21358 O 1984.59 1.58401 -0.930312 0
M  V30 21359 C 1984.65 -0.683336 -3.52946 0
M  V30 21360 C 1984.32 -2.07475 -4.07189 0
M  V30 21361 C 1985.31 -3.04716 -4.21241 0
M  V30 21362 C 1983 -2.38716 -4.4195 0
M  V30 21363 C 1984.99 -4.31315 -4.69303 0
M  V30 21364 C 1982.68 -3.65555 -4.89707 0
M  V30 21365 C 1983.68 -4.61669 -5.0334 0
M  V30 21366 O 1983.37 -5.86254 -5.50056 0
M  V30 21367 H 1983.1 -0.211519 -0.642056 0
M  V30 21368 H 1985.65 -1.22539 -1.64843 0
M  V30 21369 H 1983.88 0.0415955 -3.86678 0
M  V30 21370 H 1985.57 -0.337494 -4.04494 0
M  V30 21371 H 1986.34 -2.81898 -3.94662 0
M  V30 21372 H 1982.22 -1.64658 -4.30591 0
M  V30 21373 H 1985.76 -5.0634 -4.79859 0
M  V30 21374 H 1981.66 -3.88199 -5.15724 0
M  V30 21375 H 1982.43 -5.89002 -5.68347 0
M  V30 21376 N 1985.09 1.42434 -0.674558 0
M  V30 21377 C 1986.31 2.06399 -0.203545 0
M  V30 21378 C 1986.74 1.50345 1.1304 0
M  V30 21379 O 1986.1 0.621837 1.70302 0
M  V30 21380 C 1986.14 3.60293 -0.148884 0
M  V30 21381 O 1985.25 4.02843 0.882667 0
M  V30 21382 H 1984.59 0.655698 -0.104672 0
M  V30 21383 H 1987.12 1.82572 -0.923502 0
M  V30 21384 H 1987.13 4.07991 0.0273375 0
M  V30 21385 H 1985.8 4.00464 -1.12256 0
M  V30 21386 H 1984.38 3.66694 0.677506 0
M  V30 21387 N 1986.57 0.417871 1.51959 0
M  V30 21388 C 1987.53 -0.391479 2.25832 0
M  V30 21389 C 1988.53 -0.96627 1.2853 0
M  V30 21390 O 1989.72 -0.843774 1.52401 0
M  V30 21391 C 1986.85 -1.55192 3.03526 0
M  V30 21392 H 1988.04 0.255672 2.98808 0
M  V30 21393 H 1985.6 0.170583 1.55366 0
M  V30 21394 H 1986.33 -2.23569 2.3492 0
M  V30 21395 H 1986.12 -1.14616 3.74974 0
M  V30 21396 H 1987.61 -2.12422 3.59537 0
M  V30 21397 N 1988.04 -1.56898 0.148573 0
M  V30 21398 C 1989.29 -1.95788 -0.501154 0
M  V30 21399 C 1989.61 -1.03451 -1.65297 0
M  V30 21400 O 1988.88 -0.0963607 -1.95663 0
M  V30 21401 H 1987.46 -0.722922 -0.188129 0
M  V30 21402 H 1990.13 -1.93603 0.224439 0
M  V30 21403 H 1989.22 -2.99547 -0.876258 0
M  V30 21404 N 1989.52 0.125209 -1.57102 0
M  V30 21405 C 1990.43 1.17286 -2.03177 0
M  V30 21406 C 1991.45 1.4571 -0.951035 0
M  V30 21407 O 1992.62 1.56949 -1.2621 0
M  V30 21408 C 1989.69 2.4811 -2.42161 0
M  V30 21409 C 1988.75 2.2714 -3.64288 0
M  V30 21410 C 1987.98 3.51726 -4.01404 0
M  V30 21411 O 1988.21 4.58785 -3.38929 0
M  V30 21412 O 1987.14 3.43096 -4.94539 0
M  V30 21413 H 1990.97 0.811619 -2.92654 0
M  V30 21414 H 1988.55 0.335551 -1.45583 0
M  V30 21415 H 1990.43 3.252 -2.67998 0
M  V30 21416 H 1989.11 2.83721 -1.55833 0
M  V30 21417 H 1988.02 1.47929 -3.4361 0
M  V30 21418 H 1989.35 1.96435 -4.51303 0
M  V30 21419 N 1991 1.52564 0.395213 0
M  V30 21420 C 1992.42 1.41677 0.73484 0
M  V30 21421 C 1992.62 0.53226 1.94343 0
M  V30 21422 O 1991.67 0.00333606 2.525 0
M  V30 21423 C 1992.99 2.84429 0.975749 0
M  V30 21424 C 1994.53 2.93865 1.07761 0
M  V30 21425 C 1995.01 4.37615 1.35119 0
M  V30 21426 N 1996.5 4.40912 1.41954 0
M  V30 21427 C 1997.23 5.49215 1.64775 0
M  V30 21428 N 1996.73 6.67613 1.85109 0
M  V30 21429 N 1998.52 5.36749 1.66904 0
M  V30 21430 H 1990.67 2.08597 -0.400145 0
M  V30 21431 H 1992.94 0.940777 -0.116804 0
M  V30 21432 H 1992.64 3.51336 0.159881 0
M  V30 21433 H 1992.52 3.2631 1.89213 0
M  V30 21434 H 1994.9 2.27129 1.88405 0
M  V30 21435 H 1994.99 2.55421 0.139278 0
M  V30 21436 H 1994.63 5.04915 0.549865 0
M  V30 21437 H 1994.56 4.73607 2.30226 0
M  V30 21438 H 1997.05 3.55572 1.27973 0
M  V30 21439 H 1997.36 7.4593 2.02012 0
M  V30 21440 H 1995.71 6.70653 1.82346 0
M  V30 21441 H 1998.9 4.43224 1.50566 0
M  V30 21442 H 1999.07 6.21224 1.8435 0
M  V30 21443 N 1992.48 -0.653289 1.43422 0
M  V30 21444 C 1993.73 -1.40905 1.44322 0
M  V30 21445 C 1994.04 -1.95471 0.0711388 0
M  V30 21446 O 1995.25 -2.71467 -0.0424133 0
M  V30 21447 C 1993.7 -2.55001 2.53973 0
M  V30 21448 C 1993.31 -2.07043 3.97287 0
M  V30 21449 C 1995.05 -3.32369 2.64067 0
M  V30 21450 C 1992.96 -3.18351 4.98404 0
M  V30 21451 H 1991.89 -0.529424 0.536867 0
M  V30 21452 H 1994.54 -0.705139 1.69411 0
M  V30 21453 H 1992.92 -3.27863 2.22085 0
M  V30 21454 H 1994.1 -1.41193 4.38635 0
M  V30 21455 H 1992.41 -1.42555 3.91238 0
M  V30 21456 H 1995.01 -4.15305 3.36788 0
M  V30 21457 H 1995.35 -3.80394 1.69134 0
M  V30 21458 H 1995.89 -2.66588 2.95255 0
M  V30 21459 H 1992.63 -2.75294 5.94889 0
M  V30 21460 H 1992.15 -3.82913 4.61669 0
M  V30 21461 H 1993.82 -3.83483 5.21104 0
M  V30 21462 N 1993.96 -1.29952 -0.891648 0
M  V30 21463 C 1995.2 -1.18565 -1.6453 0
M  V30 21464 C 1995.54 0.260539 -1.92444 0
M  V30 21465 O 1994.81 1.18723 -1.54062 0
M  V30 21466 C 1995.09 -2.00774 -2.98934 0
M  V30 21467 C 1994.95 -3.53577 -2.78035 0
M  V30 21468 C 1996.27 -1.84038 -3.99772 0
M  V30 21469 H 1993.38 -0.432073 -0.597061 0
M  V30 21470 H 1996.03 -1.59512 -1.03227 0
M  V30 21471 H 1994.18 -1.65981 -3.51258 0
M  V30 21472 H 1995.85 -3.98394 -2.3255 0
M  V30 21473 H 1994.09 -3.78095 -2.12665 0
M  V30 21474 H 1994.76 -4.06381 -3.73575 0
M  V30 21475 H 1997.24 -2.14444 -3.56585 0
M  V30 21476 H 1996.11 -2.43896 -4.91737 0
M  V30 21477 H 1996.38 -0.797726 -4.34843 0
M  V30 21478 N 1995.44 1.1031 -1.12559 0
M  V30 21479 C 1996.71 1.788 -0.793094 0
M  V30 21480 C 1997.09 1.98553 0.716932 0
M  V30 21481 O 1996.44 1.57962 1.65107 0
M  V30 21482 C 1996.65 3.1171 -1.56964 0
M  V30 21483 C 1998 3.86566 -1.75648 0
M  V30 21484 O 1999.02 3.21435 -1.53487 0
M  V30 21485 O 1997.88 5.03468 -2.1256 0
M  V30 21486 H 1994.98 0.775004 -0.288612 0
M  V30 21487 H 1997.52 1.16948 -1.22969 0
M  V30 21488 H 1996.29 2.92761 -2.59628 0
M  V30 21489 H 1995.92 3.81282 -1.12738 0
M  V30 21490 N 1996.91 0.917694 1.28125 0
M  V30 21491 C 1998.16 0.548771 1.94091 0
M  V30 21492 C 1998.48 -0.912688 1.73001 0
M  V30 21493 O 1999.68 -1.38994 2.33223 0
M  V30 21494 C 1998.14 0.930611 3.4766 0
M  V30 21495 C 1997.75 2.41207 3.77523 0
M  V30 21496 C 1999.49 0.632461 4.19762 0
M  V30 21497 C 1997.4 2.73383 5.24419 0
M  V30 21498 H 1996.33 0.201513 0.726573 0
M  V30 21499 H 1998.98 1.11715 1.45575 0
M  V30 21500 H 1997.36 0.290982 3.94929 0
M  V30 21501 H 1998.53 3.09876 3.41048 0
M  V30 21502 H 1996.85 2.68108 3.18602 0
M  V30 21503 H 1999.45 0.849481 5.27909 0
M  V30 21504 H 1999.79 -0.429909 4.14074 0
M  V30 21505 H 2000.32 1.23073 3.78283 0
M  V30 21506 H 1997.06 3.78489 5.35188 0
M  V30 21507 H 1996.58 2.09354 5.62077 0
M  V30 21508 H 1998.26 2.60595 5.92198 0
M  V30 21509 N 1998.39 -1.42074 0.682102 0
M  V30 21510 C 1999.64 -2.0066 0.204581 0
M  V30 21511 C 1999.95 -1.54595 -1.19832 0
M  V30 21512 O 2001.16 -2.05648 -1.7726 0
M  V30 21513 C 1999.62 -3.5852 0.31488 0
M  V30 21514 C 1999.22 -4.13571 1.7223 0
M  V30 21515 C 2000.97 -4.24374 -0.103556 0
M  V30 21516 C 1998.87 -5.6382 1.78497 0
M  V30 21517 H 1997.8 -0.750485 0.0727253 0
M  V30 21518 H 2000.46 -1.62712 0.848346 0
M  V30 21519 H 1998.84 -3.94006 -0.396905 0
M  V30 21520 H 2000.01 -3.89531 2.46176 0
M  V30 21521 H 1998.33 -3.60195 2.08922 0
M  V30 21522 H 2000.92 -5.34645 -0.0769789 0
M  V30 21523 H 2001.27 -4.00385 -1.14005 0
M  V30 21524 H 2001.8 -3.93874 0.557477 0
M  V30 21525 H 1998.54 -5.92616 2.80154 0
M  V30 21526 H 1998.06 -5.89828 1.08918 0
M  V30 21527 H 1999.74 -6.28363 1.54172 0
M  V30 21528 N 1999.87 -0.425924 -1.51735 0
M  V30 21529 C 2000.83 0.379497 -2.26036 0
M  V30 21530 C 2001.83 0.95944 -1.2904 0
M  V30 21531 O 2003.02 0.83568 -1.52846 0
M  V30 21532 C 2000.15 1.5358 -3.04345 0
M  V30 21533 H 2001.35 -0.271515 -2.98668 0
M  V30 21534 H 1998.9 -0.17882 -1.55274 0
M  V30 21535 H 1999.64 2.2232 -2.36103 0
M  V30 21536 H 1999.42 1.12626 -3.75577 0
M  V30 21537 H 2000.91 2.10513 -3.60658 0
M  V30 21538 N 2001.35 1.56817 -0.156891 0
M  V30 21539 C 2002.58 2.00807 0.498405 0
M  V30 21540 C 2002.99 1.03706 1.57768 0
M  V30 21541 O 2002.35 0.0356068 1.82465 0
M  V30 21542 C 2002.4 3.44676 1.08999 0
M  V30 21543 O 2002.12 4.38067 0.053817 0
M  V30 21544 C 2003.62 4.03994 1.82493 0
M  V30 21545 H 2000.84 0.658505 0.128888 0
M  V30 21546 H 2003.38 2.02912 -0.254383 0
M  V30 21547 H 2001.54 3.43392 1.79334 0
M  V30 21548 H 2001.95 5.2222 0.488568 0
M  V30 21549 H 2003.43 5.06627 2.19164 0
M  V30 21550 H 2003.9 3.45265 2.71456 0
M  V30 21551 H 2004.51 4.08938 1.16833 0
M  V30 21552 N 2002.83 -0.116876 1.57166 0
M  V30 21553 C 2004.1 -0.854715 1.75937 0
M  V30 21554 C 2004.48 -1.97969 0.732908 0
M  V30 21555 O 2003.83 -2.27207 -0.242738 0
M  V30 21556 C 2004.04 -1.36944 3.2101 0
M  V30 21557 C 2005.39 -1.82093 3.83572 0
M  V30 21558 O 2006.41 -1.46618 3.24625 0
M  V30 21559 O 2005.27 -2.47614 4.87186 0
M  V30 21560 H 2002.37 -0.40605 0.720453 0
M  V30 21561 H 2004.91 -0.100451 1.69402 0
M  V30 21562 H 2003.68 -0.56241 3.87237 0
M  V30 21563 H 2003.31 -2.18635 3.32091 0
M  V30 21564 N 2004.3 -1.52772 -0.387116 0
M  V30 21565 C 2005.55 -1.67131 -1.12916 0
M  V30 21566 C 2005.87 -0.418501 -1.9107 0
M  V30 21567 O 2007.07 -0.442261 -2.67874 0
M  V30 21568 C 2005.53 -2.95368 -2.05635 0
M  V30 21569 C 2005.14 -4.27835 -1.32895 0
M  V30 21570 C 2006.88 -3.19093 -2.79964 0
M  V30 21571 C 2004.79 -5.47177 -2.2439 0
M  V30 21572 H 2003.72 -0.622655 -0.425225 0
M  V30 21573 H 2006.37 -1.79268 -0.391801 0
M  V30 21574 H 2004.75 -2.76981 -2.83015 0
M  V30 21575 H 2005.92 -4.56781 -0.607276 0
M  V30 21576 H 2004.24 -4.10385 -0.705181 0
M  V30 21577 H 2006.84 -4.05436 -3.48605 0
M  V30 21578 H 2007.18 -2.34244 -3.44145 0
M  V30 21579 H 2007.71 -3.38054 -2.09676 0
M  V30 21580 H 2004.45 -6.3444 -1.64822 0
M  V30 21581 H 2003.97 -5.22541 -2.94468 0
M  V30 21582 H 2005.65 -5.81126 -2.84432 0
M  V30 21583 N 2005.78 0.645673 -1.43767 0
M  V30 21584 C 2006.71 1.77107 -1.45484 0
M  V30 21585 C 2007.73 1.58993 -0.350002 0
M  V30 21586 O 2008.92 1.67575 -0.61489 0
M  V30 21587 C 2006.02 3.14639 -1.25919 0
M  V30 21588 C 2005.19 3.59344 -2.49381 0
M  V30 21589 C 2004.25 4.75703 -2.24929 0
M  V30 21590 O 2003.27 4.84756 -2.98329 0
M  V30 21591 N 2004.48 5.66422 -1.27068 0
M  V30 21592 H 2007.24 1.7611 -2.42498 0
M  V30 21593 H 2004.8 0.829768 -1.3902 0
M  V30 21594 H 2006.79 3.9018 -1.07432 0
M  V30 21595 H 2005.36 3.10364 -0.37323 0
M  V30 21596 H 2004.58 2.74166 -2.83243 0
M  V30 21597 H 2005.87 3.8596 -3.3153 0
M  V30 21598 H 2005.27 5.61787 -0.664185 0
M  V30 21599 H 2003.83 6.41653 -1.14562 0
M  V30 21600 N 2007.26 1.30423 0.884744 0
M  V30 21601 C 2008.49 1.22184 1.66969 0
M  V30 21602 C 2008.9 -0.215259 1.87569 0
M  V30 21603 O 2008.26 -1.14224 1.42335 0
M  V30 21604 C 2008.31 1.94692 3.04593 0
M  V30 21605 O 2008.03 3.32792 2.84923 0
M  V30 21606 C 2009.53 1.93114 3.99026 0
M  V30 21607 H 2006.75 0.422826 0.521018 0
M  V30 21608 H 2009.3 1.72052 1.10537 0
M  V30 21609 H 2007.45 1.48623 3.57757 0
M  V30 21610 H 2007.87 3.69517 3.72233 0
M  V30 21611 H 2009.34 2.48386 4.92959 0
M  V30 21612 H 2009.82 0.91013 4.29666 0
M  V30 21613 H 2010.42 2.38996 3.51797 0
M  V30 21614 N 2008.74 -1.09711 1.13142 0
M  V30 21615 C 2009.68 -2.16265 0.806118 0
M  V30 21616 C 2010.65 -1.64493 -0.230476 0
M  V30 21617 O 2011.84 -1.9052 -0.103375 0
M  V30 21618 C 2008.98 -3.44002 0.275075 0
M  V30 21619 C 2008.09 -4.09688 1.37038 0
M  V30 21620 C 2007.23 -5.25172 0.797983 0
M  V30 21621 C 2006.27 -5.82775 1.87189 0
M  V30 21622 N 2005.4 -6.89625 1.31766 0
M  V30 21623 H 2010.24 -2.43434 1.71883 0
M  V30 21624 H 2007.78 -1.19482 0.858044 0
M  V30 21625 H 2009.74 -4.17169 -0.0509244 0
M  V30 21626 H 2008.37 -3.1716 -0.600779 0
M  V30 21627 H 2007.42 -3.34415 1.81302 0
M  V30 21628 H 2008.73 -4.48535 2.18215 0
M  V30 21629 H 2007.89 -6.05223 0.423093 0
M  V30 21630 H 2006.63 -4.87679 -0.0448997 0
M  V30 21631 H 2005.63 -5.01388 2.25588 0
M  V30 21632 H 2006.86 -6.2233 2.71812 0
M  V30 21633 H 2004.8 -6.54117 0.496729 0
M  V30 21634 H 2004.72 -7.27224 2.06594 0
M  V30 21635 H 2005.99 -7.73438 0.970242 0
M  V30 21636 N 2010.22 -0.924476 -1.27637 0
M  V30 21637 C 2011.13 -0.426579 -2.30689 0
M  V30 21638 C 2012.14 0.491134 -1.66925 0
M  V30 21639 O 2013.32 0.374724 -1.97883 0
M  V30 21640 C 2010.38 0.31558 -3.45261 0
M  V30 21641 C 2009.44 -0.636655 -4.24553 0
M  V30 21642 C 2008.68 0.0701807 -5.33654 0
M  V30 21643 O 2008.9 1.29011 -5.55619 0
M  V30 21644 O 2007.83 -0.599998 -5.98902 0
M  V30 21645 H 2011.66 -1.28216 -2.75308 0
M  V30 21646 H 2009.25 -0.689699 -1.32527 0
M  V30 21647 H 2011.13 0.734315 -4.14953 0
M  V30 21648 H 2009.8 1.14682 -3.02704 0
M  V30 21649 H 2008.71 -1.105 -3.57408 0
M  V30 21650 H 2010.04 -1.43502 -4.70816 0
M  V30 21651 N 2011.69 1.41711 -0.689627 0
M  V30 21652 C 2012.62 2.33474 -0.0348045 0
M  V30 21653 C 2013.61 1.51494 0.773533 0
M  V30 21654 O 2014.79 1.8005 0.727705 0
M  V30 21655 C 2011.92 3.35259 0.906573 0
M  V30 21656 C 2010.87 4.27505 0.205762 0
M  V30 21657 C 2010.2 5.19616 1.26109 0
M  V30 21658 C 2011.5 5.14056 -0.92431 0
M  V30 21659 H 2013.19 2.88481 -0.801208 0
M  V30 21660 H 2010.74 1.3871 -0.386738 0
M  V30 21661 H 2012.69 3.98375 1.37386 0
M  V30 21662 H 2011.42 2.78589 1.70457 0
M  V30 21663 H 2010.08 3.65804 -0.241437 0
M  V30 21664 H 2009.72 4.59264 2.05147 0
M  V30 21665 H 2009.42 5.82167 0.797221 0
M  V30 21666 H 2010.95 5.85609 1.72901 0
M  V30 21667 H 2012.36 5.70774 -0.537573 0
M  V30 21668 H 2010.76 5.85517 -1.3149 0
M  V30 21669 H 2011.83 4.51574 -1.7666 0
M  V30 21670 N 2013.17 0.433965 1.51507 0
M  V30 21671 C 2014.1 -0.41493 2.25413 0
M  V30 21672 C 2015.12 -0.989176 1.29303 0
M  V30 21673 O 2016.31 -0.883889 1.55079 0
M  V30 21674 C 2013.41 -1.59207 2.99176 0
M  V30 21675 C 2012.58 -1.1373 4.22355 0
M  V30 21676 C 2011.64 -2.18418 4.78727 0
M  V30 21677 O 2010.66 -1.77991 5.40655 0
M  V30 21678 N 2011.87 -3.50866 4.62465 0
M  V30 21679 H 2014.63 0.218474 2.98903 0
M  V30 21680 H 2012.19 0.26267 1.59755 0
M  V30 21681 H 2014.18 -2.28857 3.33776 0
M  V30 21682 H 2012.75 -2.13089 2.28718 0
M  V30 21683 H 2011.97 -0.267997 3.93288 0
M  V30 21684 H 2013.26 -0.8108 5.02298 0
M  V30 21685 H 2012.66 -3.86446 4.1313 0
M  V30 21686 H 2011.22 -4.1642 5.01436 0
M  V30 21687 N 2014.65 -1.56732 0.165206 0
M  V30 21688 C 2015.6 -2.17666 -0.767471 0
M  V30 21689 C 2016.57 -1.11485 -1.23127 0
M  V30 21690 O 2017.75 -1.39609 -1.30054 0
M  V30 21691 C 2014.89 -2.81673 -1.99385 0
M  V30 21692 C 2014.01 -4.02298 -1.57418 0
M  V30 21693 C 2013.14 -4.54249 -2.75375 0
M  V30 21694 C 2012.18 -5.67298 -2.29869 0
M  V30 21695 N 2011.32 -6.13786 -3.40898 0
M  V30 21696 H 2016.16 -2.97023 -0.24106 0
M  V30 21697 H 2013.69 -1.46708 -0.10726 0
M  V30 21698 H 2015.65 -3.16937 -2.71306 0
M  V30 21699 H 2014.28 -2.0493 -2.49407 0
M  V30 21700 H 2013.33 -3.72894 -0.75194 0
M  V30 21701 H 2014.65 -4.84148 -1.2001 0
M  V30 21702 H 2013.8 -4.91663 -3.55461 0
M  V30 21703 H 2012.54 -3.71444 -3.16039 0
M  V30 21704 H 2011.54 -5.29442 -1.48228 0
M  V30 21705 H 2012.77 -6.519 -1.9027 0
M  V30 21706 H 2010.71 -5.33911 -3.81149 0
M  V30 21707 H 2010.63 -6.90609 -3.07563 0
M  V30 21708 H 2011.9 -6.55849 -4.21287 0
M  V30 21709 N 2016.13 0.10854 -1.57226 0
M  V30 21710 C 2017.06 1.15853 -1.97764 0
M  V30 21711 C 2018.07 1.37073 -0.878345 0
M  V30 21712 O 2019.26 1.35963 -1.15657 0
M  V30 21713 C 2016.36 2.51663 -2.26978 0
M  V30 21714 C 2015.54 2.50904 -3.58282 0
M  V30 21715 C 2014.59 3.68538 -3.75588 0
M  V30 21716 O 2013.62 3.51644 -4.47588 0
M  V30 21717 N 2014.82 4.87507 -3.15146 0
M  V30 21718 H 2017.59 0.81361 -2.88445 0
M  V30 21719 H 2015.15 0.29769 -1.5914 0
M  V30 21720 H 2017.14 3.28936 -2.35761 0
M  V30 21721 H 2015.71 2.78297 -1.42372 0
M  V30 21722 H 2014.93 1.59271 -3.60592 0
M  V30 21723 H 2016.22 2.47463 -4.44567 0
M  V30 21724 H 2015.62 5.04137 -2.56637 0
M  V30 21725 H 2014.17 5.6242 -3.29434 0
M  V30 21726 N 2017.61 1.52975 0.379009 0
M  V30 21727 C 2018.86 1.67728 1.12028 0
M  V30 21728 C 2019.17 0.428628 1.90846 0
M  V30 21729 O 2020.37 0.456461 2.67635 0
M  V30 21730 C 2018.83 2.96454 2.04066 0
M  V30 21731 C 2018.44 4.28534 1.30624 0
M  V30 21732 C 2020.18 3.20574 2.78267 0
M  V30 21733 C 2018.09 5.4836 2.21485 0
M  V30 21734 H 2017.02 0.624902 0.421917 0
M  V30 21735 H 2019.67 1.79474 0.382288 0
M  V30 21736 H 2018.05 2.78478 2.81542 0
M  V30 21737 H 2019.23 4.57097 0.583043 0
M  V30 21738 H 2017.54 4.10754 0.683407 0
M  V30 21739 H 2020.14 4.07279 3.4645 0
M  V30 21740 H 2020.48 2.36066 3.42898 0
M  V30 21741 H 2021.01 3.39162 2.0788 0
M  V30 21742 H 2017.75 6.35305 1.61455 0
M  V30 21743 H 2017.27 5.24095 2.91692 0
M  V30 21744 H 2018.95 5.82626 2.81346 0
M  V30 21745 N 2019.08 -0.63804 1.44107 0
M  V30 21746 C 2020.31 -1.4251 1.49995 0
M  V30 21747 C 2020.73 -1.88401 0.122604 0
M  V30 21748 O 2020.08 -1.60419 -0.870168 0
M  V30 21749 C 2020.14 -2.65002 2.45879 0
M  V30 21750 O 2019.86 -2.21025 3.78259 0
M  V30 21751 C 2021.36 -3.58203 2.61162 0
M  V30 21752 H 2018.58 -0.437285 0.508943 0
M  V30 21753 H 2021.12 -0.780912 1.89003 0
M  V30 21754 H 2019.28 -3.25527 2.10026 0
M  V30 21755 H 2019.69 -3.00388 4.29962 0
M  V30 21756 H 2021.16 -4.40776 3.32295 0
M  V30 21757 H 2021.64 -4.06556 1.6616 0
M  V30 21758 H 2022.25 -3.0355 2.97888 0
M  V30 21759 N 2020.56 -1.3089 -0.877815 0
M  V30 21760 C 2021.51 -1.17878 -1.98427 0
M  V30 21761 C 2022.48 -0.0664893 -1.65967 0
M  V30 21762 O 2023.66 -0.237956 -1.8931 0
M  V30 21763 C 2020.8 -0.883984 -3.33586 0
M  V30 21764 C 2019.92 -2.07885 -3.78692 0
M  V30 21765 C 2019.05 -1.72152 -5.02531 0
M  V30 21766 C 2018.09 -2.88092 -5.40064 0
M  V30 21767 N 2017.23 -2.52607 -6.55083 0
M  V30 21768 H 2022.07 -2.12531 -2.08889 0
M  V30 21769 H 2019.61 -1.05732 -1.0227 0
M  V30 21770 H 2021.56 -0.693656 -4.11393 0
M  V30 21771 H 2020.19 0.0256933 -3.2279 0
M  V30 21772 H 2019.25 -2.3802 -2.96733 0
M  V30 21773 H 2020.56 -2.94687 -4.02444 0
M  V30 21774 H 2019.71 -1.49536 -5.87983 0
M  V30 21775 H 2018.45 -0.825297 -4.80666 0
M  V30 21776 H 2017.46 -3.11366 -4.53135 0
M  V30 21777 H 2018.68 -3.78412 -5.63898 0
M  V30 21778 H 2016.63 -1.65499 -6.3478 0
M  V30 21779 H 2016.54 -3.3294 -6.78739 0
M  V30 21780 H 2017.81 -2.33365 -7.43748 0
M  V30 21781 N 2022.04 1.0911 -1.13723 0
M  V30 21782 C 2023.29 1.80725 -0.895618 0
M  V30 21783 C 2023.6 1.86812 0.579725 0
M  V30 21784 O 2024.81 2.54768 0.938368 0
M  V30 21785 C 2023.26 3.24679 -1.55278 0
M  V30 21786 C 2022.87 3.26849 -3.06388 0
M  V30 21787 C 2024.62 4.01028 -1.392 0
M  V30 21788 C 2022.52 4.65347 -3.64974 0
M  V30 21789 H 2021.45 0.677257 -0.33142 0
M  V30 21790 H 2024.1 1.22603 -1.36531 0
M  V30 21791 H 2022.49 3.82883 -1.01075 0
M  V30 21792 H 2023.66 2.78393 -3.67198 0
M  V30 21793 H 2021.98 2.63993 -3.2202 0
M  V30 21794 H 2024.57 5.03356 -1.80379 0
M  V30 21795 H 2024.92 4.14932 -0.337236 0
M  V30 21796 H 2025.45 3.49274 -1.904 0
M  V30 21797 H 2022.19 4.56646 -4.70271 0
M  V30 21798 H 2021.71 5.14115 -3.08943 0
M  V30 21799 H 2023.39 5.34322 -3.64841 0
M  V30 21800 N 2023.52 0.931232 1.27145 0
M  V30 21801 C 2024.45 0.39037 2.25851 0
M  V30 21802 C 2025.46 -0.480869 1.55536 0
M  V30 21803 O 2026.65 -0.292921 1.7608 0
M  V30 21804 C 2023.75 -0.458971 3.35778 0
M  V30 21805 C 2022.93 0.393796 4.35624 0
M  V30 21806 C 2021.98 -0.393477 5.24727 0
M  V30 21807 O 2021.01 0.20005 5.68848 0
M  V30 21808 N 2022.21 -1.69245 5.55281 0
M  V30 21809 H 2024.98 1.23887 2.72896 0
M  V30 21810 H 2022.54 0.799038 1.40808 0
M  V30 21811 H 2024.53 -0.992799 3.92334 0
M  V30 21812 H 2023.1 -1.20824 2.88306 0
M  V30 21813 H 2022.32 1.1089 3.78282 0
M  V30 21814 H 2023.61 0.976663 4.99338 0
M  V30 21815 H 2023.01 -2.19693 5.21298 0
M  V30 21816 H 2021.56 -2.17273 6.14521 0
M  V30 21817 N 2025 -1.41343 0.697132 0
M  V30 21818 C 2025.95 -2.3259 0.0214207 0
M  V30 21819 C 2026.94 -1.51048 -0.766873 0
M  V30 21820 O 2028.15 -1.66973 -0.672319 0
M  V30 21821 H 2024.52 -0.751906 -0.0118741 0
M  V30 21822 H 2026.49 -2.87252 0.808025 0
M  V30 21823 C 2025.24 -3.35853 -0.899884 0
M  V30 21824 H 2024.56 -3.98652 -0.302721 0
M  V30 21825 H 2026 -4.02236 -1.34097 0
M  V30 21826 C 2024.46 -2.69865 -2.01679 0
M  V30 21827 O 2024.99 -2.54768 -3.10574 0
M  V30 21828 N 2023.2 -2.28536 -1.79498 0
M  V30 21829 H 2022.75 -2.41015 -0.909364 0
M  V30 21830 H 2022.7 -1.8472 -2.54413 0
M  V30 21831 N 2026.48 -0.441993 -1.51275 0
M  V30 21832 C 2027.72 0.122911 -2.02127 0
M  V30 21833 C 2028.05 1.42305 -1.32588 0
M  V30 21834 O 2027.31 1.90895 -0.431013 0
M  V30 21835 C 2027.6 0.384298 -3.55328 0
M  V30 21836 C 2027.27 -0.830593 -4.43184 0
M  V30 21837 C 2025.93 -1.16375 -4.66916 0
M  V30 21838 C 2028.28 -1.64084 -4.94698 0
M  V30 21839 C 2025.61 -2.30775 -5.39407 0
M  V30 21840 C 2027.96 -2.77587 -5.68444 0
M  V30 21841 C 2026.63 -3.11351 -5.90438 0
M  V30 21842 H 2025.9 0.0449764 -0.739634 0
M  V30 21843 H 2028.55 -0.59014 -1.8218 0
M  V30 21844 H 2026.85 1.17929 -3.73631 0
M  V30 21845 H 2028.55 0.834882 -3.92213 0
M  V30 21846 H 2025.14 -0.560991 -4.24913 0
M  V30 21847 H 2029.32 -1.39665 -4.76243 0
M  V30 21848 H 2024.58 -2.57243 -5.54649 0
M  V30 21849 H 2028.75 -3.40736 -6.07348 0
M  V30 21850 H 2026.38 -4.00108 -6.46388 0
M  V30 21851 N 2027.95 1.56642 -0.173515 0
M  V30 21852 C 2029.37 1.58552 0.182625 0
M  V30 21853 C 2029.57 1.18895 1.62685 0
M  V30 21854 O 2028.63 0.901576 2.35856 0
M  V30 21855 C 2029.94 3.00533 -0.100181 0
M  V30 21856 C 2031.49 3.12976 -0.038567 0
M  V30 21857 C 2031.96 4.57053 -0.294392 0
M  V30 21858 N 2033.45 4.62566 -0.242245 0
M  V30 21859 C 2034.19 5.71901 -0.414333 0
M  V30 21860 N 2033.68 6.89785 -0.645597 0
M  V30 21861 N 2035.48 5.61009 -0.350085 0
M  V30 21862 H 2027.63 1.80706 -1.1162 0
M  V30 21863 H 2029.89 0.837643 -0.443912 0
M  V30 21864 H 2029.6 3.34031 -1.10073 0
M  V30 21865 H 2029.47 3.72281 0.607196 0
M  V30 21866 H 2031.86 2.79303 0.952559 0
M  V30 21867 H 2031.94 2.4366 -0.778688 0
M  V30 21868 H 2031.58 4.91435 -1.28274 0
M  V30 21869 H 2031.51 5.24531 0.466366 0
M  V30 21870 H 2034 3.77837 -0.0692351 0
M  V30 21871 H 2034.32 7.68991 -0.766299 0
M  V30 21872 H 2032.66 6.91643 -0.682238 0
M  V30 21873 H 2035.85 4.67791 -0.169986 0
M  V30 21874 H 2036.03 6.46163 -0.487625 0
M  V30 21875 N 2029.43 -0.1002 1.57281 0
M  V30 21876 C 2030.68 -0.805815 1.86103 0
M  V30 21877 C 2031.01 -1.78629 0.761925 0
M  V30 21878 O 2030.29 -1.93128 -0.230572 0
M  V30 21879 C 2030.57 -1.53909 3.25552 0
M  V30 21880 C 2030.42 -0.576946 4.46084 0
M  V30 21881 C 2031.74 -2.49088 3.62827 0
M  V30 21882 H 2028.86 -0.29149 0.676907 0
M  V30 21883 H 2031.5 -0.0695656 1.89873 0
M  V30 21884 H 2029.65 -2.16669 3.2247 0
M  V30 21885 H 2031.32 0.0432618 4.6128 0
M  V30 21886 H 2029.57 0.11008 4.3366 0
M  V30 21887 H 2030.24 -1.12705 5.40372 0
M  V30 21888 H 2032.71 -1.96423 3.66821 0
M  V30 21889 H 2031.59 -2.97415 4.61341 0
M  V30 21890 H 2031.85 -3.32614 2.9124 0
M  V30 21891 N 2030.91 -1.53174 -0.370891 0
M  V30 21892 C 2032.14 -1.72749 -1.13319 0
M  V30 21893 C 2032.55 -0.453832 -1.83676 0
M  V30 21894 O 2031.89 0.582685 -1.74214 0
M  V30 21895 C 2031.95 -2.83436 -2.21143 0
M  V30 21896 C 2031.62 -4.23963 -1.70599 0
M  V30 21897 C 2032.61 -5.06496 -1.17293 0
M  V30 21898 C 2030.3 -4.70354 -1.76273 0
M  V30 21899 C 2032.29 -6.33508 -0.703308 0
M  V30 21900 C 2029.98 -5.97346 -1.28923 0
M  V30 21901 C 2030.98 -6.78754 -0.760411 0
M  V30 21902 O 2030.67 -8.03363 -0.293883 0
M  V30 21903 H 2030.4 -0.581347 -0.344981 0
M  V30 21904 H 2032.95 -2.0069 -0.437343 0
M  V30 21905 H 2031.18 -2.50957 -2.94206 0
M  V30 21906 H 2032.87 -2.9124 -2.82726 0
M  V30 21907 H 2033.64 -4.71831 -1.12252 0
M  V30 21908 H 2029.52 -4.07066 -2.16375 0
M  V30 21909 H 2033.06 -6.96997 -0.289876 0
M  V30 21910 H 2028.96 -6.31511 -1.33655 0
M  V30 21911 H 2029.72 -8.17454 -0.413701 0
M  V30 21912 N 2032.39 0.630389 -1.44443 0
M  V30 21913 C 2033.62 1.41507 -1.5053 0
M  V30 21914 C 2034.03 1.88759 -0.129099 0
M  V30 21915 O 2033.37 1.61501 0.8754 0
M  V30 21916 C 2033.43 2.6686 -2.40886 0
M  V30 21917 C 2033.09 2.41399 -3.88041 0
M  V30 21918 C 2034.09 2.03181 -4.78554 0
M  V30 21919 C 2031.78 2.55016 -4.3275 0
M  V30 21920 C 2033.77 1.78909 -6.11776 0
M  V30 21921 C 2031.46 2.30359 -5.6602 0
M  V30 21922 C 2032.46 1.92364 -6.55351 0
M  V30 21923 O 2032.14 1.67981 -7.86154 0
M  V30 21924 H 2031.88 0.440388 -0.512869 0
M  V30 21925 H 2034.43 0.778074 -1.90093 0
M  V30 21926 H 2032.66 3.33199 -1.96252 0
M  V30 21927 H 2034.35 3.28864 -2.37915 0
M  V30 21928 H 2035.11 1.92217 -4.45284 0
M  V30 21929 H 2030.99 2.8356 -3.63476 0
M  V30 21930 H 2034.54 1.49178 -6.81463 0
M  V30 21931 H 2030.43 2.40932 -5.9885 0
M  V30 21932 H 2031.2 1.82221 -7.97959 0
M  V30 21933 N 2033.87 1.31354 0.870861 0
M  V30 21934 C 2035.28 1.09992 1.15646 0
M  V30 21935 C 2035.48 -0.130192 2.01079 0
M  V30 21936 O 2034.54 -0.819776 2.38822 0
M  V30 21937 C 2035.85 2.37098 1.84946 0
M  V30 21938 C 2037.4 2.42699 1.97651 0
M  V30 21939 C 2037.87 3.69684 2.70366 0
M  V30 21940 N 2039.36 3.70573 2.77902 0
M  V30 21941 C 2040.1 4.65525 3.34775 0
M  V30 21942 N 2039.6 5.70831 3.92586 0
M  V30 21943 N 2041.39 4.53046 3.32724 0
M  V30 21944 H 2033.54 2.10249 0.301547 0
M  V30 21945 H 2035.8 0.927478 0.196185 0
M  V30 21946 H 2035.51 3.26943 1.2962 0
M  V30 21947 H 2035.38 2.46827 2.8523 0
M  V30 21948 H 2037.77 1.53324 2.52142 0
M  V30 21949 H 2037.85 2.36935 0.964123 0
M  V30 21950 H 2037.49 4.59425 2.16543 0
M  V30 21951 H 2037.42 3.72714 3.7201 0
M  V30 21952 H 2039.92 2.94449 2.36872 0
M  V30 21953 H 2040.23 6.39363 4.3409 0
M  V30 21954 H 2038.57 5.74606 3.90964 0
M  V30 21955 H 2041.76 3.69952 2.86798 0
M  V30 21956 H 2041.94 5.27223 3.76749 0
M  V30 21957 N 2035.34 -1.08505 1.143 0
M  V30 21958 C 2036.62 -1.77515 0.82144 0
M  V30 21959 C 2037 -1.99668 -0.685253 0
M  V30 21960 O 2036.35 -1.60569 -1.62573 0
M  V30 21961 C 2036.56 -3.09174 1.61903 0
M  V30 21962 C 2037.91 -3.83722 1.81775 0
M  V30 21963 O 2038.93 -3.18952 1.58581 0
M  V30 21964 O 2037.79 -5.00023 2.20543 0
M  V30 21965 H 2034.88 -0.770315 0.300906 0
M  V30 21966 H 2037.43 -1.14976 1.24814 0
M  V30 21967 H 2036.2 -2.88593 2.64253 0
M  V30 21968 H 2035.82 -3.7944 1.1879 0
M  V30 21969 N 2036.82 -0.937962 -1.26649 0
M  V30 21970 C 2037.77 -0.435759 -2.28482 0
M  V30 21971 C 2038.76 0.485286 -1.623 0
M  V30 21972 O 2039.97 0.363854 -1.76284 0
M  V30 21973 H 2036.34 -0.122373 -0.741976 0
M  V30 21974 H 2038.32 -1.30722 -2.68243 0
M  V30 21975 C 2037.06 0.286679 -3.46516 0
M  V30 21976 H 2036.39 -0.412881 -3.97662 0
M  V30 21977 H 2037.83 0.602341 -4.197 0
M  V30 21978 C 2036.29 1.50334 -3.01499 0
M  V30 21979 O 2036.82 2.60176 -3.06058 0
M  V30 21980 N 2035.02 1.35877 -2.56877 0
M  V30 21981 H 2034.57 0.465092 -2.53367 0
M  V30 21982 H 2034.53 2.17403 -2.27119 0
M  V30 21983 N 2038.3 1.40971 -0.704618 0
M  V30 21984 C 2039.25 2.30756 -0.0450323 0
M  V30 21985 C 2040.22 1.47598 0.761835 0
M  V30 21986 O 2041.4 1.76365 0.728023 0
M  V30 21987 C 2038.54 3.33723 0.878802 0
M  V30 21988 C 2037.65 4.31955 0.0625832 0
M  V30 21989 C 2036.79 5.2199 0.984889 0
M  V30 21990 C 2035.83 6.11885 0.16211 0
M  V30 21991 N 2034.97 6.94374 1.0387 0
M  V30 21992 H 2039.81 2.86598 -0.816414 0
M  V30 21993 H 2037.34 1.41145 -0.414306 0
M  V30 21994 H 2039.3 3.9198 1.42856 0
M  V30 21995 H 2037.93 2.79409 1.61648 0
M  V30 21996 H 2036.98 3.75571 -0.604216 0
M  V30 21997 H 2038.29 4.95476 -0.574897 0
M  V30 21998 H 2037.45 5.85125 1.60356 0
M  V30 21999 H 2036.19 4.58717 1.65621 0
M  V30 22000 H 2035.19 5.47791 -0.469576 0
M  V30 22001 H 2036.42 6.77216 -0.505547 0
M  V30 22002 H 2034.36 6.337 1.69588 0
M  V30 22003 H 2034.28 7.54617 0.457006 0
M  V30 22004 H 2035.55 7.61969 1.6439 0
M  V30 22005 N 2039.78 0.45001 1.51039 0
M  V30 22006 C 2041.06 -0.172746 1.94836 0
M  V30 22007 C 2041.44 -1.58934 1.38936 0
M  V30 22008 O 2040.78 -2.20974 0.581609 0
M  V30 22009 C 2040.99 -0.137579 3.48729 0
M  V30 22010 C 2042.34 -0.33691 4.23261 0
M  V30 22011 O 2043.37 -0.215124 3.5555 0
M  V30 22012 O 2042.22 -0.580548 5.43408 0
M  V30 22013 H 2039.32 -0.12312 0.817784 0
M  V30 22014 H 2041.86 0.5089 1.6189 0
M  V30 22015 H 2040.64 0.852286 3.81905 0
M  V30 22016 H 2040.26 -0.861592 3.88152 0
M  V30 22017 N 2041.26 -1.56548 0.18182 0
M  V30 22018 C 2042.67 -1.83704 -0.3331 0
M  V30 22019 C 2043.02 -1.10203 -1.62326 0
M  V30 22020 O 2042.14 -0.358476 -2.1341 0
M  V30 22021 C 2042.74 -3.33243 -0.611134 0
M  V30 22022 C 2041.3 -3.60857 -1.07046 0
M  V30 22023 C 2040.44 -2.77074 -0.111929 0
M  V30 22024 H 2043.4 -1.53422 0.405878 0
M  V30 22025 H 2043.42 -3.51292 -1.462 0
M  V30 22026 H 2042.93 -3.86711 0.328039 0
M  V30 22027 H 2041.03 -3.1281 -2.02437 0
M  V30 22028 H 2041.14 -4.69129 -0.972357 0
M  V30 22029 H 2039.51 -2.47255 -0.611302 0
M  V30 22030 H 2040.29 -3.33327 0.821452 0
M  V30 22031 N 2042.73 0.0918577 -1.57332 0
M  V30 22032 C 2043.66 1.11191 -2.05326 0
M  V30 22033 C 2044.65 1.41581 -0.942802 0
M  V30 22034 O 2045.83 1.51555 -1.21428 0
M  V30 22035 C 2042.96 2.4309 -2.48041 0
M  V30 22036 C 2041.91 2.271 -3.6278 0
M  V30 22037 C 2041.24 3.64205 -3.91482 0
M  V30 22038 C 2042.54 1.70886 -4.93554 0
M  V30 22039 H 2044.23 0.712608 -2.90796 0
M  V30 22040 H 2041.78 0.341338 -1.39896 0
M  V30 22041 H 2043.73 3.14724 -2.80226 0
M  V30 22042 H 2042.46 2.84962 -1.59575 0
M  V30 22043 H 2041.12 1.57911 -3.30847 0
M  V30 22044 H 2040.76 4.03611 -3.00179 0
M  V30 22045 H 2040.46 3.54352 -4.68731 0
M  V30 22046 H 2041.99 4.37302 -4.26145 0
M  V30 22047 H 2043.4 2.32364 -5.24099 0
M  V30 22048 H 2041.8 1.71783 -5.74987 0
M  V30 22049 H 2042.87 0.668569 -4.80269 0
M  V30 22050 N 2044.21 1.53368 0.362763 0
M  V30 22051 C 2045.46 1.70884 1.10319 0
M  V30 22052 C 2045.81 0.456469 1.86907 0
M  V30 22053 O 2045.11 -0.550575 1.83519 0
M  V30 22054 C 2045.3 2.89992 2.089 0
M  V30 22055 C 2045.13 4.26692 1.41999 0
M  V30 22056 C 2043.9 4.91498 1.17293 0
M  V30 22057 C 2046.1 5.07123 0.856223 0
M  V30 22058 N 2044.08 6.12116 0.467719 0
M  V30 22059 C 2045.45 6.19365 0.280529 0
M  V30 22060 C 2047.51 4.9214 0.755187 0
M  V30 22061 C 2046.21 7.18262 -0.386351 0
M  V30 22062 C 2048.23 5.91312 0.102083 0
M  V30 22063 C 2047.6 7.02879 -0.462725 0
M  V30 22064 H 2043.7 0.678533 0.388738 0
M  V30 22065 H 2046.28 1.9077 0.389217 0
M  V30 22066 H 2044.45 2.7164 2.77608 0
M  V30 22067 H 2046.18 2.96318 2.75641 0
M  V30 22068 H 2042.94 4.50697 1.45496 0
M  V30 22069 H 2043.36 6.76874 0.130396 0
M  V30 22070 H 2048 4.06069 1.17762 0
M  V30 22071 H 2045.72 8.03921 -0.820727 0
M  V30 22072 H 2049.31 5.81795 0.0247965 0
M  V30 22073 H 2048.19 7.78301 -0.960096 0
M  V30 22074 N 2045.69 -0.62272 1.44776 0
M  V30 22075 C 2046.64 -1.73427 1.52288 0
M  V30 22076 C 2047.61 -1.61928 0.369917 0
M  V30 22077 O 2048.79 -1.81729 0.581308 0
M  V30 22078 C 2045.93 -3.117 1.48112 0
M  V30 22079 C 2045.05 -3.34114 2.73847 0
M  V30 22080 C 2044.18 -4.62407 2.61445 0
M  V30 22081 C 2043.22 -4.78027 3.82304 0
M  V30 22082 N 2042.36 -5.97605 3.68528 0
M  V30 22083 H 2047.2 -1.66341 2.47254 0
M  V30 22084 H 2044.73 -0.811311 1.22704 0
M  V30 22085 H 2046.69 -3.91678 1.4368 0
M  V30 22086 H 2045.32 -3.1778 0.567076 0
M  V30 22087 H 2044.37 -2.48017 2.8843 0
M  V30 22088 H 2045.69 -3.41533 3.63533 0
M  V30 22089 H 2044.84 -5.50558 2.54894 0
M  V30 22090 H 2043.58 -4.5736 1.69333 0
M  V30 22091 H 2042.58 -3.88303 3.89231 0
M  V30 22092 H 2043.81 -4.84883 4.75464 0
M  V30 22093 H 2041.75 -5.93631 2.79173 0
M  V30 22094 H 2041.67 -6.06118 4.51838 0
M  V30 22095 H 2042.94 -6.88295 3.65883 0
M  V30 22096 N 2047.17 -1.31814 -0.863883 0
M  V30 22097 C 2048.42 -1.21607 -1.61419 0
M  V30 22098 C 2048.74 0.22444 -1.93704 0
M  V30 22099 O 2048.01 1.14677 -1.58827 0
M  V30 22100 H 2046.59 -0.447091 -0.59843 0
M  V30 22101 H 2049.25 -1.65218 -1.03388 0
M  V30 22102 H 2048.35 -1.79213 -2.55517 0
M  V30 22103 N 2048.65 1.07897 -1.14873 0
M  V30 22104 C 2050.06 1.61864 -0.930434 0
M  V30 22105 C 2050.41 1.88918 0.529558 0
M  V30 22106 O 2049.53 1.65051 1.39954 0
M  V30 22107 C 2050.13 2.94067 -1.68256 0
M  V30 22108 C 2048.69 3.44797 -1.50969 0
M  V30 22109 C 2047.83 2.18945 -1.70171 0
M  V30 22110 H 2050.79 0.910562 -1.29979 0
M  V30 22111 H 2050.81 3.62744 -1.1488 0
M  V30 22112 H 2050.32 2.74344 -2.74512 0
M  V30 22113 H 2048.42 3.69613 -0.470834 0
M  V30 22114 H 2048.53 4.21205 -2.28305 0
M  V30 22115 H 2046.9 2.28371 -1.12778 0
M  V30 22116 H 2047.68 2.01724 -2.77781 0
M  V30 22117 N 2050.12 0.944665 1.2615 0
M  V30 22118 C 2051.09 0.461547 2.24505 0
M  V30 22119 C 2052.09 -0.429277 1.54964 0
M  V30 22120 O 2053.28 -0.227965 1.72702 0
M  V30 22121 C 2050.41 -0.334363 3.39256 0
M  V30 22122 H 2051.6 1.33075 2.68758 0
M  V30 22123 H 2049.16 0.726968 1.38365 0
M  V30 22124 H 2049.89 -1.22167 3.00409 0
M  V30 22125 H 2049.68 0.304588 3.90915 0
M  V30 22126 H 2051.17 -0.662181 4.12317 0
M  V30 22127 N 2051.6 -1.40596 0.712085 0
M  V30 22128 C 2052.55 -2.30729 0.0572693 0
M  V30 22129 C 2053.52 -1.48 -0.753997 0
M  V30 22130 O 2054.7 -1.76748 -0.71866 0
M  V30 22131 C 2051.84 -3.34184 -0.861092 0
M  V30 22132 C 2050.96 -4.31982 -0.0396747 0
M  V30 22133 C 2050.09 -5.22505 -0.957193 0
M  V30 22134 C 2049.13 -6.11963 -0.129658 0
M  V30 22135 N 2048.27 -6.94915 -1.00186 0
M  V30 22136 H 2053.11 -2.86161 0.831601 0
M  V30 22137 H 2050.65 -1.40923 0.421786 0
M  V30 22138 H 2052.6 -3.92732 -1.40775 0
M  V30 22139 H 2051.23 -2.80263 -1.60164 0
M  V30 22140 H 2050.29 -3.75245 0.624125 0
M  V30 22141 H 2051.6 -4.95164 0.601165 0
M  V30 22142 H 2050.75 -5.85967 -1.57251 0
M  V30 22143 H 2049.49 -4.59589 -1.63186 0
M  V30 22144 H 2048.5 -5.47534 0.49862 0
M  V30 22145 H 2049.72 -6.76938 0.541455 0
M  V30 22146 H 2047.67 -6.34591 -1.66225 0
M  V30 22147 H 2047.58 -7.54849 -0.41698 0
M  V30 22148 H 2048.85 -7.6283 -1.60347 0
M  V30 22149 N 2053.08 -0.458013 -1.50798 0
M  V30 22150 C 2054.01 0.333063 -2.31112 0
M  V30 22151 C 2054.99 1.00231 -1.37433 0
M  V30 22152 O 2056.18 1.00199 -1.66354 0
M  V30 22153 C 2053.31 1.4229 -3.16814 0
M  V30 22154 C 2052.26 0.875993 -4.1894 0
M  V30 22155 C 2051.59 2.06313 -4.93294 0
M  V30 22156 C 2052.89 -0.103786 -5.22197 0
M  V30 22157 H 2054.58 -0.337222 -2.97495 0
M  V30 22158 H 2052.13 -0.163622 -1.43067 0
M  V30 22159 H 2054.08 1.98369 -3.7179 0
M  V30 22160 H 2052.8 2.12177 -2.48291 0
M  V30 22161 H 2051.46 0.337263 -3.65045 0
M  V30 22162 H 2051.11 2.74868 -4.21256 0
M  V30 22163 H 2050.81 1.70348 -5.62366 0
M  V30 22164 H 2052.33 2.62908 -5.511 0
M  V30 22165 H 2053.75 0.367392 -5.72122 0
M  V30 22166 H 2052.15 -0.377048 -5.98914 0
M  V30 22167 H 2053.22 -1.03392 -4.73749 0
M  V30 22168 N 2054.56 1.56449 -0.190119 0
M  V30 22169 C 2055.49 2.21861 0.728019 0
M  V30 22170 C 2056.47 1.18012 1.22504 0
M  V30 22171 O 2057.66 1.46503 1.27478 0
M  V30 22172 C 2054.79 2.87407 1.94973 0
M  V30 22173 C 2053.74 3.97457 1.58782 0
M  V30 22174 C 2053.07 4.50144 2.88573 0
M  V30 22175 C 2054.37 5.16113 0.801535 0
M  V30 22176 H 2056.06 2.98842 0.182734 0
M  V30 22177 H 2053.61 1.4374 0.0864508 0
M  V30 22178 H 2055.56 3.31848 2.59721 0
M  V30 22179 H 2054.28 2.07824 2.51946 0
M  V30 22180 H 2052.94 3.537 0.96395 0
M  V30 22181 H 2052.59 3.67328 3.43626 0
M  V30 22182 H 2052.29 5.24398 2.65105 0
M  V30 22183 H 2053.81 4.97283 3.54318 0
M  V30 22184 H 2055.23 5.5713 1.35201 0
M  V30 22185 H 2053.62 5.96402 0.66517 0
M  V30 22186 H 2054.69 4.84494 -0.198407 0
M  V30 22187 N 2056.04 -0.0835127 1.57379 0
M  V30 22188 C 2057.28 -0.78085 1.87814 0
M  V30 22189 C 2057.64 -1.75774 0.782389 0
M  V30 22190 O 2056.93 -1.90395 -0.21456 0
M  V30 22191 C 2057.13 -1.53851 3.22591 0
M  V30 22192 C 2056.95 -0.636497 4.45173 0
M  V30 22193 C 2055.72 -0.277851 5.04536 0
M  V30 22194 C 2057.92 0.0616369 5.14263 0
M  V30 22195 N 2055.9 0.631107 6.10647 0
M  V30 22196 C 2057.28 0.828223 6.14443 0
M  V30 22197 C 2059.33 0.134342 4.97719 0
M  V30 22198 C 2058.03 1.66074 6.99866 0
M  V30 22199 C 2060.06 0.953795 5.83658 0
M  V30 22200 C 2059.42 1.70846 6.83367 0
M  V30 22201 H 2055.52 -0.261535 0.736969 0
M  V30 22202 H 2058.1 -0.0428599 1.94653 0
M  V30 22203 H 2056.28 -2.24729 3.16783 0
M  V30 22204 H 2058.01 -2.18394 3.40714 0
M  V30 22205 H 2054.76 -0.628104 4.69416 0
M  V30 22206 H 2055.19 1.07848 6.68354 0
M  V30 22207 H 2059.83 -0.434778 4.20559 0
M  V30 22208 H 2057.55 2.24088 7.76409 0
M  V30 22209 H 2061.13 1.01287 5.72915 0
M  V30 22210 H 2060.01 2.33234 7.48713 0
M  V30 22211 N 2057.52 -1.53558 -0.354624 0
M  V30 22212 C 2058.46 -1.80769 -1.43497 0
M  V30 22213 C 2059.43 -0.65269 -1.52739 0
M  V30 22214 O 2060.62 -0.895997 -1.68453 0
M  V30 22215 C 2057.76 -2.01311 -2.80299 0
M  V30 22216 C 2056.87 -3.29028 -2.79937 0
M  V30 22217 C 2056.01 -3.39698 -4.08385 0
M  V30 22218 C 2055.04 -4.61406 -4.02208 0
M  V30 22219 N 2054.18 -4.6917 -5.22326 0
M  V30 22220 H 2059.02 -2.72949 -1.19594 0
M  V30 22221 H 2056.56 -1.35202 -0.579546 0
M  V30 22222 H 2058.52 -2.1121 -3.59786 0
M  V30 22223 H 2057.15 -1.12456 -3.02578 0
M  V30 22224 H 2056.2 -3.28027 -1.92619 0
M  V30 22225 H 2057.51 -4.186 -2.71248 0
M  V30 22226 H 2056.66 -3.48968 -4.96292 0
M  V30 22227 H 2055.4 -2.48162 -4.19842 0
M  V30 22228 H 2054.41 -4.52225 -3.12687 0
M  V30 22229 H 2055.63 -5.54295 -3.92344 0
M  V30 22230 H 2053.58 -3.80538 -5.34347 0
M  V30 22231 H 2053.5 -5.52662 -5.15849 0
M  V30 22232 H 2054.76 -4.82736 -6.12034 0
M  V30 22233 N 2058.99 0.615033 -1.45104 0
M  V30 22234 C 2060.24 1.37152 -1.48438 0
M  V30 22235 C 2060.56 1.94602 -0.124508 0
M  V30 22236 O 2059.83 1.76728 0.845222 0
M  V30 22237 H 2058.41 0.509131 -0.546621 0
M  V30 22238 H 2061.07 0.722747 -1.81004 0
M  V30 22239 H 2060.17 2.19472 -2.21898 0
M  V30 22240 N 2060.47 1.3227 0.85688 0
M  V30 22241 C 2061.38 1.23012 1.99763 0
M  V30 22242 C 2062.4 0.144168 1.73402 0
M  V30 22243 O 2063.57 0.364429 1.98075 0
M  V30 22244 C 2060.64 0.951293 3.33394 0
M  V30 22245 C 2059.7 2.12547 3.72991 0
M  V30 22246 C 2058.93 1.85984 5.00245 0
M  V30 22247 O 2059.16 0.801321 5.64743 0
M  V30 22248 O 2058.09 2.72029 5.36921 0
M  V30 22249 H 2061.92 2.18906 2.10509 0
M  V30 22250 H 2059.5 1.12138 0.987193 0
M  V30 22251 H 2061.38 0.812192 4.13499 0
M  V30 22252 H 2060.06 0.0224976 3.23692 0
M  V30 22253 H 2058.96 2.32003 2.93471 0
M  V30 22254 H 2060.3 3.03697 3.87336 0
M  V30 22255 N 2061.95 -1.07287 1.15444 0
M  V30 22256 C 2063.2 -1.7954 0.927885 0
M  V30 22257 C 2063.52 -1.87189 -0.546373 0
M  V30 22258 O 2062.79 -1.37326 -1.39708 0
M  V30 22259 H 2061.37 -0.664981 0.340307 0
M  V30 22260 H 2064.03 -1.29652 1.45521 0
M  V30 22261 H 2063.13 -2.81972 1.33784 0
M  V30 22262 N 2063.43 -0.951342 -1.25647 0
M  V30 22263 C 2064.39 -0.473447 -2.24257 0
M  V30 22264 C 2065.39 0.421053 -1.5519 0
M  V30 22265 O 2066.58 0.218803 -1.7282 0
M  V30 22266 C 2063.71 0.316367 -3.39429 0
M  V30 22267 H 2064.91 -1.34499 -2.68049 0
M  V30 22268 H 2062.46 -0.734296 -1.37978 0
M  V30 22269 H 2063.19 1.20572 -3.01053 0
M  V30 22270 H 2062.98 -0.325315 -3.90748 0
M  V30 22271 H 2064.47 0.640306 -4.12662 0
M  V30 22272 N 2064.91 1.40216 -0.719531 0
M  V30 22273 C 2066.15 2.01112 -0.261127 0
M  V30 22274 C 2066.48 1.56933 1.14393 0
M  V30 22275 O 2065.76 0.791168 1.77682 0
M  V30 22276 C 2066.04 3.58438 -0.345592 0
M  V30 22277 C 2065.9 4.12679 -1.78931 0
M  V30 22278 C 2067.21 4.39202 0.280948 0
M  V30 22279 H 2064.33 0.730674 -0.0963582 0
M  V30 22280 H 2066.98 1.66639 -0.912774 0
M  V30 22281 H 2065.13 3.87936 0.209226 0
M  V30 22282 H 2066.8 3.93963 -2.39982 0
M  V30 22283 H 2065.04 3.66819 -2.31574 0
M  V30 22284 H 2065.71 5.21835 -1.79978 0
M  V30 22285 H 2068.19 4.15658 -0.191834 0
M  V30 22286 H 2067.06 5.48566 0.191422 0
M  V30 22287 H 2067.32 4.205 1.36499 0
M  V30 22288 N 2066.38 0.466004 1.50553 0
M  V30 22289 C 2067.63 -0.0908736 2.02596 0
M  V30 22290 C 2067.96 -1.39827 1.34767 0
M  V30 22291 O 2067.24 -1.88693 0.471719 0
M  V30 22292 C 2067.52 -0.279963 3.5901 0
M  V30 22293 C 2067.37 1.0481 4.37419 0
M  V30 22294 C 2068.69 -1.03683 4.27712 0
M  V30 22295 H 2065.81 -0.031552 0.736324 0
M  V30 22296 H 2068.45 0.610602 1.79921 0
M  V30 22297 H 2066.6 -0.877461 3.78461 0
M  V30 22298 H 2068.28 1.68178 4.29551 0
M  V30 22299 H 2066.52 1.64595 4.01361 0
M  V30 22300 H 2067.19 0.869493 5.45109 0
M  V30 22301 H 2069.67 -0.53043 4.12705 0
M  V30 22302 H 2068.54 -1.13792 5.36975 0
M  V30 22303 H 2068.8 -2.07215 3.90531 0
M  V30 22304 N 2067.86 -1.56346 0.198413 0
M  V30 22305 C 2069.11 -1.96849 -0.439713 0
M  V30 22306 C 2069.42 -1.08829 -1.62529 0
M  V30 22307 O 2070.63 -1.39128 -2.33143 0
M  V30 22308 C 2069.09 -3.50111 -0.83369 0
M  V30 22309 C 2068.69 -4.46799 0.327785 0
M  V30 22310 C 2070.44 -3.99376 -1.43871 0
M  V30 22311 C 2068.34 -5.91336 -0.0873357 0
M  V30 22312 H 2067.27 -0.735034 -0.168052 0
M  V30 22313 H 2069.93 -1.81179 0.290957 0
M  V30 22314 H 2068.31 -3.61297 -1.62112 0
M  V30 22315 H 2069.48 -4.47347 1.10532 0
M  V30 22316 H 2067.8 -4.07746 0.844522 0
M  V30 22317 H 2070.39 -5.04841 -1.76181 0
M  V30 22318 H 2070.74 -3.43877 -2.34637 0
M  V30 22319 H 2071.27 -3.91318 -0.715186 0
M  V30 22320 H 2068.01 -6.50768 0.786222 0
M  V30 22321 H 2067.53 -5.94034 -0.829663 0
M  V30 22322 H 2069.21 -6.44891 -0.522002 0
M  V30 22323 N 2069.34 0.0751653 -1.57421 0
M  V30 22324 C 2070.27 1.11632 -2.00177 0
M  V30 22325 C 2071.29 1.35179 -0.907222 0
M  V30 22326 O 2072.47 1.33479 -1.18515 0
M  V30 22327 C 2069.57 2.46792 -2.32265 0
M  V30 22328 C 2068.75 2.43248 -3.63524 0
M  V30 22329 C 2067.81 3.60488 -3.8332 0
M  V30 22330 O 2066.83 3.42071 -4.54946 0
M  V30 22331 N 2068.03 4.80713 -3.25416 0
M  V30 22332 H 2070.8 0.752243 -2.90106 0
M  V30 22333 H 2068.36 0.263867 -1.59735 0
M  V30 22334 H 2070.35 3.23861 -2.42685 0
M  V30 22335 H 2068.92 2.75214 -1.48243 0
M  V30 22336 H 2068.14 1.51587 -3.63889 0
M  V30 22337 H 2069.43 2.37977 -4.49716 0
M  V30 22338 H 2068.83 4.9858 -2.67273 0
M  V30 22339 H 2067.39 5.55306 -3.4129 0
M  V30 22340 N 2070.82 1.53744 0.346476 0
M  V30 22341 C 2072.1 1.61474 1.10388 0
M  V30 22342 C 2072.48 0.434154 2.06587 0
M  V30 22343 O 2071.82 -0.573858 2.21177 0
M  V30 22344 C 2072.03 2.97411 1.82613 0
M  V30 22345 C 2073.38 3.52662 2.36462 0
M  V30 22346 O 2074.41 2.99567 1.92713 0
M  V30 22347 O 2073.26 4.45528 3.16492 0
M  V30 22348 H 2070.36 0.652991 0.507476 0
M  V30 22349 H 2072.9 1.66089 0.348204 0
M  V30 22350 H 2071.68 3.74775 1.12514 0
M  V30 22351 H 2071.3 2.96373 2.65045 0
M  V30 22352 N 2072.3 -0.607329 1.45428 0
M  V30 22353 C 2073.24 -1.73916 1.54454 0
M  V30 22354 C 2074.24 -1.64251 0.4145 0
M  V30 22355 O 2075.44 -1.70041 0.59042 0
M  V30 22356 H 2071.82 -0.574581 0.48514 0
M  V30 22357 H 2073.79 -1.6343 2.49666 0
M  V30 22358 C 2072.54 -3.12295 1.52863 0
M  V30 22359 H 2071.86 -3.20392 2.39142 0
M  V30 22360 H 2073.3 -3.91318 1.63236 0
M  V30 22361 C 2071.76 -3.35948 0.2531 0
M  V30 22362 O 2072.29 -3.96125 -0.666944 0
M  V30 22363 N 2070.5 -2.90219 0.148714 0
M  V30 22364 H 2070.04 -2.4143 0.898284 0
M  V30 22365 H 2070 -3.06419 -0.703907 0
M  V30 22366 N 2073.77 -1.32722 -0.849853 0
M  V30 22367 C 2075 -1.2671 -1.64193 0
M  V30 22368 C 2075.42 0.161092 -1.87409 0
M  V30 22369 O 2074.78 1.11408 -1.43031 0
M  V30 22370 C 2074.83 -2.03686 -2.97564 0
M  V30 22371 O 2073.93 -1.38794 -3.88343 0
M  V30 22372 H 2073.28 -0.436459 -0.5004 0
M  V30 22373 H 2075.81 -1.75113 -1.05813 0
M  V30 22374 H 2075.82 -2.1404 -3.47349 0
M  V30 22375 H 2074.49 -3.07537 -2.79989 0
M  V30 22376 H 2073.07 -1.37018 -3.46815 0
M  V30 22377 N 2075.25 1.06673 -1.16011 0
M  V30 22378 C 2076.53 1.76186 -0.849577 0
M  V30 22379 C 2076.91 2.00733 0.653401 0
M  V30 22380 O 2076.26 1.63135 1.59998 0
M  V30 22381 C 2076.47 3.06559 -1.66802 0
M  V30 22382 C 2077.82 3.80782 -1.87857 0
M  V30 22383 O 2078.84 3.16389 -1.63635 0
M  V30 22384 O 2077.7 4.96451 -2.2847 0
M  V30 22385 H 2074.79 0.76543 -0.313123 0
M  V30 22386 H 2077.34 1.12976 -1.26627 0
M  V30 22387 H 2076.11 2.84353 -2.68811 0
M  V30 22388 H 2075.73 3.77502 -1.24811 0
M  V30 22389 N 2076.73 0.957992 1.25141 0
M  V30 22390 C 2077.98 0.610242 1.92247 0
M  V30 22391 C 2078.29 -0.857187 1.75817 0
M  V30 22392 O 2079.5 -1.31504 2.37527 0
M  V30 22393 C 2077.95 1.04075 3.44524 0
M  V30 22394 C 2077.56 2.53095 3.69658 0
M  V30 22395 C 2079.31 0.765685 4.17537 0
M  V30 22396 C 2077.21 2.89928 5.15457 0
M  V30 22397 H 2076.14 0.224526 0.719794 0
M  V30 22398 H 2078.79 1.1629 1.41947 0
M  V30 22399 H 2077.18 0.416478 3.93804 0
M  V30 22400 H 2078.35 3.20569 3.31017 0
M  V30 22401 H 2076.67 2.78108 3.09911 0
M  V30 22402 H 2079.26 1.017 5.24939 0
M  V30 22403 H 2079.61 -0.297957 4.15232 0
M  V30 22404 H 2080.14 1.35046 3.74176 0
M  V30 22405 H 2076.88 3.95324 5.22876 0
M  V30 22406 H 2076.4 2.2713 5.55132 0
M  V30 22407 H 2078.08 2.79304 5.83608 0
M  V30 22408 N 2078.21 -1.39832 0.726957 0
M  V30 22409 C 2079.16 -2.30655 0.0817379 0
M  V30 22410 C 2080.13 -1.48792 -0.738257 0
M  V30 22411 O 2081.31 -1.775 -0.699873 0
M  V30 22412 C 2078.45 -3.35079 -0.825599 0
M  V30 22413 C 2077.56 -4.32 0.006145 0
M  V30 22414 C 2076.7 -5.23491 -0.90172 0
M  V30 22415 C 2075.74 -6.12066 -0.064744 0
M  V30 22416 N 2074.87 -6.95939 -0.928103 0
M  V30 22417 H 2079.71 -2.85263 0.861906 0
M  V30 22418 H 2077.25 -1.40468 0.436709 0
M  V30 22419 H 2079.21 -3.94203 -1.36602 0
M  V30 22420 H 2077.84 -2.81946 -1.57183 0
M  V30 22421 H 2076.89 -3.74562 0.66389 0
M  V30 22422 H 2078.2 -4.94499 0.65365 0
M  V30 22423 H 2077.36 -5.87602 -1.51027 0
M  V30 22424 H 2076.1 -4.61294 -1.58302 0
M  V30 22425 H 2075.1 -5.46975 0.556665 0
M  V30 22426 H 2076.33 -6.76326 0.613222 0
M  V30 22427 H 2074.27 -6.36318 -1.59484 0
M  V30 22428 H 2074.19 -7.55249 -0.336895 0
M  V30 22429 H 2075.46 -7.64487 -1.52247 0
M  V30 22430 N 2079.69 -0.473982 -1.50304 0
M  V30 22431 C 2080.93 0.0801282 -2.02642 0
M  V30 22432 C 2081.27 1.3911 -1.35506 0
M  V30 22433 O 2080.54 1.8844 -0.481719 0
M  V30 22434 C 2080.82 0.26092 -3.59153 0
M  V30 22435 C 2080.68 -1.07128 -4.36857 0
M  V30 22436 C 2082 1.01413 -4.28256 0
M  V30 22437 H 2079.11 0.0276467 -0.736481 0
M  V30 22438 H 2081.76 -0.620135 -1.79595 0
M  V30 22439 H 2079.91 0.857378 -3.78921 0
M  V30 22440 H 2081.58 -1.70454 -4.28653 0
M  V30 22441 H 2079.82 -1.66721 -4.00483 0
M  V30 22442 H 2080.49 -0.898389 -5.4464 0
M  V30 22443 H 2082.97 0.508536 -4.12981 0
M  V30 22444 H 2081.84 1.10943 -5.37571 0
M  V30 22445 H 2082.11 2.05141 -3.91624 0
M  V30 22446 N 2081.16 1.56239 -0.206702 0
M  V30 22447 C 2082.41 1.98197 0.429627 0
M  V30 22448 C 2082.74 1.09386 1.60463 0
M  V30 22449 O 2082.02 0.148321 1.93934 0
M  V30 22450 C 2082.3 3.49218 0.878562 0
M  V30 22451 C 2082.15 4.48805 -0.299054 0
M  V30 22452 C 2083.47 4.04243 1.74 0
M  V30 22453 H 2080.59 0.720583 0.154691 0
M  V30 22454 H 2083.23 1.87617 -0.299957 0
M  V30 22455 H 2081.38 3.58365 1.50023 0
M  V30 22456 H 2083.06 4.51684 -0.936956 0
M  V30 22457 H 2081.3 4.23294 -0.948945 0
M  V30 22458 H 2081.97 5.5197 0.0577652 0
M  V30 22459 H 2084.45 3.97948 1.2156 0
M  V30 22460 H 2083.32 5.10259 2.02305 0
M  V30 22461 H 2083.58 3.50212 2.69823 0
M  V30 22462 N 2082.64 -0.0668159 1.57458 0
M  V30 22463 C 2084.05 -0.618057 1.76173 0
M  V30 22464 C 2084.4 -1.77647 0.83283 0
M  V30 22465 O 2083.53 -2.16392 0.0181509 0
M  V30 22466 C 2084.12 -1.12796 3.19472 0
M  V30 22467 C 2082.68 -1.62503 3.39514 0
M  V30 22468 C 2081.83 -0.546584 2.7186 0
M  V30 22469 H 2084.78 0.15937 1.57898 0
M  V30 22470 H 2084.8 -1.99663 3.23906 0
M  V30 22471 H 2084.31 -0.284643 3.87055 0
M  V30 22472 H 2082.42 -2.49144 2.77053 0
M  V30 22473 H 2082.53 -1.69854 4.4798 0
M  V30 22474 H 2080.89 -0.992807 2.34554 0
M  V30 22475 H 2081.68 0.286635 3.42101 0
M  V30 22476 N 2084.12 -1.53926 -0.338317 0
M  V30 22477 C 2085.54 -1.44306 -0.681751 0
M  V30 22478 C 2085.74 -0.604022 -1.92234 0
M  V30 22479 O 2084.79 -0.0970474 -2.52313 0
M  V30 22480 C 2086.11 -2.87854 -0.869513 0
M  V30 22481 C 2087.65 -2.97662 -0.967798 0
M  V30 22482 C 2088.13 -4.42328 -1.18784 0
M  V30 22483 N 2089.62 -4.45877 -1.25492 0
M  V30 22484 C 2090.36 -5.54952 -1.44278 0
M  V30 22485 N 2089.85 -6.74023 -1.60203 0
M  V30 22486 N 2091.64 -5.42574 -1.46868 0
M  V30 22487 H 2083.8 -2.06968 0.477289 0
M  V30 22488 H 2086.06 -0.935793 0.15164 0
M  V30 22489 H 2085.76 -3.51688 -0.0293745 0
M  V30 22490 H 2085.64 -3.33108 -1.76971 0
M  V30 22491 H 2088.03 -2.33965 -1.79845 0
M  V30 22492 H 2088.11 -2.55761 -0.0443848 0
M  V30 22493 H 2087.75 -5.06608 -0.362091 0
M  V30 22494 H 2087.68 -4.81825 -2.1249 0
M  V30 22495 H 2090.17 -3.60076 -1.14688 0
M  V30 22496 H 2090.48 -7.52913 -1.74188 0
M  V30 22497 H 2088.83 -6.76958 -1.57329 0
M  V30 22498 H 2092.02 -4.48507 -1.34012 0
M  V30 22499 H 2092.19 -6.27638 -1.61167 0
M  V30 22500 N 2085.6 0.599608 -1.45748 0
M  V30 22501 C 2087.02 0.921212 -1.3033 0
M  V30 22502 C 2087.22 1.99787 -0.262213 0
M  V30 22503 O 2086.27 2.50186 0.34109 0
M  V30 22504 C 2087.58 1.35457 -2.68462 0
M  V30 22505 C 2089.13 1.46835 -2.76421 0
M  V30 22506 C 2089.61 1.93544 -4.15096 0
M  V30 22507 N 2091.1 2.00765 -4.1743 0
M  V30 22508 C 2091.83 2.38145 -5.21608 0
M  V30 22509 N 2091.33 2.74437 -6.36126 0
M  V30 22510 N 2093.12 2.38554 -5.08968 0
M  V30 22511 H 2085.27 -0.111892 -2.12105 0
M  V30 22512 H 2087.54 0.0126042 -0.947916 0
M  V30 22513 H 2087.24 0.63759 -3.45872 0
M  V30 22514 H 2087.12 2.31951 -2.97453 0
M  V30 22515 H 2089.5 2.17623 -1.99309 0
M  V30 22516 H 2089.58 0.486356 -2.51134 0
M  V30 22517 H 2089.23 1.2334 -4.92696 0
M  V30 22518 H 2089.16 2.92672 -4.3778 0
M  V30 22519 H 2091.65 1.75275 -3.34794 0
M  V30 22520 H 2091.96 3.01865 -7.11405 0
M  V30 22521 H 2090.31 2.72115 -6.39514 0
M  V30 22522 H 2093.5 2.09612 -4.18546 0
M  V30 22523 H 2093.67 2.67359 -5.90274 0
M  V30 22524 N 2087.08 1.33171 0.842803 0
M  V30 22525 C 2088.02 1.23097 1.95232 0
M  V30 22526 C 2088.99 0.110469 1.65732 0
M  V30 22527 O 2090.18 0.288065 1.88613 0
M  V30 22528 C 2087.32 0.972118 3.31125 0
M  V30 22529 C 2086.43 2.17852 3.73047 0
M  V30 22530 C 2085.57 1.85415 4.9779 0
M  V30 22531 C 2084.61 3.0231 5.32236 0
M  V30 22532 N 2083.74 2.69887 6.48156 0
M  V30 22533 H 2088.58 2.17995 2.03181 0
M  V30 22534 H 2086.12 1.08406 0.994308 0
M  V30 22535 H 2088.08 0.802486 4.09409 0
M  V30 22536 H 2086.71 0.0598977 3.22744 0
M  V30 22537 H 2085.76 2.45803 2.90318 0
M  V30 22538 H 2087.07 3.05254 3.94489 0
M  V30 22539 H 2086.23 1.65073 5.83812 0
M  V30 22540 H 2084.97 0.952447 4.78309 0
M  V30 22541 H 2083.97 3.2327 4.44721 0
M  V30 22542 H 2085.2 3.93229 5.53667 0
M  V30 22543 H 2083.14 1.82271 6.30169 0
M  V30 22544 H 2083.06 3.50818 6.69673 0
M  V30 22545 H 2084.33 2.53002 7.37299 0
M  V30 22546 N 2088.56 -1.06056 1.16576 0
M  V30 22547 C 2089.52 -2.11761 0.876928 0
M  V30 22548 C 2090.52 -1.60281 -0.129123 0
M  V30 22549 O 2091.71 -1.73901 0.102046 0
M  V30 22550 C 2088.84 -3.3947 0.311872 0
M  V30 22551 H 2090.03 -2.38816 1.81403 0
M  V30 22552 H 2087.59 -1.2216 0.975021 0
M  V30 22553 H 2088.32 -3.18066 -0.632797 0
M  V30 22554 H 2088.11 -3.78143 1.03683 0
M  V30 22555 H 2089.6 -4.17404 0.12782 0
M  V30 22556 N 2090.03 -0.964615 -1.24631 0
M  V30 22557 C 2090.98 -0.49166 -2.25502 0
M  V30 22558 C 2091.95 0.46115 -1.5957 0
M  V30 22559 O 2093.14 0.372197 -1.87135 0
M  V30 22560 C 2090.28 0.214964 -3.4443 0
M  V30 22561 C 2089.39 -0.776253 -4.24969 0
M  V30 22562 C 2088.52 -0.0460512 -5.3118 0
M  V30 22563 C 2087.56 -1.02754 -6.03414 0
M  V30 22564 N 2086.7 -0.327547 -7.01336 0
M  V30 22565 H 2091.54 -1.35669 -2.65326 0
M  V30 22566 H 2089.08 -0.68015 -1.30431 0
M  V30 22567 H 2091.03 0.641314 -4.12241 0
M  V30 22568 H 2089.66 1.04397 -3.05452 0
M  V30 22569 H 2088.72 -1.32105 -3.56724 0
M  V30 22570 H 2090.03 -1.52481 -4.74922 0
M  V30 22571 H 2089.18 0.438447 -6.05114 0
M  V30 22572 H 2087.92 0.735226 -4.82126 0
M  V30 22573 H 2086.93 -1.52294 -5.28286 0
M  V30 22574 H 2088.15 -1.80921 -6.54557 0
M  V30 22575 H 2086.1 0.43481 -6.54557 0
M  V30 22576 H 2086.01 -1.01503 -7.49155 0
M  V30 22577 H 2087.28 0.135085 -7.79383 0
M  V30 22578 N 2091.51 1.39445 -0.734362 0
M  V30 22579 C 2092.76 1.99762 -0.278913 0
M  V30 22580 C 2093.07 1.58936 1.14012 0
M  V30 22581 O 2094.28 2.12085 1.69506 0
M  V30 22582 C 2092.74 3.57104 -0.447725 0
M  V30 22583 C 2092.34 4.06894 -1.87461 0
M  V30 22584 C 2094.09 4.24466 -0.0540192 0
M  V30 22585 C 2091.99 5.56806 -1.993 0
M  V30 22586 H 2090.92 0.747268 -0.100529 0
M  V30 22587 H 2093.58 1.59452 -0.908151 0
M  V30 22588 H 2091.96 3.95208 0.250399 0
M  V30 22589 H 2093.13 3.80126 -2.60463 0
M  V30 22590 H 2091.45 3.52193 -2.22147 0
M  V30 22591 H 2094.04 5.34562 -0.121504 0
M  V30 22592 H 2094.39 4.04341 0.990665 0
M  V30 22593 H 2094.92 3.91534 -0.703277 0
M  V30 22594 H 2091.66 5.8181 -3.01955 0
M  V30 22595 H 2091.18 5.85379 -1.30734 0
M  V30 22596 H 2092.86 6.22208 -1.77387 0
M  V30 22597 N 2092.99 0.481946 1.5005 0
M  V30 22598 C 2094.24 -0.0710199 2.01575 0
M  V30 22599 C 2094.55 -1.39798 1.36806 0
M  V30 22600 O 2095.76 -2.03653 1.79549 0
M  V30 22601 C 2094.21 -0.177064 3.59464 0
M  V30 22602 C 2093.82 1.14212 4.33197 0
M  V30 22603 C 2095.57 -0.681409 4.18995 0
M  V30 22604 C 2093.47 0.999274 5.82897 0
M  V30 22605 H 2092.4 -0.0303162 0.75339 0
M  V30 22606 H 2095.05 0.618487 1.72763 0
M  V30 22607 H 2093.44 -0.930598 3.8491 0
M  V30 22608 H 2094.61 1.90745 4.19467 0
M  V30 22609 H 2092.92 1.57841 3.85325 0
M  V30 22610 H 2095.52 -0.805484 5.28598 0
M  V30 22611 H 2095.86 -1.6755 3.81094 0
M  V30 22612 H 2096.4 0.015045 3.97797 0
M  V30 22613 H 2093.14 1.96706 6.2529 0
M  V30 22614 H 2092.66 0.274505 5.99172 0
M  V30 22615 H 2094.34 0.670265 6.43519 0
M  V30 22616 N 2094.47 -1.56127 0.214985 0
M  V30 22617 C 2095.88 -1.5898 -0.140524 0
M  V30 22618 C 2096.08 -1.23166 -1.59475 0
M  V30 22619 O 2095.14 -0.963792 -2.33382 0
M  V30 22620 C 2096.45 -3.00162 0.179827 0
M  V30 22621 C 2098 -3.12764 0.121534 0
M  V30 22622 C 2098.48 -4.56112 0.415468 0
M  V30 22623 N 2099.97 -4.61761 0.364801 0
M  V30 22624 C 2100.7 -5.70602 0.565817 0
M  V30 22625 N 2100.2 -6.87831 0.828254 0
M  V30 22626 N 2101.99 -5.59883 0.498704 0
M  V30 22627 H 2094.14 -1.77683 1.16372 0
M  V30 22628 H 2096.4 -0.825579 0.465964 0
M  V30 22629 H 2096.11 -3.30995 1.1889 0
M  V30 22630 H 2095.98 -3.7376 -0.508279 0
M  V30 22631 H 2098.37 -2.81731 -0.878172 0
M  V30 22632 H 2098.45 -2.4151 0.843017 0
M  V30 22633 H 2098.1 -4.87861 1.41258 0
M  V30 22634 H 2098.03 -5.25583 -0.327132 0
M  V30 22635 H 2100.52 -3.7752 0.169387 0
M  V30 22636 H 2100.83 -7.66689 0.969914 0
M  V30 22637 H 2099.18 -6.89591 0.865375 0
M  V30 22638 H 2102.37 -4.67176 0.293953 0
M  V30 22639 H 2102.54 -6.44643 0.658773 0
M  V30 22640 N 2095.95 0.0584645 -1.57492 0
M  V30 22641 C 2097.22 0.788828 -1.78988 0
M  V30 22642 C 2097.6 1.95112 -0.805878 0
M  V30 22643 O 2096.95 2.27951 0.158244 0
M  V30 22644 C 2097.16 1.24936 -3.25871 0
M  V30 22645 C 2098.51 1.67732 -3.90066 0
M  V30 22646 O 2099.53 1.34469 -3.29843 0
M  V30 22647 O 2098.39 2.29361 -4.9604 0
M  V30 22648 H 2095.49 0.379032 -0.735027 0
M  V30 22649 H 2098.03 0.0375096 -1.69659 0
M  V30 22650 H 2096.8 0.418302 -3.89058 0
M  V30 22651 H 2096.43 2.06159 -3.39977 0
M  V30 22652 N 2097.42 1.54103 0.330149 0
M  V30 22653 C 2098.65 1.75693 1.08699 0
M  V30 22654 C 2099.06 0.502371 1.82409 0
M  V30 22655 O 2098.4 -0.53629 1.75698 0
M  V30 22656 C 2098.47 2.89199 2.13551 0
M  V30 22657 C 2098.13 4.28338 1.59298 0
M  V30 22658 C 2099.13 5.09428 1.03823 0
M  V30 22659 C 2096.81 4.74863 1.6374 0
M  V30 22660 C 2098.81 6.3515 0.535098 0
M  V30 22661 C 2096.49 6.00554 1.1304 0
M  V30 22662 C 2097.49 6.80531 0.580184 0
M  V30 22663 O 2097.18 8.03859 0.0807823 0
M  V30 22664 H 2096.91 0.590289 0.329447 0
M  V30 22665 H 2099.47 2.01779 0.38398 0
M  V30 22666 H 2097.7 2.58669 2.87449 0
M  V30 22667 H 2099.38 2.98634 2.74905 0
M  V30 22668 H 2100.15 4.74641 0.997028 0
M  V30 22669 H 2096.03 4.1266 2.05506 0
M  V30 22670 H 2099.57 6.97521 0.104978 0
M  V30 22671 H 2095.47 6.34833 1.16865 0
M  V30 22672 H 2096.24 8.18263 0.196822 0
M  V30 22673 N 2098.9 -0.59187 1.46064 0
M  V30 22674 C 2100.15 -1.34773 1.50601 0
M  V30 22675 C 2100.47 -1.94379 0.155452 0
M  V30 22676 O 2099.74 -1.7805 -0.816999 0
M  V30 22677 H 2098.32 -0.50037 0.554652 0
M  V30 22678 H 2100.98 -0.69386 1.82131 0
M  V30 22679 H 2100.08 -2.15914 2.25361 0
M  V30 22680 N 2100.38 -1.33616 -0.835729 0
M  V30 22681 C 2101.33 -1.24131 -1.94577 0
M  V30 22682 C 2102.3 -0.119257 -1.65671 0
M  V30 22683 O 2103.48 -0.298063 -1.88457 0
M  V30 22684 C 2100.62 -0.989665 -3.30605 0
M  V30 22685 C 2099.74 -2.19828 -3.71887 0
M  V30 22686 C 2098.87 -1.88052 -4.96799 0
M  V30 22687 C 2097.91 -3.05128 -5.30625 0
M  V30 22688 N 2097.05 -2.7332 -6.46715 0
M  V30 22689 H 2101.89 -2.19069 -2.02022 0
M  V30 22690 H 2099.42 -1.08932 -0.988545 0
M  V30 22691 H 2101.38 -0.824187 -4.08978 0
M  V30 22692 H 2100.01 -0.0770128 -3.22708 0
M  V30 22693 H 2099.06 -2.4734 -2.89011 0
M  V30 22694 H 2100.38 -3.07341 -3.92865 0
M  V30 22695 H 2099.53 -1.68166 -5.82928 0
M  V30 22696 H 2098.27 -0.977799 -4.77797 0
M  V30 22697 H 2097.27 -3.25624 -4.43 0
M  V30 22698 H 2098.5 -3.9616 -5.51574 0
M  V30 22699 H 2096.44 -1.8561 -6.29194 0
M  V30 22700 H 2096.36 -3.54365 -6.67804 0
M  V30 22701 H 2097.63 -2.56909 -7.35947 0
M  V30 22702 N 2101.86 1.05436 -1.17136 0
M  V30 22703 C 2102.79 2.13111 -0.843582 0
M  V30 22704 C 2103.8 1.6208 0.152942 0
M  V30 22705 O 2104.99 1.78351 -0.0730153 0
M  V30 22706 C 2102.09 3.38072 -0.236753 0
M  V30 22707 C 2101.27 4.18389 -1.27553 0
M  V30 22708 C 2100.32 5.21697 -0.686916 0
M  V30 22709 O 2099.35 5.52761 -1.35807 0
M  V30 22710 N 2100.55 5.78146 0.522229 0
M  V30 22711 H 2103.32 2.41827 -1.7703 0
M  V30 22712 H 2100.88 1.21513 -1.06987 0
M  V30 22713 H 2102.87 4.04342 0.170262 0
M  V30 22714 H 2101.44 3.0691 0.593699 0
M  V30 22715 H 2100.66 3.47645 -1.85839 0
M  V30 22716 H 2101.95 4.6885 -1.97628 0
M  V30 22717 H 2101.35 5.55188 1.0855 0
M  V30 22718 H 2099.9 6.4595 0.871341 0
M  V30 22719 N 2103.34 0.971211 1.24118 0
M  V30 22720 C 2104.27 0.448828 2.23743 0
M  V30 22721 C 2105.25 -0.479005 1.55384 0
M  V30 22722 O 2106.43 -0.409573 1.83997 0
M  V30 22723 C 2103.56 -0.351705 3.36869 0
M  V30 22724 C 2102.6 0.518924 4.23331 0
M  V30 22725 S 2103.44 1.96125 4.98292 0
M  V30 22726 C 2104.59 1.1696 6.14875 0
M  V30 22727 H 2104.83 1.29308 2.67706 0
M  V30 22728 H 2102.36 0.776507 1.33453 0
M  V30 22729 H 2104.32 -0.8076 4.02477 0
M  V30 22730 H 2102.98 -1.17097 2.91457 0
M  V30 22731 H 2102.17 -0.095892 5.03909 0
M  V30 22732 H 2101.77 0.910689 3.62743 0
M  V30 22733 H 2104.07 0.426358 6.76157 0
M  V30 22734 H 2105.01 1.94988 6.80724 0
M  V30 22735 H 2105.42 0.692432 5.60237 0
M  V30 22736 N 2104.81 -1.39054 0.741747 0
M  V30 22737 C 2105.78 -2.28913 0.114619 0
M  V30 22738 C 2106.78 -1.46629 -0.660038 0
M  V30 22739 O 2107.97 -1.67223 -0.488056 0
M  V30 22740 C 2105.1 -3.3022 -0.846607 0
M  V30 22741 H 2106.29 -2.85875 0.906381 0
M  V30 22742 H 2103.85 -1.47814 0.508001 0
M  V30 22743 H 2104.58 -2.78326 -1.66448 0
M  V30 22744 H 2104.37 -3.90999 -0.293686 0
M  V30 22745 H 2105.86 -3.97443 -1.28176 0
M  V30 22746 N 2106.29 -0.489897 -1.49792 0
M  V30 22747 C 2107.54 0.0584284 -2.02016 0
M  V30 22748 C 2107.86 1.38507 -1.37262 0
M  V30 22749 O 2107.13 1.88757 -0.524191 0
M  V30 22750 H 2105.71 0.0245828 -0.746595 0
M  V30 22751 H 2108.37 -0.644608 -1.83932 0
M  V30 22752 H 2107.47 0.196227 -3.11483 0
M  V30 22753 N 2107.77 1.56011 -0.223262 0
M  V30 22754 C 2109.05 1.90185 0.457074 0
M  V30 22755 C 2109.43 1.14083 1.77618 0
M  V30 22756 O 2108.78 0.250703 2.27121 0
M  V30 22757 C 2108.99 3.42925 0.648347 0
M  V30 22758 C 2110.33 4.13721 0.955 0
M  V30 22759 O 2111.36 3.48533 0.735072 0
M  V30 22760 O 2110.22 5.28985 1.37248 0
M  V30 22761 H 2107.31 0.790827 0.241912 0
M  V30 22762 H 2109.86 1.67609 -0.265573 0
M  V30 22763 H 2108.63 3.90282 -0.282045 0
M  V30 22764 H 2108.25 3.71286 1.42242 0
M  V30 22765 N 2109.25 -0.0501116 1.5752 0
M  V30 22766 C 2110.53 -0.779325 1.79404 0
M  V30 22767 C 2110.91 -1.94682 0.816214 0
M  V30 22768 O 2110.25 -2.28032 -0.146153 0
M  V30 22769 C 2110.46 -1.23206 3.26529 0
M  V30 22770 C 2111.81 -1.65661 3.9095 0
M  V30 22771 O 2112.84 -1.32718 3.30552 0
M  V30 22772 O 2111.69 -2.26728 4.97249 0
M  V30 22773 H 2108.79 -0.375128 0.737026 0
M  V30 22774 H 2111.33 -0.0285117 1.69676 0
M  V30 22775 H 2110.11 -0.397664 3.89274 0
M  V30 22776 H 2109.73 -2.04353 3.41065 0
M  V30 22777 N 2110.73 -1.54276 -0.321972 0
M  V30 22778 C 2111.97 -1.74283 -1.06793 0
M  V30 22779 C 2112.33 -0.506664 -1.85194 0
M  V30 22780 O 2113.53 -0.584111 -2.62377 0
M  V30 22781 C 2111.8 -2.98413 -1.96684 0
M  V30 22782 S 2113.36 -3.3933 -2.7821 0
M  V30 22783 H 2110.18 -0.612827 -0.360505 0
M  V30 22784 H 2112.78 -1.92454 -0.343742 0
M  V30 22785 H 2111.49 -3.86529 -1.37925 0
M  V30 22786 H 2111.02 -2.82769 -2.73505 0
M  V30 22787 H 2113.03 -2.94754 -3.99167 0
M  V30 22788 N 2112.2 0.584116 -1.46376 0
M  V30 22789 C 2113.45 1.34437 -1.51837 0
M  V30 22790 C 2113.78 1.93464 -0.168948 0
M  V30 22791 O 2113.06 1.76395 0.819455 0
M  V30 22792 C 2113.34 2.47477 -2.61586 0
M  V30 22793 C 2113.19 1.93494 -4.06054 0
M  V30 22794 C 2114.51 3.49527 -2.6743 0
M  V30 22795 H 2111.63 0.487455 -0.552772 0
M  V30 22796 H 2114.27 0.656303 -1.78305 0
M  V30 22797 H 2112.42 3.0617 -2.39148 0
M  V30 22798 H 2114.1 1.39268 -4.39775 0
M  V30 22799 H 2112.34 1.24333 -4.15601 0
M  V30 22800 H 2113.01 2.75087 -4.78572 0
M  V30 22801 H 2115.49 3.00712 -2.87596 0
M  V30 22802 H 2114.36 4.26082 -3.46043 0
M  V30 22803 H 2114.62 4.06664 -1.73426 0
M  V30 22804 N 2113.68 1.34058 0.828631 0
M  V30 22805 C 2114.65 1.25063 1.92073 0
M  V30 22806 C 2115.65 0.167192 1.59928 0
M  V30 22807 O 2116.84 0.419428 1.69075 0
M  V30 22808 C 2113.97 0.929519 3.27983 0
M  V30 22809 H 2115.16 2.22146 2.01472 0
M  V30 22810 H 2112.71 1.18263 1.02193 0
M  V30 22811 H 2113.45 -0.0383856 3.24277 0
M  V30 22812 H 2113.23 1.71313 3.52696 0
M  V30 22813 H 2114.72 0.891605 4.07971 0
M  V30 22814 N 2115.16 -1.04814 1.17694 0
M  V30 22815 C 2116.39 -1.82088 0.992908 0
M  V30 22816 C 2116.81 -1.82538 -0.454023 0
M  V30 22817 O 2116.17 -1.23716 -1.3253 0
M  V30 22818 C 2116.22 -3.25912 1.54318 0
M  V30 22819 O 2115.32 -4.05346 0.759486 0
M  V30 22820 H 2114.66 -0.562852 0.352268 0
M  V30 22821 H 2117.19 -1.32054 1.56279 0
M  V30 22822 H 2117.2 -3.76705 1.56708 0
M  V30 22823 H 2115.88 -3.24899 2.59641 0
M  V30 22824 H 2114.45 -3.64056 0.807298 0
M  V30 22825 N 2116.64 -0.977779 -1.23601 0
M  V30 22826 C 2118.06 -0.685968 -1.44106 0
M  V30 22827 C 2118.26 0.748759 -1.87072 0
M  V30 22828 O 2117.31 1.5215 -2.01511 0
M  V30 22829 C 2118.62 -1.67866 -2.49482 0
M  V30 22830 C 2120.17 -1.69241 -2.63299 0
M  V30 22831 C 2120.65 -2.67334 -3.71883 0
M  V30 22832 N 2122.14 -2.65836 -3.79322 0
M  V30 22833 C 2122.87 -3.38406 -4.62892 0
M  V30 22834 N 2122.37 -4.20527 -5.50571 0
M  V30 22835 N 2124.16 -3.27183 -4.57064 0
M  V30 22836 H 2116.31 -1.90461 -0.940129 0
M  V30 22837 H 2118.58 -0.820555 -0.474756 0
M  V30 22838 H 2118.28 -2.70457 -2.24824 0
M  V30 22839 H 2118.16 -1.45942 -3.47823 0
M  V30 22840 H 2120.54 -0.673554 -2.8731 0
M  V30 22841 H 2120.62 -1.95231 -1.65283 0
M  V30 22842 H 2120.27 -3.6936 -3.4862 0
M  V30 22843 H 2120.2 -2.38619 -4.69434 0
M  V30 22844 H 2122.69 -2.06236 -3.16662 0
M  V30 22845 H 2123 -4.72763 -6.11322 0
M  V30 22846 H 2121.35 -4.24619 -5.50203 0
M  V30 22847 H 2124.54 -2.62481 -3.87584 0
M  V30 22848 H 2124.71 -3.84001 -5.21965 0
M  V30 22849 N 2118.12 1.38658 -0.749111 0
M  V30 22850 C 2119.05 2.29065 -0.0786741 0
M  V30 22851 C 2120.06 1.47524 0.688517 0
M  V30 22852 O 2121.25 1.70439 0.530347 0
M  V30 22853 C 2118.35 3.2638 0.912663 0
M  V30 22854 C 2117.52 4.36924 0.204051 0
M  V30 22855 C 2116.58 5.14456 1.1055 0
M  V30 22856 O 2115.61 5.66261 0.577696 0
M  V30 22857 N 2116.81 5.27007 2.434 0
M  V30 22858 H 2119.58 2.87243 -0.855081 0
M  V30 22859 H 2117.14 1.50391 -0.599516 0
M  V30 22860 H 2119.13 3.75126 1.51864 0
M  V30 22861 H 2117.7 2.69132 1.59018 0
M  V30 22862 H 2116.92 3.89871 -0.582584 0
M  V30 22863 H 2118.21 5.07993 -0.286467 0
M  V30 22864 H 2117.61 4.86461 2.88742 0
M  V30 22865 H 2116.16 5.79143 2.99059 0
M  V30 22866 N 2119.6 0.497834 1.49531 0
M  V30 22867 C 2120.87 -0.110673 1.95287 0
M  V30 22868 C 2121.25 -1.54433 1.43923 0
M  V30 22869 O 2120.6 -2.19012 0.651616 0
M  V30 22870 C 2120.81 -0.0265636 3.4899 0
M  V30 22871 C 2122.16 -0.202082 4.24119 0
M  V30 22872 O 2123.18 -0.1019 3.56054 0
M  V30 22873 O 2122.04 -0.407373 5.4498 0
M  V30 22874 H 2119.14 -0.0970406 0.821287 0
M  V30 22875 H 2121.68 0.560146 1.60189 0
M  V30 22876 H 2120.45 0.973355 3.79001 0
M  V30 22877 H 2120.08 -0.737668 3.90697 0
M  V30 22878 N 2121.07 -1.5589 0.231532 0
M  V30 22879 C 2121.98 -2.24359 -0.685566 0
M  V30 22880 C 2123 -1.25454 -1.20571 0
M  V30 22881 O 2124.18 -1.58292 -1.24522 0
M  V30 22882 C 2121.24 -2.91783 -1.87252 0
M  V30 22883 C 2120.3 -4.06059 -1.39337 0
M  V30 22884 C 2119.53 -4.70258 -2.52375 0
M  V30 22885 O 2119.76 -4.33477 -3.70747 0
M  V30 22886 O 2118.69 -5.59063 -2.23008 0
M  V30 22887 H 2122.52 -3.03412 -0.132235 0
M  V30 22888 H 2120.1 -1.494 0.000664697 0
M  V30 22889 H 2121.98 -3.34305 -2.56551 0
M  V30 22890 H 2120.66 -2.15683 -2.41377 0
M  V30 22891 H 2119.57 -3.68086 -0.668112 0
M  V30 22892 H 2120.9 -4.83932 -0.898393 0
M  V30 22893 N 2122.55 0.0417572 -1.57545 0
M  V30 22894 C 2123.83 0.769799 -1.79815 0
M  V30 22895 C 2124.21 1.94247 -0.826527 0
M  V30 22896 O 2123.56 2.28106 0.134058 0
M  V30 22897 C 2123.77 1.21472 -3.27178 0
M  V30 22898 C 2125.11 1.63585 -3.91823 0
M  V30 22899 O 2126.14 1.30963 -3.31251 0
M  V30 22900 O 2125 2.24087 -4.98445 0
M  V30 22901 H 2122.09 0.371214 -0.739005 0
M  V30 22902 H 2124.64 0.019513 -1.69689 0
M  V30 22903 H 2123.41 0.377014 -3.8948 0
M  V30 22904 H 2123.03 2.02541 -3.42144 0
M  V30 22905 O 2124.07 1.60439 0.184839 0
M  V30 22906 H 2124.76 1.75357 0.82277 0
M  V30 END ATOM
M  V30 BEGIN BOND
M  V30 END BOND
M  V30 END CTAB
M  END
$$$$
