drugbank_target|P03316 Structural polyprotein (DB03316)
 OpenBabel12092120013D

  0  0  0     0  0            999 V3000
M  V30 BEGIN CTAB
M  V30 COUNTS 19152 19401 0 0 0
M  V30 BEGIN ATOM
M  V30 1 H -0.908 1.98254 -0.117106 0
M  V30 2 N 0 1.576 0 0
M  V30 3 C 0.933 2.03868 1.02534 0
M  V30 4 C 1.911 0.928543 1.3348 0
M  V30 5 O 3.095 1.19667 1.45644 0
M  V30 6 C 0.222 2.43627 2.35294 0
M  V30 7 C -0.732 3.65373 2.2001 0
M  V30 8 S 0.101 5.13292 1.52614 0
M  V30 9 C 1.257 5.56322 2.86805 0
M  V30 10 H 1.49 2.90518 0.631377 0
M  V30 11 H -0.977 1.52953 0.210867 0
M  V30 12 H 0.981 2.67203 3.11629 0
M  V30 13 H -0.358 1.57376 2.7183 0
M  V30 14 H -1.165 3.90944 3.18086 0
M  V30 15 H -1.563 3.418 1.51819 0
M  V30 16 H 0.729 5.58782 3.83104 0
M  V30 17 H 1.672 6.56266 2.65933 0
M  V30 18 H 2.08 4.83886 2.90714 0
M  V30 19 N 1.4781 -0.272755 1.55222 0
M  V30 20 C 2.4261 -1.35705 1.88909 0
M  V30 21 C 3.4201 -1.5112 0.765456 0
M  V30 22 O 4.6261 -1.52901 0.949802 0
M  V30 23 H 1.0011 -0.453868 0.59959 0
M  V30 24 H 2.9721 -1.04544 2.79487 0
M  V30 25 C 1.7211 -2.71049 2.17779 0
M  V30 26 H 1.0441 -2.59979 3.03728 0
M  V30 27 H 2.4841 -3.45858 2.45272 0
M  V30 28 C 0.9431 -3.22165 0.985473 0
M  V30 29 O 1.4731 -4.01096 0.220233 0
M  V30 30 N -0.3209 -2.7985 0.783108 0
M  V30 31 H -0.7739 -2.15775 1.40708 0
M  V30 32 H -0.8159 -3.14397 -0.0130392 0
M  V30 33 N 2.9562 -1.48159 -0.537278 0
M  V30 34 C 4.3722 -1.34118 -0.865129 0
M  V30 35 C 4.5722 -0.346678 -1.98495 0
M  V30 36 O 3.6282 0.234715 -2.51407 0
M  V30 37 C 4.9412 -2.73963 -1.23954 0
M  V30 38 C 6.4892 -2.82397 -1.34984 0
M  V30 39 C 6.9642 -4.22928 -1.75772 0
M  V30 40 N 8.4552 -4.25566 -1.82887 0
M  V30 41 C 9.1902 -5.31235 -2.15817 0
M  V30 42 N 8.6862 -6.47189 -2.47222 0
M  V30 43 N 10.4792 -5.18624 -2.16761 0
M  V30 44 H 2.6302 -2.1144 0.201715 0
M  V30 45 H 4.8932 -0.947598 0.0275949 0
M  V30 46 H 4.5992 -3.48264 -0.490381 0
M  V30 47 H 4.4732 -3.0702 -2.19132 0
M  V30 48 H 6.8602 -2.08356 -2.08978 0
M  V30 49 H 6.9412 -2.5297 -0.379448 0
M  V30 50 H 6.5852 -4.97482 -1.02341 0
M  V30 51 H 6.5152 -4.49794 -2.73848 0
M  V30 52 H 9.0062 -3.41924 -1.60924 0
M  V30 53 H 9.3192 -7.23564 -2.71433 0
M  V30 54 H 7.6642 -6.50476 -2.44757 0
M  V30 55 H 10.8552 -4.27056 -1.91679 0
M  V30 56 H 11.0282 -6.01078 -2.42093 0
M  V30 57 N 4.4343 0.785586 -1.36625 0
M  V30 58 C 5.6823 1.54057 -1.30808 0
M  V30 59 C 6.0033 1.94683 0.111157 0
M  V30 60 O 5.2733 1.65241 1.05224 0
M  V30 61 H 3.8533 0.571354 -0.481211 0
M  V30 62 H 6.5153 0.935821 -1.70963 0
M  V30 63 H 5.6113 2.44637 -1.93801 0
M  V30 64 N 5.9124 1.20967 1.01018 0
M  V30 65 C 7.1594 1.02374 1.74716 0
M  V30 66 C 7.4874 -0.443375 1.89379 0
M  V30 67 O 6.7424 -1.34535 1.42123 0
M  V30 68 C 7.0414 1.65997 3.16512 0
M  V30 69 C 6.7074 3.15831 3.2181 0
M  V30 70 C 5.3694 3.56719 3.22963 0
M  V30 71 C 7.7214 4.11816 3.19464 0
M  V30 72 C 5.0494 4.92107 3.19449 0
M  V30 73 C 7.4014 5.47158 3.17491 0
M  V30 74 C 6.0654 5.87451 3.16951 0
M  V30 75 H 5.3354 0.374614 0.639332 0
M  V30 76 H 7.9824 1.50485 1.18434 0
M  V30 77 H 6.2874 1.10166 3.75993 0
M  V30 78 H 7.9844 1.49119 3.72242 0
M  V30 79 H 4.5744 2.83263 3.21652 0
M  V30 80 H 8.7584 3.81257 3.17737 0
M  V30 81 H 4.0144 5.22579 3.17366 0
M  V30 82 H 8.1884 6.21274 3.14629 0
M  V30 83 H 5.8154 6.92329 3.13983 0
M  V30 84 N 7.3905 -1.2043 1.01659 0
M  V30 85 C 8.6375 -1.89797 0.705917 0
M  V30 86 C 8.9655 -1.78848 -0.764439 0
M  V30 87 O 8.2205 -1.16694 -1.57102 0
M  V30 88 C 8.5195 -3.40464 1.08714 0
M  V30 89 C 8.1855 -3.71614 2.5537 0
M  V30 90 C 6.8475 -3.79826 2.95441 0
M  V30 91 C 9.1995 -3.85915 3.50313 0
M  V30 92 C 6.5275 -3.99797 4.29394 0
M  V30 93 C 8.8795 -4.07396 4.83954 0
M  V30 94 C 7.5435 -4.13837 5.23732 0
M  V30 95 H 6.8135 -0.694518 0.258313 0
M  V30 96 H 9.4605 -1.42691 1.27717 0
M  V30 97 H 7.7655 -3.89385 0.434309 0
M  V30 98 H 9.4625 -3.92433 0.824461 0
M  V30 99 H 6.0525 -3.65822 2.23321 0
M  V30 100 H 10.2365 -3.78926 3.20513 0
M  V30 101 H 5.4925 -4.03018 4.59768 0
M  V30 102 H 9.6665 -4.17404 5.57447 0
M  V30 103 H 7.2935 -4.29064 6.27541 0
M  V30 104 N 8.8686 -0.792821 -1.36206 0
M  V30 105 C 9.8166 -0.181555 -2.3189 0
M  V30 106 C 10.8106 0.661025 -1.55971 0
M  V30 107 O 12.0166 0.555728 -1.71206 0
M  V30 108 H 8.3916 -0.0399382 -0.750939 0
M  V30 109 H 10.3626 -1.00394 -2.81005 0
M  V30 110 C 9.1116 0.666444 -3.41253 0
M  V30 111 H 8.4346 0.0274489 -3.99791 0
M  V30 112 H 9.8746 1.06076 -4.10517 0
M  V30 113 C 8.3336 1.82614 -2.83114 0
M  V30 114 O 8.8636 2.9229 -2.75553 0
M  V30 115 N 7.0696 1.63333 -2.40356 0
M  V30 116 H 6.6166 0.741217 -2.46706 0
M  V30 117 H 6.5746 2.41087 -2.01803 0
M  V30 118 N 10.3467 1.47872 -0.545128 0
M  V30 119 C 11.2797 2.2675 0.256885 0
M  V30 120 C 12.2577 1.33293 0.931228 0
M  V30 121 O 13.4417 1.62657 0.95262 0
M  V30 122 C 10.5687 3.09976 1.36501 0
M  V30 123 C 9.6147 4.1892 0.800496 0
M  V30 124 S 10.4477 5.34397 -0.343505 0
M  V30 125 C 11.6037 6.21186 0.766733 0
M  V30 126 H 11.8367 2.94425 -0.412479 0
M  V30 127 H 9.3697 1.50806 -0.331204 0
M  V30 128 H 11.3277 3.585 1.9997 0
M  V30 129 H 9.9887 2.41686 2.00616 0
M  V30 130 H 9.1817 4.76836 1.63227 0
M  V30 131 H 8.7837 3.73215 0.242217 0
M  V30 132 H 11.0757 6.56804 1.66178 0
M  V30 133 H 12.0187 7.07742 0.225204 0
M  V30 134 H 12.4267 5.54574 1.05396 0
M  V30 135 N 11.8248 0.280983 1.55075 0
M  V30 136 C 12.7548 -0.597469 2.25727 0
M  V30 137 C 13.7358 -1.15417 1.24952 0
M  V30 138 O 14.9208 -1.18722 1.53684 0
M  V30 139 C 12.0508 -1.7789 2.98283 0
M  V30 140 C 11.0048 -1.35347 4.06036 0
M  V30 141 C 10.3308 -2.61846 4.66198 0
M  V30 142 C 11.6308 -0.499354 5.19907 0
M  V30 143 H 13.3248 -0.00824265 2.99399 0
M  V30 144 H 10.8708 -0.0025244 1.44 0
M  V30 145 H 12.8238 -2.39937 3.46422 0
M  V30 146 H 11.5478 -2.39405 2.22155 0
M  V30 147 H 10.2068 -0.756156 3.58717 0
M  V30 148 H 9.8548 -3.21632 3.86732 0
M  V30 149 H 9.5548 -2.3409 5.38958 0
M  V30 150 H 11.0788 -3.24732 5.1709 0
M  V30 151 H 12.4928 -1.02498 5.64063 0
M  V30 152 H 10.8898 -0.316424 5.99265 0
M  V30 153 H 11.9598 0.480459 4.82514 0
M  V30 154 N 13.3029 -1.57598 0.00835791 0
M  V30 155 C 14.5509 -1.90551 -0.6734 0
M  V30 156 C 14.8719 -0.883301 -1.73847 0
M  V30 157 O 14.1419 0.0781442 -1.95744 0
M  V30 158 H 12.7219 -0.703312 -0.251717 0
M  V30 159 H 15.3839 -1.94833 0.0512592 0
M  V30 160 H 14.4799 -2.9056 -1.13935 0
M  V30 161 N 14.781 0.264519 -1.55364 0
M  V30 162 C 16.197 0.61215 -1.47394 0
M  V30 163 C 16.397 1.89134 -0.695018 0
M  V30 164 O 15.453 2.51563 -0.217275 0
M  V30 165 C 16.766 0.731235 -2.91674 0
M  V30 166 C 18.314 0.82473 -3.01939 0
M  V30 167 C 18.789 0.975522 -4.4749 0
M  V30 168 N 20.28 1.04083 -4.51354 0
M  V30 169 C 21.015 1.17646 -5.61201 0
M  V30 170 N 20.511 1.27874 -6.80896 0
M  V30 171 N 22.304 1.20823 -5.48961 0
M  V30 172 H 14.455 -0.575456 -2.04456 0
M  V30 173 H 16.718 -0.196099 -0.927496 0
M  V30 174 H 16.424 -0.138392 -3.51428 0
M  V30 175 H 16.298 1.60883 -3.41169 0
M  V30 176 H 18.685 1.68482 -2.42276 0
M  V30 177 H 18.766 -0.0776479 -2.55682 0
M  V30 178 H 18.41 0.120058 -5.07758 0
M  V30 179 H 18.34 1.89268 -4.91412 0
M  V30 180 H 20.831 0.973846 -3.65136 0
M  V30 181 H 21.144 1.38081 -7.60364 0
M  V30 182 H 19.489 1.24863 -6.83692 0
M  V30 183 H 22.68 1.12469 -4.54388 0
M  V30 184 H 22.853 1.31049 -6.3461 0
M  V30 185 N 16.2591 1.48442 0.529413 0
M  V30 186 C 17.6751 1.34575 0.858004 0
M  V30 187 C 17.8751 0.3572 1.98309 0
M  V30 188 O 16.9311 -0.221379 2.51528 0
M  V30 189 C 18.2441 2.74617 1.22499 0
M  V30 190 C 19.7921 2.83109 1.33484 0
M  V30 191 C 20.2671 4.23854 1.73526 0
M  V30 192 N 21.7581 4.2653 1.80628 0
M  V30 193 C 22.4931 5.32372 2.12997 0
M  V30 194 N 21.9891 6.48491 2.43786 0
M  V30 195 N 23.7821 5.19766 2.14008 0
M  V30 196 H 15.9331 2.1133 -0.212925 0
M  V30 197 H 18.1961 0.947439 -0.0326199 0
M  V30 198 H 17.9021 3.4852 0.471905 0
M  V30 199 H 17.7761 3.08177 2.17501 0
M  V30 200 H 20.1631 2.09462 2.0787 0
M  V30 201 H 20.2441 2.53168 0.366027 0
M  V30 202 H 19.8881 4.98018 0.997013 0
M  V30 203 H 19.8181 4.5124 2.71459 0
M  V30 204 H 22.3091 3.42772 1.59108 0
M  V30 205 H 22.6221 7.24993 2.67592 0
M  V30 206 H 20.9671 6.51765 2.41304 0
M  V30 207 H 24.1581 4.28066 1.89412 0
M  V30 208 H 24.3311 6.02354 2.38902 0
M  V30 209 N 17.7372 -0.778329 1.37039 0
M  V30 210 C 19.1482 -1.35421 1.28523 0
M  V30 211 C 19.4992 -1.96075 -0.0700901 0
M  V30 212 O 18.6242 -1.93352 -0.971801 0
M  V30 213 C 19.2192 -2.46211 2.32735 0
M  V30 214 C 17.7782 -2.99585 2.27873 0
M  V30 215 C 16.9252 -1.72748 2.16918 0
M  V30 216 H 19.8762 -0.5791 1.47757 0
M  V30 217 H 19.8972 -3.2552 1.9702 0
M  V30 218 H 19.4092 -2.02036 3.31365 0
M  V30 219 H 17.5102 -3.48152 1.32745 0
M  V30 220 H 17.6232 -3.55646 3.21018 0
M  V30 221 H 15.9872 -1.95416 1.63354 0
M  V30 222 H 16.7702 -1.30686 3.17452 0
M  V30 223 N 19.2153 -1.21501 -1.00376 0
M  V30 224 C 20.4623 -1.03299 -1.74171 0
M  V30 225 C 20.7903 0.433326 -1.89612 0
M  V30 226 O 20.0453 1.33779 -1.42834 0
M  V30 227 C 20.3443 -1.67673 -3.15627 0
M  V30 228 C 20.0103 -3.17533 -3.2013 0
M  V30 229 C 18.6723 -3.58427 -3.21067 0
M  V30 230 C 21.0243 -4.13504 -3.17275 0
M  V30 231 C 18.3523 -4.93794 -3.16835 0
M  V30 232 C 20.7043 -5.48834 -3.14585 0
M  V30 233 C 19.3683 -5.89123 -3.13831 0
M  V30 234 H 18.6383 -0.377999 -0.637336 0
M  V30 235 H 21.2853 -1.51111 -1.17634 0
M  V30 236 H 19.5903 -1.12158 -3.75404 0
M  V30 237 H 21.2873 -1.51091 -3.71446 0
M  V30 238 H 17.8773 -2.84965 -3.20145 0
M  V30 239 H 22.0613 -3.82936 -3.15711 0
M  V30 240 H 17.3173 -5.24255 -3.1459 0
M  V30 241 H 21.4913 -6.22934 -3.1133 0
M  V30 242 H 19.1183 -6.93984 -3.10307 0
M  V30 243 N 20.6934 1.19889 -1.02296 0
M  V30 244 C 22.1044 1.71124 -0.746568 0
M  V30 245 C 22.4554 1.81939 0.734335 0
M  V30 246 O 21.5804 1.48639 1.57275 0
M  V30 247 C 22.1754 3.10804 -1.34857 0
M  V30 248 C 20.7344 3.59323 -1.1209 0
M  V30 249 C 19.8814 2.3635 -1.45031 0
M  V30 250 H 22.8324 1.04813 -1.19163 0
M  V30 251 H 22.8534 3.73186 -0.742437 0
M  V30 252 H 22.3654 3.029 -2.42638 0
M  V30 253 H 20.4664 3.7255 -0.0610337 0
M  V30 254 H 20.5794 4.4378 -1.80544 0
M  V30 255 H 18.9434 2.39399 -0.869487 0
M  V30 256 H 19.7264 2.31081 -2.53883 0
M  V30 257 N 22.1715 0.800033 1.35784 0
M  V30 258 C 23.1345 0.211565 2.28221 0
M  V30 259 C 24.1345 -0.59728 1.49296 0
M  V30 260 O 25.3245 -0.416721 1.69142 0
M  V30 261 C 22.4565 -0.705846 3.33513 0
M  V30 262 H 23.6495 1.02677 2.81776 0
M  V30 263 H 21.2025 0.570211 1.45528 0
M  V30 264 H 21.9375 -1.54498 2.85133 0
M  V30 265 H 21.7225 -0.127655 3.91892 0
M  V30 266 H 23.2125 -1.11211 4.02519 0
M  V30 267 N 23.6496 -1.47581 0.552962 0
M  V30 268 C 25.0606 -1.86324 0.118463 0
M  V30 269 C 25.4116 -1.46006 -1.3106 0
M  V30 270 O 24.5366 -0.861182 -1.98526 0
M  V30 271 C 25.1316 -3.3816 0.20821 0
M  V30 272 C 23.6906 -3.7601 -0.171226 0
M  V30 273 C 22.8376 -2.71634 0.557686 0
M  V30 274 H 25.7886 -1.39159 0.762928 0
M  V30 275 H 25.8096 -3.76141 -0.574278 0
M  V30 276 H 25.3216 -3.67473 1.24841 0
M  V30 277 H 23.4226 -3.52313 -1.21269 0
M  V30 278 H 23.5356 -4.78745 0.184379 0
M  V30 279 H 21.8996 -2.547 0.00125792 0
M  V30 280 H 22.6826 -3.0379 1.59896 0
M  V30 281 N 25.1277 -0.289203 -1.54924 0
M  V30 282 C 26.3557 0.326463 -2.04308 0
M  V30 283 C 26.7707 1.48413 -1.16701 0
M  V30 284 O 26.1277 1.81507 -0.190087 0
M  V30 285 C 26.1787 0.794014 -3.52672 0
M  V30 286 O 25.8997 -0.317564 -4.36948 0
M  V30 287 C 27.4007 1.47605 -4.18004 0
M  V30 288 H 24.6207 0.0726272 -0.667058 0
M  V30 289 H 27.1647 -0.425401 -2.00026 0
M  V30 290 H 25.3197 1.49593 -3.57352 0
M  V30 291 H 25.7337 0.0443186 -5.24481 0
M  V30 292 H 27.2077 1.75447 -5.23376 0
M  V30 293 H 27.6847 2.41224 -3.67025 0
M  V30 294 H 28.2907 0.81762 -4.17367 0
M  V30 295 N 26.6058 1.57591 -0.0167156 0
M  V30 296 C 27.5688 2.08393 0.954204 0
M  V30 297 C 28.5688 0.996531 1.26198 0
M  V30 298 O 29.7588 1.25858 1.20438 0
M  V30 299 C 26.8908 2.5394 2.27436 0
M  V30 300 H 28.0838 2.95455 0.514451 0
M  V30 301 H 25.6368 1.54582 0.231089 0
M  V30 302 H 26.3718 1.70171 2.76066 0
M  V30 303 H 26.1568 3.33371 2.06412 0
M  V30 304 H 27.6468 2.93512 2.97053 0
M  V30 305 N 28.0839 -0.256276 1.55502 0
M  V30 306 C 29.0169 -1.34321 1.84481 0
M  V30 307 C 29.9949 -1.46802 0.699131 0
M  V30 308 O 31.1789 -1.63165 0.943904 0
M  V30 309 C 28.3059 -2.71779 2.02123 0
M  V30 310 C 27.3519 -2.76496 3.24734 0
M  V30 311 S 28.1849 -2.3405 4.81644 0
M  V30 312 C 29.3409 -3.73452 5.02279 0
M  V30 313 H 29.5739 -1.09539 2.76385 0
M  V30 314 H 27.1069 -0.45678 1.47489 0
M  V30 315 H 29.0649 -3.50932 2.12972 0
M  V30 316 H 27.7259 -2.93803 1.11078 0
M  V30 317 H 26.9189 -3.77424 3.34016 0
M  V30 318 H 26.5209 -2.05379 3.12563 0
M  V30 319 H 28.8129 -4.6887 4.89047 0
M  V30 320 H 29.7559 -3.6911 6.04287 0
M  V30 321 H 30.1639 -3.6553 4.30172 0
M  V30 322 N 29.562 -1.4872 -0.521534 0
M  V30 323 C 30.808 -1.58378 -1.27624 0
M  V30 324 C 31.163 -0.258028 -1.90662 0
M  V30 325 O 30.456 0.739917 -1.76736 0
M  V30 326 C 30.65 -2.66497 -2.38148 0
M  V30 327 C 30.479 -4.09456 -1.85945 0
M  V30 328 C 29.249 -4.76495 -1.68168 0
M  V30 329 C 31.447 -4.95353 -1.3831 0
M  V30 330 N 29.429 -6.0384 -1.1068 0
M  V30 331 C 30.8 -6.13012 -0.928238 0
M  V30 332 C 32.855 -4.81512 -1.26692 0
M  V30 333 C 31.558 -7.18354 -0.368701 0
M  V30 334 C 33.584 -5.86984 -0.721368 0
M  V30 335 C 32.946 -7.03857 -0.276623 0
M  V30 336 H 29.045 -0.634045 -0.457724 0
M  V30 337 H 31.629 -1.85639 -0.587049 0
M  V30 338 H 29.8 -2.41043 -3.04553 0
M  V30 339 H 31.532 -2.65791 -3.05184 0
M  V30 340 H 28.287 -4.32962 -1.91939 0
M  V30 341 H 28.711 -6.71778 -0.839217 0
M  V30 342 H 33.353 -3.91487 -1.5968 0
M  V30 343 H 31.071 -8.08096 -0.0265122 0
M  V30 344 H 34.657 -5.78329 -0.634531 0
M  V30 345 H 33.537 -7.84077 0.138947 0
M  V30 346 N 31.0401 0.771051 -1.3745 0
M  V30 347 C 32.4561 1.07171 -1.18265 0
M  V30 348 C 32.6561 2.01491 -0.019287 0
M  V30 349 O 31.7121 2.44244 0.640408 0
M  V30 350 C 33.0251 1.66854 -2.50161 0
M  V30 351 C 34.5731 1.79109 -2.56689 0
M  V30 352 C 35.0481 2.42205 -3.88717 0
M  V30 353 N 36.5391 2.49655 -3.90162 0
M  V30 354 C 37.2741 2.9933 -4.8907 0
M  V30 355 N 36.7701 3.49172 -5.98374 0
M  V30 356 N 38.5631 2.9821 -4.76474 0
M  V30 357 H 30.7141 0.144796 -2.11906 0
M  V30 358 H 32.9771 0.126863 -0.939473 0
M  V30 359 H 32.6831 1.05017 -3.35655 0
M  V30 360 H 32.5571 2.6614 -2.673 0
M  V30 361 H 34.9441 2.40077 -1.71601 0
M  V30 362 H 35.0251 0.785757 -2.43433 0
M  V30 363 H 34.6691 1.81875 -4.74219 0
M  V30 364 H 34.5991 3.43345 -3.99276 0
M  V30 365 H 37.0901 2.14383 -3.11205 0
M  V30 366 H 37.4031 3.8548 -6.69795 0
M  V30 367 H 35.7481 3.47275 -6.02018 0
M  V30 368 H 38.9391 2.58572 -3.90203 0
M  V30 369 H 39.1121 3.36613 -5.53711 0
M  V30 370 N 32.5182 1.22032 0.997298 0
M  V30 371 C 33.9292 1.0397 1.55071 0
M  V30 372 C 34.2802 -0.398192 1.92117 0
M  V30 373 O 33.4052 -1.28254 1.74298 0
M  V30 374 C 34.0002 1.88109 2.81781 0
M  V30 375 C 32.5592 1.74357 3.33581 0
M  V30 376 C 31.7062 1.84846 2.06706 0
M  V30 377 H 34.6572 1.35941 0.818883 0
M  V30 378 H 34.6782 1.39589 3.53971 0
M  V30 379 H 34.1902 2.92754 2.54787 0
M  V30 380 H 32.2912 0.72427 3.65493 0
M  V30 381 H 32.4042 2.56772 4.04481 0
M  V30 382 H 30.7682 1.28238 2.20062 0
M  V30 383 H 31.5512 2.91014 1.82114 0
M  V30 384 N 33.9963 -1.19345 1.0293 0
M  V30 385 C 35.4123 -1.41069 0.746446 0
M  V30 386 C 35.6123 -1.90078 -0.668776 0
M  V30 387 O 34.6683 -2.0778 -1.4347 0
M  V30 388 C 35.9813 -2.42141 1.78292 0
M  V30 389 C 37.5293 -2.55887 1.80252 0
M  V30 390 C 38.0043 -3.60214 2.8286 0
M  V30 391 N 39.4953 -3.67711 2.81679 0
M  V30 392 C 40.2303 -4.48128 3.57727 0
M  V30 393 N 39.7263 -5.32248 4.43491 0
M  V30 394 N 41.5193 -4.42782 3.46267 0
M  V30 395 H 33.6703 -0.858536 1.94275 0
M  V30 396 H 35.9333 -0.439541 0.839945 0
M  V30 397 H 35.6393 -2.13155 2.79746 0
M  V30 398 H 35.5133 -3.41323 1.60557 0
M  V30 399 H 37.9003 -2.84196 0.794757 0
M  V30 400 H 37.9813 -1.56858 2.02062 0
M  V30 401 H 37.6253 -3.32647 3.83807 0
M  V30 402 H 37.5553 -4.58895 2.58307 0
M  V30 403 H 40.0463 -3.07634 2.19476 0
M  V30 404 H 40.3593 -5.90729 4.98256 0
M  V30 405 H 38.7043 -5.31707 4.47564 0
M  V30 406 H 41.8953 -3.76107 2.78677 0
M  V30 407 H 42.0683 -5.05215 4.05785 0
M  V30 408 N 35.4744 -0.807222 -1.35358 0
M  V30 409 C 36.8904 -0.491038 -1.51858 0
M  V30 410 C 37.0904 0.987648 -1.75635 0
M  V30 411 O 36.1464 1.77265 -1.79815 0
M  V30 412 C 37.4594 -1.33695 -2.69344 0
M  V30 413 C 39.0074 -1.33246 -2.83222 0
M  V30 414 C 39.4824 -2.1625 -4.03733 0
M  V30 415 N 40.9734 -2.1379 -4.10911 0
M  V30 416 C 41.7084 -2.74772 -5.03277 0
M  V30 417 N 41.2044 -3.44684 -6.0097 0
M  V30 418 N 42.9974 -2.6441 -4.96028 0
M  V30 419 H 35.1484 -1.76485 -1.18181 0
M  V30 420 H 37.4114 -0.751199 -0.578276 0
M  V30 421 H 37.1174 -2.38634 -2.58354 0
M  V30 422 H 36.9914 -0.990618 -3.6396 0
M  V30 423 H 39.3784 -0.290911 -2.93663 0
M  V30 424 H 39.4594 -1.71866 -1.89461 0
M  V30 425 H 39.1034 -3.20445 -3.94052 0
M  V30 426 H 39.0334 -1.74989 -4.96675 0
M  V30 427 H 41.5244 -1.62923 -3.40976 0
M  V30 428 H 41.8374 -3.88501 -6.68047 0
M  V30 429 H 40.1824 -3.48788 -6.01142 0
M  V30 430 H 43.3734 -2.0938 -4.18662 0
M  V30 431 H 43.5464 -3.12225 -5.6782 0
M  V30 432 N 36.9525 1.47285 -0.560781 0
M  V30 433 C 38.3685 1.58065 -0.22081 0
M  V30 434 C 38.5685 1.55892 1.27671 0
M  V30 435 O 37.6245 1.46422 2.0571 0
M  V30 436 C 38.9375 2.88418 -0.850625 0
M  V30 437 C 40.4855 3.02009 -0.822184 0
M  V30 438 C 40.9605 4.35066 -1.43113 0
M  V30 439 N 42.4515 4.41711 -1.39448 0
M  V30 440 C 43.1865 5.43237 -1.83525 0
M  V30 441 N 42.6825 6.51555 -2.35474 0
M  V30 442 N 44.4755 5.34304 -1.74574 0
M  V30 443 H 36.6265 1.46941 -1.53369 0
M  V30 444 H 38.8895 0.699558 -0.639783 0
M  V30 445 H 38.5955 2.95755 -1.9032 0
M  V30 446 H 38.4695 3.75612 -0.345773 0
M  V30 447 H 40.8565 2.94266 0.221714 0
M  V30 448 H 40.9375 2.16347 -1.36483 0
M  V30 449 H 40.5815 4.43565 -2.47412 0
M  V30 450 H 40.5115 5.19465 -0.863899 0
M  V30 451 H 43.0025 3.64027 -1.01452 0
M  V30 452 H 43.3155 7.25203 -2.67021 0
M  V30 453 H 41.6605 6.52435 -2.39487 0
M  V30 454 H 44.8515 4.48581 -1.33763 0
M  V30 455 H 45.0245 6.13288 -2.09242 0
M  V30 456 N 38.4306 0.297415 1.54768 0
M  V30 457 C 39.8466 -0.0560823 1.59501 0
M  V30 458 C 40.0466 -1.52725 1.31444 0
M  V30 459 O 39.1026 -2.27947 1.08611 0
M  V30 460 C 40.4156 0.338631 2.98787 0
M  V30 461 C 41.9636 0.287097 3.11681 0
M  V30 462 C 42.4386 0.656579 4.53269 0
M  V30 463 N 43.9296 0.608977 4.59179 0
M  V30 464 C 44.6646 0.867385 5.66802 0
M  V30 465 N 44.1606 1.19157 6.82476 0
M  V30 466 N 45.9536 0.794687 5.56454 0
M  V30 467 H 38.1046 1.25624 1.71267 0
M  V30 468 H 40.3676 0.509057 0.799728 0
M  V30 469 H 40.0736 1.36263 3.2423 0
M  V30 470 H 39.9476 -0.309508 3.75928 0
M  V30 471 H 42.3346 -0.727649 2.85988 0
M  V30 472 H 42.4156 0.969809 2.36703 0
M  V30 473 H 42.0596 1.66912 4.7969 0
M  V30 474 H 41.9896 -0.0481649 5.26578 0
M  V30 475 H 44.4806 0.369198 3.76092 0
M  V30 476 H 44.7936 1.37482 7.60473 0
M  V30 477 H 43.1386 1.22958 6.84037 0
M  V30 478 H 46.3296 0.541098 4.64962 0
M  V30 479 H 46.5026 0.999445 6.40246 0
M  V30 480 N 39.9087 -1.5758 0.0250728 0
M  V30 481 C 40.8407 -2.06869 -0.986796 0
M  V30 482 C 41.8537 -0.991332 -1.29137 0
M  V30 483 O 43.0427 -1.26761 -1.25674 0
M  V30 484 C 40.1427 -2.47486 -2.31525 0
M  V30 485 C 39.3157 -3.78253 -2.19643 0
M  V30 486 C 38.3747 -4.05464 -3.35388 0
M  V30 487 O 37.4007 -4.75774 -3.12454 0
M  V30 488 N 38.6027 -3.55321 -4.59051 0
M  V30 489 H 41.3677 -2.94302 -0.566276 0
M  V30 490 H 38.9287 -1.6109 -0.161776 0
M  V30 491 H 40.9207 -2.62785 -3.07776 0
M  V30 492 H 39.4907 -1.65441 -2.65232 0
M  V30 493 H 38.7107 -3.7279 -1.28144 0
M  V30 494 H 39.9987 -4.63936 -2.08903 0
M  V30 495 H 39.3967 -2.98431 -4.80578 0
M  V30 496 H 37.9537 -3.75905 -5.32483 0
M  V30 497 N 41.3868 0.248026 -1.55636 0
M  V30 498 C 42.3498 1.29044 -1.89421 0
M  V30 499 C 43.3498 1.41134 -0.770581 0
M  V30 500 O 44.5398 1.39854 -1.03858 0
M  V30 501 C 41.6718 2.66831 -2.12165 0
M  V30 502 H 42.8648 1.00305 -2.82629 0
M  V30 503 H 40.4178 0.487265 -1.48511 0
M  V30 504 H 41.1528 3.00711 -1.21422 0
M  V30 505 H 40.9378 2.59438 -2.93997 0
M  V30 506 H 42.4278 3.42103 -2.3949 0
M  V30 507 N 42.8649 1.48995 0.513639 0
M  V30 508 C 43.8279 1.64229 1.59879 0
M  V30 509 C 44.8279 0.514696 1.5234 0
M  V30 510 O 46.0179 0.78087 1.55718 0
M  V30 511 C 43.1499 1.62783 2.99524 0
M  V30 512 H 44.3429 2.61004 1.47705 0
M  V30 513 H 41.8959 1.37837 0.736936 0
M  V30 514 H 42.6309 0.675461 3.17188 0
M  V30 515 H 42.4159 2.4466 3.06404 0
M  V30 516 H 43.9059 1.76669 3.78388 0
M  V30 517 N 44.343 -0.763751 1.37857 0
M  V30 518 C 45.754 -1.3405 1.29952 0
M  V30 519 C 46.105 -1.96138 -0.0492898 0
M  V30 520 O 45.23 -1.94372 -0.951239 0
M  V30 521 C 45.825 -2.43729 2.35333 0
M  V30 522 C 44.384 -2.97151 2.31037 0
M  V30 523 C 43.531 -1.70438 2.18738 0
M  V30 524 H 46.482 -0.563396 1.48363 0
M  V30 525 H 46.503 -3.23412 2.00462 0
M  V30 526 H 46.015 -1.9851 3.33489 0
M  V30 527 H 44.116 -3.46724 1.3643 0
M  V30 528 H 44.229 -3.52221 3.24772 0
M  V30 529 H 42.593 -1.93673 1.65418 0
M  V30 530 H 43.376 -1.27312 3.18821 0
M  V30 531 N 45.8211 -1.22559 -0.990812 0
M  V30 532 C 46.7541 -0.940773 -2.07905 0
M  V30 533 C 47.7321 0.117082 -1.62178 0
M  V30 534 O 48.9161 -0.0149506 -1.88494 0
M  V30 535 C 46.0431 -0.415321 -3.36144 0
M  V30 536 C 45.0891 -1.45818 -4.00799 0
M  V30 537 S 45.9221 -3.03219 -4.41382 0
M  V30 538 C 47.0781 -2.52317 -5.72789 0
M  V30 539 H 47.3111 -1.8623 -2.31745 0
M  V30 540 H 44.8441 -1.05688 -1.12558 0
M  V30 541 H 46.8021 -0.118747 -4.10328 0
M  V30 542 H 45.4631 0.485121 -3.10331 0
M  V30 543 H 44.6561 -1.04044 -4.93144 0
M  V30 544 H 44.2581 -1.70356 -3.32949 0
M  V30 545 H 46.5501 -1.93688 -6.49224 0
M  V30 546 H 47.4931 -3.43161 -6.19392 0
M  V30 547 H 47.9011 -1.93529 -5.30289 0
M  V30 548 N 47.2992 1.18797 -1.03562 0
M  V30 549 C 48.7102 1.70322 -0.764676 0
M  V30 550 C 49.0612 1.82708 0.714996 0
M  V30 551 O 48.1862 1.50299 1.55689 0
M  V30 552 C 48.7812 3.09356 -1.38145 0
M  V30 553 C 47.3402 3.58114 -1.15895 0
M  V30 554 C 46.4872 2.34798 -1.4753 0
M  V30 555 H 49.4382 1.03543 -1.20268 0
M  V30 556 H 49.4592 3.72378 -0.781977 0
M  V30 557 H 48.9712 3.00309 -2.45837 0
M  V30 558 H 47.0722 3.72464 -0.100544 0
M  V30 559 H 47.1852 4.4184 -1.8524 0
M  V30 560 H 45.5492 2.38464 -0.894829 0
M  V30 561 H 46.3322 2.28375 -2.56319 0
M  V30 562 N 48.7773 0.814389 1.34928 0
M  V30 563 C 49.7403 0.235759 2.27984 0
M  V30 564 C 50.7403 -0.581412 1.49921 0
M  V30 565 O 51.9303 -0.398758 1.69575 0
M  V30 566 C 49.0623 -0.670433 3.34242 0
M  V30 567 H 50.2553 1.05659 2.80671 0
M  V30 568 H 47.8083 0.585614 1.44915 0
M  V30 569 H 48.5433 -1.51466 2.86755 0
M  V30 570 H 48.3283 -0.0860822 3.92005 0
M  V30 571 H 49.8183 -1.06935 4.03676 0
M  V30 572 N 50.2554 -1.46986 0.568584 0
M  V30 573 C 51.6714 -1.57946 0.229189 0
M  V30 574 C 51.8714 -1.56567 -1.26843 0
M  V30 575 O 50.9274 -1.47511 -2.04931 0
M  V30 576 C 52.2404 -2.87963 0.865909 0
M  V30 577 C 53.7884 -3.01568 0.838188 0
M  V30 578 C 54.2634 -4.34301 1.45419 0
M  V30 579 N 55.7544 -4.40965 1.41788 0
M  V30 580 C 56.4894 -5.42256 1.86403 0
M  V30 581 N 55.9854 -6.50297 2.38926 0
M  V30 582 N 57.7784 -5.3337 1.77405 0
M  V30 583 H 49.9294 -1.46126 1.54146 0
M  V30 584 H 52.1924 -0.696156 0.643484 0
M  V30 585 H 51.8984 -2.94742 1.91886 0
M  V30 586 H 51.7724 -3.75423 0.365687 0
M  V30 587 H 54.1594 -2.94379 -0.206106 0
M  V30 588 H 54.2404 -2.1562 1.37629 0
M  V30 589 H 53.8844 -4.42247 2.49761 0
M  V30 590 H 53.8144 -5.19 0.891435 0
M  V30 591 H 56.3054 -3.63484 1.03381 0
M  V30 592 H 56.6184 -7.23777 2.70863 0
M  V30 593 H 54.9634 -6.51155 2.42944 0
M  V30 594 H 58.1544 -4.47865 1.3614 0
M  V30 595 H 58.3274 -6.12169 2.12492 0
M  V30 596 N 51.7335 -0.305618 -1.54608 0
M  V30 597 C 52.6815 0.584119 -2.25146 0
M  V30 598 C 53.6755 1.13326 -1.25911 0
M  V30 599 O 54.8815 1.08337 -1.43747 0
M  V30 600 H 51.2565 0.206983 -0.722954 0
M  V30 601 H 53.2275 -0.033291 -2.98381 0
M  V30 602 C 51.9765 1.74225 -3.009 0
M  V30 603 H 51.2995 1.32892 -3.77067 0
M  V30 604 H 52.7395 2.34077 -3.53531 0
M  V30 605 C 51.1985 2.64914 -2.0814 0
M  V30 606 O 51.7285 3.66137 -1.65246 0
M  V30 607 N 49.9345 2.3275 -1.74 0
M  V30 608 H 49.4815 1.50479 -2.09078 0
M  V30 609 H 49.4395 2.93694 -1.12211 0
M  V30 610 N 53.2116 1.57565 -0.0334293 0
M  V30 611 C 54.4596 1.91598 0.642999 0
M  V30 612 C 54.7806 0.910847 1.7242 0
M  V30 613 O 54.0506 -0.0469931 1.95844 0
M  V30 614 H 52.6306 0.707228 0.240496 0
M  V30 615 H 55.2926 1.94726 -0.0822488 0
M  V30 616 H 54.3886 2.92336 1.09298 0
M  V30 617 N 54.6897 -0.239769 1.55765 0
M  V30 618 C 55.6197 -1.30052 1.9393 0
M  V30 619 C 56.6007 -1.49839 0.805132 0
M  V30 620 O 57.7857 -1.62328 1.06599 0
M  V30 621 C 54.9157 -2.65391 2.2402 0
M  V30 622 C 53.8697 -2.60289 3.39755 0
M  V30 623 C 53.1957 -3.99489 3.55405 0
M  V30 624 C 54.4957 -2.16654 4.75246 0
M  V30 625 H 56.1897 -0.983573 2.82783 0
M  V30 626 H 53.7357 -0.471701 1.36055 0
M  V30 627 H 55.6887 -3.3974 2.49308 0
M  V30 628 H 54.4127 -2.98736 1.32 0
M  V30 629 H 53.0717 -1.88398 3.14487 0
M  V30 630 H 52.7197 -4.30112 2.60793 0
M  V30 631 H 52.4197 -3.96962 4.33238 0
M  V30 632 H 53.9437 -4.75528 3.83022 0
M  V30 633 H 55.3577 -2.80737 4.99859 0
M  V30 634 H 53.7547 -2.25223 5.56232 0
M  V30 635 H 54.8247 -1.11835 4.71827 0
M  V30 636 N 56.1678 -1.49265 -0.50573 0
M  V30 637 C 57.1308 -1.65075 -1.59006 0
M  V30 638 C 58.1308 -0.522768 -1.52065 0
M  V30 639 O 59.3208 -0.789117 -1.55302 0
M  V30 640 C 56.4528 -1.64369 -2.98656 0
M  V30 641 H 57.6458 -2.61784 -1.46319 0
M  V30 642 H 55.1988 -1.38226 -0.729616 0
M  V30 643 H 55.9338 -0.692272 -3.16825 0
M  V30 644 H 55.7188 -2.46282 -3.05103 0
M  V30 645 H 57.2088 -1.78674 -3.77446 0
M  V30 646 N 57.6459 0.756429 -1.3826 0
M  V30 647 C 58.8709 1.55077 -1.37717 0
M  V30 648 C 59.2959 1.88073 0.03164 0
M  V30 649 O 58.6539 1.50364 1.01293 0
M  V30 650 C 58.7019 2.8283 -2.23695 0
M  V30 651 O 57.8059 3.77862 -1.6521 0
M  V30 652 H 57.1469 0.469152 -0.469885 0
M  V30 653 H 59.6769 0.935019 -1.81985 0
M  V30 654 H 59.6869 3.31783 -2.37453 0
M  V30 655 H 58.3619 2.58144 -3.2609 0
M  V30 656 H 56.9389 3.36555 -1.60578 0
M  V30 657 N 59.124 1.23083 0.984299 0
M  V30 658 C 60.056 0.96636 2.07832 0
M  V30 659 C 61.069 -0.0582135 1.62696 0
M  V30 660 O 62.258 0.176843 1.77622 0
M  V30 661 C 59.358 0.433397 3.36117 0
M  V30 662 C 58.531 1.51722 4.10243 0
M  V30 663 C 57.59 0.989821 5.16807 0
M  V30 664 O 56.616 1.67794 5.43906 0
M  V30 665 N 57.818 -0.184367 5.80207 0
M  V30 666 H 60.583 1.90824 2.31098 0
M  V30 667 H 58.144 1.13888 1.1507 0
M  V30 668 H 60.136 0.065699 4.04647 0
M  V30 669 H 58.706 -0.413806 3.09849 0
M  V30 670 H 57.926 2.05786 3.36223 0
M  V30 671 H 59.214 2.24619 4.56534 0
M  V30 672 H 58.612 -0.760062 5.60571 0
M  V30 673 H 57.169 -0.493366 6.4993 0
M  V30 674 N 60.6021 -1.18246 1.0419 0
M  V30 675 C 61.8511 -1.87588 0.741194 0
M  V30 676 C 62.1641 -1.81303 -0.734066 0
M  V30 677 O 63.3701 -2.46019 -1.14834 0
M  V30 678 C 61.8261 -3.36538 1.27555 0
M  V30 679 C 61.4341 -3.51349 2.77953 0
M  V30 680 C 63.1781 -4.11273 1.05143 0
M  V30 681 C 61.0851 -4.94265 3.2474 0
M  V30 682 H 60.0151 -0.702622 0.273565 0
M  V30 683 H 62.6661 -1.33601 1.25789 0
M  V30 684 H 61.0481 -3.9 0.686703 0
M  V30 685 H 62.2221 -3.08153 3.42605 0
M  V30 686 H 60.5371 -2.90022 2.98791 0
M  V30 687 H 63.1341 -5.16689 1.37611 0
M  V30 688 H 63.4771 -4.16298 -0.0112774 0
M  V30 689 H 64.0101 -3.63987 1.60495 0
M  V30 690 H 60.7491 -4.94408 4.30396 0
M  V30 691 H 60.2691 -5.38172 2.64823 0
M  V30 692 H 61.9481 -5.62987 3.18834 0
M  V30 693 N 62.0802 -0.821533 -1.34494 0
M  V30 694 C 63.0122 -0.199946 -2.28326 0
M  V30 695 C 64.0252 0.609377 -1.50965 0
M  V30 696 O 65.2142 0.439285 -1.7301 0
M  V30 697 C 62.3142 0.738431 -3.30757 0
M  V30 698 C 61.4872 -0.0277632 -4.37391 0
M  V30 699 C 60.5462 0.831332 -5.19591 0
M  V30 700 O 59.5722 0.276822 -5.68526 0
M  V30 701 N 60.7742 2.15132 -5.39165 0
M  V30 702 H 63.5392 -1.00609 -2.82308 0
M  V30 703 H 61.1002 -0.678366 -1.47003 0
M  V30 704 H 63.0922 1.31773 -3.82646 0
M  V30 705 H 61.6622 1.44533 -2.7718 0
M  V30 706 H 60.8822 -0.788359 -3.86236 0
M  V30 707 H 62.1702 -0.555251 -5.05761 0
M  V30 708 H 61.5682 2.62559 -5.01078 0
M  V30 709 H 60.1252 2.6795 -5.94177 0
M  V30 710 N 63.5583 1.46682 -0.576371 0
M  V30 711 C 64.4903 2.28341 0.198231 0
M  V30 712 C 65.5033 1.38141 0.861453 0
M  V30 713 O 66.6923 1.62797 0.732082 0
M  V30 714 C 63.7923 3.12986 1.29972 0
M  V30 715 C 62.9653 4.31271 0.729639 0
M  V30 716 C 62.0243 4.97363 1.71803 0
M  V30 717 O 61.0503 5.55156 1.25658 0
M  V30 718 N 62.2523 4.93796 3.05198 0
M  V30 719 H 65.0173 2.9546 -0.502324 0
M  V30 720 H 62.5783 1.56525 -0.413715 0
M  V30 721 H 64.5703 3.54066 1.96008 0
M  V30 722 H 63.1403 2.47984 1.90323 0
M  V30 723 H 62.3603 3.94052 -0.108012 0
M  V30 724 H 63.6483 5.07739 0.328438 0
M  V30 725 H 63.0463 4.48077 3.45317 0
M  V30 726 H 61.6033 5.38837 3.6674 0
M  V30 727 N 65.0364 0.313813 1.54444 0
M  V30 728 C 65.9664 -0.549454 2.26943 0
M  V30 729 C 66.9474 -1.12741 1.27372 0
M  V30 730 O 68.1324 -1.15436 1.56167 0
M  V30 731 C 65.2624 -1.71523 3.01989 0
M  V30 732 C 64.2164 -1.26703 4.08816 0
M  V30 733 C 63.5424 -2.51898 4.71647 0
M  V30 734 C 64.8424 -0.388962 5.2085 0
M  V30 735 H 66.5364 0.0552661 2.99349 0
M  V30 736 H 64.0824 0.0280207 1.43973 0
M  V30 737 H 66.0354 -2.32535 3.51433 0
M  V30 738 H 64.7594 -2.34639 2.27183 0
M  V30 739 H 63.4184 -0.679896 3.6024 0
M  V30 740 H 63.0664 -3.13356 3.93468 0
M  V30 741 H 62.7664 -2.22605 5.43802 0
M  V30 742 H 64.2904 -3.1369 5.23861 0
M  V30 743 H 65.7044 -0.905107 5.6611 0
M  V30 744 H 64.1014 -0.18924 5.99802 0
M  V30 745 H 65.1714 0.582699 4.81386 0
M  V30 746 N 66.5145 -1.57545 0.0417849 0
M  V30 747 C 67.7425 -1.96624 -0.643928 0
M  V30 748 C 68.1575 -0.918897 -1.64929 0
M  V30 749 O 67.5145 0.0979323 -1.82237 0
M  V30 750 C 67.5655 -3.35781 -1.33914 0
M  V30 751 O 67.2865 -4.365 -0.374048 0
M  V30 752 C 68.7875 -3.89566 -2.1155 0
M  V30 753 H 66.0075 -0.647316 -0.176702 0
M  V30 754 H 68.5515 -2.04229 0.105304 0
M  V30 755 H 66.7065 -3.29357 -2.03968 0
M  V30 756 H 67.1205 -5.17248 -0.869179 0
M  V30 757 H 68.5945 -4.89242 -2.55628 0
M  V30 758 H 69.0715 -3.24488 -2.9598 0
M  V30 759 H 69.6775 -3.99298 -1.46427 0
M  V30 760 N 67.9926 0.231505 -1.5589 0
M  V30 761 C 69.2206 0.974505 -1.82513 0
M  V30 762 C 69.6356 1.78344 -0.619591 0
M  V30 763 O 68.9926 1.77792 0.411848 0
M  V30 764 C 69.0436 1.90007 -3.07538 0
M  V30 765 O 68.7646 1.12385 -4.2344 0
M  V30 766 C 70.2656 2.75779 -3.47075 0
M  V30 767 H 67.4856 0.286065 -0.606966 0
M  V30 768 H 70.0296 0.249739 -2.02969 0
M  V30 769 H 68.1846 2.57891 -2.89086 0
M  V30 770 H 68.5986 1.75125 -4.944 0
M  V30 771 H 70.0726 3.36443 -4.37619 0
M  V30 772 H 70.5496 3.47672 -2.68367 0
M  V30 773 H 71.1556 2.13323 -3.67931 0
M  V30 774 N 69.4707 1.49531 0.497807 0
M  V30 775 C 70.4337 1.65916 1.58128 0
M  V30 776 C 71.4337 0.530825 1.51786 0
M  V30 777 O 72.6237 0.797342 1.54881 0
M  V30 778 C 69.7557 1.65951 2.9778 0
M  V30 779 H 70.9487 2.62556 1.44929 0
M  V30 780 H 68.5017 1.38611 0.722275 0
M  V30 781 H 69.2367 0.709065 3.16453 0
M  V30 782 H 69.0217 2.47897 3.03792 0
M  V30 783 H 70.5117 1.80673 3.76493 0
M  V30 784 N 70.9488 -0.749086 1.3866 0
M  V30 785 C 72.1948 -1.51056 1.35314 0
M  V30 786 C 72.5278 -1.94121 -0.0553751 0
M  V30 787 O 71.8028 -1.65763 -1.01749 0
M  V30 788 C 72.0858 -2.76003 2.31288 0
M  V30 789 C 71.9388 -2.39047 3.8102 0
M  V30 790 C 73.2578 -3.78046 2.2532 0
M  V30 791 H 70.3768 -0.547972 0.492844 0
M  V30 792 H 73.0188 -0.857628 1.69543 0
M  V30 793 H 71.1688 -3.31716 2.02229 0
M  V30 794 H 72.8408 -1.89074 4.20771 0
M  V30 795 H 71.0838 -1.71449 3.98482 0
M  V30 796 H 71.7548 -3.28462 4.4364 0
M  V30 797 H 74.2308 -3.31884 2.50983 0
M  V30 798 H 73.1068 -4.63159 2.94576 0
M  V30 799 H 73.3678 -4.23957 1.25352 0
M  V30 800 N 72.4269 -1.23603 -0.977757 0
M  V30 801 C 73.6519 -1.09735 -1.75991 0
M  V30 802 C 74.0769 0.346858 -1.84874 0
M  V30 803 O 73.4349 1.25093 -1.3123 0
M  V30 804 C 73.4829 -1.73051 -3.16363 0
M  V30 805 O 72.5869 -0.994452 -4.0023 0
M  V30 806 H 71.9279 -0.384476 -0.541364 0
M  V30 807 H 74.4579 -1.6371 -1.2272 0
M  V30 808 H 74.4679 -1.78398 -3.66931 0
M  V30 809 H 73.1429 -2.78137 -3.09213 0
M  V30 810 H 71.7199 -1.01812 -3.58732 0
M  V30 811 N 73.905 1.17692 -1.04816 0
M  V30 812 C 74.868 2.19787 -0.650117 0
M  V30 813 C 75.868 1.58044 0.296427 0
M  V30 814 O 77.058 1.74012 0.0808097 0
M  V30 815 C 74.19 3.40869 0.0456987 0
M  V30 816 H 75.383 2.56516 -1.5537 0
M  V30 817 H 72.936 1.31708 -0.841594 0
M  V30 818 H 73.671 3.09681 0.962726 0
M  V30 819 H 73.456 3.86928 -0.634727 0
M  V30 820 H 74.946 4.16445 0.310432 0
M  V30 821 N 75.3831 0.828654 1.34056 0
M  V30 822 C 76.3131 0.269443 2.3194 0
M  V30 823 C 77.2941 -0.617247 1.58506 0
M  V30 824 O 78.4791 -0.542931 1.86456 0
M  V30 825 C 75.6091 -0.564793 3.42677 0
M  V30 826 C 74.5631 0.225241 4.27407 0
M  V30 827 C 73.8891 -0.7321 5.29664 0
M  V30 828 C 75.1891 1.43663 5.02154 0
M  V30 829 H 76.8831 1.08728 2.7896 0
M  V30 830 H 74.4291 0.524283 1.34117 0
M  V30 831 H 76.3821 -0.966233 4.10173 0
M  V30 832 H 75.1061 -1.41574 2.9432 0
M  V30 833 H 73.7651 0.608117 3.61521 0
M  V30 834 H 73.4131 -1.57916 4.77568 0
M  V30 835 H 73.1131 -0.20767 5.87233 0
M  V30 836 H 74.6371 -1.13128 6.00029 0
M  V30 837 H 76.0511 1.1089 5.62473 0
M  V30 838 H 74.4481 1.89711 5.69324 0
M  V30 839 H 75.5181 2.21181 4.31517 0
M  V30 840 N 76.8612 -1.46375 0.584142 0
M  V30 841 C 78.1072 -2.02678 0.0703716 0
M  V30 842 C 78.4402 -1.4545 -1.28678 0
M  V30 843 O 77.7152 -0.62014 -1.84349 0
M  V30 844 C 77.9982 -3.60099 0.00614674 0
M  V30 845 C 77.8512 -4.27709 1.3923 0
M  V30 846 C 79.1702 -4.34598 -0.693742 0
M  V30 847 H 76.2892 -0.736504 0.027047 0
M  V30 848 H 78.9312 -1.74501 0.751615 0
M  V30 849 H 77.0812 -3.84236 -0.574009 0
M  V30 850 H 78.7532 -4.14832 2.01773 0
M  V30 851 H 76.9962 -3.87016 1.95962 0
M  V30 852 H 77.6672 -5.36478 1.29982 0
M  V30 853 H 80.1432 -4.15615 -0.200869 0
M  V30 854 H 79.0192 -5.44318 -0.707714 0
M  V30 855 H 79.2802 -4.05759 -1.75533 0
M  V30 856 N 78.3393 -0.321999 -1.54275 0
M  V30 857 C 79.5883 0.281931 -1.9972 0
M  V30 858 C 79.9013 1.53369 -1.21397 0
M  V30 859 O 81.1073 2.21352 -1.57211 0
M  V30 860 C 79.5633 0.5529 -3.55628 0
M  V30 861 C 79.1713 -0.681721 -4.42783 0
M  V30 862 C 80.9153 1.11687 -4.09544 0
M  V30 863 C 78.8223 -0.382742 -5.9016 0
M  V30 864 H 77.7523 0.109124 -0.746062 0
M  V30 865 H 80.4033 -0.43398 -1.78294 0
M  V30 866 H 78.7853 1.32896 -3.73035 0
M  V30 867 H 79.9593 -1.45723 -4.37151 0
M  V30 868 H 78.2743 -1.1658 -3.99748 0
M  V30 869 H 80.8713 1.35515 -5.17242 0
M  V30 870 H 81.2143 2.06575 -3.61431 0
M  V30 871 H 81.7473 0.402032 -3.95763 0
M  V30 872 H 78.4863 -1.30076 -6.42464 0
M  V30 873 H 78.0063 0.355094 -5.98748 0
M  V30 874 H 79.6853 0.00800157 -6.47 0
M  V30 875 N 79.8174 1.5752 -0.0501392 0
M  V30 876 C 81.0654 1.9227 0.622642 0
M  V30 877 C 81.3864 0.929083 1.71444 0
M  V30 878 O 80.6564 -0.0262186 1.95882 0
M  V30 879 H 79.2364 0.709739 0.232981 0
M  V30 880 H 81.8984 1.94628 -0.102898 0
M  V30 881 H 80.9944 2.93479 1.06191 0
M  V30 882 N 81.2955 -0.223234 1.56011 0
M  V30 883 C 82.2275 -1.30006 1.88762 0
M  V30 884 C 83.2405 -1.43129 0.775746 0
M  V30 885 O 84.4295 -1.44057 1.05403 0
M  V30 886 C 81.5295 -2.67589 2.07965 0
M  V30 887 C 80.7025 -2.76434 3.38973 0
M  V30 888 C 79.7615 -3.95019 3.47629 0
M  V30 889 O 78.7875 -3.83436 4.20672 0
M  V30 890 N 79.9895 -5.09249 2.78649 0
M  V30 891 H 82.7545 -1.02238 2.81722 0
M  V30 892 H 80.3155 -0.413278 1.56536 0
M  V30 893 H 82.3075 -3.45297 2.11073 0
M  V30 894 H 80.8775 -2.87964 1.21638 0
M  V30 895 H 80.0975 -1.85216 3.47978 0
M  V30 896 H 81.3855 -2.79313 4.25278 0
M  V30 897 H 80.7835 -5.21556 2.19081 0
M  V30 898 H 79.3405 -5.85007 2.8742 0
M  V30 899 N 82.7736 -1.49793 -0.48987 0
M  V30 900 C 83.7366 -1.66752 -1.57246 0
M  V30 901 C 84.7366 -0.538867 -1.51502 0
M  V30 902 O 85.9266 -0.805545 -1.54456 0
M  V30 903 C 83.0586 -1.67528 -2.96896 0
M  V30 904 H 84.2516 -2.63321 -1.43534 0
M  V30 905 H 81.8046 -1.38992 -0.714914 0
M  V30 906 H 82.5396 -0.725837 -3.16073 0
M  V30 907 H 82.3246 -2.49504 -3.02473 0
M  V30 908 H 83.8146 -1.82667 -3.7553 0
M  V30 909 N 84.2517 0.741722 -1.39055 0
M  V30 910 C 85.4797 1.53098 -1.39171 0
M  V30 911 C 85.8947 1.88794 0.0155099 0
M  V30 912 O 85.2517 1.53626 0.985159 0
M  V30 913 C 85.3027 2.82274 -2.2584 0
M  V30 914 O 85.0237 2.48097 -3.61081 0
M  V30 915 C 86.5247 3.76343 -2.34266 0
M  V30 916 H 83.7447 0.473335 -0.4756 0
M  V30 917 H 86.2887 0.917045 -1.82785 0
M  V30 918 H 84.4437 3.40015 -1.85656 0
M  V30 919 H 84.8577 3.31029 -4.06842 0
M  V30 920 H 86.3317 4.63898 -2.9917 0
M  V30 921 H 86.8087 4.17619 -1.35982 0
M  V30 922 H 87.4147 3.24523 -2.74891 0
M  V30 923 N 85.7298 1.2412 0.971189 0
M  V30 924 C 87.1458 1.00584 1.23916 0
M  V30 925 C 87.3458 -0.287481 1.99439 0
M  V30 926 O 86.4018 -1.00454 2.31658 0
M  V30 927 C 87.7148 2.21864 2.0297 0
M  V30 928 C 89.2628 2.26452 2.16076 0
M  V30 929 C 89.7378 3.47343 2.98524 0
M  V30 930 N 91.2288 3.47639 3.06107 0
M  V30 931 C 91.9638 4.37837 3.70251 0
M  V30 932 N 91.4598 5.38286 4.36142 0
M  V30 933 N 93.2528 4.25558 3.67228 0
M  V30 934 H 85.4038 2.07236 0.465499 0
M  V30 935 H 87.6668 0.909236 0.268315 0
M  V30 936 H 87.3728 3.15771 1.54861 0
M  V30 937 H 87.2468 2.23698 3.03709 0
M  V30 938 H 89.6338 1.33078 2.6339 0
M  V30 939 H 89.7148 2.28645 1.14696 0
M  V30 940 H 89.3588 4.41029 2.51905 0
M  V30 941 H 89.2888 3.42393 4.00093 0
M  V30 942 H 91.7798 2.74966 2.59233 0
M  V30 943 H 92.0928 6.03352 4.82894 0
M  V30 944 H 90.4378 5.42176 4.34822 0
M  V30 945 H 93.6288 3.46322 3.14927 0
M  V30 946 H 93.8018 4.96054 4.16935 0
M  V30 947 N 87.2079 -1.17134 1.05439 0
M  V30 948 C 88.6189 -1.69084 0.791676 0
M  V30 949 C 88.9699 -1.83822 -0.685839 0
M  V30 950 O 88.0949 -1.52757 -1.53278 0
M  V30 951 C 88.6899 -3.07119 1.4305 0
M  V30 952 C 87.2489 -3.56225 1.21577 0
M  V30 953 C 86.3959 -2.32421 1.51247 0
M  V30 954 H 89.3469 -1.01617 1.219 0
M  V30 955 H 89.3679 -3.71087 0.84112 0
M  V30 956 H 88.8799 -2.9636 2.50584 0
M  V30 957 H 86.9809 -3.72257 0.159787 0
M  V30 958 H 87.0939 -4.38837 1.92246 0
M  V30 959 H 85.4579 -2.3701 0.932653 0
M  V30 960 H 86.2409 -2.24268 2.5992 0
M  V30 961 N 88.686 -0.835752 -1.33615 0
M  V30 962 C 89.618 -0.224151 -2.28101 0
M  V30 963 C 90.631 0.593331 -1.51603 0
M  V30 964 O 91.82 0.420911 -1.73466 0
M  V30 965 C 88.92 0.703309 -3.31522 0
M  V30 966 C 88.093 -0.0741528 -4.37337 0
M  V30 967 C 87.152 0.776176 -5.20444 0
M  V30 968 O 86.178 0.216506 -5.68788 0
M  V30 969 N 87.38 2.09401 -5.41416 0
M  V30 970 H 90.145 -1.03598 -2.81225 0
M  V30 971 H 87.706 -0.69392 -1.46275 0
M  V30 972 H 89.698 1.27707 -3.84022 0
M  V30 973 H 88.268 1.41585 -2.78698 0
M  V30 974 H 87.488 -0.82928 -3.85378 0
M  V30 975 H 88.776 -0.608863 -5.05144 0
M  V30 976 H 88.174 2.57229 -5.03835 0
M  V30 977 H 86.731 2.61633 -5.96985 0
M  V30 978 N 90.1641 1.46063 -0.591896 0
M  V30 979 C 91.5751 1.85944 -0.167822 0
M  V30 980 C 91.9261 1.49429 1.27143 0
M  V30 981 O 91.0511 0.913515 1.96173 0
M  V30 982 C 91.6461 3.37489 -0.297794 0
M  V30 983 C 90.2051 3.76332 0.0714732 0
M  V30 984 C 89.3521 2.7006 -0.629509 0
M  V30 985 H 92.3031 1.37087 -0.799555 0
M  V30 986 H 92.3241 3.77532 0.474349 0
M  V30 987 H 91.8361 3.64034 -1.3454 0
M  V30 988 H 89.9371 3.55405 1.11886 0
M  V30 989 H 90.0501 4.78088 -0.311245 0
M  V30 990 H 88.4141 2.54607 -0.0687867 0
M  V30 991 H 89.1971 2.99444 -1.67894 0
M  V30 992 N 91.6422 0.330177 1.54103 0
M  V30 993 C 93.0532 -0.15652 1.86043 0
M  V30 994 C 93.4042 -1.51086 1.2517 0
M  V30 995 O 92.5292 -2.09023 0.560217 0
M  V30 996 C 93.1242 -0.290784 3.3755 0
M  V30 997 C 91.6832 -0.721705 3.69416 0
M  V30 998 C 90.8302 0.152622 2.7688 0
M  V30 999 H 93.7812 0.550237 1.48856 0
M  V30 1000 H 93.8022 -1.12058 3.63625 0
M  V30 1001 H 93.3142 0.695068 3.81825 0
M  V30 1002 H 91.4152 -1.71706 3.30678 0
M  V30 1003 H 91.5282 -0.520869 4.7626 0
M  V30 1004 H 89.8922 -0.372894 2.51956 0
M  V30 1005 H 90.6752 1.13536 3.23982 0
M  V30 1006 N 93.1203 -1.57491 0.0584922 0
M  V30 1007 C 94.5363 -1.56792 -0.298091 0
M  V30 1008 C 94.7363 -1.06679 -1.70944 0
M  V30 1009 O 93.7923 -0.726672 -2.41818 0
M  V30 1010 C 95.1053 -3.00461 -0.119879 0
M  V30 1011 C 96.6533 -3.1242 -0.190428 0
M  V30 1012 C 97.1283 -4.57982 -0.0406567 0
M  V30 1013 N 98.6193 -4.63099 -0.0966958 0
M  V30 1014 C 99.3543 -5.734 -0.00502943 0
M  V30 1015 N 98.8503 -6.9266 0.139402 0
M  V30 1016 N 100.643 -5.62067 -0.0611391 0
M  V30 1017 H 92.7943 -1.88386 0.98105 0
M  V30 1018 H 95.0573 -0.867865 0.381463 0
M  V30 1019 H 94.7633 -3.41187 0.85349 0
M  V30 1020 H 94.6373 -3.66843 -0.877833 0
M  V30 1021 H 97.0243 -2.71589 -1.15427 0
M  V30 1022 H 97.1053 -2.48702 0.598405 0
M  V30 1023 H 96.7493 -4.995 0.919897 0
M  V30 1024 H 96.6793 -5.19715 -0.848727 0
M  V30 1025 H 99.1703 -3.77331 -0.207277 0
M  V30 1026 H 99.4833 -7.72536 0.201855 0
M  V30 1027 H 97.8283 -6.94781 0.174586 0
M  V30 1028 H 101.019 -4.67782 -0.172583 0
M  V30 1029 H 101.192 -6.47999 0.0137562 0
M  V30 1030 N 94.5984 0.214957 -1.56127 0
M  V30 1031 C 96.0094 0.781386 -1.69562 0
M  V30 1032 C 96.3604 1.84707 -0.66165 0
M  V30 1033 O 95.4854 2.156 0.185927 0
M  V30 1034 C 96.0804 1.42411 -3.07416 0
M  V30 1035 C 94.6394 1.93786 -3.22683 0
M  V30 1036 C 93.7864 0.800438 -2.65496 0
M  V30 1037 H 96.7374 -0.00980633 -1.58697 0
M  V30 1038 H 96.7584 2.29309 -3.0364 0
M  V30 1039 H 96.2704 0.64826 -3.82648 0
M  V30 1040 H 94.3714 2.74152 -2.52332 0
M  V30 1041 H 94.4844 2.1133 -4.29973 0
M  V30 1042 H 92.8484 1.2095 -2.2415 0
M  V30 1043 H 93.6314 0.0371471 -3.4328 0
M  V30 1044 N 96.0765 1.50051 0.48192 0
M  V30 1045 C 97.4925 1.37237 0.814756 0
M  V30 1046 C 97.6925 0.420109 1.97072 0
M  V30 1047 O 96.7485 -0.141246 2.52105 0
M  V30 1048 C 98.0615 2.78375 1.13701 0
M  V30 1049 C 99.6095 2.87213 1.2441 0
M  V30 1050 C 100.084 4.29161 1.59954 0
M  V30 1051 N 101.575 4.32061 1.66967 0
M  V30 1052 C 102.31 5.38879 1.95952 0
M  V30 1053 N 101.806 6.55918 2.23031 0
M  V30 1054 N 103.599 5.26312 1.97363 0
M  V30 1055 H 95.7505 2.10546 -0.28005 0
M  V30 1056 H 98.0135 0.945921 -0.0627454 0
M  V30 1057 H 97.7195 3.49845 0.360787 0
M  V30 1058 H 97.5935 3.14941 2.07586 0
M  V30 1059 H 99.9805 2.15969 2.01101 0
M  V30 1060 H 100.061 2.54204 0.285299 0
M  V30 1061 H 99.7055 5.00938 0.838067 0
M  V30 1062 H 99.6355 4.59648 2.56966 0
M  V30 1063 H 102.126 3.47661 1.48123 0
M  V30 1064 H 102.439 7.33139 2.44391 0
M  V30 1065 H 100.784 6.59112 2.20447 0
M  V30 1066 H 103.975 4.33876 1.75697 0
M  V30 1067 H 104.148 6.09649 2.19618 0
M  V30 1068 N 97.5546 -0.734337 1.39446 0
M  V30 1069 C 98.9656 -1.31264 1.32766 0
M  V30 1070 C 99.3166 -1.96198 -0.00767497 0
M  V30 1071 O 98.4416 -1.96346 -0.909796 0
M  V30 1072 C 99.0366 -2.38682 2.4045 0
M  V30 1073 C 97.5956 -2.92184 2.37288 0
M  V30 1074 C 96.7426 -1.6576 2.22304 0
M  V30 1075 H 99.6936 -0.531799 1.49525 0
M  V30 1076 H 99.7146 -3.19087 2.07276 0
M  V30 1077 H 99.2266 -1.91392 3.37625 0
M  V30 1078 H 97.3276 -3.43752 1.43754 0
M  V30 1079 H 97.4406 -3.45253 3.3217 0
M  V30 1080 H 95.8046 -1.9012 1.69489 0
M  V30 1081 H 96.5876 -1.20521 3.21449 0
M  V30 1082 N 99.0327 -1.24633 -0.964593 0
M  V30 1083 C 100.444 -1.08045 -1.5226 0
M  V30 1084 C 100.795 0.347116 -1.93105 0
M  V30 1085 O 99.9197 1.23588 -1.77637 0
M  V30 1086 C 100.515 -1.95514 -2.76695 0
M  V30 1087 C 99.0737 -1.8314 -3.28841 0
M  V30 1088 C 98.2207 -1.90262 -2.01732 0
M  V30 1089 H 101.172 -1.38064 -0.782553 0
M  V30 1090 H 101.193 -1.48925 -3.50145 0
M  V30 1091 H 100.705 -2.99407 -2.46936 0
M  V30 1092 H 98.8057 -0.82092 -3.63444 0
M  V30 1093 H 98.9187 -2.67406 -3.97531 0
M  V30 1094 H 97.2827 -1.34027 -2.16584 0
M  V30 1095 H 98.0657 -2.9574 -1.74334 0
M  V30 1096 N 100.511 1.16574 -1.06058 0
M  V30 1097 C 101.922 1.68662 -0.800632 0
M  V30 1098 C 102.273 1.84184 0.67608 0
M  V30 1099 O 101.398 1.53568 1.52466 0
M  V30 1100 C 101.993 3.06356 -1.44676 0
M  V30 1101 C 100.552 3.55575 -1.23465 0
M  V30 1102 C 99.6988 2.31616 -1.52477 0
M  V30 1103 H 102.65 1.00969 -1.22438 0
M  V30 1104 H 102.671 3.70636 -0.860788 0
M  V30 1105 H 102.183 2.95027 -2.52152 0
M  V30 1106 H 100.284 3.72167 -0.179527 0
M  V30 1107 H 100.397 4.37812 -1.94571 0
M  V30 1108 H 98.7608 2.36512 -0.945209 0
M  V30 1109 H 99.5438 2.22887 -2.61106 0
M  V30 1110 N 101.989 0.842826 1.3317 0
M  V30 1111 C 103.405 0.531128 1.50503 0
M  V30 1112 C 103.605 -0.940734 1.78192 0
M  V30 1113 O 102.661 -1.72436 1.84451 0
M  V30 1114 C 103.974 1.40789 2.65705 0
M  V30 1115 C 105.522 1.40708 2.79589 0
M  V30 1116 C 105.997 2.26878 3.97857 0
M  V30 1117 N 107.488 2.24609 4.05099 0
M  V30 1118 C 108.223 2.88019 4.95815 0
M  V30 1119 N 107.719 3.60496 5.9162 0
M  V30 1120 N 109.512 2.77469 4.88843 0
M  V30 1121 H 101.663 1.79557 1.1346 0
M  V30 1122 H 103.926 0.766267 0.558156 0
M  V30 1123 H 103.632 2.454 2.51936 0
M  V30 1124 H 103.506 1.08677 3.61205 0
M  V30 1125 H 105.893 0.368668 2.92788 0
M  V30 1126 H 105.974 1.76829 1.84838 0
M  V30 1127 H 105.618 3.3078 3.85418 0
M  V30 1128 H 105.548 1.88096 4.91861 0
M  V30 1129 H 108.039 1.71906 3.36536 0
M  V30 1130 H 108.352 4.06076 6.57512 0
M  V30 1131 H 106.697 3.64604 5.91683 0
M  V30 1132 H 109.888 2.20406 4.12963 0
M  V30 1133 H 110.061 3.2717 5.59342 0
M  V30 1134 N 103.467 -1.45747 0.599634 0
M  V30 1135 C 104.399 -2.28628 -0.161879 0
M  V30 1136 C 105.412 -1.39494 -0.839367 0
M  V30 1137 O 106.601 -1.63941 -0.706089 0
M  V30 1138 C 103.701 -3.15014 -1.24976 0
M  V30 1139 C 102.874 -4.32378 -0.660935 0
M  V30 1140 C 101.933 -5.00033 -1.63869 0
M  V30 1141 O 100.959 -5.57085 -1.1681 0
M  V30 1142 N 102.161 -4.98589 -2.97303 0
M  V30 1143 H 104.926 -2.94624 0.549265 0
M  V30 1144 H 102.487 -1.55847 0.438565 0
M  V30 1145 H 104.479 -3.5714 -1.9035 0
M  V30 1146 H 103.049 -2.5098 -1.86354 0
M  V30 1147 H 102.269 -3.9383 0.170688 0
M  V30 1148 H 103.557 -5.08197 -0.247619 0
M  V30 1149 H 102.955 -4.53514 -3.38145 0
M  V30 1150 H 101.512 -5.44603 -3.58121 0
M  V30 1151 N 104.945 -0.338344 -1.53925 0
M  V30 1152 C 105.892 0.520845 -2.24846 0
M  V30 1153 C 106.862 1.09976 -1.24477 0
M  V30 1154 O 108.047 1.13735 -1.53196 0
M  V30 1155 C 105.187 1.6685 -3.02084 0
M  V30 1156 C 104.3 1.11739 -4.17299 0
M  V30 1157 C 103.435 2.23193 -4.82036 0
M  V30 1158 C 102.474 1.65407 -5.89328 0
M  V30 1159 N 101.611 2.70582 -6.47866 0
M  V30 1160 H 106.451 -0.0904881 -2.97863 0
M  V30 1161 H 103.988 -0.0564282 -1.46992 0
M  V30 1162 H 105.946 2.34407 -3.45122 0
M  V30 1163 H 104.576 2.2509 -2.31375 0
M  V30 1164 H 103.628 0.332919 -3.7894 0
M  V30 1165 H 104.94 0.654677 -4.94485 0
M  V30 1166 H 104.094 2.98626 -5.28117 0
M  V30 1167 H 102.833 2.72807 -4.04262 0
M  V30 1168 H 101.838 0.884779 -5.42634 0
M  V30 1169 H 103.063 1.16652 -6.69006 0
M  V30 1170 H 101.009 3.1946 -5.72959 0
M  V30 1171 H 100.926 2.28917 -7.20509 0
M  V30 1172 H 102.194 3.45799 -6.98601 0
M  V30 1173 N 106.423 1.57458 -0.0668435 0
M  V30 1174 C 107.37 2.12439 0.902122 0
M  V30 1175 C 108.34 1.03565 1.2986 0
M  V30 1176 O 109.525 1.312 1.38532 0
M  V30 1177 C 106.665 2.6865 2.16614 0
M  V30 1178 C 105.778 3.91663 1.82274 0
M  V30 1179 C 104.913 4.36134 3.0325 0
M  V30 1180 C 103.952 5.51808 2.64904 0
M  V30 1181 N 103.089 5.9126 3.78624 0
M  V30 1182 H 107.929 2.94934 0.426382 0
M  V30 1183 H 105.466 1.4575 0.198819 0
M  V30 1184 H 107.424 2.99346 2.90599 0
M  V30 1185 H 106.054 1.88928 2.61737 0
M  V30 1186 H 105.106 3.6746 0.983719 0
M  V30 1187 H 106.418 4.75693 1.50059 0
M  V30 1188 H 105.572 4.68465 3.85519 0
M  V30 1189 H 104.311 3.50948 3.38655 0
M  V30 1190 H 103.316 5.19133 1.81055 0
M  V30 1191 H 104.541 6.38722 2.30675 0
M  V30 1192 H 102.487 5.09024 4.138 0
M  V30 1193 H 102.404 6.70018 3.5016 0
M  V30 1194 H 103.672 6.28212 4.61486 0
M  V30 1195 N 107.901 -0.206675 1.56239 0
M  V30 1196 C 108.833 -1.27997 1.9013 0
M  V30 1197 C 109.846 -1.42299 0.790883 0
M  V30 1198 O 111.035 -1.42931 1.06925 0
M  V30 1199 C 108.135 -2.65368 2.10792 0
M  V30 1200 C 107.308 -2.72824 3.41886 0
M  V30 1201 C 106.367 -3.9131 3.51799 0
M  V30 1202 O 105.393 -3.78953 4.24716 0
M  V30 1203 N 106.595 -5.06265 2.84035 0
M  V30 1204 H 109.36 -0.992444 2.82791 0
M  V30 1205 H 106.921 -0.396652 1.56966 0
M  V30 1206 H 108.913 -3.43039 2.14724 0
M  V30 1207 H 107.483 -2.86657 1.24685 0
M  V30 1208 H 106.703 -1.81515 3.49923 0
M  V30 1209 H 107.991 -2.74786 4.28217 0
M  V30 1210 H 107.389 -5.19203 2.246 0
M  V30 1211 H 105.946 -5.81925 2.93609 0
M  V30 1212 N 109.379 -1.50304 -0.473955 0
M  V30 1213 C 110.342 -1.6841 -1.55469 0
M  V30 1214 C 111.342 -0.554905 -1.50922 0
M  V30 1215 O 112.532 -0.821882 -1.53593 0
M  V30 1216 C 109.664 -1.70667 -2.95102 0
M  V30 1217 H 110.857 -2.64828 -1.40733 0
M  V30 1218 H 108.41 -1.39742 -0.700132 0
M  V30 1219 H 109.145 -0.75932 -3.15285 0
M  V30 1220 H 108.93 -2.52698 -2.9981 0
M  V30 1221 H 110.42 -1.8664 -3.73571 0
M  V30 1222 N 110.857 0.726932 -1.39834 0
M  V30 1223 C 112.268 1.30558 -1.3346 0
M  V30 1224 C 112.619 1.962 -0.00273003 0
M  V30 1225 O 111.744 1.96826 0.899371 0
M  V30 1226 C 112.339 2.37404 -2.41713 0
M  V30 1227 C 110.898 2.90921 -2.38835 0
M  V30 1228 C 110.045 1.64578 -2.2318 0
M  V30 1229 H 112.996 0.523862 -1.49804 0
M  V30 1230 H 113.017 3.17984 -2.08966 0
M  V30 1231 H 112.529 1.89599 -3.38635 0
M  V30 1232 H 110.63 3.42985 -1.45575 0
M  V30 1233 H 110.743 3.43487 -3.33997 0
M  V30 1234 H 109.107 1.89219 -1.70494 0
M  V30 1235 H 109.89 1.18814 -3.22084 0
M  V30 1236 N 112.336 1.25143 0.95797 0
M  V30 1237 C 113.283 1.05235 2.05412 0
M  V30 1238 C 114.253 -0.0374561 1.66058 0
M  V30 1239 O 115.438 0.119073 1.90428 0
M  V30 1240 C 112.578 0.673589 3.38462 0
M  V30 1241 C 111.691 1.8379 3.90954 0
M  V30 1242 C 110.826 1.40381 5.12315 0
M  V30 1243 C 109.865 2.53746 5.57027 0
M  V30 1244 N 109.002 2.11136 6.69601 0
M  V30 1245 H 113.842 1.99048 2.21774 0
M  V30 1246 H 111.379 0.991277 1.08683 0
M  V30 1247 H 113.337 0.434964 4.14926 0
M  V30 1248 H 111.967 -0.227554 3.21997 0
M  V30 1249 H 111.019 2.18992 3.11041 0
M  V30 1250 H 112.331 2.68937 4.20089 0
M  V30 1251 H 111.485 1.12464 5.96185 0
M  V30 1252 H 110.224 0.523015 4.84887 0
M  V30 1253 H 109.229 2.82412 4.71724 0
M  V30 1254 H 110.454 3.42398 5.86464 0
M  V30 1255 H 108.4 1.25468 6.4389 0
M  V30 1256 H 108.317 2.89832 6.98236 0
M  V30 1257 H 109.585 1.86385 7.56889 0
M  V30 1258 N 113.814 -1.1601 1.06675 0
M  V30 1259 C 114.746 -2.20115 0.638921 0
M  V30 1260 C 115.759 -1.59916 -0.305057 0
M  V30 1261 O 116.948 -1.78245 -0.0954446 0
M  V30 1262 C 114.048 -3.38798 -0.0830083 0
M  V30 1263 C 113.221 -4.2855 0.875426 0
M  V30 1264 C 112.28 -5.25849 0.192042 0
M  V30 1265 O 111.306 -5.63102 0.830921 0
M  V30 1266 N 112.508 -5.70648 -1.06493 0
M  V30 1267 H 115.273 -2.57439 1.53444 0
M  V30 1268 H 112.834 -1.31057 0.950557 0
M  V30 1269 H 114.826 -4.00936 -0.550685 0
M  V30 1270 H 113.396 -2.99947 -0.880386 0
M  V30 1271 H 112.616 -3.63617 1.52238 0
M  V30 1272 H 113.904 -4.85393 1.52548 0
M  V30 1273 H 113.302 -5.42482 -1.60405 0
M  V30 1274 H 111.859 -6.34859 -1.47641 0
M  V30 1275 N 115.292 -0.849877 -1.32721 0
M  V30 1276 C 116.703 -0.506188 -1.79707 0
M  V30 1277 C 117.054 0.975627 -1.70223 0
M  V30 1278 O 116.179 1.76078 -1.25799 0
M  V30 1279 C 116.774 -0.912044 -3.26293 0
M  V30 1280 C 115.333 -0.620326 -3.71253 0
M  V30 1281 C 114.48 -1.11439 -2.53922 0
M  V30 1282 H 117.431 -1.03754 -1.20087 0
M  V30 1283 H 117.452 -0.226493 -3.79825 0
M  V30 1284 H 116.964 -1.99057 -3.33164 0
M  V30 1285 H 115.065 0.447674 -3.69901 0
M  V30 1286 H 115.178 -1.18327 -4.64258 0
M  V30 1287 H 113.542 -0.534834 -2.49021 0
M  V30 1288 H 114.325 -2.19992 -2.6355 0
M  V30 1289 N 116.77 1.45427 -0.607355 0
M  V30 1290 C 118.181 1.85756 -0.187535 0
M  V30 1291 C 118.532 1.5077 1.25551 0
M  V30 1292 O 117.657 0.93427 1.95193 0
M  V30 1293 C 118.252 3.37154 -0.333572 0
M  V30 1294 C 116.811 3.76387 0.0315542 0
M  V30 1295 C 115.958 2.69377 -0.658117 0
M  V30 1296 H 118.909 1.36231 -0.81405 0
M  V30 1297 H 118.93 3.78014 0.43428 0
M  V30 1298 H 118.442 3.62586 -1.38393 0
M  V30 1299 H 116.543 3.56571 1.0811 0
M  V30 1300 H 116.656 4.77731 -0.361935 0
M  V30 1301 H 115.02 2.5452 -0.0957873 0
M  V30 1302 H 115.803 2.97646 -1.7106 0
M  V30 1303 N 118.248 0.346503 1.53744 0
M  V30 1304 C 119.195 -0.508914 2.25119 0
M  V30 1305 C 120.165 -1.09315 1.25058 0
M  V30 1306 O 121.35 -1.12921 1.53797 0
M  V30 1307 C 118.49 -1.65246 3.02965 0
M  V30 1308 C 117.603 -1.09525 4.17886 0
M  V30 1309 C 116.738 -2.20634 4.83212 0
M  V30 1310 C 115.777 -1.62279 5.90196 0
M  V30 1311 N 114.914 -2.67143 6.49291 0
M  V30 1312 H 119.754 0.106283 2.9781 0
M  V30 1313 H 117.291 0.0642227 1.4696 0
M  V30 1314 H 119.249 -2.32574 3.4636 0
M  V30 1315 H 117.879 -2.2386 2.32565 0
M  V30 1316 H 116.931 -0.312818 3.79112 0
M  V30 1317 H 118.243 -0.628444 4.94825 0
M  V30 1318 H 117.397 -2.95821 5.29693 0
M  V30 1319 H 116.136 -2.70659 4.05703 0
M  V30 1320 H 115.141 -0.855989 5.43096 0
M  V30 1321 H 116.366 -1.13102 6.69615 0
M  V30 1322 H 114.312 -3.16417 5.74645 0
M  V30 1323 H 114.229 -2.25093 7.21713 0
M  V30 1324 H 115.497 -3.4209 7.00425 0
M  V30 1325 N 119.726 -1.57421 0.075193 0
M  V30 1326 C 121.137 -1.81021 -0.456964 0
M  V30 1327 C 121.488 -0.98936 -1.69429 0
M  V30 1328 O 120.613 -0.212865 -2.15351 0
M  V30 1329 C 121.208 -3.28329 -0.83581 0
M  V30 1330 C 119.767 -3.52764 -1.31281 0
M  V30 1331 C 118.914 -2.75676 -0.299648 0
M  V30 1332 H 121.865 -1.55822 0.300856 0
M  V30 1333 H 121.886 -3.40564 -1.69696 0
M  V30 1334 H 121.398 -3.88046 0.0649238 0
M  V30 1335 H 119.499 -2.98355 -2.23193 0
M  V30 1336 H 119.612 -4.61451 -1.28839 0
M  V30 1337 H 117.976 -2.42538 -0.777641 0
M  V30 1338 H 118.759 -3.38132 0.593417 0
M  V30 1339 N 121.204 0.198386 -1.56346 0
M  V30 1340 C 122.151 1.24589 -1.94284 0
M  V30 1341 C 123.121 1.454 -0.802997 0
M  V30 1342 O 124.306 1.58588 -1.06087 0
M  V30 1343 C 121.446 2.58631 -2.28482 0
M  V30 1344 C 120.559 2.45426 -3.55514 0
M  V30 1345 C 119.694 3.7215 -3.79049 0
M  V30 1346 C 118.733 3.53763 -4.99518 0
M  V30 1347 N 117.87 4.72491 -5.19323 0
M  V30 1348 H 122.71 0.915356 -2.83593 0
M  V30 1349 H 120.247 0.440629 -1.40346 0
M  V30 1350 H 122.205 3.3672 -2.46324 0
M  V30 1351 H 120.835 2.89734 -1.42317 0
M  V30 1352 H 119.887 1.58652 -3.45737 0
M  V30 1353 H 121.199 2.27772 -4.43758 0
M  V30 1354 H 120.353 4.58679 -3.97113 0
M  V30 1355 H 119.092 3.92754 -2.89129 0
M  V30 1356 H 118.097 2.65619 -4.8138 0
M  V30 1357 H 119.322 3.34607 -5.90944 0
M  V30 1358 H 117.268 4.93365 -4.3235 0
M  V30 1359 H 117.185 4.5765 -6.01741 0
M  V30 1360 H 118.453 5.6038 -5.41843 0
M  V30 1361 N 122.682 1.50554 0.465978 0
M  V30 1362 C 123.629 1.6979 1.56333 0
M  V30 1363 C 124.599 0.539239 1.57103 0
M  V30 1364 O 125.784 0.770401 1.74555 0
M  V30 1365 C 122.924 1.80273 2.94271 0
M  V30 1366 C 122.037 3.07674 3.0325 0
M  V30 1367 C 121.172 3.08922 4.32135 0
M  V30 1368 C 120.211 4.30755 4.34875 0
M  V30 1369 N 119.348 4.29714 5.55239 0
M  V30 1370 H 124.188 2.63472 1.39235 0
M  V30 1371 H 121.725 1.30602 0.676873 0
M  V30 1372 H 123.683 1.84332 3.74269 0
M  V30 1373 H 122.313 0.900258 3.09992 0
M  V30 1374 H 121.365 3.13062 2.16094 0
M  V30 1375 H 122.677 3.97642 3.01135 0
M  V30 1376 H 121.831 3.11738 5.20485 0
M  V30 1377 H 120.57 2.16792 4.36866 0
M  V30 1378 H 119.575 4.28146 3.44922 0
M  V30 1379 H 120.8 5.24117 4.31831 0
M  V30 1380 H 118.746 3.4044 5.60746 0
M  V30 1381 H 118.663 5.13456 5.54886 0
M  V30 1382 H 119.931 4.36683 6.457 0
M  V30 1383 N 124.16 -0.719506 1.40217 0
M  V30 1384 C 125.571 -1.29848 1.34151 0
M  V30 1385 C 125.922 -1.96196 0.0131349 0
M  V30 1386 O 125.047 -1.973 -0.88892 0
M  V30 1387 C 125.642 -2.36118 2.42968 0
M  V30 1388 C 124.201 -2.8965 2.40374 0
M  V30 1389 C 123.348 -1.63393 2.24049 0
M  V30 1390 H 126.299 -0.51591 1.5008 0
M  V30 1391 H 126.32 -3.16871 2.10649 0
M  V30 1392 H 125.832 -1.878 3.39636 0
M  V30 1393 H 123.933 -3.42208 1.47392 0
M  V30 1394 H 124.046 -3.4171 3.35814 0
M  V30 1395 H 122.41 -1.88312 1.71495 0
M  V30 1396 H 123.193 -1.17104 3.2271 0
M  V30 1397 N 125.638 -1.25649 -0.95132 0
M  V30 1398 C 126.585 -1.06323 -2.04851 0
M  V30 1399 C 127.555 0.0286491 -1.66075 0
M  V30 1400 O 128.74 -0.12917 -1.90362 0
M  V30 1401 C 125.88 -0.691529 -3.381 0
M  V30 1402 C 124.993 -1.85861 -3.89974 0
M  V30 1403 C 124.128 -1.43096 -5.11563 0
M  V30 1404 C 123.167 -2.56696 -5.55674 0
M  V30 1405 N 122.304 -2.14684 -6.68472 0
M  V30 1406 H 127.144 -2.00222 -2.20715 0
M  V30 1407 H 124.681 -0.997027 -1.08156 0
M  V30 1408 H 126.639 -0.456963 -4.1469 0
M  V30 1409 H 125.269 0.210474 -3.22113 0
M  V30 1410 H 124.321 -2.20639 -3.09875 0
M  V30 1411 H 125.633 -2.71161 -4.18657 0
M  V30 1412 H 124.787 -1.15624 -5.9558 0
M  V30 1413 H 123.526 -0.548722 -4.84603 0
M  V30 1414 H 122.531 -2.84909 -4.7022 0
M  V30 1415 H 123.756 -3.45503 -5.8464 0
M  V30 1416 H 121.702 -1.28881 -6.43215 0
M  V30 1417 H 121.619 -2.9353 -6.96689 0
M  V30 1418 H 122.887 -1.90397 -7.5589 0
M  V30 1419 N 127.117 1.15442 -1.07289 0
M  V30 1420 C 128.345 1.90096 -0.81676 0
M  V30 1421 C 128.76 1.7798 0.629966 0
M  V30 1422 O 128.117 1.1313 1.43206 0
M  V30 1423 C 128.168 3.40466 -1.21512 0
M  V30 1424 O 127.889 3.52232 -2.60508 0
M  V30 1425 C 129.39 4.32145 -0.988198 0
M  V30 1426 H 126.61 0.602495 -0.295366 0
M  V30 1427 H 129.154 1.4627 -1.42918 0
M  V30 1428 H 127.309 3.81958 -0.647039 0
M  V30 1429 H 127.723 4.45549 -2.76742 0
M  V30 1430 H 129.197 5.36072 -1.31645 0
M  V30 1431 H 129.674 4.39135 0.0755063 0
M  V30 1432 H 130.28 3.96395 -1.54115 0
M  V30 1433 N 128.595 0.856903 1.32268 0
M  V30 1434 C 129.527 0.260412 2.27716 0
M  V30 1435 C 130.54 -0.569137 1.52528 0
M  V30 1436 O 131.729 -0.39326 1.74114 0
M  V30 1437 C 128.829 -0.650477 3.32599 0
M  V30 1438 C 128.002 0.14372 4.37164 0
M  V30 1439 C 127.061 -0.69328 5.21613 0
M  V30 1440 O 126.087 -0.12599 5.69061 0
M  V30 1441 N 127.289 -2.00761 5.44679 0
M  V30 1442 H 130.054 1.08059 2.79541 0
M  V30 1443 H 127.615 0.717103 1.45152 0
M  V30 1444 H 129.607 -1.21581 3.86005 0
M  V30 1445 H 128.177 -1.37133 2.80915 0
M  V30 1446 H 127.397 0.890486 3.8401 0
M  V30 1447 H 128.685 0.68915 5.04111 0
M  V30 1448 H 128.083 -2.49181 5.07863 0
M  V30 1449 H 126.64 -2.52103 6.01072 0
M  V30 1450 N 130.073 -1.45103 0.615059 0
M  V30 1451 C 130.983 -2.34382 -0.101034 0
M  V30 1452 C 131.999 -1.51681 -0.852585 0
M  V30 1453 O 133.175 -1.8446 -0.808484 0
M  V30 1454 C 130.24 -3.29417 -1.08099 0
M  V30 1455 C 129.301 -4.28025 -0.330577 0
M  V30 1456 C 128.534 -5.1852 -1.26385 0
M  V30 1457 O 128.757 -5.12598 -2.50198 0
M  V30 1458 O 127.691 -5.97122 -0.756866 0
M  V30 1459 H 131.517 -2.97033 0.632855 0
M  V30 1460 H 129.102 -1.4461 0.375293 0
M  V30 1461 H 130.984 -3.87958 -1.6452 0
M  V30 1462 H 129.659 -2.69321 -1.79577 0
M  V30 1463 H 128.566 -3.73078 0.276283 0
M  V30 1464 H 129.899 -4.90997 0.343866 0
M  V30 1465 N 131.551 -0.354651 -1.53558 0
M  V30 1466 C 132.498 0.496968 -2.25386 0
M  V30 1467 C 133.468 1.0865 -1.25636 0
M  V30 1468 O 134.653 1.12104 -1.54394 0
M  V30 1469 C 131.793 1.63637 -3.03837 0
M  V30 1470 C 130.906 1.07307 -4.18461 0
M  V30 1471 C 130.041 2.18068 -4.84376 0
M  V30 1472 C 129.08 1.59147 -5.91049 0
M  V30 1473 N 128.217 2.63695 -6.50699 0
M  V30 1474 H 133.057 -0.122075 -2.9775 0
M  V30 1475 H 130.594 -0.0720154 -1.46924 0
M  V30 1476 H 132.552 2.30734 -3.47589 0
M  V30 1477 H 131.182 2.22623 -2.33749 0
M  V30 1478 H 130.234 0.292708 -3.79272 0
M  V30 1479 H 131.546 0.602193 -4.95152 0
M  V30 1480 H 130.7 2.93007 -5.31255 0
M  V30 1481 H 129.439 2.68504 -4.07133 0
M  V30 1482 H 128.444 0.827175 -5.43542 0
M  V30 1483 H 129.669 1.09549 -6.70206 0
M  V30 1484 H 127.615 3.13365 -5.76315 0
M  V30 1485 H 127.532 2.21263 -7.22896 0
M  V30 1486 H 128.8 3.3837 -7.02229 0
M  V30 1487 N 133.029 1.57378 -0.0835403 0
M  V30 1488 C 133.976 2.13384 0.879539 0
M  V30 1489 C 134.946 1.04936 1.28754 0
M  V30 1490 O 136.131 1.32662 1.37133 0
M  V30 1491 C 133.271 2.70932 2.13752 0
M  V30 1492 C 132.384 3.93575 1.7811 0
M  V30 1493 C 131.519 4.39326 2.98607 0
M  V30 1494 C 130.558 5.54587 2.59037 0
M  V30 1495 N 129.695 5.95243 3.72331 0
M  V30 1496 H 134.535 2.9537 0.395076 0
M  V30 1497 H 132.072 1.45953 0.183349 0
M  V30 1498 H 134.03 3.02411 2.87408 0
M  V30 1499 H 132.66 1.91693 2.59718 0
M  V30 1500 H 131.712 3.68483 0.94469 0
M  V30 1501 H 133.024 4.77258 1.45005 0
M  V30 1502 H 132.178 4.72528 3.80529 0
M  V30 1503 H 130.917 3.5452 3.34913 0
M  V30 1504 H 129.922 5.21024 1.75539 0
M  V30 1505 H 131.147 6.41133 2.23887 0
M  V30 1506 H 129.093 5.13385 4.08378 0
M  V30 1507 H 129.01 6.73694 3.43034 0
M  V30 1508 H 130.278 6.33072 4.54797 0
M  V30 1509 N 134.507 -0.190092 1.56449 0
M  V30 1510 C 135.454 -1.23557 1.94942 0
M  V30 1511 C 136.424 -1.44972 0.810696 0
M  V30 1512 O 137.609 -1.58023 1.06927 0
M  V30 1513 C 134.749 -2.57416 2.2985 0
M  V30 1514 C 133.862 -2.43537 3.5681 0
M  V30 1515 C 132.997 -3.70134 3.81017 0
M  V30 1516 C 132.036 -3.51109 5.01387 0
M  V30 1517 N 131.173 -4.6973 5.21822 0
M  V30 1518 H 136.013 -0.900304 2.84075 0
M  V30 1519 H 133.55 -0.43318 1.40577 0
M  V30 1520 H 135.508 -3.35409 2.48106 0
M  V30 1521 H 134.138 -2.88975 1.43852 0
M  V30 1522 H 133.19 -1.56816 3.46573 0
M  V30 1523 H 134.502 -2.25415 4.4496 0
M  V30 1524 H 133.656 -4.56566 3.9954 0
M  V30 1525 H 132.395 -3.91215 2.91207 0
M  V30 1526 H 131.4 -2.63063 4.82782 0
M  V30 1527 H 132.625 -3.31468 5.9271 0
M  V30 1528 H 130.571 -4.91065 4.34961 0
M  V30 1529 H 130.488 -4.54452 6.0416 0
M  V30 1530 H 131.756 -5.57499 5.44808 0
M  V30 1531 N 135.985 -1.50799 -0.457987 0
M  V30 1532 C 136.932 -1.70617 -1.5543 0
M  V30 1533 C 137.902 -0.547562 -1.56815 0
M  V30 1534 O 139.087 -0.779647 -1.74144 0
M  V30 1535 C 136.227 -1.81831 -2.93311 0
M  V30 1536 C 135.34 -3.09278 -3.01615 0
M  V30 1537 C 134.475 -3.11209 -4.30491 0
M  V30 1538 C 133.514 -4.33055 -4.32585 0
M  V30 1539 N 132.651 -4.32652 -5.52952 0
M  V30 1540 H 137.491 -2.64207 -1.37836 0
M  V30 1541 H 135.028 -1.30959 -0.669937 0
M  V30 1542 H 136.986 -1.86314 -3.73287 0
M  V30 1543 H 135.616 -0.916685 -3.0951 0
M  V30 1544 H 134.668 -3.14203 -2.1443 0
M  V30 1545 H 135.98 -3.99233 -2.99022 0
M  V30 1546 H 135.134 -3.14494 -5.18824 0
M  V30 1547 H 133.873 -2.19106 -4.35711 0
M  V30 1548 H 132.878 -4.29969 -3.42647 0
M  V30 1549 H 134.103 -5.264 -4.29046 0
M  V30 1550 H 132.049 -3.43409 -5.58933 0
M  V30 1551 H 131.966 -5.16392 -5.52155 0
M  V30 1552 H 133.234 -4.40101 -6.43375 0
M  V30 1553 N 137.463 0.71206 -1.40597 0
M  V30 1554 C 138.395 1.83704 -1.37061 0
M  V30 1555 C 139.408 1.60453 -0.275426 0
M  V30 1556 O 140.597 1.70262 -0.53602 0
M  V30 1557 C 137.697 3.20172 -1.11099 0
M  V30 1558 C 136.87 3.7059 -2.3234 0
M  V30 1559 C 135.929 4.85681 -2.02485 0
M  V30 1560 O 134.955 4.9815 -2.75382 0
M  V30 1561 N 136.157 5.71735 -1.00497 0
M  V30 1562 H 138.922 1.87235 -2.34016 0
M  V30 1563 H 136.483 0.893739 -1.34996 0
M  V30 1564 H 138.475 3.94768 -0.891064 0
M  V30 1565 H 137.045 3.11767 -0.227989 0
M  V30 1566 H 136.265 2.87085 -2.7014 0
M  V30 1567 H 137.553 4.01011 -3.13157 0
M  V30 1568 H 136.951 5.64275 -0.401298 0
M  V30 1569 H 135.508 6.463 -0.844942 0
M  V30 1570 N 138.941 1.26152 0.944643 0
M  V30 1571 C 140.352 1.10454 1.50522 0
M  V30 1572 C 140.703 -0.31635 1.93633 0
M  V30 1573 O 139.828 -1.20746 1.79581 0
M  V30 1574 C 140.423 1.99891 2.73549 0
M  V30 1575 C 138.982 1.88348 3.25886 0
M  V30 1576 C 138.129 1.93447 1.9868 0
M  V30 1577 H 141.08 1.39292 0.760489 0
M  V30 1578 H 141.101 1.54477 3.47732 0
M  V30 1579 H 140.613 3.03297 2.42141 0
M  V30 1580 H 138.714 0.878636 3.62092 0
M  V30 1581 H 138.827 2.73696 3.93227 0
M  V30 1582 H 137.191 1.37456 2.14425 0
M  V30 1583 H 137.974 2.98476 1.69607 0
M  V30 1584 N 140.419 -1.14872 1.07899 0
M  V30 1585 C 141.382 -2.17986 0.708161 0
M  V30 1586 C 142.382 -1.58775 -0.25442 0
M  V30 1587 O 143.572 -1.74166 -0.034645 0
M  V30 1588 C 140.704 -3.40871 0.0446929 0
M  V30 1589 H 141.897 -2.52306 1.62116 0
M  V30 1590 H 139.45 -1.2943 0.876218 0
M  V30 1591 H 140.185 -3.12124 -0.880281 0
M  V30 1592 H 139.97 -3.8511 0.737091 0
M  V30 1593 H 141.46 -4.17121 -0.19991 0
M  V30 1594 N 141.898 -0.863906 -1.31812 0
M  V30 1595 C 142.845 -0.313303 -2.28664 0
M  V30 1596 C 143.815 0.584868 -1.55462 0
M  V30 1597 O 145 0.517805 -1.83639 0
M  V30 1598 C 142.14 0.48441 -3.41683 0
M  V30 1599 C 141.253 -0.440594 -4.29747 0
M  V30 1600 C 140.388 0.370652 -5.29905 0
M  V30 1601 C 139.427 -0.551164 -6.09613 0
M  V30 1602 N 138.564 0.223462 -7.01744 0
M  V30 1603 H 143.404 -1.14444 -2.75148 0
M  V30 1604 H 140.941 -0.575769 -1.35364 0
M  V30 1605 H 142.899 0.962627 -4.05943 0
M  V30 1606 H 141.529 1.28029 -2.96325 0
M  V30 1607 H 140.581 -1.03724 -3.65986 0
M  V30 1608 H 141.893 -1.14767 -4.85417 0
M  V30 1609 H 141.047 0.911638 -5.99812 0
M  V30 1610 H 139.786 1.11105 -4.74876 0
M  V30 1611 H 138.791 -1.10396 -5.38603 0
M  V30 1612 H 140.016 -1.29032 -6.66729 0
M  V30 1613 H 137.962 0.946787 -6.49132 0
M  V30 1614 H 137.879 -0.424399 -7.54808 0
M  V30 1615 H 139.147 0.745876 -7.75923 0
M  V30 1616 N 143.376 1.44774 -0.622745 0
M  V30 1617 C 144.787 1.85546 -0.207226 0
M  V30 1618 C 145.138 1.52093 1.23944 0
M  V30 1619 O 144.263 0.95492 1.94191 0
M  V30 1620 C 144.858 3.36781 -0.369313 0
M  V30 1621 C 143.417 3.76399 -0.00836847 0
M  V30 1622 C 142.564 2.68664 -0.686651 0
M  V30 1623 H 145.515 1.3536 -0.828454 0
M  V30 1624 H 145.536 3.78453 0.394162 0
M  V30 1625 H 145.048 3.61098 -1.42231 0
M  V30 1626 H 143.149 3.57698 1.04322 0
M  V30 1627 H 143.262 4.7732 -0.412584 0
M  V30 1628 H 141.626 2.54404 -0.122777 0
M  V30 1629 H 142.409 2.95815 -1.74208 0
M  V30 1630 N 144.854 0.36279 1.53368 0
M  V30 1631 C 145.801 -0.485008 2.25646 0
M  V30 1632 C 146.771 -1.07982 1.2621 0
M  V30 1633 O 147.956 -1.11284 1.54986 0
M  V30 1634 C 145.096 -1.62023 3.04701 0
M  V30 1635 C 144.209 -1.05086 4.19024 0
M  V30 1636 C 143.344 -2.15496 4.85525 0
M  V30 1637 C 142.383 -1.5601 5.91884 0
M  V30 1638 N 141.52 -2.60241 6.52088 0
M  V30 1639 H 146.36 0.137864 2.97681 0
M  V30 1640 H 143.897 0.0798061 1.46883 0
M  V30 1641 H 145.855 -2.28887 3.48807 0
M  V30 1642 H 144.485 -2.2138 2.34927 0
M  V30 1643 H 143.537 -0.27259 3.79422 0
M  V30 1644 H 144.849 -0.575926 4.95464 0
M  V30 1645 H 144.003 -2.90186 5.32801 0
M  V30 1646 H 142.742 -2.66341 4.08551 0
M  V30 1647 H 141.747 -0.798338 5.43973 0
M  V30 1648 H 142.972 -1.05994 6.70777 0
M  V30 1649 H 140.918 -3.10304 5.77968 0
M  V30 1650 H 140.835 -2.17426 7.24059 0
M  V30 1651 H 142.103 -3.34641 7.04014 0
M  V30 1652 N 146.332 -1.57332 0.0918853 0
M  V30 1653 C 147.743 -1.81496 -0.437739 0
M  V30 1654 C 148.094 -1.00727 -1.6837 0
M  V30 1655 O 147.219 -0.235694 -2.15113 0
M  V30 1656 C 147.814 -3.29197 -0.800939 0
M  V30 1657 C 146.373 -3.54136 -1.27532 0
M  V30 1658 C 145.52 -2.75979 -0.270392 0
M  V30 1659 H 148.471 -1.55494 0.317366 0
M  V30 1660 H 148.492 -3.42344 -1.66074 0
M  V30 1661 H 148.004 -3.87955 0.106078 0
M  V30 1662 H 146.105 -3.00705 -2.20016 0
M  V30 1663 H 146.218 -4.62792 -1.23938 0
M  V30 1664 H 144.582 -2.43349 -0.751872 0
M  V30 1665 H 145.365 -3.37484 0.629248 0
M  V30 1666 N 147.81 0.181792 -1.56548 0
M  V30 1667 C 149.058 0.89832 -1.81038 0
M  V30 1668 C 149.379 1.83232 -0.667164 0
M  V30 1669 O 148.649 1.93372 0.313673 0
M  V30 1670 H 147.229 0.33471 -0.667816 0
M  V30 1671 H 149.891 0.184116 -1.94028 0
M  V30 1672 H 148.987 1.4815 -2.74696 0
M  V30 1673 N 149.288 1.51039 0.449983 0
M  V30 1674 C 150.235 1.71439 1.54523 0
M  V30 1675 C 151.205 0.555871 1.56522 0
M  V30 1676 O 152.39 0.788871 1.73728 0
M  V30 1677 C 149.53 1.83384 2.92343 0
M  V30 1678 C 148.643 3.10873 2.9997 0
M  V30 1679 C 147.778 3.13488 4.28834 0
M  V30 1680 C 146.817 4.35343 4.30282 0
M  V30 1681 N 145.954 4.35579 5.5065 0
M  V30 1682 H 150.794 2.64934 1.36433 0
M  V30 1683 H 148.331 1.31312 0.662982 0
M  V30 1684 H 150.289 1.88291 3.72293 0
M  V30 1685 H 148.919 0.933086 3.0902 0
M  V30 1686 H 147.971 3.15336 2.12761 0
M  V30 1687 H 149.283 4.00814 2.96901 0
M  V30 1688 H 148.437 3.17241 5.17149 0
M  V30 1689 H 147.176 2.21414 4.34543 0
M  V30 1690 H 146.181 4.3178 3.40362 0
M  V30 1691 H 147.406 5.28668 4.26248 0
M  V30 1692 H 145.352 3.46369 5.57104 0
M  V30 1693 H 145.269 5.19313 5.49409 0
M  V30 1694 H 146.537 4.43507 6.41032 0
M  V30 1695 N 150.766 -0.704594 1.40972 0
M  V30 1696 C 152.182 -1.01406 1.23244 0
M  V30 1697 C 152.382 -2.01169 0.115399 0
M  V30 1698 O 151.438 -2.47021 -0.523147 0
M  V30 1699 C 152.751 -1.54728 2.57836 0
M  V30 1700 C 154.299 -1.66658 2.64942 0
M  V30 1701 C 154.774 -2.23383 3.9983 0
M  V30 1702 N 156.265 -2.30756 4.01629 0
M  V30 1703 C 157 -2.75655 5.02794 0
M  V30 1704 N 156.496 -3.20225 6.14352 0
M  V30 1705 N 158.289 -2.75138 4.90159 0
M  V30 1706 H 150.44 -0.0435285 2.12355 0
M  V30 1707 H 152.703 -0.0818951 0.944456 0
M  V30 1708 H 152.409 -0.888832 3.40283 0
M  V30 1709 H 152.283 -2.53084 2.79693 0
M  V30 1710 H 154.67 -2.31617 1.8286 0
M  V30 1711 H 154.751 -0.668717 2.46904 0
M  V30 1712 H 154.395 -1.59043 4.82357 0
M  V30 1713 H 154.325 -3.23904 4.15203 0
M  V30 1714 H 156.816 -1.99291 3.21079 0
M  V30 1715 H 157.129 -3.53084 6.87424 0
M  V30 1716 H 155.474 -3.18156 6.17901 0
M  V30 1717 H 158.665 -2.39661 4.02095 0
M  V30 1718 H 158.838 -3.09812 5.6914 0
M  V30 1719 N 152.244 -1.26651 -0.937939 0
M  V30 1720 C 153.176 -1.04283 -2.04102 0
M  V30 1721 C 154.189 -0.00221014 -1.628 0
M  V30 1722 O 155.378 -0.242645 -1.76843 0
M  V30 1723 C 152.478 -0.557846 -3.34277 0
M  V30 1724 C 151.651 -1.66843 -4.04329 0
M  V30 1725 C 150.71 -1.18095 -5.12777 0
M  V30 1726 O 149.736 -1.87865 -5.37304 0
M  V30 1727 N 150.938 -0.0311006 -5.80492 0
M  V30 1728 H 153.703 -1.9927 -2.23856 0
M  V30 1729 H 151.264 -1.1808 -1.10764 0
M  V30 1730 H 153.256 -0.215836 -4.04124 0
M  V30 1731 H 151.826 0.298523 -3.11171 0
M  V30 1732 H 151.046 -2.18123 -3.28353 0
M  V30 1733 H 152.334 -2.41408 -4.47883 0
M  V30 1734 H 151.732 0.551486 -5.63005 0
M  V30 1735 H 150.289 0.251809 -6.51313 0
M  V30 1736 N 153.722 1.14298 -1.08507 0
M  V30 1737 C 155.138 1.37347 -0.812901 0
M  V30 1738 C 155.338 1.93052 0.577325 0
M  V30 1739 O 154.394 2.14389 1.33393 0
M  V30 1740 C 155.707 2.33359 -1.89642 0
M  V30 1741 C 157.255 2.46996 -1.92255 0
M  V30 1742 C 157.73 3.46309 -2.99724 0
M  V30 1743 N 159.221 3.53853 -2.98902 0
M  V30 1744 C 159.956 4.3055 -3.787 0
M  V30 1745 N 159.452 5.10482 -4.6838 0
M  V30 1746 N 161.245 4.25757 -3.66998 0
M  V30 1747 H 153.396 0.764867 -1.9815 0
M  V30 1748 H 155.659 0.398966 -0.859959 0
M  V30 1749 H 155.365 1.99565 -2.89597 0
M  V30 1750 H 155.239 3.33274 -1.76659 0
M  V30 1751 H 157.626 2.80081 -0.929445 0
M  V30 1752 H 157.707 1.47039 -2.09316 0
M  V30 1753 H 157.351 3.13957 -3.99241 0
M  V30 1754 H 157.281 4.46049 -2.79907 0
M  V30 1755 H 159.772 2.96812 -2.33904 0
M  V30 1756 H 160.085 5.66284 -5.25873 0
M  V30 1757 H 158.43 5.09747 -4.72422 0
M  V30 1758 H 161.621 3.62383 -2.96304 0
M  V30 1759 H 161.794 4.85279 -4.29427 0
M  V30 1760 N 155.201 0.870884 1.31352 0
M  V30 1761 C 156.134 0.271983 2.26573 0
M  V30 1762 C 157.112 -0.599385 1.51149 0
M  V30 1763 O 158.296 -0.552605 1.80218 0
M  V30 1764 C 155.423 -0.614801 3.33073 0
M  V30 1765 C 154.469 0.185342 4.26097 0
M  V30 1766 S 155.302 1.56444 5.12138 0
M  V30 1767 C 156.458 0.683807 6.22153 0
M  V30 1768 H 156.691 1.07916 2.77023 0
M  V30 1769 H 154.224 0.669459 1.39132 0
M  V30 1770 H 156.182 -1.12074 3.94905 0
M  V30 1771 H 154.843 -1.39593 2.81376 0
M  V30 1772 H 154.036 -0.490771 5.01605 0
M  V30 1773 H 153.638 0.623415 3.68768 0
M  V30 1774 H 155.93 -0.10521 6.77418 0
M  V30 1775 H 156.873 1.41004 6.93919 0
M  V30 1776 H 157.281 0.250952 5.63942 0
M  V30 1777 N 156.679 -1.44442 0.630414 0
M  V30 1778 C 157.642 -2.29107 -0.0652523 0
M  V30 1779 C 158.642 -1.41002 -0.772995 0
M  V30 1780 O 159.832 -1.62881 -0.617692 0
M  V30 1781 C 156.964 -3.22564 -1.10296 0
M  V30 1782 H 158.157 -2.92103 0.679401 0
M  V30 1783 H 155.71 -1.51343 0.390517 0
M  V30 1784 H 156.445 -2.64416 -1.87762 0
M  V30 1785 H 156.23 -3.87491 -0.59941 0
M  V30 1786 H 157.72 -3.86167 -1.5895 0
M  V30 1787 N 158.157 -0.370918 -1.53173 0
M  V30 1788 C 159.087 0.464847 -2.28826 0
M  V30 1789 C 160.068 1.07936 -1.31468 0
M  V30 1790 O 161.253 1.0956 -1.60344 0
M  V30 1791 C 158.383 1.60196 -3.08147 0
M  V30 1792 C 157.337 1.11443 -4.13237 0
M  V30 1793 C 156.663 2.3422 -4.80672 0
M  V30 1794 C 157.963 0.195384 -5.21934 0
M  V30 1795 H 159.657 -0.166329 -2.98938 0
M  V30 1796 H 157.203 -0.0814359 -1.4377 0
M  V30 1797 H 159.156 2.19332 -3.59822 0
M  V30 1798 H 157.88 2.26045 -2.35735 0
M  V30 1799 H 156.539 0.545727 -3.62515 0
M  V30 1800 H 156.187 2.98537 -4.04827 0
M  V30 1801 H 155.887 2.02269 -5.51689 0
M  V30 1802 H 157.411 2.94032 -5.35143 0
M  V30 1803 H 158.825 0.694375 -5.69079 0
M  V30 1804 H 157.222 -0.0335027 -6.00091 0
M  V30 1805 H 158.292 -0.760961 -4.78892 0
M  V30 1806 N 159.635 1.57281 -0.100228 0
M  V30 1807 C 160.582 2.14305 0.856858 0
M  V30 1808 C 161.552 1.06296 1.27634 0
M  V30 1809 O 162.737 1.34109 1.35718 0
M  V30 1810 C 159.877 2.73184 2.10866 0
M  V30 1811 C 158.99 3.95442 1.73925 0
M  V30 1812 C 158.125 4.42468 2.93931 0
M  V30 1813 C 157.164 5.57303 2.5314 0
M  V30 1814 N 156.301 5.99158 3.65997 0
M  V30 1815 H 161.141 2.95772 0.363726 0
M  V30 1816 H 158.678 1.46139 0.167858 0
M  V30 1817 H 160.636 3.05442 2.84185 0
M  V30 1818 H 159.266 1.94437 2.57671 0
M  V30 1819 H 158.318 3.69464 0.905554 0
M  V30 1820 H 159.63 4.78769 1.39935 0
M  V30 1821 H 158.784 4.76537 3.75496 0
M  V30 1822 H 157.523 3.58052 3.31134 0
M  V30 1823 H 156.528 5.22857 1.70003 0
M  V30 1824 H 157.753 6.43471 2.17075 0
M  V30 1825 H 155.699 5.17687 4.02909 0
M  V30 1826 H 155.616 6.77295 3.35869 0
M  V30 1827 H 156.884 6.3786 4.48057 0
M  V30 1828 N 161.113 -0.173488 1.56642 0
M  V30 1829 C 162.043 -1.2171 1.99271 0
M  V30 1830 C 163.024 -1.46289 0.867959 0
M  V30 1831 O 164.209 -1.5766 1.13388 0
M  V30 1832 C 161.339 -2.55651 2.35074 0
M  V30 1833 C 160.293 -2.45645 3.50489 0
M  V30 1834 C 159.619 -3.84056 3.72028 0
M  V30 1835 C 160.919 -1.96302 4.84007 0
M  V30 1836 H 162.613 -0.86275 2.867 0
M  V30 1837 H 160.159 -0.413571 1.37933 0
M  V30 1838 H 162.112 -3.2886 2.63494 0
M  V30 1839 H 160.836 -2.92869 1.44552 0
M  V30 1840 H 159.495 -1.7489 3.22194 0
M  V30 1841 H 159.143 -4.18664 2.788 0
M  V30 1842 H 158.843 -3.7823 4.49684 0
M  V30 1843 H 160.367 -4.58854 4.02846 0
M  V30 1844 H 161.781 -2.59284 5.11317 0
M  V30 1845 H 160.178 -2.01429 5.65284 0
M  V30 1846 H 161.248 -0.917226 4.76146 0
M  V30 1847 N 162.591 -1.51276 -0.441967 0
M  V30 1848 C 163.501 -1.75092 -1.56141 0
M  V30 1849 C 164.517 -0.634963 -1.62001 0
M  V30 1850 O 165.693 -0.916686 -1.79329 0
M  V30 1851 C 162.758 -1.86666 -2.92158 0
M  V30 1852 C 161.819 -3.10506 -2.96453 0
M  V30 1853 C 161.052 -3.21519 -4.25982 0
M  V30 1854 O 161.275 -2.38586 -5.18105 0
M  V30 1855 O 160.209 -4.14465 -4.36466 0
M  V30 1856 H 164.035 -2.70044 -1.38961 0
M  V30 1857 H 161.62 -1.35722 -0.624499 0
M  V30 1858 H 163.502 -1.96292 -3.72891 0
M  V30 1859 H 162.177 -0.949014 -3.09476 0
M  V30 1860 H 161.084 -3.06363 -2.14692 0
M  V30 1861 H 162.417 -4.01945 -2.84079 0
M  V30 1862 N 164.069 0.697108 -1.41344 0
M  V30 1863 C 165.032 1.79281 -1.42797 0
M  V30 1864 C 166.032 1.57607 -0.318837 0
M  V30 1865 O 167.222 1.64309 -0.578642 0
M  V30 1866 C 164.354 3.17632 -1.23785 0
M  V30 1867 H 165.547 1.79385 -2.40335 0
M  V30 1868 H 163.1 0.904582 -1.27464 0
M  V30 1869 H 163.835 3.23167 -0.270814 0
M  V30 1870 H 163.62 3.34765 -2.04144 0
M  V30 1871 H 165.11 3.97617 -1.27633 0
M  V30 1872 N 165.547 1.27147 0.931209 0
M  V30 1873 C 166.824 1.0401 1.65654 0
M  V30 1874 C 167.204 -0.426297 2.06751 0
M  V30 1875 O 166.552 -1.40879 1.79904 0
M  V30 1876 C 166.762 1.99834 2.86125 0
M  V30 1877 C 168.11 2.29007 3.57549 0
M  V30 1878 O 169.134 1.97779 2.96246 0
M  V30 1879 O 167.993 2.82222 4.67989 0
M  V30 1880 H 165.087 0.396239 0.725895 0
M  V30 1881 H 167.633 1.38397 0.982056 0
M  V30 1882 H 166.405 2.98744 2.52721 0
M  V30 1883 H 166.028 1.65987 3.61295 0
M  V30 1884 N 167.025 -1.13721 1.09112 0
M  V30 1885 C 168.441 -1.36914 0.820174 0
M  V30 1886 C 168.641 -1.93356 -0.567079 0
M  V30 1887 O 167.697 -2.15093 -1.32255 0
M  V30 1888 C 169.01 -2.3235 1.90877 0
M  V30 1889 C 170.558 -2.45973 1.93562 0
M  V30 1890 C 171.033 -3.44714 3.01556 0
M  V30 1891 N 172.524 -3.52263 3.00775 0
M  V30 1892 C 173.259 -4.28536 3.80978 0
M  V30 1893 N 172.755 -5.07991 4.71081 0
M  V30 1894 N 174.548 -4.23804 3.69251 0
M  V30 1895 H 166.699 -0.754348 1.98553 0
M  V30 1896 H 168.962 -0.3944 0.862063 0
M  V30 1897 H 168.668 -1.98027 2.90651 0
M  V30 1898 H 168.542 -3.32332 1.78424 0
M  V30 1899 H 170.929 -2.79584 0.944286 0
M  V30 1900 H 171.01 -1.45926 2.10093 0
M  V30 1901 H 170.654 -3.11835 4.00901 0
M  V30 1902 H 170.584 -4.44558 2.82269 0
M  V30 1903 H 173.075 -2.95567 2.35475 0
M  V30 1904 H 173.388 -5.63487 5.28869 0
M  V30 1905 H 171.733 -5.07235 4.75119 0
M  V30 1906 H 174.924 -3.60806 2.98222 0
M  V30 1907 H 175.097 -4.82995 4.31995 0
M  V30 1908 N 168.503 -0.877838 -1.30888 0
M  V30 1909 C 169.433 -0.35534 -2.3078 0
M  V30 1910 C 170.414 0.557994 -1.60687 0
M  V30 1911 O 171.599 0.473355 -1.88343 0
M  V30 1912 C 168.729 0.437221 -3.44537 0
M  V30 1913 C 167.683 -0.383715 -4.26276 0
M  V30 1914 C 167.009 0.535014 -5.32017 0
M  V30 1915 C 168.309 -1.62201 -4.96476 0
M  V30 1916 H 170.003 -1.19007 -2.74732 0
M  V30 1917 H 167.549 -0.573698 -1.32078 0
M  V30 1918 H 169.502 0.813334 -4.13477 0
M  V30 1919 H 168.226 1.30553 -2.99372 0
M  V30 1920 H 166.885 -0.741874 -3.59015 0
M  V30 1921 H 166.533 1.40083 -4.831 0
M  V30 1922 H 166.233 -0.0104211 -5.87599 0
M  V30 1923 H 167.757 0.907799 -6.03814 0
M  V30 1924 H 169.171 -1.31689 -5.5797 0
M  V30 1925 H 167.568 -2.10711 -5.61891 0
M  V30 1926 H 168.638 -2.37044 -4.23011 0
M  V30 1927 N 169.982 1.44106 -0.638065 0
M  V30 1928 C 171.229 2.01978 -0.14533 0
M  V30 1929 C 171.557 1.50234 1.23532 0
M  V30 1930 O 170.812 0.679548 1.83523 0
M  V30 1931 C 171.111 3.5729 -0.0887327 0
M  V30 1932 C 170.777 4.28317 -1.40909 0
M  V30 1933 C 169.439 4.47437 -1.77069 0
M  V30 1934 C 171.791 4.6867 -2.28031 0
M  V30 1935 C 169.119 5.04171 -3.00047 0
M  V30 1936 C 171.471 5.26766 -3.50286 0
M  V30 1937 C 170.135 5.44104 -3.86661 0
M  V30 1938 H 169.405 0.739089 -0.0531801 0
M  V30 1939 H 172.052 1.72781 -0.825761 0
M  V30 1940 H 170.357 3.8594 0.675095 0
M  V30 1941 H 172.054 3.99807 0.309145 0
M  V30 1942 H 168.644 4.1377 -1.1177 0
M  V30 1943 H 172.828 4.53604 -2.01388 0
M  V30 1944 H 168.084 5.15782 -3.28298 0
M  V30 1945 H 172.258 5.56983 -4.18023 0
M  V30 1946 H 169.885 5.87832 -4.82034 0
M  V30 1947 N 171.46 0.379036 1.52974 0
M  V30 1948 C 172.737 -0.263479 1.93817 0
M  V30 1949 C 173.117 -1.65244 1.31368 0
M  V30 1950 O 172.465 -2.23448 0.477856 0
M  V30 1951 C 172.675 -0.300166 3.47707 0
M  V30 1952 C 174.023 -0.534061 4.21228 0
M  V30 1953 O 175.047 -0.38081 3.54159 0
M  V30 1954 O 173.906 -0.833501 5.40106 0
M  V30 1955 H 171 -0.161149 0.811147 0
M  V30 1956 H 173.546 0.432798 1.64088 0
M  V30 1957 H 172.318 0.673138 3.85467 0
M  V30 1958 H 171.941 -1.04179 3.83709 0
M  V30 1959 N 172.938 -1.57226 0.108567 0
M  V30 1960 C 174.184 -1.95121 -0.552761 0
M  V30 1961 C 174.517 -0.991345 -1.66991 0
M  V30 1962 O 173.792 -0.0267211 -1.94482 0
M  V30 1963 C 174.075 -3.43039 -1.09528 0
M  V30 1964 C 173.928 -4.49797 0.0177332 0
M  V30 1965 C 175.247 -3.92567 -1.98945 0
M  V30 1966 H 172.366 -0.709496 -0.199461 0
M  V30 1967 H 175.008 -1.89126 0.182011 0
M  V30 1968 H 173.158 -3.48279 -1.72146 0
M  V30 1969 H 174.83 -4.56661 0.652584 0
M  V30 1970 H 173.073 -4.284 0.682309 0
M  V30 1971 H 173.744 -5.50528 -0.402919 0
M  V30 1972 H 176.22 -3.89565 -1.46214 0
M  V30 1973 H 175.096 -4.96605 -2.33827 0
M  V30 1974 H 175.357 -3.32648 -2.91201 0
M  V30 1975 N 174.416 0.165178 -1.56732 0
M  V30 1976 C 175.363 1.2044 -1.96883 0
M  V30 1977 C 176.333 1.43664 -0.833657 0
M  V30 1978 O 177.518 1.56302 -1.09427 0
M  V30 1979 C 174.658 2.53727 -2.33916 0
M  V30 1980 C 173.771 2.3783 -3.6064 0
M  V30 1981 C 172.906 3.64026 -3.86857 0
M  V30 1982 C 171.945 3.43088 -5.06909 0
M  V30 1983 N 171.082 4.61369 -5.29229 0
M  V30 1984 H 175.922 0.854996 -2.85471 0
M  V30 1985 H 173.459 0.41076 -1.41249 0
M  V30 1986 H 175.417 3.31419 -2.53411 0
M  V30 1987 H 174.047 2.8665 -1.48431 0
M  V30 1988 H 173.099 1.51282 -3.49024 0
M  V30 1989 H 174.411 2.18308 -4.4849 0
M  V30 1990 H 173.565 4.50152 -4.06753 0
M  V30 1991 H 172.304 3.86533 -2.97394 0
M  V30 1992 H 171.309 2.55349 -4.86906 0
M  V30 1993 H 172.534 3.21997 -5.97909 0
M  V30 1994 H 170.48 4.84084 -4.42718 0
M  V30 1995 H 170.397 4.44783 -6.11313 0
M  V30 1996 H 171.665 5.48761 -5.53608 0
M  V30 1997 N 175.894 1.51508 0.433938 0
M  V30 1998 C 176.842 1.73646 1.54757 0
M  V30 1999 C 177.836 0.602854 1.5831 0
M  V30 2000 O 179.042 0.784318 1.62014 0
M  V30 2001 H 175.417 0.548718 0.51421 0
M  V30 2002 H 177.388 2.66991 1.33261 0
M  V30 2003 C 176.137 1.88172 2.92381 0
M  V30 2004 H 175.46 2.74808 2.90381 0
M  V30 2005 H 176.9 2.07672 3.6966 0
M  V30 2006 C 175.359 0.64239 3.30719 0
M  V30 2007 O 175.889 -0.201362 4.01195 0
M  V30 2008 N 174.095 0.485489 2.86516 0
M  V30 2009 H 173.642 1.17318 2.29334 0
M  V30 2010 H 173.6 -0.342482 3.12529 0
M  V30 2011 N 177.372 -0.689602 1.41712 0
M  V30 2012 C 178.282 -1.83314 1.46401 0
M  V30 2013 C 179.298 -1.7036 0.35405 0
M  V30 2014 O 180.474 -1.92171 0.602692 0
M  V30 2015 C 177.539 -3.19344 1.34982 0
M  V30 2016 C 176.6 -3.44363 2.56344 0
M  V30 2017 C 175.833 -4.73904 2.45461 0
M  V30 2018 O 176.056 -5.508 1.48241 0
M  V30 2019 O 174.99 -4.99839 3.35328 0
M  V30 2020 H 178.816 -1.82314 2.42889 0
M  V30 2021 H 176.401 -0.843438 1.23315 0
M  V30 2022 H 178.283 -4.00547 1.3092 0
M  V30 2023 H 176.958 -3.21014 0.41612 0
M  V30 2024 H 175.865 -2.63067 2.65982 0
M  V30 2025 H 177.198 -3.47512 3.48563 0
M  V30 2026 N 178.85 -1.27639 -0.924453 0
M  V30 2027 C 180.127 -1.04887 -1.651 0
M  V30 2028 C 180.507 0.415327 -2.06974 0
M  V30 2029 O 179.855 1.39923 -1.80648 0
M  V30 2030 C 180.065 -2.01348 -2.85061 0
M  V30 2031 C 181.413 -2.30899 -3.56329 0
M  V30 2032 O 182.437 -1.99348 -2.95193 0
M  V30 2033 O 181.296 -2.84699 -4.66485 0
M  V30 2034 H 178.39 -0.400083 -0.723784 0
M  V30 2035 H 180.936 -1.38916 -0.974703 0
M  V30 2036 H 179.708 -3.0008 -2.51133 0
M  V30 2037 H 179.331 -1.679 -3.6041 0
M  V30 2038 N 180.328 1.1314 -1.09713 0
M  V30 2039 C 181.576 1.84119 -0.833338 0
M  V30 2040 C 181.897 1.84097 0.642904 0
M  V30 2041 O 181.167 1.29881 1.46655 0
M  V30 2042 H 179.747 0.681766 -0.305293 0
M  V30 2043 H 182.409 1.37038 -1.38588 0
M  V30 2044 H 181.505 2.88543 -1.18951 0
M  V30 2045 N 181.806 0.884767 1.30421 0
M  V30 2046 C 183.083 0.423185 1.90967 0
M  V30 2047 C 183.463 -1.09605 1.80416 0
M  V30 2048 O 182.811 -1.93126 1.22125 0
M  V30 2049 C 183.021 0.921056 3.36627 0
M  V30 2050 C 184.369 0.955903 4.137 0
M  V30 2051 O 185.393 0.867706 3.4547 0
M  V30 2052 O 184.252 1.08614 5.35598 0
M  V30 2053 H 181.346 0.129369 0.816819 0
M  V30 2054 H 183.892 0.973653 1.3899 0
M  V30 2055 H 182.664 1.96489 3.3839 0
M  V30 2056 H 182.287 0.349741 3.96059 0
M  V30 2057 N 183.284 -1.43765 0.645699 0
M  V30 2058 C 184.53 -2.02197 0.156271 0
M  V30 2059 C 184.863 -1.50776 -1.22393 0
M  V30 2060 O 184.138 -0.697771 -1.81553 0
M  V30 2061 C 184.421 -3.59749 0.158872 0
M  V30 2062 C 184.274 -4.21419 1.57245 0
M  V30 2063 C 185.593 -4.37149 -0.50879 0
M  V30 2064 H 182.712 -0.734694 0.0582602 0
M  V30 2065 H 185.354 -1.71157 0.824951 0
M  V30 2066 H 183.504 -3.86325 -0.410525 0
M  V30 2067 H 185.176 -4.059 2.19186 0
M  V30 2068 H 183.419 -3.78356 2.122 0
M  V30 2069 H 184.09 -5.30482 1.52619 0
M  V30 2070 H 186.566 -4.16093 -0.024412 0
M  V30 2071 H 185.442 -5.4683 -0.476213 0
M  V30 2072 H 185.703 -4.12839 -1.58165 0
M  V30 2073 N 184.763 -0.387143 -1.52771 0
M  V30 2074 C 186.012 0.19697 -2.00736 0
M  V30 2075 C 186.325 1.48082 -1.27793 0
M  V30 2076 O 187.531 2.14485 -1.66458 0
M  V30 2077 C 185.987 0.401568 -3.57653 0
M  V30 2078 C 185.595 -0.868907 -4.39493 0
M  V30 2079 C 187.339 0.942164 -4.13912 0
M  V30 2080 C 185.246 -0.632705 -5.88006 0
M  V30 2081 H 184.176 0.0773827 -0.750019 0
M  V30 2082 H 186.827 -0.50921 -1.76293 0
M  V30 2083 H 185.209 1.16954 -3.78335 0
M  V30 2084 H 186.383 -1.64133 -4.30577 0
M  V30 2085 H 184.698 -1.33429 -3.94443 0
M  V30 2086 H 187.295 1.13455 -5.22525 0
M  V30 2087 H 187.638 1.9106 -3.69867 0
M  V30 2088 H 188.171 0.233814 -3.97112 0
M  V30 2089 H 184.91 -1.57208 -6.36369 0
M  V30 2090 H 184.43 0.100825 -5.99715 0
M  V30 2091 H 186.109 -0.26642 -6.46451 0
M  V30 2092 N 186.241 1.57166 -0.116904 0
M  V30 2093 C 187.489 1.94737 0.540533 0
M  V30 2094 C 187.81 1.00096 1.67349 0
M  V30 2095 O 187.08 0.0568854 1.95817 0
M  V30 2096 H 185.66 0.718981 0.202669 0
M  V30 2097 H 188.322 1.94017 -0.185353 0
M  V30 2098 H 187.418 2.97719 0.936483 0
M  V30 2099 N 187.719 -0.156864 1.56817 0
M  V30 2100 C 188.669 -1.19891 1.93934 0
M  V30 2101 C 189.653 -1.39061 0.809372 0
M  V30 2102 O 190.845 -1.40789 1.07273 0
M  V30 2103 C 187.974 -2.53493 2.31508 0
M  V30 2104 C 187.06 -2.37957 3.51052 0
M  V30 2105 N 187.451 -1.92158 4.67877 0
M  V30 2106 C 185.749 -2.68739 3.55943 0
M  V30 2107 C 186.45 -1.8943 5.49992 0
M  V30 2108 N 185.426 -2.32375 4.91429 0
M  V30 2109 H 189.228 -0.836746 2.81737 0
M  V30 2110 H 186.742 -0.365012 1.58245 0
M  V30 2111 H 188.739 -3.28811 2.56299 0
M  V30 2112 H 187.399 -2.905 1.45051 0
M  V30 2113 H 188.41 -1.62274 4.91821 0
M  V30 2114 H 185.087 -3.09687 2.80001 0
M  V30 2115 H 186.477 -1.55596 6.53636 0
M  V30 2116 N 189.197 -1.51736 -0.425897 0
M  V30 2117 C 190.16 -1.73271 -1.50032 0
M  V30 2118 C 191.16 -0.602639 -1.4908 0
M  V30 2119 O 192.35 -0.87033 -1.509 0
M  V30 2120 C 189.482 -1.79969 -2.89523 0
M  V30 2121 H 190.675 -2.69172 -1.32237 0
M  V30 2122 H 188.228 -1.41899 -0.65532 0
M  V30 2123 H 188.963 -0.859241 -3.1271 0
M  V30 2124 H 188.748 -2.62109 -2.91619 0
M  V30 2125 H 190.238 -1.9843 -3.67444 0
M  V30 2126 N 190.675 0.682077 -1.42076 0
M  V30 2127 C 191.605 1.80796 -1.47767 0
M  V30 2128 C 192.586 1.6677 -0.334954 0
M  V30 2129 O 193.771 1.863 -0.548264 0
M  V30 2130 C 190.901 3.19038 -1.37229 0
M  V30 2131 C 189.855 3.47789 -2.49453 0
M  V30 2132 C 189.181 4.8553 -2.23975 0
M  V30 2133 C 190.481 3.45411 -3.91776 0
M  V30 2134 H 192.175 1.7629 -2.41997 0
M  V30 2135 H 189.721 0.846721 -1.16476 0
M  V30 2136 H 191.674 3.97528 -1.39821 0
M  V30 2137 H 190.398 3.24204 -0.394907 0
M  V30 2138 H 189.057 2.71657 -2.46166 0
M  V30 2139 H 188.705 4.87337 -1.24547 0
M  V30 2140 H 188.405 5.0573 -2.99184 0
M  V30 2141 H 189.929 5.66312 -2.28304 0
M  V30 2142 H 191.343 4.13882 -3.96705 0
M  V30 2143 H 189.74 3.77145 -4.66778 0
M  V30 2144 H 190.81 2.44122 -4.18966 0
M  V30 2145 N 192.153 1.28127 0.917671 0
M  V30 2146 C 193.116 1.11744 2.00115 0
M  V30 2147 C 194.116 0.0583052 1.60694 0
M  V30 2148 O 195.306 0.303755 1.71531 0
M  V30 2149 C 192.438 0.704862 3.33533 0
M  V30 2150 H 193.631 2.07966 2.16079 0
M  V30 2151 H 191.184 1.11058 1.09981 0
M  V30 2152 H 191.919 -0.258299 3.2327 0
M  V30 2153 H 191.704 1.4699 3.63505 0
M  V30 2154 H 193.194 0.612768 4.1308 0
M  V30 2155 N 193.631 -1.12557 1.10312 0
M  V30 2156 C 194.564 -2.1737 0.694674 0
M  V30 2157 C 195.542 -1.59745 -0.303373 0
M  V30 2158 O 196.726 -1.87408 -0.202578 0
M  V30 2159 C 193.853 -3.38691 0.0248052 0
M  V30 2160 C 192.899 -4.14943 0.986121 0
M  V30 2161 S 193.732 -4.73413 2.50281 0
M  V30 2162 C 194.888 -5.9807 1.84562 0
M  V30 2163 H 195.121 -2.5168 1.58255 0
M  V30 2164 H 192.654 -1.23998 0.919992 0
M  V30 2165 H 194.612 -4.08959 -0.355361 0
M  V30 2166 H 193.273 -3.02664 -0.839851 0
M  V30 2167 H 192.466 -5.01854 0.464651 0
M  V30 2168 H 192.068 -3.50377 1.30813 0
M  V30 2169 H 194.36 -6.67232 1.17507 0
M  V30 2170 H 195.303 -6.54841 2.69423 0
M  V30 2171 H 195.711 -5.49073 1.31069 0
M  V30 2172 N 195.109 -0.891671 -1.2995 0
M  V30 2173 C 196.019 -0.367691 -2.31701 0
M  V30 2174 C 197.035 0.533486 -1.6562 0
M  V30 2175 O 198.211 0.424997 -1.96865 0
M  V30 2176 C 195.276 0.403406 -3.44345 0
M  V30 2177 C 194.337 -0.528328 -4.26037 0
M  V30 2178 C 193.57 0.206063 -5.33302 0
M  V30 2179 O 193.793 1.43119 -5.52153 0
M  V30 2180 O 192.727 -0.447281 -6.00236 0
M  V30 2181 H 196.553 -1.21163 -2.78484 0
M  V30 2182 H 194.138 -0.655725 -1.34241 0
M  V30 2183 H 196.02 0.839753 -4.12948 0
M  V30 2184 H 194.695 1.22354 -2.99685 0
M  V30 2185 H 193.602 -1.01362 -3.60106 0
M  V30 2186 H 194.935 -1.31465 -4.74318 0
M  V30 2187 N 196.587 1.43421 -0.653314 0
M  V30 2188 C 197.835 2.01414 -0.166415 0
M  V30 2189 C 198.156 1.51803 1.22397 0
M  V30 2190 O 197.426 0.730693 1.81763 0
M  V30 2191 H 196.006 0.744703 -0.0585319 0
M  V30 2192 H 198.668 1.75629 -0.845003 0
M  V30 2193 H 197.764 3.11734 -0.151111 0
M  V30 2194 N 198.065 0.39524 1.52563 0
M  V30 2195 C 199.012 -0.437036 2.26624 0
M  V30 2196 C 199.982 -1.05281 1.28472 0
M  V30 2197 O 201.167 -1.07971 1.57311 0
M  V30 2198 C 198.307 -1.55524 3.08069 0
M  V30 2199 C 197.42 -0.961745 4.21158 0
M  V30 2200 C 196.555 -2.05149 4.89987 0
M  V30 2201 C 195.594 -1.4342 5.95061 0
M  V30 2202 N 194.731 -2.46351 6.57462 0
M  V30 2203 H 199.571 0.200976 2.97322 0
M  V30 2204 H 197.108 0.110944 1.46681 0
M  V30 2205 H 199.066 -2.21437 3.53584 0
M  V30 2206 H 197.696 -2.16348 2.3957 0
M  V30 2207 H 196.748 -0.192048 3.79915 0
M  V30 2208 H 198.06 -0.470701 4.96574 0
M  V30 2209 H 197.214 -2.78819 5.38837 0
M  V30 2210 H 195.953 -2.57615 4.14109 0
M  V30 2211 H 194.958 -0.682774 5.45544 0
M  V30 2212 H 196.183 -0.917416 6.72875 0
M  V30 2213 H 194.129 -2.97975 5.8442 0
M  V30 2214 H 194.046 -2.02019 7.28508 0
M  V30 2215 H 195.314 -3.19633 7.10954 0
M  V30 2216 N 199.544 -1.57102 0.125237 0
M  V30 2217 C 200.79 -1.95697 -0.532035 0
M  V30 2218 C 201.123 -1.009 -1.6593 0
M  V30 2219 O 200.398 -0.047347 -1.94442 0
M  V30 2220 C 200.681 -3.44181 -1.05884 0
M  V30 2221 C 200.534 -4.49752 0.0654392 0
M  V30 2222 C 201.853 -3.94655 -1.9477 0
M  V30 2223 H 198.972 -0.711571 -0.191925 0
M  V30 2224 H 201.614 -1.88923 0.20206 0
M  V30 2225 H 199.764 -3.50085 -1.68442 0
M  V30 2226 H 201.436 -4.55943 0.700982 0
M  V30 2227 H 199.679 -4.27653 0.727709 0
M  V30 2228 H 200.35 -5.50924 -0.344505 0
M  V30 2229 H 202.826 -3.91094 -1.42074 0
M  V30 2230 H 201.702 -4.99057 -2.28546 0
M  V30 2231 H 201.963 -3.35718 -2.87656 0
M  V30 2232 N 201.022 0.148545 -1.56898 0
M  V30 2233 C 201.955 1.21293 -1.93296 0
M  V30 2234 C 202.933 1.41637 -0.798599 0
M  V30 2235 O 204.117 1.56275 -1.05406 0
M  V30 2236 C 201.244 2.5721 -2.20365 0
M  V30 2237 C 200.29 2.53469 -3.4301 0
M  V30 2238 S 201.123 2.00315 -4.96623 0
M  V30 2239 C 202.279 3.37964 -5.26812 0
M  V30 2240 H 202.512 0.902393 -2.83274 0
M  V30 2241 H 200.045 0.354094 -1.50285 0
M  V30 2242 H 202.003 3.35427 -2.36641 0
M  V30 2243 H 200.664 2.85454 -1.31054 0
M  V30 2244 H 199.857 3.53518 -3.59223 0
M  V30 2245 H 199.459 1.83359 -3.25968 0
M  V30 2246 H 201.751 4.34066 -5.20185 0
M  V30 2247 H 202.694 3.26606 -6.28279 0
M  V30 2248 H 203.102 3.35028 -4.54331 0
M  V30 2249 N 202.5 1.5196 0.417844 0
M  V30 2250 C 203.447 1.74678 1.50852 0
M  V30 2251 C 204.417 0.588947 1.55308 0
M  V30 2252 O 205.602 0.825544 1.72016 0
M  V30 2253 C 202.742 1.89544 2.88387 0
M  V30 2254 C 201.855 3.17166 2.93309 0
M  V30 2255 C 200.99 3.22513 4.22088 0
M  V30 2256 C 200.029 4.44372 4.20951 0
M  V30 2257 N 199.166 4.47161 5.41287 0
M  V30 2258 H 204.006 2.67768 1.30783 0
M  V30 2259 H 201.543 1.32689 0.63498 0
M  V30 2260 H 203.501 1.96146 3.68216 0
M  V30 2261 H 202.131 0.998424 3.06971 0
M  V30 2262 H 201.183 3.19778 2.06024 0
M  V30 2263 H 202.495 4.07021 2.88332 0
M  V30 2264 H 201.649 3.28139 5.10303 0
M  V30 2265 H 200.388 2.30581 4.29748 0
M  V30 2266 H 199.393 4.38902 3.31127 0
M  V30 2267 H 200.618 5.3759 4.14938 0
M  V30 2268 H 198.564 3.58108 5.49632 0
M  V30 2269 H 198.481 5.3085 5.3827 0
M  V30 2270 H 199.749 4.57005 6.3148 0
M  V30 2271 N 203.978 -0.674533 1.42435 0
M  V30 2272 C 205.389 -1.25514 1.38214 0
M  V30 2273 C 205.74 -1.96055 0.0755464 0
M  V30 2274 O 204.865 -2.00028 -0.8257 0
M  V30 2275 C 205.46 -2.28269 2.50357 0
M  V30 2276 C 204.019 -2.81856 2.49467 0
M  V30 2277 C 203.166 -1.56182 2.29134 0
M  V30 2278 H 206.117 -0.467902 1.51646 0
M  V30 2279 H 206.138 -3.10009 2.20624 0
M  V30 2280 H 205.65 -1.769 3.45439 0
M  V30 2281 H 203.751 -3.37346 1.58204 0
M  V30 2282 H 203.864 -3.30854 3.46515 0
M  V30 2283 H 202.228 -1.82761 1.774 0
M  V30 2284 H 203.011 -1.06778 3.26272 0
M  V30 2285 N 205.456 -1.28612 -0.910864 0
M  V30 2286 C 206.386 -1.15326 -2.03032 0
M  V30 2287 C 207.367 -0.0502924 -1.70026 0
M  V30 2288 O 208.552 -0.227797 -1.92859 0
M  V30 2289 C 205.682 -0.817343 -3.37545 0
M  V30 2290 C 204.636 -1.8754 -3.84724 0
M  V30 2291 C 203.962 -1.39305 -5.16235 0
M  V30 2292 C 205.262 -3.28244 -4.06267 0
M  V30 2293 H 206.956 -2.08975 -2.14406 0
M  V30 2294 H 204.502 -1.00612 -1.03021 0
M  V30 2295 H 206.455 -0.711151 -4.15356 0
M  V30 2296 H 205.179 0.154846 -3.26233 0
M  V30 2297 H 203.838 -1.97079 -3.09121 0
M  V30 2298 H 203.486 -0.409846 -5.01328 0
M  V30 2299 H 203.186 -2.10057 -5.48771 0
M  V30 2300 H 204.71 -1.30014 -5.96598 0
M  V30 2301 H 206.124 -3.21611 -4.74594 0
M  V30 2302 H 204.521 -3.96855 -4.5014 0
M  V30 2303 H 205.591 -3.72048 -3.10979 0
M  V30 2304 N 206.934 1.1197 -1.10907 0
M  V30 2305 C 207.884 2.15946 -0.731538 0
M  V30 2306 C 208.868 1.58758 0.261699 0
M  V30 2307 O 210.06 1.76863 0.0696722 0
M  V30 2308 C 207.189 3.42877 -0.170299 0
M  V30 2309 C 206.275 4.07037 -1.19087 0
M  V30 2310 N 206.666 4.46135 -2.38322 0
M  V30 2311 C 204.964 4.33884 -1.03252 0
M  V30 2312 C 205.665 4.96331 -3.03366 0
M  V30 2313 N 204.641 4.9214 -2.30865 0
M  V30 2314 H 208.443 2.43947 -1.63912 0
M  V30 2315 H 205.957 1.28927 -0.987505 0
M  V30 2316 H 207.954 4.16732 0.118271 0
M  V30 2317 H 206.614 3.16343 0.731935 0
M  V30 2318 H 207.625 4.38345 -2.75815 0
M  V30 2319 H 204.302 4.17084 -0.186256 0
M  V30 2320 H 205.692 5.36257 -4.04818 0
M  V30 2321 N 208.412 0.89855 1.29475 0
M  V30 2322 C 209.658 0.524658 1.95896 0
M  V30 2323 C 209.991 -0.926468 1.70676 0
M  V30 2324 O 209.266 -1.65665 1.01908 0
M  V30 2325 C 209.549 0.81633 3.50725 0
M  V30 2326 C 209.402 2.31907 3.85408 0
M  V30 2327 C 210.721 0.302038 4.39062 0
M  V30 2328 H 207.84 0.19209 0.711527 0
M  V30 2329 H 210.482 1.12502 1.53112 0
M  V30 2330 H 208.632 0.305369 3.87298 0
M  V30 2331 H 210.304 2.89949 3.58786 0
M  V30 2332 H 208.547 2.78027 3.32992 0
M  V30 2333 H 209.218 2.47373 4.93468 0
M  V30 2334 H 211.694 0.739551 4.09475 0
M  V30 2335 H 210.57 0.535331 5.46283 0
M  V30 2336 H 210.831 -0.797216 4.34853 0
M  V30 2337 N 209.89 -1.43072 0.660911 0
M  V30 2338 C 210.837 -2.30785 -0.0259884 0
M  V30 2339 C 211.807 -1.45184 -0.806888 0
M  V30 2340 O 212.992 -1.74041 -0.781943 0
M  V30 2341 C 210.132 -3.30861 -0.981067 0
M  V30 2342 C 209.245 -4.31558 -0.195458 0
M  V30 2343 C 208.38 -5.18712 -1.14503 0
M  V30 2344 C 207.419 -6.11097 -0.350299 0
M  V30 2345 N 206.556 -6.90849 -1.25186 0
M  V30 2346 H 211.396 -2.88975 0.727846 0
M  V30 2347 H 208.933 -1.42353 0.370682 0
M  V30 2348 H 210.891 -3.87399 -1.54849 0
M  V30 2349 H 209.521 -2.74304 -1.70169 0
M  V30 2350 H 208.573 -3.77252 0.488374 0
M  V30 2351 H 209.885 -4.9701 0.422176 0
M  V30 2352 H 209.039 -5.79914 -1.78284 0
M  V30 2353 H 207.778 -4.53404 -1.79656 0
M  V30 2354 H 206.783 -5.48976 0.300808 0
M  V30 2355 H 208.008 -6.7845 0.296941 0
M  V30 2356 H 205.954 -6.28182 -1.89005 0
M  V30 2357 H 205.871 -7.52854 -0.688971 0
M  V30 2358 H 207.139 -7.5655 -1.87757 0
M  V30 2359 N 211.368 -0.403325 -1.52352 0
M  V30 2360 C 212.616 0.174003 -2.0135 0
M  V30 2361 C 212.937 1.46139 -1.29106 0
M  V30 2362 O 212.207 1.91448 -0.415253 0
M  V30 2363 H 210.787 0.0672911 -0.743963 0
M  V30 2364 H 213.449 -0.538235 -1.87321 0
M  V30 2365 H 212.545 0.374254 -3.09848 0
M  V30 2366 N 212.846 1.57033 -0.133567 0
M  V30 2367 C 214.074 2.00044 0.528195 0
M  V30 2368 C 214.489 1.01349 1.59291 0
M  V30 2369 O 213.846 0.00848369 1.82498 0
M  V30 2370 C 213.897 3.43018 1.1411 0
M  V30 2371 O 213.618 4.37939 0.11892 0
M  V30 2372 C 215.119 4.01237 1.88477 0
M  V30 2373 H 212.339 0.656517 0.138661 0
M  V30 2374 H 214.883 2.03267 -0.224196 0
M  V30 2375 H 213.038 3.40688 1.84418 0
M  V30 2376 H 213.452 5.21436 0.56613 0
M  V30 2377 H 214.926 5.03314 2.26669 0
M  V30 2378 H 215.403 3.41193 2.76558 0
M  V30 2379 H 216.009 4.07156 1.22898 0
M  V30 2380 N 214.325 -0.140222 1.56975 0
M  V30 2381 C 215.574 -0.850152 1.82908 0
M  V30 2382 C 215.887 -1.82028 0.715892 0
M  V30 2383 O 217.093 -2.57485 0.861016 0
M  V30 2384 C 215.549 -1.5625 3.24213 0
M  V30 2385 C 215.157 -0.63443 4.43485 0
M  V30 2386 C 216.901 -2.25881 3.59413 0
M  V30 2387 C 214.808 -1.34879 5.75814 0
M  V30 2388 H 213.738 -0.321221 0.682153 0
M  V30 2389 H 216.389 -0.102874 1.83211 0
M  V30 2390 H 214.771 -2.35565 3.18316 0
M  V30 2391 H 215.945 0.12398 4.60633 0
M  V30 2392 H 214.26 -0.0461836 4.16374 0
M  V30 2393 H 216.857 -2.79978 4.5554 0
M  V30 2394 H 217.2 -3.02693 2.85802 0
M  V30 2395 H 217.733 -1.53477 3.67001 0
M  V30 2396 H 214.472 -0.622385 6.52539 0
M  V30 2397 H 213.992 -2.07974 5.6259 0
M  V30 2398 H 215.671 -1.88784 6.18845 0
M  V30 2399 N 215.803 -1.52179 -0.40978 0
M  V30 2400 C 217.08 -1.56769 -1.16974 0
M  V30 2401 C 217.46 -0.348322 -2.08206 0
M  V30 2402 O 216.808 0.664862 -2.18613 0
M  V30 2403 C 217.018 -2.89603 -1.9476 0
M  V30 2404 C 218.366 -3.42579 -2.50849 0
M  V30 2405 O 219.39 -2.91338 -2.04941 0
M  V30 2406 O 218.249 -4.32054 -3.34652 0
M  V30 2407 H 215.343 -0.631439 -0.534054 0
M  V30 2408 H 217.889 -1.64507 -0.416613 0
M  V30 2409 H 216.661 -3.698 -1.27921 0
M  V30 2410 H 216.284 -2.85155 -2.77079 0
M  V30 2411 N 217.281 0.66697 -1.42791 0
M  V30 2412 C 218.231 1.77313 -1.43332 0
M  V30 2413 C 219.215 1.5801 -0.303586 0
M  V30 2414 O 220.407 1.68356 -0.546385 0
M  V30 2415 C 217.536 3.15822 -1.34578 0
M  V30 2416 C 216.622 3.40721 -2.52528 0
M  V30 2417 N 217.013 3.36162 -3.77927 0
M  V30 2418 C 215.311 3.71387 -2.46956 0
M  V30 2419 C 216.012 3.60762 -4.56318 0
M  V30 2420 N 214.988 3.81908 -3.86843 0
M  V30 2421 H 218.79 1.72193 -2.38174 0
M  V30 2422 H 216.304 0.868114 -1.3725 0
M  V30 2423 H 218.301 3.951 -1.33048 0
M  V30 2424 H 216.961 3.22133 -0.407453 0
M  V30 2425 H 217.972 3.15885 -4.10411 0
M  V30 2426 H 214.649 3.84897 -1.61743 0
M  V30 2427 H 216.039 3.63132 -5.65318 0
M  V30 2428 N 218.759 1.29093 0.90403 0
M  V30 2429 C 220.17 1.15186 1.46932 0
M  V30 2430 C 220.521 -0.254587 1.94541 0
M  V30 2431 O 219.646 -1.14972 1.83332 0
M  V30 2432 C 220.241 2.08492 2.67051 0
M  V30 2433 C 218.8 1.98621 3.19729 0
M  V30 2434 C 217.947 1.9967 1.92425 0
M  V30 2435 H 220.898 1.41641 0.715789 0
M  V30 2436 H 220.919 1.65461 3.42641 0
M  V30 2437 H 220.431 3.10847 2.3237 0
M  V30 2438 H 218.532 0.993389 3.59114 0
M  V30 2439 H 218.645 2.86068 3.8432 0
M  V30 2440 H 217.009 1.44208 2.09943 0
M  V30 2441 H 217.792 3.03721 1.60026 0
M  V30 2442 N 220.237 -1.11381 1.11499 0
M  V30 2443 C 221.483 -1.83403 0.865512 0
M  V30 2444 C 221.816 -1.84459 -0.607329 0
M  V30 2445 O 221.091 -1.29811 -1.44842 0
M  V30 2446 C 221.374 -3.30552 1.42855 0
M  V30 2447 C 221.227 -3.37886 2.96906 0
M  V30 2448 C 222.546 -4.26643 1.08 0
M  V30 2449 H 219.665 -0.665879 0.31587 0
M  V30 2450 H 222.307 -1.30601 1.37998 0
M  V30 2451 H 220.457 -3.75648 0.990985 0
M  V30 2452 H 222.129 -3.01343 3.49271 0
M  V30 2453 H 220.372 -2.78088 3.32941 0
M  V30 2454 H 221.043 -4.41458 3.31389 0
M  V30 2455 H 223.519 -3.89729 1.45775 0
M  V30 2456 H 222.395 -5.27986 1.50072 0
M  V30 2457 H 222.656 -4.42099 -0.00915037 0
M  V30 2458 N 221.715 -0.905404 -1.28997 0
M  V30 2459 C 222.645 -0.404212 -2.29975 0
M  V30 2460 C 223.626 0.523784 -1.61835 0
M  V30 2461 O 224.811 0.433298 -1.89304 0
M  V30 2462 C 221.941 0.364042 -3.45387 0
M  V30 2463 C 220.895 -0.474048 -4.25367 0
M  V30 2464 C 220.221 0.422045 -5.33032 0
M  V30 2465 C 221.521 -1.72696 -4.92923 0
M  V30 2466 H 223.215 -1.24807 -2.72146 0
M  V30 2467 H 220.761 -0.601585 -1.30832 0
M  V30 2468 H 222.714 0.725447 -4.15109 0
M  V30 2469 H 221.438 1.24174 -3.02074 0
M  V30 2470 H 220.097 -0.81786 -3.57361 0
M  V30 2471 H 219.745 1.29804 -4.85963 0
M  V30 2472 H 219.445 -0.135057 -5.87445 0
M  V30 2473 H 220.969 0.779517 -6.05604 0
M  V30 2474 H 222.383 -1.43495 -5.55051 0
M  V30 2475 H 220.78 -2.22582 -5.57295 0
M  V30 2476 H 221.85 -2.45964 -4.17887 0
M  V30 2477 N 223.193 1.4272 -0.668489 0
M  V30 2478 C 224.418 2.06484 -0.194758 0
M  V30 2479 C 224.843 1.49862 1.13679 0
M  V30 2480 O 224.201 0.614582 1.70565 0
M  V30 2481 C 224.249 3.60353 -0.133546 0
M  V30 2482 O 223.353 4.02464 0.899806 0
M  V30 2483 H 222.694 0.656137 -0.10188 0
M  V30 2484 H 225.224 1.82964 -0.915722 0
M  V30 2485 H 225.234 4.07976 0.0447041 0
M  V30 2486 H 223.909 4.00938 -1.1055 0
M  V30 2487 H 222.486 3.66402 0.693109 0
M  V30 2488 N 224.671 0.411399 1.52136 0
M  V30 2489 C 225.618 -0.412975 2.27075 0
M  V30 2490 C 226.588 -1.03912 1.29582 0
M  V30 2491 O 227.773 -1.06296 1.58448 0
M  V30 2492 C 224.913 -1.52247 3.09701 0
M  V30 2493 C 224.026 -0.917021 4.22155 0
M  V30 2494 C 223.161 -1.9994 4.92135 0
M  V30 2495 C 222.2 -1.37101 5.96548 0
M  V30 2496 N 221.337 -2.39364 6.60038 0
M  V30 2497 H 226.177 0.232499 2.97092 0
M  V30 2498 H 223.714 0.126496 1.46555 0
M  V30 2499 H 225.672 -2.17674 3.55913 0
M  V30 2500 H 224.302 -2.13794 2.41851 0
M  V30 2501 H 223.354 -0.151742 3.80097 0
M  V30 2502 H 224.666 -0.418006 4.97045 0
M  V30 2503 H 223.82 -2.73088 5.41763 0
M  V30 2504 H 222.559 -2.53208 4.16818 0
M  V30 2505 H 221.564 -0.624873 5.46237 0
M  V30 2506 H 222.789 -0.845998 6.7381 0
M  V30 2507 H 220.735 -2.91759 5.87548 0
M  V30 2508 H 220.652 -1.9428 7.3061 0
M  V30 2509 H 221.92 -3.12074 7.14304 0
M  V30 2510 N 226.149 -1.5696 0.141893 0
M  V30 2511 C 227.079 -2.19516 -0.795936 0
M  V30 2512 C 228.06 -1.14187 -1.26077 0
M  V30 2513 O 229.245 -1.42511 -1.31925 0
M  V30 2514 C 226.375 -2.81272 -2.03723 0
M  V30 2515 C 225.329 -3.92384 -1.70936 0
M  V30 2516 C 224.655 -4.41052 -3.02287 0
M  V30 2517 C 225.955 -5.13403 -0.959954 0
M  V30 2518 H 227.649 -2.98138 -0.274596 0
M  V30 2519 H 225.195 -1.43406 -0.130636 0
M  V30 2520 H 227.148 -3.237 -2.69808 0
M  V30 2521 H 225.872 -1.99973 -2.58221 0
M  V30 2522 H 224.531 -3.50566 -1.07232 0
M  V30 2523 H 224.179 -3.56582 -3.54765 0
M  V30 2524 H 223.879 -5.15993 -2.81114 0
M  V30 2525 H 225.403 -4.86146 -3.69451 0
M  V30 2526 H 226.817 -5.52706 -1.52279 0
M  V30 2527 H 225.214 -5.94073 -0.848357 0
M  V30 2528 H 226.284 -4.84875 0.0492434 0
M  V30 2529 N 227.627 0.131896 -1.57047 0
M  V30 2530 C 228.574 1.16236 -1.99393 0
M  V30 2531 C 229.544 1.41863 -0.863943 0
M  V30 2532 O 230.729 1.53946 -1.12718 0
M  V30 2533 C 227.869 2.48708 -2.39245 0
M  V30 2534 C 226.982 2.30127 -3.65603 0
M  V30 2535 C 226.117 3.55738 -3.94492 0
M  V30 2536 C 225.156 3.32259 -5.14073 0
M  V30 2537 N 224.293 4.50039 -5.38896 0
M  V30 2538 H 229.133 0.794251 -2.87221 0
M  V30 2539 H 226.67 0.380707 -1.42088 0
M  V30 2540 H 228.628 3.25969 -2.60384 0
M  V30 2541 H 227.258 2.83437 -1.54478 0
M  V30 2542 H 226.31 1.43845 -3.52154 0
M  V30 2543 H 227.622 2.08746 -4.5302 0
M  V30 2544 H 226.776 4.41423 -4.1621 0
M  V30 2545 H 225.515 3.80138 -3.05526 0
M  V30 2546 H 224.52 2.44963 -4.92212 0
M  V30 2547 H 225.745 3.09242 -6.04604 0
M  V30 2548 H 223.691 4.74584 -4.52886 0
M  V30 2549 H 223.608 4.31716 -6.2061 0
M  V30 2550 H 224.876 5.36895 -5.65123 0
M  V30 2551 N 229.106 1.52395 0.401703 0
M  V30 2552 C 230.353 1.66817 1.14796 0
M  V30 2553 C 230.681 0.401772 1.90305 0
M  V30 2554 O 229.936 -0.615487 1.85769 0
M  V30 2555 C 230.235 2.84578 2.16217 0
M  V30 2556 C 229.901 4.22513 1.5746 0
M  V30 2557 C 228.563 4.60029 1.41161 0
M  V30 2558 C 230.915 5.0844 1.14622 0
M  V30 2559 C 228.243 5.81144 0.80552 0
M  V30 2560 C 230.595 6.30167 0.55428 0
M  V30 2561 C 229.259 6.66426 0.378482 0
M  V30 2562 H 228.529 0.610428 0.420069 0
M  V30 2563 H 231.176 1.86512 0.434212 0
M  V30 2564 H 229.481 2.59248 2.93764 0
M  V30 2565 H 231.178 2.92933 2.73845 0
M  V30 2566 H 227.768 3.92953 1.71132 0
M  V30 2567 H 231.952 4.80034 1.26021 0
M  V30 2568 H 227.208 6.07855 0.657399 0
M  V30 2569 H 231.382 6.96071 0.213983 0
M  V30 2570 H 229.009 7.60143 -0.0932606 0
M  V30 2571 N 230.584 -0.659388 1.43143 0
M  V30 2572 C 231.812 -1.44723 1.47861 0
M  V30 2573 C 232.227 -1.88563 0.0945886 0
M  V30 2574 O 231.584 -1.59108 -0.893915 0
M  V30 2575 C 231.635 -2.68627 2.41913 0
M  V30 2576 O 231.356 -2.26623 3.74932 0
M  V30 2577 C 232.857 -3.62045 2.55809 0
M  V30 2578 H 230.077 -0.444801 0.502387 0
M  V30 2579 H 232.621 -0.808916 1.87821 0
M  V30 2580 H 230.776 -3.28613 2.05164 0
M  V30 2581 H 231.19 -3.06745 4.2545 0
M  V30 2582 H 232.664 -4.45666 3.25708 0
M  V30 2583 H 233.141 -4.08981 1.60099 0
M  V30 2584 H 233.747 -3.07944 2.93344 0
M  V30 2585 N 232.062 -1.29571 -0.897171 0
M  V30 2586 C 233.009 -1.14916 -2.00158 0
M  V30 2587 C 233.979 -0.0418149 -1.66047 0
M  V30 2588 O 235.164 -0.209793 -1.89643 0
M  V30 2589 C 232.304 -0.834307 -3.34863 0
M  V30 2590 C 231.417 -2.02234 -3.8174 0
M  V30 2591 C 230.552 -1.64664 -5.05034 0
M  V30 2592 C 229.591 -2.80033 -5.44286 0
M  V30 2593 N 228.728 -2.42843 -6.58765 0
M  V30 2594 H 233.568 -2.09403 -2.12025 0
M  V30 2595 H 231.105 -1.042 -1.0383 0
M  V30 2596 H 233.063 -0.632436 -4.12379 0
M  V30 2597 H 231.693 0.0736656 -3.22716 0
M  V30 2598 H 230.745 -2.33583 -3.00238 0
M  V30 2599 H 232.057 -2.88673 -4.06779 0
M  V30 2600 H 231.211 -1.4078 -5.9014 0
M  V30 2601 H 229.95 -0.753766 -4.8184 0
M  V30 2602 H 228.955 -3.04596 -4.57713 0
M  V30 2603 H 230.18 -3.69989 -5.6946 0
M  V30 2604 H 228.126 -1.56046 -6.3717 0
M  V30 2605 H 228.043 -3.22815 -6.83613 0
M  V30 2606 H 229.311 -2.22285 -7.47134 0
M  V30 2607 N 233.54 1.10788 -1.12088 0
M  V30 2608 C 234.765 1.87002 -0.896949 0
M  V30 2609 C 235.19 1.79933 0.548261 0
M  V30 2610 O 234.548 1.16662 1.38779 0
M  V30 2611 C 234.596 3.3349 -1.37174 0
M  V30 2612 O 233.7 4.08745 -0.547831 0
M  V30 2613 H 233.041 0.580397 -0.322545 0
M  V30 2614 H 235.571 1.39996 -1.49206 0
M  V30 2615 H 235.581 3.84339 -1.36922 0
M  V30 2616 H 234.256 3.37951 -2.42408 0
M  V30 2617 H 232.833 3.6776 -0.617034 0
M  V30 2618 N 235.018 0.912232 1.28515 0
M  V30 2619 C 236.243 0.559774 1.99703 0
M  V30 2620 C 236.668 -0.851393 1.67729 0
M  V30 2621 O 236.026 -1.56875 0.908834 0
M  V30 2622 C 236.074 0.773874 3.52198 0
M  V30 2623 O 235.178 -0.167842 4.12058 0
M  V30 2624 H 234.519 0.21723 0.627461 0
M  V30 2625 H 237.049 1.22725 1.63706 0
M  V30 2626 H 237.059 0.683386 4.02236 0
M  V30 2627 H 235.734 1.80261 3.74805 0
M  V30 2628 H 234.311 -0.0287509 3.72889 0
M  V30 2629 N 236.496 -1.42363 0.676048 0
M  V30 2630 C 237.459 -2.29199 0.00766941 0
M  V30 2631 C 238.459 -1.43389 -0.727745 0
M  V30 2632 O 239.649 -1.64764 -0.56556 0
M  V30 2633 C 236.781 -3.2591 -0.999785 0
M  V30 2634 H 237.974 -2.89794 0.771988 0
M  V30 2635 H 235.527 -1.50024 0.438468 0
M  V30 2636 H 236.262 -2.70256 -1.79255 0
M  V30 2637 H 236.047 -3.89202 -0.475829 0
M  V30 2638 H 237.537 -3.91028 -1.46583 0
M  V30 2639 N 237.974 -0.419461 -1.51915 0
M  V30 2640 C 239.204 0.151915 -2.06041 0
M  V30 2641 C 239.612 1.38539 -1.28855 0
M  V30 2642 O 238.955 1.80592 -0.336463 0
M  V30 2643 C 239.017 0.557119 -3.55157 0
M  V30 2644 C 238.681 -0.567054 -4.53468 0
M  V30 2645 C 239.678 -1.43379 -4.99738 0
M  V30 2646 C 237.363 -0.742693 -4.96779 0
M  V30 2647 C 239.357 -2.46102 -5.87973 0
M  V30 2648 C 237.044 -1.77322 -5.84808 0
M  V30 2649 C 238.042 -2.63078 -6.30301 0
M  V30 2650 O 237.73 -3.64364 -7.16585 0
M  V30 2651 H 237.462 0.0193293 -0.675724 0
M  V30 2652 H 240.016 -0.592073 -1.96682 0
M  V30 2653 H 238.246 1.35355 -3.62238 0
M  V30 2654 H 239.935 1.05759 -3.9188 0
M  V30 2655 H 240.701 -1.30954 -4.66986 0
M  V30 2656 H 236.58 -0.0848307 -4.60922 0
M  V30 2657 H 240.124 -3.13071 -6.23404 0
M  V30 2658 H 236.021 -1.89773 -6.16974 0
M  V30 2659 H 236.789 -3.60731 -7.34721 0
M  V30 2660 N 239.452 1.56882 -0.150215 0
M  V30 2661 C 240.729 1.87844 0.545327 0
M  V30 2662 C 241.109 1.0567 1.82749 0
M  V30 2663 O 240.457 0.144442 2.28043 0
M  V30 2664 C 240.667 3.39526 0.80767 0
M  V30 2665 C 242.015 4.08814 1.14703 0
M  V30 2666 O 243.039 3.44723 0.896917 0
M  V30 2667 O 241.898 5.22004 1.61784 0
M  V30 2668 H 238.992 0.778677 0.278553 0
M  V30 2669 H 241.538 1.68666 -0.187068 0
M  V30 2670 H 240.31 3.91173 -0.0996096 0
M  V30 2671 H 239.933 3.64243 1.59413 0
M  V30 2672 N 240.93 -0.123565 1.57115 0
M  V30 2673 C 241.863 -1.18202 1.95201 0
M  V30 2674 C 242.841 -1.40349 0.821031 0
M  V30 2675 O 244.025 -1.54578 1.07879 0
M  V30 2676 C 241.152 -2.53671 2.24429 0
M  V30 2677 C 240.198 -2.4798 3.46999 0
M  V30 2678 S 241.031 -1.92389 4.99747 0
M  V30 2679 C 242.187 -3.2954 5.32123 0
M  V30 2680 H 242.42 -0.857212 2.84674 0
M  V30 2681 H 239.953 -0.33014 1.50829 0
M  V30 2682 H 241.911 -3.3162 2.41947 0
M  V30 2683 H 240.572 -2.83332 1.35579 0
M  V30 2684 H 239.765 -3.47758 3.64801 0
M  V30 2685 H 239.367 -1.7815 3.28844 0
M  V30 2686 H 241.659 -4.25736 5.27025 0
M  V30 2687 H 242.602 -3.16569 6.33395 0
M  V30 2688 H 243.01 -3.27758 4.59603 0
M  V30 2689 N 242.408 -1.52605 -0.393616 0
M  V30 2690 C 243.318 -1.79971 -1.50492 0
M  V30 2691 C 244.334 -0.686181 -1.59899 0
M  V30 2692 O 245.51 -0.973274 -1.76322 0
M  V30 2693 C 242.575 -1.95867 -2.86072 0
M  V30 2694 C 241.636 -3.19781 -2.86424 0
M  V30 2695 C 240.869 -3.34909 -4.15538 0
M  V30 2696 O 241.092 -2.54948 -5.10253 0
M  V30 2697 O 240.026 -4.28141 -4.23059 0
M  V30 2698 H 243.852 -2.74328 -1.30299 0
M  V30 2699 H 241.437 -1.3764 -0.581005 0
M  V30 2700 H 243.319 -2.08056 -3.66457 0
M  V30 2701 H 241.994 -1.04699 -3.063 0
M  V30 2702 H 240.901 -3.13038 -2.04837 0
M  V30 2703 H 242.234 -4.1078 -2.71147 0
M  V30 2704 N 243.887 0.651787 -1.4349 0
M  V30 2705 C 245.134 1.41167 -1.45183 0
M  V30 2706 C 245.462 1.94349 -0.0766601 0
M  V30 2707 O 244.717 1.72804 0.918555 0
M  V30 2708 C 245.016 2.60914 -2.44251 0
M  V30 2709 C 244.682 2.26142 -3.9009 0
M  V30 2710 C 243.344 2.16371 -4.2981 0
M  V30 2711 C 245.696 1.98334 -4.81989 0
M  V30 2712 C 243.024 1.7695 -5.5938 0
M  V30 2713 C 245.376 1.6041 -6.11924 0
M  V30 2714 C 244.04 1.49166 -6.5062 0
M  V30 2715 H 243.31 0.516566 -0.531263 0
M  V30 2716 H 245.957 0.741099 -1.76579 0
M  V30 2717 H 244.262 3.3311 -2.06265 0
M  V30 2718 H 245.959 3.19127 -2.42815 0
M  V30 2719 H 242.549 2.34658 -3.58655 0
M  V30 2720 H 246.733 2.04803 -4.52072 0
M  V30 2721 H 241.989 1.66831 -5.88198 0
M  V30 2722 H 246.163 1.37925 -6.82605 0
M  V30 2723 H 243.79 1.1839 -7.50925 0
M  V30 2724 N 245.365 1.30045 0.890287 0
M  V30 2725 C 246.328 1.15963 1.977 0
M  V30 2726 C 247.328 0.0923777 1.60534 0
M  V30 2727 O 248.518 0.340071 1.70848 0
M  V30 2728 C 245.65 0.775451 3.31963 0
M  V30 2729 H 246.843 2.12502 2.11619 0
M  V30 2730 H 244.396 1.13366 1.07601 0
M  V30 2731 H 245.131 -0.189671 3.23745 0
M  V30 2732 H 244.916 1.54668 3.60306 0
M  V30 2733 H 246.406 0.700251 4.11687 0
M  V30 2734 N 246.843 -1.10192 1.12674 0
M  V30 2735 C 247.775 -2.16418 0.754701 0
M  V30 2736 C 248.788 -1.61309 -0.21986 0
M  V30 2737 O 249.977 -1.785 -0.000826841 0
M  V30 2738 C 247.077 -3.38762 0.096698 0
M  V30 2739 C 246.25 -4.23307 1.10136 0
M  V30 2740 C 245.309 -5.24092 0.470513 0
M  V30 2741 O 244.335 -5.57906 1.12824 0
M  V30 2742 N 245.537 -5.75491 -0.760948 0
M  V30 2743 H 248.302 -2.48943 1.66875 0
M  V30 2744 H 245.863 -1.25834 1.01869 0
M  V30 2745 H 247.855 -4.03291 -0.337384 0
M  V30 2746 H 246.425 -3.04192 -0.720153 0
M  V30 2747 H 245.645 -3.55036 1.71299 0
M  V30 2748 H 246.933 -4.76624 1.78064 0
M  V30 2749 H 246.331 -5.50222 -1.31424 0
M  V30 2750 H 244.888 -6.41792 -1.13781 0
M  V30 2751 N 248.321 -0.919034 -1.28029 0
M  V30 2752 C 249.251 -0.428581 -2.29533 0
M  V30 2753 C 250.232 0.50659 -1.62381 0
M  V30 2754 O 251.417 0.413195 -1.89753 0
M  V30 2755 C 248.547 0.327388 -3.45753 0
M  V30 2756 C 247.501 -0.519137 -4.2484 0
M  V30 2757 C 246.827 0.365486 -5.33449 0
M  V30 2758 C 248.127 -1.77914 -4.91064 0
M  V30 2759 H 249.821 -1.27687 -2.70807 0
M  V30 2760 H 247.367 -0.615428 -1.30186 0
M  V30 2761 H 249.32 0.681378 -4.15855 0
M  V30 2762 H 248.044 1.20963 -3.03374 0
M  V30 2763 H 246.703 -0.855717 -3.56473 0
M  V30 2764 H 246.351 1.24642 -4.87312 0
M  V30 2765 H 246.051 -0.197356 -5.87268 0
M  V30 2766 H 247.575 0.715241 -6.06396 0
M  V30 2767 H 248.989 -1.49374 -5.53498 0
M  V30 2768 H 247.386 -2.2848 -5.54903 0
M  V30 2769 H 248.456 -2.50382 -4.15255 0
M  V30 2770 N 249.799 1.42003 -0.683588 0
M  V30 2771 C 251.21 1.84501 -0.285736 0
M  V30 2772 C 251.561 1.57213 1.17382 0
M  V30 2773 O 250.686 1.03642 1.89966 0
M  V30 2774 C 251.281 3.34912 -0.511821 0
M  V30 2775 C 249.84 3.76025 -0.168005 0
M  V30 2776 C 248.987 2.6551 -0.799983 0
M  V30 2777 H 251.938 1.31724 -0.885119 0
M  V30 2778 H 251.959 3.79784 0.233292 0
M  V30 2779 H 251.471 3.54741 -1.57418 0
M  V30 2780 H 249.572 3.61801 0.890567 0
M  V30 2781 H 249.685 4.75141 -0.614661 0
M  V30 2782 H 248.049 2.53654 -0.230568 0
M  V30 2783 H 248.832 2.8816 -1.86597 0
M  V30 2784 N 251.277 0.427512 1.51691 0
M  V30 2785 C 252.523 -0.142439 2.02299 0
M  V30 2786 C 252.856 -1.43214 1.31162 0
M  V30 2787 O 252.131 -1.89833 0.423511 0
M  V30 2788 C 252.414 -0.371301 3.58181 0
M  V30 2789 C 252.267 0.936358 4.39946 0
M  V30 2790 C 253.586 -1.14542 4.24933 0
M  V30 2791 H 250.705 -0.0502937 0.735282 0
M  V30 2792 H 253.347 0.564584 1.81418 0
M  V30 2793 H 251.497 -0.973559 3.76104 0
M  V30 2794 H 253.169 1.57184 4.33694 0
M  V30 2795 H 251.412 1.5432 4.05423 0
M  V30 2796 H 252.083 0.730388 5.47147 0
M  V30 2797 H 254.559 -0.635362 4.11221 0
M  V30 2798 H 253.435 -1.27431 5.33903 0
M  V30 2799 H 253.696 -2.17093 3.85127 0
M  V30 2800 N 252.755 -1.56801 0.158532 0
M  V30 2801 C 253.703 -2.18638 -0.793729 0
M  V30 2802 C 254.697 -1.14669 -1.24689 0
M  V30 2803 O 255.903 -1.32895 -1.21403 0
M  V30 2804 H 252.278 -0.700226 -0.274204 0
M  V30 2805 H 254.249 -2.97367 -0.248095 0
M  V30 2806 C 252.998 -2.83139 -2.0181 0
M  V30 2807 H 252.321 -3.62863 -1.67841 0
M  V30 2808 H 253.761 -3.29894 -2.66357 0
M  V30 2809 C 252.22 -1.82244 -2.83353 0
M  V30 2810 O 252.75 -1.3 -3.80083 0
M  V30 2811 N 250.956 -1.51288 -2.48114 0
M  V30 2812 H 250.503 -1.93964 -1.69516 0
M  V30 2813 H 250.461 -0.840296 -3.02963 0
M  V30 2814 N 254.233 0.115231 -1.57178 0
M  V30 2815 C 255.166 1.17166 -1.95825 0
M  V30 2816 C 256.144 1.39912 -0.828463 0
M  V30 2817 O 257.328 1.54004 -1.08697 0
M  V30 2818 C 254.455 2.52478 -2.25771 0
M  V30 2819 C 253.501 2.46136 -3.48309 0
M  V30 2820 S 254.334 1.89736 -5.0076 0
M  V30 2821 C 255.49 3.26713 -5.33863 0
M  V30 2822 H 255.723 0.842103 -2.85124 0
M  V30 2823 H 253.256 0.322136 -1.51002 0
M  V30 2824 H 255.214 3.30332 -2.43702 0
M  V30 2825 H 253.875 2.82609 -1.37079 0
M  V30 2826 H 253.068 3.45819 -3.66641 0
M  V30 2827 H 252.67 1.76404 -3.29784 0
M  V30 2828 H 254.962 4.22935 -5.29275 0
M  V30 2829 H 255.905 3.13205 -6.35065 0
M  V30 2830 H 256.313 3.25316 -4.61335 0
M  V30 2831 N 255.711 1.52812 0.385517 0
M  V30 2832 C 257.127 1.4214 0.725829 0
M  V30 2833 C 257.327 0.544589 1.94001 0
M  V30 2834 O 256.383 0.0193693 2.52493 0
M  V30 2835 C 257.696 2.85042 0.957668 0
M  V30 2836 C 259.244 2.94543 1.05892 0
M  V30 2837 C 259.719 4.38464 1.32337 0
M  V30 2838 N 261.21 4.41804 1.39151 0
M  V30 2839 C 261.945 5.5025 1.61285 0
M  V30 2840 N 261.441 6.68775 1.80866 0
M  V30 2841 N 263.234 5.37798 1.63492 0
M  V30 2842 H 255.385 2.08338 -0.413383 0
M  V30 2843 H 257.648 0.940016 -0.122775 0
M  V30 2844 H 257.354 3.51431 0.137568 0
M  V30 2845 H 257.228 3.27505 1.87137 0
M  V30 2846 H 259.615 2.28321 1.86959 0
M  V30 2847 H 259.696 2.55504 0.123057 0
M  V30 2848 H 259.34 5.05254 0.517793 0
M  V30 2849 H 259.27 4.75059 2.27214 0
M  V30 2850 H 261.761 3.56377 1.25713 0
M  V30 2851 H 262.074 7.47197 1.97271 0
M  V30 2852 H 260.419 6.71797 1.78083 0
M  V30 2853 H 263.61 4.44171 1.47749 0
M  V30 2854 H 263.783 6.22382 1.80402 0
M  V30 2855 N 257.189 -0.644168 1.43834 0
M  V30 2856 C 258.414 -1.43642 1.49605 0
M  V30 2857 C 258.839 -1.8773 0.117913 0
M  V30 2858 O 258.197 -1.57938 -0.890239 0
M  V30 2859 C 258.245 -2.6416 2.45463 0
M  V30 2860 O 257.349 -3.63538 1.94714 0
M  V30 2861 H 256.69 -0.430329 0.50568 0
M  V30 2862 H 259.22 -0.787448 1.8884 0
M  V30 2863 H 259.23 -3.11864 2.63068 0
M  V30 2864 H 257.905 -2.31414 3.45572 0
M  V30 2865 H 256.482 -3.2273 1.86814 0
M  V30 2866 N 258.668 -1.30515 -0.883378 0
M  V30 2867 C 259.578 -1.18959 -2.02203 0
M  V30 2868 C 260.594 -0.109172 -1.73657 0
M  V30 2869 O 261.77 -0.324413 -1.9877 0
M  V30 2870 C 258.835 -0.883871 -3.35244 0
M  V30 2871 C 257.896 -2.04982 -3.77201 0
M  V30 2872 C 257.129 -1.75859 -5.03894 0
M  V30 2873 O 257.352 -0.687276 -5.66244 0
M  V30 2874 O 256.286 -2.61146 -5.42297 0
M  V30 2875 H 260.112 -2.14616 -2.1488 0
M  V30 2876 H 257.697 -1.10124 -1.0096 0
M  V30 2877 H 259.579 -0.728644 -4.15053 0
M  V30 2878 H 258.254 0.0427798 -3.23672 0
M  V30 2879 H 257.161 -2.26038 -2.9809 0
M  V30 2880 H 258.494 -2.95825 -3.93381 0
M  V30 2881 N 260.146 1.09593 -1.13257 0
M  V30 2882 C 261.109 2.14359 -0.811358 0
M  V30 2883 C 262.109 1.59808 0.178377 0
M  V30 2884 O 263.299 1.74132 -0.0484911 0
M  V30 2885 C 260.431 3.40269 -0.207276 0
M  V30 2886 H 261.624 2.44284 -1.73969 0
M  V30 2887 H 259.177 1.25102 -0.936973 0
M  V30 2888 H 259.912 3.15969 0.73036 0
M  V30 2889 H 259.697 3.81154 -0.919992 0
M  V30 2890 H 261.187 4.176 0.000667944 0
M  V30 2891 N 261.624 0.925811 1.2754 0
M  V30 2892 C 262.871 0.565255 1.94451 0
M  V30 2893 C 263.199 -0.89316 1.7278 0
M  V30 2894 O 262.454 -1.65213 1.04895 0
M  V30 2895 C 262.753 0.835296 3.47502 0
M  V30 2896 C 262.419 2.27515 3.89291 0
M  V30 2897 C 261.081 2.66879 4.00411 0
M  V30 2898 C 263.433 3.21158 4.10496 0
M  V30 2899 C 260.761 3.99014 4.30122 0
M  V30 2900 C 263.113 4.52871 4.4169 0
M  V30 2901 C 261.777 4.92072 4.51023 0
M  V30 2902 H 261.047 0.206841 0.711546 0
M  V30 2903 H 263.694 1.16942 1.51647 0
M  V30 2904 H 261.999 0.148442 3.91519 0
M  V30 2905 H 263.696 0.535322 3.97411 0
M  V30 2906 H 260.286 1.95976 3.81171 0
M  V30 2907 H 264.47 2.9195 4.01346 0
M  V30 2908 H 259.726 4.2907 4.35556 0
M  V30 2909 H 263.9 5.25436 4.57045 0
M  V30 2910 H 261.527 5.9449 4.738 0
M  V30 2911 N 263.102 -1.41638 0.69111 0
M  V30 2912 C 264.33 -2.05628 0.22909 0
M  V30 2913 C 264.745 -1.51992 -1.11999 0
M  V30 2914 O 264.102 -0.666322 -1.69901 0
M  V30 2915 C 264.153 -3.61084 0.173283 0
M  V30 2916 O 263.874 -4.12735 1.46907 0
M  V30 2917 C 265.375 -4.42213 -0.310266 0
M  V30 2918 H 262.595 -0.662327 0.107534 0
M  V30 2919 H 265.139 -1.81489 0.942438 0
M  V30 2920 H 263.294 -3.84278 -0.490858 0
M  V30 2921 H 263.708 -5.06743 1.35322 0
M  V30 2922 H 265.182 -5.51194 -0.298196 0
M  V30 2923 H 265.659 -4.1799 -1.34838 0
M  V30 2924 H 266.265 -4.24074 0.322716 0
M  V30 2925 N 264.58 -0.43555 -1.51462 0
M  V30 2926 C 265.81 0.130053 -2.0619 0
M  V30 2927 C 266.218 1.37164 -1.30317 0
M  V30 2928 O 265.561 1.80225 -0.355598 0
M  V30 2929 C 265.623 0.519418 -3.55728 0
M  V30 2930 C 265.287 -0.615119 -4.52841 0
M  V30 2931 C 266.284 -1.48671 -4.9819 0
M  V30 2932 C 263.969 -0.795341 -4.95963 0
M  V30 2933 C 265.963 -2.52324 -5.8533 0
M  V30 2934 C 263.65 -1.83514 -5.82894 0
M  V30 2935 C 264.648 -2.69748 -6.27475 0
M  V30 2936 O 264.336 -3.71944 -7.1268 0
M  V30 2937 H 264.068 0.0121612 -0.675891 0
M  V30 2938 H 266.622 -0.6129 -1.96043 0
M  V30 2939 H 264.852 1.31505 -3.63653 0
M  V30 2940 H 266.541 1.01597 -3.92979 0
M  V30 2941 H 267.307 -1.359 -4.65571 0
M  V30 2942 H 263.186 -0.133713 -4.60806 0
M  V30 2943 H 266.73 -3.19665 -6.20048 0
M  V30 2944 H 262.627 -1.96306 -6.14926 0
M  V30 2945 H 263.395 -3.68503 -7.30854 0
M  V30 2946 N 266.058 1.56714 -0.166846 0
M  V30 2947 C 267.286 2.0112 0.485644 0
M  V30 2948 C 267.701 1.04705 1.57106 0
M  V30 2949 O 267.058 0.0471923 1.82439 0
M  V30 2950 C 267.109 3.45361 1.06808 0
M  V30 2951 O 266.83 4.38092 0.0259995 0
M  V30 2952 C 268.331 4.05145 1.79924 0
M  V30 2953 H 265.551 0.65931 0.124704 0
M  V30 2954 H 268.095 2.02746 -0.267262 0
M  V30 2955 H 266.25 3.44524 1.7715 0
M  V30 2956 H 266.664 5.22519 0.455398 0
M  V30 2957 H 268.138 5.08009 2.15942 0
M  V30 2958 H 268.615 3.46982 2.69258 0
M  V30 2959 H 269.221 4.09672 1.14234 0
M  V30 2960 N 267.536 -0.106894 1.57237 0
M  V30 2961 C 268.761 -0.830287 1.90055 0
M  V30 2962 C 269.186 -1.72064 0.75998 0
M  V30 2963 O 268.544 -1.78982 -0.288991 0
M  V30 2964 C 268.592 -1.6295 3.21683 0
M  V30 2965 O 267.696 -2.73748 3.08441 0
M  V30 2966 H 267.037 -0.228855 0.623315 0
M  V30 2967 H 269.567 -0.085658 2.04421 0
M  V30 2968 H 269.577 -2.01621 3.54701 0
M  V30 2969 H 268.252 -0.975989 4.04286 0
M  V30 2970 H 266.829 -2.38192 2.86913 0
M  V30 2971 N 269.014 -1.53014 -0.377408 0
M  V30 2972 C 269.924 -1.81557 -1.48574 0
M  V30 2973 C 270.94 -0.703102 -1.59162 0
M  V30 2974 O 272.116 -0.99192 -1.75279 0
M  V30 2975 C 269.181 -1.9889 -2.83978 0
M  V30 2976 C 268.242 -3.22801 -2.83016 0
M  V30 2977 C 267.475 -3.39298 -4.11962 0
M  V30 2978 O 267.698 -2.60345 -5.0752 0
M  V30 2979 O 266.632 -4.32604 -4.18494 0
M  V30 2980 H 270.458 -2.75695 -1.27382 0
M  V30 2981 H 268.043 -1.38248 -0.566373 0
M  V30 2982 H 269.925 -2.11931 -3.6423 0
M  V30 2983 H 268.6 -1.07942 -3.05172 0
M  V30 2984 H 267.507 -3.15193 -2.01505 0
M  V30 2985 H 268.84 -4.13632 -2.66775 0
M  V30 2986 N 270.492 0.636531 -1.44174 0
M  V30 2987 C 271.442 1.74233 -1.47061 0
M  V30 2988 C 272.426 1.57331 -0.337034 0
M  V30 2989 O 273.618 1.67159 -0.581973 0
M  V30 2990 C 270.747 3.12897 -1.41246 0
M  V30 2991 C 269.833 3.35288 -2.59698 0
M  V30 2992 N 270.224 3.2807 -3.84972 0
M  V30 2993 C 268.522 3.66065 -2.54778 0
M  V30 2994 C 269.223 3.51001 -4.63867 0
M  V30 2995 N 268.199 3.73616 -3.94857 0
M  V30 2996 H 272.001 1.67103 -2.41773 0
M  V30 2997 H 269.515 0.838806 -1.3906 0
M  V30 2998 H 271.512 3.92189 -1.41398 0
M  V30 2999 H 270.172 3.21197 -0.47569 0
M  V30 3000 H 271.183 3.07109 -4.17019 0
M  V30 3001 H 267.86 3.81379 -1.6987 0
M  V30 3002 H 269.25 3.51059 -5.72894 0
M  V30 3003 N 271.97 1.30982 0.876444 0
M  V30 3004 C 273.381 1.18277 1.44456 0
M  V30 3005 C 273.732 -0.213265 1.95037 0
M  V30 3006 O 272.857 -1.11057 1.85729 0
M  V30 3007 C 273.452 2.1411 2.62569 0
M  V30 3008 C 272.011 2.05358 3.15444 0
M  V30 3009 C 271.158 2.03706 1.88146 0
M  V30 3010 H 274.109 1.43127 0.685584 0
M  V30 3011 H 274.13 1.72692 3.39054 0
M  V30 3012 H 273.642 3.15706 2.25724 0
M  V30 3013 H 271.743 1.06934 3.56926 0
M  V30 3014 H 271.856 2.94156 3.78166 0
M  V30 3015 H 270.22 1.48629 2.06837 0
M  V30 3016 H 271.003 3.07047 1.53547 0
M  V30 3017 N 273.449 -1.08991 1.13837 0
M  V30 3018 C 274.359 -2.19301 0.833333 0
M  V30 3019 C 275.375 -1.73026 -0.183847 0
M  V30 3020 O 276.551 -2.01395 -0.0138092 0
M  V30 3021 C 273.616 -3.45323 0.308651 0
M  V30 3022 C 272.677 -4.06255 1.38764 0
M  V30 3023 C 271.91 -5.26262 0.887896 0
M  V30 3024 O 272.133 -5.69747 -0.27287 0
M  V30 3025 O 271.067 -5.78435 1.66421 0
M  V30 3026 H 274.893 -2.47854 1.75506 0
M  V30 3027 H 272.478 -1.18012 0.916166 0
M  V30 3028 H 274.36 -4.21394 0.0216739 0
M  V30 3029 H 273.035 -3.18362 -0.585431 0
M  V30 3030 H 271.942 -3.318 1.72799 0
M  V30 3031 H 273.275 -4.37452 2.25602 0
M  V30 3032 N 274.927 -0.932562 -1.27047 0
M  V30 3033 C 276.175 -0.574422 -1.93765 0
M  V30 3034 C 276.496 0.887993 -1.73608 0
M  V30 3035 O 275.766 1.62999 -1.08665 0
M  V30 3036 H 274.346 -0.209451 -0.717035 0
M  V30 3037 H 277.008 -1.18601 -1.5466 0
M  V30 3038 H 276.104 -0.784841 -3.02071 0
M  V30 3039 N 276.405 1.4127 -0.698611 0
M  V30 3040 C 277.652 2.0118 -0.230865 0
M  V30 3041 C 277.98 1.55338 1.17049 0
M  V30 3042 O 277.235 0.756775 1.80475 0
M  V30 3043 C 277.534 3.56592 -0.240192 0
M  V30 3044 C 277.2 4.21955 -1.58948 0
M  V30 3045 C 275.862 4.39524 -1.95887 0
M  V30 3046 C 278.214 4.58576 -2.47704 0
M  V30 3047 C 275.542 4.90992 -3.2116 0
M  V30 3048 C 277.894 5.11435 -3.72313 0
M  V30 3049 C 276.558 5.27215 -4.0939 0
M  V30 3050 H 275.828 0.736169 -0.0844796 0
M  V30 3051 H 278.475 1.69124 -0.8983 0
M  V30 3052 H 276.78 3.88456 0.510797 0
M  V30 3053 H 278.477 4.00758 0.139296 0
M  V30 3054 H 275.067 4.08657 -1.29219 0
M  V30 3055 H 279.251 4.44654 -2.20445 0
M  V30 3056 H 274.507 5.01393 -3.49878 0
M  V30 3057 H 278.681 5.38752 -4.4127 0
M  V30 3058 H 276.308 5.66859 -5.06533 0
M  V30 3059 N 277.883 0.443576 1.51229 0
M  V30 3060 C 279.113 -0.119117 2.06256 0
M  V30 3061 C 279.521 -1.36471 1.31043 0
M  V30 3062 O 278.864 -1.80034 0.365151 0
M  V30 3063 C 278.926 -0.500546 3.55998 0
M  V30 3064 C 278.59 0.639125 4.52509 0
M  V30 3065 C 279.587 1.51311 4.97394 0
M  V30 3066 C 277.272 0.821632 4.95535 0
M  V30 3067 C 279.266 2.55425 5.83984 0
M  V30 3068 C 276.953 1.86603 5.81913 0
M  V30 3069 C 277.951 2.73072 6.26036 0
M  V30 3070 O 277.639 3.75718 7.10698 0
M  V30 3071 H 277.371 -0.00857665 0.675946 0
M  V30 3072 H 279.925 0.623288 1.95715 0
M  V30 3073 H 278.155 -1.29575 3.64345 0
M  V30 3074 H 279.844 -0.995116 3.93513 0
M  V30 3075 H 280.61 1.38367 4.64844 0
M  V30 3076 H 276.489 0.158149 4.60729 0
M  V30 3077 H 280.033 3.22949 6.18344 0
M  V30 3078 H 275.93 1.99564 6.13876 0
M  V30 3079 H 276.698 3.72374 7.2889 0
M  V30 3080 N 279.361 -1.56624 0.175154 0
M  V30 3081 C 280.309 -2.19468 -0.770495 0
M  V30 3082 C 281.303 -1.15985 -1.23466 0
M  V30 3083 O 282.509 -1.34176 -1.19987 0
M  V30 3084 H 278.884 -0.703095 -0.266761 0
M  V30 3085 H 280.855 -2.97613 -0.216542 0
M  V30 3086 C 279.604 -2.85264 -1.98796 0
M  V30 3087 H 278.927 -3.64623 -1.63983 0
M  V30 3088 H 280.367 -3.327 -2.62843 0
M  V30 3089 C 278.826 -1.85239 -2.81404 0
M  V30 3090 O 279.356 -1.34024 -3.78682 0
M  V30 3091 N 277.562 -1.53911 -2.46495 0
M  V30 3092 H 277.109 -1.95751 -1.67449 0
M  V30 3093 H 277.067 -0.872382 -3.02054 0
M  V30 3094 N 280.839 0.0985539 -1.57292 0
M  V30 3095 C 282.085 0.798769 -1.87059 0
M  V30 3096 C 282.44 1.76514 -0.76555 0
M  V30 3097 O 281.733 1.90181 0.232752 0
M  V30 3098 C 281.927 1.56927 -3.21105 0
M  V30 3099 C 281.756 0.679026 -4.44544 0
M  V30 3100 C 280.526 0.326071 -5.04247 0
M  V30 3101 C 282.724 -0.0124715 -5.14298 0
M  V30 3102 N 280.706 -0.572702 -6.11223 0
M  V30 3103 C 282.077 -0.769446 -6.15207 0
M  V30 3104 C 284.132 -0.0867545 -4.97824 0
M  V30 3105 C 282.835 -1.59376 -7.01421 0
M  V30 3106 C 284.861 -0.897955 -5.84543 0
M  V30 3107 C 284.223 -1.64306 -6.84969 0
M  V30 3108 H 280.322 0.268568 -0.734435 0
M  V30 3109 H 282.906 0.0614664 -1.94603 0
M  V30 3110 H 281.077 2.27748 -3.1462 0
M  V30 3111 H 282.809 2.21641 -3.38611 0
M  V30 3112 H 279.564 0.67295 -4.68795 0
M  V30 3113 H 279.988 -1.01454 -6.69355 0
M  V30 3114 H 284.63 0.474963 -4.20124 0
M  V30 3115 H 282.348 -2.16655 -7.78515 0
M  V30 3116 H 285.934 -0.958059 -5.73858 0
M  V30 3117 H 284.814 -2.26065 -7.50909 0
M  V30 3118 N 282.317 1.53212 0.369288 0
M  V30 3119 C 283.267 1.75769 1.45222 0
M  V30 3120 C 284.251 0.612136 1.48801 0
M  V30 3121 O 285.443 0.870674 1.54105 0
M  V30 3122 C 282.572 1.94769 2.82701 0
M  V30 3123 C 281.658 3.15315 2.83615 0
M  V30 3124 N 282.049 4.37295 2.54178 0
M  V30 3125 C 280.347 3.15962 3.14776 0
M  V30 3126 C 281.048 5.19015 2.62675 0
M  V30 3127 N 280.024 4.55142 2.97232 0
M  V30 3128 H 283.826 2.67691 1.2132 0
M  V30 3129 H 281.34 1.51787 0.577438 0
M  V30 3130 H 283.337 2.09056 3.60696 0
M  V30 3131 H 281.997 1.04073 3.07569 0
M  V30 3132 H 283.008 4.65091 2.27839 0
M  V30 3133 H 279.685 2.35144 3.44983 0
M  V30 3134 H 281.075 6.26305 2.43294 0
M  V30 3135 N 283.795 -0.628877 1.44509 0
M  V30 3136 C 284.745 -1.7345 1.47983 0
M  V30 3137 C 285.729 -1.5715 0.345373 0
M  V30 3138 O 286.921 -1.66848 0.590829 0
M  V30 3139 C 284.05 -3.12143 1.42904 0
M  V30 3140 C 283.136 -3.33906 2.61472 0
M  V30 3141 N 283.527 -3.26024 3.86706 0
M  V30 3142 C 281.825 -3.64709 2.56716 0
M  V30 3143 C 282.526 -3.48536 4.65722 0
M  V30 3144 N 281.502 -3.71517 3.96832 0
M  V30 3145 H 285.304 -1.65818 2.42655 0
M  V30 3146 H 282.818 -0.831419 1.39503 0
M  V30 3147 H 284.815 -3.91433 1.43476 0
M  V30 3148 H 283.475 -3.2094 0.492717 0
M  V30 3149 H 284.486 -3.04893 4.18641 0
M  V30 3150 H 281.163 -3.80473 1.71891 0
M  V30 3151 H 282.553 -3.48016 5.74747 0
M  V30 3152 N 285.273 -1.31445 -0.869486 0
M  V30 3153 C 286.521 -1.20918 -1.61936 0
M  V30 3154 C 286.842 0.232683 -1.93607 0
M  V30 3155 O 286.112 1.15352 -1.58338 0
M  V30 3156 H 284.692 -0.44454 -0.600328 0
M  V30 3157 H 287.354 -1.64776 -1.0409 0
M  V30 3158 H 286.45 -1.78124 -2.56278 0
M  V30 3159 N 286.751 1.08385 -1.14413 0
M  V30 3160 C 287.714 2.13486 -0.834048 0
M  V30 3161 C 288.714 1.59988 0.161418 0
M  V30 3162 O 289.904 1.74071 -0.0669575 0
M  V30 3163 C 287.036 3.4003 -0.243354 0
M  V30 3164 H 288.229 2.42425 -1.7655 0
M  V30 3165 H 285.782 1.24101 -0.950189 0
M  V30 3166 H 286.517 3.16726 0.696807 0
M  V30 3167 H 286.302 3.80157 -0.960367 0
M  V30 3168 H 287.792 4.17577 -0.0436242 0
M  V30 3169 N 288.23 0.939286 1.26551 0
M  V30 3170 C 289.476 0.586715 1.94128 0
M  V30 3171 C 289.809 -0.8717 1.73537 0
M  V30 3172 O 289.084 -1.62339 1.07127 0
M  V30 3173 C 289.367 0.927497 3.4795 0
M  V30 3174 C 289.22 2.44052 3.77834 0
M  V30 3175 C 290.539 0.441569 4.37879 0
M  V30 3176 H 287.658 0.21463 0.705055 0
M  V30 3177 H 290.3 1.17316 1.49455 0
M  V30 3178 H 288.45 0.428431 3.8613 0
M  V30 3179 H 290.122 3.01216 3.4938 0
M  V30 3180 H 288.365 2.8848 3.23978 0
M  V30 3181 H 289.036 2.62947 4.85348 0
M  V30 3182 H 291.512 0.869448 4.06915 0
M  V30 3183 H 290.388 0.708856 5.44304 0
M  V30 3184 H 290.649 -0.658467 4.37169 0
M  V30 3185 N 289.708 -1.40897 0.706093 0
M  V30 3186 C 290.64 -2.29199 0.00815776 0
M  V30 3187 C 291.653 -1.45336 -0.733582 0
M  V30 3188 O 292.842 -1.68727 -0.582537 0
M  V30 3189 C 289.942 -3.23417 -1.01265 0
M  V30 3190 C 289.115 -4.36089 -0.338387 0
M  V30 3191 C 288.174 -5.10811 -1.26326 0
M  V30 3192 O 287.2 -5.64215 -0.751651 0
M  V30 3193 N 288.402 -5.19269 -2.595 0
M  V30 3194 H 291.167 -2.89738 0.766297 0
M  V30 3195 H 288.728 -1.52164 0.55296 0
M  V30 3196 H 290.72 -3.70276 -1.63334 0
M  V30 3197 H 289.29 -2.64112 -1.67223 0
M  V30 3198 H 288.51 -3.91479 0.462352 0
M  V30 3199 H 289.798 -5.08634 0.130031 0
M  V30 3200 H 289.196 -4.77347 -3.03573 0
M  V30 3201 H 287.753 -5.69667 -3.16737 0
M  V30 3202 N 291.186 -0.45159 -1.50991 0
M  V30 3203 C 292.416 0.108177 -2.06317 0
M  V30 3204 C 292.824 1.35774 -1.31765 0
M  V30 3205 O 292.167 1.79838 -0.374694 0
M  V30 3206 C 292.229 0.481659 -3.56259 0
M  V30 3207 C 291.893 -0.663114 -4.52163 0
M  V30 3208 C 292.89 -1.53947 -4.96585 0
M  V30 3209 C 290.575 -0.8479 -4.95092 0
M  V30 3210 C 292.569 -2.58518 -5.82621 0
M  V30 3211 C 290.256 -1.89686 -5.80915 0
M  V30 3212 C 291.254 -2.76388 -6.24579 0
M  V30 3213 O 290.942 -3.79482 -7.08695 0
M  V30 3214 H 290.674 0.00499183 -0.675982 0
M  V30 3215 H 293.228 -0.633659 -1.95381 0
M  V30 3216 H 291.458 1.27641 -3.65027 0
M  V30 3217 H 293.147 0.974233 -3.94035 0
M  V30 3218 H 293.913 -1.4083 -4.64103 0
M  V30 3219 H 289.792 -0.18258 -4.60638 0
M  V30 3220 H 293.336 -3.26224 -6.16623 0
M  V30 3221 H 289.233 -2.02817 -6.12809 0
M  V30 3222 H 290.001 -3.76234 -7.26905 0
M  V30 3223 N 292.664 1.56529 -0.183458 0
M  V30 3224 C 293.889 2.02064 0.467428 0
M  V30 3225 C 294.314 1.06282 1.55196 0
M  V30 3226 O 293.672 0.0443565 1.81246 0
M  V30 3227 C 293.72 3.46122 1.01153 0
M  V30 3228 O 292.824 3.53437 2.12499 0
M  V30 3229 H 292.165 0.654726 0.110588 0
M  V30 3230 H 294.695 2.02521 -0.290917 0
M  V30 3231 H 294.705 3.85676 1.33108 0
M  V30 3232 H 293.38 4.15331 0.217533 0
M  V30 3233 H 291.957 3.2575 1.81497 0
M  V30 3234 N 294.142 -0.090211 1.57342 0
M  V30 3235 C 295.39 -0.791241 1.85967 0
M  V30 3236 C 295.711 -1.7903 0.772859 0
M  V30 3237 O 294.981 -1.94872 -0.200398 0
M  V30 3238 H 293.561 -0.295205 0.686195 0
M  V30 3239 H 296.223 -0.0706782 1.94772 0
M  V30 3240 H 295.319 -1.31882 2.82867 0
M  V30 3241 N 295.62 -1.53406 -0.361157 0
M  V30 3242 C 296.868 -1.69467 -1.10115 0
M  V30 3243 C 297.189 -0.451352 -1.89705 0
M  V30 3244 O 296.459 0.534636 -1.88463 0
M  V30 3245 H 295.039 -0.624749 -0.409508 0
M  V30 3246 H 297.701 -1.90609 -0.406699 0
M  V30 3247 H 296.797 -2.55774 -1.78847 0
M  V30 3248 N 297.098 0.621204 -1.44841 0
M  V30 3249 C 298.514 0.94048 -1.28946 0
M  V30 3250 C 298.714 2.00154 -0.23249 0
M  V30 3251 O 297.77 2.49651 0.378237 0
M  V30 3252 C 299.083 1.39433 -2.66419 0
M  V30 3253 C 300.631 1.50927 -2.74208 0
M  V30 3254 C 301.106 1.99692 -4.12174 0
M  V30 3255 N 302.597 2.06947 -4.144 0
M  V30 3256 C 303.332 2.45871 -5.1801 0
M  V30 3257 N 302.828 2.83862 -6.31977 0
M  V30 3258 N 304.621 2.46092 -5.05366 0
M  V30 3259 H 296.772 -0.0803548 -2.12248 0
M  V30 3260 H 299.035 0.0266913 -0.947624 0
M  V30 3261 H 298.741 0.688925 -3.44887 0
M  V30 3262 H 298.615 2.36347 -2.93973 0
M  V30 3263 H 301.002 2.20561 -1.96053 0
M  V30 3264 H 301.083 0.523627 -2.50383 0
M  V30 3265 H 300.727 1.30649 -4.90809 0
M  V30 3266 H 300.657 2.99146 -4.33381 0
M  V30 3267 H 303.148 1.80232 -3.32152 0
M  V30 3268 H 303.461 3.12405 -7.0684 0
M  V30 3269 H 301.806 2.8159 -6.35399 0
M  V30 3270 H 304.997 2.1581 -4.15384 0
M  V30 3271 H 305.17 2.76102 -5.86235 0
M  V30 3272 N 298.576 1.31904 0.862503 0
M  V30 3273 C 299.823 1.22017 1.61611 0
M  V30 3274 C 300.151 -0.21991 1.93253 0
M  V30 3275 O 299.406 -1.17076 1.56817 0
M  V30 3276 C 299.705 2.01713 2.95037 0
M  V30 3277 C 299.371 3.51145 2.82857 0
M  V30 3278 C 298.033 3.91889 2.79243 0
M  V30 3279 C 300.385 4.46204 2.69353 0
M  V30 3280 C 297.713 5.25947 2.59993 0
M  V30 3281 C 300.065 5.80397 2.5164 0
M  V30 3282 C 298.729 6.20352 2.46413 0
M  V30 3283 H 297.999 0.44649 0.591378 0
M  V30 3284 H 300.646 1.63248 1.00111 0
M  V30 3285 H 298.951 1.53185 3.60613 0
M  V30 3286 H 300.648 1.91437 3.52353 0
M  V30 3287 H 297.238 3.1878 2.86491 0
M  V30 3288 H 301.422 4.15652 2.71196 0
M  V30 3289 H 296.678 5.5597 2.54376 0
M  V30 3290 H 300.852 6.53676 2.40169 0
M  V30 3291 H 298.479 7.24172 2.31256 0
M  V30 3292 N 300.054 -1.07777 1.14986 0
M  V30 3293 C 301.282 -1.84018 0.945773 0
M  V30 3294 C 301.697 -1.81897 -0.505863 0
M  V30 3295 O 301.054 -1.22726 -1.35072 0
M  V30 3296 C 301.105 -3.31287 1.44677 0
M  V30 3297 O 300.826 -3.33449 2.84154 0
M  V30 3298 C 302.327 -4.24311 1.28355 0
M  V30 3299 H 299.547 -0.580716 0.336169 0
M  V30 3300 H 302.091 -1.36077 1.52654 0
M  V30 3301 H 300.246 -3.76594 0.908625 0
M  V30 3302 H 300.66 -4.25427 3.06777 0
M  V30 3303 H 302.134 -5.2573 1.68261 0
M  V30 3304 H 302.611 -4.38612 0.227184 0
M  V30 3305 H 303.217 -3.84836 1.81056 0
M  V30 3306 N 301.532 -0.945985 -1.26051 0
M  V30 3307 C 302.781 -0.591836 -1.92822 0
M  V30 3308 C 303.094 0.873956 -1.7499 0
M  V30 3309 O 304.3 1.33769 -2.36259 0
M  V30 3310 C 302.756 -1.00776 -3.45503 0
M  V30 3311 C 302.364 -2.4955 -3.7206 0
M  V30 3312 C 304.108 -0.725735 -4.1825 0
M  V30 3313 C 302.015 -2.84988 -5.18205 0
M  V30 3314 H 300.945 -0.217635 -0.721908 0
M  V30 3315 H 303.596 -1.14927 -1.43052 0
M  V30 3316 H 301.978 -0.378812 -3.94184 0
M  V30 3317 H 303.152 -3.1739 -3.34066 0
M  V30 3318 H 301.467 -2.75133 -3.12555 0
M  V30 3319 H 304.064 -0.966771 -5.25887 0
M  V30 3320 H 304.407 0.337639 -4.14929 0
M  V30 3321 H 304.94 -1.31463 -3.7545 0
M  V30 3322 H 301.679 -3.90307 -5.26631 0
M  V30 3323 H 301.199 -2.21813 -5.57278 0
M  V30 3324 H 302.878 -2.73712 -5.86252 0
M  V30 3325 N 303.011 1.40521 -0.713556 0
M  V30 3326 C 304.422 1.83853 -0.324807 0
M  V30 3327 C 304.773 1.59667 1.14021 0
M  V30 3328 O 303.898 1.07649 1.87725 0
M  V30 3329 C 304.493 3.33751 -0.582746 0
M  V30 3330 C 303.052 3.75584 -0.247727 0
M  V30 3331 C 302.199 2.63753 -0.856121 0
M  V30 3332 H 305.15 1.29817 -0.91286 0
M  V30 3333 H 305.171 3.80194 0.152682 0
M  V30 3334 H 304.683 3.51322 -1.64908 0
M  V30 3335 H 302.784 3.63608 0.813624 0
M  V30 3336 H 302.897 4.7373 -0.715307 0
M  V30 3337 H 301.261 2.53108 -0.28432 0
M  V30 3338 H 302.044 2.84137 -1.92668 0
M  V30 3339 N 304.489 0.459591 1.5075 0
M  V30 3340 C 305.905 0.113092 1.59199 0
M  V30 3341 C 306.105 -1.37951 1.46874 0
M  V30 3342 O 305.161 -2.15168 1.32132 0
M  V30 3343 C 306.474 0.653043 2.93523 0
M  V30 3344 C 308.022 0.615449 3.0689 0
M  V30 3345 C 308.497 1.13275 4.43771 0
M  V30 3346 N 309.988 1.09167 4.50152 0
M  V30 3347 C 310.723 1.46256 5.54434 0
M  V30 3348 N 310.219 1.90739 6.66026 0
M  V30 3349 N 312.012 1.37932 5.44914 0
M  V30 3350 H 304.163 1.43049 1.57005 0
M  V30 3351 H 306.426 0.590861 0.741341 0
M  V30 3352 H 306.132 1.69822 3.07983 0
M  V30 3353 H 306.006 0.0902132 3.77092 0
M  V30 3354 H 308.393 -0.420793 2.92084 0
M  V30 3355 H 308.474 1.21495 2.25106 0
M  V30 3356 H 308.118 2.16757 4.59324 0
M  V30 3357 H 308.048 0.509576 5.24129 0
M  V30 3358 H 310.539 0.76528 3.7007 0
M  V30 3359 H 310.852 2.17218 7.41644 0
M  V30 3360 H 309.197 1.94683 6.67176 0
M  V30 3361 H 312.388 1.0303 4.56621 0
M  V30 3362 H 312.561 1.67164 6.26067 0
M  V30 3363 N 305.967 -1.56429 0.191757 0
M  V30 3364 C 307.215 -1.97095 -0.447006 0
M  V30 3365 C 307.536 -1.07967 -1.62383 0
M  V30 3366 O 306.806 -0.150248 -1.95323 0
M  V30 3367 H 305.386 -0.727832 -0.168135 0
M  V30 3368 H 308.048 -1.92911 0.27771 0
M  V30 3369 H 307.144 -3.01848 -0.793371 0
M  V30 3370 N 307.445 0.0818655 -1.57387 0
M  V30 3371 C 308.691 0.784074 -1.8703 0
M  V30 3372 C 309.024 1.77729 -0.782689 0
M  V30 3373 O 308.299 1.93384 0.208051 0
M  V30 3374 C 308.582 1.50105 -3.27323 0
M  V30 3375 C 308.435 0.524925 -4.46727 0
M  V30 3376 C 309.754 2.44843 -3.65705 0
M  V30 3377 H 306.873 0.283582 -0.680257 0
M  V30 3378 H 309.515 0.0474352 -1.89941 0
M  V30 3379 H 307.665 2.12897 -3.24972 0
M  V30 3380 H 309.337 -0.0970111 -4.61198 0
M  V30 3381 H 307.58 -0.160606 -4.33503 0
M  V30 3382 H 308.251 1.064 -5.41648 0
M  V30 3383 H 310.727 1.92135 -3.69085 0
M  V30 3384 H 309.603 2.92018 -4.64776 0
M  V30 3385 H 309.864 3.29197 -2.95096 0
M  V30 3386 N 308.923 1.53595 0.353017 0
M  V30 3387 C 310.171 1.70049 1.09215 0
M  V30 3388 C 310.492 0.461406 1.89463 0
M  V30 3389 O 309.762 -0.524633 1.88744 0
M  V30 3390 H 308.342 0.626912 0.40619 0
M  V30 3391 H 311.004 1.90822 0.396585 0
M  V30 3392 H 310.1 2.56718 1.77488 0
M  V30 3393 N 310.401 -0.613514 1.45168 0
M  V30 3394 C 311.649 -1.36997 1.48581 0
M  V30 3395 C 311.97 -1.94589 0.126545 0
M  V30 3396 O 311.24 -1.76816 -0.843372 0
M  V30 3397 H 309.82 -0.508558 0.547154 0
M  V30 3398 H 312.482 -0.720853 1.81079 0
M  V30 3399 H 311.578 -2.1924 2.22127 0
M  V30 3400 N 311.879 -1.3236 -0.855495 0
M  V30 3401 C 313.295 -1.11332 -1.14356 0
M  V30 3402 C 313.495 0.106751 -2.01217 0
M  V30 3403 O 312.551 0.791891 -2.39761 0
M  V30 3404 C 313.864 -2.39237 -1.82171 0
M  V30 3405 C 315.412 -2.44986 -1.9481 0
M  V30 3406 C 315.887 -3.7281 -2.66039 0
M  V30 3407 N 317.378 -3.73787 -2.73565 0
M  V30 3408 C 318.113 -4.69394 -3.29327 0
M  V30 3409 N 317.609 -5.75367 -3.85907 0
M  V30 3410 N 319.402 -4.56893 -3.27423 0
M  V30 3411 H 311.553 -2.10586 -0.277027 0
M  V30 3412 H 313.816 -0.929701 -0.185364 0
M  V30 3413 H 313.522 -3.28431 -1.25802 0
M  V30 3414 H 313.396 -2.50134 -2.82335 0
M  V30 3415 H 315.783 -1.56252 -2.50338 0
M  V30 3416 H 315.864 -2.38043 -0.936448 0
M  V30 3417 H 315.508 -4.61918 -2.11174 0
M  V30 3418 H 315.438 -3.77024 -3.67642 0
M  V30 3419 H 317.929 -2.97189 -2.33424 0
M  V30 3420 H 318.242 -6.44378 -4.26611 0
M  V30 3421 H 316.587 -5.79123 -3.84242 0
M  V30 3422 H 319.778 -3.73269 -2.82467 0
M  V30 3423 H 319.951 -5.31577 -3.7058 0
M  V30 3424 N 313.357 1.07166 -1.15556 0
M  V30 3425 C 314.605 1.79443 -0.929764 0
M  V30 3426 C 314.926 1.87246 0.544414 0
M  V30 3427 O 314.196 1.37473 1.39564 0
M  V30 3428 H 312.776 0.664625 -0.341003 0
M  V30 3429 H 315.438 1.29499 -1.45657 0
M  V30 3430 H 314.534 2.81832 -1.34079 0
M  V30 3431 N 314.835 0.952656 1.25548 0
M  V30 3432 C 316.112 0.523818 1.88456 0
M  V30 3433 C 316.492 -0.998871 1.85973 0
M  V30 3434 O 315.84 -1.86381 1.3219 0
M  V30 3435 C 316.05 1.0982 3.31271 0
M  V30 3436 C 317.398 1.17385 4.08051 0
M  V30 3437 O 318.422 1.04961 3.40384 0
M  V30 3438 O 317.281 1.36852 5.29088 0
M  V30 3439 H 314.375 0.172485 0.808813 0
M  V30 3440 H 316.921 1.04596 1.33633 0
M  V30 3441 H 315.693 2.1415 3.27499 0
M  V30 3442 H 315.316 0.559191 3.93648 0
M  V30 3443 N 316.313 -1.40141 0.720998 0
M  V30 3444 C 317.538 -2.05618 0.271258 0
M  V30 3445 C 317.963 -1.53978 -1.08039 0
M  V30 3446 O 317.321 -0.677463 -1.68167 0
M  V30 3447 C 317.369 -3.59609 0.267197 0
M  V30 3448 O 316.473 -4.05526 -0.749814 0
M  V30 3449 H 315.814 -0.651904 0.126162 0
M  V30 3450 H 318.344 -1.79439 0.982997 0
M  V30 3451 H 318.354 -4.0786 0.106744 0
M  V30 3452 H 317.029 -3.96559 1.25354 0
M  V30 3453 H 315.606 -3.68722 -0.556644 0
M  V30 3454 N 317.792 -0.46758 -1.50504 0
M  V30 3455 C 319.04 0.0884469 -2.01906 0
M  V30 3456 C 319.361 1.40532 -1.35188 0
M  V30 3457 O 318.631 1.89515 -0.496079 0
M  V30 3458 H 317.211 0.0356765 -0.746148 0
M  V30 3459 H 319.873 -0.6172 -1.84869 0
M  V30 3460 H 318.969 0.2425 -3.11156 0
M  V30 3461 N 319.27 1.56325 -0.20005 0
M  V30 3462 C 320.686 1.58839 0.155716 0
M  V30 3463 C 320.886 1.21636 1.60645 0
M  V30 3464 O 319.942 0.941437 2.34293 0
M  V30 3465 C 321.255 3.0032 -0.151124 0
M  V30 3466 C 322.803 3.12866 -0.0916284 0
M  V30 3467 C 323.278 4.56488 -0.371845 0
M  V30 3468 N 324.769 4.62089 -0.320641 0
M  V30 3469 C 325.504 5.71116 -0.511243 0
M  V30 3470 N 325 6.88592 -0.762461 0
M  V30 3471 N 326.793 5.60335 -0.445157 0
M  V30 3472 H 318.944 1.78788 -1.14668 0
M  V30 3473 H 321.207 0.829996 -0.458051 0
M  V30 3474 H 320.913 3.32117 -1.15721 0
M  V30 3475 H 320.787 3.73257 0.543986 0
M  V30 3476 H 323.174 2.80878 0.905065 0
M  V30 3477 H 323.255 2.42304 -0.81989 0
M  V30 3478 H 322.899 4.89189 -1.36588 0
M  V30 3479 H 322.829 5.25246 0.377362 0
M  V30 3480 H 325.32 3.77665 -0.13329 0
M  V30 3481 H 325.633 7.67581 -0.896576 0
M  V30 3482 H 323.978 6.90387 -0.799412 0
M  V30 3483 H 327.169 4.67436 -0.249278 0
M  V30 3484 H 327.342 6.45243 -0.597116 0
M  V30 3485 N 320.748 -0.0735177 1.57428 0
M  V30 3486 C 322.159 -0.625551 1.75908 0
M  V30 3487 C 322.51 -1.78 0.825261 0
M  V30 3488 O 321.635 -2.16398 0.00893964 0
M  V30 3489 C 322.23 -1.14155 3.18989 0
M  V30 3490 C 320.789 -1.63946 3.38819 0
M  V30 3491 C 319.936 -0.558151 2.71625 0
M  V30 3492 H 322.887 0.152647 1.57964 0
M  V30 3493 H 322.908 -2.0104 3.23053 0
M  V30 3494 H 322.42 -0.301116 3.8693 0
M  V30 3495 H 320.521 -2.50321 2.7599 0
M  V30 3496 H 320.634 -1.71759 4.47253 0
M  V30 3497 H 318.998 -1.00278 2.34129 0
M  V30 3498 H 319.781 0.272071 3.4222 0
M  V30 3499 N 322.226 -1.5378 -0.344866 0
M  V30 3500 C 323.475 -1.7018 -1.08267 0
M  V30 3501 C 323.788 -0.471 -1.89845 0
M  V30 3502 O 324.994 -0.515917 -2.66553 0
M  V30 3503 C 323.45 -3.00923 -1.97417 0
M  V30 3504 C 323.058 -4.31335 -1.21053 0
M  V30 3505 C 324.802 -3.26688 -2.71063 0
M  V30 3506 C 322.709 -5.53153 -2.09225 0
M  V30 3507 H 321.639 -0.634138 -0.407903 0
M  V30 3508 H 324.29 -1.8028 -0.342246 0
M  V30 3509 H 322.672 -2.84676 -2.75274 0
M  V30 3510 H 323.846 -4.58281 -0.481159 0
M  V30 3511 H 322.161 -4.12173 -0.591813 0
M  V30 3512 H 324.758 -4.1489 -3.37299 0
M  V30 3513 H 325.101 -2.43639 -3.37558 0
M  V30 3514 H 325.634 -3.43705 -2.0028 0
M  V30 3515 H 322.373 -6.38741 -1.47274 0
M  V30 3516 H 321.893 -5.30458 -2.79955 0
M  V30 3517 H 323.572 -5.88744 -2.68308 0
M  V30 3518 N 323.704 0.605807 -1.45491 0
M  V30 3519 C 324.637 1.73022 -1.48791 0
M  V30 3520 C 325.615 1.58917 -0.344112 0
M  V30 3521 O 326.799 1.80453 -0.544876 0
M  V30 3522 C 323.926 3.10865 -1.34463 0
M  V30 3523 C 322.972 3.43554 -2.5273 0
M  V30 3524 S 323.805 3.38196 -4.15191 0
M  V30 3525 C 324.961 4.78616 -4.03333 0
M  V30 3526 H 325.194 1.69961 -2.43928 0
M  V30 3527 H 322.727 0.782611 -1.33096 0
M  V30 3528 H 324.685 3.90398 -1.26884 0
M  V30 3529 H 323.346 3.1144 -0.40794 0
M  V30 3530 H 322.539 4.43924 -2.38637 0
M  V30 3531 H 322.141 2.71541 -2.5718 0
M  V30 3532 H 324.433 5.68463 -3.68587 0
M  V30 3533 H 325.376 4.97767 -5.03621 0
M  V30 3534 H 325.784 4.54381 -3.34959 0
M  V30 3535 N 325.182 1.32811 0.848464 0
M  V30 3536 C 326.459 1.14334 1.58704 0
M  V30 3537 C 326.839 -0.293948 2.09043 0
M  V30 3538 O 326.187 -1.29153 1.88499 0
M  V30 3539 C 326.397 2.17626 2.72837 0
M  V30 3540 C 327.745 2.51282 3.42261 0
M  V30 3541 O 328.769 2.16219 2.83068 0
M  V30 3542 O 327.628 3.11413 4.49093 0
M  V30 3543 H 324.722 0.441601 0.699226 0
M  V30 3544 H 327.268 1.44362 0.892053 0
M  V30 3545 H 326.04 3.14211 2.3321 0
M  V30 3546 H 325.663 1.88628 3.50008 0
M  V30 3547 N 326.66 -1.06551 1.16123 0
M  V30 3548 C 327.608 -2.16063 0.861371 0
M  V30 3549 C 328.602 -1.6856 -0.168517 0
M  V30 3550 O 329.808 -1.79986 -0.0227579 0
M  V30 3551 H 326.183 -0.705278 0.260934 0
M  V30 3552 H 328.154 -2.38567 1.79244 0
M  V30 3553 C 326.903 -3.45661 0.376018 0
M  V30 3554 H 326.226 -3.82604 1.15992 0
M  V30 3555 H 327.666 -4.23504 0.204951 0
M  V30 3556 C 326.125 -3.24546 -0.903954 0
M  V30 3557 O 326.655 -3.49865 -1.97377 0
M  V30 3558 N 324.861 -2.77992 -0.846679 0
M  V30 3559 H 324.408 -2.57589 0.0241017 0
M  V30 3560 H 324.366 -2.64244 -1.70359 0
M  V30 3561 N 328.138 -0.959301 -1.25041 0
M  V30 3562 C 329.363 -0.633507 -1.97488 0
M  V30 3563 C 329.788 0.788555 -1.70773 0
M  V30 3564 O 329.146 1.53394 -0.966431 0
M  V30 3565 C 329.194 -0.904057 -3.49083 0
M  V30 3566 O 328.298 0.0147939 -4.12397 0
M  V30 3567 H 327.639 -0.240368 -0.618966 0
M  V30 3568 H 330.169 -1.28717 -1.59038 0
M  V30 3569 H 330.179 -0.832203 -3.99423 0
M  V30 3570 H 328.854 -1.94048 -3.67856 0
M  V30 3571 H 327.431 -0.109664 -3.72739 0
M  V30 3572 N 329.616 1.39756 -0.72842 0
M  V30 3573 C 330.864 2.00248 -0.272946 0
M  V30 3574 C 331.185 1.58077 1.14178 0
M  V30 3575 O 330.455 0.826014 1.77634 0
M  V30 3576 H 329.035 0.740554 -0.0979247 0
M  V30 3577 H 331.697 1.70903 -0.936912 0
M  V30 3578 H 330.793 3.10495 -0.316142 0
M  V30 3579 N 331.094 0.475555 1.50254 0
M  V30 3580 C 332.51 0.12997 1.5907 0
M  V30 3581 C 332.71 -1.36385 1.48328 0
M  V30 3582 O 331.766 -2.13754 1.34407 0
M  V30 3583 C 333.079 0.684139 2.92814 0
M  V30 3584 C 334.627 0.647965 3.0622 0
M  V30 3585 C 335.102 1.17975 4.42545 0
M  V30 3586 N 336.593 1.13936 4.48969 0
M  V30 3587 C 337.328 1.52129 5.52851 0
M  V30 3588 N 336.824 1.97793 6.63965 0
M  V30 3589 N 338.617 1.43704 5.4342 0
M  V30 3590 H 330.768 1.44706 1.55479 0
M  V30 3591 H 333.031 0.598691 0.735033 0
M  V30 3592 H 332.737 1.73079 3.06164 0
M  V30 3593 H 332.611 0.130204 3.76975 0
M  V30 3594 H 334.998 -0.38979 2.92514 0
M  V30 3595 H 335.079 1.23876 2.23805 0
M  V30 3596 H 334.723 2.21616 4.57 0
M  V30 3597 H 334.653 0.565138 5.23559 0
M  V30 3598 H 337.144 0.804488 3.69238 0
M  V30 3599 H 337.457 2.25072 7.39299 0
M  V30 3600 H 335.802 2.01749 6.65073 0
M  V30 3601 H 338.993 1.07867 4.55502 0
M  V30 3602 H 339.166 1.73794 6.24259 0
M  V30 3603 N 332.573 -1.56217 0.208337 0
M  V30 3604 C 333.819 -1.98242 -0.427552 0
M  V30 3605 C 334.152 -1.09554 -1.60348 0
M  V30 3606 O 333.427 -0.15035 -1.93918 0
M  V30 3607 C 333.71 -3.4931 -0.874907 0
M  V30 3608 C 333.563 -4.48773 0.303751 0
M  V30 3609 C 334.882 -4.04424 -1.73577 0
M  V30 3610 H 332.001 -0.720744 -0.153936 0
M  V30 3611 H 334.643 -1.87586 0.30192 0
M  V30 3612 H 332.793 -3.58522 -1.49648 0
M  V30 3613 H 334.465 -4.51586 0.941682 0
M  V30 3614 H 332.708 -4.23194 0.953375 0
M  V30 3615 H 333.379 -5.51976 -0.0519883 0
M  V30 3616 H 335.855 -3.98075 -1.21143 0
M  V30 3617 H 334.731 -5.1047 -2.01771 0
M  V30 3618 H 334.992 -3.50494 -2.69456 0
M  V30 3619 N 334.051 0.0651679 -1.57465 0
M  V30 3620 C 335.297 0.764193 -1.87851 0
M  V30 3621 C 335.63 1.76889 -0.801495 0
M  V30 3622 O 334.905 1.93594 0.187528 0
M  V30 3623 C 335.188 1.46625 -3.28897 0
M  V30 3624 C 335.041 0.477515 -4.47258 0
M  V30 3625 C 336.36 2.4095 -3.68281 0
M  V30 3626 H 333.479 0.276351 -0.683227 0
M  V30 3627 H 336.121 0.0272868 -1.8998 0
M  V30 3628 H 334.271 2.09438 -3.27212 0
M  V30 3629 H 335.943 -0.145922 -4.61069 0
M  V30 3630 H 334.186 -0.206576 -4.33308 0
M  V30 3631 H 334.857 1.0065 -5.42746 0
M  V30 3632 H 337.333 1.88209 -3.71102 0
M  V30 3633 H 336.209 2.87072 -4.67847 0
M  V30 3634 H 336.47 3.26049 -2.98571 0
M  V30 3635 N 335.529 1.53961 0.336706 0
M  V30 3636 C 336.492 1.81724 1.39675 0
M  V30 3637 C 337.492 0.688532 1.45313 0
M  V30 3638 O 338.682 0.956829 1.45569 0
M  V30 3639 C 335.814 1.96543 2.78538 0
M  V30 3640 H 337.007 2.76424 1.16318 0
M  V30 3641 H 334.56 1.45478 0.571474 0
M  V30 3642 H 335.295 1.0401 3.07168 0
M  V30 3643 H 335.08 2.78665 2.75841 0
M  V30 3644 H 336.57 2.19516 3.5525 0
M  V30 3645 N 337.007 -0.598083 1.45811 0
M  V30 3646 C 338.256 -1.35295 1.49594 0
M  V30 3647 C 338.569 -1.95057 0.145679 0
M  V30 3648 O 339.775 -2.71431 0.0612099 0
M  V30 3649 C 338.231 -2.45124 2.63519 0
M  V30 3650 C 337.839 -1.91732 4.04899 0
M  V30 3651 C 339.583 -3.2205 2.76558 0
M  V30 3652 C 337.49 -2.991 5.1019 0
M  V30 3653 H 336.42 -0.508552 0.556679 0
M  V30 3654 H 339.071 -0.639977 1.71978 0
M  V30 3655 H 337.453 -3.19149 2.34435 0
M  V30 3656 H 338.627 -1.24352 4.43704 0
M  V30 3657 H 336.942 -1.27522 3.96393 0
M  V30 3658 H 339.539 -4.0215 3.52391 0
M  V30 3659 H 339.882 -3.73663 1.83526 0
M  V30 3660 H 340.415 -2.55127 3.05213 0
M  V30 3661 H 337.154 -2.52393 6.04961 0
M  V30 3662 H 336.674 -3.65017 4.75944 0
M  V30 3663 H 338.353 -3.63318 5.35359 0
M  V30 3664 N 338.485 -1.33259 -0.841409 0
M  V30 3665 C 339.731 -1.24757 -1.59886 0
M  V30 3666 C 340.064 0.186913 -1.93298 0
M  V30 3667 O 339.339 1.12757 -1.5848 0
M  V30 3668 C 339.622 -2.12036 -2.91055 0
M  V30 3669 C 339.475 -3.63929 -2.6434 0
M  V30 3670 C 340.794 -1.9916 -3.92458 0
M  V30 3671 H 337.913 -0.454542 -0.580138 0
M  V30 3672 H 340.555 -1.63335 -0.970647 0
M  V30 3673 H 338.705 -1.79265 -3.44669 0
M  V30 3674 H 340.377 -4.06978 -2.17178 0
M  V30 3675 H 338.62 -3.85935 -1.98082 0
M  V30 3676 H 339.291 -4.20341 -3.57796 0
M  V30 3677 H 341.767 -2.27895 -3.48143 0
M  V30 3678 H 340.643 -2.62484 -4.82072 0
M  V30 3679 H 340.904 -0.963082 -4.31482 0
M  V30 3680 N 339.963 1.05934 -1.16686 0
M  V30 3681 C 340.893 2.1546 -0.899949 0
M  V30 3682 C 341.874 1.69391 0.155154 0
M  V30 3683 O 343.059 1.94199 0.00648693 0
M  V30 3684 C 340.189 3.44939 -0.404241 0
M  V30 3685 C 339.143 4.04536 -1.39767 0
M  V30 3686 C 338.469 5.29268 -0.760216 0
M  V30 3687 C 339.769 4.42893 -2.76845 0
M  V30 3688 H 341.463 2.38046 -1.81588 0
M  V30 3689 H 339.009 1.14404 -0.874514 0
M  V30 3690 H 340.962 4.20901 -0.204971 0
M  V30 3691 H 339.686 3.21983 0.547206 0
M  V30 3692 H 338.345 3.30635 -1.58355 0
M  V30 3693 H 337.993 5.02611 0.197831 0
M  V30 3694 H 337.693 5.70101 -1.42332 0
M  V30 3695 H 339.217 6.07924 -0.57105 0
M  V30 3696 H 340.631 5.09921 -2.62019 0
M  V30 3697 H 339.028 4.94721 -3.39663 0
M  V30 3698 H 340.098 3.53584 -3.31823 0
M  V30 3699 N 341.441 0.965919 1.2453 0
M  V30 3700 C 342.689 0.625593 1.92174 0
M  V30 3701 C 343.01 -0.841652 1.75901 0
M  V30 3702 O 342.28 -1.60061 1.12948 0
M  V30 3703 H 340.86 0.228388 0.71123 0
M  V30 3704 H 343.522 1.2266 1.51461 0
M  V30 3705 H 342.618 0.864653 2.99884 0
M  V30 3706 N 342.919 -1.39368 0.735821 0
M  V30 3707 C 344.167 -2.00101 0.283562 0
M  V30 3708 C 344.488 -1.5868 -1.13338 0
M  V30 3709 O 343.758 -0.835423 -1.77193 0
M  V30 3710 H 342.338 -0.740024 0.101851 0
M  V30 3711 H 345 -1.70404 0.945962 0
M  V30 3712 H 344.096 -3.10323 0.332604 0
M  V30 3713 N 344.397 -0.483516 -1.5 0
M  V30 3714 C 345.36 0.292965 -2.2732 0
M  V30 3715 C 346.36 0.909499 -1.32608 0
M  V30 3716 O 347.55 0.776745 -1.55924 0
M  V30 3717 C 344.682 1.41854 -3.09984 0
M  V30 3718 H 345.875 -0.385289 -2.97415 0
M  V30 3719 H 343.428 -0.237942 -1.54478 0
M  V30 3720 H 344.163 2.13148 -2.44414 0
M  V30 3721 H 343.948 0.982114 -3.79601 0
M  V30 3722 H 345.438 1.96597 -3.68429 0
M  V30 3723 N 345.875 1.56104 -0.216619 0
M  V30 3724 C 347.152 1.89988 0.465165 0
M  V30 3725 C 347.532 1.13326 1.78102 0
M  V30 3726 O 346.88 0.241033 2.27225 0
M  V30 3727 C 347.09 3.42646 0.662939 0
M  V30 3728 C 348.438 4.13311 0.972602 0
M  V30 3729 O 349.462 3.48217 0.749901 0
M  V30 3730 O 348.321 5.28396 1.39499 0
M  V30 3731 H 345.415 0.78979 0.245276 0
M  V30 3732 H 347.961 1.67721 -0.258436 0
M  V30 3733 H 346.733 3.90399 -0.26543 0
M  V30 3734 H 346.356 3.70677 1.43821 0
M  V30 3735 N 347.353 -0.0568162 1.57498 0
M  V30 3736 C 348.263 -1.08346 2.08083 0
M  V30 3737 C 349.279 -1.41439 1.01346 0
M  V30 3738 O 350.455 -1.51316 1.32912 0
M  V30 3739 C 347.52 -2.37352 2.52715 0
M  V30 3740 C 346.581 -2.11093 3.73816 0
M  V30 3741 C 345.814 -3.33949 4.1631 0
M  V30 3742 O 346.037 -4.43622 3.58547 0
M  V30 3743 O 344.971 -3.21279 5.08983 0
M  V30 3744 H 348.797 -0.683667 2.95905 0
M  V30 3745 H 346.382 -0.271965 1.46904 0
M  V30 3746 H 348.264 -3.13246 2.81877 0
M  V30 3747 H 346.939 -2.76681 1.68016 0
M  V30 3748 H 345.846 -1.32856 3.49714 0
M  V30 3749 H 347.179 -1.76637 4.59413 0
M  V30 3750 N 348.832 -1.54138 -0.328536 0
M  V30 3751 C 350.08 -1.71765 -1.06496 0
M  V30 3752 C 350.401 -0.49149 -1.88704 0
M  V30 3753 O 349.671 0.494539 -1.89555 0
M  V30 3754 H 348.251 -0.633295 -0.396164 0
M  V30 3755 H 350.913 -1.91429 -0.366176 0
M  V30 3756 H 350.009 -2.5951 -1.73381 0
M  V30 3757 N 350.31 0.590341 -1.46126 0
M  V30 3758 C 351.538 1.37504 -1.54597 0
M  V30 3759 C 351.953 1.87897 -0.184447 0
M  V30 3760 O 351.31 1.63192 0.816984 0
M  V30 3761 C 351.361 2.56779 -2.54454 0
M  V30 3762 O 351.082 2.08476 -3.85317 0
M  V30 3763 C 352.583 3.49427 -2.72792 0
M  V30 3764 H 349.803 0.420325 -0.523037 0
M  V30 3765 H 352.347 0.718383 -1.91467 0
M  V30 3766 H 350.502 3.1845 -2.20609 0
M  V30 3767 H 350.916 2.86097 -4.396 0
M  V30 3768 H 352.39 4.29619 -3.466 0
M  V30 3769 H 352.867 4.00876 -1.79429 0
M  V30 3770 H 353.473 2.93598 -3.07702 0
M  V30 3771 N 351.788 1.33704 0.83433 0
M  V30 3772 C 353.204 1.13137 1.12571 0
M  V30 3773 C 353.404 -0.0747261 2.01361 0
M  V30 3774 O 352.46 -0.753647 2.4099 0
M  V30 3775 C 353.773 2.42105 1.78342 0
M  V30 3776 C 355.321 2.48054 1.90888 0
M  V30 3777 C 355.796 3.76995 2.60075 0
M  V30 3778 N 357.287 3.78092 2.67584 0
M  V30 3779 C 358.022 4.74574 3.21818 0
M  V30 3780 N 357.518 5.81434 3.76705 0
M  V30 3781 N 359.311 4.62044 3.20112 0
M  V30 3782 H 351.462 2.11 0.243489 0
M  V30 3783 H 353.725 0.932532 0.17055 0
M  V30 3784 H 353.431 3.30391 1.20561 0
M  V30 3785 H 353.305 2.54594 2.7832 0
M  V30 3786 H 355.692 1.60215 2.47821 0
M  V30 3787 H 355.773 2.39502 0.898459 0
M  V30 3788 H 355.417 4.65219 2.03799 0
M  V30 3789 H 355.347 3.82825 3.61597 0
M  V30 3790 H 357.838 3.00865 2.28667 0
M  V30 3791 H 358.151 6.51084 4.16305 0
M  V30 3792 H 356.496 5.85163 3.7498 0
M  V30 3793 H 359.687 3.77716 2.76493 0
M  V30 3794 H 359.86 5.37406 3.62076 0
M  V30 3795 N 353.266 -1.05314 1.17247 0
M  V30 3796 C 354.494 -1.81971 0.984593 0
M  V30 3797 C 354.909 -1.82929 -0.467166 0
M  V30 3798 O 354.266 -1.25564 -1.32438 0
M  V30 3799 C 354.317 -3.28143 1.51672 0
M  V30 3800 O 354.038 -3.27347 2.91163 0
M  V30 3801 C 355.539 -4.21493 1.37326 0
M  V30 3802 H 352.759 -0.573455 0.348411 0
M  V30 3803 H 355.303 -1.32808 1.55506 0
M  V30 3804 H 353.458 -3.74582 0.988302 0
M  V30 3805 H 353.872 -4.18824 3.15732 0
M  V30 3806 H 355.346 -5.22043 1.79375 0
M  V30 3807 H 355.823 -4.38031 0.320169 0
M  V30 3808 H 356.429 -3.80909 1.89178 0
M  V30 3809 N 354.744 -0.972509 -1.24016 0
M  V30 3810 C 355.707 -0.511403 -2.23422 0
M  V30 3811 C 356.707 0.394679 -1.55881 0
M  V30 3812 O 357.897 0.189469 -1.73167 0
M  V30 3813 C 355.029 0.258769 -3.39916 0
M  V30 3814 H 356.222 -1.39024 -2.6573 0
M  V30 3815 H 353.775 -0.757585 -1.36713 0
M  V30 3816 H 354.51 1.1545 -3.03054 0
M  V30 3817 H 354.295 -0.391522 -3.9014 0
M  V30 3818 H 355.785 0.570244 -4.13688 0
M  V30 3819 N 356.222 1.38976 -0.743202 0
M  V30 3820 C 357.152 2.33171 -0.123873 0
M  V30 3821 C 358.133 1.54336 0.71516 0
M  V30 3822 O 359.318 1.82696 0.658467 0
M  V30 3823 C 356.448 3.38474 0.777978 0
M  V30 3824 C 355.402 4.27979 0.0424758 0
M  V30 3825 C 354.728 5.2405 1.06189 0
M  V30 3826 C 356.028 5.10155 -1.1198 0
M  V30 3827 H 357.722 2.85213 -0.910709 0
M  V30 3828 H 355.268 1.37133 -0.439388 0
M  V30 3829 H 357.221 4.03328 1.22084 0
M  V30 3830 H 355.945 2.84891 1.59702 0
M  V30 3831 H 354.604 3.64616 -0.380853 0
M  V30 3832 H 354.252 4.66758 1.87472 0
M  V30 3833 H 353.952 5.84785 0.574485 0
M  V30 3834 H 355.476 5.9178 1.50428 0
M  V30 3835 H 356.89 5.68307 -0.75499 0
M  V30 3836 H 355.287 5.80073 -1.53738 0
M  V30 3837 H 356.357 4.44504 -1.93764 0
M  V30 3838 N 357.7 0.491464 1.49741 0
M  V30 3839 C 358.925 -0.0557177 2.07325 0
M  V30 3840 C 359.35 -1.30925 1.35056 0
M  V30 3841 O 358.708 -1.76733 0.404365 0
M  V30 3842 C 358.756 -0.302074 3.59333 0
M  V30 3843 O 357.86 -1.37868 3.88672 0
M  V30 3844 H 357.201 0.0219956 0.663636 0
M  V30 3845 H 359.731 0.688352 1.92673 0
M  V30 3846 H 359.741 -0.536464 4.04458 0
M  V30 3847 H 358.416 0.61383 4.11345 0
M  V30 3848 H 356.993 -1.12999 3.55367 0
M  V30 3849 N 359.178 -1.55987 0.224894 0
M  V30 3850 C 360.424 -1.98684 -0.406502 0
M  V30 3851 C 360.757 -1.11248 -1.59177 0
M  V30 3852 O 360.032 -0.170909 -1.93748 0
M  V30 3853 C 360.315 -3.50218 -0.837808 0
M  V30 3854 C 360.168 -4.48426 0.351332 0
M  V30 3855 C 361.487 -4.06243 -1.69278 0
M  V30 3856 H 358.606 -0.722337 -0.146283 0
M  V30 3857 H 361.248 -1.87255 0.321799 0
M  V30 3858 H 359.398 -3.60089 -1.45837 0
M  V30 3859 H 361.07 -4.50562 0.989526 0
M  V30 3860 H 359.313 -4.22159 0.998207 0
M  V30 3861 H 359.984 -5.52 0.00655905 0
M  V30 3862 H 362.46 -3.99337 -1.16914 0
M  V30 3863 H 361.336 -5.12581 -1.96346 0
M  V30 3864 H 361.597 -3.53332 -2.65723 0
M  V30 3865 N 360.656 0.0484629 -1.57525 0
M  V30 3866 C 361.902 0.744226 -1.88651 0
M  V30 3867 C 362.235 1.76029 -0.820212 0
M  V30 3868 O 361.51 1.93782 0.166985 0
M  V30 3869 C 361.793 1.43128 -3.30434 0
M  V30 3870 C 361.646 0.43005 -4.47739 0
M  V30 3871 C 362.965 2.37031 -3.70816 0
M  V30 3872 H 360.084 0.269089 -0.68612 0
M  V30 3873 H 362.726 0.00713532 -1.89999 0
M  V30 3874 H 360.876 2.05956 -3.29415 0
M  V30 3875 H 362.548 -0.194816 -4.60888 0
M  V30 3876 H 360.791 -0.252522 -4.33064 0
M  V30 3877 H 361.462 0.948874 -5.43783 0
M  V30 3878 H 363.938 1.84263 -3.73077 0
M  V30 3879 H 362.814 2.82094 -4.70865 0
M  V30 3880 H 363.075 3.22864 -3.02012 0
M  V30 3881 N 362.134 1.5431 0.320358 0
M  V30 3882 C 363.362 1.76636 1.07738 0
M  V30 3883 C 363.777 0.51649 1.81598 0
M  V30 3884 O 363.134 -0.512942 1.75143 0
M  V30 3885 C 363.185 2.96158 2.07299 0
M  V30 3886 O 362.906 4.16313 1.36438 0
M  V30 3887 C 364.407 3.3072 2.95193 0
M  V30 3888 H 361.627 0.589597 0.320339 0
M  V30 3889 H 364.171 2.01207 0.36551 0
M  V30 3890 H 362.326 2.73851 2.74016 0
M  V30 3891 H 362.74 4.83565 2.03138 0
M  V30 3892 H 364.214 4.17643 3.60941 0
M  V30 3893 H 364.691 2.48026 3.62463 0
M  V30 3894 H 365.297 3.55117 2.34034 0
M  V30 3895 N 363.613 -0.582584 1.46437 0
M  V30 3896 C 364.859 -1.34064 1.52965 0
M  V30 3897 C 365.214 -1.91566 0.178968 0
M  V30 3898 O 364.507 -1.73526 -0.812365 0
M  V30 3899 C 364.701 -2.48964 2.56421 0
M  V30 3900 C 364.53 -2.02717 4.01417 0
M  V30 3901 C 363.3 -1.87728 4.69134 0
M  V30 3902 C 365.498 -1.58675 4.8921 0
M  V30 3903 N 363.48 -1.35554 5.98747 0
M  V30 3904 C 364.851 -1.18093 6.08649 0
M  V30 3905 C 366.906 -1.46494 4.75861 0
M  V30 3906 C 365.609 -0.665427 7.16215 0
M  V30 3907 C 367.635 -0.96347 5.83499 0
M  V30 3908 C 366.997 -0.567432 7.02111 0
M  V30 3909 H 363.096 -0.483551 0.614575 0
M  V30 3910 H 365.68 -0.663309 1.83053 0
M  V30 3911 H 363.851 -3.1426 2.28244 0
M  V30 3912 H 365.583 -3.15913 2.52944 0
M  V30 3913 H 362.338 -2.09678 4.24655 0
M  V30 3914 H 362.762 -1.11628 6.67734 0
M  V30 3915 H 367.404 -1.75731 3.8455 0
M  V30 3916 H 365.122 -0.360639 8.07295 0
M  V30 3917 H 368.708 -0.873129 5.75211 0
M  V30 3918 H 367.588 -0.185389 7.83981 0
M  V30 3919 N 365.091 -1.34144 -0.827227 0
M  V30 3920 C 366.039 -1.25364 -1.95925 0
M  V30 3921 C 367.033 -0.152608 -1.68711 0
M  V30 3922 O 368.239 -0.317311 -1.77181 0
M  V30 3923 H 364.614 -0.389342 -0.643364 0
M  V30 3924 H 366.585 -2.21045 -2.00454 0
M  V30 3925 C 365.334 -1.02158 -3.32354 0
M  V30 3926 H 364.657 -1.86111 -3.5384 0
M  V30 3927 H 366.097 -1.00048 -4.12027 0
M  V30 3928 C 364.556 0.275244 -3.35774 0
M  V30 3929 O 365.086 1.27806 -3.80826 0
M  V30 3930 N 363.292 0.306853 -2.88975 0
M  V30 3931 H 362.839 -0.509777 -2.52506 0
M  V30 3932 H 362.797 1.17432 -2.91646 0
M  V30 3933 N 366.569 1.04691 -1.17803 0
M  V30 3934 C 367.794 1.81984 -0.994813 0
M  V30 3935 C 368.219 1.82586 0.452112 0
M  V30 3936 O 367.577 1.23854 1.324 0
M  V30 3937 C 367.625 3.2575 -1.54659 0
M  V30 3938 O 366.729 4.05267 -0.763728 0
M  V30 3939 H 366.07 0.562483 -0.352857 0
M  V30 3940 H 368.6 1.3189 -1.56417 0
M  V30 3941 H 368.61 3.76541 -1.57102 0
M  V30 3942 H 367.285 3.24627 -2.59981 0
M  V30 3943 H 365.862 3.63972 -0.811108 0
M  V30 3944 N 368.047 0.979072 1.23499 0
M  V30 3945 C 368.994 0.517904 2.24914 0
M  V30 3946 C 369.964 -0.442525 1.60097 0
M  V30 3947 O 371.149 -0.350365 1.87556 0
M  V30 3948 C 368.289 -0.174813 3.44657 0
M  V30 3949 C 367.402 0.825721 4.24035 0
M  V30 3950 C 366.537 0.107946 5.3109 0
M  V30 3951 C 365.576 1.09778 6.02175 0
M  V30 3952 N 364.713 0.40925 7.00906 0
M  V30 3953 H 369.553 1.38751 2.63727 0
M  V30 3954 H 367.09 0.695303 1.2963 0
M  V30 3955 H 369.048 -0.593233 4.12961 0
M  V30 3956 H 367.678 -1.0083 3.06648 0
M  V30 3957 H 366.73 1.36253 3.55161 0
M  V30 3958 H 368.042 1.58005 4.73113 0
M  V30 3959 H 367.196 -0.367904 6.05583 0
M  V30 3960 H 365.935 -0.678994 4.8295 0
M  V30 3961 H 364.94 1.5844 5.26476 0
M  V30 3962 H 366.165 1.88536 6.52404 0
M  V30 3963 H 364.111 -0.358506 6.5502 0
M  V30 3964 H 364.028 1.10226 7.47921 0
M  V30 3965 H 365.296 -0.0442557 7.79487 0
M  V30 3966 N 369.525 -1.3858 0.750561 0
M  V30 3967 C 370.773 -1.99789 0.30477 0
M  V30 3968 C 371.094 -1.59874 -1.11649 0
M  V30 3969 O 370.364 -0.85417 -1.76297 0
M  V30 3970 H 368.944 -0.738902 0.109694 0
M  V30 3971 H 371.606 -1.69391 0.963983 0
M  V30 3972 H 370.702 -3.09952 0.365499 0
M  V30 3973 N 371.003 -0.499398 -1.49478 0
M  V30 3974 C 371.95 0.279881 -2.29097 0
M  V30 3975 C 372.92 0.961805 -1.3542 0
M  V30 3976 O 374.105 0.968777 -1.64376 0
M  V30 3977 C 371.245 1.33932 -3.18051 0
M  V30 3978 C 370.358 0.669333 -4.26783 0
M  V30 3979 C 369.493 1.70907 -5.02955 0
M  V30 3980 C 368.532 1.02087 -6.03527 0
M  V30 3981 N 367.669 2.00474 -6.7287 0
M  V30 3982 H 372.509 -0.405317 -2.95231 0
M  V30 3983 H 370.046 -0.211726 -1.45568 0
M  V30 3984 H 372.004 1.96553 -3.67998 0
M  V30 3985 H 370.634 1.9933 -2.53904 0
M  V30 3986 H 369.686 -0.0701234 -3.80335 0
M  V30 3987 H 370.998 0.127503 -4.98637 0
M  V30 3988 H 370.152 2.41037 -5.56764 0
M  V30 3989 H 368.891 2.28476 -4.30871 0
M  V30 3990 H 367.896 0.305338 -5.48951 0
M  V30 3991 H 369.121 0.451708 -6.77596 0
M  V30 3992 H 367.067 2.57007 -6.03559 0
M  V30 3993 H 366.984 1.51353 -7.40694 0
M  V30 3994 H 368.252 2.69897 -7.31284 0
M  V30 3995 N 372.481 1.55866 -0.233164 0
M  V30 3996 C 373.709 2.02998 0.399905 0
M  V30 3997 C 374.124 1.11274 1.52524 0
M  V30 3998 O 373.481 0.124528 1.82075 0
M  V30 3999 C 373.532 3.4958 0.920639 0
M  V30 4000 O 373.253 4.37808 -0.159834 0
M  V30 4001 C 374.754 4.12411 1.62578 0
M  V30 4002 H 371.974 0.664006 0.0966281 0
M  V30 4003 H 374.518 2.0143 -0.353013 0
M  V30 4004 H 372.673 3.51727 1.62379 0
M  V30 4005 H 373.087 5.23981 0.23337 0
M  V30 4006 H 374.561 5.16711 1.94201 0
M  V30 4007 H 375.038 3.5809 2.54299 0
M  V30 4008 H 375.644 4.14148 0.967553 0
M  V30 4009 N 373.959 -0.0401083 1.57549 0
M  V30 4010 C 375.208 -0.732108 1.87944 0
M  V30 4011 C 375.521 -1.77107 0.830206 0
M  V30 4012 O 376.727 -2.51488 1.02302 0
M  V30 4013 C 375.183 -1.35315 3.33494 0
M  V30 4014 C 374.791 -0.351105 4.46622 0
M  V30 4015 C 376.535 -2.02566 3.73051 0
M  V30 4016 C 374.442 -0.979859 5.83226 0
M  V30 4017 H 373.372 -0.277188 0.701201 0
M  V30 4018 H 376.023 0.0138501 1.83495 0
M  V30 4019 H 374.405 -2.14844 3.32653 0
M  V30 4020 H 375.579 0.416674 4.58912 0
M  V30 4021 H 373.894 0.218708 4.15825 0
M  V30 4022 H 376.491 -2.50441 4.72423 0
M  V30 4023 H 376.834 -2.83904 3.04474 0
M  V30 4024 H 377.367 -1.29827 3.76018 0
M  V30 4025 H 374.106 -0.206135 6.55176 0
M  V30 4026 H 373.626 -1.71774 5.74677 0
M  V30 4027 H 375.305 -1.49046 6.29599 0
M  V30 4028 N 375.437 -1.54477 -0.31217 0
M  V30 4029 C 376.384 -1.84655 -1.38461 0
M  V30 4030 C 377.354 -0.694536 -1.50882 0
M  V30 4031 O 378.539 -0.942081 -1.6592 0
M  V30 4032 C 375.679 -2.0896 -2.74645 0
M  V30 4033 C 374.792 -3.36618 -2.70763 0
M  V30 4034 C 373.927 -3.50824 -3.98868 0
M  V30 4035 C 372.966 -4.72315 -3.89339 0
M  V30 4036 N 372.103 -4.83387 -5.09197 0
M  V30 4037 H 376.943 -2.76142 -1.12026 0
M  V30 4038 H 374.48 -1.36748 -0.542065 0
M  V30 4039 H 376.438 -2.21045 -3.53829 0
M  V30 4040 H 375.068 -1.20752 -2.99364 0
M  V30 4041 H 374.12 -3.33211 -1.83506 0
M  V30 4042 H 375.432 -4.25917 -2.59608 0
M  V30 4043 H 374.586 -3.62513 -4.86486 0
M  V30 4044 H 373.325 -2.59638 -4.12843 0
M  V30 4045 H 372.33 -4.6067 -3.00105 0
M  V30 4046 H 373.555 -5.64897 -3.76919 0
M  V30 4047 H 371.501 -3.9512 -5.23657 0
M  V30 4048 H 371.418 -5.66669 -5.00422 0
M  V30 4049 H 372.686 -4.9942 -5.98498 0
M  V30 4050 N 376.915 0.57481 -1.46744 0
M  V30 4051 C 378.143 1.35856 -1.56047 0
M  V30 4052 C 378.558 1.87691 -0.204365 0
M  V30 4053 O 377.915 1.64049 0.79963 0
M  V30 4054 C 377.966 2.54066 -2.57163 0
M  V30 4055 O 377.687 2.04377 -3.87507 0
M  V30 4056 C 379.188 3.46514 -2.76483 0
M  V30 4057 H 376.408 0.414754 -0.527466 0
M  V30 4058 H 378.952 0.698035 -1.92218 0
M  V30 4059 H 377.107 3.16092 -2.23974 0
M  V30 4060 H 377.521 2.81419 -4.4261 0
M  V30 4061 H 378.995 4.25919 -3.51137 0
M  V30 4062 H 379.472 3.98951 -1.83671 0
M  V30 4063 H 380.078 2.90318 -3.10799 0
M  V30 4064 N 378.394 1.34581 0.820102 0
M  V30 4065 C 379.622 1.3018 1.60813 0
M  V30 4066 C 380.037 -0.123551 1.88395 0
M  V30 4067 O 379.394 -1.07148 1.47735 0
M  V30 4068 C 379.445 2.09312 2.94739 0
M  V30 4069 O 379.166 3.46288 2.68358 0
M  V30 4070 C 380.667 2.1234 3.89136 0
M  V30 4071 H 377.887 0.447726 0.499782 0
M  V30 4072 H 380.431 1.77237 1.02017 0
M  V30 4073 H 378.586 1.65889 3.50085 0
M  V30 4074 H 379 3.87227 3.53774 0
M  V30 4075 H 380.474 2.72126 4.80262 0
M  V30 4076 H 380.951 1.11854 4.24718 0
M  V30 4077 H 381.557 2.55864 3.39726 0
M  V30 4078 N 379.872 -1.04064 1.18357 0
M  V30 4079 C 381.283 -1.58719 0.98312 0
M  V30 4080 C 381.634 -1.90556 -0.467193 0
M  V30 4081 O 380.759 -1.69561 -1.34454 0
M  V30 4082 C 381.354 -2.88379 1.77828 0
M  V30 4083 C 379.913 -3.3965 1.62218 0
M  V30 4084 C 379.06 -2.13235 1.77274 0
M  V30 4085 H 382.011 -0.867359 1.32901 0
M  V30 4086 H 382.032 -3.58773 1.26737 0
M  V30 4087 H 381.544 -2.65176 2.83379 0
M  V30 4088 H 379.645 -3.67866 0.592036 0
M  V30 4089 H 379.758 -4.13475 2.42023 0
M  V30 4090 H 378.122 -2.24542 1.20221 0
M  V30 4091 H 378.905 -1.92487 2.8426 0
M  V30 4092 N 381.35 -0.985608 -1.22978 0
M  V30 4093 C 382.26 -0.538548 -2.28335 0
M  V30 4094 C 383.276 0.409163 -1.69121 0
M  V30 4095 O 384.452 0.277797 -1.99475 0
M  V30 4096 C 381.517 0.146867 -3.46389 0
M  V30 4097 C 380.578 -0.842896 -4.20944 0
M  V30 4098 C 379.811 -0.190095 -5.33361 0
M  V30 4099 O 380.034 1.01767 -5.61248 0
M  V30 4100 O 378.968 -0.891289 -5.95264 0
M  V30 4101 H 382.794 -1.41487 -2.68729 0
M  V30 4102 H 380.379 -0.753495 -1.29007 0
M  V30 4103 H 382.261 0.531125 -4.1804 0
M  V30 4104 H 380.936 0.997871 -3.07935 0
M  V30 4105 H 379.843 -1.27795 -3.51595 0
M  V30 4106 H 381.176 -1.66287 -4.6326 0
M  V30 4107 N 382.828 1.3818 -0.7579 0
M  V30 4108 C 384.076 1.99624 -0.315361 0
M  V30 4109 C 384.397 1.60464 1.10799 0
M  V30 4110 O 383.667 0.863507 1.75842 0
M  V30 4111 H 382.247 0.73831 -0.113611 0
M  V30 4112 H 384.909 1.68878 -0.972952 0
M  V30 4113 H 384.005 3.09754 -0.381931 0
M  V30 4114 N 384.306 0.507319 1.49211 0
M  V30 4115 C 385.534 -0.0315749 2.06876 0
M  V30 4116 C 385.949 -1.30241 1.36685 0
M  V30 4117 O 385.306 -1.76937 0.447152 0
M  V30 4118 C 385.357 -0.282627 3.60393 0
M  V30 4119 O 385.078 0.937835 4.27944 0
M  V30 4120 C 386.579 -0.864453 4.3479 0
M  V30 4121 H 383.799 0.0233048 0.670595 0
M  V30 4122 H 386.343 0.706484 1.91909 0
M  V30 4123 H 384.498 -0.97068 3.75042 0
M  V30 4124 H 384.912 0.704567 5.19746 0
M  V30 4125 H 386.386 -0.989664 5.43056 0
M  V30 4126 H 386.863 -1.86382 3.97692 0
M  V30 4127 H 387.469 -0.213672 4.24763 0
M  V30 4128 N 385.784 -1.5574 0.241426 0
M  V30 4129 C 386.694 -2.2479 -0.671305 0
M  V30 4130 C 387.71 -1.26217 -1.19772 0
M  V30 4131 O 388.886 -1.59079 -1.23514 0
M  V30 4132 C 385.951 -2.92966 -1.85396 0
M  V30 4133 C 385.012 -4.06935 -1.36756 0
M  V30 4134 C 384.245 -4.71851 -2.49384 0
M  V30 4135 O 384.468 -4.35823 -3.67987 0
M  V30 4136 O 383.402 -5.60467 -2.19454 0
M  V30 4137 H 387.228 -3.0349 -0.112966 0
M  V30 4138 H 384.813 -1.49397 0.0101513 0
M  V30 4139 H 386.695 -3.35927 -2.54423 0
M  V30 4140 H 385.37 -2.17211 -2.40002 0
M  V30 4141 H 384.277 -3.68503 -0.644726 0
M  V30 4142 H 385.61 -4.84492 -0.867647 0
M  V30 4143 N 387.262 0.0317525 -1.57568 0
M  V30 4144 C 388.172 1.05021 -2.0978 0
M  V30 4145 C 389.188 1.39809 -1.03583 0
M  V30 4146 O 390.364 1.49182 -1.35302 0
M  V30 4147 C 387.429 2.33301 -2.56459 0
M  V30 4148 C 386.49 2.0512 -3.77127 0
M  V30 4149 C 385.723 3.27283 -4.2157 0
M  V30 4150 O 385.946 4.37861 -3.65559 0
M  V30 4151 O 384.88 3.13141 -5.14029 0
M  V30 4152 H 388.706 0.636505 -2.96955 0
M  V30 4153 H 386.291 0.248559 -1.47318 0
M  V30 4154 H 388.173 3.08722 -2.86825 0
M  V30 4155 H 386.848 2.73973 -1.72397 0
M  V30 4156 H 385.755 1.27276 -3.51784 0
M  V30 4157 H 387.088 1.69305 -4.62165 0
M  V30 4158 N 388.74 1.54641 0.303973 0
M  V30 4159 C 389.986 1.74969 1.03718 0
M  V30 4160 C 390.341 0.527461 1.85029 0
M  V30 4161 O 389.634 -0.480143 1.85486 0
M  V30 4162 C 389.828 2.97753 1.97681 0
M  V30 4163 C 389.657 4.318 1.25613 0
M  V30 4164 C 388.427 4.95616 0.984518 0
M  V30 4165 C 390.625 5.10021 0.662081 0
M  V30 4166 N 388.607 6.13455 0.233794 0
M  V30 4167 C 389.978 6.19984 0.0439736 0
M  V30 4168 C 392.033 4.94663 0.566835 0
M  V30 4169 C 390.736 7.16264 -0.66016 0
M  V30 4170 C 392.762 5.91271 -0.123637 0
M  V30 4171 C 392.124 7.00601 -0.730608 0
M  V30 4172 H 388.223 0.692873 0.362562 0
M  V30 4173 H 390.807 1.92116 0.316135 0
M  V30 4174 H 388.978 2.82036 2.6704 0
M  V30 4175 H 390.71 3.06621 2.64132 0
M  V30 4176 H 387.465 4.55921 1.28191 0
M  V30 4177 H 387.889 6.76879 -0.127996 0
M  V30 4178 H 392.531 4.10267 1.02181 0
M  V30 4179 H 390.249 8.00204 -1.12691 0
M  V30 4180 H 393.835 5.81466 -0.197236 0
M  V30 4181 H 392.715 7.7407 -1.2564 0
M  V30 4182 N 390.218 -0.567019 1.47046 0
M  V30 4183 C 391.443 -1.3551 1.57009 0
M  V30 4184 C 391.868 -1.86841 0.217259 0
M  V30 4185 O 391.226 -1.62435 -0.805268 0
M  V30 4186 C 391.274 -2.50777 2.5912 0
M  V30 4187 O 390.378 -3.52706 2.13711 0
M  V30 4188 H 389.719 -0.402919 0.52778 0
M  V30 4189 H 392.249 -0.686241 1.92748 0
M  V30 4190 H 392.259 -2.97481 2.79229 0
M  V30 4191 H 390.934 -2.12771 3.57353 0
M  V30 4192 H 389.511 -3.12374 2.03659 0
M  V30 4193 N 391.696 -1.35014 -0.812953 0
M  V30 4194 C 392.659 -1.27292 -1.90602 0
M  V30 4195 C 393.659 -0.185817 -1.59723 0
M  V30 4196 O 394.849 -0.439102 -1.68575 0
M  V30 4197 C 391.981 -0.967676 -3.26877 0
M  V30 4198 H 393.174 -2.24479 -1.9887 0
M  V30 4199 H 390.727 -1.19446 -1.00808 0
M  V30 4200 H 391.462 0.0005954 -3.243 0
M  V30 4201 H 391.247 -1.75412 -3.50675 0
M  V30 4202 H 392.737 -0.939085 -4.06904 0
M  V30 4203 N 393.175 1.03435 -1.18907 0
M  V30 4204 C 394.138 2.09756 -0.923844 0
M  V30 4205 C 395.138 1.60528 0.093416 0
M  V30 4206 O 396.328 1.73631 -0.140727 0
M  V30 4207 C 393.46 3.38692 -0.387354 0
M  V30 4208 H 394.653 2.34719 -1.86674 0
M  V30 4209 H 392.206 1.19959 -1.00197 0
M  V30 4210 H 392.941 3.19396 0.561845 0
M  V30 4211 H 392.726 3.75742 -1.12074 0
M  V30 4212 H 394.216 4.17016 -0.220694 0
M  V30 4213 N 394.653 0.992116 1.22453 0
M  V30 4214 C 396.064 0.702776 1.72968 0
M  V30 4215 C 396.415 -0.780399 1.80012 0
M  V30 4216 O 395.54 -1.61007 1.44589 0
M  V30 4217 C 396.135 1.26903 3.14135 0
M  V30 4218 C 394.694 1.02909 3.62059 0
M  V30 4219 C 393.841 1.38969 2.39964 0
M  V30 4220 H 396.792 1.16457 1.07812 0
M  V30 4221 H 396.813 0.647223 3.74955 0
M  V30 4222 H 396.325 2.34851 3.08977 0
M  V30 4223 H 394.426 -0.0337979 3.72585 0
M  V30 4224 H 394.539 1.69191 4.48231 0
M  V30 4225 H 392.903 0.808279 2.41535 0
M  V30 4226 H 393.686 2.4792 2.37467 0
M  V30 4227 N 396.131 -1.37776 0.765217 0
M  V30 4228 C 397.061 -2.32945 0.160953 0
M  V30 4229 C 398.042 -1.55454 -0.690516 0
M  V30 4230 O 399.227 -1.83721 -0.629318 0
M  V30 4231 C 396.357 -3.39669 -0.724031 0
M  V30 4232 C 395.311 -4.27992 0.0256173 0
M  V30 4233 C 394.637 -5.25673 -0.978383 0
M  V30 4234 C 395.937 -5.08309 1.20082 0
M  V30 4235 H 397.631 -2.83728 0.955969 0
M  V30 4236 H 395.177 -1.36416 0.461149 0
M  V30 4237 H 397.13 -4.05219 -1.15652 0
M  V30 4238 H 395.854 -2.87396 -1.5515 0
M  V30 4239 H 394.513 -3.63964 0.438812 0
M  V30 4240 H 394.161 -4.69682 -1.80022 0
M  V30 4241 H 393.861 -5.85625 -0.481378 0
M  V30 4242 H 395.385 -5.94098 -1.40995 0
M  V30 4243 H 396.799 -5.67034 0.845307 0
M  V30 4244 H 395.196 -5.77554 1.62947 0
M  V30 4245 H 396.266 -4.41365 2.00811 0
M  V30 4246 N 397.609 -0.515225 -1.4894 0
M  V30 4247 C 398.855 0.0242508 -2.02785 0
M  V30 4248 C 399.188 1.35323 -1.39289 0
M  V30 4249 O 398.463 1.87041 -0.533469 0
M  V30 4250 C 398.746 0.16184 -3.59736 0
M  V30 4251 C 398.599 -1.19127 -4.33738 0
M  V30 4252 C 399.918 0.895719 -4.30888 0
M  V30 4253 H 397.037 0.00733914 -0.736963 0
M  V30 4254 H 399.679 -0.669395 -1.77818 0
M  V30 4255 H 397.829 0.752624 -3.8114 0
M  V30 4256 H 399.501 -1.82202 -4.23792 0
M  V30 4257 H 397.744 -1.77695 -3.95736 0
M  V30 4258 H 398.415 -1.04815 -5.41957 0
M  V30 4259 H 400.891 0.394528 -4.14225 0
M  V30 4260 H 399.767 0.960859 -5.40425 0
M  V30 4261 H 400.028 1.9427 -3.97129 0
M  V30 4262 N 399.087 1.5561 -0.249682 0
M  V30 4263 C 400.315 2.03411 0.378352 0
M  V30 4264 C 400.73 1.12886 1.51335 0
M  V30 4265 O 400.087 0.143833 1.81932 0
M  V30 4266 C 400.138 3.50537 0.88351 0
M  V30 4267 O 399.859 4.37614 -0.20626 0
M  V30 4268 C 401.36 4.14113 1.58195 0
M  V30 4269 H 398.58 0.664994 0.08958 0
M  V30 4270 H 401.124 2.01044 -0.374357 0
M  V30 4271 H 399.279 3.5343 1.58639 0
M  V30 4272 H 399.693 5.24199 0.177782 0
M  V30 4273 H 401.167 5.18741 1.8871 0
M  V30 4274 H 401.644 3.60767 2.50487 0
M  V30 4275 H 402.25 4.15151 0.923573 0
M  V30 4276 N 400.565 -0.0233959 1.57583 0
M  V30 4277 C 401.528 -1.00693 2.05897 0
M  V30 4278 C 402.528 -1.28693 0.964092 0
M  V30 4279 O 403.718 -1.23602 1.22753 0
M  V30 4280 C 400.85 -2.33825 2.4807 0
M  V30 4281 H 402.043 -0.589476 2.9405 0
M  V30 4282 H 399.596 -0.270354 1.53944 0
M  V30 4283 H 400.331 -2.80307 1.6309 0
M  V30 4284 H 400.116 -2.1483 3.2801 0
M  V30 4285 H 401.606 -3.04426 2.85857 0
M  V30 4286 N 402.043 -1.548 -0.295768 0
M  V30 4287 C 402.976 -1.81003 -1.38972 0
M  V30 4288 C 403.954 -0.661544 -1.48534 0
M  V30 4289 O 405.138 -0.902074 -1.65514 0
M  V30 4290 C 402.265 -1.95141 -2.76835 0
M  V30 4291 C 401.311 -3.17592 -2.84671 0
M  V30 4292 S 402.144 -4.75531 -2.46232 0
M  V30 4293 C 403.3 -4.92613 -3.86114 0
M  V30 4294 H 403.533 -2.73507 -1.16537 0
M  V30 4295 H 401.066 -1.46278 -0.494168 0
M  V30 4296 H 403.024 -2.03972 -3.56238 0
M  V30 4297 H 401.685 -1.03565 -2.96535 0
M  V30 4298 H 400.878 -3.24303 -3.85803 0
M  V30 4299 H 400.48 -3.07235 -2.13267 0
M  V30 4300 H 402.772 -4.76957 -4.81164 0
M  V30 4301 H 403.715 -5.94698 -3.8437 0
M  V30 4302 H 404.123 -4.2073 -3.76359 0
M  V30 4303 N 403.521 0.559213 -1.47345 0
M  V30 4304 C 404.761 1.32728 -1.55444 0
M  V30 4305 C 405.125 1.90838 -0.210895 0
M  V30 4306 O 406.326 2.68282 -0.166719 0
M  V30 4307 C 404.597 2.4092 -2.63993 0
M  V30 4308 S 406.156 3.2784 -2.91661 0
M  V30 4309 H 402.974 0.451883 -0.548929 0
M  V30 4310 H 405.576 0.640404 -1.84714 0
M  V30 4311 H 404.28 1.9666 -3.60212 0
M  V30 4312 H 403.811 3.14351 -2.36531 0
M  V30 4313 H 405.826 4.40341 -2.28722 0
M  V30 4314 N 404.999 1.35443 0.805782 0
M  V30 4315 C 405.929 1.31095 1.93226 0
M  V30 4316 C 406.91 0.185244 1.69088 0
M  V30 4317 O 408.095 0.380332 1.90439 0
M  V30 4318 C 405.225 1.08299 3.29983 0
M  V30 4319 C 404.179 2.17519 3.68605 0
M  V30 4320 C 403.505 1.79887 5.03532 0
M  V30 4321 C 404.805 3.5949 3.78898 0
M  V30 4322 H 406.499 2.25352 1.97122 0
M  V30 4323 H 404.045 1.0848 0.946996 0
M  V30 4324 H 405.998 1.03897 4.08391 0
M  V30 4325 H 404.722 0.104885 3.26432 0
M  V30 4326 H 403.381 2.2102 2.92482 0
M  V30 4327 H 403.029 0.80693 4.96485 0
M  V30 4328 H 402.729 2.53001 5.30344 0
M  V30 4329 H 404.253 1.77011 5.84379 0
M  V30 4330 H 405.667 3.58307 4.47536 0
M  V30 4331 H 404.064 4.31371 4.1718 0
M  V30 4332 H 405.134 3.95584 2.80431 0
M  V30 4333 N 406.477 -1.02803 1.19454 0
M  V30 4334 C 407.407 -2.12999 0.956758 0
M  V30 4335 C 408.388 -1.69743 -0.110188 0
M  V30 4336 O 409.573 -1.94148 0.0450038 0
M  V30 4337 C 406.703 -3.43746 0.495553 0
M  V30 4338 C 405.657 -4.00688 1.50443 0
M  V30 4339 C 404.983 -5.27067 0.900275 0
M  V30 4340 C 406.283 -4.35397 2.8849 0
M  V30 4341 H 407.977 -2.33148 1.87836 0
M  V30 4342 H 405.523 -1.12045 0.904539 0
M  V30 4343 H 407.476 -4.2021 0.316493 0
M  V30 4344 H 406.2 -3.23321 -0.461646 0
M  V30 4345 H 404.859 -3.2632 1.67065 0
M  V30 4346 H 404.507 -5.02959 -0.064503 0
M  V30 4347 H 404.207 -5.66127 1.57397 0
M  V30 4348 H 405.731 -6.06196 0.73203 0
M  V30 4349 H 407.145 -5.02795 2.75446 0
M  V30 4350 H 405.542 -4.85541 3.52661 0
M  V30 4351 H 406.612 -3.44662 3.41081 0
M  V30 4352 N 407.956 -0.998596 -1.21925 0
M  V30 4353 C 409.204 -0.676325 -1.90448 0
M  V30 4354 C 409.525 0.794719 -1.78071 0
M  V30 4355 O 408.795 1.5701 -1.17152 0
M  V30 4356 H 407.375 -0.247165 -0.704925 0
M  V30 4357 H 410.037 -1.26633 -1.48156 0
M  V30 4358 H 409.133 -0.943858 -2.97486 0
M  V30 4359 N 409.434 1.37368 -0.772513 0
M  V30 4360 C 410.382 2.32134 -0.147111 0
M  V30 4361 C 411.376 1.54972 0.684106 0
M  V30 4362 O 412.582 1.70363 0.581083 0
M  V30 4363 H 408.957 0.751449 -0.028786 0
M  V30 4364 H 410.928 2.82464 -0.962112 0
M  V30 4365 C 409.677 3.40226 0.71703 0
M  V30 4366 H 409 3.99706 0.0867951 0
M  V30 4367 H 410.44 4.08897 1.12159 0
M  V30 4368 C 408.899 2.80372 1.86797 0
M  V30 4369 O 409.429 2.71183 2.96349 0
M  V30 4370 N 407.635 2.37904 1.66883 0
M  V30 4371 H 407.182 2.45578 0.777759 0
M  V30 4372 H 407.14 1.98202 2.44056 0
M  V30 4373 N 410.912 0.523116 1.48665 0
M  V30 4374 C 412.158 -0.0134963 2.02796 0
M  V30 4375 C 412.491 -1.34582 1.40004 0
M  V30 4376 O 411.766 -1.86756 0.543381 0
M  V30 4377 C 412.049 -0.14276 3.59817 0
M  V30 4378 C 411.902 1.21425 4.331 0
M  V30 4379 C 413.221 -0.872856 4.31357 0
M  V30 4380 H 410.34 -0.00343074 0.736992 0
M  V30 4381 H 412.982 0.678816 1.7746 0
M  V30 4382 H 411.132 -0.732401 3.81534 0
M  V30 4383 H 412.804 1.84447 4.2282 0
M  V30 4384 H 411.047 1.79791 3.94788 0
M  V30 4385 H 411.718 1.07687 5.41394 0
M  V30 4386 H 414.194 -0.372555 4.14429 0
M  V30 4387 H 413.07 -0.932185 5.40927 0
M  V30 4388 H 413.331 -1.92161 3.98154 0
M  V30 4389 N 412.39 -1.55475 0.257931 0
M  V30 4390 C 413.615 -2.04064 -0.370488 0
M  V30 4391 C 414.04 -1.13565 -1.49948 0
M  V30 4392 O 413.398 -0.130781 -1.80828 0
M  V30 4393 C 413.446 -3.50554 -0.845237 0
M  V30 4394 O 412.55 -3.63173 -1.95394 0
M  V30 4395 H 411.891 -0.659257 -0.0792243 0
M  V30 4396 H 414.421 -2.00903 0.387212 0
M  V30 4397 H 414.431 -3.91588 -1.14555 0
M  V30 4398 H 413.106 -4.15896 -0.0191259 0
M  V30 4399 H 411.683 -3.34039 -1.65748 0
M  V30 4400 N 413.868 0.0150385 -1.57593 0
M  V30 4401 C 415.115 0.703001 -1.89906 0
M  V30 4402 C 415.443 1.74604 -0.856944 0
M  V30 4403 O 414.698 1.95197 0.140287 0
M  V30 4404 C 414.997 1.39686 -3.28972 0
M  V30 4405 C 414.663 0.488457 -4.48246 0
M  V30 4406 C 413.325 0.2383 -4.8061 0
M  V30 4407 C 415.677 -0.137881 -5.21018 0
M  V30 4408 C 413.005 -0.646738 -5.83125 0
M  V30 4409 C 415.357 -1.0107 -6.24474 0
M  V30 4410 C 414.021 -1.27019 -6.55303 0
M  V30 4411 H 413.291 0.257246 -0.694914 0
M  V30 4412 H 415.938 -0.037259 -1.91464 0
M  V30 4413 H 414.243 2.21079 -3.23468 0
M  V30 4414 H 415.94 1.93495 -3.51227 0
M  V30 4415 H 412.53 0.693593 -4.22951 0
M  V30 4416 H 416.714 0.0423953 -4.96282 0
M  V30 4417 H 411.97 -0.855937 -6.05379 0
M  V30 4418 H 416.144 -1.50247 -6.79999 0
M  V30 4419 H 413.771 -1.95769 -7.3456 0
M  V30 4420 N 415.346 1.54954 0.287554 0
M  V30 4421 C 416.757 1.65732 0.859634 0
M  V30 4422 C 417.108 0.574767 1.87592 0
M  V30 4423 O 416.233 -0.286299 2.14498 0
M  V30 4424 C 416.828 3.00438 1.56597 0
M  V30 4425 C 415.387 3.13292 2.08627 0
M  V30 4426 C 414.534 2.61473 0.923416 0
M  V30 4427 H 417.485 1.5857 0.0642338 0
M  V30 4428 H 417.506 2.92613 2.43224 0
M  V30 4429 H 417.018 3.79207 0.826053 0
M  V30 4430 H 415.119 2.39268 2.85625 0
M  V30 4431 H 415.232 4.19647 2.31157 0
M  V30 4432 H 413.596 2.18264 1.31275 0
M  V30 4433 H 414.379 3.42733 0.197241 0
M  V30 4434 N 416.824 -0.551391 1.4764 0
M  V30 4435 C 418.064 -1.31901 1.56145 0
M  V30 4436 C 418.428 -1.90724 0.221013 0
M  V30 4437 O 419.629 -2.6819 0.180945 0
M  V30 4438 C 417.9 -2.39517 2.65267 0
M  V30 4439 S 419.459 -3.26289 2.93395 0
M  V30 4440 H 416.277 -0.448965 0.551318 0
M  V30 4441 H 418.879 -0.630599 1.85051 0
M  V30 4442 H 417.583 -1.94747 3.6125 0
M  V30 4443 H 417.114 -3.13092 2.38195 0
M  V30 4444 H 419.129 -4.39122 2.31055 0
M  V30 4445 N 418.302 -1.35869 -0.798587 0
M  V30 4446 C 419.579 -1.20145 -1.54352 0
M  V30 4447 C 419.959 0.216161 -2.0999 0
M  V30 4448 O 419.307 1.22068 -1.93162 0
M  V30 4449 C 419.517 -2.27602 -2.64572 0
M  V30 4450 C 420.865 -2.63811 -3.32699 0
M  V30 4451 O 421.889 -2.26576 -2.74849 0
M  V30 4452 O 420.748 -3.27866 -4.37226 0
M  V30 4453 H 417.842 -0.467248 -0.682355 0
M  V30 4454 H 420.388 -1.47574 -0.837859 0
M  V30 4455 H 419.16 -3.2265 -2.21388 0
M  V30 4456 H 418.783 -2.01488 -3.42766 0
M  V30 4457 N 419.78 1.02168 -1.19998 0
M  V30 4458 C 421.196 1.27969 -0.953737 0
M  V30 4459 C 421.396 1.98079 0.369703 0
M  V30 4460 O 420.452 2.27306 1.09947 0
M  V30 4461 C 421.765 2.11971 -2.13281 0
M  V30 4462 C 423.313 2.25255 -2.17323 0
M  V30 4463 C 423.788 3.12632 -3.34702 0
M  V30 4464 N 425.279 3.2022 -3.34684 0
M  V30 4465 C 426.014 3.88039 -4.22153 0
M  V30 4466 N 425.51 4.58027 -5.19791 0
M  V30 4467 N 427.303 3.84511 -4.10009 0
M  V30 4468 H 419.454 0.550794 -2.05134 0
M  V30 4469 H 421.717 0.305683 -0.897364 0
M  V30 4470 H 421.423 1.67785 -3.09097 0
M  V30 4471 H 421.297 3.12699 -2.10949 0
M  V30 4472 H 423.684 2.68667 -1.22073 0
M  V30 4473 H 423.765 1.24053 -2.23706 0
M  V30 4474 H 423.409 2.69926 -4.30235 0
M  V30 4475 H 423.339 4.13909 -3.25556 0
M  V30 4476 H 425.83 2.70382 -2.64012 0
M  V30 4477 H 426.143 5.07429 -5.82868 0
M  V30 4478 H 424.488 4.56869 -5.23733 0
M  V30 4479 H 427.679 3.28978 -3.33003 0
M  V30 4480 H 427.852 4.3709 -4.78389 0
M  V30 4481 N 421.258 1.00505 1.21394 0
M  V30 4482 C 422.669 0.721082 1.72213 0
M  V30 4483 C 423.02 -0.761263 1.80829 0
M  V30 4484 O 422.145 -1.59464 1.46288 0
M  V30 4485 C 422.74 1.30228 3.12772 0
M  V30 4486 C 421.299 1.06743 3.60947 0
M  V30 4487 C 420.446 1.41507 2.38477 0
M  V30 4488 H 423.397 1.17594 1.06571 0
M  V30 4489 H 423.418 0.686955 3.74247 0
M  V30 4490 H 422.93 2.38115 3.06468 0
M  V30 4491 H 421.031 0.00572162 3.726 0
M  V30 4492 H 421.144 1.73936 4.46411 0
M  V30 4493 H 419.508 0.833852 2.40664 0
M  V30 4494 H 420.291 2.50424 2.34824 0
M  V30 4495 N 422.737 -1.36956 0.779787 0
M  V30 4496 C 424.148 -1.82094 0.412156 0
M  V30 4497 C 424.499 -1.64926 -1.06273 0
M  V30 4498 O 423.624 -1.16483 -1.82375 0
M  V30 4499 C 424.219 -3.3059 0.741319 0
M  V30 4500 C 422.778 -3.73974 0.426641 0
M  V30 4501 C 421.925 -2.59368 0.980987 0
M  V30 4502 H 424.876 -1.25314 0.973758 0
M  V30 4503 H 424.897 -3.80489 0.028887 0
M  V30 4504 H 424.409 -3.43054 1.81482 0
M  V30 4505 H 422.51 -3.67076 -0.639215 0
M  V30 4506 H 422.623 -4.69778 0.940515 0
M  V30 4507 H 420.987 -2.51463 0.404757 0
M  V30 4508 H 421.77 -2.74621 2.06005 0
M  V30 4509 N 424.215 -0.530993 -1.48385 0
M  V30 4510 C 425.443 -0.00134122 -2.069 0
M  V30 4511 C 425.858 1.2805 -1.3874 0
M  V30 4512 O 425.215 1.76204 -0.475244 0
M  V30 4513 C 425.266 0.225256 -3.60798 0
M  V30 4514 O 424.987 -1.0058 -4.26398 0
M  V30 4515 C 426.488 0.795172 -4.3611 0
M  V30 4516 H 423.708 -0.0339704 -0.67014 0
M  V30 4517 H 426.252 -0.736926 -1.90761 0
M  V30 4518 H 424.407 0.910891 -3.76539 0
M  V30 4519 H 424.821 -0.787165 -5.1856 0
M  V30 4520 H 426.295 0.903143 -5.44562 0
M  V30 4521 H 426.772 1.80031 -4.00606 0
M  V30 4522 H 427.378 0.146069 -4.25049 0
M  V30 4523 N 425.693 1.55336 -0.266172 0
M  V30 4524 C 426.933 2.01303 0.354459 0
M  V30 4525 C 427.297 1.15046 1.53715 0
M  V30 4526 O 428.498 1.50554 2.22681 0
M  V30 4527 C 426.769 3.49748 0.735579 0
M  V30 4528 S 428.328 4.1771 1.34401 0
M  V30 4529 H 425.146 0.702333 0.110674 0
M  V30 4530 H 427.748 1.91653 -0.385916 0
M  V30 4531 H 426.452 4.10181 -0.134196 0
M  V30 4532 H 425.983 3.63364 1.50764 0
M  V30 4533 H 427.998 4.20594 2.63278 0
M  V30 4534 N 427.171 -0.0066808 1.57599 0
M  V30 4535 C 428.401 -0.703066 1.94269 0
M  V30 4536 C 428.809 -1.68206 0.866222 0
M  V30 4537 O 428.152 -1.82966 -0.164087 0
M  V30 4538 C 428.214 -1.49616 3.26887 0
M  V30 4539 C 427.878 -0.679494 4.5192 0
M  V30 4540 C 428.875 0.0299508 5.19891 0
M  V30 4541 C 426.56 -0.627433 4.98366 0
M  V30 4542 C 428.554 0.780514 6.32603 0
M  V30 4543 C 426.241 0.126861 6.10968 0
M  V30 4544 C 427.239 0.829574 6.77943 0
M  V30 4545 O 426.927 1.57157 7.88389 0
M  V30 4546 H 426.659 -0.201217 0.645359 0
M  V30 4547 H 429.213 0.0385326 2.05364 0
M  V30 4548 H 427.443 -2.28209 3.12182 0
M  V30 4549 H 429.132 -2.07726 3.48719 0
M  V30 4550 H 429.898 -0.00115963 4.85 0
M  V30 4551 H 425.777 -1.16392 4.46065 0
M  V30 4552 H 429.321 1.32954 6.84813 0
M  V30 4553 H 425.218 0.159815 6.45302 0
M  V30 4554 H 425.986 1.48758 8.04868 0
M  V30 4555 N 428.649 -1.55105 -0.279332 0
M  V30 4556 C 429.877 -1.7943 -1.03017 0
M  V30 4557 C 430.292 -0.564456 -1.80165 0
M  V30 4558 O 429.649 0.466326 -1.76442 0
M  V30 4559 C 429.7 -3.0155 -1.99374 0
M  V30 4560 O 429.421 -4.19784 -1.25352 0
M  V30 4561 C 430.922 -3.3843 -2.86321 0
M  V30 4562 H 428.142 -0.597882 -0.304594 0
M  V30 4563 H 430.686 -2.02105 -0.312035 0
M  V30 4564 H 428.841 -2.81019 -2.66659 0
M  V30 4565 H 429.255 -4.88781 -1.90246 0
M  V30 4566 H 430.729 -4.27066 -3.49741 0
M  V30 4567 H 431.206 -2.57549 -3.5576 0
M  V30 4568 H 431.812 -3.61197 -2.24536 0
M  V30 4569 N 430.127 0.543554 -1.4793 0
M  V30 4570 C 431.543 0.870806 -1.3375 0
M  V30 4571 C 431.743 1.9864 -0.338261 0
M  V30 4572 O 430.799 2.51305 0.245371 0
M  V30 4573 C 432.112 1.25114 -2.73435 0
M  V30 4574 C 433.66 1.3618 -2.81823 0
M  V30 4575 C 434.135 1.77563 -4.22179 0
M  V30 4576 N 435.626 1.8469 -4.24787 0
M  V30 4577 C 436.361 2.18067 -5.30315 0
M  V30 4578 N 435.857 2.49963 -6.46135 0
M  V30 4579 N 437.65 2.18958 -5.17701 0
M  V30 4580 H 429.801 -0.19275 -2.11524 0
M  V30 4581 H 432.064 -0.0235777 -0.947707 0
M  V30 4582 H 431.77 0.50514 -3.48053 0
M  V30 4583 H 431.644 2.20431 -3.06088 0
M  V30 4584 H 434.031 2.09859 -2.07468 0
M  V30 4585 H 434.112 0.390169 -2.52807 0
M  V30 4586 H 433.756 1.04449 -4.97044 0
M  V30 4587 H 433.686 2.75753 -4.48629 0
M  V30 4588 H 436.177 1.62372 -3.41239 0
M  V30 4589 H 436.49 2.74497 -7.22406 0
M  V30 4590 H 434.835 2.47513 -6.49432 0
M  V30 4591 H 438.026 1.93488 -4.2624 0
M  V30 4592 H 438.199 2.44639 -6.00047 0
M  V30 4593 N 431.605 1.3629 0.791371 0
M  V30 4594 C 432.515 1.32606 1.93527 0
M  V30 4595 C 433.531 0.228541 1.72493 0
M  V30 4596 O 434.707 0.460571 1.96063 0
M  V30 4597 C 431.772 1.11271 3.28359 0
M  V30 4598 C 430.833 2.3048 3.62185 0
M  V30 4599 C 430.066 2.10154 4.90583 0
M  V30 4600 O 430.289 1.07572 5.60165 0
M  V30 4601 O 429.223 2.97884 5.23019 0
M  V30 4602 H 433.049 2.28909 1.99585 0
M  V30 4603 H 430.634 1.16818 0.931344 0
M  V30 4604 H 432.516 1.01283 4.09047 0
M  V30 4605 H 431.191 0.180292 3.23198 0
M  V30 4606 H 430.098 2.46036 2.81811 0
M  V30 4607 H 431.431 3.22221 3.72068 0
M  V30 4608 N 433.083 -1.0153 1.20538 0
M  V30 4609 C 434.494 -1.56598 1.01657 0
M  V30 4610 C 434.845 -1.91505 -0.426668 0
M  V30 4611 O 433.97 -1.72375 -1.30827 0
M  V30 4612 C 434.565 -2.84542 1.83905 0
M  V30 4613 C 433.124 -3.36133 1.69386 0
M  V30 4614 C 432.271 -2.09427 1.81757 0
M  V30 4615 H 435.222 -0.838974 1.34711 0
M  V30 4616 H 435.243 -3.56004 1.34319 0
M  V30 4617 H 434.755 -2.59105 2.8894 0
M  V30 4618 H 432.856 -3.66528 0.669933 0
M  V30 4619 H 432.969 -4.08248 2.50739 0
M  V30 4620 H 431.333 -2.21941 1.24957 0
M  V30 4621 H 432.116 -1.86414 2.88279 0
M  V30 4622 N 434.561 -1.01147 -1.20859 0
M  V30 4623 C 435.786 -0.716698 -1.94623 0
M  V30 4624 C 436.211 0.715415 -1.73964 0
M  V30 4625 O 435.569 1.49157 -1.03062 0
M  V30 4626 C 435.617 -1.0513 -3.44935 0
M  V30 4627 O 434.721 -0.160131 -4.12089 0
M  V30 4628 H 434.062 -0.266404 -0.608214 0
M  V30 4629 H 436.592 -1.35346 -1.53436 0
M  V30 4630 H 436.602 -1.00086 -3.95533 0
M  V30 4631 H 435.277 -2.09475 -3.59295 0
M  V30 4632 H 433.854 -0.267657 -3.71938 0
M  V30 4633 N 436.039 1.36541 -0.78704 0
M  V30 4634 C 437.455 1.52571 -0.46844 0
M  V30 4635 C 437.655 1.7415 1.01361 0
M  V30 4636 O 436.711 1.77163 1.79915 0
M  V30 4637 C 438.024 2.71299 -1.29682 0
M  V30 4638 C 439.572 2.85169 -1.29027 0
M  V30 4639 C 440.047 4.06898 -2.10233 0
M  V30 4640 N 441.538 4.1404 -2.07666 0
M  V30 4641 C 442.273 5.07301 -2.67271 0
M  V30 4642 N 441.769 6.06021 -3.35724 0
M  V30 4643 N 443.562 4.99898 -2.57018 0
M  V30 4644 H 435.713 1.20788 -1.74711 0
M  V30 4645 H 437.976 0.589364 -0.742532 0
M  V30 4646 H 437.682 2.61868 -2.34773 0
M  V30 4647 H 437.556 3.6539 -0.936479 0
M  V30 4648 H 439.943 2.94062 -0.247284 0
M  V30 4649 H 440.024 1.91992 -1.69035 0
M  V30 4650 H 439.668 3.98766 -3.1456 0
M  V30 4651 H 439.598 4.99218 -1.67597 0
M  V30 4652 H 442.089 3.43357 -1.57843 0
M  V30 4653 H 442.402 6.73741 -3.78541 0
M  V30 4654 H 440.747 6.06253 -3.39826 0
M  V30 4655 H 443.938 4.21724 -2.03142 0
M  V30 4656 H 444.111 5.72392 -3.03761 0
M  V30 4657 N 437.518 0.538854 1.48102 0
M  V30 4658 C 438.481 -0.208395 2.28251 0
M  V30 4659 C 439.481 -0.859656 1.35892 0
M  V30 4660 O 440.671 -0.71834 1.58699 0
M  V30 4661 C 437.803 -1.30252 3.15035 0
M  V30 4662 H 438.996 0.495407 2.9578 0
M  V30 4663 H 436.549 0.295112 1.53489 0
M  V30 4664 H 437.284 -2.0393 2.52157 0
M  V30 4665 H 437.069 -0.840551 3.82985 0
M  V30 4666 H 438.559 -1.82787 3.75471 0
M  V30 4667 N 438.996 -1.55193 0.274407 0
M  V30 4668 C 439.926 -2.25471 -0.607032 0
M  V30 4669 C 440.907 -1.24461 -1.15946 0
M  V30 4670 O 442.092 -1.53179 -1.19373 0
M  V30 4671 C 439.222 -2.97526 -1.79153 0
M  V30 4672 C 438.176 -4.05459 -1.37067 0
M  V30 4673 C 437.502 -4.65084 -2.6382 0
M  V30 4674 C 438.802 -5.19691 -0.521389 0
M  V30 4675 H 440.496 -2.99393 -0.0209343 0
M  V30 4676 H 438.042 -1.43997 -0.00862866 0
M  V30 4677 H 439.995 -3.45402 -2.41404 0
M  V30 4678 H 438.719 -2.21138 -2.40344 0
M  V30 4679 H 437.378 -3.58393 -0.771355 0
M  V30 4680 H 437.026 -3.85365 -3.23268 0
M  V30 4681 H 436.726 -5.37961 -2.36372 0
M  V30 4682 H 438.25 -5.15708 -3.26921 0
M  V30 4683 H 439.664 -5.63623 -1.04889 0
M  V30 4684 H 438.061 -5.99126 -0.341825 0
M  V30 4685 H 439.131 -4.82713 0.46 0
M  V30 4686 N 440.474 -0.00167713 -1.576 0
M  V30 4687 C 441.751 0.719951 -1.81868 0
M  V30 4688 C 442.131 1.91895 -0.879747 0
M  V30 4689 O 441.479 2.28389 0.0711423 0
M  V30 4690 C 441.689 1.12409 -3.30402 0
M  V30 4691 C 443.037 1.52724 -3.96182 0
M  V30 4692 O 444.061 1.21784 -3.34734 0
M  V30 4693 O 442.92 2.10265 -5.04431 0
M  V30 4694 H 440.014 0.350707 -0.748955 0
M  V30 4695 H 442.56 -0.0272597 -1.69678 0
M  V30 4696 H 441.332 0.269532 -3.90371 0
M  V30 4697 H 440.955 1.93035 -3.47596 0
M  V30 4698 N 441.952 1.55251 0.271103 0
M  V30 4699 C 443.201 1.75151 1.00025 0
M  V30 4700 C 443.514 0.561041 1.87381 0
M  V30 4701 O 444.72 0.642506 2.63788 0
M  V30 4702 C 443.176 3.09999 1.82835 0
M  V30 4703 C 442.784 4.3662 1.00336 0
M  V30 4704 C 444.528 3.39249 2.55168 0
M  V30 4705 C 442.435 5.62506 1.82595 0
M  V30 4706 H 441.365 0.652877 0.377183 0
M  V30 4707 H 444.016 1.81708 0.255843 0
M  V30 4708 H 442.398 2.97485 2.61378 0
M  V30 4709 H 443.572 4.60055 0.261959 0
M  V30 4710 H 441.887 4.14527 0.394486 0
M  V30 4711 H 444.484 4.3051 3.1712 0
M  V30 4712 H 444.827 2.59467 3.2555 0
M  V30 4713 H 445.36 3.52869 1.83653 0
M  V30 4714 H 442.099 6.45041 1.16631 0
M  V30 4715 H 441.619 5.43211 2.54327 0
M  V30 4716 H 443.298 6.00875 2.39913 0
M  V30 4717 N 443.43 -0.535701 1.48216 0
M  V30 4718 C 444.36 -1.65014 1.65204 0
M  V30 4719 C 445.341 -1.62554 0.501011 0
M  V30 4720 O 446.526 -1.7984 0.732886 0
M  V30 4721 C 443.656 -3.03616 1.68626 0
M  V30 4722 C 442.61 -3.20932 2.83172 0
M  V30 4723 C 441.936 -4.60537 2.71679 0
M  V30 4724 C 443.236 -3.04249 4.24535 0
M  V30 4725 H 444.93 -1.51053 2.58502 0
M  V30 4726 H 442.476 -0.725262 1.24402 0
M  V30 4727 H 444.429 -3.81446 1.79099 0
M  V30 4728 H 443.153 -3.18587 0.719026 0
M  V30 4729 H 441.812 -2.45517 2.72244 0
M  V30 4730 H 441.46 -4.72336 1.72937 0
M  V30 4731 H 441.16 -4.73069 3.48538 0
M  V30 4732 H 442.684 -5.40475 2.84112 0
M  V30 4733 H 444.098 -3.71877 4.36326 0
M  V30 4734 H 442.495 -3.28278 5.02348 0
M  V30 4735 H 443.565 -2.00739 4.41397 0
M  V30 4736 N 444.908 -1.36708 -0.784132 0
M  V30 4737 C 445.818 -1.3363 -1.92822 0
M  V30 4738 C 446.834 -0.237686 -1.72369 0
M  V30 4739 O 448.01 -0.470962 -1.95816 0
M  V30 4740 C 445.075 -1.13011 -3.27764 0
M  V30 4741 C 444.136 -2.32397 -3.60957 0
M  V30 4742 C 443.369 -2.12752 -4.89461 0
M  V30 4743 O 443.592 -1.10541 -5.59586 0
M  V30 4744 O 442.526 -3.00653 -5.21432 0
M  V30 4745 H 446.352 -2.29964 -1.98369 0
M  V30 4746 H 443.937 -1.1731 -0.925136 0
M  V30 4747 H 445.819 -1.03451 -4.08504 0
M  V30 4748 H 444.494 -0.19743 -3.23097 0
M  V30 4749 H 443.401 -2.47527 -2.80502 0
M  V30 4750 H 444.734 -3.2419 -3.70354 0
M  V30 4751 N 446.386 1.0089 -1.21074 0
M  V30 4752 C 447.296 2.13039 -0.982425 0
M  V30 4753 C 448.312 1.73881 0.0642161 0
M  V30 4754 O 449.488 2.01012 -0.12496 0
M  V30 4755 C 446.553 3.42377 -0.545803 0
M  V30 4756 C 445.614 3.95731 -1.6642 0
M  V30 4757 C 444.847 5.18896 -1.24832 0
M  V30 4758 O 445.07 5.70273 -0.120265 0
M  V30 4759 O 444.004 5.65597 -2.05873 0
M  V30 4760 H 447.83 2.35175 -1.92163 0
M  V30 4761 H 445.415 1.1142 -0.995285 0
M  V30 4762 H 447.297 4.20244 -0.311912 0
M  V30 4763 H 445.972 3.21639 0.364727 0
M  V30 4764 H 444.879 3.19108 -1.95246 0
M  V30 4765 H 446.212 4.20872 -2.55201 0
M  V30 4766 N 447.864 1.01787 1.20321 0
M  V30 4767 C 448.812 0.58254 2.25187 0
M  V30 4768 C 449.806 -0.379359 1.65098 0
M  V30 4769 O 451.012 -0.249142 1.78267 0
M  V30 4770 H 447.387 0.170078 0.732514 0
M  V30 4771 H 449.358 1.47788 2.59232 0
M  V30 4772 C 448.107 -0.0620885 3.47645 0
M  V30 4773 H 447.43 0.669069 3.94162 0
M  V30 4774 H 448.87 -0.329784 4.22716 0
M  V30 4775 C 447.329 -1.3053 3.10586 0
M  V30 4776 O 447.859 -2.39848 3.22236 0
M  V30 4777 N 446.065 -1.18988 2.65123 0
M  V30 4778 H 445.612 -0.300341 2.55843 0
M  V30 4779 H 445.57 -2.02267 2.40698 0
M  V30 4780 N 449.342 -1.36122 0.79427 0
M  V30 4781 C 450.588 -1.99406 0.369452 0
M  V30 4782 C 450.921 -1.62886 -1.05743 0
M  V30 4783 O 450.196 -0.886053 -1.73145 0
M  V30 4784 C 450.479 -3.56046 0.538833 0
M  V30 4785 C 450.332 -4.02404 2.00976 0
M  V30 4786 C 451.651 -4.40079 -0.0431359 0
M  V30 4787 H 448.77 -0.724397 0.135712 0
M  V30 4788 H 451.412 -1.61461 1.00151 0
M  V30 4789 H 449.562 -3.885 0.000771004 0
M  V30 4790 H 451.234 -3.80415 2.60926 0
M  V30 4791 H 449.477 -3.53765 2.51063 0
M  V30 4792 H 450.148 -5.11344 2.07922 0
M  V30 4793 H 452.624 -4.14013 0.416228 0
M  V30 4794 H 451.5 -5.48799 0.105374 0
M  V30 4795 H 451.761 -4.27264 -1.13571 0
M  V30 4796 N 450.82 -0.546701 -1.47814 0
M  V30 4797 C 451.768 0.220048 -2.31557 0
M  V30 4798 C 452.762 0.919472 -1.42275 0
M  V30 4799 O 453.968 0.841953 -1.59095 0
M  V30 4800 H 450.343 0.0898334 -0.746615 0
M  V30 4801 H 452.314 -0.505589 -2.94086 0
M  V30 4802 C 451.063 1.24353 -3.24702 0
M  V30 4803 H 450.386 0.714758 -3.93359 0
M  V30 4804 H 451.826 1.75112 -3.8615 0
M  V30 4805 C 450.285 2.28593 -2.47481 0
M  V30 4806 O 450.815 3.35334 -2.21165 0
M  V30 4807 N 449.021 2.02244 -2.08676 0
M  V30 4808 H 448.568 1.15455 -2.30278 0
M  V30 4809 H 448.526 2.72207 -1.57323 0
M  V30 4810 N 452.299 1.55045 -0.282633 0
M  V30 4811 C 453.249 2.19514 0.616249 0
M  V30 4812 C 454.233 1.16216 1.11277 0
M  V30 4813 O 455.425 1.42004 1.05659 0
M  V30 4814 C 452.554 2.92548 1.7964 0
M  V30 4815 C 451.64 4.03142 1.31671 0
M  V30 4816 N 452.031 5.0276 0.553695 0
M  V30 4817 C 450.329 4.1635 1.59903 0
M  V30 4818 C 451.03 5.80923 0.30054 0
M  V30 4819 N 450.006 5.3651 0.875116 0
M  V30 4820 H 453.808 2.93889 0.0255363 0
M  V30 4821 H 451.322 1.62169 -0.0865362 0
M  V30 4822 H 453.319 3.37188 2.45173 0
M  V30 4823 H 451.979 2.19685 2.39099 0
M  V30 4824 H 452.99 5.17512 0.20032 0
M  V30 4825 H 449.667 3.54682 2.20243 0
M  V30 4826 H 451.057 6.7118 -0.311053 0
M  V30 4827 N 453.777 0.010035 1.57597 0
M  V30 4828 C 454.687 -0.994226 2.12491 0
M  V30 4829 C 455.703 -1.37013 1.07254 0
M  V30 4830 O 456.879 -1.45542 1.3921 0
M  V30 4831 C 453.944 -2.2642 2.62555 0
M  V30 4832 C 453.005 -1.95049 3.82432 0
M  V30 4833 C 452.238 -3.15991 4.30099 0
M  V30 4834 O 452.461 -4.28015 3.7704 0
M  V30 4835 O 451.395 -2.99403 5.22151 0
M  V30 4836 H 455.221 -0.557549 2.98538 0
M  V30 4837 H 452.806 -0.209413 1.47925 0
M  V30 4838 H 454.688 -3.01009 2.9491 0
M  V30 4839 H 453.363 -2.69306 1.796 0
M  V30 4840 H 452.27 -1.17904 3.55034 0
M  V30 4841 H 453.603 -1.56992 4.66491 0
M  V30 4842 N 455.255 -1.55392 -0.262866 0
M  V30 4843 C 456.218 -1.88181 -1.30846 0
M  V30 4844 C 457.218 -0.757079 -1.41862 0
M  V30 4845 O 458.408 -1.02519 -1.40838 0
M  V30 4846 C 455.54 -2.09609 -2.68844 0
M  V30 4847 H 456.733 -2.81659 -1.02997 0
M  V30 4848 H 454.286 -1.48039 -0.501414 0
M  V30 4849 H 455.021 -1.18547 -3.01856 0
M  V30 4850 H 454.806 -2.91508 -2.62231 0
M  V30 4851 H 456.296 -2.36215 -3.44372 0
M  V30 4852 N 456.733 0.527833 -1.48498 0
M  V30 4853 C 457.963 1.30633 -1.60058 0
M  V30 4854 C 458.371 1.87394 -0.260786 0
M  V30 4855 O 457.714 1.67227 0.760317 0
M  V30 4856 C 457.776 2.49361 -2.58958 0
M  V30 4857 C 457.44 2.13671 -4.03972 0
M  V30 4858 C 458.437 1.69217 -4.91591 0
M  V30 4859 C 456.122 2.24129 -4.49524 0
M  V30 4860 C 458.116 1.35689 -6.2279 0
M  V30 4861 C 455.803 1.90212 -5.80743 0
M  V30 4862 C 456.801 1.46063 -6.67199 0
M  V30 4863 O 456.489 1.12593 -7.95976 0
M  V30 4864 H 456.221 0.403444 -0.54241 0
M  V30 4865 H 458.775 0.643233 -1.95068 0
M  V30 4866 H 457.005 3.18659 -2.19073 0
M  V30 4867 H 458.694 3.11421 -2.6033 0
M  V30 4868 H 459.46 1.60607 -4.57636 0
M  V30 4869 H 455.339 2.57447 -3.82416 0
M  V30 4870 H 458.883 1.01157 -6.90227 0
M  V30 4871 H 454.78 1.98464 -6.14233 0
M  V30 4872 H 455.548 1.25972 -8.08748 0
M  V30 4873 N 458.211 1.37122 0.776871 0
M  V30 4874 C 459.488 1.22586 1.52421 0
M  V30 4875 C 459.868 -0.182726 2.10308 0
M  V30 4876 O 459.216 -1.18979 1.9508 0
M  V30 4877 C 459.426 2.31782 2.60918 0
M  V30 4878 C 460.774 2.69071 3.2846 0
M  V30 4879 O 461.798 2.3092 2.71209 0
M  V30 4880 O 460.657 3.3478 4.31954 0
M  V30 4881 H 457.751 0.478045 0.674835 0
M  V30 4882 H 460.297 1.48888 0.814275 0
M  V30 4883 H 459.069 3.26131 2.16227 0
M  V30 4884 H 458.692 2.06916 3.39517 0
M  V30 4885 N 459.689 -1.00246 1.21608 0
M  V30 4886 C 460.917 -1.77631 1.06089 0
M  V30 4887 C 461.332 -1.84746 -0.38916 0
M  V30 4888 O 460.689 -1.31068 -1.26994 0
M  V30 4889 C 460.74 -3.21415 1.65453 0
M  V30 4890 O 460.461 -3.14703 3.04785 0
M  V30 4891 C 461.962 -4.15289 1.55079 0
M  V30 4892 H 459.182 -0.558162 0.37242 0
M  V30 4893 H 461.726 -1.26093 1.60999 0
M  V30 4894 H 459.881 -3.70053 1.14629 0
M  V30 4895 H 460.295 -4.05056 3.33212 0
M  V30 4896 H 461.769 -5.13965 2.01355 0
M  V30 4897 H 462.246 -4.36279 0.505665 0
M  V30 4898 H 462.852 -3.72543 2.05163 0
M  V30 4899 N 461.167 -1.02423 -1.1978 0
M  V30 4900 C 462.097 -0.62157 -2.25075 0
M  V30 4901 C 463.078 0.367148 -1.6609 0
M  V30 4902 O 464.263 0.250892 -1.92573 0
M  V30 4903 C 461.393 0.0331826 -3.47284 0
M  V30 4904 C 460.347 -0.877323 -4.18912 0
M  V30 4905 C 459.673 -0.0879296 -5.34628 0
M  V30 4906 C 460.973 -2.18892 -4.74219 0
M  V30 4907 H 462.667 -1.50179 -2.59011 0
M  V30 4908 H 460.213 -0.723547 -1.24502 0
M  V30 4909 H 462.166 0.326488 -4.20133 0
M  V30 4910 H 460.89 0.948164 -3.12534 0
M  V30 4911 H 459.549 -1.15475 -3.47938 0
M  V30 4912 H 459.197 0.828941 -4.96123 0
M  V30 4913 H 458.897 -0.694359 -5.83483 0
M  V30 4914 H 460.421 0.198743 -6.10276 0
M  V30 4915 H 461.835 -1.95746 -5.38847 0
M  V30 4916 H 460.232 -2.74686 -5.33542 0
M  V30 4917 H 461.302 -2.84674 -3.92541 0
M  V30 4918 N 462.645 1.35699 -0.801477 0
M  V30 4919 C 463.575 2.32436 -0.222658 0
M  V30 4920 C 464.556 1.5723 0.649057 0
M  V30 4921 O 465.741 1.85324 0.580387 0
M  V30 4922 C 462.871 3.41469 0.633719 0
M  V30 4923 C 461.825 4.27774 -0.139083 0
M  V30 4924 C 461.151 5.28082 0.838666 0
M  V30 4925 C 462.451 5.04946 -1.33517 0
M  V30 4926 H 464.145 2.81094 -1.03086 0
M  V30 4927 H 461.691 1.35146 -0.497155 0
M  V30 4928 H 463.644 4.08143 1.04868 0
M  V30 4929 H 462.368 2.91408 1.47475 0
M  V30 4930 H 461.027 3.62673 -0.535156 0
M  V30 4931 H 460.675 4.7429 1.67506 0
M  V30 4932 H 460.375 5.86695 0.32594 0
M  V30 4933 H 461.899 5.97628 1.25194 0
M  V30 4934 H 463.313 5.64593 -0.995349 0
M  V30 4935 H 461.71 5.7303 -1.78202 0
M  V30 4936 H 462.78 4.35886 -2.12442 0
M  V30 4937 N 464.123 0.554532 1.47522 0
M  V30 4938 C 465.071 -0.207765 2.3167 0
M  V30 4939 C 466.065 -0.911914 1.4276 0
M  V30 4940 O 467.271 -0.833504 1.59539 0
M  V30 4941 H 463.646 -0.0858726 0.747081 0
M  V30 4942 H 465.617 0.521178 2.93813 0
M  V30 4943 C 464.366 -1.2263 3.25357 0
M  V30 4944 H 463.689 -0.693887 3.93732 0
M  V30 4945 H 465.129 -1.73062 3.87073 0
M  V30 4946 C 463.588 -2.27278 2.4869 0
M  V30 4947 O 464.118 -3.34156 2.22941 0
M  V30 4948 N 462.324 -2.01134 2.09746 0
M  V30 4949 H 461.871 -1.14232 2.30887 0
M  V30 4950 H 461.829 -2.71369 1.58765 0
M  V30 4951 N 465.601 -1.54893 0.290851 0
M  V30 4952 C 466.564 -2.21824 -0.576784 0
M  V30 4953 C 467.564 -1.20104 -1.06919 0
M  V30 4954 O 468.754 -1.44906 -0.966843 0
M  V30 4955 C 465.886 -2.89662 -1.79747 0
M  V30 4956 H 467.079 -2.99899 0.00784051 0
M  V30 4957 H 464.632 -1.56245 0.0415934 0
M  V30 4958 H 465.367 -2.15639 -2.42219 0
M  V30 4959 H 465.152 -3.64219 -1.45214 0
M  V30 4960 H 466.642 -3.4075 -2.4141 0
M  V30 4961 N 467.08 -0.0183926 -1.57589 0
M  V30 4962 C 468.329 0.66185 -1.90532 0
M  V30 4963 C 468.642 1.73904 -0.895366 0
M  V30 4964 O 469.848 2.47518 -1.11566 0
M  V30 4965 C 468.304 1.22844 -3.38286 0
M  V30 4966 C 467.912 0.185103 -4.47617 0
M  V30 4967 C 469.656 1.88581 -3.80312 0
M  V30 4968 C 467.563 0.762723 -5.86461 0
M  V30 4969 H 466.493 0.250972 -0.711006 0
M  V30 4970 H 469.144 -0.0819435 -1.83317 0
M  V30 4971 H 467.526 2.0235 -3.40398 0
M  V30 4972 H 468.7 -0.58671 -4.5705 0
M  V30 4973 H 467.015 -0.372889 -4.14727 0
M  V30 4974 H 469.612 2.32735 -4.81392 0
M  V30 4975 H 469.955 2.72408 -3.14801 0
M  V30 4976 H 470.488 1.15782 -3.80578 0
M  V30 4977 H 467.227 -0.0371713 -6.55489 0
M  V30 4978 H 466.747 1.50327 -5.80656 0
M  V30 4979 H 468.426 1.25576 -6.34697 0
M  V30 4980 N 468.558 1.5553 0.254621 0
M  V30 4981 C 469.488 1.9268 1.31897 0
M  V30 4982 C 470.469 0.790797 1.506 0
M  V30 4983 O 471.654 1.05045 1.63337 0
M  V30 4984 C 468.784 2.21477 2.67517 0
M  V30 4985 C 467.738 3.37256 2.63519 0
M  V30 4986 C 467.064 3.51576 4.02862 0
M  V30 4987 C 468.364 4.73157 2.21179 0
M  V30 4988 H 470.058 2.81832 1.01051 0
M  V30 4989 H 467.604 1.35599 0.484662 0
M  V30 4990 H 469.557 2.46055 3.42104 0
M  V30 4991 H 468.281 1.29144 2.99982 0
M  V30 4992 H 466.94 3.12675 1.9139 0
M  V30 4993 H 466.588 2.56676 4.32581 0
M  V30 4994 H 466.288 4.2943 4.01078 0
M  V30 4995 H 467.812 3.78467 4.79161 0
M  V30 4996 H 469.226 4.97158 2.85494 0
M  V30 4997 H 467.623 5.54058 2.30521 0
M  V30 4998 H 468.693 4.70739 1.16332 0
M  V30 4999 N 470.036 -0.519951 1.48776 0
M  V30 5000 C 471.452 -0.849418 1.35119 0
M  V30 5001 C 471.652 -1.98077 0.36982 0
M  V30 5002 O 470.708 -2.51664 -0.205359 0
M  V30 5003 C 472.021 -1.20748 2.75391 0
M  V30 5004 C 473.569 -1.31679 2.83954 0
M  V30 5005 C 474.044 -1.70824 4.24951 0
M  V30 5006 N 475.535 -1.77908 4.27672 0
M  V30 5007 C 476.27 -2.09603 5.33717 0
M  V30 5008 N 475.766 -2.39652 6.5003 0
M  V30 5009 N 477.559 -2.10694 5.21119 0
M  V30 5010 H 469.71 0.226377 2.1119 0
M  V30 5011 H 471.973 0.0386519 0.947212 0
M  V30 5012 H 471.679 -0.449703 3.48813 0
M  V30 5013 H 471.553 -2.15534 3.09556 0
M  V30 5014 H 473.94 -2.06532 2.10781 0
M  V30 5015 H 474.021 -0.3499 2.53396 0
M  V30 5016 H 473.665 -0.965282 4.98643 0
M  V30 5017 H 473.595 -2.6858 4.52959 0
M  V30 5018 H 476.086 -1.56923 3.43779 0
M  V30 5019 H 476.399 -2.6297 7.26682 0
M  V30 5020 H 474.744 -2.37149 6.53288 0
M  V30 5021 H 477.935 -1.86682 4.29264 0
M  V30 5022 H 478.108 -2.35062 6.03863 0
M  V30 5023 N 471.514 -1.37532 -0.769588 0
M  V30 5024 C 472.754 -1.34261 -1.54122 0
M  V30 5025 C 473.118 0.0717222 -1.91866 0
M  V30 5026 O 474.319 0.22918 -2.67821 0
M  V30 5027 C 472.59 -2.2574 -2.77086 0
M  V30 5028 S 474.149 -2.40339 -3.67127 0
M  V30 5029 H 470.967 -0.476595 -0.527615 0
M  V30 5030 H 473.569 -1.73303 -0.90479 0
M  V30 5031 H 472.273 -3.27417 -2.4744 0
M  V30 5032 H 471.804 -1.87789 -3.45686 0
M  V30 5033 H 473.819 -1.61558 -4.69163 0
M  V30 5034 N 472.992 0.995999 -1.22138 0
M  V30 5035 C 474.24 1.73167 -1.042 0
M  V30 5036 C 474.561 1.90329 0.42423 0
M  V30 5037 O 473.831 1.4607 1.30539 0
M  V30 5038 H 472.411 0.641593 -0.38258 0
M  V30 5039 H 475.073 1.19974 -1.53598 0
M  V30 5040 H 474.169 2.72734 -1.51731 0
M  V30 5041 N 474.47 1.03057 1.19235 0
M  V30 5042 C 475.695 0.74757 1.93458 0
M  V30 5043 C 476.12 -0.687648 1.7508 0
M  V30 5044 O 475.478 -1.47499 1.05422 0
M  V30 5045 C 475.526 1.10604 3.43219 0
M  V30 5046 O 474.63 0.225671 4.11782 0
M  V30 5047 H 473.971 0.276047 0.603899 0
M  V30 5048 H 476.501 1.3777 1.51263 0
M  V30 5049 H 476.511 1.06366 3.93891 0
M  V30 5050 H 475.186 2.15165 3.55917 0
M  V30 5051 H 473.763 0.326795 3.71465 0
M  V30 5052 N 475.948 -1.35272 0.808662 0
M  V30 5053 C 477.173 -2.03477 0.401475 0
M  V30 5054 C 477.598 -1.60537 -0.980279 0
M  V30 5055 O 476.956 -0.78304 -1.63518 0
M  V30 5056 C 477.004 -3.57181 0.495354 0
M  V30 5057 O 476.108 -4.09474 -0.490397 0
M  V30 5058 H 475.449 -0.642561 0.167366 0
M  V30 5059 H 477.979 -1.72824 1.09512 0
M  V30 5060 H 477.989 -4.06356 0.365912 0
M  V30 5061 H 476.664 -3.87784 1.5032 0
M  V30 5062 H 475.241 -3.71516 -0.321023 0
M  V30 5063 N 477.426 -0.562348 -1.47226 0
M  V30 5064 C 478.674 -0.0401371 -2.0206 0
M  V30 5065 C 478.995 1.3165 -1.43852 0
M  V30 5066 O 478.265 1.85976 -0.615599 0
M  V30 5067 H 476.845 -0.0118479 -0.746906 0
M  V30 5068 H 479.507 -0.73352 -1.8057 0
M  V30 5069 H 478.603 0.0441254 -3.12069 0
M  V30 5070 N 478.904 1.54736 -0.299062 0
M  V30 5071 C 480.32 1.59507 0.0543849 0
M  V30 5072 C 480.52 1.31606 1.52585 0
M  V30 5073 O 479.576 1.08853 2.27832 0
M  V30 5074 C 480.889 2.98751 -0.34181 0
M  V30 5075 C 482.437 3.1165 -0.290414 0
M  V30 5076 C 482.912 4.53199 -0.661402 0
M  V30 5077 N 484.403 4.59114 -0.613863 0
M  V30 5078 C 485.138 5.66709 -0.873417 0
M  V30 5079 N 484.634 6.82349 -1.19884 0
M  V30 5080 N 486.427 5.56369 -0.800608 0
M  V30 5081 H 478.578 1.71133 -1.25806 0
M  V30 5082 H 480.841 0.799186 -0.509908 0
M  V30 5083 H 480.547 3.24085 -1.36608 0
M  V30 5084 H 480.421 3.75961 0.305508 0
M  V30 5085 H 482.808 2.86066 0.724605 0
M  V30 5086 H 482.889 2.366 -0.972327 0
M  V30 5087 H 482.533 4.79513 -1.67422 0
M  V30 5088 H 482.463 5.26583 0.0425612 0
M  V30 5089 H 484.954 3.76053 -0.3732 0
M  V30 5090 H 485.267 7.60326 -1.38291 0
M  V30 5091 H 483.612 6.83906 -1.23685 0
M  V30 5092 H 486.803 4.64904 -0.546045 0
M  V30 5093 H 486.976 6.40139 -1.00626 0
M  V30 5094 N 480.382 0.0267497 1.57577 0
M  V30 5095 C 481.607 -0.666227 1.96408 0
M  V30 5096 C 482.032 -1.65004 0.903071 0
M  V30 5097 O 481.39 -1.80787 -0.136263 0
M  V30 5098 C 481.438 -1.35101 3.34335 0
M  V30 5099 O 480.542 -2.46623 3.30531 0
M  V30 5100 H 479.883 -0.175206 0.640468 0
M  V30 5101 H 482.413 0.0878977 2.04411 0
M  V30 5102 H 482.423 -1.70834 3.70513 0
M  V30 5103 H 481.098 -0.629844 4.11103 0
M  V30 5104 H 479.675 -2.13019 3.06068 0
M  V30 5105 N 481.861 -1.55662 -0.24637 0
M  V30 5106 C 482.808 -1.90361 -1.30504 0
M  V30 5107 C 483.778 -0.757905 -1.47801 0
M  V30 5108 O 484.963 -1.01161 -1.61775 0
M  V30 5109 C 482.103 -2.2042 -2.65535 0
M  V30 5110 C 481.216 -3.47799 -2.56242 0
M  V30 5111 C 480.351 -3.67426 -3.8363 0
M  V30 5112 C 479.39 -4.88403 -3.68956 0
M  V30 5113 N 478.527 -5.04548 -4.88237 0
M  V30 5114 H 483.367 -2.80645 -1.00213 0
M  V30 5115 H 480.904 -1.38924 -0.483577 0
M  V30 5116 H 482.862 -2.35853 -3.44135 0
M  V30 5117 H 481.492 -1.3334 -2.93973 0
M  V30 5118 H 480.544 -3.40694 -1.69208 0
M  V30 5119 H 481.856 -4.36544 -2.4131 0
M  V30 5120 H 481.01 -3.82821 -4.70673 0
M  V30 5121 H 479.749 -2.76914 -4.01459 0
M  V30 5122 H 478.754 -4.72984 -2.80296 0
M  V30 5123 H 479.979 -5.80375 -3.52621 0
M  V30 5124 H 477.925 -4.16974 -5.06427 0
M  V30 5125 H 477.842 -5.87384 -4.75937 0
M  V30 5126 H 479.11 -5.24355 -5.76777 0
M  V30 5127 N 483.339 0.512053 -1.4905 0
M  V30 5128 C 484.755 0.84224 -1.35567 0
M  V30 5129 C 484.955 1.97878 -0.380319 0
M  V30 5130 O 484.011 2.51769 0.19201 0
M  V30 5131 C 485.324 1.19286 -2.76028 0
M  V30 5132 C 486.872 1.30171 -2.84648 0
M  V30 5133 C 487.347 1.68568 -4.25851 0
M  V30 5134 N 488.838 1.75638 -4.28609 0
M  V30 5135 C 489.573 2.06769 -5.34821 0
M  V30 5136 N 489.069 2.36201 -6.51292 0
M  V30 5137 N 490.862 2.07927 -5.22229 0
M  V30 5138 H 483.013 -0.237574 -2.11067 0
M  V30 5139 H 485.276 -0.0436747 -0.946993 0
M  V30 5140 H 484.982 0.431199 -3.49047 0
M  V30 5141 H 484.856 2.13889 -3.10695 0
M  V30 5142 H 487.243 2.05411 -2.11873 0
M  V30 5143 H 487.324 0.336457 -2.53578 0
M  V30 5144 H 486.968 0.938824 -4.99148 0
M  V30 5145 H 486.898 2.66174 -4.54377 0
M  V30 5146 H 489.389 1.55097 -3.44606 0
M  V30 5147 H 489.702 2.59112 -7.28066 0
M  V30 5148 H 488.047 2.33681 -6.54536 0
M  V30 5149 H 491.238 1.84403 -4.30248 0
M  V30 5150 H 491.411 2.31856 -6.05101 0
M  V30 5151 N 484.817 1.37938 0.762283 0
M  V30 5152 C 486.042 1.37059 1.55659 0
M  V30 5153 C 486.467 -0.0396123 1.88058 0
M  V30 5154 O 485.825 -1.01929 1.49934 0
M  V30 5155 C 485.873 2.22494 2.83776 0
M  V30 5156 O 484.977 1.63607 3.78559 0
M  V30 5157 H 484.318 0.467892 0.47114 0
M  V30 5158 H 486.848 1.81587 0.942725 0
M  V30 5159 H 486.858 2.36045 3.32786 0
M  V30 5160 H 485.533 3.24993 2.59524 0
M  V30 5161 H 484.11 1.5915 3.37233 0
M  V30 5162 N 486.295 -0.989507 1.22664 0
M  V30 5163 C 487.541 -1.7321 1.05481 0
M  V30 5164 C 487.874 -1.89852 -0.408635 0
M  V30 5165 O 487.149 -1.44416 -1.30285 0
M  V30 5166 C 487.432 -3.1357 1.77047 0
M  V30 5167 C 487.285 -3.04555 3.31008 0
M  V30 5168 C 488.604 -4.12812 1.5256 0
M  V30 5169 H 485.723 -0.628697 0.384589 0
M  V30 5170 H 488.365 -1.15258 1.51049 0
M  V30 5171 H 486.515 -3.63046 1.3831 0
M  V30 5172 H 488.187 -2.62674 3.7921 0
M  V30 5173 H 486.43 -2.41278 3.6051 0
M  V30 5174 H 487.101 -4.03894 3.76263 0
M  V30 5175 H 489.577 -3.72106 1.86215 0
M  V30 5176 H 488.453 -5.09132 2.05124 0
M  V30 5177 H 488.714 -4.39711 0.458936 0
M  V30 5178 N 487.773 -1.03688 -1.18687 0
M  V30 5179 C 489.022 -0.733235 -1.879 0
M  V30 5180 C 489.335 0.741745 -1.8099 0
M  V30 5181 O 490.541 1.15875 -2.4553 0
M  V30 5182 C 488.997 -1.26127 -3.37076 0
M  V30 5183 C 488.605 -2.76461 -3.52524 0
M  V30 5184 C 490.349 -1.03398 -4.11715 0
M  V30 5185 C 488.256 -3.22642 -4.95637 0
M  V30 5186 H 487.186 -0.270584 -0.703776 0
M  V30 5187 H 489.837 -1.25222 -1.34133 0
M  V30 5188 H 488.219 -0.670165 -3.90288 0
M  V30 5189 H 489.393 -3.41296 -3.09602 0
M  V30 5190 H 487.708 -2.97559 -2.91286 0
M  V30 5191 H 490.305 -1.3542 -5.17267 0
M  V30 5192 H 490.648 0.0289246 -4.1629 0
M  V30 5193 H 491.181 -1.5895 -3.64664 0
M  V30 5194 H 487.92 -4.28296 -4.96228 0
M  V30 5195 H 487.44 -2.62539 -5.39289 0
M  V30 5196 H 489.119 -3.16444 -5.64333 0
M  V30 5197 N 489.251 1.34841 -0.815825 0
M  V30 5198 C 490.528 1.92908 -0.323416 0
M  V30 5199 C 490.908 1.74479 1.18828 0
M  V30 5200 O 490.256 1.11928 1.99209 0
M  V30 5201 C 490.466 3.40957 -0.744952 0
M  V30 5202 C 491.814 4.18107 -0.739716 0
M  V30 5203 O 492.838 3.49511 -0.68708 0
M  V30 5204 O 491.697 5.40517 -0.806456 0
M  V30 5205 H 488.791 0.822436 -0.0867646 0
M  V30 5206 H 491.337 1.4386 -0.90014 0
M  V30 5207 H 490.109 3.4814 -1.78646 0
M  V30 5208 H 489.732 3.97341 -0.143535 0
M  V30 5209 N 490.729 0.570148 1.46925 0
M  V30 5210 C 492.006 -0.0153259 1.95594 0
M  V30 5211 C 492.386 -1.47232 1.51281 0
M  V30 5212 O 491.734 -2.15574 0.757624 0
M  V30 5213 C 491.944 0.143624 3.48704 0
M  V30 5214 C 493.292 0.00494484 4.246 0
M  V30 5215 O 494.316 0.0718214 3.56128 0
M  V30 5216 O 493.175 -0.141175 5.46318 0
M  V30 5217 H 490.269 -0.0568819 0.825041 0
M  V30 5218 H 492.815 0.637583 1.57267 0
M  V30 5219 H 491.587 1.15699 3.73804 0
M  V30 5220 H 491.21 -0.5463 3.93829 0
M  V30 5221 N 492.207 -1.54576 0.307264 0
M  V30 5222 C 493.454 -2.00263 -0.300167 0
M  V30 5223 C 493.782 -1.19561 -1.53413 0
M  V30 5224 O 493.037 -0.261487 -1.93945 0
M  V30 5225 C 493.336 -3.50572 -0.695253 0
M  V30 5226 C 493.002 -4.48771 0.437679 0
M  V30 5227 C 491.664 -4.7534 0.748681 0
M  V30 5228 C 494.016 -5.0721 1.19949 0
M  V30 5229 C 491.344 -5.5761 1.8245 0
M  V30 5230 C 493.696 -5.90651 2.26527 0
M  V30 5231 C 492.36 -6.15528 2.58227 0
M  V30 5232 H 491.63 -0.732814 -0.109839 0
M  V30 5233 H 494.277 -1.86664 0.427661 0
M  V30 5234 H 492.582 -3.61814 -1.50326 0
M  V30 5235 H 494.279 -3.83352 -1.17653 0
M  V30 5236 H 490.869 -4.282 0.185187 0
M  V30 5237 H 495.053 -4.86679 0.972474 0
M  V30 5238 H 490.309 -5.75121 2.07476 0
M  V30 5239 H 494.483 -6.34957 2.86011 0
M  V30 5240 H 492.11 -6.79066 3.4172 0
M  V30 5241 N 493.685 -0.035106 -1.57561 0
M  V30 5242 C 494.913 0.652258 -1.9635 0
M  V30 5243 C 495.328 1.65317 -0.911897 0
M  V30 5244 O 494.685 1.82194 0.105657 0
M  V30 5245 C 494.736 1.35337 -3.35211 0
M  V30 5246 O 494.457 0.392548 -4.36338 0
M  V30 5247 C 495.958 2.13199 -3.88666 0
M  V30 5248 H 493.178 0.179444 -0.646561 0
M  V30 5249 H 495.722 -0.0966459 -2.04271 0
M  V30 5250 H 493.877 2.05362 -3.28489 0
M  V30 5251 H 494.291 0.891097 -5.16875 0
M  V30 5252 H 495.765 2.577 -4.88154 0
M  V30 5253 H 496.242 2.97353 -3.23231 0
M  V30 5254 H 496.848 1.48118 -3.98674 0
M  V30 5255 N 495.163 1.55791 0.238111 0
M  V30 5256 C 496.093 1.94068 1.29846 0
M  V30 5257 C 497.074 0.806726 1.49753 0
M  V30 5258 O 498.259 1.06772 1.62214 0
M  V30 5259 C 495.389 2.24302 2.65153 0
M  V30 5260 C 494.343 3.40032 2.59927 0
M  V30 5261 C 493.669 3.55829 3.99111 0
M  V30 5262 C 494.969 4.75476 2.16148 0
M  V30 5263 H 496.663 2.82887 0.980563 0
M  V30 5264 H 494.209 1.36105 0.470253 0
M  V30 5265 H 496.162 2.4967 3.39475 0
M  V30 5266 H 494.886 1.32318 2.98596 0
M  V30 5267 H 493.545 3.14687 1.88063 0
M  V30 5268 H 493.193 2.6125 4.29834 0
M  V30 5269 H 492.893 4.3366 3.96501 0
M  V30 5270 H 494.417 3.83528 4.7512 0
M  V30 5271 H 495.831 5.00158 2.80205 0
M  V30 5272 H 494.228 5.56472 2.24631 0
M  V30 5273 H 495.298 4.71946 1.11333 0
M  V30 5274 N 496.642 -0.504142 1.49319 0
M  V30 5275 C 497.87 -1.28256 1.62351 0
M  V30 5276 C 498.285 -1.86502 0.293682 0
M  V30 5277 O 497.642 -1.67678 -0.720449 0
M  V30 5278 C 497.693 -2.41507 2.68992 0
M  V30 5279 O 497.414 -1.85656 3.96817 0
M  V30 5280 C 498.915 -3.32929 2.927 0
M  V30 5281 H 496.135 -0.389115 0.546654 0
M  V30 5282 H 498.679 -0.605531 1.95329 0
M  V30 5283 H 496.834 -3.05046 2.38801 0
M  V30 5284 H 497.248 -2.59981 4.55533 0
M  V30 5285 H 498.722 -4.0868 3.71058 0
M  V30 5286 H 499.199 -3.89733 2.02496 0
M  V30 5287 H 499.805 -2.75158 3.24296 0
M  V30 5288 N 498.12 -1.38341 -0.754957 0
M  V30 5289 C 499.345 -1.37882 -1.5493 0
M  V30 5290 C 499.77 0.0296385 -1.88077 0
M  V30 5291 O 499.128 1.01133 -1.50472 0
M  V30 5292 C 499.176 -2.23996 -2.82592 0
M  V30 5293 O 498.28 -1.65612 -3.77686 0
M  V30 5294 H 497.621 -0.470384 -0.468652 0
M  V30 5295 H 500.151 -1.82084 -0.933082 0
M  V30 5296 H 500.161 -2.37806 -3.3153 0
M  V30 5297 H 498.836 -3.26365 -2.57796 0
M  V30 5298 H 497.413 -1.60936 -3.36384 0
M  V30 5299 N 499.598 0.982988 -1.23187 0
M  V30 5300 C 501.009 1.53847 -1.05773 0
M  V30 5301 C 501.36 1.92568 0.375744 0
M  V30 5302 O 500.485 1.75783 1.26211 0
M  V30 5303 C 501.08 2.79567 -1.91384 0
M  V30 5304 C 499.639 3.31524 -1.78238 0
M  V30 5305 C 498.786 2.04534 -1.87246 0
M  V30 5306 H 501.737 0.802962 -1.36888 0
M  V30 5307 H 501.758 3.52317 -1.43711 0
M  V30 5308 H 501.27 2.51353 -2.95708 0
M  V30 5309 H 499.371 3.64623 -0.766875 0
M  V30 5310 H 499.484 4.01457 -2.61475 0
M  V30 5311 H 497.848 2.1855 -1.30797 0
M  V30 5312 H 498.631 1.78706 -2.9312 0
M  V30 5313 N 501.076 1.04316 1.18135 0
M  V30 5314 C 502.306 0.767003 1.91835 0
M  V30 5315 C 502.714 -0.68002 1.76557 0
M  V30 5316 O 502.057 -1.47548 1.09432 0
M  V30 5317 C 502.119 1.05674 3.43618 0
M  V30 5318 C 501.783 2.49818 3.82675 0
M  V30 5319 C 502.78 3.48003 3.86251 0
M  V30 5320 C 500.465 2.84596 4.13897 0
M  V30 5321 C 502.459 4.79016 4.20503 0
M  V30 5322 C 500.146 4.15813 4.4782 0
M  V30 5323 C 501.144 5.12834 4.51099 0
M  V30 5324 O 500.832 6.41699 4.84229 0
M  V30 5325 H 500.564 0.278948 0.615763 0
M  V30 5326 H 503.118 1.3946 1.50798 0
M  V30 5327 H 501.348 0.372029 3.84906 0
M  V30 5328 H 503.037 0.767994 3.98568 0
M  V30 5329 H 503.803 3.22475 3.62264 0
M  V30 5330 H 499.682 2.09748 4.1052 0
M  V30 5331 H 503.226 5.54739 4.22978 0
M  V30 5332 H 499.123 4.41109 4.71268 0
M  V30 5333 H 499.891 6.46387 5.02121 0
M  V30 5334 N 502.554 -1.34406 0.822964 0
M  V30 5335 C 503.484 -2.32052 0.259608 0
M  V30 5336 C 504.465 -1.58243 -0.623961 0
M  V30 5337 O 505.65 -1.86224 -0.55083 0
M  V30 5338 C 502.78 -3.42434 -0.579314 0
M  V30 5339 C 501.734 -4.27499 0.20712 0
M  V30 5340 C 501.06 -5.29349 -0.754547 0
M  V30 5341 C 502.36 -5.02758 1.41533 0
M  V30 5342 H 504.054 -2.79418 1.07545 0
M  V30 5343 H 501.6 -1.34338 0.518593 0
M  V30 5344 H 503.553 -4.0976 -0.983612 0
M  V30 5345 H 502.277 -2.93717 -1.4282 0
M  V30 5346 H 500.936 -3.61776 0.592787 0
M  V30 5347 H 500.584 -4.76895 -1.59939 0
M  V30 5348 H 500.284 -5.8714 -0.232561 0
M  V30 5349 H 501.808 -5.99544 -1.1567 0
M  V30 5350 H 503.222 -5.62938 1.08504 0
M  V30 5351 H 501.619 -5.70123 1.87296 0
M  V30 5352 H 502.689 -4.32451 2.1935 0
M  V30 5353 N 504.032 -0.577932 -1.46621 0
M  V30 5354 C 505.28 -0.061566 -2.02006 0
M  V30 5355 C 505.601 1.30117 -1.4524 0
M  V30 5356 O 504.871 1.85313 -0.63529 0
M  V30 5357 H 503.451 -0.0197692 -0.746738 0
M  V30 5358 H 506.113 -0.752631 -1.79782 0
M  V30 5359 H 505.209 0.0110238 -3.12098 0
M  V30 5360 N 505.51 1.54411 -0.315457 0
M  V30 5361 C 506.738 2.04833 0.291738 0
M  V30 5362 C 507.153 1.19203 1.46411 0
M  V30 5363 O 506.51 0.220867 1.81159 0
M  V30 5364 C 506.561 3.53969 0.73404 0
M  V30 5365 O 506.282 4.36346 -0.391682 0
M  V30 5366 C 507.783 4.2045 1.40489 0
M  V30 5367 H 505.003 0.668195 0.0612947 0
M  V30 5368 H 507.547 1.99276 -0.45929 0
M  V30 5369 H 505.702 3.5984 1.43506 0
M  V30 5370 H 506.116 5.24481 -0.0447088 0
M  V30 5371 H 507.59 5.26278 1.66539 0
M  V30 5372 H 508.067 3.71067 2.3496 0
M  V30 5373 H 508.673 4.18694 0.746662 0
M  V30 5374 N 506.988 0.0434614 1.5754 0
M  V30 5375 C 508.228 -0.636023 1.94253 0
M  V30 5376 C 508.592 -1.68461 0.921132 0
M  V30 5377 O 509.793 -2.41762 1.17494 0
M  V30 5378 C 508.064 -1.22357 3.35803 0
M  V30 5379 S 509.623 -1.92213 3.94461 0
M  V30 5380 H 506.441 -0.209041 0.679575 0
M  V30 5381 H 509.043 0.110556 1.95187 0
M  V30 5382 H 507.747 -0.448162 4.07946 0
M  V30 5383 H 507.278 -2.00713 3.38346 0
M  V30 5384 H 509.293 -3.20199 3.79061 0
M  V30 5385 N 508.466 -1.55915 -0.229846 0
M  V30 5386 C 509.691 -1.8296 -0.976743 0
M  V30 5387 C 510.116 -0.622735 -1.77493 0
M  V30 5388 O 509.474 0.428431 -1.76165 0
M  V30 5389 C 509.522 -3.07916 -1.8767 0
M  V30 5390 O 508.626 -2.86028 -2.97088 0
M  V30 5391 H 507.967 -0.603453 -0.277021 0
M  V30 5392 H 510.497 -2.0312 -0.245669 0
M  V30 5393 H 510.507 -3.37802 -2.2881 0
M  V30 5394 H 509.182 -3.95389 -1.28996 0
M  V30 5395 H 507.759 -2.67355 -2.59954 0
M  V30 5396 N 509.944 0.496216 -1.49584 0
M  V30 5397 C 511.174 1.27209 -1.62793 0
M  V30 5398 C 511.582 1.86799 -0.300476 0
M  V30 5399 O 510.925 1.68802 0.724674 0
M  V30 5400 C 510.987 2.43812 -2.64189 0
M  V30 5401 C 510.651 2.05055 -4.08414 0
M  V30 5402 C 511.648 1.58752 -4.9507 0
M  V30 5403 C 509.333 2.14543 -4.54177 0
M  V30 5404 C 511.327 1.22448 -6.25528 0
M  V30 5405 C 509.014 1.77851 -5.84647 0
M  V30 5406 C 510.012 1.31878 -6.70147 0
M  V30 5407 O 509.7 0.956834 -7.98185 0
M  V30 5408 H 509.432 0.391848 -0.550846 0
M  V30 5409 H 511.986 0.601712 -1.96389 0
M  V30 5410 H 510.216 3.13941 -2.25783 0
M  V30 5411 H 511.905 3.05829 -2.66877 0
M  V30 5412 H 512.671 1.50863 -4.60939 0
M  V30 5413 H 508.55 2.49277 -3.87791 0
M  V30 5414 H 512.094 0.864933 -6.92217 0
M  V30 5415 H 507.991 1.8539 -6.18305 0
M  V30 5416 H 508.759 1.08789 -8.11238 0
M  V30 5417 N 511.423 1.38739 0.74761 0
M  V30 5418 C 512.663 1.36695 1.51966 0
M  V30 5419 C 513.027 -0.0411889 1.91956 0
M  V30 5420 O 514.228 -0.186543 2.68152 0
M  V30 5421 C 512.499 2.30119 2.73459 0
M  V30 5422 S 514.058 2.4615 3.63257 0
M  V30 5423 H 510.876 0.484929 0.519966 0
M  V30 5424 H 513.478 1.7472 0.877104 0
M  V30 5425 H 512.182 3.31312 2.422 0
M  V30 5426 H 511.713 1.93265 3.42655 0
M  V30 5427 H 513.728 1.69001 4.66533 0
M  V30 5428 N 512.901 -0.976442 1.23707 0
M  V30 5429 C 513.851 -2.0544 0.988851 0
M  V30 5430 C 514.835 -1.60762 -0.0665901 0
M  V30 5431 O 516.027 -1.76396 0.14604 0
M  V30 5432 C 513.156 -3.38258 0.586223 0
M  V30 5433 C 512.242 -3.89523 1.67728 0
M  V30 5434 N 512.633 -4.13823 2.90834 0
M  V30 5435 C 510.931 -4.18097 1.55277 0
M  V30 5436 C 511.632 -4.55731 3.61502 0
M  V30 5437 N 510.608 -4.60394 2.8903 0
M  V30 5438 H 514.41 -2.22191 1.92376 0
M  V30 5439 H 511.924 -1.15954 1.13704 0
M  V30 5440 H 513.921 -4.15075 0.389658 0
M  V30 5441 H 512.581 -3.22898 -0.341594 0
M  V30 5442 H 513.592 -4.01529 3.271 0
M  V30 5443 H 510.269 -4.11719 0.692351 0
M  V30 5444 H 511.659 -4.83018 4.67059 0
M  V30 5445 N 514.379 -1.04941 -1.1758 0
M  V30 5446 C 515.329 -0.618378 -2.19454 0
M  V30 5447 C 516.313 0.343813 -1.57184 0
M  V30 5448 O 517.505 0.16145 -1.76262 0
M  V30 5449 C 514.634 0.00803847 -3.43299 0
M  V30 5450 C 513.72 -0.977827 -4.12673 0
M  V30 5451 N 514.111 -2.14826 -4.57912 0
M  V30 5452 C 512.409 -0.805748 -4.38661 0
M  V30 5453 C 513.11 -2.77174 -5.11419 0
M  V30 5454 N 512.086 -2.04989 -5.03468 0
M  V30 5455 H 515.888 -1.51018 -2.52132 0
M  V30 5456 H 513.402 -0.919201 -1.33882 0
M  V30 5457 H 515.399 0.334584 -4.15555 0
M  V30 5458 H 514.059 0.895272 -3.12114 0
M  V30 5459 H 515.07 -2.52673 -4.52081 0
M  V30 5460 H 511.747 0.0306506 -4.17489 0
M  V30 5461 H 513.137 -3.76416 -5.56562 0
M  V30 5462 N 515.857 1.33968 -0.830081 0
M  V30 5463 C 517.085 2.0228 -0.434773 0
M  V30 5464 C 517.5 1.62487 0.961419 0
M  V30 5465 O 516.857 0.833849 1.62337 0
M  V30 5466 C 516.908 3.5751 -0.535625 0
M  V30 5467 O 516.629 3.95864 -1.87679 0
M  V30 5468 C 518.13 4.43091 -0.136137 0
M  V30 5469 H 515.35 0.648151 -0.173613 0
M  V30 5470 H 517.894 1.71089 -1.12022 0
M  V30 5471 H 516.049 3.87266 0.101817 0
M  V30 5472 H 516.463 4.9056 -1.85609 0
M  V30 5473 H 517.937 5.51398 -0.257772 0
M  V30 5474 H 518.414 4.29433 0.921076 0
M  V30 5475 H 519.02 4.18677 -0.747662 0
M  V30 5476 N 517.335 0.585699 1.46312 0
M  V30 5477 C 518.581 0.0725284 2.0267 0
M  V30 5478 C 518.914 -1.28523 1.45586 0
M  V30 5479 O 518.189 -1.84283 0.622101 0
M  V30 5480 C 518.472 0.0099788 3.60099 0
M  V30 5481 C 518.325 1.39685 4.27561 0
M  V30 5482 C 519.644 -0.689117 4.34671 0
M  V30 5483 H 516.763 0.0278307 0.736474 0
M  V30 5484 H 519.405 0.753472 1.74421 0
M  V30 5485 H 517.555 -0.56992 3.84297 0
M  V30 5486 H 519.227 2.02215 4.14617 0
M  V30 5487 H 517.47 1.96374 3.86807 0
M  V30 5488 H 518.141 1.30553 5.36339 0
M  V30 5489 H 520.617 -0.196446 4.15636 0
M  V30 5490 H 519.493 -0.701921 5.44393 0
M  V30 5491 H 519.754 -1.75101 4.05946 0
M  V30 5492 N 518.813 -1.54241 0.323641 0
M  V30 5493 C 520.224 -1.85975 -0.164405 0
M  V30 5494 C 520.575 -1.24529 -1.51615 0
M  V30 5495 O 519.7 -0.551351 -2.09258 0
M  V30 5496 C 520.295 -3.37424 -0.305091 0
M  V30 5497 C 518.854 -3.69107 -0.737358 0
M  V30 5498 C 518.001 -2.76942 0.140884 0
M  V30 5499 H 520.952 -1.49088 0.543922 0
M  V30 5500 H 520.973 -3.63147 -1.13598 0
M  V30 5501 H 520.485 -3.82116 0.678876 0
M  V30 5502 H 518.586 -3.29947 -1.73107 0
M  V30 5503 H 518.699 -4.76035 -0.541053 0
M  V30 5504 H 517.063 -2.51795 -0.383572 0
M  V30 5505 H 517.846 -3.24461 1.12162 0
M  V30 5506 N 520.291 -0.0518155 -1.57515 0
M  V30 5507 C 521.531 0.625712 -1.94587 0
M  V30 5508 C 521.895 1.6797 -0.930053 0
M  V30 5509 O 523.096 2.41135 -1.18774 0
M  V30 5510 C 521.367 1.20574 -3.36447 0
M  V30 5511 S 522.926 1.90118 -3.95475 0
M  V30 5512 H 519.744 0.205434 -0.680675 0
M  V30 5513 H 522.346 -0.120906 -1.95126 0
M  V30 5514 H 521.05 0.426521 -4.08178 0
M  V30 5515 H 520.581 1.98916 -3.39405 0
M  V30 5516 H 522.596 3.18184 -3.80753 0
M  V30 5517 N 521.769 1.56035 0.221574 0
M  V30 5518 C 523.016 1.79047 0.94597 0
M  V30 5519 C 523.344 0.62057 1.84334 0
M  V30 5520 O 522.599 -0.395053 1.91671 0
M  V30 5521 C 522.898 3.07813 1.8162 0
M  V30 5522 C 522.564 4.3797 1.07206 0
M  V30 5523 C 521.226 4.73334 0.866508 0
M  V30 5524 C 523.578 5.18326 0.546565 0
M  V30 5525 C 520.906 5.8657 0.123549 0
M  V30 5526 C 523.258 6.32335 -0.18305 0
M  V30 5527 C 521.922 6.66301 -0.399861 0
M  V30 5528 H 521.192 0.655178 0.346155 0
M  V30 5529 H 523.839 1.90299 0.214146 0
M  V30 5530 H 522.144 2.91682 2.61589 0
M  V30 5531 H 523.841 3.2282 2.37884 0
M  V30 5532 H 520.431 4.10202 1.24226 0
M  V30 5533 H 524.615 4.9144 0.692847 0
M  V30 5534 H 519.871 6.11376 -0.0546591 0
M  V30 5535 H 524.045 6.9383 -0.59775 0
M  V30 5536 H 521.672 7.53889 -0.977489 0
M  V30 5537 N 523.247 -0.488276 1.49845 0
M  V30 5538 C 524.472 -1.26997 1.63971 0
M  V30 5539 C 524.897 -1.85427 0.315994 0
M  V30 5540 O 524.255 -1.66475 -0.718032 0
M  V30 5541 C 524.303 -2.36689 2.72049 0
M  V30 5542 O 523.407 -3.40882 2.32107 0
M  V30 5543 H 522.748 -0.374376 0.548396 0
M  V30 5544 H 525.278 -0.583104 1.96115 0
M  V30 5545 H 525.288 -2.82262 2.94605 0
M  V30 5546 H 523.963 -1.93529 3.68129 0
M  V30 5547 H 522.54 -3.01139 2.19931 0
M  V30 5548 N 524.725 -1.39134 -0.740242 0
M  V30 5549 C 526.136 -1.32208 -1.31825 0
M  V30 5550 C 526.487 0.0159919 -1.96193 0
M  V30 5551 O 525.612 0.918111 -1.95958 0
M  V30 5552 C 526.207 -2.39436 -2.39699 0
M  V30 5553 C 524.766 -2.36048 -2.93187 0
M  V30 5554 C 523.913 -2.21599 -1.66701 0
M  V30 5555 H 526.864 -1.49298 -0.538133 0
M  V30 5556 H 526.885 -2.05922 -3.19963 0
M  V30 5557 H 526.397 -3.36811 -1.92821 0
M  V30 5558 H 524.498 -1.42295 -3.44359 0
M  V30 5559 H 524.611 -3.30704 -3.46658 0
M  V30 5560 H 522.975 -1.68681 -1.90837 0
M  V30 5561 H 523.758 -3.20936 -1.21882 0
M  V30 5562 N 526.204 0.969867 -1.24223 0
M  V30 5563 C 527.45 1.7151 -1.08223 0
M  V30 5564 C 527.783 1.90478 0.37838 0
M  V30 5565 O 527.058 1.4647 1.27971 0
M  V30 5566 C 527.341 3.10714 -1.82013 0
M  V30 5567 C 527.194 2.9925 -3.35811 0
M  V30 5568 C 528.513 4.10332 -1.59108 0
M  V30 5569 H 525.632 0.622499 -0.394543 0
M  V30 5570 H 528.274 1.1284 -1.52863 0
M  V30 5571 H 526.424 3.608 -1.44068 0
M  V30 5572 H 528.096 2.56608 -3.83341 0
M  V30 5573 H 526.339 2.35512 -3.64303 0
M  V30 5574 H 527.01 3.97857 -3.82641 0
M  V30 5575 H 529.486 3.69097 -1.92111 0
M  V30 5576 H 528.362 5.05804 -2.13198 0
M  V30 5577 H 528.623 4.38926 -0.528832 0
M  V30 5578 N 527.682 1.05563 1.17022 0
M  V30 5579 C 528.629 0.659893 2.21165 0
M  V30 5580 C 529.599 -0.339813 1.62587 0
M  V30 5581 O 530.784 -0.230378 1.89404 0
M  V30 5582 C 527.924 0.0447297 3.45071 0
M  V30 5583 C 527.037 1.09372 4.17926 0
M  V30 5584 C 526.172 0.445481 5.29329 0
M  V30 5585 C 525.211 1.47852 5.93975 0
M  V30 5586 N 524.348 0.854172 6.96885 0
M  V30 5587 H 529.188 1.55243 2.54369 0
M  V30 5588 H 526.725 0.776336 1.24946 0
M  V30 5589 H 528.683 -0.329404 4.15898 0
M  V30 5590 H 527.313 -0.811244 3.1244 0
M  V30 5591 H 526.365 1.58564 3.45777 0
M  V30 5592 H 527.677 1.87773 4.62107 0
M  V30 5593 H 526.831 0.0179688 6.06697 0
M  V30 5594 H 525.57 -0.370481 4.86291 0
M  V30 5595 H 524.575 1.91601 5.15334 0
M  V30 5596 H 525.8 2.29645 6.39093 0
M  V30 5597 H 523.746 0.0587882 6.55974 0
M  V30 5598 H 523.663 1.57567 7.39397 0
M  V30 5599 H 524.931 0.451559 7.78191 0
M  V30 5600 N 529.16 -1.33526 0.837174 0
M  V30 5601 C 530.409 -1.97098 0.428387 0
M  V30 5602 C 530.722 -1.67062 -1.01734 0
M  V30 5603 O 531.928 -2.24235 -1.53072 0
M  V30 5604 C 530.384 -3.52725 0.715075 0
M  V30 5605 C 529.992 -3.9164 2.17537 0
M  V30 5606 C 531.736 -4.22857 0.373154 0
M  V30 5607 C 529.643 -5.40237 2.40619 0
M  V30 5608 H 528.573 -0.737589 0.156455 0
M  V30 5609 H 531.224 -1.52169 1.02552 0
M  V30 5610 H 529.606 -3.95971 0.0475904 0
M  V30 5611 H 530.78 -3.59456 2.88319 0
M  V30 5612 H 529.095 -3.34485 2.4801 0
M  V30 5613 H 531.692 -5.32133 0.523264 0
M  V30 5614 H 532.035 -4.10647 -0.683708 0
M  V30 5615 H 532.568 -3.85135 0.995801 0
M  V30 5616 H 529.307 -5.57449 3.44864 0
M  V30 5617 H 528.827 -5.73887 1.74396 0
M  V30 5618 H 530.506 -6.07102 2.23688 0
M  V30 5619 N 530.638 -0.59345 -1.46 0
M  V30 5620 C 531.548 0.135817 -2.34207 0
M  V30 5621 C 532.564 0.875008 -1.50398 0
M  V30 5622 O 533.74 0.835778 -1.83239 0
M  V30 5623 C 530.805 1.12977 -3.27776 0
M  V30 5624 C 529.866 0.394081 -4.27487 0
M  V30 5625 C 529.099 1.34068 -5.16586 0
M  V30 5626 O 529.322 2.5778 -5.08828 0
M  V30 5627 O 528.256 0.845426 -5.95933 0
M  V30 5628 H 532.082 -0.588691 -2.9794 0
M  V30 5629 H 529.667 -0.353784 -1.45151 0
M  V30 5630 H 531.549 1.70261 -3.85473 0
M  V30 5631 H 530.224 1.83556 -2.66625 0
M  V30 5632 H 529.131 -0.220869 -3.73447 0
M  V30 5633 H 530.464 -0.270939 -4.91454 0
M  V30 5634 N 532.116 1.54067 -0.331816 0
M  V30 5635 C 533.048 2.22139 0.564538 0
M  V30 5636 C 534.061 1.22408 1.07332 0
M  V30 5637 O 535.25 1.4883 0.985481 0
M  V30 5638 C 532.35 2.87876 1.78831 0
M  V30 5639 C 531.523 4.13817 1.41682 0
M  V30 5640 C 530.582 4.63072 2.49901 0
M  V30 5641 O 529.608 5.27562 2.13699 0
M  V30 5642 N 530.81 4.38001 3.80967 0
M  V30 5643 H 533.575 2.99694 -0.0183736 0
M  V30 5644 H 531.136 1.61153 -0.155396 0
M  V30 5645 H 533.128 3.17747 2.50637 0
M  V30 5646 H 531.698 2.13977 2.27887 0
M  V30 5647 H 530.918 3.9062 0.530044 0
M  V30 5648 H 532.206 4.95762 1.14443 0
M  V30 5649 H 531.604 3.864 4.13173 0
M  V30 5650 H 530.161 4.72507 4.48977 0
M  V30 5651 N 533.594 0.0601682 1.57485 0
M  V30 5652 C 534.84 -0.612501 1.93329 0
M  V30 5653 C 535.173 -1.6996 0.939526 0
M  V30 5654 O 534.448 -1.94472 -0.0330957 0
M  V30 5655 C 534.731 -1.20025 3.39508 0
M  V30 5656 C 534.584 -0.12059 4.49638 0
M  V30 5657 C 535.903 -2.10923 3.86264 0
M  V30 5658 H 533.022 -0.221185 0.703027 0
M  V30 5659 H 535.664 0.123768 1.89596 0
M  V30 5660 H 533.814 -1.82774 3.42821 0
M  V30 5661 H 535.486 0.51185 4.58452 0
M  V30 5662 H 533.729 0.550251 4.30296 0
M  V30 5663 H 534.4 -0.572019 5.49028 0
M  V30 5664 H 536.876 -1.58124 3.84884 0
M  V30 5665 H 535.752 -2.48987 4.8918 0
M  V30 5666 H 536.013 -3.01292 3.23536 0
M  V30 5667 N 535.072 -1.5615 -0.213296 0
M  V30 5668 C 536.318 -1.80718 -0.933402 0
M  V30 5669 C 536.673 -0.634441 -1.81639 0
M  V30 5670 O 535.966 0.371182 -1.8797 0
M  V30 5671 C 536.16 -3.08772 -1.79985 0
M  V30 5672 C 535.989 -4.38389 -1.00224 0
M  V30 5673 C 534.759 -5.00513 -0.693885 0
M  V30 5674 C 536.957 -5.13013 -0.363598 0
M  V30 5675 N 534.939 -6.13774 0.124266 0
M  V30 5676 C 536.31 -6.19186 0.31757 0
M  V30 5677 C 538.365 -4.97126 -0.277468 0
M  V30 5678 C 537.068 -7.11197 1.07664 0
M  V30 5679 C 539.094 -5.89544 0.468155 0
M  V30 5680 C 538.456 -6.95149 1.13784 0
M  V30 5681 H 534.555 -0.712833 -0.321549 0
M  V30 5682 H 537.139 -1.93633 -0.203588 0
M  V30 5683 H 535.31 -2.97126 -2.50142 0
M  V30 5684 H 537.042 -3.21499 -2.45806 0
M  V30 5685 H 533.797 -4.62619 -1.01391 0
M  V30 5686 H 534.221 -6.74981 0.522418 0
M  V30 5687 H 538.863 -4.15526 -0.78087 0
M  V30 5688 H 536.581 -7.92273 1.59153 0
M  V30 5689 H 540.167 -5.79327 0.535911 0
M  V30 5690 H 539.047 -7.65428 1.70557 0
M  V30 5691 N 536.55 0.480323 -1.50102 0
M  V30 5692 C 537.827 1.24159 -1.51142 0
M  V30 5693 C 538.207 2.09605 -0.250818 0
M  V30 5694 O 537.555 2.15274 0.766118 0
M  V30 5695 C 537.765 2.08057 -2.80202 0
M  V30 5696 C 539.113 2.66556 -3.30504 0
M  V30 5697 O 540.137 2.18308 -2.81461 0
M  V30 5698 O 538.996 3.54442 -4.15973 0
M  V30 5699 H 536.09 0.562928 -0.605839 0
M  V30 5700 H 538.636 0.492899 -1.62384 0
M  V30 5701 H 537.408 1.45032 -3.6343 0
M  V30 5702 H 537.031 2.90079 -2.71919 0
M  V30 5703 N 538.028 1.39524 0.732853 0
M  V30 5704 C 538.938 1.40695 1.87729 0
M  V30 5705 C 539.954 0.301496 1.71368 0
M  V30 5706 O 541.13 0.543313 1.93933 0
M  V30 5707 C 538.195 1.25098 3.23344 0
M  V30 5708 C 537.256 2.45634 3.52083 0
M  V30 5709 C 536.489 2.30772 4.81228 0
M  V30 5710 O 536.712 1.31233 5.55098 0
M  V30 5711 O 535.646 3.19799 5.09914 0
M  V30 5712 H 539.472 2.37168 1.89697 0
M  V30 5713 H 537.057 1.20663 0.880959 0
M  V30 5714 H 538.939 1.18541 4.04383 0
M  V30 5715 H 537.614 0.317209 3.22142 0
M  V30 5716 H 536.521 2.57767 2.71122 0
M  V30 5717 H 537.854 3.37712 3.58066 0
M  V30 5718 N 539.506 -0.963266 1.24736 0
M  V30 5719 C 540.469 -2.04013 1.04457 0
M  V30 5720 C 541.469 -1.608 0.000335555 0
M  V30 5721 O 542.659 -1.72515 0.241719 0
M  V30 5722 C 539.791 -3.35858 0.584162 0
M  V30 5723 H 540.984 -2.23436 2.00041 0
M  V30 5724 H 538.537 -1.13914 1.07021 0
M  V30 5725 H 539.272 -3.22128 -0.374673 0
M  V30 5726 H 539.057 -3.68568 1.3379 0
M  V30 5727 H 540.547 -4.1502 0.463451 0
M  V30 5728 N 540.985 -1.06182 -1.16461 0
M  V30 5729 C 542.262 -0.691364 -1.82974 0
M  V30 5730 C 542.642 0.827377 -1.9421 0
M  V30 5731 O 541.99 1.73723 -1.48434 0
M  V30 5732 C 542.2 -1.39199 -3.20038 0
M  V30 5733 C 543.548 -1.53647 -3.95825 0
M  V30 5734 O 544.572 -1.35181 -3.29552 0
M  V30 5735 O 543.431 -1.83932 -5.14618 0
M  V30 5736 H 540.525 -0.244605 -0.789998 0
M  V30 5737 H 543.071 -1.16203 -1.23673 0
M  V30 5738 H 541.843 -2.42766 -3.06888 0
M  V30 5739 H 541.466 -0.911335 -3.87015 0
M  V30 5740 N 542.463 1.3308 -0.844243 0
M  V30 5741 C 543.74 1.92178 -0.364261 0
M  V30 5742 C 544.12 1.76961 1.15101 0
M  V30 5743 O 543.468 1.16128 1.9679 0
M  V30 5744 C 543.678 3.393 -0.817106 0
M  V30 5745 C 545.026 4.16444 -0.828236 0
M  V30 5746 O 546.05 3.47975 -0.761062 0
M  V30 5747 O 544.909 5.38685 -0.920926 0
M  V30 5748 H 542.003 0.820411 -0.10419 0
M  V30 5749 H 544.549 1.41918 -0.930453 0
M  V30 5750 H 543.321 3.44272 -1.85991 0
M  V30 5751 H 542.944 3.96947 -0.227785 0
M  V30 5752 N 543.941 0.601185 1.45683 0
M  V30 5753 C 544.889 -0.133955 2.32214 0
M  V30 5754 C 545.883 -0.866034 1.45589 0
M  V30 5755 O 547.089 -0.782326 1.6211 0
M  V30 5756 H 543.464 -0.0620613 0.749435 0
M  V30 5757 H 545.435 0.614389 2.92007 0
M  V30 5758 C 544.184 -1.12216 3.29094 0
M  V30 5759 H 543.507 -0.568273 3.95741 0
M  V30 5760 H 544.947 -1.60659 3.92383 0
M  V30 5761 C 543.406 -2.19251 2.55794 0
M  V30 5762 O 543.936 -3.26894 2.33459 0
M  V30 5763 N 542.142 -1.9436 2.16039 0
M  V30 5764 H 541.689 -1.06829 2.34404 0
M  V30 5765 H 541.647 -2.66181 1.67318 0
M  V30 5766 N 545.419 -1.53889 0.339982 0
M  V30 5767 C 546.647 -2.05271 -0.259114 0
M  V30 5768 C 547.062 -1.21517 -1.44496 0
M  V30 5769 O 546.419 -0.24966 -1.80784 0
M  V30 5770 C 546.47 -3.55092 -0.677634 0
M  V30 5771 O 546.191 -4.35667 0.461051 0
M  V30 5772 C 547.692 -4.22631 -1.33782 0
M  V30 5773 H 544.912 -0.669085 -0.0506566 0
M  V30 5774 H 547.456 -1.9852 0.490935 0
M  V30 5775 H 545.611 -3.62077 -1.37763 0
M  V30 5776 H 546.025 -5.24343 0.128144 0
M  V30 5777 H 547.499 -5.28861 -1.58145 0
M  V30 5778 H 547.976 -3.74758 -2.29027 0
M  V30 5779 H 548.582 -4.19829 -0.679957 0
M  V30 5780 N 546.897 -0.0685191 -1.57451 0
M  V30 5781 C 548.146 0.600898 -1.92541 0
M  V30 5782 C 548.459 1.70967 -0.950239 0
M  V30 5783 O 549.665 2.43844 -1.19384 0
M  V30 5784 C 548.121 1.12019 -3.42023 0
M  V30 5785 C 547.729 0.0426028 -4.4798 0
M  V30 5786 C 549.473 1.76386 -3.86119 0
M  V30 5787 C 547.38 0.575759 -5.88591 0
M  V30 5788 H 546.31 0.228225 -0.71863 0
M  V30 5789 H 548.961 -0.140223 -1.82963 0
M  V30 5790 H 547.343 1.91418 -3.46663 0
M  V30 5791 H 548.517 -0.73182 -4.54952 0
M  V30 5792 H 546.832 -0.504642 -4.13331 0
M  V30 5793 H 549.429 2.17302 -4.88553 0
M  V30 5794 H 549.772 2.62255 -3.23308 0
M  V30 5795 H 550.305 1.03615 -3.84069 0
M  V30 5796 H 547.044 -0.245691 -6.55039 0
M  V30 5797 H 546.564 1.31778 -5.85145 0
M  V30 5798 H 548.243 1.0532 -6.3837 0
M  V30 5799 N 548.375 1.56261 0.205012 0
M  V30 5800 C 549.791 1.49623 0.555433 0
M  V30 5801 C 549.991 0.766719 1.86343 0
M  V30 5802 O 549.047 0.313158 2.50551 0
M  V30 5803 C 550.36 2.94253 0.619347 0
M  V30 5804 C 551.908 3.04868 0.708855 0
M  V30 5805 C 552.383 4.50888 0.803969 0
M  V30 5806 N 553.874 4.54999 0.867758 0
M  V30 5807 C 554.609 5.65284 0.96135 0
M  V30 5808 N 554.105 6.85282 1.01786 0
M  V30 5809 N 555.898 5.53174 0.997771 0
M  V30 5810 H 548.049 2.0211 -0.653094 0
M  V30 5811 H 550.312 0.919333 -0.231366 0
M  V30 5812 H 550.018 3.50643 -0.272458 0
M  V30 5813 H 549.892 3.47063 1.47741 0
M  V30 5814 H 552.279 2.48532 1.5911 0
M  V30 5815 H 552.36 2.55199 -0.175205 0
M  V30 5816 H 552.004 5.07846 -0.0738798 0
M  V30 5817 H 551.934 4.98279 1.70369 0
M  V30 5818 H 554.425 3.68588 0.833735 0
M  V30 5819 H 554.738 7.65081 1.08951 0
M  V30 5820 H 553.083 6.8796 0.986706 0
M  V30 5821 H 556.274 4.5835 0.950392 0
M  V30 5822 H 556.447 6.39151 1.06725 0
M  V30 5823 N 549.853 -0.472356 1.50355 0
M  V30 5824 C 551.102 -1.2213 1.60522 0
M  V30 5825 C 551.415 -1.9312 0.310466 0
M  V30 5826 O 552.621 -2.69936 0.291029 0
M  V30 5827 C 551.077 -2.21909 2.83345 0
M  V30 5828 C 550.685 -1.56727 4.19691 0
M  V30 5829 C 552.429 -2.97453 3.02856 0
M  V30 5830 C 550.336 -2.54785 5.33703 0
M  V30 5831 H 549.266 -0.459543 0.597776 0
M  V30 5832 H 551.917 -0.491922 1.76783 0
M  V30 5833 H 550.299 -2.98133 2.60639 0
M  V30 5834 H 551.473 -0.863007 4.52646 0
M  V30 5835 H 549.788 -0.934685 4.05774 0
M  V30 5836 H 552.385 -3.70838 3.85205 0
M  V30 5837 H 552.728 -3.56764 2.14534 0
M  V30 5838 H 553.261 -2.28342 3.25737 0
M  V30 5839 H 550 -2.00214 6.24175 0
M  V30 5840 H 549.52 -3.23367 5.05167 0
M  V30 5841 H 551.199 -3.16639 5.64224 0
M  V30 5842 N 551.331 -1.39911 -0.725443 0
M  V30 5843 C 552.263 -1.35301 -1.85003 0
M  V30 5844 C 553.276 -0.260102 -1.60709 0
M  V30 5845 O 554.465 -0.519749 -1.70766 0
M  V30 5846 C 551.565 -1.08039 -3.21218 0
M  V30 5847 C 550.738 -2.28793 -3.7279 0
M  V30 5848 C 549.797 -1.97841 -4.87591 0
M  V30 5849 O 548.823 -2.70616 -5.00755 0
M  V30 5850 N 550.025 -0.950367 -5.72668 0
M  V30 5851 H 552.79 -2.32218 -1.89459 0
M  V30 5852 H 550.351 -1.34137 -0.90658 0
M  V30 5853 H 552.343 -0.853354 -3.95601 0
M  V30 5854 H 550.913 -0.198229 -3.11971 0
M  V30 5855 H 550.133 -2.67388 -2.8965 0
M  V30 5856 H 551.421 -3.09317 -4.03981 0
M  V30 5857 H 550.819 -0.347436 -5.64632 0
M  V30 5858 H 549.376 -0.783232 -6.47077 0
M  V30 5859 N 552.809 0.956637 -1.25245 0
M  V30 5860 C 554.037 1.73571 -1.12608 0
M  V30 5861 C 554.452 1.86063 0.320324 0
M  V30 5862 O 553.809 1.35691 1.22042 0
M  V30 5863 C 553.86 3.15053 -1.77268 0
M  V30 5864 O 553.581 3.03174 -3.16255 0
M  V30 5865 C 555.082 4.09248 -1.70386 0
M  V30 5866 H 552.302 0.543955 -0.392879 0
M  V30 5867 H 554.846 1.20031 -1.65568 0
M  V30 5868 H 553.001 3.65543 -1.28284 0
M  V30 5869 H 553.415 3.9241 -3.48015 0
M  V30 5870 H 554.889 5.06138 -2.20291 0
M  V30 5871 H 555.366 4.34102 -0.667239 0
M  V30 5872 H 555.972 3.64672 -2.18849 0
M  V30 5873 N 554.287 1.06798 1.15896 0
M  V30 5874 C 555.512 0.808739 1.90982 0
M  V30 5875 C 555.937 -0.6316 1.77179 0
M  V30 5876 O 555.295 -1.4407 1.10061 0
M  V30 5877 C 555.343 1.21468 3.39526 0
M  V30 5878 O 554.447 0.356562 4.10856 0
M  V30 5879 H 553.788 0.29512 0.594811 0
M  V30 5880 H 556.318 1.42513 1.46804 0
M  V30 5881 H 556.328 1.18844 3.90308 0
M  V30 5882 H 555.003 2.26379 3.48891 0
M  V30 5883 H 553.58 0.444808 3.70238 0
M  V30 5884 N 555.766 -1.3263 0.851289 0
M  V30 5885 C 556.729 -2.27247 0.298541 0
M  V30 5886 C 557.729 -1.51467 -0.539847 0
M  V30 5887 O 558.919 -1.7061 -0.351843 0
M  V30 5888 C 556.051 -3.35964 -0.578004 0
M  V30 5889 H 557.244 -2.7765 1.13359 0
M  V30 5890 H 554.797 -1.43245 0.625354 0
M  V30 5891 H 555.532 -2.90823 -1.435 0
M  V30 5892 H 555.317 -3.92094 0.0220539 0
M  V30 5893 H 556.807 -4.06472 -0.957626 0
M  V30 5894 N 557.244 -0.608902 -1.45362 0
M  V30 5895 C 558.176 0.147318 -2.28726 0
M  V30 5896 C 559.189 0.830468 -1.40025 0
M  V30 5897 O 560.378 0.695636 -1.64387 0
M  V30 5898 C 557.478 1.22968 -3.15804 0
M  V30 5899 C 556.651 0.633391 -4.3279 0
M  V30 5900 C 555.71 1.60682 -5.01067 0
M  V30 5901 O 554.736 1.13261 -5.57818 0
M  V30 5902 N 555.938 2.94123 -5.00472 0
M  V30 5903 H 558.703 -0.568014 -2.94268 0
M  V30 5904 H 556.264 -0.448479 -1.55564 0
M  V30 5905 H 558.256 1.88072 -3.58345 0
M  V30 5906 H 556.826 1.84752 -2.52162 0
M  V30 5907 H 556.046 -0.195762 -3.93714 0
M  V30 5908 H 557.334 0.215255 -5.08344 0
M  V30 5909 H 556.732 3.3525 -4.55657 0
M  V30 5910 H 555.289 3.54646 -5.46872 0
M  V30 5911 N 558.722 1.53707 -0.348139 0
M  V30 5912 C 559.969 2.00988 0.246966 0
M  V30 5913 C 560.297 1.23586 1.50189 0
M  V30 5914 O 559.552 0.312817 1.93184 0
M  V30 5915 C 559.851 3.52292 0.602061 0
M  V30 5916 C 559.517 4.47453 -0.556509 0
M  V30 5917 C 558.179 4.73188 -0.874446 0
M  V30 5918 C 560.531 5.03851 -1.33354 0
M  V30 5919 C 557.859 5.52577 -1.9717 0
M  V30 5920 C 560.211 5.84437 -2.42108 0
M  V30 5921 C 558.875 6.08465 -2.74456 0
M  V30 5922 H 558.145 0.735469 0.0903712 0
M  V30 5923 H 560.792 1.85464 -0.477001 0
M  V30 5924 H 559.097 3.65672 1.40681 0
M  V30 5925 H 560.794 3.86337 1.07447 0
M  V30 5926 H 557.384 4.27558 -0.298652 0
M  V30 5927 H 561.568 4.8393 -1.10117 0
M  V30 5928 H 556.824 5.69418 -2.22651 0
M  V30 5929 H 560.998 6.27151 -3.02745 0
M  V30 5930 H 558.625 6.69768 -3.59604 0
M  V30 5931 N 560.2 0.0768682 1.57412 0
M  V30 5932 C 561.448 -0.589918 1.93299 0
M  V30 5933 C 561.769 -1.69842 0.958049 0
M  V30 5934 O 561.039 -1.95899 0.00703261 0
M  V30 5935 H 559.619 -0.220901 0.713591 0
M  V30 5936 H 562.281 0.135917 1.94425 0
M  V30 5937 H 561.377 -1.01195 2.95239 0
M  V30 5938 N 561.678 -1.56367 -0.196722 0
M  V30 5939 C 562.908 -1.84371 -0.932254 0
M  V30 5940 C 563.316 -0.657013 -1.77426 0
M  V30 5941 O 562.659 0.383576 -1.79651 0
M  V30 5942 C 562.721 -3.06454 -1.87952 0
M  V30 5943 C 562.385 -4.40425 -1.21962 0
M  V30 5944 C 563.382 -5.16457 -0.597343 0
M  V30 5945 C 561.067 -4.8716 -1.22396 0
M  V30 5946 C 563.061 -6.37399 0.0117913 0
M  V30 5947 C 560.748 -6.08038 -0.610995 0
M  V30 5948 C 561.746 -6.83 0.00580487 0
M  V30 5949 O 561.434 -8.01589 0.609173 0
M  V30 5950 H 561.166 -0.616377 -0.277589 0
M  V30 5951 H 563.72 -2.04329 -0.209452 0
M  V30 5952 H 561.95 -2.82377 -2.64197 0
M  V30 5953 H 563.639 -3.21118 -2.48271 0
M  V30 5954 H 564.405 -4.81445 -0.586142 0
M  V30 5955 H 560.284 -4.2877 -1.69345 0
M  V30 5956 H 563.828 -6.9585 0.493836 0
M  V30 5957 H 559.725 -6.42519 -0.619693 0
M  V30 5958 H 560.493 -8.16935 0.505919 0
M  V30 5959 N 563.156 0.464375 -1.50603 0
M  V30 5960 C 564.433 1.22549 -1.5245 0
M  V30 5961 C 564.813 2.09327 -0.273035 0
M  V30 5962 O 564.161 2.16074 0.743242 0
M  V30 5963 C 564.371 2.05074 -2.82393 0
M  V30 5964 C 565.719 2.63036 -3.33313 0
M  V30 5965 O 566.743 2.1531 -2.8376 0
M  V30 5966 O 565.602 3.5001 -4.19709 0
M  V30 5967 H 562.696 0.556471 -0.611775 0
M  V30 5968 H 565.242 0.475648 -1.62898 0
M  V30 5969 H 564.014 1.41169 -3.64948 0
M  V30 5970 H 563.637 2.87179 -2.7498 0
M  V30 5971 N 564.634 1.40294 0.718013 0
M  V30 5972 C 565.566 1.36281 1.84283 0
M  V30 5973 C 566.579 0.268621 1.60569 0
M  V30 5974 O 567.768 0.528798 1.70487 0
M  V30 5975 C 564.868 1.09741 3.2064 0
M  V30 5976 C 564.041 2.30767 3.71571 0
M  V30 5977 C 563.1 2.00424 4.86535 0
M  V30 5978 O 562.126 2.73268 4.99313 0
M  V30 5979 N 563.328 0.980724 5.72156 0
M  V30 5980 H 566.093 2.3322 1.88225 0
M  V30 5981 H 563.654 1.34616 0.899453 0
M  V30 5982 H 565.646 0.874322 3.95143 0
M  V30 5983 H 564.216 0.214771 3.11861 0
M  V30 5984 H 563.436 2.68921 2.88228 0
M  V30 5985 H 564.724 3.11455 4.02335 0
M  V30 5986 H 564.122 0.377375 5.6444 0
M  V30 5987 H 562.679 0.817538 6.46653 0
M  V30 5988 N 566.112 -0.949982 1.2575 0
M  V30 5989 C 567.337 -1.73503 1.13628 0
M  V30 5990 C 567.762 -1.85601 -0.30559 0
M  V30 5991 O 567.12 -1.33984 -1.22139 0
M  V30 5992 C 567.168 -3.1243 1.80055 0
M  V30 5993 O 566.272 -3.97916 1.08336 0
M  V30 5994 H 565.613 -0.532665 0.396439 0
M  V30 5995 H 568.143 -1.19043 1.66403 0
M  V30 5996 H 568.153 -3.62866 1.86527 0
M  V30 5997 H 566.828 -3.02941 2.84956 0
M  V30 5998 H 565.405 -3.56375 1.09777 0
M  V30 5999 N 567.59 -1.07411 -1.15328 0
M  V30 6000 C 568.838 -0.796073 -1.85761 0
M  V30 6001 C 569.159 0.679864 -1.82764 0
M  V30 6002 O 568.429 1.49242 -1.269 0
M  V30 6003 H 567.009 -0.291495 -0.687779 0
M  V30 6004 H 569.671 -1.35799 -1.39802 0
M  V30 6005 H 568.767 -1.13114 -2.90881 0
M  V30 6006 N 569.068 1.32177 -0.85831 0
M  V30 6007 C 570.031 2.27086 -0.310588 0
M  V30 6008 C 571.031 1.51751 0.531806 0
M  V30 6009 O 572.221 1.70794 0.34279 0
M  V30 6010 C 569.353 3.36266 0.560179 0
M  V30 6011 H 570.546 2.77045 -1.1483 0
M  V30 6012 H 568.099 1.42911 -0.632942 0
M  V30 6013 H 568.834 2.9158 1.41956 0
M  V30 6014 H 568.619 3.92077 -0.0428473 0
M  V30 6015 H 570.109 4.06974 0.936056 0
M  V30 6016 N 570.547 0.616602 1.45037 0
M  V30 6017 C 571.51 -0.0871112 2.29034 0
M  V30 6018 C 572.51 -0.786414 1.40258 0
M  V30 6019 O 573.7 -0.633207 1.62284 0
M  V30 6020 C 570.832 -1.13369 3.21497 0
M  V30 6021 H 572.025 0.651497 2.92738 0
M  V30 6022 H 569.578 0.376058 1.51709 0
M  V30 6023 H 570.313 -1.90277 2.62612 0
M  V30 6024 H 570.098 -0.636358 3.86902 0
M  V30 6025 H 571.588 -1.62627 3.84633 0
M  V30 6026 N 572.025 -1.5352 0.356285 0
M  V30 6027 C 573.25 -2.06007 -0.239961 0
M  V30 6028 C 573.675 -1.22872 -1.42422 0
M  V30 6029 O 573.033 -0.245516 -1.7963 0
M  V30 6030 C 573.081 -3.5522 -0.620587 0
M  V30 6031 O 572.185 -3.74864 -1.71902 0
M  V30 6032 H 571.526 -0.662961 -0.0371377 0
M  V30 6033 H 574.056 -1.98033 0.514194 0
M  V30 6034 H 574.066 -3.98081 -0.894197 0
M  V30 6035 H 572.741 -4.15175 0.245407 0
M  V30 6036 H 571.318 -3.43904 -1.44169 0
M  V30 6037 N 573.503 -0.0852151 -1.57369 0
M  V30 6038 C 574.466 0.8627 -2.12344 0
M  V30 6039 C 575.466 1.21746 -1.05046 0
M  V30 6040 O 576.656 1.14852 -1.30976 0
M  V30 6041 C 573.788 2.1618 -2.63589 0
M  V30 6042 H 574.981 0.385511 -2.97412 0
M  V30 6043 H 572.534 0.163663 -1.55441 0
M  V30 6044 H 573.269 2.68406 -1.82013 0
M  V30 6045 H 573.054 1.91723 -3.4203 0
M  V30 6046 H 574.544 2.84011 -3.06149 0
M  V30 6047 N 574.981 1.5647 0.188427 0
M  V30 6048 C 575.929 1.95971 1.25293 0
M  V30 6049 C 576.923 0.846047 1.4676 0
M  V30 6050 O 578.129 1.03109 1.47542 0
M  V30 6051 H 574.504 0.623253 0.420784 0
M  V30 6052 H 576.475 2.84731 0.892792 0
M  V30 6053 C 575.224 2.32116 2.58877 0
M  V30 6054 H 574.547 3.17341 2.43176 0
M  V30 6055 H 575.987 2.63613 3.3209 0
M  V30 6056 C 574.446 1.15823 3.16365 0
M  V30 6057 O 574.976 0.436785 3.99318 0
M  V30 6058 N 573.182 0.933278 2.75206 0
M  V30 6059 H 572.729 1.52169 2.07852 0
M  V30 6060 H 572.687 0.156976 3.14008 0
M  V30 6061 N 576.459 -0.456382 1.50847 0
M  V30 6062 C 577.406 -1.55249 1.70782 0
M  V30 6063 C 578.376 -1.56757 0.549231 0
M  V30 6064 O 579.561 -1.74061 0.7815 0
M  V30 6065 C 576.701 -2.93118 1.82143 0
M  V30 6066 C 575.814 -3.01285 3.09598 0
M  V30 6067 C 574.949 -4.30159 3.11667 0
M  V30 6068 C 573.988 -4.32124 4.33515 0
M  V30 6069 N 573.125 -5.52492 4.3324 0
M  V30 6070 H 577.965 -1.37555 2.64353 0
M  V30 6071 H 575.502 -0.668543 1.3103 0
M  V30 6072 H 577.46 -3.73088 1.86711 0
M  V30 6073 H 576.09 -3.09413 0.919978 0
M  V30 6074 H 575.142 -2.14096 3.14431 0
M  V30 6075 H 576.454 -2.98597 3.99551 0
M  V30 6076 H 575.608 -5.18489 3.15046 0
M  V30 6077 H 574.347 -4.35477 2.1957 0
M  V30 6078 H 573.352 -3.42189 4.30333 0
M  V30 6079 H 574.577 -4.28485 5.26856 0
M  V30 6080 H 572.523 -5.58567 3.44004 0
M  V30 6081 H 572.44 -5.51605 5.16979 0
M  V30 6082 H 573.708 -6.42906 4.40786 0
M  V30 6083 N 577.937 -1.40673 -0.710563 0
M  V30 6084 C 579.167 -1.4234 -1.49742 0
M  V30 6085 C 579.575 -0.022821 -1.89186 0
M  V30 6086 O 578.918 0.964773 -1.56326 0
M  V30 6087 C 578.98 -2.25509 -2.79975 0
M  V30 6088 C 578.644 -3.73862 -2.62824 0
M  V30 6089 C 579.641 -4.66379 -2.29752 0
M  V30 6090 C 577.326 -4.17735 -2.78932 0
M  V30 6091 C 579.32 -6.00756 -2.13006 0
M  V30 6092 C 577.007 -5.5218 -2.61802 0
M  V30 6093 C 578.005 -6.43505 -2.28888 0
M  V30 6094 O 577.693 -7.75472 -2.11894 0
M  V30 6095 H 577.425 -0.487311 -0.468513 0
M  V30 6096 H 579.979 -1.8542 -0.883668 0
M  V30 6097 H 578.209 -1.77218 -3.43701 0
M  V30 6098 H 579.898 -2.19058 -3.41714 0
M  V30 6099 H 580.664 -4.33778 -2.16936 0
M  V30 6100 H 576.543 -3.46967 -3.03537 0
M  V30 6101 H 580.087 -6.72003 -1.87237 0
M  V30 6102 H 575.984 -5.84365 -2.74204 0
M  V30 6103 H 576.752 -7.86458 -2.26775 0
M  V30 6104 N 579.415 0.9433 -1.26252 0
M  V30 6105 C 580.831 1.21644 -1.03319 0
M  V30 6106 C 581.031 2.0003 0.242983 0
M  V30 6107 O 580.087 2.33838 0.952688 0
M  V30 6108 C 581.4 1.97978 -2.2633 0
M  V30 6109 C 582.948 2.10978 -2.31209 0
M  V30 6110 C 583.423 2.90713 -3.53907 0
M  V30 6111 N 584.914 2.98287 -3.54371 0
M  V30 6112 C 585.649 3.60406 -4.45976 0
M  V30 6113 N 585.145 4.24043 -5.47868 0
M  V30 6114 N 586.938 3.57658 -4.33633 0
M  V30 6115 H 579.089 0.419221 -2.08222 0
M  V30 6116 H 581.352 0.247995 -0.914988 0
M  V30 6117 H 581.058 1.47788 -3.19142 0
M  V30 6118 H 580.932 2.9865 -2.30408 0
M  V30 6119 H 583.319 2.6036 -1.38913 0
M  V30 6120 H 583.4 1.09575 -2.31143 0
M  V30 6121 H 583.044 2.42018 -4.46531 0
M  V30 6122 H 582.974 3.92367 -3.5122 0
M  V30 6123 H 585.465 2.53044 -2.80673 0
M  V30 6124 H 585.778 4.69334 -6.13959 0
M  V30 6125 H 584.123 4.22637 -5.51728 0
M  V30 6126 H 587.314 3.07134 -3.53251 0
M  V30 6127 H 587.487 4.05782 -5.05218 0
M  V30 6128 N 580.893 1.08022 1.14757 0
M  V30 6129 C 582.123 0.827646 1.89298 0
M  V30 6130 C 582.531 -0.623506 1.78631 0
M  V30 6131 O 581.874 -1.43991 1.14071 0
M  V30 6132 C 581.936 1.16553 3.40082 0
M  V30 6133 C 581.6 2.61866 3.74533 0
M  V30 6134 C 582.597 3.60116 3.74984 0
M  V30 6135 C 580.282 2.97619 4.04633 0
M  V30 6136 C 582.276 4.92151 4.05051 0
M  V30 6137 C 579.963 4.2985 4.34364 0
M  V30 6138 C 580.961 5.26926 4.34555 0
M  V30 6139 O 580.649 6.5678 4.63568 0
M  V30 6140 H 580.381 0.298396 0.606577 0
M  V30 6141 H 582.935 1.44187 1.46285 0
M  V30 6142 H 581.165 0.494296 3.83528 0
M  V30 6143 H 582.854 0.894407 3.95923 0
M  V30 6144 H 583.62 3.33837 3.51821 0
M  V30 6145 H 579.499 2.22702 4.03639 0
M  V30 6146 H 583.043 5.67915 4.05115 0
M  V30 6147 H 578.94 4.55879 4.56995 0
M  V30 6148 H 579.708 6.62035 4.81303 0
M  V30 6149 N 582.371 -1.3172 0.865308 0
M  V30 6150 C 583.304 -2.26687 0.262376 0
M  V30 6151 C 584.282 -1.50894 -0.605787 0
M  V30 6152 O 585.466 -1.79982 -0.56024 0
M  V30 6153 C 582.593 -3.3281 -0.628915 0
M  V30 6154 C 581.639 -4.26172 0.167278 0
M  V30 6155 S 582.472 -5.12797 1.54272 0
M  V30 6156 C 583.628 -6.22438 0.657427 0
M  V30 6157 H 583.861 -2.77478 1.0674 0
M  V30 6158 H 581.394 -1.39414 0.663555 0
M  V30 6159 H 583.352 -3.94426 -1.13747 0
M  V30 6160 H 582.013 -2.80782 -1.40785 0
M  V30 6161 H 581.206 -5.01392 -0.51203 0
M  V30 6162 H 580.808 -3.69029 0.607777 0
M  V30 6163 H 583.1 -6.77368 -0.133925 0
M  V30 6164 H 584.043 -6.9451 1.38061 0
M  V30 6165 H 584.451 -5.64043 0.227044 0
M  V30 6166 N 583.85 -0.624285 -1.44708 0
M  V30 6167 C 585.075 -0.131171 -2.06985 0
M  V30 6168 C 585.5 1.18234 -1.46295 0
M  V30 6169 O 584.858 1.72375 -0.561842 0
M  V30 6170 C 584.906 -0.0226724 -3.60593 0
M  V30 6171 O 584.01 1.02314 -3.99507 0
M  V30 6172 H 583.351 -0.0816556 -0.65896 0
M  V30 6173 H 585.88 -0.859027 -1.85693 0
M  V30 6174 H 585.891 0.170138 -4.07645 0
M  V30 6175 H 584.566 -0.981685 -4.04148 0
M  V30 6176 H 583.143 0.805452 -3.64097 0
M  V30 6177 N 585.328 1.53329 -0.364422 0
M  V30 6178 C 586.258 2.28627 0.474543 0
M  V30 6179 C 587.239 1.31009 1.08492 0
M  V30 6180 O 588.424 1.59878 1.10239 0
M  V30 6181 C 585.554 3.07465 1.61501 0
M  V30 6182 C 584.508 4.1276 1.13194 0
M  V30 6183 C 583.834 4.79674 2.36255 0
M  V30 6184 C 585.134 5.21847 0.217507 0
M  V30 6185 H 586.828 2.99005 -0.153656 0
M  V30 6186 H 584.374 1.43803 -0.0753406 0
M  V30 6187 H 586.327 3.58889 2.20855 0
M  V30 6188 H 585.051 2.34775 2.27042 0
M  V30 6189 H 583.71 3.62281 0.56109 0
M  V30 6190 H 583.358 4.03557 3.00251 0
M  V30 6191 H 583.058 5.50827 2.04606 0
M  V30 6192 H 584.582 5.33892 2.96297 0
M  V30 6193 H 585.996 5.6878 0.718493 0
M  V30 6194 H 584.393 6.00099 -0.00806408 0
M  V30 6195 H 585.463 4.7921 -0.740653 0
M  V30 6196 N 586.806 0.0935595 1.57322 0
M  V30 6197 C 587.753 -0.865935 2.1394 0
M  V30 6198 C 588.723 -1.28083 1.05754 0
M  V30 6199 O 589.908 -1.36285 1.33533 0
M  V30 6200 C 587.048 -2.12023 2.72287 0
M  V30 6201 C 586.161 -1.756 3.94701 0
M  V30 6202 C 585.296 -2.95804 4.41218 0
M  V30 6203 C 584.335 -2.555 5.56225 0
M  V30 6204 N 583.472 -3.68534 5.97601 0
M  V30 6205 H 588.312 -0.376261 2.95615 0
M  V30 6206 H 585.849 -0.174052 1.46067 0
M  V30 6207 H 587.807 -2.85477 3.04235 0
M  V30 6208 H 586.437 -2.58492 1.93343 0
M  V30 6209 H 585.489 -0.921208 3.69077 0
M  V30 6210 H 586.801 -1.41964 4.78171 0
M  V30 6211 H 585.955 -3.77513 4.74941 0
M  V30 6212 H 584.694 -3.32649 3.56645 0
M  V30 6213 H 583.699 -1.72218 5.22131 0
M  V30 6214 H 584.924 -2.19801 6.42545 0
M  V30 6215 H 582.87 -4.051 5.15974 0
M  V30 6216 H 582.787 -3.38737 6.75865 0
M  V30 6217 H 584.055 -4.50757 6.35955 0
M  V30 6218 N 588.284 -1.56567 -0.180126 0
M  V30 6219 C 589.216 -1.92275 -1.24751 0
M  V30 6220 C 590.229 -0.814922 -1.40936 0
M  V30 6221 O 591.418 -1.09336 -1.41095 0
M  V30 6222 C 588.518 -2.15265 -2.61752 0
M  V30 6223 C 587.691 -3.46467 -2.66981 0
M  V30 6224 C 586.75 -3.58391 -3.85283 0
M  V30 6225 O 585.776 -4.31086 -3.7169 0
M  V30 6226 N 586.978 -2.92587 -5.01371 0
M  V30 6227 H 589.743 -2.84435 -0.944302 0
M  V30 6228 H 587.304 -1.57617 -0.369952 0
M  V30 6229 H 589.296 -2.20515 -3.39345 0
M  V30 6230 H 587.866 -1.29533 -2.845 0
M  V30 6231 H 587.086 -3.52953 -1.75549 0
M  V30 6232 H 588.374 -4.32819 -2.67479 0
M  V30 6233 H 587.772 -2.3338 -5.15316 0
M  V30 6234 H 586.329 -3.03444 -5.76858 0
M  V30 6235 N 589.762 0.448376 -1.51087 0
M  V30 6236 C 591.039 1.20926 -1.53741 0
M  V30 6237 C 591.419 2.09025 -0.295222 0
M  V30 6238 O 590.767 2.16851 0.720283 0
M  V30 6239 C 590.977 2.02067 -2.84552 0
M  V30 6240 C 592.325 2.59486 -3.36084 0
M  V30 6241 O 593.349 2.12289 -2.86028 0
M  V30 6242 O 592.208 3.45539 -4.23397 0
M  V30 6243 H 589.302 0.549951 -0.617643 0
M  V30 6244 H 591.848 0.458344 -1.63393 0
M  V30 6245 H 590.62 1.37291 -3.66425 0
M  V30 6246 H 590.243 2.84246 -2.78011 0
M  V30 6247 N 591.24 1.41047 0.703093 0
M  V30 6248 C 592.19 1.38774 1.80903 0
M  V30 6249 C 593.174 0.263275 1.58731 0
M  V30 6250 O 594.366 0.503362 1.69692 0
M  V30 6251 C 591.495 1.26497 3.19145 0
M  V30 6252 C 590.581 2.43775 3.47037 0
M  V30 6253 N 590.972 3.69249 3.45672 0
M  V30 6254 C 589.27 2.37425 3.77552 0
M  V30 6255 C 589.971 4.46989 3.72258 0
M  V30 6256 N 588.947 3.76998 3.91629 0
M  V30 6257 H 592.749 2.33714 1.78199 0
M  V30 6258 H 590.263 1.34996 0.902762 0
M  V30 6259 H 592.26 1.2295 3.98358 0
M  V30 6260 H 590.92 0.32534 3.23066 0
M  V30 6261 H 591.931 4.02239 3.26228 0
M  V30 6262 H 588.608 1.51895 3.88888 0
M  V30 6263 H 589.998 5.55894 3.77402 0
M  V30 6264 N 592.718 -0.936591 1.26751 0
M  V30 6265 C 593.946 -1.71758 1.15355 0
M  V30 6266 C 594.361 -1.86549 -0.290683 0
M  V30 6267 O 593.718 -1.37616 -1.19868 0
M  V30 6268 C 593.769 -3.12193 1.82258 0
M  V30 6269 O 593.49 -2.98105 3.21038 0
M  V30 6270 C 594.991 -4.06485 1.76875 0
M  V30 6271 H 592.211 -0.537636 0.401483 0
M  V30 6272 H 594.755 -1.17382 1.67457 0
M  V30 6273 H 592.91 -3.63456 1.34083 0
M  V30 6274 H 593.324 -3.86824 3.54214 0
M  V30 6275 H 594.798 -5.02569 2.28316 0
M  V30 6276 H 595.275 -4.32986 0.736216 0
M  V30 6277 H 595.881 -3.61144 2.24623 0
M  V30 6278 N 594.196 -1.08629 -1.14182 0
M  V30 6279 C 595.442 -0.818556 -1.85546 0
M  V30 6280 C 595.775 0.654076 -1.82854 0
M  V30 6281 O 595.05 1.48099 -1.26083 0
M  V30 6282 C 595.333 -1.34397 -3.3408 0
M  V30 6283 C 595.186 -2.8821 -3.45333 0
M  V30 6284 C 596.505 -0.971069 -4.29253 0
M  V30 6285 H 593.624 -0.298821 -0.673702 0
M  V30 6286 H 596.266 -1.34629 -1.34071 0
M  V30 6287 H 594.416 -0.895064 -3.78049 0
M  V30 6288 H 596.088 -3.41488 -3.10134 0
M  V30 6289 H 594.331 -3.25756 -2.86471 0
M  V30 6290 H 595.002 -3.20047 -4.49749 0
M  V30 6291 H 597.478 -1.35809 -3.93313 0
M  V30 6292 H 596.354 -1.36586 -5.31635 0
M  V30 6293 H 596.615 0.121659 -4.41933 0
M  V30 6294 N 595.674 1.31259 -0.872281 0
M  V30 6295 C 596.621 2.28459 -0.327857 0
M  V30 6296 C 597.591 1.55831 0.574957 0
M  V30 6297 O 598.776 1.83965 0.506101 0
M  V30 6298 C 595.916 3.41985 0.462644 0
M  V30 6299 C 595.029 4.29458 -0.467949 0
M  V30 6300 C 594.164 5.30131 0.336903 0
M  V30 6301 C 593.203 6.0925 -0.58997 0
M  V30 6302 N 592.34 7.01872 0.178775 0
M  V30 6303 H 597.18 2.74414 -1.16193 0
M  V30 6304 H 594.717 1.34994 -0.584376 0
M  V30 6305 H 596.675 4.06547 0.936759 0
M  V30 6306 H 595.305 2.97134 1.2614 0
M  V30 6307 H 594.357 3.65318 -1.06052 0
M  V30 6308 H 595.669 4.84677 -1.17856 0
M  V30 6309 H 594.823 6.0038 0.873427 0
M  V30 6310 H 593.562 4.75573 1.08079 0
M  V30 6311 H 592.567 5.37889 -1.13823 0
M  V30 6312 H 593.792 6.65894 -1.33275 0
M  V30 6313 H 591.738 6.49721 0.905435 0
M  V30 6314 H 591.655 7.54522 -0.472452 0
M  V30 6315 H 592.923 7.76382 0.696454 0
M  V30 6316 N 597.152 0.631951 1.44375 0
M  V30 6317 C 598.062 -0.073674 2.34484 0
M  V30 6318 C 599.078 -0.834825 1.52665 0
M  V30 6319 O 600.254 -0.786902 1.85391 0
M  V30 6320 C 597.319 -1.04247 3.30656 0
M  V30 6321 C 596.38 -0.280602 4.28382 0
M  V30 6322 C 595.613 -1.20325 5.19959 0
M  V30 6323 O 595.836 -2.44199 5.15484 0
M  V30 6324 O 594.77 -0.687128 5.97965 0
M  V30 6325 H 598.596 0.667477 2.96274 0
M  V30 6326 H 596.181 0.392144 1.44162 0
M  V30 6327 H 598.063 -1.59981 3.89851 0
M  V30 6328 H 596.738 -1.76422 2.71398 0
M  V30 6329 H 595.645 0.319804 3.72731 0
M  V30 6330 H 596.978 0.401144 4.90563 0
M  V30 6331 N 598.631 -1.53133 0.372548 0
M  V30 6332 C 599.879 -2.00958 -0.214534 0
M  V30 6333 C 600.2 -1.26135 -1.48711 0
M  V30 6334 O 599.47 -0.376597 -1.92246 0
M  V30 6335 H 598.05 -0.742456 -0.0822664 0
M  V30 6336 H 600.712 -1.88367 0.500385 0
M  V30 6337 H 599.808 -3.09031 -0.436605 0
M  V30 6338 N 600.109 -0.101901 -1.5727 0
M  V30 6339 C 601.337 0.568392 -1.98939 0
M  V30 6340 C 601.752 1.61301 -0.981194 0
M  V30 6341 O 601.109 1.82478 0.0282869 0
M  V30 6342 C 601.16 1.20997 -3.40649 0
M  V30 6343 O 600.881 0.207129 -4.3761 0
M  V30 6344 C 602.382 1.96523 -3.97358 0
M  V30 6345 H 599.602 0.15186 -0.65359 0
M  V30 6346 H 602.146 -0.183198 -2.03678 0
M  V30 6347 H 600.301 1.91245 -3.36904 0
M  V30 6348 H 600.715 0.671071 -5.20189 0
M  V30 6349 H 602.189 2.36764 -4.98645 0
M  V30 6350 H 602.666 2.83376 -3.35552 0
M  V30 6351 H 603.272 1.31076 -4.04598 0
M  V30 6352 N 601.587 1.56661 0.17182 0
M  V30 6353 C 602.52 1.91474 1.24149 0
M  V30 6354 C 603.498 0.777485 1.42807 0
M  V30 6355 O 604.682 1.03075 1.57822 0
M  V30 6356 C 601.809 2.16523 2.60453 0
M  V30 6357 C 600.855 3.39209 2.58533 0
M  V30 6358 S 601.688 4.93594 2.07665 0
M  V30 6359 C 602.844 5.21737 3.45747 0
M  V30 6360 H 603.077 2.81903 0.944346 0
M  V30 6361 H 600.61 1.49743 0.376364 0
M  V30 6362 H 602.568 2.31635 3.38903 0
M  V30 6363 H 601.229 1.26802 2.87368 0
M  V30 6364 H 600.422 3.53935 3.58812 0
M  V30 6365 H 600.024 3.2321 1.88178 0
M  V30 6366 H 602.316 5.13684 4.41741 0
M  V30 6367 H 603.259 6.23361 3.35896 0
M  V30 6368 H 603.667 4.49307 3.41736 0
M  V30 6369 N 603.065 -0.440357 1.51323 0
M  V30 6370 C 604.342 -1.20109 1.5438 0
M  V30 6371 C 604.722 -2.08866 0.306303 0
M  V30 6372 O 604.07 -2.1723 -0.708773 0
M  V30 6373 C 604.28 -2.00555 2.8562 0
M  V30 6374 C 605.628 -2.577 3.37455 0
M  V30 6375 O 606.652 -2.10769 2.8715 0
M  V30 6376 O 605.511 -3.43289 4.25224 0
M  V30 6377 H 602.605 -0.546668 0.620551 0
M  V30 6378 H 605.151 -0.449672 1.63634 0
M  V30 6379 H 603.923 -1.35346 3.67147 0
M  V30 6380 H 603.546 -2.82768 2.79514 0
M  V30 6381 N 604.543 -1.41418 -0.695603 0
M  V30 6382 C 605.82 -1.31264 -1.45014 0
M  V30 6383 C 606.2 0.0597994 -2.11015 0
M  V30 6384 O 605.548 1.07403 -2.01685 0
M  V30 6385 C 605.758 -2.466 -2.4696 0
M  V30 6386 C 607.106 -2.87763 -3.12214 0
M  V30 6387 O 608.13 -2.46339 -2.57285 0
M  V30 6388 O 606.989 -3.59395 -4.11701 0
M  V30 6389 H 604.083 -0.516576 -0.645816 0
M  V30 6390 H 606.629 -1.53382 -0.726084 0
M  V30 6391 H 605.401 -3.38183 -1.96845 0
M  V30 6392 H 605.024 -2.26358 -3.26876 0
M  V30 6393 N 606.021 0.929856 -1.27246 0
M  V30 6394 C 607.27 1.67182 -1.12842 0
M  V30 6395 C 607.583 1.9287 0.325666 0
M  V30 6396 O 608.789 2.64999 0.590572 0
M  V30 6397 C 607.245 3.01097 -1.97151 0
M  V30 6398 C 606.853 2.83115 -3.47203 0
M  V30 6399 C 608.597 3.78907 -1.91389 0
M  V30 6400 C 606.504 4.12573 -4.23719 0
M  V30 6401 H 605.434 0.627064 -0.418697 0
M  V30 6402 H 608.085 1.0332 -1.51649 0
M  V30 6403 H 606.467 3.66004 -1.51186 0
M  V30 6404 H 607.641 2.26989 -4.01015 0
M  V30 6405 H 605.956 2.18736 -3.54321 0
M  V30 6406 H 608.553 4.74837 -2.45834 0
M  V30 6407 H 608.896 4.0674 -0.887047 0
M  V30 6408 H 609.429 3.20794 -2.35237 0
M  V30 6409 H 606.168 3.8992 -5.26918 0
M  V30 6410 H 605.688 4.68371 -3.74685 0
M  V30 6411 H 607.367 4.8095 -4.32777 0
M  V30 6412 N 607.499 1.09233 1.13605 0
M  V30 6413 C 608.446 0.729921 2.18954 0
M  V30 6414 C 609.416 -0.287916 1.63586 0
M  V30 6415 O 610.601 -0.170003 1.90041 0
M  V30 6416 C 607.741 0.154489 3.44754 0
M  V30 6417 C 606.854 1.22613 4.14234 0
M  V30 6418 C 605.989 0.613657 5.27644 0
M  V30 6419 C 605.028 1.66674 5.8897 0
M  V30 6420 N 604.165 1.07545 6.93814 0
M  V30 6421 H 609.005 1.63257 2.49302 0
M  V30 6422 H 606.542 0.815693 1.22413 0
M  V30 6423 H 608.5 -0.196923 4.16735 0
M  V30 6424 H 607.13 -0.711433 3.14863 0
M  V30 6425 H 606.182 1.69485 3.40557 0
M  V30 6426 H 607.494 2.0238 4.55899 0
M  V30 6427 H 606.648 0.210976 6.06333 0
M  V30 6428 H 605.387 -0.215584 4.87223 0
M  V30 6429 H 604.392 2.07899 5.08978 0
M  V30 6430 H 605.617 2.49861 6.31464 0
M  V30 6431 H 603.563 0.267451 6.55455 0
M  V30 6432 H 603.48 1.81011 7.3401 0
M  V30 6433 H 604.748 0.698906 7.7636 0
M  V30 6434 N 608.977 -1.30795 0.87923 0
M  V30 6435 C 610.226 -1.95636 0.490875 0
M  V30 6436 C 610.539 -1.70214 -0.963674 0
M  V30 6437 O 611.745 -2.28991 -1.45861 0
M  V30 6438 C 610.201 -3.50271 0.826929 0
M  V30 6439 C 609.809 -3.84521 2.29886 0
M  V30 6440 C 611.553 -4.21456 0.507494 0
M  V30 6441 C 609.46 -5.32309 2.57685 0
M  V30 6442 H 608.39 -0.732238 0.179841 0
M  V30 6443 H 611.041 -1.48829 1.07341 0
M  V30 6444 H 609.423 -3.9562 0.173542 0
M  V30 6445 H 610.597 -3.50102 2.99609 0
M  V30 6446 H 608.912 -3.26425 2.58526 0
M  V30 6447 H 611.509 -5.30199 0.692293 0
M  V30 6448 H 611.852 -4.12614 -0.552718 0
M  V30 6449 H 612.385 -3.81772 1.11782 0
M  V30 6450 H 609.124 -5.46195 3.62424 0
M  V30 6451 H 608.644 -5.68048 1.92566 0
M  V30 6452 H 610.323 -5.99678 2.42889 0
M  V30 6453 N 610.455 -0.639598 -1.44038 0
M  V30 6454 C 611.68 -0.153117 -2.06834 0
M  V30 6455 C 612.105 1.16676 -1.47541 0
M  V30 6456 O 611.463 1.71769 -0.580093 0
M  V30 6457 C 611.511 -0.0609169 -3.60549 0
M  V30 6458 O 610.615 0.98071 -4.00569 0
M  V30 6459 H 609.956 -0.0886402 -0.658057 0
M  V30 6460 H 612.486 -0.878674 -1.84771 0
M  V30 6461 H 612.496 0.126892 -4.07803 0
M  V30 6462 H 611.171 -1.0245 -4.03084 0
M  V30 6463 H 609.748 0.766789 -3.64931 0
M  V30 6464 N 611.933 1.52934 -0.380664 0
M  V30 6465 C 613.161 2.05886 0.204599 0
M  V30 6466 C 613.576 1.25305 1.41223 0
M  V30 6467 O 612.933 0.297504 1.80059 0
M  V30 6468 C 612.984 3.56764 0.583249 0
M  V30 6469 O 612.705 4.34292 -0.576398 0
M  V30 6470 C 614.206 4.2603 1.2253 0
M  V30 6471 H 611.426 0.670193 0.0328991 0
M  V30 6472 H 613.97 1.97148 -0.543397 0
M  V30 6473 H 612.125 3.65603 1.28115 0
M  V30 6474 H 612.539 5.23819 -0.267119 0
M  V30 6475 H 614.013 5.32868 1.44068 0
M  V30 6476 H 614.49 3.80698 2.19011 0
M  V30 6477 H 615.096 4.21485 0.568407 0
M  V30 6478 N 613.412 0.11024 1.57214 0
M  V30 6479 C 614.637 -0.561179 1.99664 0
M  V30 6480 C 615.062 -1.59985 0.989266 0
M  V30 6481 O 614.42 -1.81255 -0.0402399 0
M  V30 6482 C 614.468 -1.17189 3.41027 0
M  V30 6483 O 613.572 -2.28755 3.4314 0
M  V30 6484 H 612.913 -0.14101 0.648855 0
M  V30 6485 H 615.443 0.196128 2.03658 0
M  V30 6486 H 615.453 -1.50954 3.79047 0
M  V30 6487 H 614.128 -0.411041 4.13864 0
M  V30 6488 H 612.705 -1.96495 3.16929 0
M  V30 6489 N 614.89 -1.56749 -0.16351 0
M  V30 6490 C 616.138 -1.82074 -0.87713 0
M  V30 6491 C 616.459 -0.688503 -1.82441 0
M  V30 6492 O 615.729 0.291085 -1.93725 0
M  V30 6493 H 614.309 -0.671677 -0.326893 0
M  V30 6494 H 616.971 -1.9423 -0.161459 0
M  V30 6495 H 616.067 -2.76407 -1.44934 0
M  V30 6496 N 616.368 0.432326 -1.51554 0
M  V30 6497 C 617.779 1.01202 -1.56892 0
M  V30 6498 C 618.13 1.92175 -0.395394 0
M  V30 6499 O 617.255 2.10844 0.487198 0
M  V30 6500 C 617.85 1.84217 -2.8434 0
M  V30 6501 C 616.409 2.37228 -2.92233 0
M  V30 6502 C 615.556 1.16576 -2.51606 0
M  V30 6503 H 618.507 0.213407 -1.57259 0
M  V30 6504 H 618.528 2.69721 -2.68385 0
M  V30 6505 H 618.04 1.17979 -3.69733 0
M  V30 6506 H 616.141 3.06905 -2.11282 0
M  V30 6507 H 616.254 2.69682 -3.95991 0
M  V30 6508 H 614.618 1.51263 -2.04919 0
M  V30 6509 H 615.401 0.519404 -3.39348 0
M  V30 6510 N 617.846 1.41785 0.688094 0
M  V30 6511 C 619.086 1.43018 1.46032 0
M  V30 6512 C 619.45 0.0402632 1.91958 0
M  V30 6513 O 620.651 -0.0726425 2.68702 0
M  V30 6514 C 618.922 2.4151 2.63453 0
M  V30 6515 S 620.481 2.61335 3.5249 0
M  V30 6516 H 617.299 0.506546 0.498931 0
M  V30 6517 H 619.901 1.78283 0.80221 0
M  V30 6518 H 618.605 3.41286 2.27929 0
M  V30 6519 H 618.136 2.07624 3.34149 0
M  V30 6520 H 620.151 1.88637 4.58945 0
M  V30 6521 N 619.324 -0.923095 1.27737 0
M  V30 6522 C 620.74 -1.19985 1.05241 0
M  V30 6523 C 620.94 -2.00391 -0.21113 0
M  V30 6524 O 619.996 -2.35324 -0.915366 0
M  V30 6525 C 621.309 -1.94352 2.29451 0
M  V30 6526 C 622.857 -2.07273 2.34536 0
M  V30 6527 C 623.332 -2.85046 3.58487 0
M  V30 6528 N 624.823 -2.92612 3.59072 0
M  V30 6529 C 625.558 -3.53266 4.51654 0
M  V30 6530 N 625.054 -4.15274 5.54545 0
M  V30 6531 N 626.847 -3.50714 4.39268 0
M  V30 6532 H 618.998 -0.386042 2.08862 0
M  V30 6533 H 621.261 -0.233407 0.918817 0
M  V30 6534 H 620.967 -1.42692 3.21453 0
M  V30 6535 H 620.841 -2.94947 2.3513 0
M  V30 6536 H 623.228 -2.58117 1.43037 0
M  V30 6537 H 623.309 -1.05884 2.32857 0
M  V30 6538 H 622.953 -2.34884 4.50324 0
M  V30 6539 H 622.883 -3.8673 3.57418 0
M  V30 6540 H 625.374 -2.48547 2.84663 0
M  V30 6541 H 625.687 -4.59507 6.21348 0
M  V30 6542 H 624.032 -4.13806 5.58382 0
M  V30 6543 H 627.223 -3.01475 3.58093 0
M  V30 6544 H 627.396 -3.97693 5.1161 0
M  V30 6545 N 620.802 -1.09834 -1.13024 0
M  V30 6546 C 622.218 -0.828875 -1.36388 0
M  V30 6547 C 622.418 0.554756 -1.93713 0
M  V30 6548 O 621.474 1.30882 -2.15931 0
M  V30 6549 C 622.787 -1.92352 -2.3113 0
M  V30 6550 C 624.335 -1.95124 -2.44735 0
M  V30 6551 C 624.81 -3.03745 -3.42787 0
M  V30 6552 N 626.301 -3.03012 -3.5034 0
M  V30 6553 C 627.036 -3.83699 -4.26101 0
M  V30 6554 N 626.532 -4.74306 -5.04981 0
M  V30 6555 N 628.325 -3.71942 -4.21445 0
M  V30 6556 H 620.476 -1.99029 -0.74169 0
M  V30 6557 H 622.739 -0.864557 -0.388903 0
M  V30 6558 H 622.445 -2.91906 -1.96172 0
M  V30 6559 H 622.319 -1.80536 -3.3119 0
M  V30 6560 H 624.706 -0.962069 -2.78977 0
M  V30 6561 H 624.787 -2.11018 -1.44586 0
M  V30 6562 H 624.431 -4.02878 -3.09276 0
M  V30 6563 H 624.361 -2.85094 -4.42752 0
M  V30 6564 H 626.852 -2.37352 -2.94062 0
M  V30 6565 H 627.165 -5.32446 -5.60108 0
M  V30 6566 H 625.51 -4.78339 -5.04199 0
M  V30 6567 H 628.701 -3.00513 -3.589 0
M  V30 6568 H 628.874 -4.35062 -4.80235 0
M  V30 6569 N 622.28 1.30327 -0.886154 0
M  V30 6570 C 623.21 2.30549 -0.370028 0
M  V30 6571 C 624.191 1.61039 0.547751 0
M  V30 6572 O 625.376 1.8864 0.461353 0
M  V30 6573 C 622.506 3.44808 0.415275 0
M  V30 6574 C 621.46 4.26024 -0.41085 0
M  V30 6575 C 620.786 5.32347 0.501128 0
M  V30 6576 C 622.086 4.95433 -1.65359 0
M  V30 6577 H 623.78 2.73969 -1.20754 0
M  V30 6578 H 621.326 1.3171 -0.582097 0
M  V30 6579 H 623.279 4.13986 0.78699 0
M  V30 6580 H 622.003 3.00197 1.28644 0
M  V30 6581 H 620.662 3.58535 -0.764719 0
M  V30 6582 H 620.31 4.83982 1.37004 0
M  V30 6583 H 620.01 5.87581 -0.0478356 0
M  V30 6584 H 621.534 6.0438 0.869333 0
M  V30 6585 H 622.948 5.5712 -1.35239 0
M  V30 6586 H 621.345 5.60537 -2.14284 0
M  V30 6587 H 622.415 4.21493 -2.39733 0
M  V30 6588 N 623.758 0.647228 1.43697 0
M  V30 6589 C 624.983 0.164083 2.0675 0
M  V30 6590 C 625.408 -1.15892 1.48158 0
M  V30 6591 O 624.766 -1.71459 0.589194 0
M  V30 6592 C 624.814 0.0800368 3.60511 0
M  V30 6593 O 623.918 -0.959453 4.01084 0
M  V30 6594 H 623.259 0.0921288 0.657578 0
M  V30 6595 H 625.789 0.88846 1.84303 0
M  V30 6596 H 625.799 -0.105263 4.07864 0
M  V30 6597 H 624.474 1.04586 4.02535 0
M  V30 6598 H 623.051 -0.747425 3.65333 0
M  V30 6599 N 625.236 -1.5273 0.388769 0
M  V30 6600 C 626.466 -2.05693 -0.193397 0
M  V30 6601 C 626.874 -1.26038 -1.41107 0
M  V30 6602 O 626.217 -0.30001 -1.81234 0
M  V30 6603 C 626.279 -3.53962 -0.628561 0
M  V30 6604 C 625.943 -4.54519 0.475576 0
M  V30 6605 C 626.94 -5.02526 1.33281 0
M  V30 6606 C 624.625 -4.98174 0.642453 0
M  V30 6607 C 626.619 -5.92812 2.34205 0
M  V30 6608 C 624.306 -5.88262 1.65503 0
M  V30 6609 C 625.304 -6.35473 2.50325 0
M  V30 6610 O 624.992 -7.23781 3.49852 0
M  V30 6611 H 624.724 -0.675197 -0.0329395 0
M  V30 6612 H 627.278 -1.97835 0.552326 0
M  V30 6613 H 625.508 -3.59437 -1.42625 0
M  V30 6614 H 627.197 -3.89669 -1.13633 0
M  V30 6615 H 627.963 -4.6953 1.21519 0
M  V30 6616 H 623.842 -4.60999 -0.00805093 0
M  V30 6617 H 627.386 -6.29585 3.00447 0
M  V30 6618 H 623.283 -6.20672 1.77304 0
M  V30 6619 H 624.051 -7.4184 3.45855 0
M  V30 6620 N 626.714 -0.118576 -1.57153 0
M  V30 6621 C 627.661 0.831789 -2.1529 0
M  V30 6622 C 628.631 1.26385 -1.07778 0
M  V30 6623 O 629.816 1.34144 -1.35684 0
M  V30 6624 C 626.956 2.07664 -2.75626 0
M  V30 6625 C 626.069 1.69298 -3.97444 0
M  V30 6626 C 625.204 2.88747 -4.45868 0
M  V30 6627 C 624.243 2.46619 -5.60219 0
M  V30 6628 N 623.38 3.5898 -6.03389 0
M  V30 6629 H 628.22 0.329183 -2.96176 0
M  V30 6630 H 625.757 0.150792 -1.46325 0
M  V30 6631 H 627.715 2.80601 -3.08738 0
M  V30 6632 H 626.345 2.55384 -1.97431 0
M  V30 6633 H 625.397 0.862374 -3.70496 0
M  V30 6634 H 626.709 1.34338 -4.80369 0
M  V30 6635 H 625.863 3.69909 -4.80887 0
M  V30 6636 H 624.602 3.26933 -3.61892 0
M  V30 6637 H 623.607 1.63889 -5.24805 0
M  V30 6638 H 624.832 2.0955 -6.45961 0
M  V30 6639 H 622.778 3.9684 -5.22354 0
M  V30 6640 H 622.695 3.27942 -6.81168 0
M  V30 6641 H 623.963 4.40583 -6.43045 0
M  V30 6642 N 628.193 1.56834 0.155195 0
M  V30 6643 C 629.441 1.82536 0.867462 0
M  V30 6644 C 629.762 0.698168 1.82073 0
M  V30 6645 O 629.032 -0.280807 1.93877 0
M  V30 6646 H 627.612 0.673401 0.323327 0
M  V30 6647 H 630.274 1.94313 0.151156 0
M  V30 6648 H 629.37 2.77171 1.43466 0
M  V30 6649 N 629.671 -0.424282 1.51781 0
M  V30 6650 C 630.901 -1.19297 1.68677 0
M  V30 6651 C 631.309 -1.85152 0.389258 0
M  V30 6652 O 630.652 -1.72067 -0.643311 0
M  V30 6653 C 630.714 -2.30929 2.75521 0
M  V30 6654 C 630.378 -1.85335 4.17732 0
M  V30 6655 C 631.375 -1.34951 5.0208 0
M  V30 6656 C 629.06 -1.92629 4.63896 0
M  V30 6657 C 631.054 -0.924636 6.30658 0
M  V30 6658 C 628.741 -1.49754 5.92467 0
M  V30 6659 C 629.739 -0.997543 6.75676 0
M  V30 6660 O 629.427 -0.57492 8.01842 0
M  V30 6661 H 629.159 -0.36512 0.568914 0
M  V30 6662 H 631.713 -0.507327 1.99036 0
M  V30 6663 H 629.943 -3.02811 2.40505 0
M  V30 6664 H 631.632 -2.92748 2.81165 0
M  V30 6665 H 632.398 -1.287 4.67612 0
M  V30 6666 H 628.277 -2.30491 3.99243 0
M  V30 6667 H 631.821 -0.533682 6.95556 0
M  V30 6668 H 627.718 -1.55679 6.26446 0
M  V30 6669 H 628.486 -0.699597 8.15505 0
M  V30 6670 N 631.149 -1.42148 -0.680565 0
M  V30 6671 C 632.396 -1.4231 -1.44063 0
M  V30 6672 C 632.724 -0.037488 -1.94464 0
M  V30 6673 O 631.979 0.953184 -1.70918 0
M  V30 6674 C 632.278 -2.38945 -2.65782 0
M  V30 6675 C 631.944 -3.85455 -2.33956 0
M  V30 6676 C 630.606 -4.25364 -2.24987 0
M  V30 6677 C 632.958 -4.77895 -2.08004 0
M  V30 6678 C 630.286 -5.55701 -1.88184 0
M  V30 6679 C 632.638 -6.08568 -1.72706 0
M  V30 6680 C 631.302 -6.47482 -1.62244 0
M  V30 6681 H 630.572 -0.520748 -0.527164 0
M  V30 6682 H 633.219 -1.7505 -0.776524 0
M  V30 6683 H 631.524 -1.99511 -3.37198 0
M  V30 6684 H 633.221 -2.36336 -3.23954 0
M  V30 6685 H 629.811 -3.53855 -2.41836 0
M  V30 6686 H 633.995 -4.47854 -2.1387 0
M  V30 6687 H 629.251 -5.84718 -1.78648 0
M  V30 6688 H 633.425 -6.79688 -1.5165 0
M  V30 6689 H 631.052 -7.48387 -1.33496 0
M  V30 6690 N 632.627 0.916307 -1.28225 0
M  V30 6691 C 633.557 2.0352 -1.14464 0
M  V30 6692 C 634.538 1.70045 -0.0430844 0
M  V30 6693 O 635.723 1.92954 -0.219619 0
M  V30 6694 C 632.853 3.37889 -0.803027 0
M  V30 6695 C 631.807 3.85516 -1.85908 0
M  V30 6696 C 631.133 5.1682 -1.37116 0
M  V30 6697 C 632.433 4.07655 -3.26519 0
M  V30 6698 H 634.127 2.1529 -2.08064 0
M  V30 6699 H 631.673 1.03446 -1.00174 0
M  V30 6700 H 633.626 4.15654 -0.693537 0
M  V30 6701 H 632.35 3.26164 0.168674 0
M  V30 6702 H 631.009 3.09953 -1.95767 0
M  V30 6703 H 630.657 5.01497 -0.38859 0
M  V30 6704 H 630.357 5.49657 -2.07728 0
M  V30 6705 H 631.881 5.97143 -1.27484 0
M  V30 6706 H 633.295 4.75953 -3.19596 0
M  V30 6707 H 631.692 4.51818 -3.94943 0
M  V30 6708 H 632.762 3.12553 -3.70727 0
M  V30 6709 N 634.105 1.10431 1.1244 0
M  V30 6710 C 635.035 0.775143 2.20258 0
M  V30 6711 C 636.016 -0.25186 1.68225 0
M  V30 6712 O 637.201 -0.117637 1.93843 0
M  V30 6713 C 634.331 0.206133 3.46688 0
M  V30 6714 C 633.285 1.16382 4.11873 0
M  V30 6715 C 632.611 0.456014 5.32752 0
M  V30 6716 C 633.911 2.5104 4.58013 0
M  V30 6717 H 635.605 1.67665 2.4805 0
M  V30 6718 H 633.151 0.807595 1.19222 0
M  V30 6719 H 635.104 -0.036291 4.21384 0
M  V30 6720 H 633.828 -0.730614 3.18323 0
M  V30 6721 H 632.487 1.39169 3.39157 0
M  V30 6722 H 632.135 -0.485203 5.00654 0
M  V30 6723 H 631.835 1.09466 5.77314 0
M  V30 6724 H 633.359 0.222135 6.10196 0
M  V30 6725 H 634.773 2.32401 5.24083 0
M  V30 6726 H 633.17 3.10789 5.13352 0
M  V30 6727 H 634.24 3.11039 3.71998 0
M  V30 6728 N 635.583 -1.29855 0.893053 0
M  V30 6729 C 636.546 -2.26183 0.370687 0
M  V30 6730 C 637.546 -1.53108 -0.491385 0
M  V30 6731 O 638.736 -1.71643 -0.297386 0
M  V30 6732 C 635.868 -3.37633 -0.470827 0
M  V30 6733 H 637.061 -2.73903 1.22135 0
M  V30 6734 H 634.614 -1.41183 0.67061 0
M  V30 6735 H 635.349 -2.95241 -1.34175 0
M  V30 6736 H 635.134 -3.91825 0.146784 0
M  V30 6737 H 636.624 -4.09313 -0.827825 0
M  V30 6738 N 637.061 -0.65484 -1.43351 0
M  V30 6739 C 638.008 0.0357713 -2.30772 0
M  V30 6740 C 638.978 0.813035 -1.44841 0
M  V30 6741 O 640.163 0.789314 -1.73708 0
M  V30 6742 C 637.303 0.995084 -3.30442 0
M  V30 6743 C 636.416 0.21375 -4.31471 0
M  V30 6744 C 635.551 1.16701 -5.18222 0
M  V30 6745 C 634.59 0.376201 -6.10943 0
M  V30 6746 N 633.727 1.28113 -6.90313 0
M  V30 6747 H 638.567 -0.71559 -2.89281 0
M  V30 6748 H 636.104 -0.364645 -1.42509 0
M  V30 6749 H 638.062 1.5649 -3.86739 0
M  V30 6750 H 636.692 1.7133 -2.7358 0
M  V30 6751 H 635.744 -0.472377 -3.77456 0
M  V30 6752 H 637.056 -0.401103 -4.97185 0
M  V30 6753 H 636.21 1.8074 -5.79153 0
M  V30 6754 H 634.949 1.81577 -4.52638 0
M  V30 6755 H 633.954 -0.277534 -5.49099 0
M  V30 6756 H 635.179 -0.268178 -6.7857 0
M  V30 6757 H 633.125 1.91666 -6.27376 0
M  V30 6758 H 633.042 0.720879 -7.52555 0
M  V30 6759 H 634.31 1.90962 -7.55747 0
M  V30 6760 N 638.539 1.52521 -0.396863 0
M  V30 6761 C 639.779 2.03583 0.182578 0
M  V30 6762 C 640.143 1.2766 1.43412 0
M  V30 6763 O 641.344 1.68884 2.09121 0
M  V30 6764 C 639.615 3.54724 0.436519 0
M  V30 6765 S 641.174 4.27598 0.985163 0
M  V30 6766 H 637.992 0.709186 0.0507529 0
M  V30 6767 H 640.594 1.87693 -0.546955 0
M  V30 6768 H 639.298 4.07567 -0.481343 0
M  V30 6769 H 638.829 3.74834 1.19427 0
M  V30 6770 H 640.844 4.41393 2.26686 0
M  V30 6771 N 640.017 0.126909 1.57088 0
M  V30 6772 C 641.428 -0.397201 1.82426 0
M  V30 6773 C 641.779 -1.66084 1.04453 0
M  V30 6774 O 640.904 -2.14534 0.283552 0
M  V30 6775 C 641.499 -0.727411 3.30899 0
M  V30 6776 C 640.058 -1.19612 3.56889 0
M  V30 6777 C 639.205 -0.20885 2.76512 0
M  V30 6778 H 642.156 0.351924 1.54749 0
M  V30 6779 H 642.177 -1.58407 3.45959 0
M  V30 6780 H 641.689 0.19247 3.87622 0
M  V30 6781 H 639.79 -2.13263 3.05532 0
M  V30 6782 H 639.903 -1.13598 4.65438 0
M  V30 6783 H 638.267 -0.697479 2.44964 0
M  V30 6784 H 639.05 0.704267 3.35998 0
M  V30 6785 N 641.495 -1.56914 -0.146875 0
M  V30 6786 C 642.906 -1.72799 -0.706928 0
M  V30 6787 C 643.257 -0.741329 -1.81656 0
M  V30 6788 O 642.382 0.0920162 -2.16204 0
M  V30 6789 C 642.977 -3.13317 -1.28911 0
M  V30 6790 C 641.536 -3.30803 -1.79573 0
M  V30 6791 C 640.683 -2.68725 -0.684252 0
M  V30 6792 H 643.634 -1.58504 0.0787931 0
M  V30 6793 H 643.655 -3.13323 -2.15891 0
M  V30 6794 H 643.167 -3.85104 -0.481284 0
M  V30 6795 H 641.268 -2.64012 -2.62923 0
M  V30 6796 H 641.381 -4.38754 -1.92436 0
M  V30 6797 H 639.745 -2.29196 -1.11091 0
M  V30 6798 H 640.528 -3.43117 0.112134 0
M  V30 6799 N 642.974 0.416227 -1.52004 0
M  V30 6800 C 644.222 1.16153 -1.65387 0
M  V30 6801 C 644.543 1.91208 -0.382669 0
M  V30 6802 O 643.813 1.86413 0.602231 0
M  V30 6803 H 642.393 0.431765 -0.60958 0
M  V30 6804 H 645.055 0.475151 -1.89019 0
M  V30 6805 H 644.151 1.87952 -2.4916 0
M  V30 6806 N 644.452 1.42507 0.673017 0
M  V30 6807 C 645.729 1.33554 1.42908 0
M  V30 6808 C 646.109 -0.0262211 2.11084 0
M  V30 6809 O 645.457 -1.04181 2.03368 0
M  V30 6810 C 645.667 2.50498 2.43006 0
M  V30 6811 C 647.015 2.92694 3.07596 0
M  V30 6812 O 648.039 2.50401 2.53333 0
M  V30 6813 O 646.898 3.65899 4.05931 0
M  V30 6814 H 643.992 0.526785 0.637516 0
M  V30 6815 H 646.538 1.54518 0.701591 0
M  V30 6816 H 645.31 3.41272 1.9144 0
M  V30 6817 H 644.933 2.3153 3.23233 0
M  V30 6818 N 645.93 -0.909495 1.28709 0
M  V30 6819 C 647.155 -1.69801 1.1909 0
M  V30 6820 C 647.58 -1.86479 -0.246388 0
M  V30 6821 O 646.938 -1.37802 -1.17815 0
M  V30 6822 C 646.986 -3.06543 1.89904 0
M  V30 6823 O 646.09 -3.94268 1.2094 0
M  V30 6824 H 645.431 -0.519783 0.413185 0
M  V30 6825 H 647.961 -1.13689 1.70106 0
M  V30 6826 H 647.971 -3.56748 1.97977 0
M  V30 6827 H 646.646 -2.93722 2.94449 0
M  V30 6828 H 645.223 -3.52702 1.2106 0
M  V30 6829 N 647.408 -1.11026 -1.11852 0
M  V30 6830 C 648.654 -0.857729 -1.83768 0
M  V30 6831 C 648.987 0.615143 -1.842 0
M  V30 6832 O 648.262 1.45391 -1.29196 0
M  V30 6833 C 648.545 -1.41453 -3.31154 0
M  V30 6834 C 648.398 -2.95471 -3.39142 0
M  V30 6835 C 649.717 -1.0619 -4.27097 0
M  V30 6836 H 646.836 -0.313044 -0.667212 0
M  V30 6837 H 649.478 -1.37443 -1.31185 0
M  V30 6838 H 647.628 -0.975052 -3.76065 0
M  V30 6839 H 649.3 -3.4799 -3.02821 0
M  V30 6840 H 647.543 -3.31759 -2.79497 0
M  V30 6841 H 648.214 -3.29515 -4.42859 0
M  V30 6842 H 650.69 -1.44122 -3.90344 0
M  V30 6843 H 649.566 -1.47832 -5.28618 0
M  V30 6844 H 649.827 0.0278912 -4.42091 0
M  V30 6845 N 648.886 1.2938 -0.899927 0
M  V30 6846 C 650.114 1.99691 -0.541386 0
M  V30 6847 C 650.529 1.67355 0.873936 0
M  V30 6848 O 649.886 0.918728 1.57688 0
M  V30 6849 C 649.937 3.54168 -0.72438 0
M  V30 6850 O 649.658 3.85359 -2.08399 0
M  V30 6851 C 651.159 4.41746 -0.370819 0
M  V30 6852 H 648.379 0.638037 -0.207726 0
M  V30 6853 H 650.923 1.6491 -1.20934 0
M  V30 6854 H 649.078 3.87261 -0.103607 0
M  V30 6855 H 649.492 4.80032 -2.11352 0
M  V30 6856 H 650.966 5.49256 -0.549693 0
M  V30 6857 H 651.443 4.33712 0.692148 0
M  V30 6858 H 652.049 4.14125 -0.968543 0
M  V30 6859 N 650.364 0.662433 1.43002 0
M  V30 6860 C 651.61 0.179857 2.02001 0
M  V30 6861 C 651.943 -1.20625 1.52195 0
M  V30 6862 O 651.218 -1.80726 0.718911 0
M  V30 6863 C 651.501 0.200845 3.59539 0
M  V30 6864 C 651.354 1.62153 4.19555 0
M  V30 6865 C 652.673 -0.457738 4.37713 0
M  V30 6866 H 649.792 0.0668305 0.733964 0
M  V30 6867 H 652.434 0.84487 1.70182 0
M  V30 6868 H 650.584 -0.365411 3.86778 0
M  V30 6869 H 652.256 2.23908 4.03315 0
M  V30 6870 H 650.499 2.16601 3.75854 0
M  V30 6871 H 651.17 1.58799 5.28665 0
M  V30 6872 H 653.646 0.0241495 4.16093 0
M  V30 6873 H 652.522 -0.412363 5.47349 0
M  V30 6874 H 652.783 -1.53336 4.14657 0
M  V30 6875 N 651.842 -1.52309 0.404946 0
M  V30 6876 C 653.067 -2.06666 -0.1743 0
M  V30 6877 C 653.492 -1.27341 -1.38441 0
M  V30 6878 O 652.85 -0.302539 -1.78758 0
M  V30 6879 C 652.898 -3.57014 -0.507262 0
M  V30 6880 O 652.002 -3.80144 -1.59889 0
M  V30 6881 H 651.343 -0.663807 -0.0160273 0
M  V30 6882 H 653.873 -1.96297 0.576937 0
M  V30 6883 H 653.883 -4.00724 -0.767098 0
M  V30 6884 H 652.558 -4.14184 0.377368 0
M  V30 6885 H 651.135 -3.48316 -1.33155 0
M  V30 6886 N 653.32 -0.135238 -1.57019 0
M  V30 6887 C 654.569 0.518694 -1.94917 0
M  V30 6888 C 654.882 1.66783 -1.0219 0
M  V30 6889 O 656.088 2.38561 -1.29619 0
M  V30 6890 C 654.544 0.974123 -3.46466 0
M  V30 6891 C 654.152 -0.147439 -4.47757 0
M  V30 6892 C 655.896 1.59851 -3.93253 0
M  V30 6893 C 653.803 0.325599 -5.90503 0
M  V30 6894 H 652.733 0.19754 -0.727663 0
M  V30 6895 H 655.384 -0.217698 -1.82204 0
M  V30 6896 H 653.766 1.76542 -3.5447 0
M  V30 6897 H 654.94 -0.924122 -4.51438 0
M  V30 6898 H 653.255 -0.679496 -4.10818 0
M  V30 6899 H 655.852 1.96385 -4.9733 0
M  V30 6900 H 656.195 2.48306 -3.3414 0
M  V30 6901 H 656.728 0.872323 -3.88118 0
M  V30 6902 H 653.467 -0.523295 -6.53408 0
M  V30 6903 H 652.987 1.06841 -5.90208 0
M  V30 6904 H 654.666 0.781498 -6.42263 0
M  V30 6905 N 654.798 1.5699 0.138552 0
M  V30 6906 C 656.044 1.84081 0.85099 0
M  V30 6907 C 656.377 0.718107 1.80435 0
M  V30 6908 O 655.652 -0.277633 1.92508 0
M  V30 6909 C 655.935 3.21699 1.61808 0
M  V30 6910 C 655.788 4.44544 0.685633 0
M  V30 6911 C 657.107 3.5664 2.57868 0
M  V30 6912 H 654.226 0.669592 0.307922 0
M  V30 6913 H 656.868 1.89646 0.11588 0
M  V30 6914 H 655.018 3.17086 2.24474 0
M  V30 6915 H 656.69 4.61248 0.0693179 0
M  V30 6916 H 654.933 4.338 -0.00421993 0
M  V30 6917 H 655.604 5.3746 1.25858 0
M  V30 6918 H 658.08 3.61918 2.05316 0
M  V30 6919 H 656.956 4.53946 3.08584 0
M  V30 6920 H 657.217 2.83036 3.39622 0
M  V30 6921 N 656.276 -0.40816 1.52223 0
M  V30 6922 C 657.501 -1.18127 1.70472 0
M  V30 6923 C 657.926 -1.83491 0.41384 0
M  V30 6924 O 657.284 -1.70047 -0.628778 0
M  V30 6925 C 657.332 -2.21935 2.84213 0
M  V30 6926 O 656.436 -3.28099 2.4985 0
M  V30 6927 H 655.777 -0.344781 0.56747 0
M  V30 6928 H 658.307 -0.478328 1.9893 0
M  V30 6929 H 658.317 -2.66248 3.09153 0
M  V30 6930 H 656.992 -1.73744 3.7787 0
M  V30 6931 H 655.569 -2.89058 2.35584 0
M  V30 6932 N 657.755 -1.42862 -0.66545 0
M  V30 6933 C 658.98 -1.47456 -1.45848 0
M  V30 6934 C 659.405 -0.0900312 -1.87884 0
M  V30 6935 O 658.763 0.913587 -1.56599 0
M  V30 6936 C 658.811 -2.41514 -2.67774 0
M  V30 6937 O 657.915 -1.89296 -3.66389 0
M  V30 6938 H 657.256 -0.499236 -0.437789 0
M  V30 6939 H 659.786 -1.8765 -0.815394 0
M  V30 6940 H 659.796 -2.58409 -3.15735 0
M  V30 6941 H 658.471 -3.42099 -2.36519 0
M  V30 6942 H 657.048 -1.82003 -3.25468 0
M  V30 6943 N 659.233 0.902656 -1.29189 0
M  V30 6944 C 660.181 2.0278 -1.13943 0
M  V30 6945 C 661.175 1.69308 -0.055787 0
M  V30 6946 O 662.381 1.78707 -0.215371 0
M  V30 6947 H 658.756 0.664595 -0.351877 0
M  V30 6948 H 660.727 2.12778 -2.09208 0
M  V30 6949 C 659.476 3.37657 -0.82966 0
M  V30 6950 H 658.799 3.63913 -1.65551 0
M  V30 6951 H 660.239 4.17078 -0.762998 0
M  V30 6952 C 658.698 3.33648 0.466991 0
M  V30 6953 O 659.228 3.72886 1.49395 0
M  V30 6954 N 657.434 2.86745 0.471761 0
M  V30 6955 H 656.981 2.55009 -0.364406 0
M  V30 6956 H 656.939 2.84446 1.33933 0
M  V30 6957 N 660.711 1.11618 1.11262 0
M  V30 6958 C 661.936 0.889013 1.8738 0
M  V30 6959 C 662.361 -0.555884 1.79698 0
M  V30 6960 O 661.719 -1.39272 1.16073 0
M  V30 6961 C 661.767 1.35759 3.34069 0
M  V30 6962 O 660.871 0.530499 4.08974 0
M  V30 6963 H 660.212 0.320082 0.581759 0
M  V30 6964 H 662.742 1.48611 1.40627 0
M  V30 6965 H 662.752 1.35291 3.84916 0
M  V30 6966 H 661.427 2.40973 3.38976 0
M  V30 6967 H 660.004 0.601439 3.68018 0
M  V30 6968 N 662.189 -1.289 0.906776 0
M  V30 6969 C 663.152 -2.25777 0.394656 0
M  V30 6970 C 664.152 -1.53621 -0.475119 0
M  V30 6971 O 665.342 -1.71949 -0.279165 0
M  V30 6972 C 662.474 -3.38113 -0.43499 0
M  V30 6973 H 663.667 -2.72592 1.25033 0
M  V30 6974 H 661.22 -1.40463 0.685547 0
M  V30 6975 H 661.955 -2.96648 -1.31036 0
M  V30 6976 H 661.74 -3.91647 0.188334 0
M  V30 6977 H 663.23 -4.10168 -0.784365 0
M  V30 6978 N 663.667 -0.670007 -1.42649 0
M  V30 6979 C 664.895 -0.19854 -2.05945 0
M  V30 6980 C 665.31 1.14243 -1.50313 0
M  V30 6981 O 664.667 1.70872 -0.641027 0
M  V30 6982 C 664.718 -0.11966 -3.61302 0
M  V30 6983 O 664.439 -1.40764 -4.1487 0
M  V30 6984 C 665.94 0.375878 -4.41704 0
M  V30 6985 H 663.16 -0.0976894 -0.663851 0
M  V30 6986 H 665.704 -0.915392 -1.82868 0
M  V30 6987 H 663.859 0.547851 -3.83507 0
M  V30 6988 H 664.273 -1.27784 -5.08696 0
M  V30 6989 H 665.747 0.379988 -5.50691 0
M  V30 6990 H 666.224 1.41028 -4.15942 0
M  V30 6991 H 666.83 -0.259727 -4.24506 0
M  V30 6992 N 665.145 1.52092 -0.413018 0
M  V30 6993 C 666.37 2.06756 0.163338 0
M  V30 6994 C 666.795 1.28073 1.37764 0
M  V30 6995 O 666.153 0.312015 1.78595 0
M  V30 6996 C 666.201 3.57278 0.488322 0
M  V30 6997 O 665.305 3.80986 1.57871 0
M  V30 6998 H 664.646 0.663882 0.0125068 0
M  V30 6999 H 667.176 1.95988 -0.587339 0
M  V30 7000 H 667.186 4.01125 0.745836 0
M  V30 7001 H 665.861 4.13978 -0.399327 0
M  V30 7002 H 664.438 3.49017 1.31306 0
M  V30 7003 N 666.623 0.143563 1.56945 0
M  V30 7004 C 667.863 -0.511198 1.97904 0
M  V30 7005 C 668.227 -1.62262 1.0264 0
M  V30 7006 O 669.428 -2.338 1.32631 0
M  V30 7007 C 667.699 -1.00753 3.42905 0
M  V30 7008 S 669.258 -1.66737 4.05887 0
M  V30 7009 H 666.076 -0.165399 0.691494 0
M  V30 7010 H 668.678 0.234464 1.94089 0
M  V30 7011 H 667.382 -0.187817 4.0997 0
M  V30 7012 H 666.913 -1.7879 3.50425 0
M  V30 7013 H 668.928 -2.95444 3.98657 0
M  V30 7014 N 668.101 -1.57061 -0.130224 0
M  V30 7015 C 669.329 -1.88432 -0.854456 0
M  V30 7016 C 669.744 -0.733608 -1.73964 0
M  V30 7017 O 669.101 0.296029 -1.80083 0
M  V30 7018 C 669.152 -3.1918 -1.69724 0
M  V30 7019 O 668.873 -4.2982 -0.847705 0
M  V30 7020 C 670.374 -3.6418 -2.5276 0
M  V30 7021 H 667.594 -0.624193 -0.246221 0
M  V30 7022 H 670.138 -2.04159 -0.11798 0
M  V30 7023 H 668.293 -3.05156 -2.3866 0
M  V30 7024 H 668.707 -5.04689 -1.42792 0
M  V30 7025 H 670.181 -4.58457 -3.07443 0
M  V30 7026 H 670.658 -2.90285 -3.29592 0
M  V30 7027 H 671.264 -3.80954 -1.89087 0
M  V30 7028 N 669.579 0.400081 -1.52437 0
M  V30 7029 C 670.509 1.4947 -1.7939 0
M  V30 7030 C 671.49 1.57383 -0.645329 0
M  V30 7031 O 672.675 1.72511 -0.891826 0
M  V30 7032 C 669.805 2.87201 -1.95276 0
M  V30 7033 C 668.759 2.94134 -3.10917 0
M  V30 7034 C 668.085 4.34207 -3.1204 0
M  V30 7035 C 669.385 2.64791 -4.50203 0
M  V30 7036 H 671.079 1.27165 -2.71052 0
M  V30 7037 H 668.625 0.610312 -1.30427 0
M  V30 7038 H 670.578 3.63772 -2.12715 0
M  V30 7039 H 669.302 3.10819 -1.00294 0
M  V30 7040 H 667.961 2.20009 -2.93243 0
M  V30 7041 H 667.609 4.54848 -2.14761 0
M  V30 7042 H 667.309 4.39768 -3.89715 0
M  V30 7043 H 668.833 5.127 -3.31619 0
M  V30 7044 H 670.247 3.31083 -4.68035 0
M  V30 7045 H 668.644 2.81717 -5.29864 0
M  V30 7046 H 669.714 1.60184 -4.57678 0
M  V30 7047 N 671.057 1.43213 0.657864 0
M  V30 7048 C 672.02 1.47687 1.75275 0
M  V30 7049 C 673.02 0.362179 1.56668 0
M  V30 7050 O 674.21 0.623734 1.62651 0
M  V30 7051 C 671.342 1.32497 3.14098 0
M  V30 7052 H 672.535 2.4519 1.7269 0
M  V30 7053 H 670.088 1.2991 0.869087 0
M  V30 7054 H 670.823 0.359831 3.22298 0
M  V30 7055 H 670.608 2.13299 3.29008 0
M  V30 7056 H 672.098 1.38549 3.93946 0
M  V30 7057 N 672.536 -0.895792 1.29666 0
M  V30 7058 C 673.952 -1.17726 1.07763 0
M  V30 7059 C 674.152 -2.00794 -0.168576 0
M  V30 7060 O 673.208 -2.37213 -0.865244 0
M  V30 7061 C 674.521 -1.89441 2.33522 0
M  V30 7062 C 676.069 -2.02251 2.3888 0
M  V30 7063 C 676.544 -2.77378 3.64452 0
M  V30 7064 N 678.035 -2.8493 3.65198 0
M  V30 7065 C 678.77 -3.43606 4.59045 0
M  V30 7066 N 678.266 -4.03417 5.63228 0
M  V30 7067 N 680.059 -3.41317 4.46608 0
M  V30 7068 H 672.21 -0.341652 2.09634 0
M  V30 7069 H 674.473 -0.213865 0.923561 0
M  V30 7070 H 674.179 -1.35842 3.24407 0
M  V30 7071 H 674.053 -2.89893 2.41334 0
M  V30 7072 H 676.44 -2.55025 1.4848 0
M  V30 7073 H 676.521 -1.0092 2.3505 0
M  V30 7074 H 676.165 -2.25279 4.55205 0
M  V30 7075 H 676.095 -3.79062 3.65541 0
M  V30 7076 H 678.586 -2.42453 2.89871 0
M  V30 7077 H 678.899 -4.46224 6.30955 0
M  V30 7078 H 677.244 -4.01868 5.67033 0
M  V30 7079 H 680.435 -2.93812 3.64407 0
M  V30 7080 H 680.608 -3.86751 5.1993 0
M  V30 7081 N 674.014 -1.12206 -1.10668 0
M  V30 7082 C 674.961 -0.787716 -2.16942 0
M  V30 7083 C 675.931 0.244442 -1.64291 0
M  V30 7084 O 677.116 0.119558 -1.90425 0
M  V30 7085 C 674.256 -0.24584 -3.44223 0
M  V30 7086 C 673.369 -1.33552 -4.10838 0
M  V30 7087 C 672.504 -0.753337 -5.25831 0
M  V30 7088 C 671.543 -1.82231 -5.84344 0
M  V30 7089 N 670.68 -1.25902 -6.90719 0
M  V30 7090 H 675.52 -1.69809 -2.44885 0
M  V30 7091 H 673.057 -0.847862 -1.20207 0
M  V30 7092 H 675.015 0.0863639 -4.17111 0
M  V30 7093 H 673.645 0.627702 -3.16638 0
M  V30 7094 H 672.697 -1.78454 -3.35944 0
M  V30 7095 H 674.009 -2.14396 -4.50373 0
M  V30 7096 H 673.163 -0.37166 -6.05561 0
M  V30 7097 H 671.902 0.0863297 -4.87624 0
M  V30 7098 H 670.907 -2.2132 -5.03287 0
M  V30 7099 H 672.132 -2.66515 -6.24617 0
M  V30 7100 H 670.078 -0.44114 -6.54515 0
M  V30 7101 H 669.995 -2.00408 -7.28953 0
M  V30 7102 H 671.263 -0.904498 -7.74235 0
M  V30 7103 N 675.492 1.28418 -0.913599 0
M  V30 7104 C 676.741 1.94265 -0.542572 0
M  V30 7105 C 677.054 1.72709 0.918207 0
M  V30 7106 O 678.26 2.32778 1.39738 0
M  V30 7107 C 676.716 3.47956 -0.919507 0
M  V30 7108 C 676.324 3.78291 -2.4 0
M  V30 7109 C 678.068 4.19962 -0.619057 0
M  V30 7110 C 675.975 5.2529 -2.71707 0
M  V30 7111 H 674.905 0.727213 -0.199192 0
M  V30 7112 H 677.556 1.45931 -1.11249 0
M  V30 7113 H 675.938 3.9502 -0.278372 0
M  V30 7114 H 677.112 3.42035 -3.08786 0
M  V30 7115 H 675.427 3.19456 -2.67089 0
M  V30 7116 H 678.024 5.28178 -0.832623 0
M  V30 7117 H 678.367 4.13935 0.443126 0
M  V30 7118 H 678.9 3.78674 -1.21865 0
M  V30 7119 H 675.639 5.36394 -3.76778 0
M  V30 7120 H 675.159 5.62743 -2.07559 0
M  V30 7121 H 676.838 5.93027 -2.58703 0
M  V30 7122 N 676.97 0.677563 1.42291 0
M  V30 7123 C 677.917 0.000947061 2.308 0
M  V30 7124 C 678.887 -0.789889 1.46116 0
M  V30 7125 O 680.072 -0.761578 1.74942 0
M  V30 7126 C 677.212 -0.942387 3.31984 0
M  V30 7127 C 676.325 -0.14508 4.31756 0
M  V30 7128 C 675.46 -1.08442 5.20013 0
M  V30 7129 C 674.499 -0.278958 6.11464 0
M  V30 7130 N 673.636 -1.17115 6.92263 0
M  V30 7131 H 678.476 0.761521 2.88106 0
M  V30 7132 H 676.013 0.38727 1.41911 0
M  V30 7133 H 677.971 -1.50317 3.89179 0
M  V30 7134 H 676.601 -1.66956 2.76271 0
M  V30 7135 H 675.653 0.532368 3.76656 0
M  V30 7136 H 676.965 0.48015 4.96484 0
M  V30 7137 H 676.119 -1.71504 5.81955 0
M  V30 7138 H 674.858 -1.74353 4.55469 0
M  V30 7139 H 673.863 0.364856 5.48588 0
M  V30 7140 H 675.088 0.376099 6.78058 0
M  V30 7141 H 673.034 -1.81661 6.30345 0
M  V30 7142 H 672.951 -0.601063 7.53607 0
M  V30 7143 H 674.219 -1.78915 7.58689 0
M  V30 7144 N 678.448 -1.51871 0.421078 0
M  V30 7145 C 679.859 -1.86644 -0.0457991 0
M  V30 7146 C 680.21 -1.33919 -1.43388 0
M  V30 7147 O 679.335 -0.683316 -2.05328 0
M  V30 7148 C 679.93 -3.38681 -0.0898844 0
M  V30 7149 C 678.489 -3.73049 -0.501127 0
M  V30 7150 C 677.636 -2.75485 0.316723 0
M  V30 7151 H 680.587 -1.45327 0.637635 0
M  V30 7152 H 680.608 -3.69636 -0.902734 0
M  V30 7153 H 680.12 -3.77025 0.920513 0
M  V30 7154 H 678.221 -3.40288 -1.51773 0
M  V30 7155 H 678.334 -4.78512 -0.237217 0
M  V30 7156 H 676.698 -2.53725 -0.222663 0
M  V30 7157 H 677.481 -3.16671 1.32569 0
M  V30 7158 N 679.926 -0.151884 -1.56866 0
M  V30 7159 C 680.873 0.785936 -2.17006 0
M  V30 7160 C 681.843 1.2407 -1.10435 0
M  V30 7161 O 683.028 1.31235 -1.38499 0
M  V30 7162 C 680.168 2.01771 -2.79969 0
M  V30 7163 C 679.281 1.6083 -4.00946 0
M  V30 7164 C 678.416 2.79224 -4.51893 0
M  V30 7165 C 677.455 2.3468 -5.65324 0
M  V30 7166 N 676.592 3.461 -6.10867 0
M  V30 7167 H 681.432 0.266286 -2.96808 0
M  V30 7168 H 678.969 0.11972 -1.46612 0
M  V30 7169 H 680.927 2.73989 -3.14621 0
M  V30 7170 H 679.557 2.51139 -2.02803 0
M  V30 7171 H 678.609 0.783592 -3.72242 0
M  V30 7172 H 679.921 1.24119 -4.83111 0
M  V30 7173 H 679.075 3.59625 -4.88625 0
M  V30 7174 H 677.814 3.19183 -3.68746 0
M  V30 7175 H 676.819 1.52721 -5.28163 0
M  V30 7176 H 678.044 1.95801 -6.5026 0
M  V30 7177 H 675.99 3.85671 -5.30654 0
M  V30 7178 H 675.907 3.1342 -6.87971 0
M  V30 7179 H 677.175 4.26844 -6.52246 0
M  V30 7180 N 681.404 1.57128 0.121893 0
M  V30 7181 C 682.651 1.847 0.830188 0
M  V30 7182 C 682.979 0.736543 1.80015 0
M  V30 7183 O 682.234 -0.272358 1.93796 0
M  V30 7184 C 682.533 3.1874 1.61677 0
M  V30 7185 C 682.199 4.43901 0.791361 0
M  V30 7186 C 680.861 4.77887 0.563731 0
M  V30 7187 C 683.213 5.20753 0.215823 0
M  V30 7188 C 680.541 5.86168 -0.249737 0
M  V30 7189 C 682.893 6.29891 -0.584821 0
M  V30 7190 C 681.557 6.6241 -0.822794 0
M  V30 7191 H 680.827 0.675866 0.303787 0
M  V30 7192 H 683.474 1.91276 0.0926894 0
M  V30 7193 H 681.779 3.07728 2.42509 0
M  V30 7194 H 683.476 3.37295 2.16872 0
M  V30 7195 H 680.066 4.17272 0.978867 0
M  V30 7196 H 684.25 4.94851 0.378907 0
M  V30 7197 H 679.506 6.0979 -0.44336 0
M  V30 7198 H 683.68 6.88624 -1.03779 0
M  V30 7199 H 681.307 7.46147 -1.45496 0
M  V30 7200 N 682.882 -0.391992 1.52647 0
M  V30 7201 C 684.128 -1.139 1.67793 0
M  V30 7202 C 684.461 -1.89711 0.41514 0
M  V30 7203 O 683.736 -1.85431 -0.586979 0
M  V30 7204 C 684.019 -2.11966 2.91105 0
M  V30 7205 C 683.872 -1.39939 4.27478 0
M  V30 7206 C 685.191 -3.1243 3.09961 0
M  V30 7207 H 682.31 -0.412707 0.610608 0
M  V30 7208 H 684.952 -0.422725 1.85238 0
M  V30 7209 H 683.102 -2.73048 2.76364 0
M  V30 7210 H 684.774 -0.818439 4.53982 0
M  V30 7211 H 683.017 -0.701246 4.28095 0
M  V30 7212 H 683.688 -2.1158 5.09841 0
M  V30 7213 H 686.164 -2.61435 3.23714 0
M  V30 7214 H 685.04 -3.78294 3.97725 0
M  V30 7215 H 685.301 -3.81127 2.24042 0
M  V30 7216 N 684.36 -1.4356 -0.65026 0
M  V30 7217 C 685.608 -1.45046 -1.40734 0
M  V30 7218 C 685.929 -0.0769822 -1.94848 0
M  V30 7219 O 685.199 0.888098 -1.74613 0
M  V30 7220 H 683.779 -0.534034 -0.522318 0
M  V30 7221 H 686.441 -1.79186 -0.766703 0
M  V30 7222 H 685.537 -2.16476 -2.24822 0
M  V30 7223 N 685.838 0.888903 -1.30139 0
M  V30 7224 C 687.254 1.17153 -1.08385 0
M  V30 7225 C 687.454 2.0088 0.157925 0
M  V30 7226 O 686.51 2.37668 0.852652 0
M  V30 7227 C 687.823 1.882 -2.34523 0
M  V30 7228 C 689.371 2.00981 -2.39949 0
M  V30 7229 C 689.846 2.75441 -3.65918 0
M  V30 7230 N 691.337 2.82989 -3.66704 0
M  V30 7231 C 692.072 3.41167 -4.60861 0
M  V30 7232 N 691.568 4.00425 -5.6536 0
M  V30 7233 N 693.361 3.38944 -4.48412 0
M  V30 7234 H 685.512 0.33053 -2.09812 0
M  V30 7235 H 687.775 0.208964 -0.924683 0
M  V30 7236 H 687.481 1.34119 -3.25123 0
M  V30 7237 H 687.355 2.88609 -2.42868 0
M  V30 7238 H 689.742 2.54234 -1.4983 0
M  V30 7239 H 689.823 0.996725 -2.35582 0
M  V30 7240 H 689.467 2.22861 -4.56394 0
M  V30 7241 H 689.397 3.77118 -3.67546 0
M  V30 7242 H 691.888 2.40912 -2.91153 0
M  V30 7243 H 692.201 4.42871 -6.33313 0
M  V30 7244 H 690.546 3.98856 -5.69157 0
M  V30 7245 H 693.737 2.91875 -3.6596 0
M  V30 7246 H 693.91 3.83989 -5.21974 0
M  V30 7247 N 687.317 1.12792 1.10072 0
M  V30 7248 C 688.227 0.812369 2.20086 0
M  V30 7249 C 689.243 -0.200349 1.72843 0
M  V30 7250 O 690.419 -0.0330262 2.01373 0
M  V30 7251 C 687.484 0.275685 3.45602 0
M  V30 7252 C 686.545 1.34881 4.07561 0
M  V30 7253 C 685.778 0.837639 5.27086 0
M  V30 7254 O 686.001 -0.327224 5.69461 0
M  V30 7255 O 684.935 1.60894 5.79997 0
M  V30 7256 H 688.761 1.73133 2.49517 0
M  V30 7257 H 686.346 0.904863 1.18881 0
M  V30 7258 H 688.228 -0.0185375 4.21396 0
M  V30 7259 H 686.903 -0.615783 3.17789 0
M  V30 7260 H 685.81 1.69625 3.33434 0
M  V30 7261 H 687.143 2.21418 4.39585 0
M  V30 7262 N 688.795 -1.27931 0.920396 0
M  V30 7263 C 689.742 -2.27085 0.412422 0
M  V30 7264 C 690.712 -1.57858 -0.516725 0
M  V30 7265 O 691.897 -1.85717 -0.437475 0
M  V30 7266 C 689.037 -3.43466 -0.335399 0
M  V30 7267 C 688.15 -4.27425 0.627017 0
M  V30 7268 C 687.285 -5.31016 -0.139916 0
M  V30 7269 C 686.324 -6.06641 0.815683 0
M  V30 7270 N 685.461 -7.02052 0.0818439 0
M  V30 7271 H 690.301 -2.69913 1.26298 0
M  V30 7272 H 687.838 -1.32732 0.634076 0
M  V30 7273 H 689.796 -4.09744 -0.785226 0
M  V30 7274 H 688.426 -3.01611 -1.15025 0
M  V30 7275 H 687.478 -3.6113 1.19537 0
M  V30 7276 H 688.79 -4.79969 1.35763 0
M  V30 7277 H 687.944 -6.03208 -0.649998 0
M  V30 7278 H 686.683 -4.79257 -0.903543 0
M  V30 7279 H 685.688 -5.33294 1.33708 0
M  V30 7280 H 686.913 -6.60489 1.57897 0
M  V30 7281 H 684.859 -6.52634 -0.663671 0
M  V30 7282 H 684.776 -7.52249 0.752163 0
M  V30 7283 H 686.044 -7.78432 -0.407825 0
M  V30 7284 N 690.273 -0.685099 -1.4193 0
M  V30 7285 C 691.503 -0.220052 -2.05425 0
M  V30 7286 C 691.911 1.13185 -1.51611 0
M  V30 7287 O 691.254 1.71631 -0.654875 0
M  V30 7288 C 691.316 -0.0888364 -3.5939 0
M  V30 7289 C 690.98 -1.37109 -4.35947 0
M  V30 7290 C 691.977 -2.30675 -4.65924 0
M  V30 7291 C 689.662 -1.62155 -4.75406 0
M  V30 7292 C 691.656 -3.47556 -5.34306 0
M  V30 7293 C 689.343 -2.79324 -5.43527 0
M  V30 7294 C 690.341 -3.71848 -5.72903 0
M  V30 7295 O 690.029 -4.86966 -6.39624 0
M  V30 7296 H 689.761 -0.102165 -0.668235 0
M  V30 7297 H 692.315 -0.935194 -1.82875 0
M  V30 7298 H 690.545 0.681981 -3.80639 0
M  V30 7299 H 692.234 0.337669 -4.04493 0
M  V30 7300 H 693 -2.12579 -4.3593 0
M  V30 7301 H 688.879 -0.910053 -4.51928 0
M  V30 7302 H 692.423 -4.19794 -5.57153 0
M  V30 7303 H 688.32 -2.97342 -5.72938 0
M  V30 7304 H 689.088 -4.86644 -6.58118 0
M  V30 7305 N 691.751 1.51645 -0.429126 0
M  V30 7306 C 693.028 1.94579 0.199614 0
M  V30 7307 C 693.408 1.3673 1.60836 0
M  V30 7308 O 692.756 0.551062 2.21756 0
M  V30 7309 C 692.966 3.48506 0.185685 0
M  V30 7310 C 694.314 4.22756 0.395282 0
M  V30 7311 O 695.338 3.55219 0.264165 0
M  V30 7312 O 694.197 5.42555 0.655475 0
M  V30 7313 H 691.291 0.816007 0.134393 0
M  V30 7314 H 693.837 1.62577 -0.486513 0
M  V30 7315 H 692.609 3.83045 -0.799508 0
M  V30 7316 H 692.232 3.86927 0.91507 0
M  V30 7317 N 693.229 0.160201 1.56784 0
M  V30 7318 C 694.159 -0.770264 2.2043 0
M  V30 7319 C 695.14 -1.24736 1.15651 0
M  V30 7320 O 696.325 -1.30253 1.44041 0
M  V30 7321 C 693.455 -2.00427 2.83631 0
M  V30 7322 C 692.409 -1.66345 3.94352 0
M  V30 7323 C 691.735 -2.97119 4.4455 0
M  V30 7324 C 693.035 -0.899972 5.14488 0
M  V30 7325 H 694.729 -0.239783 2.98438 0
M  V30 7326 H 692.275 -0.113891 1.43549 0
M  V30 7327 H 694.228 -2.66012 3.26827 0
M  V30 7328 H 692.952 -2.5587 2.02973 0
M  V30 7329 H 691.611 -1.03133 3.51794 0
M  V30 7330 H 691.259 -3.5058 3.60698 0
M  V30 7331 H 690.959 -2.75073 5.19238 0
M  V30 7332 H 692.483 -3.63753 4.90425 0
M  V30 7333 H 693.897 -1.45818 5.54446 0
M  V30 7334 H 692.294 -0.778968 5.95023 0
M  V30 7335 H 693.364 0.105827 4.84785 0
M  V30 7336 N 694.707 -1.5719 -0.113559 0
M  V30 7337 C 696.118 -1.74259 -0.670116 0
M  V30 7338 C 696.469 -0.779694 -1.80042 0
M  V30 7339 O 695.594 0.0461353 -2.16351 0
M  V30 7340 C 696.189 -3.15981 -1.22236 0
M  V30 7341 C 694.748 -3.34537 -1.72516 0
M  V30 7342 C 693.895 -2.70116 -0.627098 0
M  V30 7343 H 696.846 -1.58301 0.112396 0
M  V30 7344 H 696.867 -3.17832 -2.09197 0
M  V30 7345 H 696.379 -3.86038 -0.39949 0
M  V30 7346 H 694.48 -2.6953 -2.57263 0
M  V30 7347 H 694.593 -4.42737 -1.83086 0
M  V30 7348 H 692.957 -2.31501 -1.06204 0
M  V30 7349 H 693.74 -3.42802 0.184889 0
M  V30 7350 N 696.185 0.383891 -1.52853 0
M  V30 7351 C 697.596 0.961591 -1.60032 0
M  V30 7352 C 697.947 1.90819 -0.456333 0
M  V30 7353 O 697.072 2.12288 0.419873 0
M  V30 7354 C 697.667 1.75078 -2.90057 0
M  V30 7355 C 696.226 2.2781 -2.99632 0
M  V30 7356 C 695.373 1.08512 -2.55187 0
M  V30 7357 H 698.324 0.163269 -1.57858 0
M  V30 7358 H 698.345 2.61046 -2.7683 0
M  V30 7359 H 697.857 1.06157 -3.73299 0
M  V30 7360 H 695.958 3.00028 -2.20939 0
M  V30 7361 H 696.071 2.56947 -4.0437 0
M  V30 7362 H 694.435 1.44667 -2.09627 0
M  V30 7363 H 695.218 0.41118 -3.40829 0
M  V30 7364 N 697.663 1.43903 0.642637 0
M  V30 7365 C 698.909 1.46296 1.40447 0
M  V30 7366 C 699.242 0.0908361 1.93987 0
M  V30 7367 O 698.517 -0.889884 1.72949 0
M  V30 7368 C 698.8 2.51399 2.57819 0
M  V30 7369 C 698.653 3.97926 2.09702 0
M  V30 7370 C 699.972 2.53125 3.60022 0
M  V30 7371 H 697.091 0.532676 0.509338 0
M  V30 7372 H 699.733 1.75515 0.727635 0
M  V30 7373 H 697.883 2.26614 3.1556 0
M  V30 7374 H 699.555 4.33804 1.5688 0
M  V30 7375 H 697.798 4.10252 1.40982 0
M  V30 7376 H 698.469 4.67096 2.94152 0
M  V30 7377 H 700.945 2.75242 3.12059 0
M  V30 7378 H 699.821 3.28589 4.39682 0
M  V30 7379 H 700.082 1.56895 4.13324 0
M  V30 7380 N 699.141 -0.881989 1.30609 0
M  V30 7381 C 700.091 -1.97539 1.13852 0
M  V30 7382 C 701.075 -1.60813 0.0528428 0
M  V30 7383 O 702.267 -1.74827 0.276484 0
M  V30 7384 C 699.396 -3.32977 0.835519 0
M  V30 7385 C 698.482 -3.76008 1.96159 0
M  V30 7386 N 698.873 -3.91109 3.20729 0
M  V30 7387 C 697.171 -4.05427 1.85863 0
M  V30 7388 C 697.872 -4.27661 3.94311 0
M  V30 7389 N 696.848 -4.37686 3.22385 0
M  V30 7390 H 700.65 -2.07309 2.08327 0
M  V30 7391 H 698.164 -1.072 1.21992 0
M  V30 7392 H 700.161 -4.11041 0.696477 0
M  V30 7393 H 698.821 -3.24542 -0.101135 0
M  V30 7394 H 699.832 -3.7616 3.55984 0
M  V30 7395 H 696.509 -4.05449 0.995847 0
M  V30 7396 H 697.899 -4.47042 5.01601 0
M  V30 7397 N 700.619 -1.13374 -1.09472 0
M  V30 7398 C 701.867 -0.893422 -1.8128 0
M  V30 7399 C 702.188 0.582029 -1.86111 0
M  V30 7400 O 701.458 1.42305 -1.34633 0
M  V30 7401 H 700.038 -0.327543 -0.67136 0
M  V30 7402 H 702.7 -1.43018 -1.32408 0
M  V30 7403 H 701.796 -1.28374 -2.84476 0
M  V30 7404 N 702.098 1.27442 -0.927168 0
M  V30 7405 C 703.045 2.26863 -0.424459 0
M  V30 7406 C 704.015 1.5813 0.508346 0
M  V30 7407 O 705.2 1.85946 0.42762 0
M  V30 7408 C 702.34 3.43639 0.31718 0
M  V30 7409 C 701.453 4.27087 -0.649675 0
M  V30 7410 C 700.588 5.31082 0.111753 0
M  V30 7411 C 699.627 6.062 -0.847843 0
M  V30 7412 N 698.764 7.01999 -0.119074 0
M  V30 7413 H 703.604 2.69239 -1.27728 0
M  V30 7414 H 701.141 1.32394 -0.641106 0
M  V30 7415 H 703.099 4.10155 0.763486 0
M  V30 7416 H 701.729 3.02217 1.13424 0
M  V30 7417 H 700.781 3.60491 -1.21451 0
M  V30 7418 H 702.093 4.79242 -1.38307 0
M  V30 7419 H 701.247 6.03544 0.618 0
M  V30 7420 H 699.986 4.7973 0.878114 0
M  V30 7421 H 698.991 5.32577 -1.36534 0
M  V30 7422 H 700.216 6.59642 -1.61398 0
M  V30 7423 H 698.162 6.52977 0.629051 0
M  V30 7424 H 698.079 7.5184 -0.792046 0
M  V30 7425 H 699.347 7.78638 0.366537 0
M  V30 7426 N 703.576 0.692616 1.41565 0
M  V30 7427 C 704.523 0.0254264 2.30786 0
M  V30 7428 C 705.493 -0.774347 1.46946 0
M  V30 7429 O 706.678 -0.742981 1.7574 0
M  V30 7430 C 703.818 -0.907123 3.32964 0
M  V30 7431 C 702.931 -0.0992784 4.31886 0
M  V30 7432 C 702.066 -1.0292 5.21134 0
M  V30 7433 C 701.105 -0.214088 6.11725 0
M  V30 7434 N 700.242 -1.09766 6.93467 0
M  V30 7435 H 705.082 0.792036 2.87282 0
M  V30 7436 H 702.619 0.4023 1.41492 0
M  V30 7437 H 704.577 -1.46181 3.90752 0
M  V30 7438 H 703.207 -1.64016 2.78026 0
M  V30 7439 H 702.259 0.572287 3.76071 0
M  V30 7440 H 703.571 0.532782 4.95946 0
M  V30 7441 H 702.725 -1.65321 5.83741 0
M  V30 7442 H 701.464 -1.69512 4.57293 0
M  V30 7443 H 700.469 0.42302 5.4817 0
M  V30 7444 H 701.694 0.447995 6.77621 0
M  V30 7445 H 699.64 -1.74965 6.32237 0
M  V30 7446 H 699.557 -0.521099 7.54202 0
M  V30 7447 H 700.825 -1.70858 7.60544 0
M  V30 7448 N 705.054 -1.51416 0.437162 0
M  V30 7449 C 706.303 -2.01275 -0.130865 0
M  V30 7450 C 706.616 -1.32593 -1.438 0
M  V30 7451 O 707.822 -1.7342 -2.08897 0
M  V30 7452 C 706.278 -3.5878 -0.283763 0
M  V30 7453 C 705.886 -4.36399 1.01293 0
M  V30 7454 C 707.63 -4.16786 -0.805569 0
M  V30 7455 C 705.537 -5.85608 0.825687 0
M  V30 7456 H 704.467 -0.752157 -0.0526818 0
M  V30 7457 H 707.118 -1.74524 0.566896 0
M  V30 7458 H 705.5 -3.81976 -1.04452 0
M  V30 7459 H 706.674 -4.24948 1.78201 0
M  V30 7460 H 704.989 -3.89843 1.46326 0
M  V30 7461 H 707.586 -5.25972 -0.962146 0
M  V30 7462 H 707.929 -3.75949 -1.78796 0
M  V30 7463 H 708.462 -3.97666 -0.103125 0
M  V30 7464 H 705.201 -6.30857 1.78045 0
M  V30 7465 H 704.721 -5.99723 0.0964029 0
M  V30 7466 H 706.4 -6.45226 0.478815 0
M  V30 7467 N 706.532 -0.168513 -1.56696 0
M  V30 7468 C 707.943 0.348694 -1.83415 0
M  V30 7469 C 708.294 1.63257 -1.0882 0
M  V30 7470 O 707.419 2.13707 -0.340333 0
M  V30 7471 C 708.014 0.639423 -3.32711 0
M  V30 7472 C 706.573 1.10108 -3.59935 0
M  V30 7473 C 705.72 0.135464 -2.76969 0
M  V30 7474 H 708.671 -0.392829 -1.53761 0
M  V30 7475 H 708.692 1.49179 -3.50037 0
M  V30 7476 H 708.204 -0.295173 -3.86976 0
M  V30 7477 H 706.305 2.05088 -3.11079 0
M  V30 7478 H 706.418 1.01218 -4.68286 0
M  V30 7479 H 704.782 0.632286 -2.46727 0
M  V30 7480 H 705.565 -0.793104 -3.34013 0
M  V30 7481 N 708.01 1.57248 0.105221 0
M  V30 7482 C 709.25 1.87393 0.816283 0
M  V30 7483 C 709.614 0.758249 1.76393 0
M  V30 7484 O 710.815 0.941835 2.5176 0
M  V30 7485 C 709.086 3.22775 1.53463 0
M  V30 7486 S 710.645 3.74588 2.28537 0
M  V30 7487 H 707.463 0.656847 0.272164 0
M  V30 7488 H 710.065 1.9536 0.073909 0
M  V30 7489 H 708.769 4.01905 0.830674 0
M  V30 7490 H 708.3 3.17921 2.3171 0
M  V30 7491 H 710.315 3.47193 3.54502 0
M  V30 7492 N 709.488 -0.375779 1.53054 0
M  V30 7493 C 710.716 -1.14036 1.72637 0
M  V30 7494 C 711.131 -1.83342 0.450687 0
M  V30 7495 O 710.488 -1.7318 -0.575749 0
M  V30 7496 C 710.539 -2.17841 2.88492 0
M  V30 7497 O 710.26 -1.51358 4.11123 0
M  V30 7498 C 711.761 -3.06924 3.19863 0
M  V30 7499 H 708.981 -0.341386 0.577665 0
M  V30 7500 H 711.525 -0.437809 1.99759 0
M  V30 7501 H 709.68 -2.8371 2.63794 0
M  V30 7502 H 710.094 -2.20439 4.75928 0
M  V30 7503 H 711.568 -3.75763 4.04359 0
M  V30 7504 H 712.045 -3.71169 2.34798 0
M  V30 7505 H 712.651 -2.46684 3.46449 0
M  V30 7506 N 710.966 -1.44241 -0.634997 0
M  V30 7507 C 712.212 -1.47038 -1.39669 0
M  V30 7508 C 712.545 -0.101122 -1.93937 0
M  V30 7509 O 711.82 0.880699 -1.73418 0
M  V30 7510 C 712.103 -2.52763 -2.56482 0
M  V30 7511 C 711.956 -3.99032 -2.07589 0
M  V30 7512 C 713.275 -2.55031 -3.58674 0
M  V30 7513 H 710.394 -0.53537 -0.506506 0
M  V30 7514 H 713.036 -1.75898 -0.718317 0
M  V30 7515 H 711.186 -2.28284 -3.14354 0
M  V30 7516 H 712.858 -4.3463 -1.54577 0
M  V30 7517 H 711.101 -4.10994 -1.38804 0
M  V30 7518 H 711.772 -4.68649 -2.91671 0
M  V30 7519 H 714.248 -2.76893 -3.10595 0
M  V30 7520 H 713.124 -3.30916 -4.37934 0
M  V30 7521 H 713.385 -1.59085 -4.12486 0
M  V30 7522 N 712.444 0.87505 -1.31075 0
M  V30 7523 C 713.674 1.65818 -1.2324 0
M  V30 7524 C 714.082 1.8808 0.205536 0
M  V30 7525 O 713.425 1.43548 1.14628 0
M  V30 7526 C 713.487 3.05131 -1.90093 0
M  V30 7527 C 713.151 3.05999 -3.39432 0
M  V30 7528 C 714.148 2.84328 -4.35263 0
M  V30 7529 C 711.833 3.27281 -3.81041 0
M  V30 7530 C 713.827 2.83912 -5.70678 0
M  V30 7531 C 711.514 3.26493 -5.16571 0
M  V30 7532 C 712.512 3.04834 -6.112 0
M  V30 7533 O 712.2 3.03882 -7.44252 0
M  V30 7534 H 711.932 0.52387 -0.427242 0
M  V30 7535 H 714.486 1.10086 -1.73408 0
M  V30 7536 H 712.716 3.62568 -1.34468 0
M  V30 7537 H 714.405 3.65641 -1.76242 0
M  V30 7538 H 715.171 2.67673 -4.04445 0
M  V30 7539 H 711.05 3.43171 -3.07822 0
M  V30 7540 H 714.594 2.66925 -6.44513 0
M  V30 7541 H 710.491 3.42687 -5.47025 0
M  V30 7542 H 711.259 3.19979 -7.53363 0
M  V30 7543 N 713.922 1.13953 1.08869 0
M  V30 7544 C 715.199 0.815768 1.77777 0
M  V30 7545 C 715.579 -0.691624 1.99449 0
M  V30 7546 O 714.927 -1.63085 1.60049 0
M  V30 7547 C 715.137 1.60916 3.09689 0
M  V30 7548 C 716.485 1.80549 3.84301 0
M  V30 7549 O 717.509 1.57562 3.19457 0
M  V30 7550 O 716.368 2.18946 5.00724 0
M  V30 7551 H 713.462 0.298445 0.771271 0
M  V30 7552 H 716.008 1.24446 1.15374 0
M  V30 7553 H 714.78 2.6333 2.89435 0
M  V30 7554 H 714.403 1.17578 3.79817 0
M  V30 7555 N 715.4 -1.26948 0.933913 0
M  V30 7556 C 716.816 -1.46419 0.635103 0
M  V30 7557 C 717.016 -1.84336 -0.813785 0
M  V30 7558 O 716.072 -1.96061 -1.59111 0
M  V30 7559 C 717.385 -2.55206 1.5903 0
M  V30 7560 C 718.933 -2.69062 1.5992 0
M  V30 7561 C 719.408 -3.81013 2.54152 0
M  V30 7562 N 720.899 -3.88395 2.52395 0
M  V30 7563 C 721.634 -4.74454 3.21996 0
M  V30 7564 N 721.13 -5.64954 4.00997 0
M  V30 7565 N 722.923 -4.68237 3.10983 0
M  V30 7566 H 715.074 -1.00622 1.87053 0
M  V30 7567 H 717.337 -0.503189 0.803433 0
M  V30 7568 H 717.043 -2.34153 2.62422 0
M  V30 7569 H 716.917 -3.52719 1.33677 0
M  V30 7570 H 719.304 -2.89492 0.572569 0
M  V30 7571 H 719.385 -1.72016 1.89325 0
M  V30 7572 H 719.029 -3.61336 3.5693 0
M  V30 7573 H 718.959 -4.77499 2.22041 0
M  V30 7574 H 721.45 -3.23687 1.95025 0
M  V30 7575 H 721.763 -6.27496 4.51074 0
M  V30 7576 H 720.108 -5.6473 4.05099 0
M  V30 7577 H 723.299 -3.96535 2.48753 0
M  V30 7578 H 723.472 -5.35087 3.65494 0
M  V30 7579 N 716.879 -0.700114 -1.41195 0
M  V30 7580 C 717.809 -0.0521132 -2.33442 0
M  V30 7581 C 718.79 0.76228 -1.52063 0
M  V30 7582 O 719.975 0.714336 -1.80585 0
M  V30 7583 C 717.105 0.881693 -3.35922 0
M  V30 7584 C 716.059 0.174062 -4.27646 0
M  V30 7585 C 715.385 1.22254 -5.20536 0
M  V30 7586 C 716.685 -0.962396 -5.13357 0
M  V30 7587 H 718.379 -0.822574 -2.87879 0
M  V30 7588 H 715.925 -0.397011 -1.38419 0
M  V30 7589 H 717.878 1.34429 -3.99383 0
M  V30 7590 H 716.602 1.68387 -2.79845 0
M  V30 7591 H 715.261 -0.268551 -3.65615 0
M  V30 7592 H 714.909 2.01736 -4.60773 0
M  V30 7593 H 714.609 0.754038 -5.82742 0
M  V30 7594 H 716.133 1.68555 -5.86874 0
M  V30 7595 H 717.547 -0.579875 -5.7036 0
M  V30 7596 H 715.944 -1.35828 -5.84526 0
M  V30 7597 H 717.014 -1.80003 -4.50252 0
M  V30 7598 N 718.357 1.51182 -0.445186 0
M  V30 7599 C 719.304 2.27939 0.362291 0
M  V30 7600 C 720.274 1.31864 1.01 0
M  V30 7601 O 721.459 1.60776 1.02741 0
M  V30 7602 C 718.599 3.13016 1.45311 0
M  V30 7603 C 717.712 4.24093 0.822757 0
M  V30 7604 C 716.847 4.96467 1.88928 0
M  V30 7605 C 715.886 5.99454 1.23778 0
M  V30 7606 N 715.023 6.65206 2.24602 0
M  V30 7607 H 719.863 2.965 -0.29862 0
M  V30 7608 H 717.4 1.46237 -0.15911 0
M  V30 7609 H 719.358 3.60673 2.09692 0
M  V30 7610 H 717.988 2.46553 2.08354 0
M  V30 7611 H 717.04 3.80341 0.0670364 0
M  V30 7612 H 718.352 4.97853 0.307184 0
M  V30 7613 H 717.506 5.47712 2.60953 0
M  V30 7614 H 716.245 4.22355 2.4386 0
M  V30 7615 H 715.25 5.47494 0.503042 0
M  V30 7616 H 716.475 6.75527 0.695694 0
M  V30 7617 H 714.421 5.93901 2.78599 0
M  V30 7618 H 714.338 7.34756 1.77958 0
M  V30 7619 H 715.606 7.21078 2.96085 0
M  V30 7620 N 719.835 0.176821 1.56605 0
M  V30 7621 C 720.745 -0.763682 2.21822 0
M  V30 7622 C 721.761 -1.24889 1.21156 0
M  V30 7623 O 722.937 -1.29987 1.53836 0
M  V30 7624 C 720.002 -1.97352 2.8505 0
M  V30 7625 C 719.063 -1.53466 4.00932 0
M  V30 7626 C 718.296 -2.68682 4.61135 0
M  V30 7627 O 718.519 -3.85694 4.20234 0
M  V30 7628 O 717.453 -2.42442 5.50913 0
M  V30 7629 H 721.279 -0.238363 3.02763 0
M  V30 7630 H 718.864 -0.0516331 1.49311 0
M  V30 7631 H 720.746 -2.68096 3.25119 0
M  V30 7632 H 719.421 -2.48779 2.07101 0
M  V30 7633 H 718.328 -0.796551 3.65521 0
M  V30 7634 H 719.661 -1.06724 4.8049 0
M  V30 7635 N 721.313 -1.57302 -0.09688 0
M  V30 7636 C 722.541 -1.90202 -0.814295 0
M  V30 7637 C 722.956 -0.770344 -1.72369 0
M  V30 7638 O 722.313 0.257764 -1.8067 0
M  V30 7639 C 722.364 -3.22708 -1.62916 0
M  V30 7640 O 722.085 -4.31522 -0.756343 0
M  V30 7641 C 723.586 -3.69459 -2.44979 0
M  V30 7642 H 720.806 -0.629275 -0.232925 0
M  V30 7643 H 723.35 -2.04364 -0.0746482 0
M  V30 7644 H 721.505 -3.1015 -2.32133 0
M  V30 7645 H 721.919 -5.07604 -1.32054 0
M  V30 7646 H 723.393 -4.64875 -2.9765 0
M  V30 7647 H 723.87 -2.97211 -3.23361 0
M  V30 7648 H 724.476 -3.84879 -1.80964 0
M  V30 7649 N 722.791 0.367657 -1.53252 0
M  V30 7650 C 724.019 1.13119 -1.73239 0
M  V30 7651 C 724.434 1.831 -0.460404 0
M  V30 7652 O 723.791 1.73483 0.566557 0
M  V30 7653 C 723.842 2.16308 -2.89643 0
M  V30 7654 O 723.563 1.49175 -4.1192 0
M  V30 7655 C 725.064 3.05224 -3.21486 0
M  V30 7656 H 722.284 0.338318 -0.579467 0
M  V30 7657 H 724.828 0.42721 -1.99988 0
M  V30 7658 H 722.983 2.82307 -2.65295 0
M  V30 7659 H 723.397 2.17912 -4.7709 0
M  V30 7660 H 724.871 3.73613 -4.06346 0
M  V30 7661 H 725.348 3.69919 -2.36763 0
M  V30 7662 H 725.954 2.44843 -3.47753 0
M  V30 7663 N 724.269 1.44576 0.627338 0
M  V30 7664 C 725.232 1.51372 1.72102 0
M  V30 7665 C 726.232 0.395329 1.55865 0
M  V30 7666 O 727.422 0.658094 1.61291 0
M  V30 7667 C 724.554 1.39129 3.11217 0
M  V30 7668 H 725.747 2.48798 1.6745 0
M  V30 7669 H 723.3 1.31724 0.841336 0
M  V30 7670 H 724.035 0.428114 3.21462 0
M  V30 7671 H 723.82 2.20229 3.24409 0
M  V30 7672 H 725.31 1.46874 3.90919 0
M  V30 7673 N 725.747 -0.868086 1.31537 0
M  V30 7674 C 726.995 -1.61807 1.21091 0
M  V30 7675 C 727.316 -1.93631 -0.230623 0
M  V30 7676 O 726.586 -1.5846 -1.15183 0
M  V30 7677 H 725.166 -0.599854 0.445178 0
M  V30 7678 H 727.828 -1.03915 1.64887 0
M  V30 7679 H 726.924 -2.56088 1.78396 0
M  V30 7680 N 727.225 -1.14528 -1.08264 0
M  V30 7681 C 728.455 -0.936604 -1.8415 0
M  V30 7682 C 728.863 0.518298 -1.81962 0
M  V30 7683 O 728.206 1.37096 -1.22272 0
M  V30 7684 C 728.268 -1.36182 -3.32708 0
M  V30 7685 C 727.932 -2.83257 -3.58629 0
M  V30 7686 C 728.929 -3.81366 -3.5335 0
M  V30 7687 C 726.614 -3.20704 -3.86593 0
M  V30 7688 C 728.608 -5.14929 -3.75668 0
M  V30 7689 C 726.295 -4.54443 -4.08564 0
M  V30 7690 C 727.293 -5.51365 -4.03095 0
M  V30 7691 O 726.981 -6.8269 -4.24488 0
M  V30 7692 H 726.713 -0.333254 -0.588148 0
M  V30 7693 H 729.267 -1.5247 -1.3763 0
M  V30 7694 H 727.497 -0.717063 -3.79994 0
M  V30 7695 H 729.186 -1.12372 -3.90035 0
M  V30 7696 H 729.952 -3.53781 -3.31759 0
M  V30 7697 H 725.831 -2.45857 -3.89969 0
M  V30 7698 H 729.375 -5.90568 -3.71315 0
M  V30 7699 H 725.272 -4.81747 -4.29639 0
M  V30 7700 H 726.04 -6.8897 -4.41886 0
M  V30 7701 N 728.703 1.26451 -0.940633 0
M  V30 7702 C 729.952 1.93071 -0.583656 0
M  V30 7703 C 730.265 1.74618 0.881366 0
M  V30 7704 O 731.471 2.35689 1.34769 0
M  V30 7705 C 729.927 3.45927 -0.993106 0
M  V30 7706 C 729.535 3.73115 -2.4797 0
M  V30 7707 C 731.279 4.18554 -0.707998 0
M  V30 7708 C 729.186 5.19408 -2.82788 0
M  V30 7709 H 728.116 0.722824 -0.214572 0
M  V30 7710 H 730.767 1.43538 -1.1432 0
M  V30 7711 H 729.149 3.94341 -0.362099 0
M  V30 7712 H 730.323 3.35408 -3.15971 0
M  V30 7713 H 728.638 3.13719 -2.73805 0
M  V30 7714 H 731.235 5.26293 -0.94447 0
M  V30 7715 H 731.578 4.14782 0.355225 0
M  V30 7716 H 732.111 3.76003 -1.2987 0
M  V30 7717 H 728.85 5.28281 -3.88071 0
M  V30 7718 H 728.37 5.58214 -2.19449 0
M  V30 7719 H 730.049 5.87407 -2.71224 0
M  V30 7720 N 730.181 0.707592 1.40822 0
M  V30 7721 C 731.409 0.253073 2.05346 0
M  V30 7722 C 731.824 -1.10218 1.53289 0
M  V30 7723 O 731.181 -1.69112 0.686105 0
M  V30 7724 C 731.232 0.215411 3.60858 0
M  V30 7725 O 730.953 1.51714 4.10992 0
M  V30 7726 C 732.454 -0.258636 4.42545 0
M  V30 7727 H 729.674 0.115256 0.661027 0
M  V30 7728 H 732.218 0.963555 1.80377 0
M  V30 7729 H 730.373 -0.445978 3.84824 0
M  V30 7730 H 730.787 1.41226 5.05129 0
M  V30 7731 H 732.261 -0.233849 5.51504 0
M  V30 7732 H 732.738 -1.2995 4.19535 0
M  V30 7733 H 733.344 0.372186 4.23668 0
M  V30 7734 N 731.66 -1.50943 0.453197 0
M  V30 7735 C 732.593 -2.24742 -0.395787 0
M  V30 7736 C 733.571 -1.27316 -1.01141 0
M  V30 7737 O 734.755 -1.56494 -1.05081 0
M  V30 7738 C 731.882 -3.00999 -1.55298 0
M  V30 7739 C 730.928 -4.13207 -1.0565 0
M  V30 7740 S 731.761 -5.35498 0.01435 0
M  V30 7741 C 732.917 -6.15298 -1.14714 0
M  V30 7742 H 733.15 -2.96403 0.23071 0
M  V30 7743 H 730.683 -1.52557 0.237874 0
M  V30 7744 H 732.641 -3.45529 -2.2163 0
M  V30 7745 H 731.302 -2.28896 -2.15094 0
M  V30 7746 H 730.495 -4.65901 -1.9223 0
M  V30 7747 H 730.097 -3.7102 -0.471182 0
M  V30 7748 H 732.389 -6.45346 -2.06239 0
M  V30 7749 H 733.332 -7.05019 -0.659842 0
M  V30 7750 H 733.74 -5.47046 -1.39288 0
M  V30 7751 N 733.138 -0.185124 -1.56509 0
M  V30 7752 C 734.088 0.752315 -2.15231 0
M  V30 7753 C 735.072 1.18327 -1.0903 0
M  V30 7754 O 736.264 1.14333 -1.35119 0
M  V30 7755 C 733.393 1.97583 -2.80742 0
M  V30 7756 C 732.479 1.56623 -3.94119 0
M  V30 7757 N 732.87 0.867008 -4.98314 0
M  V30 7758 C 731.168 1.85626 -4.05535 0
M  V30 7759 C 731.869 0.663228 -5.77907 0
M  V30 7760 N 730.845 1.20891 -5.29987 0
M  V30 7761 H 734.647 0.209267 -2.93154 0
M  V30 7762 H 732.161 0.0150444 -1.62393 0
M  V30 7763 H 734.158 2.65779 -3.21197 0
M  V30 7764 H 732.818 2.52369 -2.04303 0
M  V30 7765 H 733.829 0.52355 -5.15247 0
M  V30 7766 H 730.506 2.41992 -3.40215 0
M  V30 7767 H 731.896 0.109273 -6.71811 0
M  V30 7768 N 734.616 1.57351 0.0885366 0
M  V30 7769 C 736.032 1.53331 0.442916 0
M  V30 7770 C 736.232 0.902831 1.80142 0
M  V30 7771 O 735.288 0.498147 2.47537 0
M  V30 7772 C 736.601 2.98036 0.399372 0
M  V30 7773 C 738.149 3.09286 0.480759 0
M  V30 7774 C 738.624 4.5561 0.467296 0
M  V30 7775 N 740.115 4.60182 0.52786 0
M  V30 7776 C 740.85 5.70857 0.539388 0
M  V30 7777 N 740.346 6.90944 0.506729 0
M  V30 7778 N 742.139 5.59051 0.584691 0
M  V30 7779 H 734.29 1.96709 -0.801215 0
M  V30 7780 H 736.553 0.899639 -0.298922 0
M  V30 7781 H 736.259 3.47656 -0.531806 0
M  V30 7782 H 736.133 3.57066 1.21589 0
M  V30 7783 H 738.52 2.5965 1.40236 0
M  V30 7784 H 738.601 2.53197 -0.364023 0
M  V30 7785 H 738.245 5.05899 -0.450384 0
M  V30 7786 H 738.175 5.09544 1.32938 0
M  V30 7787 H 740.666 3.73757 0.558028 0
M  V30 7788 H 740.979 7.71055 0.518989 0
M  V30 7789 H 739.324 6.93384 0.473675 0
M  V30 7790 H 742.515 4.64138 0.607781 0
M  V30 7791 H 742.688 6.45307 0.590206 0
M  V30 7792 N 736.094 -0.359525 1.53444 0
M  V30 7793 C 737.505 -0.936009 1.61542 0
M  V30 7794 C 737.856 -1.90069 0.486633 0
M  V30 7795 O 736.981 -2.12929 -0.386047 0
M  V30 7796 C 737.576 -1.70441 2.92806 0
M  V30 7797 C 736.135 -2.23015 3.03218 0
M  V30 7798 C 735.282 -1.04438 2.56881 0
M  V30 7799 H 738.233 -0.138134 1.58098 0
M  V30 7800 H 738.254 -2.56609 2.80948 0
M  V30 7801 H 737.766 -1.00205 3.74941 0
M  V30 7802 H 735.867 -2.96475 2.25684 0
M  V30 7803 H 735.98 -2.50481 4.08407 0
M  V30 7804 H 734.344 -1.41314 2.11902 0
M  V30 7805 H 735.127 -0.356905 3.4144 0
M  V30 7806 N 737.572 -1.44907 -0.619662 0
M  V30 7807 C 738.988 -1.29046 -0.939107 0
M  V30 7808 C 739.188 -0.23462 -2.00129 0
M  V30 7809 O 738.244 0.37558 -2.49691 0
M  V30 7810 C 739.557 -2.66567 -1.39149 0
M  V30 7811 C 741.105 -2.74368 -1.50635 0
M  V30 7812 C 741.58 -4.12386 -1.99253 0
M  V30 7813 N 743.071 -4.1462 -2.06506 0
M  V30 7814 C 743.806 -5.18272 -2.4532 0
M  V30 7815 N 743.302 -6.32278 -2.83189 0
M  V30 7816 N 745.095 -5.05628 -2.45554 0
M  V30 7817 H 737.246 -2.12239 0.0826135 0
M  V30 7818 H 739.509 -0.947652 -0.0256829 0
M  V30 7819 H 739.215 -3.4496 -0.685254 0
M  V30 7820 H 739.089 -2.94224 -2.36034 0
M  V30 7821 H 741.476 -1.96287 -2.20353 0
M  V30 7822 H 741.557 -2.50439 -0.520963 0
M  V30 7823 H 741.201 -4.90947 -1.30127 0
M  V30 7824 H 741.131 -4.33699 -2.98684 0
M  V30 7825 H 743.622 -3.32343 -1.79878 0
M  V30 7826 H 743.935 -7.07172 -3.11652 0
M  V30 7827 H 742.28 -6.35699 -2.80913 0
M  V30 7828 H 745.471 -4.15613 -2.15367 0
M  V30 7829 H 745.644 -5.86529 -2.75478 0
M  V30 7830 N 739.05 0.861098 -1.31996 0
M  V30 7831 C 740.461 1.43065 -1.19955 0
M  V30 7832 C 740.812 1.95273 0.190489 0
M  V30 7833 O 739.937 1.87012 1.08882 0
M  V30 7834 C 740.532 2.60052 -2.1716 0
M  V30 7835 C 739.091 3.13026 -2.09026 0
M  V30 7836 C 738.238 1.85756 -2.05888 0
M  V30 7837 H 741.189 0.668834 -1.43918 0
M  V30 7838 H 741.21 3.37016 -1.76637 0
M  V30 7839 H 740.722 2.22024 -3.18319 0
M  V30 7840 H 738.823 3.55653 -1.11092 0
M  V30 7841 H 738.936 3.74707 -2.98549 0
M  V30 7842 H 737.3 2.05088 -1.51033 0
M  V30 7843 H 738.083 1.49954 -3.08818 0
M  V30 7844 N 740.528 1.15101 1.07655 0
M  V30 7845 C 741.478 0.813448 2.12995 0
M  V30 7846 C 742.462 -0.200899 1.59641 0
M  V30 7847 O 743.654 -0.00209918 1.77 0
M  V30 7848 C 740.783 0.301078 3.41977 0
M  V30 7849 C 739.869 1.3454 4.02194 0
M  V30 7850 N 740.26 2.55181 4.36711 0
M  V30 7851 C 738.558 1.19742 4.29625 0
M  V30 7852 C 739.259 3.22094 4.84387 0
M  V30 7853 N 738.235 2.49486 4.82968 0
M  V30 7854 H 742.037 1.73105 2.37511 0
M  V30 7855 H 739.551 1.03601 1.25063 0
M  V30 7856 H 741.548 0.040914 4.1688 0
M  V30 7857 H 740.208 -0.610629 3.18907 0
M  V30 7858 H 741.219 2.92349 4.27496 0
M  V30 7859 H 737.896 0.345353 4.16069 0
M  V30 7860 H 739.286 4.24996 5.20411 0
M  V30 7861 N 742.006 -1.2595 0.947325 0
M  V30 7862 C 742.969 -2.24407 0.466285 0
M  V30 7863 C 743.969 -1.55054 -0.426005 0
M  V30 7864 O 745.159 -1.7275 -0.224319 0
M  V30 7865 C 742.291 -3.39326 -0.327201 0
M  V30 7866 H 743.484 -2.68477 1.33642 0
M  V30 7867 H 741.037 -1.38211 0.729887 0
M  V30 7868 H 741.772 -3.00667 -1.21532 0
M  V30 7869 H 741.557 -3.9085 0.312839 0
M  V30 7870 H 743.047 -4.12455 -0.653477 0
M  V30 7871 N 743.484 -0.715051 -1.40445 0
M  V30 7872 C 744.714 -0.263576 -2.04912 0
M  V30 7873 C 745.122 1.09943 -1.53978 0
M  V30 7874 O 744.465 1.70203 -0.691133 0
M  V30 7875 C 744.527 -0.165048 -3.59121 0
M  V30 7876 C 744.191 -1.46325 -4.32941 0
M  V30 7877 C 745.188 -2.40506 -4.60926 0
M  V30 7878 C 742.873 -1.72203 -4.7186 0
M  V30 7879 C 744.867 -3.58812 -5.26814 0
M  V30 7880 C 742.554 -2.9079 -5.3748 0
M  V30 7881 C 743.552 -3.83917 -5.64887 0
M  V30 7882 O 743.24 -5.00424 -6.29151 0
M  V30 7883 H 742.972 -0.116317 -0.665918 0
M  V30 7884 H 745.526 -0.973774 -1.8085 0
M  V30 7885 H 743.756 0.601088 -3.82 0
M  V30 7886 H 745.445 0.251794 -4.05118 0
M  V30 7887 H 746.211 -2.21778 -4.31323 0
M  V30 7888 H 742.09 -1.00571 -4.49896 0
M  V30 7889 H 745.634 -4.31517 -5.48123 0
M  V30 7890 H 741.531 -3.09428 -5.66502 0
M  V30 7891 H 742.299 -5.00494 -6.47648 0
M  V30 7892 N 744.962 1.50701 -0.461195 0
M  V30 7893 C 746.19 2.06681 0.0951756 0
M  V30 7894 C 746.605 1.32615 1.34382 0
M  V30 7895 O 745.962 0.392531 1.78229 0
M  V30 7896 C 746.013 3.59354 0.393316 0
M  V30 7897 O 745.734 4.30626 -0.805797 0
M  V30 7898 C 747.235 4.31926 0.997744 0
M  V30 7899 H 744.455 0.670995 -0.00267259 0
M  V30 7900 H 746.999 1.93991 -0.647137 0
M  V30 7901 H 745.154 3.7188 1.08555 0
M  V30 7902 H 745.568 5.21667 -0.544409 0
M  V30 7903 H 747.042 5.39756 1.15619 0
M  V30 7904 H 747.519 3.91772 1.98523 0
M  V30 7905 H 748.125 4.23905 0.344188 0
M  V30 7906 N 746.441 0.193421 1.56409 0
M  V30 7907 C 747.666 -0.454552 2.02358 0
M  V30 7908 C 748.091 -1.54516 1.07268 0
M  V30 7909 O 747.449 -1.81214 0.0558962 0
M  V30 7910 C 747.497 -0.989469 3.46759 0
M  V30 7911 O 746.601 -2.10244 3.54783 0
M  V30 7912 H 745.942 -0.106417 0.655417 0
M  V30 7913 H 748.472 0.303807 2.02332 0
M  V30 7914 H 748.482 -1.30649 3.86516 0
M  V30 7915 H 747.157 -0.191083 4.15461 0
M  V30 7916 H 745.734 -1.79419 3.26899 0
M  V30 7917 N 747.919 -1.57396 -0.0801906 0
M  V30 7918 C 749.149 -1.90778 -0.792924 0
M  V30 7919 C 749.557 -0.786814 -1.72064 0
M  V30 7920 O 748.9 0.249259 -1.82001 0
M  V30 7921 C 748.962 -3.19552 -1.64702 0
M  V30 7922 C 748.626 -4.48259 -0.889567 0
M  V30 7923 C 749.623 -5.19465 -0.212602 0
M  V30 7924 C 747.308 -4.94896 -0.859229 0
M  V30 7925 C 749.302 -6.35555 0.484566 0
M  V30 7926 C 746.989 -6.10895 -0.158284 0
M  V30 7927 C 747.987 -6.81075 0.512421 0
M  V30 7928 O 747.675 -7.94862 1.20209 0
M  V30 7929 H 747.407 -0.63527 -0.231103 0
M  V30 7930 H 749.961 -2.0532 -0.0573081 0
M  V30 7931 H 748.191 -3.01196 -2.42524 0
M  V30 7932 H 749.88 -3.38649 -2.23767 0
M  V30 7933 H 750.646 -4.84467 -0.227403 0
M  V30 7934 H 746.525 -4.4015 -1.37073 0
M  V30 7935 H 750.069 -6.9027 1.00864 0
M  V30 7936 H 745.966 -6.45345 -0.141381 0
M  V30 7937 H 746.734 -8.10932 1.11051 0
M  V30 7938 N 749.397 0.351382 -1.53633 0
M  V30 7939 C 750.327 1.43688 -1.84055 0
M  V30 7940 C 751.308 1.55251 -0.695073 0
M  V30 7941 O 752.493 1.69587 -0.946257 0
M  V30 7942 C 749.623 2.80843 -2.04315 0
M  V30 7943 C 748.577 2.84094 -3.20117 0
M  V30 7944 C 747.903 4.2406 -3.25696 0
M  V30 7945 C 749.203 2.50334 -4.58399 0
M  V30 7946 H 750.897 1.18478 -2.74961 0
M  V30 7947 H 748.443 0.568509 -1.32303 0
M  V30 7948 H 750.396 3.56821 -2.2418 0
M  V30 7949 H 749.12 3.07471 -1.10132 0
M  V30 7950 H 747.779 2.10568 -3.00094 0
M  V30 7951 H 747.427 4.47785 -2.29123 0
M  V30 7952 H 747.127 4.27147 -4.03509 0
M  V30 7953 H 748.651 5.0189 -3.47762 0
M  V30 7954 H 750.065 3.16025 -4.78332 0
M  V30 7955 H 748.462 2.64717 -5.38558 0
M  V30 7956 H 749.532 1.45542 -4.62543 0
M  V30 7957 N 750.875 1.45233 0.611969 0
M  V30 7958 C 751.785 1.56098 1.7513 0
M  V30 7959 C 752.801 0.445646 1.68196 0
M  V30 7960 O 753.977 0.705718 1.88631 0
M  V30 7961 C 751.042 1.52052 3.11579 0
M  V30 7962 C 750.103 2.74589 3.29999 0
M  V30 7963 C 749.336 2.70726 4.59938 0
M  V30 7964 O 749.559 1.77806 5.41979 0
M  V30 7965 O 748.493 3.61864 4.80976 0
M  V30 7966 H 752.319 2.52392 1.68914 0
M  V30 7967 H 749.904 1.27695 0.775528 0
M  V30 7968 H 751.786 1.52387 3.92882 0
M  V30 7969 H 750.461 0.589085 3.18295 0
M  V30 7970 H 749.368 2.79817 2.48301 0
M  V30 7971 H 750.701 3.66843 3.28157 0
M  V30 7972 N 752.353 -0.854086 1.3245 0
M  V30 7973 C 753.263 -1.99503 1.23434 0
M  V30 7974 C 754.279 -1.73371 0.147828 0
M  V30 7975 O 755.455 -1.97998 0.368609 0
M  V30 7976 C 752.52 -3.33192 0.958328 0
M  V30 7977 C 751.581 -3.72542 2.13333 0
M  V30 7978 C 750.814 -4.99852 1.8704 0
M  V30 7979 O 751.037 -5.64573 0.813239 0
M  V30 7980 O 749.971 -5.36345 2.73161 0
M  V30 7981 H 753.797 -2.10046 2.1935 0
M  V30 7982 H 751.382 -0.984823 1.12346 0
M  V30 7983 H 753.264 -4.13327 0.820918 0
M  V30 7984 H 751.939 -3.23687 0.0293299 0
M  V30 7985 H 750.846 -2.92981 2.32622 0
M  V30 7986 H 752.179 -3.86694 3.04514 0
M  V30 7987 N 753.831 -1.1567 -1.07043 0
M  V30 7988 C 755.056 -0.957946 -1.83952 0
M  V30 7989 C 755.481 0.488807 -1.81638 0
M  V30 7990 O 754.839 1.34869 -1.21162 0
M  V30 7991 C 754.887 -1.48064 -3.288 0
M  V30 7992 O 753.991 -0.681921 -4.06723 0
M  V30 7993 H 753.332 -0.341453 -0.569479 0
M  V30 7994 H 755.862 -1.53728 -1.35015 0
M  V30 7995 H 755.872 -1.49484 -3.7963 0
M  V30 7996 H 754.547 -2.53388 -3.29799 0
M  V30 7997 H 753.124 -0.737612 -3.65532 0
M  V30 7998 N 755.309 1.25446 -0.953992 0
M  V30 7999 C 756.534 1.97755 -0.625129 0
M  V30 8000 C 756.959 1.70437 0.795787 0
M  V30 8001 O 756.317 0.95992 1.53803 0
M  V30 8002 C 756.365 3.49463 -0.889251 0
M  V30 8003 O 755.469 4.12387 0.0322757 0
M  V30 8004 H 754.81 0.61998 -0.237742 0
M  V30 8005 H 757.34 1.59582 -1.28041 0
M  V30 8006 H 757.35 3.99772 -0.815263 0
M  V30 8007 H 756.025 3.68676 -1.92487 0
M  V30 8008 H 754.602 3.72782 -0.0938625 0
M  V30 8009 N 756.787 0.722489 1.40064 0
M  V30 8010 C 758.035 0.264455 2.00362 0
M  V30 8011 C 758.356 -1.14847 1.57592 0
M  V30 8012 O 757.626 -1.77982 0.818477 0
M  V30 8013 H 756.206 0.0947846 0.740962 0
M  V30 8014 H 758.868 0.929659 1.71299 0
M  V30 8015 H 757.964 0.302977 3.10626 0
M  V30 8016 N 758.265 -1.50454 0.469181 0
M  V30 8017 C 759.212 -2.28486 -0.325982 0
M  V30 8018 C 760.182 -1.33455 -0.988893 0
M  V30 8019 O 761.367 -1.6239 -1.0017 0
M  V30 8020 C 758.507 -3.15288 -1.40313 0
M  V30 8021 C 757.62 -4.25348 -0.755183 0
M  V30 8022 C 756.755 -4.9941 -1.81006 0
M  V30 8023 C 755.794 -6.01348 -1.14226 0
M  V30 8024 N 754.931 -6.68695 -2.1399 0
M  V30 8025 H 759.771 -2.95987 0.345753 0
M  V30 8026 H 757.308 -1.45965 0.182355 0
M  V30 8027 H 759.266 -3.63964 -2.03927 0
M  V30 8028 H 757.896 -2.49837 -2.04405 0
M  V30 8029 H 756.948 -3.80399 -0.00651901 0
M  V30 8030 H 758.26 -4.98279 -0.227941 0
M  V30 8031 H 757.414 -5.51794 -2.52206 0
M  V30 8032 H 756.153 -4.26181 -2.3711 0
M  V30 8033 H 755.158 -5.48225 -0.415876 0
M  V30 8034 H 756.383 -6.76548 -0.588135 0
M  V30 8035 H 754.329 -5.98258 -2.69115 0
M  V30 8036 H 754.246 -7.37495 -1.66246 0
M  V30 8037 H 755.514 -7.25697 -2.84576 0
M  V30 8038 N 759.743 -0.201713 -1.56304 0
M  V30 8039 C 760.989 0.435952 -1.98059 0
M  V30 8040 C 761.322 1.60811 -1.08873 0
M  V30 8041 O 760.597 1.9398 -0.142128 0
M  V30 8042 C 760.88 0.889706 -3.48936 0
M  V30 8043 C 760.733 -0.284725 -4.48898 0
M  V30 8044 C 762.052 1.7529 -4.03685 0
M  V30 8045 H 759.171 0.15699 -0.720085 0
M  V30 8046 H 761.813 -0.293965 -1.87712 0
M  V30 8047 H 759.963 1.51166 -3.57884 0
M  V30 8048 H 761.635 -0.922531 -4.51981 0
M  V30 8049 H 759.878 -0.935427 -4.23594 0
M  V30 8050 H 760.549 0.0753865 -5.51949 0
M  V30 8051 H 763.025 1.2283 -3.97558 0
M  V30 8052 H 761.901 2.03933 -5.0961 0
M  V30 8053 H 762.162 2.70939 -3.49348 0
M  V30 8054 N 761.222 1.57436 0.0718424 0
M  V30 8055 C 762.452 1.91196 0.782795 0
M  V30 8056 C 762.86 0.795927 1.71644 0
M  V30 8057 O 762.203 -0.239604 1.82131 0
M  V30 8058 C 762.265 3.20421 1.63005 0
M  V30 8059 C 761.929 4.48724 0.865782 0
M  V30 8060 C 762.926 5.19571 0.185051 0
M  V30 8061 C 760.611 4.95345 0.832971 0
M  V30 8062 C 762.605 6.3529 -0.518264 0
M  V30 8063 C 760.292 6.1097 0.125884 0
M  V30 8064 C 761.29 6.80794 -0.548533 0
M  V30 8065 O 760.978 7.94213 -1.24423 0
M  V30 8066 H 760.71 0.636486 0.227731 0
M  V30 8067 H 763.264 2.05348 0.0464187 0
M  V30 8068 H 761.494 3.02478 2.40923 0
M  V30 8069 H 763.183 3.39831 2.21968 0
M  V30 8070 H 763.949 4.8458 0.201707 0
M  V30 8071 H 759.828 4.40871 1.34737 0
M  V30 8072 H 763.372 6.89725 -1.04523 0
M  V30 8073 H 759.269 6.45411 0.107155 0
M  V30 8074 H 760.037 8.10331 -1.1535 0
M  V30 8075 N 762.7 -0.34323 1.53817 0
M  V30 8076 C 763.663 -1.40444 1.8113 0
M  V30 8077 C 764.663 -1.45604 0.682366 0
M  V30 8078 O 765.853 -1.45974 0.950649 0
M  V30 8079 C 762.985 -2.79369 1.95361 0
M  V30 8080 H 764.178 -1.17489 2.75928 0
M  V30 8081 H 761.731 -0.577636 1.45234 0
M  V30 8082 H 762.466 -3.07607 1.02707 0
M  V30 8083 H 762.251 -2.7702 2.77493 0
M  V30 8084 H 763.741 -3.56178 2.18008 0
M  V30 8085 N 764.178 -1.45556 -0.604258 0
M  V30 8086 C 765.125 -1.54482 -1.71476 0
M  V30 8087 C 766.095 -0.390479 -1.61445 0
M  V30 8088 O 767.28 -0.604371 -1.80975 0
M  V30 8089 C 764.42 -1.52064 -3.09791 0
M  V30 8090 C 763.533 -2.78073 -3.30604 0
M  V30 8091 C 762.668 -2.67304 -4.59044 0
M  V30 8092 C 761.707 -3.88352 -4.73127 0
M  V30 8093 N 760.844 -3.76098 -5.9287 0
M  V30 8094 H 765.684 -2.49349 -1.63184 0
M  V30 8095 H 763.221 -1.23725 -0.795641 0
M  V30 8096 H 765.179 -1.48649 -3.89819 0
M  V30 8097 H 763.809 -0.607442 -3.17033 0
M  V30 8098 H 762.861 -2.91561 -2.44329 0
M  V30 8099 H 764.173 -3.67847 -3.36883 0
M  V30 8100 H 763.327 -2.61875 -5.47272 0
M  V30 8101 H 762.066 -1.75135 -4.55169 0
M  V30 8102 H 761.071 -3.94137 -3.83322 0
M  V30 8103 H 762.296 -4.81591 -4.78797 0
M  V30 8104 H 760.242 -2.867 -5.90033 0
M  V30 8105 H 760.159 -4.59509 -6.00323 0
M  V30 8106 H 761.427 -3.74607 -6.83586 0
M  V30 8107 N 765.656 0.84705 -1.32902 0
M  V30 8108 C 767.067 1.41785 -1.21466 0
M  V30 8109 C 767.418 1.95464 0.169767 0
M  V30 8110 O 766.543 1.88157 1.06892 0
M  V30 8111 C 767.138 2.57734 -2.19906 0
M  V30 8112 C 765.697 3.10791 -2.12334 0
M  V30 8113 C 764.844 1.83562 -2.07847 0
M  V30 8114 H 767.795 0.653532 -1.44619 0
M  V30 8115 H 767.816 3.35123 -1.80202 0
M  V30 8116 H 767.328 2.18635 -3.20656 0
M  V30 8117 H 765.429 3.54455 -1.14858 0
M  V30 8118 H 765.542 3.71519 -3.02506 0
M  V30 8119 H 763.906 2.03475 -1.53199 0
M  V30 8120 H 764.689 1.4667 -3.10392 0
M  V30 8121 N 767.134 1.16236 1.06428 0
M  V30 8122 C 768.545 0.950942 1.60667 0
M  V30 8123 C 768.896 -0.505491 1.89576 0
M  V30 8124 O 768.021 -1.37843 1.66818 0
M  V30 8125 C 768.616 1.71982 2.91904 0
M  V30 8126 C 767.175 1.55342 3.4285 0
M  V30 8127 C 766.322 1.72942 2.16763 0
M  V30 8128 H 769.273 1.31126 0.893959 0
M  V30 8129 H 769.294 1.19483 3.61253 0
M  V30 8130 H 768.806 2.77978 2.70831 0
M  V30 8131 H 766.907 0.5178 3.68985 0
M  V30 8132 H 767.02 2.33643 4.18267 0
M  V30 8133 H 765.384 1.15673 2.26918 0
M  V30 8134 H 766.167 2.80324 1.98175 0
M  V30 8135 N 768.612 -1.24939 0.960631 0
M  V30 8136 C 769.837 -1.9742 0.635608 0
M  V30 8137 C 770.262 -1.70857 -0.786737 0
M  V30 8138 O 769.62 -0.968063 -1.53291 0
M  V30 8139 C 769.668 -3.48987 0.907771 0
M  V30 8140 O 768.772 -4.12399 -0.0104053 0
M  V30 8141 H 768.113 -0.61871 0.241027 0
M  V30 8142 H 770.643 -1.58901 1.28886 0
M  V30 8143 H 770.653 -3.99334 0.836453 0
M  V30 8144 H 769.328 -3.6765 1.94439 0
M  V30 8145 H 767.905 -3.72727 0.113631 0
M  V30 8146 N 770.09 -0.729906 -1.39679 0
M  V30 8147 C 771.338 -0.275077 -2.00219 0
M  V30 8148 C 771.659 1.1401 -1.58199 0
M  V30 8149 O 770.929 1.77546 -0.827904 0
M  V30 8150 H 769.509 -0.0987127 -0.740449 0
M  V30 8151 H 772.171 -0.93873 -1.70804 0
M  V30 8152 H 771.267 -0.319446 -3.10461 0
M  V30 8153 N 771.568 1.50203 -0.477153 0
M  V30 8154 C 772.515 2.28656 0.31386 0
M  V30 8155 C 773.485 1.33977 0.981802 0
M  V30 8156 O 774.67 1.62919 0.993072 0
M  V30 8157 C 771.81 3.16027 1.38639 0
M  V30 8158 C 770.923 4.25743 0.732615 0
M  V30 8159 C 770.058 5.00363 1.78355 0
M  V30 8160 C 769.097 6.01945 1.11035 0
M  V30 8161 N 768.234 6.6982 2.10441 0
M  V30 8162 H 773.074 2.958 -0.361445 0
M  V30 8163 H 770.611 1.45867 -0.190093 0
M  V30 8164 H 772.569 3.6504 2.01994 0
M  V30 8165 H 771.199 2.50917 2.03077 0
M  V30 8166 H 770.251 3.80398 -0.0136546 0
M  V30 8167 H 771.563 4.98393 0.201513 0
M  V30 8168 H 770.717 5.53124 2.49276 0
M  V30 8169 H 769.456 4.27432 2.34847 0
M  V30 8170 H 768.461 5.48438 0.386797 0
M  V30 8171 H 769.686 6.76851 0.552248 0
M  V30 8172 H 767.632 5.99677 2.65939 0
M  V30 8173 H 767.549 7.38366 1.62332 0
M  V30 8174 H 768.817 7.27196 2.80724 0
M  V30 8175 N 773.046 0.209999 1.56195 0
M  V30 8176 C 773.994 -0.721416 2.2113 0
M  V30 8177 C 774.988 -1.20852 1.18706 0
M  V30 8178 O 776.194 -1.16968 1.36815 0
M  V30 8179 H 772.569 -0.251033 0.708863 0
M  V30 8180 H 774.54 -0.150193 2.98022 0
M  V30 8181 C 773.289 -1.92392 2.89621 0
M  V30 8182 H 772.612 -1.5582 3.68185 0
M  V30 8183 H 774.052 -2.55367 3.38473 0
M  V30 8184 C 772.511 -2.77208 1.91461 0
M  V30 8185 O 773.041 -3.75603 1.42426 0
M  V30 8186 N 771.247 -2.43006 1.59363 0
M  V30 8187 H 770.794 -1.63047 1.99433 0
M  V30 8188 H 770.752 -3.00036 0.939449 0
M  V30 8189 N 774.524 -1.57472 -0.0634922 0
M  V30 8190 C 775.773 -1.86837 -0.759928 0
M  V30 8191 C 776.086 -0.803823 -1.7832 0
M  V30 8192 O 777.292 -0.985578 -2.52979 0
M  V30 8193 C 775.748 -3.31448 -1.4025 0
M  V30 8194 C 775.356 -4.46052 -0.417368 0
M  V30 8195 C 777.1 -3.70003 -2.08082 0
M  V30 8196 C 775.007 -5.81707 -1.06633 0
M  V30 8197 H 773.937 -0.697009 -0.287567 0
M  V30 8198 H 776.588 -1.83495 -0.0133914 0
M  V30 8199 H 774.97 -3.29427 -2.19759 0
M  V30 8200 H 776.144 -4.5948 0.348503 0
M  V30 8201 H 774.459 -4.16104 0.156955 0
M  V30 8202 H 777.056 -4.68653 -2.57426 0
M  V30 8203 H 777.399 -3.00226 -2.88393 0
M  V30 8204 H 777.932 -3.7405 -1.35394 0
M  V30 8205 H 774.671 -6.54798 -0.303374 0
M  V30 8206 H 774.191 -5.72064 -1.80286 0
M  V30 8207 H 775.87 -6.27317 -1.58376 0
M  V30 8208 N 776.003 0.335068 -1.53997 0
M  V30 8209 C 777.231 1.09418 -1.756 0
M  V30 8210 C 777.646 1.82083 -0.499138 0
M  V30 8211 O 777.003 1.74646 0.529631 0
M  V30 8212 C 777.054 2.10115 -2.94166 0
M  V30 8213 O 776.775 1.40404 -4.14992 0
M  V30 8214 C 778.276 2.98336 -3.27888 0
M  V30 8215 H 775.496 0.32595 -0.586513 0
M  V30 8216 H 778.04 0.384693 -2.00849 0
M  V30 8217 H 776.195 2.76616 -2.71224 0
M  V30 8218 H 776.609 2.07743 -4.81605 0
M  V30 8219 H 778.083 3.6491 -4.1418 0
M  V30 8220 H 778.56 3.64814 -2.44556 0
M  V30 8221 H 779.166 2.37412 -3.52868 0
M  V30 8222 N 777.481 1.45874 0.596531 0
M  V30 8223 C 778.711 1.5379 1.37958 0
M  V30 8224 C 779.119 0.173086 1.88407 0
M  V30 8225 O 778.462 -0.837498 1.63498 0
M  V30 8226 C 778.524 2.47044 2.61169 0
M  V30 8227 C 778.188 3.93565 2.32283 0
M  V30 8228 C 779.185 4.83162 1.91965 0
M  V30 8229 C 776.87 4.38579 2.44854 0
M  V30 8230 C 778.864 6.15782 1.64593 0
M  V30 8231 C 776.551 5.71238 2.17095 0
M  V30 8232 C 777.549 6.59659 1.77028 0
M  V30 8233 O 777.237 7.89857 1.49601 0
M  V30 8234 H 776.969 0.523 0.428307 0
M  V30 8235 H 779.523 1.91855 0.733529 0
M  V30 8236 H 777.753 2.0397 3.28532 0
M  V30 8237 H 779.442 2.4552 3.23226 0
M  V30 8238 H 780.208 4.49646 1.8178 0
M  V30 8239 H 776.087 3.6999 2.75006 0
M  V30 8240 H 779.631 6.84757 1.33245 0
M  V30 8241 H 775.528 6.04306 2.26901 0
M  V30 8242 H 776.296 8.01991 1.63561 0
M  V30 8243 N 778.959 -0.83999 1.33349 0
M  V30 8244 C 779.869 -1.98182 1.25543 0
M  V30 8245 C 780.885 -1.73204 0.166208 0
M  V30 8246 O 782.061 -1.97596 0.389589 0
M  V30 8247 C 779.126 -3.32157 0.993614 0
M  V30 8248 C 778.187 -3.70258 2.17273 0
M  V30 8249 C 777.42 -4.9784 1.92331 0
M  V30 8250 O 777.643 -5.63679 0.873074 0
M  V30 8251 O 776.577 -5.33418 2.78835 0
M  V30 8252 H 780.403 -2.07708 2.21565 0
M  V30 8253 H 777.988 -0.972852 1.13384 0
M  V30 8254 H 779.87 -4.12433 0.864711 0
M  V30 8255 H 778.545 -3.23637 0.0636596 0
M  V30 8256 H 777.452 -2.90497 2.35716 0
M  V30 8257 H 778.785 -3.83442 3.08598 0
M  V30 8258 N 780.437 -1.16799 -1.0581 0
M  V30 8259 C 781.677 -0.963264 -1.80279 0
M  V30 8260 C 782.041 0.499671 -1.85384 0
M  V30 8261 O 783.242 0.823264 -2.55882 0
M  V30 8262 C 781.513 -1.57938 -3.20609 0
M  V30 8263 S 783.072 -1.51997 -4.11634 0
M  V30 8264 H 779.89 -0.346302 -0.620964 0
M  V30 8265 H 782.492 -1.48632 -1.26999 0
M  V30 8266 H 781.196 -2.63672 -3.14492 0
M  V30 8267 H 780.727 -1.05586 -3.78966 0
M  V30 8268 H 782.742 -0.523625 -4.93429 0
M  V30 8269 N 781.915 1.24427 -0.967243 0
M  V30 8270 C 782.862 2.25398 -0.496419 0
M  V30 8271 C 783.832 1.59667 0.457781 0
M  V30 8272 O 785.017 1.87213 0.368246 0
M  V30 8273 C 782.157 3.44474 0.207693 0
M  V30 8274 C 781.27 4.24804 -0.785221 0
M  V30 8275 C 780.405 5.31169 -0.0572631 0
M  V30 8276 C 779.444 6.03195 -1.04027 0
M  V30 8277 N 778.581 7.01265 -0.34235 0
M  V30 8278 H 783.421 2.65039 -1.36229 0
M  V30 8279 H 780.958 1.30288 -0.682902 0
M  V30 8280 H 782.916 4.12376 0.632612 0
M  V30 8281 H 781.546 3.05672 1.03752 0
M  V30 8282 H 780.598 3.56445 -1.32858 0
M  V30 8283 H 781.91 4.74599 -1.53483 0
M  V30 8284 H 781.064 6.05205 0.425674 0
M  V30 8285 H 779.803 4.8228 0.725047 0
M  V30 8286 H 778.808 5.27964 -1.53409 0
M  V30 8287 H 780.033 6.54173 -1.82302 0
M  V30 8288 H 777.979 6.54648 0.420993 0
M  V30 8289 H 777.896 7.48939 -1.03084 0
M  V30 8290 H 779.164 7.7941 0.118634 0
M  V30 8291 N 783.393 0.737304 1.3929 0
M  V30 8292 C 784.633 0.290966 2.02318 0
M  V30 8293 C 784.997 -1.10174 1.57244 0
M  V30 8294 O 786.198 -1.64628 2.12488 0
M  V30 8295 C 784.469 0.391767 3.55246 0
M  V30 8296 S 786.028 0.0256103 4.38793 0
M  V30 8297 H 782.846 0.113862 0.701824 0
M  V30 8298 H 785.448 0.964329 1.70062 0
M  V30 8299 H 784.152 1.40662 3.85542 0
M  V30 8300 H 783.683 -0.299338 3.9226 0
M  V30 8301 H 785.698 -1.18991 4.81722 0
M  V30 8302 N 784.871 -1.49948 0.485112 0
M  V30 8303 C 786.119 -2.01996 -0.0648775 0
M  V30 8304 C 786.44 -1.36819 -1.38945 0
M  V30 8305 O 785.71 -0.518163 -1.88923 0
M  V30 8306 H 784.29 -0.746513 -0.0269662 0
M  V30 8307 H 786.952 -1.84136 0.638733 0
M  V30 8308 H 786.048 -3.11418 -0.20617 0
M  V30 8309 N 786.349 -0.21828 -1.56081 0
M  V30 8310 C 787.626 0.463143 -1.90038 0
M  V30 8311 C 788.006 1.77982 -1.13515 0
M  V30 8312 O 787.354 2.27199 -0.24345 0
M  V30 8313 C 787.564 0.659292 -3.42716 0
M  V30 8314 C 788.912 0.968203 -4.13414 0
M  V30 8315 O 789.936 0.746195 -3.48296 0
M  V30 8316 O 788.795 1.38936 -5.28544 0
M  V30 8317 H 785.889 0.244435 -0.790051 0
M  V30 8318 H 788.435 -0.260221 -1.67693 0
M  V30 8319 H 787.207 -0.269584 -3.9037 0
M  V30 8320 H 786.83 1.43426 -3.7083 0
M  V30 8321 N 787.827 1.57504 0.0551401 0
M  V30 8322 C 789.057 1.92015 0.762472 0
M  V30 8323 C 789.465 0.814088 1.7079 0
M  V30 8324 O 788.808 -0.220273 1.82375 0
M  V30 8325 C 788.87 3.22132 1.59598 0
M  V30 8326 C 788.534 4.49617 0.818141 0
M  V30 8327 C 789.531 5.19738 0.129933 0
M  V30 8328 C 787.216 4.96201 0.780387 0
M  V30 8329 C 789.21 6.34704 -0.585616 0
M  V30 8330 C 786.897 6.11069 0.0610756 0
M  V30 8331 C 787.895 6.80174 -0.62071 0
M  V30 8332 O 787.583 7.92849 -1.3284 0
M  V30 8333 H 787.315 0.638866 0.220967 0
M  V30 8334 H 789.869 2.05385 0.0246362 0
M  V30 8335 H 788.099 3.05016 2.37701 0
M  V30 8336 H 789.788 3.42166 2.18351 0
M  V30 8337 H 790.554 4.84767 0.150299 0
M  V30 8338 H 786.433 4.42275 1.30054 0
M  V30 8339 H 789.977 6.88578 -1.11833 0
M  V30 8340 H 785.874 6.45488 0.0386945 0
M  V30 8341 H 786.642 8.09062 -1.23938 0
M  V30 8342 N 789.305 -0.326896 1.54172 0
M  V30 8343 C 790.252 -1.40216 1.83325 0
M  V30 8344 C 791.222 -1.51538 0.680107 0
M  V30 8345 O 792.407 -1.66811 0.926206 0
M  V30 8346 C 789.547 -2.76626 2.0633 0
M  V30 8347 C 788.66 -2.73963 3.34019 0
M  V30 8348 C 787.795 -4.02198 3.47002 0
M  V30 8349 C 786.834 -3.93828 4.68578 0
M  V30 8350 N 785.971 -5.13787 4.78506 0
M  V30 8351 H 790.811 -1.14656 2.7506 0
M  V30 8352 H 788.348 -0.555089 1.36225 0
M  V30 8353 H 790.306 -3.55922 2.17659 0
M  V30 8354 H 788.936 -3.00503 1.1789 0
M  V30 8355 H 787.988 -1.86677 3.31445 0
M  V30 8356 H 789.3 -2.6366 4.2342 0
M  V30 8357 H 788.454 -4.89923 3.57855 0
M  V30 8358 H 787.193 -4.15302 2.55687 0
M  V30 8359 H 786.198 -3.04487 4.57786 0
M  V30 8360 H 787.423 -3.82292 5.61275 0
M  V30 8361 H 785.369 -5.27403 3.90105 0
M  V30 8362 H 785.286 -5.05807 5.61868 0
M  V30 8363 H 786.554 -6.03236 4.93686 0
M  V30 8364 N 790.784 -1.46188 -0.588786 0
M  V30 8365 C 792.012 -1.54743 -1.37339 0
M  V30 8366 C 792.427 -0.186446 -1.87877 0
M  V30 8367 O 791.784 0.815247 -1.63279 0
M  V30 8368 C 791.835 -2.54727 -2.56508 0
M  V30 8369 O 791.556 -3.85539 -2.08066 0
M  V30 8370 C 793.057 -2.73163 -3.49137 0
M  V30 8371 H 790.277 -0.523484 -0.419768 0
M  V30 8372 H 792.821 -1.91543 -0.716345 0
M  V30 8373 H 790.976 -2.20948 -3.18215 0
M  V30 8374 H 791.39 -4.39905 -2.85629 0
M  V30 8375 H 792.864 -3.47057 -4.2925 0
M  V30 8376 H 793.341 -1.79856 -4.00685 0
M  V30 8377 H 793.947 -3.08014 -2.9327 0
M  V30 8378 N 792.262 0.832906 -1.33792 0
M  V30 8379 C 793.51 1.58539 -1.25338 0
M  V30 8380 C 793.831 1.94175 0.179204 0
M  V30 8381 O 793.101 1.61458 1.10941 0
M  V30 8382 H 791.681 0.58784 -0.460926 0
M  V30 8383 H 794.343 0.995064 -1.67584 0
M  V30 8384 H 793.439 2.51268 -1.85123 0
M  V30 8385 N 793.74 1.17359 1.05189 0
M  V30 8386 C 794.968 0.986529 1.81866 0
M  V30 8387 C 795.383 -0.46522 1.82979 0
M  V30 8388 O 794.74 -1.32305 1.25705 0
M  V30 8389 C 794.791 1.52021 3.27982 0
M  V30 8390 O 794.512 2.91511 3.27037 0
M  V30 8391 C 796.013 1.37774 4.21347 0
M  V30 8392 H 793.233 0.349021 0.573084 0
M  V30 8393 H 795.777 1.55648 1.32643 0
M  V30 8394 H 793.932 0.992287 3.74476 0
M  V30 8395 H 794.346 3.16178 4.18488 0
M  V30 8396 H 795.82 1.7993 5.21852 0
M  V30 8397 H 796.297 0.32483 4.37997 0
M  V30 8398 H 796.903 1.89583 3.80708 0
M  V30 8399 N 795.218 -1.23913 0.973828 0
M  V30 8400 C 796.464 -1.92436 0.640026 0
M  V30 8401 C 796.797 -1.75875 -0.823512 0
M  V30 8402 O 796.072 -1.11563 -1.59323 0
M  V30 8403 C 796.355 -3.4526 1.0231 0
M  V30 8404 C 796.208 -3.70961 2.54378 0
M  V30 8405 C 797.527 -4.36495 0.562155 0
M  V30 8406 H 794.646 -0.698868 0.233992 0
M  V30 8407 H 797.288 -1.46163 1.21393 0
M  V30 8408 H 795.438 -3.84802 0.534751 0
M  V30 8409 H 797.11 -3.40941 3.10737 0
M  V30 8410 H 795.353 -3.15899 2.97305 0
M  V30 8411 H 796.024 -4.77912 2.76232 0
M  V30 8412 H 798.5 -4.04363 0.981333 0
M  V30 8413 H 797.376 -5.42142 0.858689 0
M  V30 8414 H 797.637 -4.38818 -0.537659 0
M  V30 8415 N 796.696 -0.74468 -1.38897 0
M  V30 8416 C 797.921 -0.306119 -2.05128 0
M  V30 8417 C 798.346 1.0541 -1.55789 0
M  V30 8418 O 797.704 1.66993 -0.705909 0
M  V30 8419 C 797.752 -0.328195 -3.59103 0
M  V30 8420 O 796.856 0.680876 -4.06741 0
M  V30 8421 H 796.197 -0.137209 -0.649669 0
M  V30 8422 H 798.727 -1.01331 -1.77745 0
M  V30 8423 H 798.737 -0.175956 -4.0762 0
M  V30 8424 H 797.412 -1.32067 -3.94374 0
M  V30 8425 H 795.989 0.49398 -3.69614 0
M  V30 8426 N 798.174 1.49689 -0.493057 0
M  V30 8427 C 799.402 2.06836 0.0513141 0
M  V30 8428 C 799.817 1.35436 1.31539 0
M  V30 8429 O 799.174 0.430248 1.77356 0
M  V30 8430 C 799.225 3.60107 0.317003 0
M  V30 8431 O 798.946 4.2882 -0.896957 0
M  V30 8432 C 800.447 4.33945 0.905902 0
M  V30 8433 H 797.667 0.670787 -0.0169048 0
M  V30 8434 H 800.211 1.92574 -0.688139 0
M  V30 8435 H 798.366 3.74099 1.00642 0
M  V30 8436 H 798.78 5.20395 -0.654939 0
M  V30 8437 H 800.254 5.42087 1.04144 0
M  V30 8438 H 800.731 3.95895 1.90168 0
M  V30 8439 H 801.337 4.2454 0.254195 0
M  V30 8440 N 799.652 0.226554 1.55963 0
M  V30 8441 C 801.068 -0.128733 1.5908 0
M  V30 8442 C 801.268 -1.58558 1.24345 0
M  V30 8443 O 800.324 -2.32661 0.981069 0
M  V30 8444 C 801.637 0.202076 3.0002 0
M  V30 8445 C 803.185 0.144718 3.12665 0
M  V30 8446 C 803.66 0.449272 4.55791 0
M  V30 8447 N 805.151 0.399026 4.61478 0
M  V30 8448 C 805.886 0.608106 5.70166 0
M  V30 8449 N 805.382 0.879227 6.87198 0
M  V30 8450 N 807.175 0.5402 5.59498 0
M  V30 8451 H 799.326 1.17686 1.76816 0
M  V30 8452 H 801.589 0.472072 0.822102 0
M  V30 8453 H 801.295 1.21341 3.30105 0
M  V30 8454 H 801.169 -0.480554 3.74126 0
M  V30 8455 H 803.556 -0.857261 2.82374 0
M  V30 8456 H 803.637 0.860899 2.40878 0
M  V30 8457 H 803.281 1.44871 4.86801 0
M  V30 8458 H 803.211 -0.288157 5.25811 0
M  V30 8459 H 805.702 0.197372 3.77384 0
M  V30 8460 H 806.015 1.02673 7.65949 0
M  V30 8461 H 804.36 0.916477 6.88931 0
M  V30 8462 H 807.551 0.328581 4.66945 0
M  V30 8463 H 807.724 0.706548 6.44137 0
M  V30 8464 N 801.13 -1.57531 -0.0467866 0
M  V30 8465 C 802.358 -1.92696 -0.753371 0
M  V30 8466 C 802.773 -0.824792 -1.69831 0
M  V30 8467 O 802.13 0.200155 -1.81399 0
M  V30 8468 C 802.181 -3.27728 -1.52566 0
M  V30 8469 O 801.902 -4.3371 -0.618674 0
M  V30 8470 C 803.403 -3.77066 -2.33101 0
M  V30 8471 H 800.623 -0.636367 -0.212788 0
M  V30 8472 H 803.167 -2.04498 -0.00959361 0
M  V30 8473 H 801.322 -3.17378 -2.22148 0
M  V30 8474 H 801.736 -5.11548 -1.15839 0
M  V30 8475 H 803.21 -4.74109 -2.82709 0
M  V30 8476 H 803.687 -3.07348 -3.13741 0
M  V30 8477 H 804.293 -3.90442 -1.68628 0
M  V30 8478 N 802.608 0.318715 -1.54344 0
M  V30 8479 C 803.518 1.41535 -1.87097 0
M  V30 8480 C 804.534 1.56361 -0.763353 0
M  V30 8481 O 805.71 1.71365 -1.05811 0
M  V30 8482 C 802.775 2.76178 -2.09587 0
M  V30 8483 C 801.836 2.70486 -3.3337 0
M  V30 8484 C 801.069 3.98708 -3.54778 0
M  V30 8485 O 801.292 4.9721 -2.79532 0
M  V30 8486 O 800.226 4.01674 -4.48266 0
M  V30 8487 H 804.052 1.16764 -2.80357 0
M  V30 8488 H 801.637 0.51318 -1.4031 0
M  V30 8489 H 803.519 3.55873 -2.25682 0
M  V30 8490 H 802.194 3.00829 -1.19514 0
M  V30 8491 H 801.101 1.89325 -3.22656 0
M  V30 8492 H 802.434 2.50789 -4.23516 0
M  V30 8493 N 804.086 1.46499 0.581025 0
M  V30 8494 C 805.335 1.51162 1.3354 0
M  V30 8495 C 805.648 0.168433 1.94873 0
M  V30 8496 O 806.854 0.092883 2.71341 0
M  V30 8497 C 805.31 2.66362 2.42032 0
M  V30 8498 C 804.918 4.07109 1.86994 0
M  V30 8499 C 806.662 2.80297 3.188 0
M  V30 8500 C 804.569 5.13645 2.93125 0
M  V30 8501 H 803.499 0.562576 0.502021 0
M  V30 8502 H 806.15 1.72713 0.619863 0
M  V30 8503 H 804.532 2.38143 3.16392 0
M  V30 8504 H 805.706 4.45125 1.19166 0
M  V30 8505 H 804.021 3.97854 1.22887 0
M  V30 8506 H 806.618 3.5706 3.9801 0
M  V30 8507 H 806.961 1.87875 3.71495 0
M  V30 8508 H 807.494 3.0817 2.51547 0
M  V30 8509 H 804.233 6.07866 2.45315 0
M  V30 8510 H 803.753 4.80172 3.59437 0
M  V30 8511 H 805.432 5.39562 3.57046 0
M  V30 8512 N 805.565 -0.825799 1.34232 0
M  V30 8513 C 806.793 -1.61363 1.29497 0
M  V30 8514 C 807.208 -1.88341 -0.131536 0
M  V30 8515 O 806.565 -1.47279 -1.07773 0
M  V30 8516 C 806.616 -2.95623 2.08061 0
M  V30 8517 O 806.337 -2.69824 3.45147 0
M  V30 8518 C 807.838 -3.90032 2.10688 0
M  V30 8519 H 805.058 -0.501676 0.445603 0
M  V30 8520 H 807.602 -1.02767 1.76803 0
M  V30 8521 H 805.757 -3.50785 1.64404 0
M  V30 8522 H 806.171 -3.55412 3.85723 0
M  V30 8523 H 807.645 -4.81411 2.70087 0
M  V30 8524 H 808.122 -4.25188 1.10052 0
M  V30 8525 H 808.728 -3.40807 2.54422 0
M  V30 8526 N 807.043 -1.17915 -1.04565 0
M  V30 8527 C 808.291 -0.969505 -1.77327 0
M  V30 8528 C 808.612 0.502569 -1.88412 0
M  V30 8529 O 807.882 1.36467 -1.40547 0
M  V30 8530 H 806.462 -0.355723 -0.656864 0
M  V30 8531 H 809.124 -1.48506 -1.26223 0
M  V30 8532 H 808.22 -1.40324 -2.78775 0
M  V30 8533 N 808.521 1.23394 -0.980386 0
M  V30 8534 C 809.761 1.93543 -0.657288 0
M  V30 8535 C 810.125 1.74791 0.794477 0
M  V30 8536 O 811.326 2.39089 1.2284 0
M  V30 8537 C 809.597 3.42025 -1.03701 0
M  V30 8538 S 811.156 4.30871 -0.830379 0
M  V30 8539 H 807.974 0.669012 -0.240717 0
M  V30 8540 H 810.576 1.49478 -1.26002 0
M  V30 8541 H 809.28 3.53183 -2.09022 0
M  V30 8542 H 808.811 3.91091 -0.425559 0
M  V30 8543 H 810.826 4.95377 0.285719 0
M  V30 8544 N 809.999 0.752036 1.385 0
M  V30 8545 C 811.227 0.318274 2.04437 0
M  V30 8546 C 811.642 -1.05285 1.56718 0
M  V30 8547 O 810.999 -1.66844 0.73956 0
M  V30 8548 C 811.05 0.330106 3.5999 0
M  V30 8549 O 810.771 1.64712 4.05957 0
M  V30 8550 C 812.272 -0.117713 4.43144 0
M  V30 8551 H 809.492 0.136228 0.657026 0
M  V30 8552 H 812.036 1.02045 1.7722 0
M  V30 8553 H 810.191 -0.323323 3.86048 0
M  V30 8554 H 810.605 1.57225 5.0038 0
M  V30 8555 H 812.079 -0.0582735 5.51969 0
M  V30 8556 H 812.556 -1.16538 4.23457 0
M  V30 8557 H 813.162 0.506784 4.2227 0
M  V30 8558 N 811.477 -1.49425 0.500989 0
M  V30 8559 C 812.44 -2.27646 -0.266416 0
M  V30 8560 C 813.44 -1.3366 -0.893961 0
M  V30 8561 O 814.63 -1.5682 -0.758495 0
M  V30 8562 C 811.762 -3.11618 -1.38227 0
M  V30 8563 H 812.955 -2.96945 0.419973 0
M  V30 8564 H 810.508 -1.5419 0.255954 0
M  V30 8565 H 811.243 -2.46885 -2.10281 0
M  V30 8566 H 811.028 -3.80721 -0.937746 0
M  V30 8567 H 812.518 -3.70698 -1.92283 0
M  V30 8568 N 812.955 -0.234822 -1.55841 0
M  V30 8569 C 814.204 0.393685 -1.97821 0
M  V30 8570 C 814.517 1.59947 -1.1259 0
M  V30 8571 O 815.723 2.29835 -1.44528 0
M  V30 8572 C 814.179 0.751811 -3.5196 0
M  V30 8573 C 813.787 -0.431898 -4.45913 0
M  V30 8574 C 815.531 1.34518 -4.02623 0
M  V30 8575 C 813.438 -0.0505976 -5.91378 0
M  V30 8576 H 812.368 0.150864 -0.738753 0
M  V30 8577 H 815.019 -0.333132 -1.80451 0
M  V30 8578 H 813.401 1.53642 -3.6498 0
M  V30 8579 H 814.575 -1.20935 -4.44647 0
M  V30 8580 H 812.89 -0.939385 -4.05666 0
M  V30 8581 H 815.487 1.64359 -5.08813 0
M  V30 8582 H 815.83 2.26554 -3.49255 0
M  V30 8583 H 816.363 0.623729 -3.9288 0
M  V30 8584 H 813.102 -0.937779 -6.48757 0
M  V30 8585 H 812.622 0.690898 -5.95808 0
M  V30 8586 H 814.301 0.37146 -6.45933 0
M  V30 8587 N 814.433 1.57553 0.0384317 0
M  V30 8588 C 815.38 2.05942 1.04194 0
M  V30 8589 C 816.35 0.946637 1.36484 0
M  V30 8590 O 817.535 1.21658 1.46983 0
M  V30 8591 C 814.675 2.53588 2.34066 0
M  V30 8592 C 813.788 3.7862 2.08017 0
M  V30 8593 C 812.923 4.14915 3.31692 0
M  V30 8594 C 811.962 5.32891 3.01155 0
M  V30 8595 N 811.099 5.64662 4.17254 0
M  V30 8596 H 815.939 2.91429 0.622341 0
M  V30 8597 H 813.476 1.44098 0.295684 0
M  V30 8598 H 815.434 2.79276 3.09937 0
M  V30 8599 H 814.064 1.71031 2.73767 0
M  V30 8600 H 813.116 3.60073 1.22686 0
M  V30 8601 H 814.428 4.64613 1.81484 0
M  V30 8602 H 813.582 4.41681 4.15936 0
M  V30 8603 H 812.321 3.27555 3.6133 0
M  V30 8604 H 811.326 5.05887 2.15311 0
M  V30 8605 H 812.551 6.21896 2.72804 0
M  V30 8606 H 810.497 4.80261 4.46861 0
M  V30 8607 H 810.414 6.45145 3.94112 0
M  V30 8608 H 811.682 5.96 5.02399 0
M  V30 8609 N 815.911 -0.310526 1.54511 0
M  V30 8610 C 816.843 -1.40405 1.8116 0
M  V30 8611 C 817.856 -1.47261 0.694114 0
M  V30 8612 O 819.045 -1.49751 0.971441 0
M  V30 8613 C 816.145 -2.78849 1.92604 0
M  V30 8614 C 815.318 -2.95041 3.22908 0
M  V30 8615 C 814.377 -4.13925 3.24889 0
M  V30 8616 O 813.403 -4.06463 3.98467 0
M  V30 8617 N 814.605 -5.24099 2.496 0
M  V30 8618 H 817.37 -1.17903 2.75534 0
M  V30 8619 H 814.931 -0.500564 1.53967 0
M  V30 8620 H 816.923 -3.5661 1.91342 0
M  V30 8621 H 815.493 -2.94342 1.05268 0
M  V30 8622 H 814.713 -2.04472 3.37023 0
M  V30 8623 H 816.001 -3.02763 4.08916 0
M  V30 8624 H 815.399 -5.33039 1.89435 0
M  V30 8625 H 813.956 -6.0023 2.54102 0
M  V30 8626 N 817.389 -1.46805 -0.573248 0
M  V30 8627 C 818.629 -1.5417 -1.34205 0
M  V30 8628 C 818.993 -0.192675 -1.91031 0
M  V30 8629 O 820.194 -0.141111 -2.68429 0
M  V30 8630 C 818.465 -2.61682 -2.43428 0
M  V30 8631 S 820.024 -2.88519 -3.30609 0
M  V30 8632 H 816.842 -0.544592 -0.4571 0
M  V30 8633 H 819.444 -1.84094 -0.658001 0
M  V30 8634 H 818.148 -3.58319 -2.00088 0
M  V30 8635 H 817.679 -2.33521 -3.16594 0
M  V30 8636 H 819.694 -2.2451 -4.42504 0
M  V30 8637 N 818.867 0.818669 -1.34668 0
M  V30 8638 C 820.113 1.57746 -1.27453 0
M  V30 8639 C 820.446 1.93588 0.154077 0
M  V30 8640 O 819.721 1.60371 1.10051 0
M  V30 8641 C 820.004 2.87414 -2.16945 0
M  V30 8642 C 819.857 2.58125 -3.68363 0
M  V30 8643 C 821.176 3.89021 -2.05792 0
M  V30 8644 H 818.295 0.572339 -0.464324 0
M  V30 8645 H 820.937 0.942784 -1.64959 0
M  V30 8646 H 819.087 3.41576 -1.85089 0
M  V30 8647 H 820.759 2.10239 -4.10606 0
M  V30 8648 H 819.002 1.91503 -3.89242 0
M  V30 8649 H 819.673 3.5061 -4.26353 0
M  V30 8650 H 822.149 3.44224 -2.33771 0
M  V30 8651 H 821.025 4.77548 -2.70628 0
M  V30 8652 H 821.286 4.29786 -1.03618 0
M  V30 8653 N 820.346 1.18468 1.03938 0
M  V30 8654 C 821.309 0.914944 2.10146 0
M  V30 8655 C 822.309 -0.10022 1.60487 0
M  V30 8656 O 823.499 0.133365 1.73689 0
M  V30 8657 C 820.631 0.372993 3.38853 0
M  V30 8658 H 821.824 1.85677 2.35508 0
M  V30 8659 H 819.377 0.996876 1.20383 0
M  V30 8660 H 820.112 -0.57538 3.19155 0
M  V30 8661 H 819.897 1.1048 3.76213 0
M  V30 8662 H 821.387 0.203014 4.17106 0
M  V30 8663 N 821.824 -1.22873 0.986916 0
M  V30 8664 C 823.054 -1.95204 0.67668 0
M  V30 8665 C 823.462 -1.73193 -0.761641 0
M  V30 8666 O 822.805 -1.0243 -1.52492 0
M  V30 8667 C 822.867 -3.48173 0.895302 0
M  V30 8668 C 822.531 -3.93912 2.31695 0
M  V30 8669 C 823.528 -4.02064 3.29607 0
M  V30 8670 C 821.213 -4.26722 2.64978 0
M  V30 8671 C 823.207 -4.42391 4.58878 0
M  V30 8672 C 820.894 -4.66729 3.94471 0
M  V30 8673 C 821.892 -4.74531 4.91232 0
M  V30 8674 O 821.58 -5.13636 6.18412 0
M  V30 8675 H 821.312 -0.628105 0.24992 0
M  V30 8676 H 823.866 -1.5714 1.32274 0
M  V30 8677 H 822.096 -3.86223 0.192072 0
M  V30 8678 H 823.785 -4.01717 0.581233 0
M  V30 8679 H 824.551 -3.76912 3.05225 0
M  V30 8680 H 820.43 -4.19858 1.9037 0
M  V30 8681 H 823.974 -4.48395 5.34404 0
M  V30 8682 H 819.871 -4.91332 4.18645 0
M  V30 8683 H 820.639 -5.31728 6.2226 0
M  V30 8684 N 823.302 -0.75937 -1.38099 0
M  V30 8685 C 824.249 -0.135508 -2.30402 0
M  V30 8686 C 825.219 0.703356 -1.50473 0
M  V30 8687 O 826.404 0.658287 -1.79084 0
M  V30 8688 C 823.544 0.747228 -3.36913 0
M  V30 8689 C 822.657 -0.106893 -4.31868 0
M  V30 8690 C 821.792 0.779388 -5.25451 0
M  V30 8691 C 820.831 -0.0780179 -6.1205 0
M  V30 8692 N 819.968 0.765545 -6.97914 0
M  V30 8693 H 824.808 -0.9282 -2.83176 0
M  V30 8694 H 822.345 -0.46935 -1.39411 0
M  V30 8695 H 824.303 1.27371 -3.97281 0
M  V30 8696 H 822.933 1.50565 -2.85535 0
M  V30 8697 H 821.985 -0.751063 -3.72912 0
M  V30 8698 H 823.297 -0.768798 -4.9284 0
M  V30 8699 H 822.451 1.37282 -5.90964 0
M  V30 8700 H 821.19 1.47501 -4.6486 0
M  V30 8701 H 820.195 -0.684078 -5.45528 0
M  V30 8702 H 821.42 -0.770786 -6.74712 0
M  V30 8703 H 819.366 1.44601 -6.39864 0
M  V30 8704 H 819.283 0.160666 -7.55829 0
M  V30 8705 H 820.551 1.34377 -7.6783 0
M  V30 8706 N 824.78 1.49157 -0.508906 0
M  V30 8707 C 826.005 2.07376 0.0315182 0
M  V30 8708 C 826.43 1.36575 1.2934 0
M  V30 8709 O 825.788 0.424963 1.76249 0
M  V30 8710 C 825.836 3.59661 0.260118 0
M  V30 8711 O 824.94 3.90255 1.33322 0
M  V30 8712 H 824.281 0.663334 -0.029739 0
M  V30 8713 H 826.811 1.91857 -0.710791 0
M  V30 8714 H 826.821 4.05056 0.489225 0
M  V30 8715 H 825.496 4.10601 -0.661794 0
M  V30 8716 H 824.073 3.56661 1.08844 0
M  V30 8717 N 826.258 0.243083 1.55714 0
M  V30 8718 C 827.535 -0.432851 1.90751 0
M  V30 8719 C 827.915 -1.76153 1.16333 0
M  V30 8720 O 827.263 -2.26783 0.279565 0
M  V30 8721 C 827.473 -0.604685 3.43722 0
M  V30 8722 C 828.821 -0.90231 4.14902 0
M  V30 8723 O 829.845 -0.690689 3.49439 0
M  V30 8724 O 828.704 -1.3051 5.30688 0
M  V30 8725 H 825.798 -0.231835 0.79384 0
M  V30 8726 H 828.344 0.286867 1.67258 0
M  V30 8727 H 827.116 0.331655 3.89892 0
M  V30 8728 H 826.739 -1.37509 3.73065 0
M  V30 8729 N 827.736 -1.57571 -0.0300757 0
M  V30 8730 C 828.668 -2.0329 -1.05857 0
M  V30 8731 C 829.681 -0.945543 -1.32527 0
M  V30 8732 O 830.87 -1.22287 -1.30032 0
M  V30 8733 C 827.97 -2.39234 -2.40042 0
M  V30 8734 C 827.143 -3.70337 -2.32743 0
M  V30 8735 C 826.202 -3.93482 -3.49369 0
M  V30 8736 O 825.228 -4.64551 -3.28909 0
M  V30 8737 N 826.43 -3.39042 -4.71201 0
M  V30 8738 H 829.195 -2.9214 -0.668897 0
M  V30 8739 H 826.756 -1.60425 -0.218038 0
M  V30 8740 H 828.748 -2.51856 -3.16782 0
M  V30 8741 H 827.318 -1.5606 -2.70858 0
M  V30 8742 H 826.538 -3.68079 -1.41109 0
M  V30 8743 H 827.826 -4.56343 -2.25007 0
M  V30 8744 H 827.224 -2.81434 -4.90725 0
M  V30 8745 H 825.781 -3.57045 -5.45309 0
M  V30 8746 N 829.214 0.302327 -1.54673 0
M  V30 8747 C 830.442 1.05669 -1.77881 0
M  V30 8748 C 830.857 1.80983 -0.537648 0
M  V30 8749 O 830.214 1.7573 0.492467 0
M  V30 8750 C 830.265 2.03828 -2.98557 0
M  V30 8751 O 829.986 1.3157 -4.17877 0
M  V30 8752 C 831.487 2.91314 -3.34143 0
M  V30 8753 H 828.707 0.313436 -0.593295 0
M  V30 8754 H 831.251 0.342003 -2.0162 0
M  V30 8755 H 829.406 2.70801 -2.7703 0
M  V30 8756 H 829.82 1.97481 -4.85903 0
M  V30 8757 H 831.294 3.56042 -4.21827 0
M  V30 8758 H 831.771 3.59544 -2.52239 0
M  V30 8759 H 832.377 2.29874 -3.57824 0
M  V30 8760 N 830.692 1.47107 0.565454 0
M  V30 8761 C 831.639 1.58974 1.6732 0
M  V30 8762 C 832.609 0.433146 1.60353 0
M  V30 8763 O 833.794 0.652141 1.79309 0
M  V30 8764 C 830.934 1.60224 3.05651 0
M  V30 8765 C 830.047 2.86741 3.23116 0
M  V30 8766 C 829.182 2.79381 4.51796 0
M  V30 8767 C 828.221 4.0076 4.62664 0
M  V30 8768 N 827.358 3.91685 5.8269 0
M  V30 8769 H 832.198 2.53588 1.56515 0
M  V30 8770 H 829.735 1.25791 0.762558 0
M  V30 8771 H 831.693 1.58933 3.85741 0
M  V30 8772 H 830.323 0.691285 3.15311 0
M  V30 8773 H 829.375 2.97936 2.36513 0
M  V30 8774 H 830.687 3.7665 3.27011 0
M  V30 8775 H 829.841 2.76293 5.40136 0
M  V30 8776 H 828.58 1.87142 4.50366 0
M  V30 8777 H 827.585 4.04162 3.72738 0
M  V30 8778 H 828.81 4.94117 4.6586 0
M  V30 8779 H 826.756 3.02243 5.82224 0
M  V30 8780 H 826.673 4.75264 5.87929 0
M  V30 8781 H 827.941 3.92599 6.73414 0
M  V30 8782 N 832.17 -0.811516 1.35101 0
M  V30 8783 C 833.416 -1.57016 1.29296 0
M  V30 8784 C 833.771 -1.91941 -0.13288 0
M  V30 8785 O 833.064 -1.58121 -1.08204 0
M  V30 8786 C 833.258 -2.87121 2.1283 0
M  V30 8787 C 833.087 -2.64908 3.63392 0
M  V30 8788 C 831.857 -2.61055 4.32641 0
M  V30 8789 C 834.055 -2.35628 4.57148 0
M  V30 8790 N 832.037 -2.30508 5.68981 0
M  V30 8791 C 833.408 -2.14876 5.81574 0
M  V30 8792 C 835.463 -2.2145 4.45942 0
M  V30 8793 C 834.166 -1.81381 6.96055 0
M  V30 8794 C 836.192 -1.89352 5.60267 0
M  V30 8795 C 835.554 -1.69432 6.83719 0
M  V30 8796 H 831.653 -0.57649 0.528378 0
M  V30 8797 H 834.237 -0.950338 1.69931 0
M  V30 8798 H 832.408 -3.47007 1.74473 0
M  V30 8799 H 834.14 -3.52629 1.98582 0
M  V30 8800 H 830.895 -2.75531 3.85201 0
M  V30 8801 H 831.319 -2.18042 6.40927 0
M  V30 8802 H 835.961 -2.35551 3.51106 0
M  V30 8803 H 833.679 -1.66018 7.90863 0
M  V30 8804 H 837.265 -1.79098 5.53548 0
M  V30 8805 H 836.145 -1.44957 7.70686 0
M  V30 8806 N 833.648 -1.19017 -1.03309 0
M  V30 8807 C 834.894 -0.991681 -1.769 0
M  V30 8808 C 835.227 0.476813 -1.88255 0
M  V30 8809 O 834.502 1.35407 -1.39625 0
M  V30 8810 C 834.785 -1.65627 -3.19749 0
M  V30 8811 C 834.638 -3.19813 -3.1629 0
M  V30 8812 C 835.957 -1.37579 -4.18043 0
M  V30 8813 H 833.076 -0.361674 -0.642153 0
M  V30 8814 H 835.718 -1.46795 -1.20628 0
M  V30 8815 H 833.868 -1.25132 -3.67796 0
M  V30 8816 H 835.54 -3.69494 -2.76174 0
M  V30 8817 H 833.783 -3.51578 -2.54117 0
M  V30 8818 H 834.454 -3.61457 -4.17196 0
M  V30 8819 H 836.93 -1.72679 -3.78578 0
M  V30 8820 H 835.806 -1.86636 -5.16196 0
M  V30 8821 H 836.067 -0.300118 -4.4108 0
M  V30 8822 N 835.127 1.22348 -0.993418 0
M  V30 8823 C 836.374 1.9111 -0.669568 0
M  V30 8824 C 836.702 1.77357 0.79843 0
M  V30 8825 O 835.957 1.13675 1.593 0
M  V30 8826 C 836.256 3.42477 -1.02197 0
M  V30 8827 C 835.922 3.7642 -2.48232 0
M  V30 8828 C 834.584 3.85395 -2.88139 0
M  V30 8829 C 836.936 3.9253 -3.42884 0
M  V30 8830 C 834.264 4.07918 -4.21687 0
M  V30 8831 C 836.616 4.16557 -4.76091 0
M  V30 8832 C 835.28 4.23757 -5.15739 0
M  V30 8833 H 834.55 0.699321 -0.245012 0
M  V30 8834 H 837.197 1.45102 -1.2497 0
M  V30 8835 H 835.502 3.90143 -0.359921 0
M  V30 8836 H 837.199 3.93935 -0.74942 0
M  V30 8837 H 833.789 3.70017 -2.16299 0
M  V30 8838 H 837.973 3.84974 -3.13224 0
M  V30 8839 H 833.229 4.11719 -4.51993 0
M  V30 8840 H 837.403 4.27966 -5.4938 0
M  V30 8841 H 835.03 4.40962 -6.19239 0
M  V30 8842 N 836.605 0.766683 1.37694 0
M  V30 8843 C 837.553 0.137269 2.32195 0
M  V30 8844 C 838.547 -0.69067 1.54681 0
M  V30 8845 O 839.753 -0.588299 1.70115 0
M  V30 8846 H 836.128 0.0256003 0.751564 0
M  V30 8847 H 838.099 0.950129 2.82869 0
M  V30 8848 C 836.848 -0.731446 3.39919 0
M  V30 8849 H 836.171 -0.103738 3.99665 0
M  V30 8850 H 837.611 -1.13891 4.08417 0
M  V30 8851 C 836.07 -1.87984 2.79578 0
M  V30 8852 O 836.6 -2.97496 2.69924 0
M  V30 8853 N 834.806 -1.6789 2.37195 0
M  V30 8854 H 834.353 -0.788162 2.45246 0
M  V30 8855 H 834.311 -2.44894 1.97165 0
M  V30 8856 N 838.083 -1.48885 0.516809 0
M  V30 8857 C 839.308 -2.0739 -0.0205201 0
M  V30 8858 C 839.733 -1.37259 -1.28614 0
M  V30 8859 O 839.091 -0.434304 -1.76021 0
M  V30 8860 C 839.139 -3.59793 -0.24104 0
M  V30 8861 O 838.243 -3.90957 -1.31251 0
M  V30 8862 H 837.584 -0.663167 0.0332564 0
M  V30 8863 H 840.114 -1.91477 0.720956 0
M  V30 8864 H 840.124 -4.0531 -0.467737 0
M  V30 8865 H 838.799 -4.10244 0.68356 0
M  V30 8866 H 837.376 -3.57234 -1.06951 0
M  V30 8867 N 839.561 -0.251338 -1.55583 0
M  V30 8868 C 840.972 0.25098 -1.85005 0
M  V30 8869 C 841.323 1.57259 -1.17321 0
M  V30 8870 O 840.448 2.11603 -0.453136 0
M  V30 8871 C 841.043 0.462161 -3.35633 0
M  V30 8872 C 839.602 0.908737 -3.65266 0
M  V30 8873 C 838.749 -0.0115418 -2.77298 0
M  V30 8874 H 841.7 -0.473782 -1.51463 0
M  V30 8875 H 841.721 1.30415 -3.57452 0
M  V30 8876 H 841.233 -0.499886 -3.84867 0
M  V30 8877 H 839.334 1.8831 -3.21512 0
M  V30 8878 H 839.447 0.762526 -4.72993 0
M  V30 8879 H 837.811 0.500612 -2.49732 0
M  V30 8880 H 838.594 -0.969042 -3.29339 0
M  V30 8881 N 841.039 1.57585 0.0217189 0
M  V30 8882 C 842.316 1.80779 0.74687 0
M  V30 8883 C 842.696 0.851163 1.9318 0
M  V30 8884 O 842.044 -0.105039 2.28258 0
M  V30 8885 C 842.254 3.28696 1.17302 0
M  V30 8886 C 843.602 3.93871 1.58589 0
M  V30 8887 O 844.626 3.3289 1.2674 0
M  V30 8888 O 843.485 5.01254 2.1773 0
M  V30 8889 H 840.579 0.743666 0.361786 0
M  V30 8890 H 843.125 1.697 -0.00206785 0
M  V30 8891 H 841.897 3.89927 0.327453 0
M  V30 8892 H 841.52 3.44692 1.98174 0
M  V30 8893 N 842.517 -0.29412 1.54831 0
M  V30 8894 C 843.447 -1.36757 1.89261 0
M  V30 8895 C 844.428 -1.52564 0.752214 0
M  V30 8896 O 845.613 -1.65958 1.00855 0
M  V30 8897 C 842.743 -2.73066 2.14597 0
M  V30 8898 C 841.697 -2.72017 3.3044 0
M  V30 8899 C 841.023 -4.11679 3.4121 0
M  V30 8900 C 842.323 -2.33149 4.67375 0
M  V30 8901 H 844.017 -1.08191 2.79169 0
M  V30 8902 H 841.563 -0.519014 1.34321 0
M  V30 8903 H 843.516 -3.48255 2.37269 0
M  V30 8904 H 842.24 -3.03172 1.21467 0
M  V30 8905 H 840.899 -1.99285 3.07703 0
M  V30 8906 H 840.547 -4.38973 2.45584 0
M  V30 8907 H 840.247 -4.11877 4.19084 0
M  V30 8908 H 841.771 -4.88637 3.6615 0
M  V30 8909 H 843.185 -2.98054 4.89731 0
M  V30 8910 H 841.582 -2.44546 5.48012 0
M  V30 8911 H 842.652 -1.28275 4.67626 0
M  V30 8912 N 843.995 -1.47404 -0.557645 0
M  V30 8913 C 845.244 -1.53268 -1.31118 0
M  V30 8914 C 845.557 -0.199414 -1.94581 0
M  V30 8915 O 846.763 -0.136039 -2.71159 0
M  V30 8916 C 845.219 -2.70178 -2.37764 0
M  V30 8917 C 844.827 -4.10032 -1.80493 0
M  V30 8918 C 846.571 -2.85334 -3.14301 0
M  V30 8919 C 844.478 -5.18244 -2.84916 0
M  V30 8920 H 843.408 -0.570491 -0.493007 0
M  V30 8921 H 846.059 -1.73678 -0.592308 0
M  V30 8922 H 844.441 -2.43147 -3.12563 0
M  V30 8923 H 845.615 -4.46964 -1.12069 0
M  V30 8924 H 843.93 -3.99759 -1.16542 0
M  V30 8925 H 846.527 -3.63347 -3.92279 0
M  V30 8926 H 846.87 -1.93761 -3.68459 0
M  V30 8927 H 847.403 -3.12133 -2.46613 0
M  V30 8928 H 844.142 -6.11691 -2.35614 0
M  V30 8929 H 843.662 -4.85829 -3.51753 0
M  V30 8930 H 845.341 -5.45174 -3.48417 0
M  V30 8931 N 845.473 0.80434 -1.35529 0
M  V30 8932 C 846.889 1.10023 -1.15616 0
M  V30 8933 C 847.089 2.01478 0.0298535 0
M  V30 8934 O 846.145 2.42609 0.699778 0
M  V30 8935 C 847.458 1.72905 -2.46017 0
M  V30 8936 C 849.006 1.85315 -2.52245 0
M  V30 8937 C 849.481 2.51612 -3.82695 0
M  V30 8938 N 850.972 2.59095 -3.83958 0
M  V30 8939 C 851.707 3.11167 -4.81625 0
M  V30 8940 N 851.203 3.63659 -5.89681 0
M  V30 8941 N 852.996 3.09741 -4.6906 0
M  V30 8942 H 845.147 0.196428 -2.1149 0
M  V30 8943 H 847.41 0.149735 -0.9361 0
M  V30 8944 H 847.116 1.13171 -3.32994 0
M  V30 8945 H 846.99 2.72579 -2.6073 0
M  V30 8946 H 849.377 2.44191 -1.65695 0
M  V30 8947 H 849.458 0.844886 -2.41444 0
M  V30 8948 H 849.102 1.93385 -4.69643 0
M  V30 8949 H 849.032 3.5298 -3.90785 0
M  V30 8950 H 851.523 2.21908 -3.05884 0
M  V30 8951 H 851.836 4.01699 -6.60195 0
M  V30 8952 H 850.181 3.61852 -5.9337 0
M  V30 8953 H 853.372 2.68011 -3.83781 0
M  V30 8954 H 853.545 3.50016 -5.45338 0
M  V30 8955 N 846.951 1.19563 1.02676 0
M  V30 8956 C 847.901 0.903055 2.09354 0
M  V30 8957 C 848.885 -0.133009 1.60349 0
M  V30 8958 O 850.077 0.0729744 1.7685 0
M  V30 8959 C 847.206 0.445852 3.40392 0
M  V30 8960 C 846.292 1.51477 3.96126 0
M  V30 8961 N 846.683 2.73474 4.25495 0
M  V30 8962 C 844.981 1.37856 4.2416 0
M  V30 8963 C 845.682 3.42348 4.7029 0
M  V30 8964 N 844.658 2.69746 4.71952 0
M  V30 8965 H 848.46 1.83023 2.29956 0
M  V30 8966 H 845.974 1.08812 1.20556 0
M  V30 8967 H 847.971 0.21769 4.16331 0
M  V30 8968 H 846.631 -0.47482 3.2121 0
M  V30 8969 H 847.642 3.10217 4.14711 0
M  V30 8970 H 844.319 0.521512 4.1423 0
M  V30 8971 H 845.709 4.46686 5.01917 0
M  V30 8972 N 848.429 -1.21819 0.999893 0
M  V30 8973 C 849.706 -1.86318 0.595384 0
M  V30 8974 C 850.086 -1.8965 -0.927143 0
M  V30 8975 O 849.434 -1.3921 -1.81199 0
M  V30 8976 C 849.644 -3.26837 1.22387 0
M  V30 8977 C 850.992 -4.03272 1.32878 0
M  V30 8978 O 852.016 -3.36129 1.1788 0
M  V30 8979 O 850.875 -5.23477 1.56952 0
M  V30 8980 H 847.969 -0.801638 0.203238 0
M  V30 8981 H 850.515 -1.29542 1.09622 0
M  V30 8982 H 849.287 -3.19084 2.26497 0
M  V30 8983 H 848.91 -3.91226 0.709069 0
M  V30 8984 N 849.908 -0.773975 -1.37286 0
M  V30 8985 C 851.185 -0.263942 -1.93811 0
M  V30 8986 C 851.565 1.24138 -1.70743 0
M  V30 8987 O 850.913 2.02557 -1.05749 0
M  V30 8988 C 851.123 -0.639753 -3.43086 0
M  V30 8989 C 852.471 -0.610796 -4.20184 0
M  V30 8990 O 853.495 -0.579278 -3.51458 0
M  V30 8991 O 852.354 -0.639862 -5.42741 0
M  V30 8992 H 849.448 -0.0614331 -0.824715 0
M  V30 8993 H 851.994 -0.855477 -1.46559 0
M  V30 8994 H 850.766 -1.67856 -3.53469 0
M  V30 8995 H 850.389 -0.0212827 -3.97594 0
M  V30 8996 N 851.386 1.48609 -0.524698 0
M  V30 8997 C 852.336 2.26505 0.260696 0
M  V30 8998 C 853.32 1.32378 0.914597 0
M  V30 8999 O 854.512 1.5695 0.818277 0
M  V30 9000 C 851.641 3.17313 1.31024 0
M  V30 9001 C 850.727 4.18911 0.661391 0
M  V30 9002 N 851.118 5.05183 -0.24981 0
M  V30 9003 C 849.416 4.36425 0.91922 0
M  V30 9004 C 850.117 5.78348 -0.623598 0
M  V30 9005 N 849.093 5.43598 0.0140839 0
M  V30 9006 H 852.895 2.90582 -0.440388 0
M  V30 9007 H 850.409 1.5875 -0.342364 0
M  V30 9008 H 852.406 3.71772 1.88656 0
M  V30 9009 H 851.066 2.54791 2.01275 0
M  V30 9010 H 852.077 5.1415 -0.622093 0
M  V30 9011 H 848.754 3.85095 1.6127 0
M  V30 9012 H 850.144 6.57775 -1.37046 0
M  V30 9013 N 852.864 0.259585 1.55447 0
M  V30 9014 C 854.092 -0.365392 2.03648 0
M  V30 9015 C 854.507 -1.50613 1.13847 0
M  V30 9016 O 853.864 -1.81837 0.155414 0
M  V30 9017 C 853.915 -0.861172 3.51093 0
M  V30 9018 O 853.636 0.234121 4.37474 0
M  V30 9019 C 855.137 -1.55555 4.15111 0
M  V30 9020 H 852.357 -0.0853439 0.66555 0
M  V30 9021 H 854.901 0.387151 2.00802 0
M  V30 9022 H 853.056 -1.56385 3.54433 0
M  V30 9023 H 853.47 -0.1444 5.24301 0
M  V30 9024 H 854.944 -1.85403 5.19932 0
M  V30 9025 H 855.421 -2.48185 3.62355 0
M  V30 9026 H 856.027 -0.89712 4.15731 0
M  V30 9027 N 854.342 -1.57594 -0.0133615 0
M  V30 9028 C 855.305 -2.06534 -0.993799 0
M  V30 9029 C 856.305 -0.972267 -1.28077 0
M  V30 9030 O 857.495 -1.23537 -1.22818 0
M  V30 9031 C 854.627 -2.49554 -2.3224 0
M  V30 9032 H 855.82 -2.94419 -0.570741 0
M  V30 9033 H 853.373 -1.54113 -0.260546 0
M  V30 9034 H 854.108 -1.64872 -2.79263 0
M  V30 9035 H 853.893 -3.29371 -2.12737 0
M  V30 9036 H 855.383 -2.8779 -3.026 0
M  V30 9037 N 855.82 0.285905 -1.54985 0
M  V30 9038 C 856.752 1.37505 -1.83371 0
M  V30 9039 C 857.765 1.46138 -0.717454 0
M  V30 9040 O 858.954 1.48186 -0.995142 0
M  V30 9041 C 856.054 2.7575 -1.97016 0
M  V30 9042 C 855.227 2.89866 -3.27561 0
M  V30 9043 C 854.286 4.08704 -3.31433 0
M  V30 9044 O 853.312 4.00073 -4.04883 0
M  V30 9045 N 854.514 5.20062 -2.57907 0
M  V30 9046 H 857.279 1.13505 -2.77375 0
M  V30 9047 H 854.84 0.476006 -1.54744 0
M  V30 9048 H 856.832 3.5352 -1.96991 0
M  V30 9049 H 855.402 2.9263 -1.09938 0
M  V30 9050 H 854.622 1.99085 -3.40234 0
M  V30 9051 H 855.91 2.96219 -4.13681 0
M  V30 9052 H 855.308 5.29958 -1.97891 0
M  V30 9053 H 853.865 5.96111 -2.63619 0
M  V30 9054 N 857.298 1.47698 0.54982 0
M  V30 9055 C 858.546 1.54397 1.30407 0
M  V30 9056 C 858.867 0.211026 1.93855 0
M  V30 9057 O 858.137 -0.765701 1.80316 0
M  V30 9058 H 856.717 0.568747 0.484289 0
M  V30 9059 H 859.379 1.84042 0.641444 0
M  V30 9060 H 858.475 2.31449 2.09375 0
M  V30 9061 N 858.776 -0.797141 1.35954 0
M  V30 9062 C 859.723 -1.90944 1.2965 0
M  V30 9063 C 860.693 -1.65262 0.166628 0
M  V30 9064 O 861.878 -1.87527 0.351883 0
M  V30 9065 C 859.018 -3.27637 1.08389 0
M  V30 9066 C 858.131 -3.65442 2.30382 0
M  V30 9067 C 857.266 -4.91213 2.02195 0
M  V30 9068 C 856.305 -5.21674 3.20191 0
M  V30 9069 N 855.442 -6.38627 2.91719 0
M  V30 9070 H 860.282 -1.95668 2.24762 0
M  V30 9071 H 857.819 -0.95696 1.11717 0
M  V30 9072 H 859.777 -4.06451 0.940912 0
M  V30 9073 H 858.407 -3.22355 0.169351 0
M  V30 9074 H 857.459 -2.81813 2.55511 0
M  V30 9075 H 858.771 -3.83907 3.18461 0
M  V30 9076 H 857.925 -5.77876 1.84783 0
M  V30 9077 H 856.664 -4.74803 1.11416 0
M  V30 9078 H 855.669 -4.33498 3.38171 0
M  V30 9079 H 856.894 -5.40009 4.11786 0
M  V30 9080 H 854.84 -6.23623 2.03543 0
M  V30 9081 H 854.757 -6.57387 3.73334 0
M  V30 9082 H 856.025 -7.28292 2.77868 0
M  V30 9083 N 860.254 -1.20106 -1.0204 0
M  V30 9084 C 861.184 -0.970301 -2.12385 0
M  V30 9085 C 862.165 0.099378 -1.69809 0
M  V30 9086 O 863.35 -0.057365 -1.94115 0
M  V30 9087 C 860.48 -0.517431 -3.43424 0
M  V30 9088 C 859.434 -1.52992 -3.99722 0
M  V30 9089 C 858.76 -0.933817 -5.26483 0
M  V30 9090 C 860.06 -2.91257 -4.33551 0
M  V30 9091 H 861.754 -1.89316 -2.31948 0
M  V30 9092 H 859.3 -0.911655 -1.11467 0
M  V30 9093 H 861.253 -0.343243 -4.2 0
M  V30 9094 H 859.977 0.441049 -3.23608 0
M  V30 9095 H 858.636 -1.6914 -3.2525 0
M  V30 9096 H 858.284 0.0324763 -5.0299 0
M  V30 9097 H 857.984 -1.60999 -5.65113 0
M  V30 9098 H 859.508 -0.770614 -6.05718 0
M  V30 9099 H 860.922 -2.78642 -5.0103 0
M  V30 9100 H 859.319 -3.55745 -4.83286 0
M  V30 9101 H 860.389 -3.43269 -3.42483 0
M  V30 9102 N 861.732 1.21287 -1.00634 0
M  V30 9103 C 862.682 2.21541 -0.53886 0
M  V30 9104 C 863.666 1.55842 0.400256 0
M  V30 9105 O 864.858 1.75566 0.224889 0
M  V30 9106 C 861.987 3.43047 0.131796 0
M  V30 9107 C 861.073 4.1593 -0.828419 0
M  V30 9108 N 861.464 4.65359 -1.98178 0
M  V30 9109 C 859.762 4.41281 -0.647083 0
M  V30 9110 C 860.463 5.21079 -2.58557 0
M  V30 9111 N 859.439 5.10531 -1.86705 0
M  V30 9112 H 863.241 2.57413 -1.41831 0
M  V30 9113 H 860.755 1.37109 -0.870338 0
M  V30 9114 H 862.752 4.14079 0.484178 0
M  V30 9115 H 861.412 3.08683 1.00721 0
M  V30 9116 H 862.423 4.60896 -2.3621 0
M  V30 9117 H 859.1 4.17107 0.181139 0
M  V30 9118 H 860.49 5.6977 -3.56107 0
M  V30 9119 N 863.21 0.781244 1.36873 0
M  V30 9120 C 864.14 0.188128 2.32741 0
M  V30 9121 C 865.121 -0.672326 1.56249 0
M  V30 9122 O 866.306 -0.607835 1.84442 0
M  V30 9123 C 863.436 -0.684341 3.40491 0
M  V30 9124 C 862.39 0.0755641 4.27933 0
M  V30 9125 C 861.716 -0.916968 5.26779 0
M  V30 9126 C 863.016 1.26006 5.06873 0
M  V30 9127 H 864.71 0.989016 2.82593 0
M  V30 9128 H 862.256 0.477038 1.35869 0
M  V30 9129 H 864.209 -1.10915 4.06541 0
M  V30 9130 H 862.933 -1.51785 2.89187 0
M  V30 9131 H 861.592 0.481258 3.63427 0
M  V30 9132 H 861.24 -1.74528 4.71751 0
M  V30 9133 H 860.94 -0.413 5.86147 0
M  V30 9134 H 862.464 -1.34052 5.95703 0
M  V30 9135 H 863.878 0.911425 5.66009 0
M  V30 9136 H 862.275 1.69676 5.75613 0
M  V30 9137 H 863.345 2.05948 4.38991 0
M  V30 9138 N 864.689 -1.48329 0.532571 0
M  V30 9139 C 866.1 -1.86469 0.0927749 0
M  V30 9140 C 866.451 -1.44186 -1.3306 0
M  V30 9141 O 865.576 -0.833741 -1.99694 0
M  V30 9142 C 866.171 -3.38414 0.161588 0
M  V30 9143 C 864.73 -3.75739 -0.223028 0
M  V30 9144 C 863.877 -2.72377 0.520199 0
M  V30 9145 H 866.828 -1.40197 0.743678 0
M  V30 9146 H 866.849 -3.75314 -0.626059 0
M  V30 9147 H 866.361 -3.69159 1.19765 0
M  V30 9148 H 864.462 -3.50608 -1.26113 0
M  V30 9149 H 864.575 -4.78954 0.118385 0
M  V30 9150 H 862.939 -2.54678 -0.0338425 0
M  V30 9151 H 863.722 -3.05965 1.55694 0
M  V30 9152 N 866.167 -0.267825 -1.55308 0
M  V30 9153 C 867.414 0.351036 -1.99434 0
M  V30 9154 C 867.742 1.56406 -1.15618 0
M  V30 9155 O 866.997 1.94548 -0.212045 0
M  V30 9156 C 867.296 0.784247 -3.48689 0
M  V30 9157 C 866.962 -0.323328 -4.49739 0
M  V30 9158 C 865.624 -0.627467 -4.77091 0
M  V30 9159 C 867.976 -1.07002 -5.10098 0
M  V30 9160 C 865.304 -1.682 -5.62073 0
M  V30 9161 C 867.656 -2.11422 -5.96224 0
M  V30 9162 C 866.32 -2.42479 -6.21901 0
M  V30 9163 H 865.59 0.128453 -0.729781 0
M  V30 9164 H 868.237 -0.380018 -1.87692 0
M  V30 9165 H 866.542 1.59485 -3.57871 0
M  V30 9166 H 868.239 1.2737 -3.80234 0
M  V30 9167 H 864.829 -0.0761528 -4.28532 0
M  V30 9168 H 869.013 -0.848302 -4.88996 0
M  V30 9169 H 864.269 -1.92772 -5.80215 0
M  V30 9170 H 868.443 -2.69759 -6.4203 0
M  V30 9171 H 866.07 -3.24328 -6.87543 0
M  V30 9172 N 867.645 1.57599 0.00500368 0
M  V30 9173 C 868.592 2.08106 0.998025 0
M  V30 9174 C 869.562 0.975374 1.34446 0
M  V30 9175 O 870.747 1.24749 1.44369 0
M  V30 9176 C 867.887 2.58496 2.28635 0
M  V30 9177 C 867 3.82947 1.99939 0
M  V30 9178 C 866.135 4.21857 3.22816 0
M  V30 9179 C 865.174 5.39159 2.89783 0
M  V30 9180 N 864.311 5.73386 4.05183 0
M  V30 9181 H 869.151 2.92684 0.560385 0
M  V30 9182 H 866.688 1.44692 0.265053 0
M  V30 9183 H 868.646 2.85787 3.03943 0
M  V30 9184 H 867.276 1.768 2.70077 0
M  V30 9185 H 866.328 3.62594 1.1502 0
M  V30 9186 H 867.64 4.68358 1.71588 0
M  V30 9187 H 866.794 4.50404 4.06474 0
M  V30 9188 H 865.533 3.35145 3.54301 0
M  V30 9189 H 864.538 5.1034 2.04532 0
M  V30 9190 H 865.763 6.27543 2.59551 0
M  V30 9191 H 863.709 4.89632 4.36574 0
M  V30 9192 H 863.626 6.53359 3.80339 0
M  V30 9193 H 864.894 6.06522 4.89644 0
M  V30 9194 N 869.123 -0.277682 1.55134 0
M  V30 9195 C 870.053 -1.34742 1.90701 0
M  V30 9196 C 871.034 -1.51757 0.768354 0
M  V30 9197 O 872.219 -1.64879 1.02609 0
M  V30 9198 C 869.349 -2.70775 2.17481 0
M  V30 9199 C 868.303 -2.68497 3.33307 0
M  V30 9200 C 867.629 -4.08037 3.45557 0
M  V30 9201 C 868.929 -2.28178 4.69821 0
M  V30 9202 H 870.623 -1.05224 2.803 0
M  V30 9203 H 868.169 -0.504738 1.34864 0
M  V30 9204 H 870.122 -3.45719 2.40949 0
M  V30 9205 H 868.846 -3.01867 1.24676 0
M  V30 9206 H 867.505 -1.9601 3.09799 0
M  V30 9207 H 867.153 -4.36344 2.50226 0
M  V30 9208 H 866.853 -4.07409 4.23429 0
M  V30 9209 H 868.377 -4.84726 3.71312 0
M  V30 9210 H 869.791 -2.92843 4.92865 0
M  V30 9211 H 868.188 -2.3872 5.50575 0
M  V30 9212 H 869.258 -1.23308 4.6896 0
M  V30 9213 N 870.601 -1.47988 -0.541979 0
M  V30 9214 C 871.85 -1.5465 -1.29485 0
M  V30 9215 C 872.163 -0.220041 -1.94358 0
M  V30 9216 O 873.369 -0.164792 -2.70999 0
M  V30 9217 C 871.825 -2.72685 -2.34885 0
M  V30 9218 C 871.433 -4.11923 -1.76134 0
M  V30 9219 C 873.177 -2.88651 -3.11257 0
M  V30 9220 C 871.084 -5.21237 -2.79404 0
M  V30 9221 H 870.014 -0.575688 -0.486928 0
M  V30 9222 H 872.665 -1.74296 -0.573853 0
M  V30 9223 H 871.047 -2.46448 -3.09966 0
M  V30 9224 H 872.221 -4.48128 -1.07322 0
M  V30 9225 H 870.536 -4.00972 -1.12295 0
M  V30 9226 H 873.133 -3.67487 -3.88404 0
M  V30 9227 H 873.476 -1.97658 -3.66384 0
M  V30 9228 H 874.009 -3.14731 -2.43288 0
M  V30 9229 H 870.748 -6.14156 -2.29113 0
M  V30 9230 H 870.268 -4.89533 -3.4658 0
M  V30 9231 H 871.947 -5.48839 -3.42615 0
M  V30 9232 N 872.079 0.78992 -1.36375 0
M  V30 9233 C 873.49 1.36506 -1.2737 0
M  V30 9234 C 873.841 1.96008 0.086711 0
M  V30 9235 O 872.966 1.92521 0.988159 0
M  V30 9236 C 873.561 2.48175 -2.30639 0
M  V30 9237 C 872.12 3.01506 -2.25325 0
M  V30 9238 C 871.267 1.74581 -2.15445 0
M  V30 9239 H 874.218 0.591606 -1.47261 0
M  V30 9240 H 874.239 3.27179 -1.94253 0
M  V30 9241 H 873.751 2.04838 -3.2964 0
M  V30 9242 H 871.852 3.49265 -1.29788 0
M  V30 9243 H 871.965 3.58355 -3.17992 0
M  V30 9244 H 870.329 1.96794 -1.61692 0
M  V30 9245 H 871.112 1.33373 -3.16333 0
M  V30 9246 N 873.557 1.20646 1.01402 0
M  V30 9247 C 874.782 1.04462 1.79172 0
M  V30 9248 C 875.207 -0.401588 1.83763 0
M  V30 9249 O 874.565 -1.28934 1.27459 0
M  V30 9250 C 874.613 1.63583 3.21361 0
M  V30 9251 O 873.717 0.875198 4.03006 0
M  V30 9252 H 873.058 0.368235 0.552539 0
M  V30 9253 H 875.588 1.59994 1.27526 0
M  V30 9254 H 875.598 1.67426 3.72065 0
M  V30 9255 H 874.273 2.68835 3.17334 0
M  V30 9256 H 872.85 0.911172 3.61597 0
M  V30 9257 N 875.035 -1.20752 1.01276 0
M  V30 9258 C 876.263 -1.94006 0.718976 0
M  V30 9259 C 876.678 -1.74544 -0.719711 0
M  V30 9260 O 876.035 -1.05697 -1.48776 0
M  V30 9261 C 876.086 -3.46208 1.04031 0
M  V30 9262 O 875.807 -3.65031 2.42248 0
M  V30 9263 C 877.308 -4.36614 0.767032 0
M  V30 9264 H 874.528 -0.616743 0.264327 0
M  V30 9265 H 877.072 -1.53352 1.3529 0
M  V30 9266 H 875.227 -3.84756 0.451852 0
M  V30 9267 H 875.641 -4.59054 2.53712 0
M  V30 9268 H 877.115 -5.42076 1.04198 0
M  V30 9269 H 877.592 -4.38182 -0.298851 0
M  V30 9270 H 878.198 -4.03723 1.33746 0
M  V30 9271 N 876.513 -0.788492 -1.36457 0
M  V30 9272 C 877.753 -0.365855 -2.01099 0
M  V30 9273 C 878.117 1.04262 -1.61225 0
M  V30 9274 O 879.318 1.56628 -2.18451 0
M  V30 9275 C 877.589 -0.523344 -3.53548 0
M  V30 9276 S 879.148 -0.188448 -4.38395 0
M  V30 9277 H 875.966 -0.139832 -0.697114 0
M  V30 9278 H 878.568 -1.02678 -1.66365 0
M  V30 9279 H 877.272 -1.54874 -3.80055 0
M  V30 9280 H 876.803 0.153547 -3.931 0
M  V30 9281 H 878.818 1.0103 -4.85806 0
M  V30 9282 N 877.991 1.48044 -0.54043 0
M  V30 9283 C 878.924 2.26667 0.264083 0
M  V30 9284 C 879.902 1.32996 0.935456 0
M  V30 9285 O 881.086 1.62354 0.95778 0
M  V30 9286 C 878.213 3.09541 1.37485 0
M  V30 9287 C 877.259 4.18664 0.813792 0
M  V30 9288 S 878.092 5.34503 -0.326536 0
M  V30 9289 C 879.248 6.20939 0.786452 0
M  V30 9290 H 879.481 2.94554 -0.403129 0
M  V30 9291 H 877.014 1.5091 -0.326415 0
M  V30 9292 H 878.972 3.57863 2.01107 0
M  V30 9293 H 877.633 2.41048 2.01382 0
M  V30 9294 H 876.826 4.76316 1.6474 0
M  V30 9295 H 876.428 3.73136 0.254066 0
M  V30 9296 H 878.72 6.56273 1.68262 0
M  V30 9297 H 879.663 7.07667 0.247673 0
M  V30 9298 H 880.071 5.54236 1.07156 0
M  V30 9299 N 879.47 0.276058 1.55163 0
M  V30 9300 C 880.716 -0.340959 1.99913 0
M  V30 9301 C 881.049 -1.55434 1.16422 0
M  V30 9302 O 880.324 -1.93081 0.234517 0
M  V30 9303 C 880.607 -0.722211 3.52783 0
M  V30 9304 C 880.46 0.498575 4.47028 0
M  V30 9305 C 881.779 -1.5583 4.11589 0
M  V30 9306 H 878.898 -0.122455 0.726756 0
M  V30 9307 H 881.54 0.38319 1.86096 0
M  V30 9308 H 879.69 -1.33919 3.64689 0
M  V30 9309 H 881.362 1.13713 4.47065 0
M  V30 9310 H 879.605 1.13646 4.18649 0
M  V30 9311 H 880.276 0.188041 5.5168 0
M  V30 9312 H 882.752 -1.03722 4.02965 0
M  V30 9313 H 881.628 -1.79387 5.1876 0
M  V30 9314 H 881.889 -2.53963 3.61877 0
M  V30 9315 N 880.948 -1.576 0.00335426 0
M  V30 9316 C 882.359 -1.7875 -0.539008 0
M  V30 9317 C 882.71 -0.911097 -1.73763 0
M  V30 9318 O 881.835 -0.114476 -2.16097 0
M  V30 9319 C 882.43 -3.24177 -0.984611 0
M  V30 9320 C 880.989 -3.46412 -1.47226 0
M  V30 9321 C 880.136 -2.74024 -0.425004 0
M  V30 9322 H 883.087 -1.57032 0.229511 0
M  V30 9323 H 883.108 -3.32474 -1.85044 0
M  V30 9324 H 882.62 -3.87938 -0.112035 0
M  V30 9325 H 880.721 -2.8787 -2.36562 0
M  V30 9326 H 880.834 -4.55098 -1.49741 0
M  V30 9327 H 879.198 -2.38741 -0.887394 0
M  V30 9328 H 879.981 -3.40486 0.438662 0
M  V30 9329 N 882.426 0.269451 -1.5528 0
M  V30 9330 C 883.672 1.00206 -1.76314 0
M  V30 9331 C 884.005 1.85812 -0.564581 0
M  V30 9332 O 883.28 1.89509 0.437769 0
M  V30 9333 C 883.563 1.88163 -3.07029 0
M  V30 9334 C 883.416 1.05527 -4.37246 0
M  V30 9335 C 884.735 2.8681 -3.33808 0
M  V30 9336 H 881.854 0.36288 -0.641473 0
M  V30 9337 H 884.496 0.274188 -1.88011 0
M  V30 9338 H 882.646 2.50224 -2.97187 0
M  V30 9339 H 884.318 0.455094 -4.5905 0
M  V30 9340 H 882.561 0.358842 -4.32313 0
M  V30 9341 H 883.232 1.70397 -5.25042 0
M  V30 9342 H 885.708 2.34884 -3.43466 0
M  V30 9343 H 884.584 3.45492 -4.26528 0
M  V30 9344 H 884.845 3.62118 -2.5362 0
M  V30 9345 N 883.904 1.48273 0.534124 0
M  V30 9346 C 884.867 1.6201 1.62127 0
M  V30 9347 C 885.867 0.493653 1.53035 0
M  V30 9348 O 887.057 0.759337 1.56779 0
M  V30 9349 C 884.189 1.5864 3.01739 0
M  V30 9350 H 885.382 2.58944 1.51288 0
M  V30 9351 H 882.935 1.36808 0.755861 0
M  V30 9352 H 883.67 0.631685 3.18088 0
M  V30 9353 H 883.455 2.40415 3.09747 0
M  V30 9354 H 884.945 1.71438 3.80787 0
M  V30 9355 N 885.382 -0.782676 1.36792 0
M  V30 9356 C 886.332 -1.8855 1.28191 0
M  V30 9357 C 887.316 -1.59978 0.171984 0
M  V30 9358 O 888.508 -1.72295 0.405405 0
M  V30 9359 C 885.637 -3.25862 1.08021 0
M  V30 9360 C 884.723 -3.60422 2.2351 0
M  V30 9361 N 885.114 -3.66241 3.48857 0
M  V30 9362 C 883.412 -3.90523 2.15424 0
M  V30 9363 C 884.113 -3.97233 4.24948 0
M  V30 9364 N 883.089 -4.12567 3.53963 0
M  V30 9365 H 886.891 -1.91285 2.23131 0
M  V30 9366 H 884.405 -0.978554 1.29607 0
M  V30 9367 H 886.402 -4.04742 0.999458 0
M  V30 9368 H 885.062 -3.24399 0.139882 0
M  V30 9369 H 886.073 -3.48717 3.82906 0
M  V30 9370 H 882.75 -3.96945 1.29386 0
M  V30 9371 H 884.14 -4.08602 5.33379 0
M  V30 9372 N 886.86 -1.21182 -1.00761 0
M  V30 9373 C 887.823 -0.970339 -2.07646 0
M  V30 9374 C 888.823 0.0576345 -1.60697 0
M  V30 9375 O 890.013 -0.179369 -1.73274 0
M  V30 9376 C 887.145 -0.462703 -3.37745 0
M  V30 9377 H 888.338 -1.91856 -2.30502 0
M  V30 9378 H 885.891 -1.02844 -1.17698 0
M  V30 9379 H 886.626 0.490559 -3.20568 0
M  V30 9380 H 886.411 -1.20416 -3.73152 0
M  V30 9381 H 887.901 -0.313531 -4.16421 0
M  V30 9382 N 888.338 1.20213 -1.01915 0
M  V30 9383 C 889.749 1.7136 -0.741131 0
M  V30 9384 C 890.1 1.81705 0.740107 0
M  V30 9385 O 889.225 1.48139 1.57746 0
M  V30 9386 C 889.82 3.11231 -1.33869 0
M  V30 9387 C 888.379 3.59677 -1.10948 0
M  V30 9388 C 887.526 2.36809 -1.4428 0
M  V30 9389 H 890.477 1.05191 -1.1883 0
M  V30 9390 H 890.498 3.7342 -0.730585 0
M  V30 9391 H 890.01 3.03669 -2.41675 0
M  V30 9392 H 888.111 3.72568 -0.0492052 0
M  V30 9393 H 888.224 4.44351 -1.79134 0
M  V30 9394 H 886.588 2.39674 -0.861881 0
M  V30 9395 H 887.371 2.31886 -2.53148 0
M  V30 9396 N 889.816 0.795718 1.36037 0
M  V30 9397 C 890.764 0.18649 2.31851 0
M  V30 9398 C 891.758 -0.657704 1.56111 0
M  V30 9399 O 892.964 -0.552083 1.71324 0
M  V30 9400 H 889.339 0.0415363 0.750852 0
M  V30 9401 H 891.31 1.00992 2.8079 0
M  V30 9402 C 890.059 -0.65918 3.41394 0
M  V30 9403 H 889.382 -0.01894 3.99796 0
M  V30 9404 H 890.822 -1.05202 4.10741 0
M  V30 9405 C 889.281 -1.82011 2.83502 0
M  V30 9406 O 889.811 -2.91703 2.76174 0
M  V30 9407 N 888.017 -1.62821 2.40703 0
M  V30 9408 H 887.564 -0.735965 2.46863 0
M  V30 9409 H 887.522 -2.40657 2.02316 0
M  V30 9410 N 891.294 -1.47756 0.548274 0
M  V30 9411 C 892.54 -2.02789 0.0209265 0
M  V30 9412 C 892.873 -1.42268 -1.32187 0
M  V30 9413 O 892.148 -0.575001 -1.85806 0
M  V30 9414 C 892.431 -3.60007 -0.0816674 0
M  V30 9415 C 892.284 -4.30977 1.28759 0
M  V30 9416 C 893.603 -4.32777 -0.799515 0
M  V30 9417 H 890.722 -0.736944 0.00907884 0
M  V30 9418 H 893.364 -1.76282 0.708839 0
M  V30 9419 H 891.514 -3.82722 -0.667537 0
M  V30 9420 H 893.186 -4.19629 1.91597 0
M  V30 9421 H 891.429 -3.9168 1.86466 0
M  V30 9422 H 892.1 -5.39488 1.16861 0
M  V30 9423 H 894.576 -4.15001 -0.30216 0
M  V30 9424 H 893.452 -5.42431 -0.840239 0
M  V30 9425 H 893.713 -4.01358 -1.85375 0
M  V30 9426 N 892.772 -0.284283 -1.55015 0
M  V30 9427 C 894.021 0.33055 -1.98973 0
M  V30 9428 C 894.334 1.56284 -1.17621 0
M  V30 9429 O 895.54 2.2512 -1.51767 0
M  V30 9430 C 893.996 0.639457 -3.54174 0
M  V30 9431 C 893.604 -0.573543 -4.44313 0
M  V30 9432 C 895.348 1.21641 -4.06699 0
M  V30 9433 C 893.255 -0.238715 -5.90918 0
M  V30 9434 H 892.185 0.127285 -0.743179 0
M  V30 9435 H 894.836 -0.390372 -1.793 0
M  V30 9436 H 893.218 1.41953 -3.69683 0
M  V30 9437 H 894.392 -1.3502 -4.40575 0
M  V30 9438 H 892.707 -1.06797 -4.02472 0
M  V30 9439 H 895.304 1.48088 -5.13784 0
M  V30 9440 H 895.647 2.15328 -3.56286 0
M  V30 9441 H 896.18 0.498422 -3.94665 0
M  V30 9442 H 892.919 -1.1437 -6.45445 0
M  V30 9443 H 892.439 0.500997 -5.97704 0
M  V30 9444 H 894.118 0.165774 -6.46788 0
M  V30 9445 N 894.251 1.57596 -0.0117121 0
M  V30 9446 C 895.201 2.05641 0.98467 0
M  V30 9447 C 896.185 0.953422 1.2961 0
M  V30 9448 O 897.377 1.21712 1.28512 0
M  V30 9449 C 894.506 2.57285 2.27286 0
M  V30 9450 C 893.592 3.74483 1.99057 0
M  V30 9451 N 893.983 4.85741 1.41029 0
M  V30 9452 C 892.281 3.82637 2.2914 0
M  V30 9453 C 892.982 5.67094 1.29536 0
M  V30 9454 N 891.958 5.13459 1.78497 0
M  V30 9455 H 895.76 2.89069 0.530702 0
M  V30 9456 H 893.274 1.6124 0.193717 0
M  V30 9457 H 895.271 2.89988 2.99521 0
M  V30 9458 H 893.931 1.75281 2.73325 0
M  V30 9459 H 894.942 5.06352 1.08756 0
M  V30 9460 H 891.619 3.11509 2.77972 0
M  V30 9461 H 893.009 6.66525 0.848144 0
M  V30 9462 N 895.729 -0.261212 1.5542 0
M  V30 9463 C 896.977 -0.989272 1.76232 0
M  V30 9464 C 897.298 -1.86389 0.573067 0
M  V30 9465 O 896.568 -1.91526 -0.41166 0
M  V30 9466 H 895.148 -0.368256 0.64992 0
M  V30 9467 H 897.81 -0.282603 1.9284 0
M  V30 9468 H 896.906 -1.61935 2.66802 0
M  V30 9469 N 897.207 -1.48554 -0.526253 0
M  V30 9470 C 898.454 -1.56761 -1.28188 0
M  V30 9471 C 898.782 -0.24315 -1.92974 0
M  V30 9472 O 898.037 0.766883 -1.80048 0
M  V30 9473 C 898.336 -2.65739 -2.38993 0
M  V30 9474 C 898.002 -4.08057 -1.91834 0
M  V30 9475 C 896.664 -4.46792 -1.78691 0
M  V30 9476 C 899.016 -4.9723 -1.56242 0
M  V30 9477 C 896.344 -5.72501 -1.28296 0
M  V30 9478 C 898.696 -6.23432 -1.07309 0
M  V30 9479 C 897.36 -6.6102 -0.927853 0
M  V30 9480 H 896.63 -0.573631 -0.469072 0
M  V30 9481 H 899.277 -1.82287 -0.586842 0
M  V30 9482 H 897.582 -2.34088 -3.14181 0
M  V30 9483 H 899.279 -2.69304 -2.97113 0
M  V30 9484 H 895.869 -3.77469 -2.03016 0
M  V30 9485 H 900.053 -4.67979 -1.65255 0
M  V30 9486 H 895.309 -6.00345 -1.15742 0
M  V30 9487 H 899.483 -6.91923 -0.788412 0
M  V30 9488 H 897.11 -7.58314 -0.535162 0
M  V30 9489 N 898.685 0.775411 -1.37205 0
M  V30 9490 C 899.632 1.88857 -1.32671 0
M  V30 9491 C 900.602 1.64976 -0.192899 0
M  V30 9492 O 901.787 1.86944 -0.381673 0
M  V30 9493 C 898.927 3.25871 -1.13588 0
M  V30 9494 C 898.04 3.61731 -2.36167 0
M  V30 9495 C 897.175 4.87934 -2.09985 0
M  V30 9496 C 896.214 5.16514 -3.2845 0
M  V30 9497 N 895.351 6.33905 -3.01842 0
M  V30 9498 H 900.191 1.92068 -2.27846 0
M  V30 9499 H 897.728 0.939066 -1.13225 0
M  V30 9500 H 899.686 4.04903 -1.00546 0
M  V30 9501 H 898.316 3.22045 -0.220613 0
M  V30 9502 H 897.368 2.77712 -2.59962 0
M  V30 9503 H 898.68 3.78792 -3.24528 0
M  V30 9504 H 897.834 5.74863 -1.93953 0
M  V30 9505 H 896.573 4.7297 -1.18956 0
M  V30 9506 H 895.578 4.28063 -3.45025 0
M  V30 9507 H 896.803 5.33389 -4.20325 0
M  V30 9508 H 894.749 6.20306 -2.13439 0
M  V30 9509 H 894.666 6.51364 -3.83746 0
M  V30 9510 H 895.934 7.23779 -2.8942 0
M  V30 9511 N 900.163 1.21714 1.00117 0
M  V30 9512 C 901.113 0.947259 2.07391 0
M  V30 9513 C 902.097 -0.0989662 1.60595 0
M  V30 9514 O 903.289 0.11047 1.76655 0
M  V30 9515 C 900.418 0.517954 3.3937 0
M  V30 9516 C 899.504 1.59846 3.92823 0
M  V30 9517 N 899.895 2.82438 4.19598 0
M  V30 9518 C 898.193 1.46822 4.2114 0
M  V30 9519 C 898.894 3.52247 4.62922 0
M  V30 9520 N 897.87 2.79696 4.66124 0
M  V30 9521 H 901.672 1.8786 2.26022 0
M  V30 9522 H 899.186 1.11344 1.18221 0
M  V30 9523 H 901.183 0.305951 4.15776 0
M  V30 9524 H 899.843 -0.40658 3.22144 0
M  V30 9525 H 900.854 3.18944 4.08038 0
M  V30 9526 H 897.531 0.609259 4.13031 0
M  V30 9527 H 898.921 4.57232 4.9233 0
M  V30 9528 N 901.641 -1.19671 1.02551 0
M  V30 9529 C 902.89 -1.88591 0.715272 0
M  V30 9530 C 903.203 -1.80274 -0.758982 0
M  V30 9531 O 904.409 -2.44413 -1.18213 0
M  V30 9532 C 902.865 -3.38264 1.22905 0
M  V30 9533 C 902.473 -3.55146 2.73084 0
M  V30 9534 C 904.217 -4.12683 0.994649 0
M  V30 9535 C 902.124 -4.98693 3.17897 0
M  V30 9536 H 901.054 -0.706326 0.263857 0
M  V30 9537 H 903.705 -1.35322 1.23936 0
M  V30 9538 H 902.087 -3.9091 0.632892 0
M  V30 9539 H 903.261 -3.12845 3.38326 0
M  V30 9540 H 901.576 -2.94112 2.94766 0
M  V30 9541 H 904.173 -5.18536 1.30478 0
M  V30 9542 H 904.516 -4.16243 -0.0686466 0
M  V30 9543 H 905.049 -3.66164 1.55464 0
M  V30 9544 H 901.788 -5.00293 4.23542 0
M  V30 9545 H 901.308 -5.4177 2.57381 0
M  V30 9546 H 902.987 -5.67327 3.11045 0
M  V30 9547 N 903.119 -0.802921 -1.35613 0
M  V30 9548 C 904.344 -0.392846 -2.03645 0
M  V30 9549 C 904.769 0.987075 -1.6012 0
M  V30 9550 O 904.127 1.63849 -0.776101 0
M  V30 9551 C 904.175 -0.480208 -3.57388 0
M  V30 9552 O 903.279 0.507751 -4.09262 0
M  V30 9553 H 902.62 -0.16464 -0.643265 0
M  V30 9554 H 905.15 -1.08779 -1.73287 0
M  V30 9555 H 905.16 -0.348683 -4.06507 0
M  V30 9556 H 903.835 -1.48675 -3.88418 0
M  V30 9557 H 902.412 0.336769 -3.71376 0
M  V30 9558 N 904.597 1.47463 -0.556102 0
M  V30 9559 C 905.527 2.32801 0.180497 0
M  V30 9560 C 906.508 1.43721 0.909848 0
M  V30 9561 O 907.693 1.72578 0.89053 0
M  V30 9562 C 904.823 3.25478 1.21167 0
M  V30 9563 C 903.777 4.2379 0.598846 0
M  V30 9564 C 903.103 5.05783 1.73457 0
M  V30 9565 C 904.403 5.20387 -0.446659 0
M  V30 9566 H 906.097 2.94636 -0.531956 0
M  V30 9567 H 903.643 1.41683 -0.257267 0
M  V30 9568 H 905.596 3.8402 1.73513 0
M  V30 9569 H 904.32 2.61695 1.95405 0
M  V30 9570 H 902.979 3.66472 0.0966897 0
M  V30 9571 H 902.627 4.38405 2.46596 0
M  V30 9572 H 902.327 5.72343 1.33031 0
M  V30 9573 H 903.851 5.67183 2.26131 0
M  V30 9574 H 905.265 5.73299 -0.00930019 0
M  V30 9575 H 903.662 5.95143 -0.769735 0
M  V30 9576 H 904.732 4.65932 -1.34295 0
M  V30 9577 N 906.075 0.2925 1.54862 0
M  V30 9578 C 907.007 -0.620889 2.2063 0
M  V30 9579 C 908.02 -1.10412 1.19637 0
M  V30 9580 O 909.209 -1.02304 1.46274 0
M  V30 9581 C 906.309 -1.861 2.83232 0
M  V30 9582 C 905.482 -1.52168 4.10078 0
M  V30 9583 C 904.541 -2.61605 4.56562 0
M  V30 9584 O 903.567 -2.27056 5.21952 0
M  V30 9585 N 904.769 -3.9199 4.28163 0
M  V30 9586 H 907.534 -0.0579028 2.99644 0
M  V30 9587 H 905.095 0.114333 1.61496 0
M  V30 9588 H 907.087 -2.58642 3.11266 0
M  V30 9589 H 905.657 -2.33259 2.08108 0
M  V30 9590 H 904.877 -0.629283 3.89145 0
M  V30 9591 H 906.165 -1.27023 4.92689 0
M  V30 9592 H 905.563 -4.22872 3.7576 0
M  V30 9593 H 904.12 -4.60857 4.60928 0
M  V30 9594 N 907.553 -1.57587 0.0200696 0
M  V30 9595 C 908.483 -2.12702 -0.963333 0
M  V30 9596 C 909.464 -1.04094 -1.34531 0
M  V30 9597 O 910.649 -1.31881 -1.42552 0
M  V30 9598 C 907.779 -2.64673 -2.24868 0
M  V30 9599 C 906.733 -3.77987 -2.00772 0
M  V30 9600 C 906.059 -4.16351 -3.35494 0
M  V30 9601 C 907.359 -5.0444 -1.35416 0
M  V30 9602 H 909.053 -2.95121 -0.504363 0
M  V30 9603 H 906.599 -1.41966 -0.24116 0
M  V30 9604 H 908.552 -3.01862 -2.94036 0
M  V30 9605 H 907.276 -1.79403 -2.72914 0
M  V30 9606 H 905.935 -3.41223 -1.34025 0
M  V30 9607 H 905.583 -3.28075 -3.81282 0
M  V30 9608 H 905.283 -4.92705 -3.20181 0
M  V30 9609 H 906.807 -4.56115 -4.05945 0
M  V30 9610 H 908.221 -5.39273 -1.94571 0
M  V30 9611 H 906.618 -5.85732 -1.30529 0
M  V30 9612 H 907.688 -4.83803 -0.325923 0
M  V30 9613 N 909.032 0.252966 -1.55557 0
M  V30 9614 C 910.309 1.00432 -1.67847 0
M  V30 9615 C 910.689 2.03587 -0.55816 0
M  V30 9616 O 910.037 2.24239 0.439197 0
M  V30 9617 C 910.247 1.64313 -3.079 0
M  V30 9618 C 911.595 2.14726 -3.66303 0
M  V30 9619 O 912.619 1.74264 -3.10661 0
M  V30 9620 O 911.478 2.89 -4.63833 0
M  V30 9621 H 908.572 0.467102 -0.682455 0
M  V30 9622 H 911.118 0.247233 -1.67889 0
M  V30 9623 H 909.89 0.896681 -3.80888 0
M  V30 9624 H 909.513 2.46657 -3.11843 0
M  V30 9625 N 910.51 1.48831 0.518367 0
M  V30 9626 C 911.738 1.6112 1.298 0
M  V30 9627 C 912.153 0.275872 1.86774 0
M  V30 9628 O 911.51 -0.736416 1.66983 0
M  V30 9629 C 911.561 2.66675 2.44063 0
M  V30 9630 O 911.282 3.95027 1.89434 0
M  V30 9631 C 912.783 2.8951 3.35706 0
M  V30 9632 H 910.003 0.542916 0.394314 0
M  V30 9633 H 912.547 1.94743 0.624142 0
M  V30 9634 H 910.702 2.35879 3.07311 0
M  V30 9635 H 911.116 4.53031 2.64316 0
M  V30 9636 H 912.59 3.67142 4.12202 0
M  V30 9637 H 913.067 1.98768 3.91648 0
M  V30 9638 H 913.673 3.21656 2.7824 0
M  V30 9639 N 911.988 -0.768124 1.37614 0
M  V30 9640 C 913.265 -1.51637 1.23554 0
M  V30 9641 C 913.645 -2.1042 -0.169331 0
M  V30 9642 O 912.993 -1.95834 -1.17735 0
M  V30 9643 C 913.203 -2.59436 2.33439 0
M  V30 9644 C 914.551 -3.2674 2.71157 0
M  V30 9645 O 915.575 -2.69733 2.32642 0
M  V30 9646 O 914.434 -4.29814 3.37524 0
M  V30 9647 H 911.528 -0.671778 0.482332 0
M  V30 9648 H 914.074 -0.804779 1.49403 0
M  V30 9649 H 912.846 -2.14146 3.27502 0
M  V30 9650 H 912.469 -3.38192 2.09073 0
M  V30 9651 N 913.466 -1.22244 -0.994698 0
M  V30 9652 C 914.416 -0.958244 -2.06886 0
M  V30 9653 C 915.4 0.0904481 -1.60646 0
M  V30 9654 O 916.592 -0.119837 -1.76594 0
M  V30 9655 C 913.721 -0.535944 -3.39091 0
M  V30 9656 C 912.807 -1.61927 -3.9197 0
M  V30 9657 N 913.198 -2.84659 -4.18094 0
M  V30 9658 C 911.496 -1.49053 -4.20356 0
M  V30 9659 C 912.197 -3.54697 -4.61048 0
M  V30 9660 N 911.173 -2.82164 -4.64634 0
M  V30 9661 H 914.975 -1.89056 -2.25022 0
M  V30 9662 H 912.489 -1.1197 -1.17629 0
M  V30 9663 H 914.486 -0.327997 -4.15608 0
M  V30 9664 H 913.146 0.38949 -3.22355 0
M  V30 9665 H 914.157 -3.21104 -4.06341 0
M  V30 9666 H 910.834 -0.631154 -4.12702 0
M  V30 9667 H 912.224 -4.59837 -4.89898 0
M  V30 9668 N 914.944 1.19125 -1.03184 0
M  V30 9669 C 915.874 2.24675 -0.635889 0
M  V30 9670 C 916.855 1.66321 0.356565 0
M  V30 9671 O 918.04 1.92728 0.238625 0
M  V30 9672 C 915.17 3.47298 0.011069 0
M  V30 9673 C 914.124 4.18345 -0.903979 0
M  V30 9674 C 913.45 5.34561 -0.12197 0
M  V30 9675 C 914.75 4.72816 -2.21907 0
M  V30 9676 H 916.444 2.5805 -1.51825 0
M  V30 9677 H 913.99 1.24039 -0.73146 0
M  V30 9678 H 915.943 4.20333 0.299729 0
M  V30 9679 H 914.667 3.13131 0.928245 0
M  V30 9680 H 913.326 3.47196 -1.17688 0
M  V30 9681 H 912.974 4.9664 0.797334 0
M  V30 9682 H 912.674 5.83029 -0.731498 0
M  V30 9683 H 914.198 6.10391 0.159881 0
M  V30 9684 H 915.612 5.3759 -1.99173 0
M  V30 9685 H 914.009 5.31782 -2.78078 0
M  V30 9686 H 915.079 3.9072 -2.87168 0
M  V30 9687 N 916.422 0.810101 1.35185 0
M  V30 9688 C 917.65 0.404696 2.02903 0
M  V30 9689 C 918.065 -0.985434 1.61042 0
M  V30 9690 O 917.422 -1.63557 0.809658 0
M  V30 9691 C 917.473 0.482493 3.58266 0
M  V30 9692 O 917.194 1.81782 3.98606 0
M  V30 9693 C 918.695 0.070345 4.43244 0
M  V30 9694 H 915.915 0.163972 0.650657 0
M  V30 9695 H 918.459 1.0947 1.72733 0
M  V30 9696 H 916.614 -0.159296 3.87072 0
M  V30 9697 H 917.028 1.78306 4.93262 0
M  V30 9698 H 918.502 0.175888 5.5172 0
M  V30 9699 H 918.979 -0.984724 4.28018 0
M  V30 9700 H 919.585 0.685427 4.1974 0
M  V30 9701 N 917.9 -1.47166 0.563914 0
M  V30 9702 C 918.83 -2.32894 -0.168148 0
M  V30 9703 C 919.811 -1.44202 -0.902214 0
M  V30 9704 O 920.996 -1.73048 -0.881365 0
M  V30 9705 C 918.126 -3.26116 -1.19439 0
M  V30 9706 C 917.08 -4.24101 -0.576363 0
M  V30 9707 C 916.406 -5.06696 -1.70772 0
M  V30 9708 C 917.706 -5.20142 0.47425 0
M  V30 9709 H 919.4 -2.9435 0.547573 0
M  V30 9710 H 916.946 -1.41545 0.264778 0
M  V30 9711 H 918.899 -3.84935 -1.71474 0
M  V30 9712 H 917.623 -2.62728 -1.94014 0
M  V30 9713 H 916.282 -3.66519 -0.0772534 0
M  V30 9714 H 915.93 -4.39707 -2.44268 0
M  V30 9715 H 915.63 -5.7304 -1.29994 0
M  V30 9716 H 917.154 -5.68375 -2.2312 0
M  V30 9717 H 918.568 -5.73286 0.0397035 0
M  V30 9718 H 916.965 -5.94726 0.801287 0
M  V30 9719 H 918.035 -4.65214 1.36764 0
M  V30 9720 N 919.378 -0.300708 -1.54705 0
M  V30 9721 C 920.308 0.568675 -2.26469 0
M  V30 9722 C 921.289 1.13817 -1.26411 0
M  V30 9723 O 922.474 1.16756 -1.55183 0
M  V30 9724 C 919.604 1.74077 -3.00524 0
M  V30 9725 C 918.558 1.30165 -4.07727 0
M  V30 9726 C 917.884 2.55888 -4.69495 0
M  V30 9727 C 919.184 0.433106 -5.20501 0
M  V30 9728 H 920.878 -0.0298851 -2.99385 0
M  V30 9729 H 918.424 -0.0158135 -1.43991 0
M  V30 9730 H 920.377 2.35506 -3.49449 0
M  V30 9731 H 919.101 2.36556 -2.25186 0
M  V30 9732 H 917.76 0.710414 -3.59651 0
M  V30 9733 H 917.408 3.16681 -3.90797 0
M  V30 9734 H 917.108 2.27207 -5.41895 0
M  V30 9735 H 918.632 3.18121 -5.21183 0
M  V30 9736 H 920.046 0.95307 -5.65322 0
M  V30 9737 H 918.443 0.240085 -5.9962 0
M  V30 9738 H 919.513 -0.541866 -4.81863 0
M  V30 9739 N 920.856 1.57574 -0.0284266 0
M  V30 9740 C 922.084 1.96071 0.660575 0
M  V30 9741 C 922.499 0.904881 1.65703 0
M  V30 9742 O 921.856 -0.113379 1.82147 0
M  V30 9743 C 921.907 3.34634 1.36756 0
M  V30 9744 O 921.628 4.36167 0.411041 0
M  V30 9745 C 923.129 3.87758 2.14845 0
M  V30 9746 H 920.349 0.645794 0.182183 0
M  V30 9747 H 922.893 2.04311 -0.0879858 0
M  V30 9748 H 921.048 3.27616 2.06753 0
M  V30 9749 H 921.462 5.16493 0.913 0
M  V30 9750 H 922.936 4.87058 2.59767 0
M  V30 9751 H 923.413 3.21967 2.9872 0
M  V30 9752 H 924.019 3.98043 1.49807 0
M  V30 9753 N 922.334 -0.244713 1.55689 0
M  V30 9754 C 923.562 -0.989944 1.8168 0
M  V30 9755 C 923.977 -1.78863 0.604449 0
M  V30 9756 O 923.334 -1.77437 -0.426907 0
M  V30 9757 C 923.385 -1.92607 3.05916 0
M  V30 9758 O 923.106 -1.1597 4.22472 0
M  V30 9759 C 924.607 -2.78711 3.44724 0
M  V30 9760 H 921.827 -0.2912 0.604519 0
M  V30 9761 H 924.371 -0.266938 2.0275 0
M  V30 9762 H 922.526 -2.60333 2.8689 0
M  V30 9763 H 922.94 -1.79311 4.92898 0
M  V30 9764 H 924.414 -3.40141 4.34751 0
M  V30 9765 H 924.891 -3.49935 2.6541 0
M  V30 9766 H 925.497 -2.16435 3.66109 0
M  V30 9767 N 923.813 -1.49104 -0.510467 0
M  V30 9768 C 925.229 -1.35657 -0.840797 0
M  V30 9769 C 925.429 -0.382425 -1.97838 0
M  V30 9770 O 924.485 0.189331 -2.51789 0
M  V30 9771 C 925.798 -2.76155 -1.18992 0
M  V30 9772 C 927.346 -2.84786 -1.29868 0
M  V30 9773 C 927.821 -4.2603 -1.68115 0
M  V30 9774 N 929.312 -4.28796 -1.75181 0
M  V30 9775 C 930.047 -5.35041 -2.062 0
M  V30 9776 N 929.543 -6.51543 -2.35508 0
M  V30 9777 N 931.336 -5.2245 -2.07371 0
M  V30 9778 H 923.487 -2.11042 0.23982 0
M  V30 9779 H 925.75 -0.946946 0.0446824 0
M  V30 9780 H 925.456 -3.49092 -0.427484 0
M  V30 9781 H 925.33 -3.10922 -2.13558 0
M  V30 9782 H 927.717 -2.12092 -2.05186 0
M  V30 9783 H 927.798 -2.53613 -0.333758 0
M  V30 9784 H 927.442 -4.99247 -0.933512 0
M  V30 9785 H 927.372 -4.5466 -2.65691 0
M  V30 9786 H 929.863 -3.44771 -1.5473 0
M  V30 9787 H 930.176 -7.28342 -2.58337 0
M  V30 9788 H 928.521 -6.54785 -2.32985 0
M  V30 9789 H 931.712 -4.30444 -1.83945 0
M  V30 9790 H 931.885 -6.05347 -2.31212 0
M  V30 9791 N 925.291 0.760815 -1.38019 0
M  V30 9792 C 926.707 1.06289 -1.19058 0
M  V30 9793 C 926.907 2.01471 -0.0342603 0
M  V30 9794 O 925.963 2.44713 0.62224 0
M  V30 9795 C 927.276 1.6499 -2.51394 0
M  V30 9796 C 928.824 1.77196 -2.58013 0
M  V30 9797 C 929.299 2.3931 -3.90506 0
M  V30 9798 N 930.79 2.46749 -3.92007 0
M  V30 9799 C 931.525 2.95687 -4.91281 0
M  V30 9800 N 931.021 3.44715 -6.00952 0
M  V30 9801 N 932.814 2.94661 -4.78677 0
M  V30 9802 H 924.965 0.129045 -2.12008 0
M  V30 9803 H 927.228 0.119878 -0.94039 0
M  V30 9804 H 926.934 1.0252 -3.36426 0
M  V30 9805 H 926.808 2.64146 -2.6927 0
M  V30 9806 H 929.195 2.38796 -1.7338 0
M  V30 9807 H 929.276 0.767645 -2.4401 0
M  V30 9808 H 928.92 1.78346 -4.75558 0
M  V30 9809 H 928.85 3.40369 -4.01817 0
M  V30 9810 H 931.341 2.12064 -3.12789 0
M  V30 9811 H 931.654 3.80492 -6.72641 0
M  V30 9812 H 929.999 3.42791 -6.04582 0
M  V30 9813 H 933.19 2.55665 -3.92113 0
M  V30 9814 H 933.363 3.32489 -5.56197 0
M  V30 9815 N 926.769 1.22769 0.988202 0
M  V30 9816 C 927.699 1.02627 2.09738 0
M  V30 9817 C 928.68 -0.0543211 1.70013 0
M  V30 9818 O 929.865 0.108811 1.93895 0
M  V30 9819 C 926.995 0.608302 3.41931 0
M  V30 9820 C 925.949 1.63536 3.95525 0
M  V30 9821 C 925.275 1.07308 5.23822 0
M  V30 9822 C 926.575 3.02649 4.25677 0
M  V30 9823 H 928.269 1.954 2.26847 0
M  V30 9824 H 925.815 0.940888 1.09011 0
M  V30 9825 H 927.768 0.454478 4.18942 0
M  V30 9826 H 926.492 -0.355095 3.24664 0
M  V30 9827 H 925.151 1.77704 3.20651 0
M  V30 9828 H 924.799 0.100894 5.02899 0
M  V30 9829 H 924.499 1.75925 5.60646 0
M  V30 9830 H 926.023 0.930938 6.03462 0
M  V30 9831 H 927.437 2.91828 4.93467 0
M  V30 9832 H 925.834 3.68434 4.73684 0
M  V30 9833 H 926.904 3.52228 3.33262 0
M  V30 9834 N 928.247 -1.18576 1.03814 0
M  V30 9835 C 929.495 -1.88121 0.738574 0
M  V30 9836 C 929.816 -1.80587 -0.735744 0
M  V30 9837 O 929.086 -1.22251 -1.53074 0
M  V30 9838 H 927.666 -0.696417 0.270208 0
M  V30 9839 H 930.328 -1.43912 1.31435 0
M  V30 9840 H 929.424 -2.94222 1.04115 0
M  V30 9841 N 929.725 -0.817259 -1.34754 0
M  V30 9842 C 930.688 -0.240611 -2.27934 0
M  V30 9843 C 931.688 0.578219 -1.50044 0
M  V30 9844 O 932.878 0.395148 -1.69659 0
M  V30 9845 C 930.01 0.663318 -3.34384 0
M  V30 9846 H 931.203 -1.06257 -2.80445 0
M  V30 9847 H 928.756 -0.588697 -1.4479 0
M  V30 9848 H 929.491 1.50855 -2.87077 0
M  V30 9849 H 929.276 0.0777388 -3.92023 0
M  V30 9850 H 930.766 1.06076 -4.03903 0
M  V30 9851 N 931.203 1.46865 -0.571711 0
M  V30 9852 C 932.151 2.31897 0.180714 0
M  V30 9853 C 933.145 1.43815 0.895191 0
M  V30 9854 O 934.351 1.60501 0.814828 0
M  V30 9855 H 930.726 0.748032 0.077148 0
M  V30 9856 H 932.697 2.93185 -0.555432 0
M  V30 9857 C 931.446 3.26766 1.18824 0
M  V30 9858 H 930.769 3.94515 0.64789 0
M  V30 9859 H 932.209 3.89067 1.68532 0
M  V30 9860 C 930.668 2.51325 2.2436 0
M  V30 9861 O 931.198 2.26825 3.31532 0
M  V30 9862 N 929.404 2.12079 1.98673 0
M  V30 9863 H 928.951 2.32204 1.1153 0
M  V30 9864 H 928.909 1.61921 2.69498 0
M  V30 9865 N 932.681 0.308908 1.54543 0
M  V30 9866 C 934.092 -0.182144 1.85809 0
M  V30 9867 C 934.443 -1.52796 1.23076 0
M  V30 9868 O 933.568 -2.09775 0.531358 0
M  V30 9869 C 934.163 -0.337275 3.37117 0
M  V30 9870 C 932.722 -0.772545 3.68387 0
M  V30 9871 C 931.869 0.114451 2.77064 0
M  V30 9872 H 934.82 0.529671 1.496 0
M  V30 9873 H 934.841 -1.17058 3.62046 0
M  V30 9874 H 934.353 0.642382 3.82747 0
M  V30 9875 H 932.454 -1.76247 3.2828 0
M  V30 9876 H 932.567 -0.586453 4.75497 0
M  V30 9877 H 930.931 -0.407581 2.51418 0
M  V30 9878 H 931.714 1.09061 3.25516 0
M  V30 9879 N 934.159 -1.57557 0.0367827 0
M  V30 9880 C 935.069 -2.14148 -0.958017 0
M  V30 9881 C 936.085 -1.09564 -1.35173 0
M  V30 9882 O 937.261 -1.4166 -1.43158 0
M  V30 9883 C 934.326 -2.6636 -2.21931 0
M  V30 9884 C 933.387 -3.85688 -1.8853 0
M  V30 9885 C 932.62 -4.35401 -3.08645 0
M  V30 9886 O 932.843 -3.8425 -4.21554 0
M  V30 9887 O 931.777 -5.27158 -2.90497 0
M  V30 9888 H 935.603 -2.99442 -0.506797 0
M  V30 9889 H 933.188 -1.48259 -0.184275 0
M  V30 9890 H 935.07 -2.99976 -2.9596 0
M  V30 9891 H 933.745 -1.84145 -2.66219 0
M  V30 9892 H 932.652 -3.56985 -1.11861 0
M  V30 9893 H 933.985 -4.69089 -1.49052 0
M  V30 9894 N 935.637 0.236453 -1.55816 0
M  V30 9895 C 937.048 0.80468 -1.68469 0
M  V30 9896 C 937.399 1.85601 -0.636133 0
M  V30 9897 O 936.524 2.15323 0.215622 0
M  V30 9898 C 937.119 1.46634 -3.05424 0
M  V30 9899 C 935.678 1.98214 -3.19981 0
M  V30 9900 C 934.825 0.83695 -2.64368 0
M  V30 9901 H 937.776 0.0120647 -1.58695 0
M  V30 9902 H 937.797 2.33472 -3.00451 0
M  V30 9903 H 937.309 0.700931 -3.81718 0
M  V30 9904 H 935.41 2.77604 -2.4853 0
M  V30 9905 H 935.523 2.17235 -4.2702 0
M  V30 9906 H 933.887 1.24028 -2.22462 0
M  V30 9907 H 934.67 0.084451 -3.43196 0
M  V30 9908 N 937.115 1.49373 0.502552 0
M  V30 9909 C 938.343 1.62488 1.28084 0
M  V30 9910 C 938.758 0.295667 1.86471 0
M  V30 9911 O 938.115 -0.718664 1.67754 0
M  V30 9912 C 938.166 2.69249 2.4122 0
M  V30 9913 O 937.887 3.97014 1.85234 0
M  V30 9914 C 939.388 2.93054 3.32617 0
M  V30 9915 H 936.608 0.547068 0.388533 0
M  V30 9916 H 939.152 1.95394 0.603452 0
M  V30 9917 H 937.307 2.39125 3.04792 0
M  V30 9918 H 937.721 4.55809 2.59496 0
M  V30 9919 H 939.195 3.71493 4.08285 0
M  V30 9920 H 939.672 2.02911 3.89517 0
M  V30 9921 H 940.278 3.24589 2.74813 0
M  V30 9922 N 938.594 -0.753485 1.38421 0
M  V30 9923 C 939.822 -1.54272 1.37868 0
M  V30 9924 C 940.237 -1.88774 -0.0315155 0
M  V30 9925 O 939.594 -1.52785 -0.998148 0
M  V30 9926 C 939.645 -2.84179 2.23438 0
M  V30 9927 O 939.366 -2.51149 3.58965 0
M  V30 9928 C 940.867 -3.78316 2.31067 0
M  V30 9929 H 938.087 -0.47735 0.47157 0
M  V30 9930 H 940.631 -0.932509 1.82001 0
M  V30 9931 H 938.786 -3.41577 1.82767 0
M  V30 9932 H 939.2 -3.34466 4.04021 0
M  V30 9933 H 940.674 -4.66418 2.95226 0
M  V30 9934 H 941.151 -4.18757 1.32436 0
M  V30 9935 H 941.757 -3.26842 2.72129 0
M  V30 9936 N 940.072 -1.23292 -0.981677 0
M  V30 9937 C 940.982 -1.02964 -2.10798 0
M  V30 9938 C 941.998 0.0254674 -1.73981 0
M  V30 9939 O 943.174 -0.169706 -2.00684 0
M  V30 9940 C 940.239 -0.621934 -3.41076 0
M  V30 9941 C 939.3 -1.75194 -3.91926 0
M  V30 9942 C 938.533 -1.36359 -5.15986 0
M  V30 9943 O 938.756 -0.247265 -5.69864 0
M  V30 9944 O 937.69 -2.18421 -5.60871 0
M  V30 9945 H 941.516 -1.97354 -2.30836 0
M  V30 9946 H 939.101 -1.01986 -1.09175 0
M  V30 9947 H 940.983 -0.405446 -4.19445 0
M  V30 9948 H 939.658 0.29299 -3.22371 0
M  V30 9949 H 938.565 -2.02305 -3.1468 0
M  V30 9950 H 939.898 -2.64513 -4.15083 0
M  V30 9951 N 941.55 1.18024 -1.04442 0
M  V30 9952 C 942.796 1.88631 -0.760907 0
M  V30 9953 C 943.151 1.79059 0.703957 0
M  V30 9954 O 942.444 1.18261 1.50748 0
M  V30 9955 C 942.638 3.37834 -1.16631 0
M  V30 9956 C 942.467 3.61929 -2.66904 0
M  V30 9957 C 941.237 3.7908 -3.34105 0
M  V30 9958 C 943.435 3.622 -3.65124 0
M  V30 9959 N 941.417 3.90949 -4.73321 0
M  V30 9960 C 942.788 3.79827 -4.90032 0
M  V30 9961 C 944.843 3.45308 -3.58701 0
M  V30 9962 C 943.546 3.82312 -6.09287 0
M  V30 9963 C 945.572 3.49078 -4.77387 0
M  V30 9964 C 944.934 3.67206 -6.01115 0
M  V30 9965 H 941.033 0.708704 -0.330549 0
M  V30 9966 H 943.617 1.41739 -1.33485 0
M  V30 9967 H 941.788 3.83413 -0.6204 0
M  V30 9968 H 943.52 3.96026 -0.83342 0
M  V30 9969 H 940.275 3.78619 -2.84508 0
M  V30 9970 H 940.699 4.00696 -5.45685 0
M  V30 9971 H 945.341 3.30236 -2.64015 0
M  V30 9972 H 943.059 3.96171 -7.04325 0
M  V30 9973 H 946.645 3.37277 -4.74063 0
M  V30 9974 H 945.525 3.70017 -6.91417 0
M  V30 9975 N 943.028 0.824394 1.34319 0
M  V30 9976 C 944.277 0.40956 1.97498 0
M  V30 9977 C 944.59 -1.03323 1.66083 0
M  V30 9978 O 945.796 -1.55205 2.22764 0
M  V30 9979 C 944.252 0.681384 3.53391 0
M  V30 9980 C 943.86 2.1379 3.93698 0
M  V30 9981 C 945.604 0.332788 4.23194 0
M  V30 9982 C 943.511 2.35453 5.42509 0
M  V30 9983 H 942.441 0.149409 0.739049 0
M  V30 9984 H 945.092 1.01095 1.5314 0
M  V30 9985 H 943.474 0.00980375 3.95999 0
M  V30 9986 H 944.648 2.84876 3.62191 0
M  V30 9987 H 942.963 2.44807 3.36836 0
M  V30 9988 H 945.56 0.472463 5.32609 0
M  V30 9989 H 945.903 -0.722862 4.09976 0
M  V30 9990 H 946.436 0.959005 3.86067 0
M  V30 9991 H 943.175 3.39529 5.60714 0
M  V30 9992 H 942.695 1.68912 5.75525 0
M  V30 9993 H 944.374 2.17885 6.09209 0
M  V30 9994 N 944.506 -1.46559 0.579492 0
M  V30 9995 C 945.752 -2.02699 0.0639363 0
M  V30 9996 C 946.085 -1.4504 -1.29139 0
M  V30 9997 O 945.36 -0.614284 -1.84545 0
M  V30 9998 C 945.643 -3.601 -0.00528618 0
M  V30 9999 C 945.496 -4.28149 1.37871 0
M  V30 10000 C 946.815 -4.34375 -0.707537 0
M  V30 10001 H 943.934 -0.736586 0.0247085 0
M  V30 10002 H 946.576 -1.74739 0.746071 0
M  V30 10003 H 944.726 -3.84052 -0.586206 0
M  V30 10004 H 946.398 -4.1547 2.00455 0
M  V30 10005 H 944.641 -3.87636 1.94732 0
M  V30 10006 H 945.312 -5.36888 1.28278 0
M  V30 10007 H 947.788 -4.15549 -0.214064 0
M  V30 10008 H 946.664 -5.44091 -0.724992 0
M  V30 10009 H 946.925 -4.052 -1.7682 0
M  V30 10010 N 945.984 -0.3171 -1.54377 0
M  V30 10011 C 947.232 0.286842 -2.00054 0
M  V30 10012 C 947.553 1.53161 -1.20692 0
M  V30 10013 O 946.823 1.93479 -0.307045 0
M  V30 10014 H 945.403 0.108979 -0.739008 0
M  V30 10015 H 948.065 -0.432152 -1.90049 0
M  V30 10016 H 947.161 0.547729 -3.07256 0
M  V30 10017 N 947.462 1.57535 -0.0451378 0
M  V30 10018 C 948.409 2.11176 0.931313 0
M  V30 10019 C 949.379 1.01765 1.31275 0
M  V30 10020 O 950.564 1.29279 1.40327 0
M  V30 10021 C 947.704 2.65639 2.20295 0
M  V30 10022 C 946.817 3.89114 1.87654 0
M  V30 10023 C 945.952 4.31914 3.09232 0
M  V30 10024 C 944.991 5.48105 2.72484 0
M  V30 10025 N 944.128 5.85986 3.86736 0
M  V30 10026 H 948.968 2.94318 0.466986 0
M  V30 10027 H 946.505 1.45462 0.218886 0
M  V30 10028 H 948.463 2.95312 2.94697 0
M  V30 10029 H 947.093 1.85303 2.64316 0
M  V30 10030 H 946.145 3.6607 1.03427 0
M  V30 10031 H 947.457 4.7358 1.56601 0
M  V30 10032 H 946.611 4.63108 3.91939 0
M  V30 10033 H 945.35 3.46247 3.43459 0
M  V30 10034 H 944.355 5.16589 1.88192 0
M  V30 10035 H 945.58 6.35482 2.39455 0
M  V30 10036 H 943.526 5.03273 4.20775 0
M  V30 10037 H 943.443 6.65129 3.5936 0
M  V30 10038 H 944.711 6.21793 4.701 0
M  V30 10039 N 948.94 -0.228186 1.55939 0
M  V30 10040 C 950.168 -0.970618 1.8272 0
M  V30 10041 C 950.583 -1.78212 0.623385 0
M  V30 10042 O 949.94 -1.77879 -0.408063 0
M  V30 10043 C 949.991 -1.89352 3.07942 0
M  V30 10044 O 949.712 -1.11483 4.23678 0
M  V30 10045 C 951.213 -2.75039 3.47661 0
M  V30 10046 H 948.433 -0.284772 0.607574 0
M  V30 10047 H 950.977 -0.245419 2.03022 0
M  V30 10048 H 949.132 -2.57275 2.89635 0
M  V30 10049 H 949.546 -1.74073 4.94772 0
M  V30 10050 H 951.02 -3.35511 4.38334 0
M  V30 10051 H 951.497 -3.471 2.69106 0
M  V30 10052 H 952.103 -2.1254 3.68384 0
M  V30 10053 N 950.418 -1.49637 -0.494624 0
M  V30 10054 C 951.664 -1.59681 -1.25019 0
M  V30 10055 C 951.997 -0.285511 -1.9209 0
M  V30 10056 O 951.272 0.711398 -1.81023 0
M  V30 10057 C 951.555 -2.76058 -2.31222 0
M  V30 10058 C 951.408 -4.17002 -1.68611 0
M  V30 10059 C 952.727 -2.88056 -3.32734 0
M  V30 10060 H 949.846 -0.581209 -0.453172 0
M  V30 10061 H 952.488 -1.81944 -0.547391 0
M  V30 10062 H 950.638 -2.57207 -2.91164 0
M  V30 10063 H 952.31 -4.47385 -1.12447 0
M  V30 10064 H 950.553 -4.22352 -0.989991 0
M  V30 10065 H 951.224 -4.94316 -2.45674 0
M  V30 10066 H 953.7 -3.05237 -2.82789 0
M  V30 10067 H 952.576 -3.71151 -4.04399 0
M  V30 10068 H 952.837 -1.97676 -3.95445 0
M  V30 10069 N 951.896 0.746133 -1.38819 0
M  V30 10070 C 953.312 1.0502 -1.20179 0
M  V30 10071 C 953.512 2.01423 -0.0556271 0
M  V30 10072 O 952.568 2.45359 0.59625 0
M  V30 10073 C 953.881 1.62315 -2.53129 0
M  V30 10074 C 955.429 1.74449 -2.59878 0
M  V30 10075 C 955.904 2.35155 -3.93022 0
M  V30 10076 N 957.395 2.42577 -3.94602 0
M  V30 10077 C 958.13 2.9046 -4.94389 0
M  V30 10078 N 957.626 3.38322 -6.04574 0
M  V30 10079 N 959.419 2.89568 -4.81775 0
M  V30 10080 H 951.57 0.106551 -2.12133 0
M  V30 10081 H 953.833 0.109897 -0.941609 0
M  V30 10082 H 953.539 0.98946 -3.37495 0
M  V30 10083 H 953.413 2.61276 -2.72057 0
M  V30 10084 H 955.8 2.36943 -1.75903 0
M  V30 10085 H 955.881 0.741721 -2.4481 0
M  V30 10086 H 955.525 1.73292 -4.77422 0
M  V30 10087 H 955.455 3.36088 -4.05404 0
M  V30 10088 H 957.946 2.08735 -3.15021 0
M  V30 10089 H 958.259 3.73336 -6.76639 0
M  V30 10090 H 956.604 3.3636 -6.08184 0
M  V30 10091 H 959.795 2.51492 -3.94803 0
M  V30 10092 H 959.968 3.26571 -5.59692 0
M  V30 10093 N 953.375 1.23811 0.975125 0
M  V30 10094 C 954.323 1.02149 2.0897 0
M  V30 10095 C 955.317 -0.0412172 1.6935 0
M  V30 10096 O 956.523 0.112726 1.79647 0
M  V30 10097 H 952.898 0.313259 0.683647 0
M  V30 10098 H 954.869 1.96686 2.24404 0
M  V30 10099 C 953.618 0.635023 3.41852 0
M  V30 10100 H 952.941 1.44449 3.72793 0
M  V30 10101 H 954.381 0.52301 4.20762 0
M  V30 10102 C 952.84 -0.657207 3.30428 0
M  V30 10103 O 953.37 -1.70494 3.63723 0
M  V30 10104 N 951.576 -0.635122 2.83575 0
M  V30 10105 H 951.123 0.21784 2.56677 0
M  V30 10106 H 951.081 -1.49995 2.76313 0
M  V30 10107 N 954.853 -1.17469 1.05066 0
M  V30 10108 C 956.1 -1.87698 0.759987 0
M  V30 10109 C 956.428 -1.80964 -0.712902 0
M  V30 10110 O 955.683 -1.21146 -1.53695 0
M  V30 10111 C 955.982 -3.37211 1.18421 0
M  V30 10112 C 955.648 -3.64148 2.65909 0
M  V30 10113 C 954.31 -3.71209 3.06199 0
M  V30 10114 C 956.662 -3.75724 3.61222 0
M  V30 10115 C 953.99 -3.87334 4.40669 0
M  V30 10116 C 956.342 -3.93368 4.95424 0
M  V30 10117 C 955.006 -3.98667 5.3537 0
M  V30 10118 H 954.276 -0.686835 0.278099 0
M  V30 10119 H 956.923 -1.38975 1.31751 0
M  V30 10120 H 955.228 -3.87982 0.545654 0
M  V30 10121 H 956.925 -3.89911 0.936518 0
M  V30 10122 H 953.515 -3.59276 2.33707 0
M  V30 10123 H 957.699 -3.69591 3.31235 0
M  V30 10124 H 952.955 -3.89685 4.71122 0
M  V30 10125 H 957.129 -4.01267 5.69173 0
M  V30 10126 H 954.756 -4.10915 6.39572 0
M  V30 10127 N 956.331 -0.831506 -1.3388 0
M  V30 10128 C 957.559 -0.436925 -2.02234 0
M  V30 10129 C 957.974 0.959689 -1.6259 0
M  V30 10130 O 957.331 1.62248 -0.835576 0
M  V30 10131 C 957.382 -0.539429 -3.57453 0
M  V30 10132 O 957.103 -1.88101 -3.95664 0
M  V30 10133 C 958.604 -0.140852 -4.43076 0
M  V30 10134 H 955.824 -0.174302 -0.647966 0
M  V30 10135 H 958.368 -1.12204 -1.70969 0
M  V30 10136 H 956.523 0.0976959 -3.87277 0
M  V30 10137 H 956.937 -1.86131 -4.90363 0
M  V30 10138 H 958.411 -0.26364 -5.5137 0
M  V30 10139 H 958.888 0.916505 -4.29531 0
M  V30 10140 H 959.494 -0.752117 -4.18597 0
M  V30 10141 N 957.809 1.4625 -0.587256 0
M  V30 10142 C 959.055 2.02662 -0.0746851 0
M  V30 10143 C 959.388 1.45723 1.28368 0
M  V30 10144 O 958.663 0.624062 1.84216 0
M  V30 10145 C 958.946 3.60097 -0.0138109 0
M  V30 10146 C 958.799 4.27412 -1.4014 0
M  V30 10147 C 960.118 4.34744 0.684491 0
M  V30 10148 H 957.237 0.736444 -0.0286144 0
M  V30 10149 H 959.879 1.74341 -0.755328 0
M  V30 10150 H 958.029 3.84357 0.56583 0
M  V30 10151 H 959.701 4.14401 -2.02656 0
M  V30 10152 H 957.944 3.86598 -1.96785 0
M  V30 10153 H 958.615 5.362 -1.31124 0
M  V30 10154 H 961.091 4.15657 0.192023 0
M  V30 10155 H 959.967 5.44468 0.696127 0
M  V30 10156 H 960.228 4.06132 1.74669 0
M  V30 10157 N 959.287 0.325282 1.54207 0
M  V30 10158 C 960.564 -0.33113 1.92777 0
M  V30 10159 C 960.944 -1.69739 1.25506 0
M  V30 10160 O 960.292 -2.24983 0.399385 0
M  V30 10161 C 960.502 -0.421636 3.46444 0
M  V30 10162 C 961.85 -0.681111 4.19101 0
M  V30 10163 O 962.874 -0.504488 3.52609 0
M  V30 10164 O 961.733 -1.02196 5.3686 0
M  V30 10165 H 958.827 -0.18943 0.805013 0
M  V30 10166 H 961.373 0.375123 1.65502 0
M  V30 10167 H 960.145 0.537862 3.87586 0
M  V30 10168 H 959.768 -1.1754 3.79829 0
M  V30 10169 N 960.765 -1.57509 0.0534917 0
M  V30 10170 C 962.181 -1.56696 -0.303067 0
M  V30 10171 C 962.381 -1.06135 -1.71282 0
M  V30 10172 O 961.437 -0.71899 -2.42047 0
M  V30 10173 C 962.75 -3.00421 -0.129418 0
M  V30 10174 C 964.298 -3.12358 -0.200346 0
M  V30 10175 C 964.773 -4.57967 -0.0551971 0
M  V30 10176 N 966.264 -4.63066 -0.111398 0
M  V30 10177 C 966.999 -5.73395 -0.0232344 0
M  V30 10178 N 966.495 -6.92701 0.11741 0
M  V30 10179 N 968.288 -5.62045 -0.078984 0
M  V30 10180 H 960.439 -1.88696 0.975064 0
M  V30 10181 H 962.702 -0.869072 0.378706 0
M  V30 10182 H 962.408 -3.41456 0.842653 0
M  V30 10183 H 962.282 -3.66563 -0.889476 0
M  V30 10184 H 964.669 -2.71221 -1.16289 0
M  V30 10185 H 964.75 -2.48891 0.590506 0
M  V30 10186 H 964.394 -4.9979 0.904034 0
M  V30 10187 H 964.324 -5.19443 -0.865223 0
M  V30 10188 H 966.815 -3.77263 -0.219256 0
M  V30 10189 H 967.128 -7.72597 0.177326 0
M  V30 10190 H 965.473 -6.94833 0.152526 0
M  V30 10191 H 968.664 -4.67725 -0.187434 0
M  V30 10192 H 968.837 -6.48 -0.00681731 0
M  V30 10193 N 962.243 0.219913 -1.56058 0
M  V30 10194 C 963.52 0.968493 -1.6994 0
M  V30 10195 C 963.9 2.02358 -0.601219 0
M  V30 10196 O 963.248 2.25121 0.391534 0
M  V30 10197 C 963.458 1.57745 -3.11316 0
M  V30 10198 C 964.806 2.06908 -3.70775 0
M  V30 10199 O 965.83 1.67636 -3.14288 0
M  V30 10200 O 964.689 2.79096 -4.69859 0
M  V30 10201 H 961.783 0.452521 -0.692209 0
M  V30 10202 H 964.329 0.211566 -1.68376 0
M  V30 10203 H 963.101 0.815687 -3.82704 0
M  V30 10204 H 962.724 2.39987 -3.17005 0
M  V30 10205 N 963.721 1.49897 0.486681 0
M  V30 10206 C 964.969 1.59789 1.23742 0
M  V30 10207 C 965.29 0.293056 1.92785 0
M  V30 10208 O 964.56 -0.688534 1.83401 0
M  V30 10209 H 963.14 0.588775 0.459731 0
M  V30 10210 H 965.802 1.86597 0.562808 0
M  V30 10211 H 964.898 2.40121 1.9937 0
M  V30 10212 N 965.199 -0.738761 1.39212 0
M  V30 10213 C 966.129 -1.86602 1.40364 0
M  V30 10214 C 967.11 -1.67984 0.267495 0
M  V30 10215 O 968.295 -1.88358 0.472765 0
M  V30 10216 C 965.425 -3.24308 1.24265 0
M  V30 10217 C 964.379 -3.57557 2.35239 0
M  V30 10218 C 963.705 -4.94159 2.04233 0
M  V30 10219 C 965.005 -3.60914 3.77543 0
M  V30 10220 H 966.699 -1.85896 2.34698 0
M  V30 10221 H 964.245 -0.892959 1.1297 0
M  V30 10222 H 966.198 -4.02838 1.23692 0
M  V30 10223 H 964.922 -3.25531 0.263974 0
M  V30 10224 H 963.581 -2.81354 2.35022 0
M  V30 10225 H 963.229 -4.91959 1.04813 0
M  V30 10226 H 962.929 -5.17373 2.78567 0
M  V30 10227 H 964.453 -5.7505 2.05303 0
M  V30 10228 H 965.867 -4.29528 3.79709 0
M  V30 10229 H 964.264 -3.95644 4.51205 0
M  V30 10230 H 965.334 -2.60803 4.08791 0
M  V30 10231 N 966.677 -1.24326 -0.968545 0
M  V30 10232 C 967.587 -1.05194 -2.09694 0
M  V30 10233 C 968.603 0.00701291 -1.73999 0
M  V30 10234 O 969.779 -0.190981 -2.00492 0
M  V30 10235 C 966.844 -0.658075 -3.40397 0
M  V30 10236 C 965.905 -1.79341 -3.90045 0
M  V30 10237 C 965.138 -1.41824 -5.14511 0
M  V30 10238 O 965.361 -0.307693 -5.69569 0
M  V30 10239 O 964.295 -2.24358 -5.58522 0
M  V30 10240 H 968.121 -1.99791 -2.2873 0
M  V30 10241 H 965.706 -1.03138 -1.08088 0
M  V30 10242 H 967.588 -0.449911 -4.18991 0
M  V30 10243 H 966.263 0.258782 -3.22664 0
M  V30 10244 H 965.17 -2.05632 -3.12516 0
M  V30 10245 H 966.503 -2.68901 -4.12254 0
M  V30 10246 N 968.156 1.1691 -1.05688 0
M  V30 10247 C 969.386 1.90927 -0.789339 0
M  V30 10248 C 969.794 1.77339 0.659369 0
M  V30 10249 O 969.137 1.11147 1.4626 0
M  V30 10250 C 969.199 3.42361 -1.09677 0
M  V30 10251 C 968.863 3.79733 -2.54267 0
M  V30 10252 C 969.86 3.82163 -3.52487 0
M  V30 10253 C 967.545 4.10547 -2.89406 0
M  V30 10254 C 969.539 4.14884 -4.8389 0
M  V30 10255 C 967.226 4.42936 -4.21011 0
M  V30 10256 C 968.224 4.45084 -5.18063 0
M  V30 10257 O 967.912 4.76707 -6.47307 0
M  V30 10258 H 967.644 0.612466 -0.286115 0
M  V30 10259 H 970.198 1.4916 -1.4121 0
M  V30 10260 H 968.428 3.84446 -0.416924 0
M  V30 10261 H 970.117 3.97645 -0.814456 0
M  V30 10262 H 970.883 3.58476 -3.26681 0
M  V30 10263 H 966.762 4.08044 -2.14525 0
M  V30 10264 H 970.306 4.16475 -5.59638 0
M  V30 10265 H 966.203 4.66088 -4.46579 0
M  V30 10266 H 966.971 4.94544 -6.52203 0
M  V30 10267 N 969.634 0.838594 1.33437 0
M  V30 10268 C 970.883 0.430484 1.97053 0
M  V30 10269 C 971.196 -1.01556 1.6717 0
M  V30 10270 O 972.402 -1.52834 2.24397 0
M  V30 10271 C 970.858 0.718828 3.52648 0
M  V30 10272 C 970.466 2.17953 3.91408 0
M  V30 10273 C 972.21 0.377654 4.22817 0
M  V30 10274 C 970.117 2.41194 5.39981 0
M  V30 10275 H 969.047 0.157239 0.737422 0
M  V30 10276 H 971.698 1.02714 1.5206 0
M  V30 10277 H 970.08 0.0518042 3.95966 0
M  V30 10278 H 971.254 2.88701 3.59149 0
M  V30 10279 H 969.569 2.48366 3.34221 0
M  V30 10280 H 972.166 0.528926 5.32077 0
M  V30 10281 H 972.509 -0.679338 4.1072 0
M  V30 10282 H 973.042 0.999899 3.85028 0
M  V30 10283 H 969.781 3.45457 5.57081 0
M  V30 10284 H 969.301 1.75007 5.73701 0
M  V30 10285 H 970.98 2.24334 6.06863 0
M  V30 10286 N 971.112 -1.45937 0.595003 0
M  V30 10287 C 972.358 -2.03184 0.0938125 0
M  V30 10288 C 972.713 -1.45675 -1.25684 0
M  V30 10289 O 972.006 -0.617122 -1.8139 0
M  V30 10290 C 972.2 -3.57396 -0.0173747 0
M  V30 10291 C 972.029 -4.29861 1.32096 0
M  V30 10292 C 970.799 -4.68285 1.89835 0
M  V30 10293 C 972.997 -4.6262 2.24693 0
M  V30 10294 N 970.979 -5.25554 3.17279 0
M  V30 10295 C 972.35 -5.20589 3.36729 0
M  V30 10296 C 974.405 -4.44555 2.24221 0
M  V30 10297 C 973.108 -5.62398 4.48443 0
M  V30 10298 C 975.134 -4.87388 3.34973 0
M  V30 10299 C 974.496 -5.45439 4.4573 0
M  V30 10300 H 970.595 -0.77816 0.0773994 0
M  V30 10301 H 973.179 -1.77926 0.790599 0
M  V30 10302 H 971.35 -3.82341 -0.683354 0
M  V30 10303 H 973.082 -4.01292 -0.524073 0
M  V30 10304 H 969.837 -4.51437 1.43185 0
M  V30 10305 H 970.261 -5.58699 3.8234 0
M  V30 10306 H 974.903 -3.98998 1.39857 0
M  V30 10307 H 972.621 -6.06927 5.3354 0
M  V30 10308 H 976.207 -4.75152 3.3574 0
M  V30 10309 H 975.087 -5.77975 5.30014 0
M  V30 10310 N 972.59 -0.333456 -1.54032 0
M  V30 10311 C 973.838 0.265608 -2.00347 0
M  V30 10312 C 974.159 1.51873 -1.2231 0
M  V30 10313 O 973.429 1.93142 -0.327549 0
M  V30 10314 H 972.009 0.101135 -0.740122 0
M  V30 10315 H 974.671 -0.452285 -1.8958 0
M  V30 10316 H 973.767 0.51511 -3.0782 0
M  V30 10317 N 974.068 1.57479 -0.061844 0
M  V30 10318 C 975.016 2.13346 0.926629 0
M  V30 10319 C 976.01 1.06787 1.31502 0
M  V30 10320 O 977.216 1.25181 1.29343 0
M  V30 10321 H 973.591 0.682046 0.316729 0
M  V30 10322 H 975.562 2.95279 0.430424 0
M  V30 10323 C 974.311 2.70198 2.18834 0
M  V30 10324 H 973.634 3.51859 1.89829 0
M  V30 10325 H 975.074 3.12897 2.86132 0
M  V30 10326 C 973.533 1.64481 2.9402 0
M  V30 10327 O 974.063 1.0639 3.87355 0
M  V30 10328 N 972.269 1.35749 2.56944 0
M  V30 10329 H 971.816 1.83177 1.81119 0
M  V30 10330 H 971.774 0.652469 3.07555 0
M  V30 10331 N 975.546 -0.211634 1.56173 0
M  V30 10332 C 976.496 -1.26602 1.8962 0
M  V30 10333 C 977.48 -1.41808 0.760222 0
M  V30 10334 O 978.672 -1.44456 1.02281 0
M  V30 10335 C 975.801 -2.61438 2.22497 0
M  V30 10336 C 974.887 -2.50094 3.42511 0
M  V30 10337 N 975.278 -2.0841 4.60868 0
M  V30 10338 C 973.576 -2.81028 3.46322 0
M  V30 10339 C 974.277 -2.08557 5.43028 0
M  V30 10340 N 973.253 -2.49427 4.82998 0
M  V30 10341 H 977.055 -0.934806 2.78637 0
M  V30 10342 H 974.569 -0.420154 1.56871 0
M  V30 10343 H 976.566 -3.37577 2.44638 0
M  V30 10344 H 975.226 -2.95397 1.34798 0
M  V30 10345 H 976.237 -1.79382 4.85842 0
M  V30 10346 H 972.914 -3.19294 2.68994 0
M  V30 10347 H 974.304 -1.7837 6.47791 0
M  V30 10348 N 977.024 -1.50153 -0.478725 0
M  V30 10349 C 977.934 -1.71232 -1.60364 0
M  V30 10350 C 978.95 -0.595269 -1.63501 0
M  V30 10351 O 980.126 -0.872683 -1.81511 0
M  V30 10352 C 977.191 -1.79487 -2.96623 0
M  V30 10353 C 976.252 -3.03185 -3.03937 0
M  V30 10354 C 975.485 -3.11036 -4.33696 0
M  V30 10355 O 975.708 -2.2588 -5.23769 0
M  V30 10356 O 974.642 -4.03698 -4.46443 0
M  V30 10357 H 978.468 -2.66575 -1.45505 0
M  V30 10358 H 976.053 -1.34158 -0.65741 0
M  V30 10359 H 977.935 -1.8714 -3.77567 0
M  V30 10360 H 976.61 -0.873264 -3.11698 0
M  V30 10361 H 975.517 -3.01036 -2.22099 0
M  V30 10362 H 976.85 -3.94898 -2.93796 0
M  V30 10363 N 978.502 0.731368 -1.39602 0
M  V30 10364 C 979.913 1.30981 -1.33045 0
M  V30 10365 C 980.264 1.962 0.00349918 0
M  V30 10366 O 979.389 1.96539 0.905615 0
M  V30 10367 C 979.984 2.3817 -2.40958 0
M  V30 10368 C 978.543 2.91678 -2.3791 0
M  V30 10369 C 977.69 1.65286 -2.22656 0
M  V30 10370 H 980.641 0.528615 -1.49637 0
M  V30 10371 H 980.662 3.18645 -2.07955 0
M  V30 10372 H 980.174 1.90673 -3.38032 0
M  V30 10373 H 978.275 3.43446 -1.44485 0
M  V30 10374 H 978.388 3.44545 -3.32904 0
M  V30 10375 H 976.752 1.89759 -1.69893 0
M  V30 10376 H 977.535 1.19836 -3.21705 0
M  V30 10377 N 979.98 1.24838 0.961938 0
M  V30 10378 C 981.226 1.09313 1.70817 0
M  V30 10379 C 981.559 -0.366244 1.90715 0
M  V30 10380 O 980.834 -1.27036 1.47282 0
M  V30 10381 C 981.117 1.83988 3.09549 0
M  V30 10382 C 980.97 3.3771 2.97106 0
M  V30 10383 C 982.289 1.61718 4.09311 0
M  V30 10384 H 979.408 0.398498 0.619974 0
M  V30 10385 H 982.05 1.53579 1.11864 0
M  V30 10386 H 980.2 1.46363 3.59875 0
M  V30 10387 H 981.872 3.84967 2.54161 0
M  V30 10388 H 980.115 3.65795 2.33187 0
M  V30 10389 H 980.786 3.85166 3.95412 0
M  V30 10390 H 983.262 1.94458 3.67866 0
M  V30 10391 H 982.138 2.16415 5.04436 0
M  V30 10392 H 982.399 0.55677 4.3858 0
M  V30 10393 N 981.458 -1.16348 1.06306 0
M  V30 10394 C 982.874 -1.38873 0.786543 0
M  V30 10395 C 983.074 -1.91915 -0.614061 0
M  V30 10396 O 982.13 -2.11804 -1.3746 0
M  V30 10397 C 983.443 -2.36936 1.85154 0
M  V30 10398 C 984.991 -2.5062 1.87506 0
M  V30 10399 C 985.466 -3.51965 2.9306 0
M  V30 10400 N 986.957 -3.59492 2.92095 0
M  V30 10401 C 987.692 -4.37699 3.70415 0
M  V30 10402 N 987.188 -5.19327 4.58553 0
M  V30 10403 N 988.981 -4.32683 3.58806 0
M  V30 10404 H 981.132 -0.802542 1.96655 0
M  V30 10405 H 983.395 -0.415304 0.852189 0
M  V30 10406 H 983.101 -2.05056 2.85736 0
M  V30 10407 H 982.975 -3.36585 1.70267 0
M  V30 10408 H 985.362 -2.81804 0.875827 0
M  V30 10409 H 985.443 -1.51006 2.06472 0
M  V30 10410 H 985.087 -3.21518 3.93177 0
M  V30 10411 H 985.017 -4.51309 2.71344 0
M  V30 10412 H 987.508 -3.01222 2.28197 0
M  V30 10413 H 987.821 -5.76216 5.1497 0
M  V30 10414 H 986.166 -5.1867 4.62608 0
M  V30 10415 H 989.357 -3.67971 2.89335 0
M  V30 10416 H 989.53 -4.93386 4.20088 0
M  V30 10417 N 982.937 -0.845659 -1.3299 0
M  V30 10418 C 984.183 -0.445311 -1.9785 0
M  V30 10419 C 984.516 0.994476 -1.66805 0
M  V30 10420 O 983.791 1.69636 -0.95151 0
M  V30 10421 C 984.074 -0.674371 -3.53729 0
M  V30 10422 C 983.927 -2.16192 -3.94437 0
M  V30 10423 C 985.246 -0.124908 -4.39923 0
M  V30 10424 H 982.365 -0.163269 -0.718688 0
M  V30 10425 H 985.007 -1.06242 -1.5752 0
M  V30 10426 H 983.157 -0.149091 -3.88214 0
M  V30 10427 H 984.829 -2.75259 -3.70176 0
M  V30 10428 H 983.072 -2.64386 -3.43922 0
M  V30 10429 H 983.743 -2.27292 -5.03033 0
M  V30 10430 H 986.219 -0.573986 -4.12122 0
M  V30 10431 H 985.095 -0.314816 -5.47996 0
M  V30 10432 H 985.356 0.971758 -4.31288 0
M  V30 10433 N 984.415 1.45619 -0.602734 0
M  V30 10434 C 985.645 2.06348 -0.102105 0
M  V30 10435 C 986.053 1.44884 1.21677 0
M  V30 10436 O 985.396 0.555559 1.75098 0
M  V30 10437 C 985.458 3.59309 0.117026 0
M  V30 10438 C 985.122 4.43081 -1.11931 0
M  V30 10439 C 986.119 4.78364 -2.03627 0
M  V30 10440 C 983.804 4.83908 -1.34677 0
M  V30 10441 C 985.798 5.53325 -3.16403 0
M  V30 10442 C 983.485 5.58624 -2.47754 0
M  V30 10443 C 984.483 5.93249 -3.38445 0
M  V30 10444 O 984.171 6.6645 -4.49555 0
M  V30 10445 H 983.903 0.672988 -0.0637478 0
M  V30 10446 H 986.457 1.87928 -0.828983 0
M  V30 10447 H 984.687 3.76111 0.898742 0
M  V30 10448 H 986.376 4.01897 0.568649 0
M  V30 10449 H 987.142 4.47384 -1.87277 0
M  V30 10450 H 983.021 4.56396 -0.649875 0
M  V30 10451 H 986.565 5.80268 -3.87214 0
M  V30 10452 H 982.462 5.89019 -2.64059 0
M  V30 10453 H 983.23 6.84895 -4.48175 0
M  V30 10454 N 985.893 0.34162 1.53853 0
M  V30 10455 C 986.856 -0.503541 2.236 0
M  V30 10456 C 987.856 -1.02912 1.23554 0
M  V30 10457 O 989.046 -0.918678 1.48007 0
M  V30 10458 C 986.178 -1.70126 2.95415 0
M  V30 10459 H 987.371 0.106437 2.99711 0
M  V30 10460 H 984.924 0.0929408 1.56023 0
M  V30 10461 H 985.659 -2.34999 2.23486 0
M  V30 10462 H 985.444 -1.33161 3.68796 0
M  V30 10463 H 986.934 -2.30077 3.48503 0
M  V30 10464 N 987.371 -1.57444 0.0701946 0
M  V30 10465 C 988.303 -2.09611 -0.927142 0
M  V30 10466 C 989.316 -1.02791 -1.26245 0
M  V30 10467 O 990.505 -1.30309 -1.21992 0
M  V30 10468 C 987.605 -2.54015 -2.24342 0
M  V30 10469 C 986.778 -3.84389 -2.08719 0
M  V30 10470 C 985.837 -4.14904 -3.23638 0
M  V30 10471 O 984.863 -4.84528 -2.98699 0
M  V30 10472 N 986.065 -3.68322 -4.48686 0
M  V30 10473 H 988.83 -2.95803 -0.481753 0
M  V30 10474 H 986.391 -1.61487 -0.115572 0
M  V30 10475 H 988.383 -2.71492 -3.00124 0
M  V30 10476 H 986.953 -1.72969 -2.60385 0
M  V30 10477 H 986.173 -3.76308 -1.17415 0
M  V30 10478 H 987.461 -4.69729 -1.9553 0
M  V30 10479 H 986.859 -3.12073 -4.71834 0
M  V30 10480 H 985.416 -3.91002 -5.21499 0
M  V30 10481 N 988.849 0.203349 -1.56283 0
M  V30 10482 C 989.759 1.27266 -1.9708 0
M  V30 10483 C 990.775 1.50268 -0.877236 0
M  V30 10484 O 991.951 1.63044 -1.18231 0
M  V30 10485 C 989.016 2.59871 -2.29495 0
M  V30 10486 C 988.077 2.45012 -3.52516 0
M  V30 10487 C 987.31 3.71293 -3.83376 0
M  V30 10488 O 987.533 4.75106 -3.15643 0
M  V30 10489 O 986.467 3.67316 -4.76826 0
M  V30 10490 H 990.293 0.956461 -2.88246 0
M  V30 10491 H 987.878 0.407688 -1.4373 0
M  V30 10492 H 989.76 3.38152 -2.51458 0
M  V30 10493 H 988.435 2.91135 -1.415 0
M  V30 10494 H 987.342 1.6487 -3.35811 0
M  V30 10495 H 988.675 2.18683 -4.40952 0
M  V30 10496 N 990.327 1.50405 0.470755 0
M  V30 10497 C 991.552 1.65442 1.25075 0
M  V30 10498 C 991.977 0.337612 1.85045 0
M  V30 10499 O 991.335 -0.698555 1.67302 0
M  V30 10500 C 991.383 2.74793 2.33498 0
M  V30 10501 O 990.487 2.36069 3.3815 0
M  V30 10502 H 989.828 0.552728 0.367951 0
M  V30 10503 H 992.358 1.96782 0.560177 0
M  V30 10504 H 992.368 2.97879 2.78804 0
M  V30 10505 H 991.043 3.70363 1.8922 0
M  V30 10506 H 989.62 2.2343 2.98552 0
M  V30 10507 N 991.805 -0.723954 1.39988 0
M  V30 10508 C 992.768 -1.81973 1.3935 0
M  V30 10509 C 993.768 -1.58187 0.288702 0
M  V30 10510 O 994.958 -1.65383 0.547181 0
M  V30 10511 C 992.09 -3.19937 1.177 0
M  V30 10512 H 993.283 -1.83939 2.36868 0
M  V30 10513 H 990.836 -0.928742 1.25714 0
M  V30 10514 H 991.571 -3.23625 0.209093 0
M  V30 10515 H 991.356 -3.386 1.97719 0
M  V30 10516 H 992.846 -3.99981 1.20022 0
M  V30 10517 N 993.283 -1.25346 -0.955304 0
M  V30 10518 C 994.694 -1.09173 -1.51453 0
M  V30 10519 C 995.045 0.332755 -1.93358 0
M  V30 10520 O 994.17 1.22264 -1.78551 0
M  V30 10521 C 994.765 -1.97564 -2.75234 0
M  V30 10522 C 993.324 -1.85579 -3.27471 0
M  V30 10523 C 992.471 -1.91755 -2.00313 0
M  V30 10524 H 995.422 -1.38642 -0.772271 0
M  V30 10525 H 995.443 -1.51523 -3.49029 0
M  V30 10526 H 994.955 -3.01233 -2.44704 0
M  V30 10527 H 993.056 -0.847906 -3.62824 0
M  V30 10528 H 993.169 -2.70353 -3.95533 0
M  V30 10529 H 991.533 -1.35633 -2.15582 0
M  V30 10530 H 992.316 -2.97028 -1.72132 0
M  V30 10531 N 994.761 1.15782 -1.06922 0
M  V30 10532 C 996.009 1.86097 -0.788192 0
M  V30 10533 C 996.33 1.82475 0.687606 0
M  V30 10534 O 995.6 1.26266 1.49778 0
M  V30 10535 H 994.18 0.689008 -0.288577 0
M  V30 10536 H 996.842 1.40377 -1.35205 0
M  V30 10537 H 995.938 2.91358 -1.1188 0
M  V30 10538 N 996.239 0.8527 1.3254 0
M  V30 10539 C 997.516 0.376491 1.91942 0
M  V30 10540 C 997.896 -1.13972 1.7769 0
M  V30 10541 O 997.244 -1.96047 1.17379 0
M  V30 10542 C 997.454 0.838694 3.38773 0
M  V30 10543 C 998.802 0.854736 4.15908 0
M  V30 10544 O 999.826 0.783203 3.47483 0
M  V30 10545 O 998.685 0.955207 5.38087 0
M  V30 10546 H 995.779 0.109412 0.81973 0
M  V30 10547 H 998.325 0.93947 1.41322 0
M  V30 10548 H 997.097 1.88179 3.43081 0
M  V30 10549 H 996.72 0.253055 3.96794 0
M  V30 10550 N 997.718 -1.45297 0.610449 0
M  V30 10551 C 999.129 -1.85715 0.191488 0
M  V30 10552 C 999.48 -1.51036 -1.25229 0
M  V30 10553 O 998.605 -0.938422 -1.94994 0
M  V30 10554 C 999.2 -3.37082 0.340747 0
M  V30 10555 C 997.759 -3.76393 -0.0235433 0
M  V30 10556 C 996.906 -2.69237 0.663849 0
M  V30 10557 H 999.857 -1.36058 0.816948 0
M  V30 10558 H 999.878 -3.78105 -0.426233 0
M  V30 10559 H 999.39 -3.62291 1.39164 0
M  V30 10560 H 997.491 -3.56801 -1.07351 0
M  V30 10561 H 997.604 -4.77653 0.372102 0
M  V30 10562 H 995.968 -2.54499 0.101204 0
M  V30 10563 H 996.751 -2.97281 1.71694 0
M  V30 10564 N 999.196 -0.349774 -1.5367 0
M  V30 10565 C 1000.15 0.52023 -2.21986 0
M  V30 10566 C 1001.13 1.06119 -1.20944 0
M  V30 10567 O 1002.32 0.993857 -1.46463 0
M  V30 10568 C 999.451 1.66751 -3.00082 0
M  V30 10569 C 998.537 1.14019 -4.08486 0
M  V30 10570 N 998.928 0.334588 -5.04692 0
M  V30 10571 C 997.226 1.4165 -4.22908 0
M  V30 10572 C 997.927 0.0476906 -5.8168 0
M  V30 10573 N 996.903 0.641032 -5.39807 0
M  V30 10574 H 1000.7 -0.102261 -2.93722 0
M  V30 10575 H 998.219 -0.15696 -1.6164 0
M  V30 10576 H 1000.22 2.30281 -3.47529 0
M  V30 10577 H 998.876 2.29322 -2.29873 0
M  V30 10578 H 999.887 -0.0248665 -5.17894 0
M  V30 10579 H 996.564 2.04615 -3.63922 0
M  V30 10580 H 997.954 -0.602565 -6.69193 0
M  V30 10581 N 1000.67 1.57404 -0.0785433 0
M  V30 10582 C 1001.92 1.93361 0.58786 0
M  V30 10583 C 1002.24 0.959856 1.6974 0
M  V30 10584 O 1001.51 0.0091173 1.95898 0
M  V30 10585 H 1000.09 0.713825 0.220141 0
M  V30 10586 H 1002.75 1.94411 -0.137986 0
M  V30 10587 H 1001.85 2.95346 1.00881 0
M  V30 10588 N 1002.15 -0.195058 1.56388 0
M  V30 10589 C 1003.4 -0.912248 1.81795 0
M  V30 10590 C 1003.75 -1.80886 0.655596 0
M  V30 10591 O 1003.05 -1.88391 -0.34922 0
M  V30 10592 C 1003.24 -1.7637 3.10851 0
M  V30 10593 C 1003.07 -0.951012 4.39529 0
M  V30 10594 C 1001.84 -0.635425 5.01289 0
M  V30 10595 C 1004.04 -0.303702 5.13403 0
M  V30 10596 N 1002.02 0.195887 6.13587 0
M  V30 10597 C 1003.39 0.38981 6.18773 0
M  V30 10598 C 1005.44 -0.219433 4.97416 0
M  V30 10599 C 1004.15 1.15957 7.09892 0
M  V30 10600 C 1006.17 0.536925 5.88958 0
M  V30 10601 C 1005.54 1.21888 6.93774 0
M  V30 10602 H 1001.63 -0.313208 0.716537 0
M  V30 10603 H 1004.22 -0.180977 1.93857 0
M  V30 10604 H 1002.39 -2.46657 3.00025 0
M  V30 10605 H 1004.12 -2.42037 3.24346 0
M  V30 10606 H 1000.88 -0.959855 4.63771 0
M  V30 10607 H 1001.3 0.601155 6.74326 0
M  V30 10608 H 1005.94 -0.732323 4.16409 0
M  V30 10609 H 1003.66 1.68389 7.90361 0
M  V30 10610 H 1007.25 0.603485 5.78662 0
M  V30 10611 H 1006.13 1.79478 7.63385 0
M  V30 10612 N 1003.63 -1.50653 -0.462772 0
M  V30 10613 C 1005.04 -1.54821 -1.04342 0
M  V30 10614 C 1005.39 -0.356595 -1.92932 0
M  V30 10615 O 1004.52 0.529579 -2.0982 0
M  V30 10616 C 1005.11 -2.80571 -1.89909 0
M  V30 10617 C 1003.67 -2.87394 -2.43067 0
M  V30 10618 C 1002.82 -2.49206 -1.21621 0
M  V30 10619 H 1005.77 -1.56797 -0.245048 0
M  V30 10620 H 1005.79 -2.62897 -2.75074 0
M  V30 10621 H 1005.3 -3.67281 -1.25405 0
M  V30 10622 H 1003.4 -2.05055 -3.111 0
M  V30 10623 H 1003.52 -3.90477 -2.77605 0
M  V30 10624 H 1001.88 -2.01829 -1.55361 0
M  V30 10625 H 1002.66 -3.38233 -0.587669 0
M  V30 10626 N 1005.11 0.71652 -1.4037 0
M  V30 10627 C 1006.06 1.82219 -1.37041 0
M  V30 10628 C 1007.04 1.58975 -0.248116 0
M  V30 10629 O 1008.23 1.70164 -0.487147 0
M  V30 10630 C 1005.36 3.20337 -1.23446 0
M  V30 10631 C 1004.45 3.49347 -2.40452 0
M  V30 10632 N 1004.84 3.49179 -3.65934 0
M  V30 10633 C 1003.14 3.798 -2.33811 0
M  V30 10634 C 1003.84 3.76506 -4.43416 0
M  V30 10635 N 1002.82 3.95209 -3.73244 0
M  V30 10636 H 1006.62 1.80421 -2.32003 0
M  V30 10637 H 1004.13 0.915603 -1.34129 0
M  V30 10638 H 1006.13 3.99513 -1.19143 0
M  V30 10639 H 1004.79 3.23362 -0.294497 0
M  V30 10640 H 1005.8 3.30051 -3.99107 0
M  V30 10641 H 1002.48 3.9032 -1.48177 0
M  V30 10642 H 1003.87 3.82689 -5.52267 0
M  V30 10643 N 1006.59 1.25851 0.948643 0
M  V30 10644 C 1007.5 1.08516 2.07994 0
M  V30 10645 C 1008.51 0.0206696 1.73988 0
M  V30 10646 O 1009.69 0.222854 2.00163 0
M  V30 10647 C 1006.75 0.712145 3.39307 0
M  V30 10648 C 1005.81 1.85523 3.87143 0
M  V30 10649 C 1005.05 1.49992 5.1219 0
M  V30 10650 O 1005.27 0.398268 5.69008 0
M  V30 10651 O 1004.2 2.33215 5.54882 0
M  V30 10652 H 1008.03 2.03405 2.25522 0
M  V30 10653 H 1005.62 1.04844 1.06433 0
M  V30 10654 H 1007.5 0.516512 4.18223 0
M  V30 10655 H 1006.17 -0.207416 3.23035 0
M  V30 10656 H 1005.08 2.10578 3.09205 0
M  V30 10657 H 1006.41 2.75425 4.07924 0
M  V30 10658 N 1008.06 -1.15214 1.07534 0
M  V30 10659 C 1009.31 -1.85388 0.794617 0
M  V30 10660 C 1009.63 -1.83331 -0.681838 0
M  V30 10661 O 1010.83 -2.49207 -1.0774 0
M  V30 10662 C 1009.29 -3.32747 1.37141 0
M  V30 10663 C 1008.9 -3.43244 2.87902 0
M  V30 10664 C 1010.64 -4.08093 1.16879 0
M  V30 10665 C 1008.55 -4.84762 3.38763 0
M  V30 10666 H 1007.48 -0.694499 0.293577 0
M  V30 10667 H 1010.13 -1.29944 1.29564 0
M  V30 10668 H 1008.51 -3.87874 0.798121 0
M  V30 10669 H 1009.68 -2.98214 3.51291 0
M  V30 10670 H 1008 -2.81345 3.06975 0
M  V30 10671 H 1010.6 -5.12535 1.52353 0
M  V30 10672 H 1010.94 -4.1616 0.107958 0
M  V30 10673 H 1011.47 -3.59241 1.70854 0
M  V30 10674 H 1008.21 -4.81879 4.4438 0
M  V30 10675 H 1007.73 -5.30366 2.80128 0
M  V30 10676 H 1009.41 -5.53624 3.34827 0
M  V30 10677 N 1009.54 -0.859717 -1.32086 0
M  V30 10678 C 1010.79 -0.466271 -1.97367 0
M  V30 10679 C 1011.12 0.976728 -1.6785 0
M  V30 10680 O 1010.4 1.68618 -0.969449 0
M  V30 10681 C 1010.68 -0.711851 -3.52994 0
M  V30 10682 C 1010.53 -2.20364 -3.92122 0
M  V30 10683 C 1011.85 -0.17156 -4.39765 0
M  V30 10684 H 1008.97 -0.170883 -0.716916 0
M  V30 10685 H 1011.61 -1.07907 -1.56384 0
M  V30 10686 H 1009.76 -0.190258 -3.88034 0
M  V30 10687 H 1011.43 -2.7917 -3.67236 0
M  V30 10688 H 1009.68 -2.68019 -3.41099 0
M  V30 10689 H 1010.35 -2.32615 -5.00594 0
M  V30 10690 H 1012.82 -0.617665 -4.1149 0
M  V30 10691 H 1011.7 -0.372921 -5.47632 0
M  V30 10692 H 1011.96 0.925959 -4.32294 0
M  V30 10693 N 1011.02 1.44971 -0.618145 0
M  V30 10694 C 1011.95 2.28815 0.132751 0
M  V30 10695 C 1012.97 1.40551 0.821535 0
M  V30 10696 O 1014.15 1.64827 0.685155 0
M  V30 10697 C 1011.25 3.1658 1.20955 0
M  V30 10698 C 1010.43 4.33184 0.605821 0
M  V30 10699 C 1009.49 5.0208 1.57488 0
M  V30 10700 O 1008.51 5.58528 1.09706 0
M  V30 10701 N 1009.71 5.02335 2.9093 0
M  V30 10702 H 1012.48 2.939 -0.58674 0
M  V30 10703 H 1010.04 1.55276 -0.458375 0
M  V30 10704 H 1012.03 3.59535 1.85787 0
M  V30 10705 H 1010.6 2.53333 1.83143 0
M  V30 10706 H 1009.82 3.93581 -0.220827 0
M  V30 10707 H 1011.11 5.08471 0.182883 0
M  V30 10708 H 1010.51 4.57783 3.32342 0
M  V30 10709 H 1009.07 5.49119 3.51157 0
M  V30 10710 N 1012.5 0.357919 1.53482 0
M  V30 10711 C 1013.45 -0.50845 2.22258 0
M  V30 10712 C 1014.43 -1.05476 1.21506 0
M  V30 10713 O 1015.62 -0.986075 1.46988 0
M  V30 10714 C 1012.75 -1.65157 3.00962 0
M  V30 10715 C 1011.84 -1.11851 4.09084 0
M  V30 10716 N 1012.23 -0.307818 5.04862 0
M  V30 10717 C 1010.53 -1.39405 4.23653 0
M  V30 10718 C 1011.23 -0.016842 5.81698 0
M  V30 10719 N 1010.21 -0.612396 5.40139 0
M  V30 10720 H 1014.01 0.117836 2.93664 0
M  V30 10721 H 1011.52 0.16553 1.61554 0
M  V30 10722 H 1013.52 -2.28435 3.48745 0
M  V30 10723 H 1012.18 -2.281 2.31086 0
M  V30 10724 H 1013.19 0.0523313 5.17874 0
M  V30 10725 H 1009.87 -2.02682 3.65002 0
M  V30 10726 H 1011.26 0.638046 6.68864 0
M  V30 10727 N 1013.98 -1.5736 0.0868897 0
M  V30 10728 C 1015.21 -1.981 -0.586498 0
M  V30 10729 C 1015.61 -0.96455 -1.62767 0
M  V30 10730 O 1014.96 0.0551801 -1.83617 0
M  V30 10731 C 1015.02 -3.35193 -1.29947 0
M  V30 10732 C 1014.68 -4.55157 -0.410012 0
M  V30 10733 C 1015.68 -5.18797 0.338532 0
M  V30 10734 C 1013.37 -5.01212 -0.33047 0
M  V30 10735 C 1015.36 -6.26854 1.15468 0
M  V30 10736 C 1013.05 -6.09138 0.48934 0
M  V30 10737 C 1014.04 -6.71823 1.23057 0
M  V30 10738 O 1013.73 -7.77669 2.03683 0
M  V30 10739 H 1013.46 -0.656166 -0.16255 0
M  V30 10740 H 1016.02 -2.04773 0.160379 0
M  V30 10741 H 1014.25 -3.25179 -2.09274 0
M  V30 10742 H 1015.94 -3.60435 -1.86658 0
M  V30 10743 H 1016.7 -4.84151 0.286764 0
M  V30 10744 H 1012.58 -4.52188 -0.897058 0
M  V30 10745 H 1016.13 -6.75712 1.73374 0
M  V30 10746 H 1012.02 -6.43215 0.542618 0
M  V30 10747 H 1012.79 -7.94618 1.96277 0
M  V30 10748 N 1015.45 0.186762 -1.56489 0
M  V30 10749 C 1016.68 0.920495 -1.84961 0
M  V30 10750 C 1017.09 1.77004 -0.668297 0
M  V30 10751 O 1016.44 1.79891 0.37213 0
M  V30 10752 C 1016.5 1.85997 -3.07645 0
M  V30 10753 C 1016.16 1.19156 -4.41193 0
M  V30 10754 C 1017.16 0.564446 -5.16827 0
M  V30 10755 C 1014.84 1.19292 -4.87929 0
M  V30 10756 C 1016.84 -0.0523768 -6.37378 0
M  V30 10757 C 1014.52 0.572266 -6.08415 0
M  V30 10758 C 1015.52 -0.049294 -6.82982 0
M  V30 10759 O 1015.21 -0.660201 -8.01184 0
M  V30 10760 H 1014.94 0.273659 -0.618132 0
M  V30 10761 H 1017.5 0.196437 -2.04459 0
M  V30 10762 H 1015.73 2.62394 -2.84053 0
M  V30 10763 H 1017.42 2.46221 -3.22692 0
M  V30 10764 H 1018.18 0.555474 -4.81809 0
M  V30 10765 H 1014.06 1.66611 -4.29839 0
M  V30 10766 H 1017.6 -0.538133 -6.95521 0
M  V30 10767 H 1013.5 0.578769 -6.429 0
M  V30 10768 H 1014.27 -0.557926 -8.16596 0
M  V30 10769 N 1016.93 1.50896 0.454776 0
M  V30 10770 C 1017.88 1.67333 1.54867 0
M  V30 10771 C 1018.87 0.527576 1.52005 0
M  V30 10772 O 1020.06 0.782726 1.58753 0
M  V30 10773 C 1017.19 1.7858 2.93196 0
M  V30 10774 C 1016.27 2.98884 3.0088 0
M  V30 10775 N 1016.66 4.22326 2.78343 0
M  V30 10776 C 1014.96 2.97779 3.32029 0
M  V30 10777 C 1015.66 5.03439 2.91418 0
M  V30 10778 N 1014.64 4.37725 3.22332 0
M  V30 10779 H 1018.44 2.60453 1.36167 0
M  V30 10780 H 1015.96 1.48304 0.661797 0
M  V30 10781 H 1017.95 1.88463 3.7187 0
M  V30 10782 H 1016.61 0.866296 3.1293 0
M  V30 10783 H 1017.62 4.51557 2.53607 0
M  V30 10784 H 1014.3 2.15393 3.57648 0
M  V30 10785 H 1015.69 6.11648 2.78095 0
M  V30 10786 N 1018.41 -0.709066 1.40748 0
M  V30 10787 C 1019.83 -1.01797 1.22921 0
M  V30 10788 C 1020.03 -2.01205 0.109011 0
M  V30 10789 O 1019.08 -2.46854 -0.530987 0
M  V30 10790 C 1020.4 -1.55546 2.57344 0
M  V30 10791 C 1021.94 -1.67498 2.64412 0
M  V30 10792 C 1022.42 -2.24652 3.99119 0
M  V30 10793 N 1023.91 -2.3203 4.00895 0
M  V30 10794 C 1024.64 -2.7725 5.01917 0
M  V30 10795 N 1024.14 -3.22174 6.13332 0
M  V30 10796 N 1025.93 -2.76692 4.89283 0
M  V30 10797 H 1018.08 -0.0502704 2.12341 0
M  V30 10798 H 1020.35 -0.0848933 0.944191 0
M  V30 10799 H 1020.05 -0.899631 3.39999 0
M  V30 10800 H 1019.93 -2.53971 2.78888 0
M  V30 10801 H 1022.31 -2.32196 1.82123 0
M  V30 10802 H 1022.4 -0.676553 2.46691 0
M  V30 10803 H 1022.04 -1.60573 4.81849 0
M  V30 10804 H 1021.97 -3.25221 4.14173 0
M  V30 10805 H 1024.46 -2.00309 3.20444 0
M  V30 10806 H 1024.77 -3.55265 6.86299 0
M  V30 10807 H 1023.12 -3.20116 6.16888 0
M  V30 10808 H 1026.31 -2.40936 4.01332 0
M  V30 10809 H 1026.48 -3.11617 5.68154 0
M  V30 10810 N 1019.89 -1.26353 -0.941956 0
M  V30 10811 C 1020.84 -1.04513 -2.02635 0
M  V30 10812 C 1021.82 0.0222314 -1.60885 0
M  V30 10813 O 1023.02 -0.194629 -1.75927 0
M  V30 10814 C 1020.14 -0.679282 -3.36512 0
M  V30 10815 C 1019.23 -1.78406 -3.8475 0
M  V30 10816 N 1019.62 -3.02136 -4.05645 0
M  V30 10817 C 1017.92 -1.66748 -4.13656 0
M  V30 10818 C 1018.62 -3.73932 -4.45589 0
M  V30 10819 N 1017.6 -3.01616 -4.52248 0
M  V30 10820 H 1021.4 -1.9843 -2.16801 0
M  V30 10821 H 1018.91 -1.16858 -1.12774 0
M  V30 10822 H 1020.91 -0.503975 -4.13843 0
M  V30 10823 H 1019.57 0.252418 -3.23717 0
M  V30 10824 H 1020.58 -3.38049 -3.92356 0
M  V30 10825 H 1017.26 -0.805627 -4.09653 0
M  V30 10826 H 1018.65 -4.80201 -4.69954 0
M  V30 10827 N 1021.37 1.14642 -1.08144 0
M  V30 10828 C 1022.78 1.6719 -0.830923 0
M  V30 10829 C 1023.13 1.85373 0.642749 0
M  V30 10830 O 1022.25 1.56293 1.49671 0
M  V30 10831 C 1022.85 3.03697 -1.50179 0
M  V30 10832 C 1021.41 3.5329 -1.29858 0
M  V30 10833 C 1020.56 2.28828 -1.5663 0
M  V30 10834 H 1023.51 0.987441 -1.24239 0
M  V30 10835 H 1023.53 3.69023 -0.9275 0
M  V30 10836 H 1023.04 2.90431 -2.57432 0
M  V30 10837 H 1021.14 3.71783 -0.246626 0
M  V30 10838 H 1021.25 4.34231 -2.02436 0
M  V30 10839 H 1019.62 2.34769 -0.987716 0
M  V30 10840 H 1020.4 2.18141 -2.65084 0
M  V30 10841 N 1022.85 0.866709 1.31628 0
M  V30 10842 C 1024.09 0.476731 1.97117 0
M  V30 10843 C 1024.42 -0.967813 1.68366 0
M  V30 10844 O 1023.7 -1.68101 0.978377 0
M  V30 10845 C 1023.98 0.730561 3.52611 0
M  V30 10846 C 1023.84 2.2244 3.90948 0
M  V30 10847 C 1025.15 0.19488 4.39668 0
M  V30 10848 H 1022.27 0.174682 0.715999 0
M  V30 10849 H 1024.92 1.08735 1.5581 0
M  V30 10850 H 1023.07 0.210834 3.87927 0
M  V30 10851 H 1024.74 2.81113 3.6575 0
M  V30 10852 H 1022.98 2.69824 3.39673 0
M  V30 10853 H 1023.65 2.35266 4.99353 0
M  V30 10854 H 1026.13 0.639478 4.11157 0
M  V30 10855 H 1025 0.401958 5.47426 0
M  V30 10856 H 1025.26 -0.90302 4.32779 0
M  V30 10857 N 1024.32 -1.44642 0.625825 0
M  V30 10858 C 1025.55 -2.06159 0.13492 0
M  V30 10859 C 1025.96 -1.46801 -1.19357 0
M  V30 10860 O 1025.3 -0.583345 -1.74192 0
M  V30 10861 C 1025.37 -3.5945 -0.0598481 0
M  V30 10862 C 1025.03 -4.41244 1.18965 0
M  V30 10863 C 1026.03 -4.75064 2.11212 0
M  V30 10864 C 1023.71 -4.81705 1.42359 0
M  V30 10865 C 1025.71 -5.48221 3.25165 0
M  V30 10866 C 1023.39 -5.54612 2.5661 0
M  V30 10867 C 1024.39 -5.87789 3.4784 0
M  V30 10868 O 1024.08 -6.59213 4.60101 0
M  V30 10869 H 1023.81 -0.671888 0.0744464 0
M  V30 10870 H 1026.37 -1.86586 0.858775 0
M  V30 10871 H 1024.6 -3.77493 -0.838792 0
M  V30 10872 H 1026.28 -4.02751 -0.504639 0
M  V30 10873 H 1027.05 -4.44348 1.94371 0
M  V30 10874 H 1022.93 -4.55305 0.722401 0
M  V30 10875 H 1026.47 -5.74035 3.96396 0
M  V30 10876 H 1022.37 -5.84743 2.73396 0
M  V30 10877 H 1023.14 -6.77678 4.59015 0
M  V30 10878 N 1025.8 -0.366053 -1.5329 0
M  V30 10879 C 1027.03 0.224236 -2.05681 0
M  V30 10880 C 1027.44 1.42412 -1.23952 0
M  V30 10881 O 1026.8 1.80334 -0.280309 0
M  V30 10882 C 1026.85 0.617266 -3.56191 0
M  V30 10883 O 1026.57 -0.534931 -4.34822 0
M  V30 10884 C 1028.07 1.26589 -4.24841 0
M  V30 10885 H 1025.29 0.0392928 -0.669849 0
M  V30 10886 H 1027.84 -0.52456 -1.97658 0
M  V30 10887 H 1025.99 1.31598 -3.64364 0
M  V30 10888 H 1026.41 -0.217123 -5.2405 0
M  V30 10889 H 1027.88 1.49146 -5.31469 0
M  V30 10890 H 1028.36 2.22633 -3.78591 0
M  V30 10891 H 1028.96 0.6086 -4.20923 0
M  V30 10892 N 1027.28 1.57312 -0.0952337 0
M  V30 10893 C 1028.53 1.93533 0.568131 0
M  V30 10894 C 1028.84 0.979121 1.6933 0
M  V30 10895 O 1030.05 1.23506 2.41782 0
M  V30 10896 C 1028.5 3.43875 1.06198 0
M  V30 10897 C 1028.11 4.47988 -0.0334397 0
M  V30 10898 C 1029.86 3.89057 1.69807 0
M  V30 10899 C 1027.76 5.89483 0.475774 0
M  V30 10900 H 1026.69 0.7224 0.215995 0
M  V30 10901 H 1029.34 1.82699 -0.171257 0
M  V30 10902 H 1027.73 3.49862 1.85506 0
M  V30 10903 H 1028.9 4.53644 -0.808934 0
M  V30 10904 H 1027.21 4.12415 -0.574725 0
M  V30 10905 H 1029.81 4.92171 2.08978 0
M  V30 10906 H 1030.15 3.27713 2.5673 0
M  V30 10907 H 1030.69 3.85772 0.970815 0
M  V30 10908 H 1027.43 6.54528 -0.356837 0
M  V30 10909 H 1026.95 5.87297 1.21827 0
M  V30 10910 H 1028.63 6.40066 0.944697 0
M  V30 10911 N 1028.76 -0.17846 1.56586 0
M  V30 10912 C 1029.69 -1.22342 1.98884 0
M  V30 10913 C 1030.67 -1.46564 0.86331 0
M  V30 10914 O 1031.85 -1.58019 1.12887 0
M  V30 10915 C 1028.98 -2.56396 2.34261 0
M  V30 10916 C 1027.94 -2.46756 3.49708 0
M  V30 10917 C 1027.26 -3.85235 3.70807 0
M  V30 10918 C 1028.56 -1.97838 4.83381 0
M  V30 10919 H 1030.26 -0.871848 2.86425 0
M  V30 10920 H 1027.8 -0.417948 1.37801 0
M  V30 10921 H 1029.76 -3.29695 2.62448 0
M  V30 10922 H 1028.48 -2.93327 1.43621 0
M  V30 10923 H 1027.14 -1.75912 3.21637 0
M  V30 10924 H 1026.79 -4.19547 2.7747 0
M  V30 10925 H 1026.49 -3.79655 4.48481 0
M  V30 10926 H 1028.01 -4.60131 4.01387 0
M  V30 10927 H 1029.43 -2.60906 5.10491 0
M  V30 10928 H 1027.82 -2.03223 5.64642 0
M  V30 10929 H 1028.89 -0.932339 4.75852 0
M  V30 10930 N 1030.24 -1.51135 -0.446768 0
M  V30 10931 C 1031.2 -1.71187 -1.52406 0
M  V30 10932 C 1032.2 -0.582037 -1.49897 0
M  V30 10933 O 1033.39 -0.849452 -1.52085 0
M  V30 10934 C 1030.52 -1.75962 -2.91976 0
M  V30 10935 H 1031.71 -2.67324 -1.35934 0
M  V30 10936 H 1029.27 -1.40982 -0.674813 0
M  V30 10937 H 1030 -0.816065 -3.13864 0
M  V30 10938 H 1029.79 -2.58065 -2.95203 0
M  V30 10939 H 1031.28 -1.93347 -3.70144 0
M  V30 10940 N 1031.71 0.701592 -1.41122 0
M  V30 10941 C 1032.96 1.46376 -1.40363 0
M  V30 10942 C 1033.29 1.94197 -0.0105442 0
M  V30 10943 O 1032.57 1.69121 0.960637 0
M  V30 10944 C 1032.85 2.67994 -2.40523 0
M  V30 10945 C 1032.7 2.25977 -3.88914 0
M  V30 10946 C 1034.02 3.70181 -2.38022 0
M  V30 10947 H 1031.14 0.530929 -0.511159 0
M  V30 10948 H 1033.78 0.799588 -1.72356 0
M  V30 10949 H 1031.93 3.24661 -2.13372 0
M  V30 10950 H 1033.61 1.74684 -4.26946 0
M  V30 10951 H 1031.85 1.57826 -4.04071 0
M  V30 10952 H 1032.52 3.13215 -4.54533 0
M  V30 10953 H 1035 3.23174 -2.62103 0
M  V30 10954 H 1033.87 4.52894 -3.10127 0
M  V30 10955 H 1034.13 4.19458 -1.3967 0
M  V30 10956 N 1033.19 1.2685 0.935242 0
M  V30 10957 C 1034.15 1.08975 2.01636 0
M  V30 10958 C 1035.15 0.0361543 1.60759 0
M  V30 10959 O 1036.34 0.280087 1.71934 0
M  V30 10960 C 1033.48 0.658831 3.34473 0
M  V30 10961 H 1034.67 2.04968 2.18925 0
M  V30 10962 H 1032.22 1.09531 1.11501 0
M  V30 10963 H 1032.96 -0.302824 3.22883 0
M  V30 10964 H 1032.74 1.41967 3.65497 0
M  V30 10965 H 1034.23 0.555783 4.13885 0
M  V30 10966 N 1034.67 -1.14067 1.0875 0
M  V30 10967 C 1035.9 -1.89582 0.841038 0
M  V30 10968 C 1036.32 -1.78226 -0.601436 0
M  V30 10969 O 1035.68 -1.12491 -1.42181 0
M  V30 10970 C 1035.73 -3.37415 1.27213 0
M  V30 10971 O 1034.83 -4.10191 0.426246 0
M  V30 10972 H 1034.17 -0.589716 0.305173 0
M  V30 10973 H 1036.7 -1.44364 1.44984 0
M  V30 10974 H 1036.71 -3.88234 1.25451 0
M  V30 10975 H 1035.39 -3.44999 2.32268 0
M  V30 10976 H 1033.96 -3.69429 0.507585 0
M  V30 10977 N 1036.15 -0.873678 -1.31166 0
M  V30 10978 C 1037.11 -0.337069 -2.26708 0
M  V30 10979 C 1038.11 0.51406 -1.52362 0
M  V30 10980 O 1039.3 0.322834 -1.71182 0
M  V30 10981 C 1036.43 0.520897 -3.36897 0
M  V30 10982 H 1037.63 -1.18056 -2.75686 0
M  V30 10983 H 1035.18 -0.649577 -1.42163 0
M  V30 10984 H 1035.91 1.38543 -2.93217 0
M  V30 10985 H 1035.7 -0.0886015 -3.92 0
M  V30 10986 H 1037.19 0.888497 -4.08039 0
M  V30 10987 N 1037.63 1.44308 -0.633487 0
M  V30 10988 C 1038.85 2.06384 -0.146063 0
M  V30 10989 C 1039.27 1.47357 1.18031 0
M  V30 10990 O 1038.63 0.597334 1.72448 0
M  V30 10991 C 1038.68 3.61489 -0.0276722 0
M  V30 10992 O 1038.4 4.18318 -1.3016 0
M  V30 10993 C 1039.9 4.40604 0.488168 0
M  V30 10994 H 1037.12 0.666122 -0.0807632 0
M  V30 10995 H 1039.66 1.85139 -0.868557 0
M  V30 10996 H 1037.82 3.81988 0.645273 0
M  V30 10997 H 1038.23 5.11783 -1.14797 0
M  V30 10998 H 1039.71 5.49545 0.520013 0
M  V30 10999 H 1040.18 4.12218 1.51568 0
M  V30 11000 H 1040.79 4.2503 -0.151608 0
M  V30 11001 N 1039.1 0.374177 1.53094 0
M  V30 11002 C 1040.35 -0.213131 2.01677 0
M  V30 11003 C 1040.68 -1.47715 1.26071 0
M  V30 11004 O 1039.96 -1.91199 0.356834 0
M  V30 11005 C 1040.24 -0.496392 3.56662 0
M  V30 11006 C 1040.09 0.781859 4.42953 0
M  V30 11007 C 1041.41 -1.29339 4.20666 0
M  V30 11008 H 1038.53 -0.0759885 0.733072 0
M  V30 11009 H 1041.17 0.500765 1.83282 0
M  V30 11010 H 1039.32 -1.10455 3.72467 0
M  V30 11011 H 1041 1.41914 4.38928 0
M  V30 11012 H 1039.24 1.40041 4.10574 0
M  V30 11013 H 1039.91 0.538508 5.49367 0
M  V30 11014 H 1042.39 -0.778848 4.08746 0
M  V30 11015 H 1041.26 -1.46033 5.29118 0
M  V30 11016 H 1041.52 -2.30435 3.77296 0
M  V30 11017 N 1040.58 -1.57259 0.103575 0
M  V30 11018 C 1041.55 -2.13337 -0.837859 0
M  V30 11019 C 1042.55 -1.06459 -1.20512 0
M  V30 11020 O 1043.74 -1.32307 -1.13316 0
M  V30 11021 C 1040.87 -2.66093 -2.13089 0
M  V30 11022 H 1042.06 -2.97842 -0.350775 0
M  V30 11023 H 1039.61 -1.55621 -0.145511 0
M  V30 11024 H 1040.35 -1.85133 -2.66264 0
M  V30 11025 H 1040.13 -3.44244 -1.87719 0
M  V30 11026 H 1041.62 -3.09443 -2.80419 0
M  V30 11027 N 1042.06 0.170153 -1.56679 0
M  V30 11028 C 1042.99 1.23945 -1.91606 0
M  V30 11029 C 1043.97 1.42725 -0.779004 0
M  V30 11030 O 1045.16 1.57712 -1.03243 0
M  V30 11031 C 1042.28 2.60222 -2.168 0
M  V30 11032 C 1041.33 2.58172 -3.39484 0
M  V30 11033 S 1042.16 2.0714 -4.93815 0
M  V30 11034 C 1043.32 3.45192 -5.22105 0
M  V30 11035 H 1043.55 0.941345 -2.82004 0
M  V30 11036 H 1041.08 0.374771 -1.49783 0
M  V30 11037 H 1043.04 3.38656 -2.31996 0
M  V30 11038 H 1041.7 2.87232 -1.27107 0
M  V30 11039 H 1040.9 3.58435 -3.54317 0
M  V30 11040 H 1040.5 1.87834 -3.2341 0
M  V30 11041 H 1042.79 4.41194 -5.14154 0
M  V30 11042 H 1043.73 3.35233 -6.23718 0
M  V30 11043 H 1044.14 3.41257 -4.49671 0
M  V30 11044 N 1043.54 1.5137 0.438746 0
M  V30 11045 C 1044.47 1.67264 1.55236 0
M  V30 11046 C 1045.45 0.520238 1.54053 0
M  V30 11047 O 1046.63 0.743897 1.73201 0
M  V30 11048 C 1043.76 1.68492 2.93816 0
M  V30 11049 C 1042.81 2.8968 3.1303 0
M  V30 11050 S 1043.64 4.50514 2.89478 0
M  V30 11051 C 1044.8 4.54485 4.30342 0
M  V30 11052 H 1045.03 2.61456 1.4152 0
M  V30 11053 H 1042.56 1.41036 0.628341 0
M  V30 11054 H 1044.52 1.69884 3.73697 0
M  V30 11055 H 1043.18 0.754787 3.04896 0
M  V30 11056 H 1042.37 2.86936 4.14347 0
M  V30 11057 H 1041.98 2.86022 2.40972 0
M  V30 11058 H 1044.27 4.30039 5.2352 0
M  V30 11059 H 1045.21 5.56288 4.3812 0
M  V30 11060 H 1045.62 3.83824 4.13931 0
M  V30 11061 N 1045.02 -0.694098 1.41492 0
M  V30 11062 C 1046.27 -1.4498 1.40227 0
M  V30 11063 C 1046.58 -1.95594 0.0151253 0
M  V30 11064 O 1047.78 -2.71234 -0.120146 0
M  V30 11065 C 1046.24 -2.62171 2.46565 0
M  V30 11066 C 1045.85 -2.18337 3.91194 0
M  V30 11067 C 1047.59 -3.39796 2.54439 0
M  V30 11068 C 1045.5 -3.32495 4.89082 0
M  V30 11069 H 1044.43 -0.544584 0.521483 0
M  V30 11070 H 1047.08 -0.75337 1.67322 0
M  V30 11071 H 1045.46 -3.34089 2.12604 0
M  V30 11072 H 1046.64 -1.53698 4.34412 0
M  V30 11073 H 1044.95 -1.53702 3.86994 0
M  V30 11074 H 1047.55 -4.2478 3.24755 0
M  V30 11075 H 1047.89 -3.85082 1.5817 0
M  V30 11076 H 1048.42 -2.74935 2.87499 0
M  V30 11077 H 1045.16 -2.92219 5.86761 0
M  V30 11078 H 1044.68 -3.95978 4.50512 0
M  V30 11079 H 1046.36 -3.98251 5.09907 0
M  V30 11080 N 1046.49 -1.27344 -0.928501 0
M  V30 11081 C 1047.74 -1.13411 -1.67279 0
M  V30 11082 C 1048.06 0.320698 -1.92345 0
M  V30 11083 O 1047.33 1.2245 -1.52915 0
M  V30 11084 H 1045.91 -0.416712 -0.619968 0
M  V30 11085 H 1048.58 -1.5986 -1.11493 0
M  V30 11086 H 1047.67 -1.66256 -2.64131 0
M  V30 11087 N 1047.97 1.13488 -1.09353 0
M  V30 11088 C 1049.22 1.85022 -0.830354 0
M  V30 11089 C 1049.55 1.83266 0.64242 0
M  V30 11090 O 1048.83 1.27024 1.47293 0
M  V30 11091 C 1049.11 3.33218 -1.36521 0
M  V30 11092 C 1048.96 3.43491 -2.90404 0
M  V30 11093 C 1050.28 4.28626 -0.998381 0
M  V30 11094 H 1047.4 0.671786 -0.303105 0
M  V30 11095 H 1050.04 1.33211 -1.3548 0
M  V30 11096 H 1048.19 3.77471 -0.919117 0
M  V30 11097 H 1049.86 3.07954 -3.43456 0
M  V30 11098 H 1048.11 2.84391 -3.27573 0
M  V30 11099 H 1048.78 4.47702 -3.22905 0
M  V30 11100 H 1051.25 3.9244 -1.38311 0
M  V30 11101 H 1050.13 5.30754 -1.39968 0
M  V30 11102 H 1050.39 4.42001 0.093517 0
M  V30 11103 N 1049.45 0.880621 1.30701 0
M  V30 11104 C 1050.68 0.511682 2.00473 0
M  V30 11105 C 1051.09 -0.898684 1.6604 0
M  V30 11106 O 1050.45 -1.59035 0.895218 0
M  V30 11107 C 1050.5 0.671723 3.55204 0
M  V30 11108 O 1050.22 2.02656 3.8841 0
M  V30 11109 C 1051.72 0.3052 4.42248 0
M  V30 11110 H 1048.94 0.198231 0.64105 0
M  V30 11111 H 1051.49 1.18472 1.66687 0
M  V30 11112 H 1049.64 0.0461066 3.87373 0
M  V30 11113 H 1050.06 2.04202 4.83117 0
M  V30 11114 H 1051.53 0.468095 5.50012 0
M  V30 11115 H 1052.01 -0.756456 4.32637 0
M  V30 11116 H 1052.61 0.906959 4.15517 0
M  V30 11117 N 1050.93 -1.4397 0.641131 0
M  V30 11118 C 1052.18 -2.02246 0.14985 0
M  V30 11119 C 1052.51 -1.50387 -1.22871 0
M  V30 11120 O 1051.78 -0.692003 -1.81773 0
M  V30 11121 C 1052.07 -3.59798 0.147449 0
M  V30 11122 C 1051.92 -4.21916 1.55907 0
M  V30 11123 C 1053.24 -4.36985 -0.522667 0
M  V30 11124 H 1050.36 -0.734875 0.0559274 0
M  V30 11125 H 1053 -1.71418 0.819513 0
M  V30 11126 H 1051.15 -3.86193 -0.422789 0
M  V30 11127 H 1052.82 -4.06594 2.17896 0
M  V30 11128 H 1051.06 -3.79028 2.10998 0
M  V30 11129 H 1051.74 -5.30964 1.50934 0
M  V30 11130 H 1054.21 -4.16083 -0.0376226 0
M  V30 11131 H 1053.09 -5.46676 -0.493572 0
M  V30 11132 H 1053.35 -4.12335 -1.59475 0
M  V30 11133 N 1052.41 -0.382291 -1.52893 0
M  V30 11134 C 1053.37 0.44408 -2.24857 0
M  V30 11135 C 1054.37 0.996004 -1.26239 0
M  V30 11136 O 1055.56 0.879114 -1.5039 0
M  V30 11137 C 1052.69 1.62234 -2.99822 0
M  V30 11138 H 1053.89 -0.185862 -2.99324 0
M  V30 11139 H 1051.44 -0.134275 -1.55722 0
M  V30 11140 H 1052.17 2.28991 -2.29638 0
M  V30 11141 H 1051.96 1.23336 -3.72197 0
M  V30 11142 H 1053.45 2.20756 -3.54481 0
M  V30 11143 N 1053.89 1.57202 -0.111913 0
M  V30 11144 C 1055.13 1.95239 0.548607 0
M  V30 11145 C 1055.46 0.994897 1.6678 0
M  V30 11146 O 1054.74 0.0308603 1.94476 0
M  V30 11147 C 1055.02 3.43271 1.08798 0
M  V30 11148 C 1054.88 4.49792 -0.0273064 0
M  V30 11149 C 1056.19 3.92989 1.98109 0
M  V30 11150 H 1053.31 0.709919 0.197951 0
M  V30 11151 H 1055.96 1.89087 -0.186036 0
M  V30 11152 H 1054.11 3.48644 1.71404 0
M  V30 11153 H 1055.78 4.56521 -0.662302 0
M  V30 11154 H 1054.02 4.28254 -0.691426 0
M  V30 11155 H 1054.69 5.50612 0.391201 0
M  V30 11156 H 1057.17 3.89875 1.45385 0
M  V30 11157 H 1056.04 4.97101 2.32769 0
M  V30 11158 H 1056.3 3.33267 2.90492 0
M  V30 11159 N 1055.36 -0.161842 1.56767 0
M  V30 11160 C 1056.29 -1.20226 2.0017 0
M  V30 11161 C 1057.27 -1.4564 0.878807 0
M  V30 11162 O 1058.46 -1.56813 1.14557 0
M  V30 11163 C 1055.59 -2.53897 2.36968 0
M  V30 11164 C 1054.54 -2.43033 3.52305 0
M  V30 11165 C 1053.87 -3.81281 3.74872 0
M  V30 11166 C 1055.17 -1.927 4.85453 0
M  V30 11167 H 1056.86 -0.84142 2.87333 0
M  V30 11168 H 1054.41 -0.403309 1.38237 0
M  V30 11169 H 1056.36 -3.26893 2.6593 0
M  V30 11170 H 1055.09 -2.91787 1.46724 0
M  V30 11171 H 1053.75 -1.7249 3.23485 0
M  V30 11172 H 1053.39 -4.1658 2.81904 0
M  V30 11173 H 1053.09 -3.74877 4.52483 0
M  V30 11174 H 1054.62 -4.55848 4.06245 0
M  V30 11175 H 1056.03 -2.55477 5.13229 0
M  V30 11176 H 1054.43 -1.97222 5.66766 0
M  V30 11177 H 1055.5 -0.881816 4.76814 0
M  V30 11178 N 1056.84 -1.516 -0.430713 0
M  V30 11179 C 1058.08 -1.6626 -1.18899 0
M  V30 11180 C 1058.45 -0.373877 -1.88325 0
M  V30 11181 O 1059.65 -0.39632 -2.65862 0
M  V30 11182 C 1057.92 -2.83693 -2.17378 0
M  V30 11183 S 1059.48 -3.18717 -3.01604 0
M  V30 11184 H 1056.29 -0.585681 -0.403112 0
M  V30 11185 H 1058.9 -1.89528 -0.479538 0
M  V30 11186 H 1057.6 -3.75759 -1.65025 0
M  V30 11187 H 1057.13 -2.62634 -2.92894 0
M  V30 11188 H 1059.15 -2.65665 -4.1909 0
M  V30 11189 N 1058.32 0.686584 -1.41858 0
M  V30 11190 C 1059.28 1.78214 -1.44126 0
M  V30 11191 C 1060.28 1.57366 -0.330541 0
M  V30 11192 O 1061.47 1.63874 -0.590837 0
M  V30 11193 C 1058.6 3.16704 -1.26142 0
M  V30 11194 H 1059.8 1.77594 -2.41661 0
M  V30 11195 H 1057.35 0.895085 -1.28132 0
M  V30 11196 H 1058.09 3.22957 -0.294823 0
M  V30 11197 H 1057.87 3.33238 -2.06627 0
M  V30 11198 H 1059.36 3.96658 -1.30584 0
M  V30 11199 N 1059.8 1.27835 0.921735 0
M  V30 11200 C 1061.04 1.15766 1.68457 0
M  V30 11201 C 1061.4 -0.290542 1.89789 0
M  V30 11202 O 1062.6 -0.53378 2.63447 0
M  V30 11203 C 1060.87 1.92591 3.0107 0
M  V30 11204 S 1062.43 1.96804 3.92191 0
M  V30 11205 H 1059.25 0.413169 0.578629 0
M  V30 11206 H 1061.85 1.61826 1.09693 0
M  V30 11207 H 1060.56 2.96991 2.8324 0
M  V30 11208 H 1060.09 1.47049 3.64884 0
M  V30 11209 H 1062.1 1.06877 4.84553 0
M  V30 11210 N 1061.28 -1.12907 1.09954 0
M  V30 11211 C 1062.22 -2.18485 0.743848 0
M  V30 11212 C 1063.19 -1.63766 -0.277494 0
M  V30 11213 O 1064.38 -1.90146 -0.157899 0
M  V30 11214 C 1061.52 -3.44649 0.176437 0
M  V30 11215 C 1060.63 -4.13445 1.25248 0
M  V30 11216 C 1059.77 -5.27242 0.647242 0
M  V30 11217 C 1058.8 -5.87897 1.70421 0
M  V30 11218 N 1057.94 -6.93116 1.1196 0
M  V30 11219 H 1062.78 -2.48257 1.64841 0
M  V30 11220 H 1060.32 -1.21891 0.823471 0
M  V30 11221 H 1062.28 -4.16852 -0.170384 0
M  V30 11222 H 1060.91 -3.15309 -0.69137 0
M  V30 11223 H 1059.96 -3.39471 1.7165 0
M  V30 11224 H 1061.27 -4.54601 2.05279 0
M  V30 11225 H 1060.42 -6.06186 0.249579 0
M  V30 11226 H 1059.16 -4.87351 -0.184556 0
M  V30 11227 H 1058.17 -5.07643 2.11136 0
M  V30 11228 H 1059.39 -6.2986 2.53877 0
M  V30 11229 H 1057.34 -6.55271 0.309181 0
M  V30 11230 H 1057.26 -7.32843 1.85681 0
M  V30 11231 H 1058.52 -7.759 0.748326 0
M  V30 11232 N 1062.75 -0.88754 -1.30232 0
M  V30 11233 C 1063.72 -0.361095 -2.26338 0
M  V30 11234 C 1064.72 0.497871 -1.52898 0
M  V30 11235 O 1065.91 0.30466 -1.71515 0
M  V30 11236 C 1063.04 0.485135 -3.3743 0
M  V30 11237 H 1064.23 -1.20973 -2.74419 0
M  V30 11238 H 1061.78 -0.664619 -1.41466 0
M  V30 11239 H 1062.52 1.35425 -2.9467 0
M  V30 11240 H 1062.3 -0.130173 -3.91884 0
M  V30 11241 H 1063.79 0.845169 -4.08958 0
M  V30 11242 N 1064.23 1.43628 -0.648757 0
M  V30 11243 C 1065.65 1.56442 -0.315921 0
M  V30 11244 C 1065.85 1.63322 1.18018 0
M  V30 11245 O 1064.9 1.58585 1.96487 0
M  V30 11246 C 1066.22 2.82751 -1.02335 0
M  V30 11247 C 1067.77 2.96488 -1.00318 0
M  V30 11248 C 1068.24 4.25623 -1.69142 0
M  V30 11249 N 1069.73 4.32477 -1.65885 0
M  V30 11250 C 1070.47 5.31154 -2.16016 0
M  V30 11251 N 1069.96 6.36135 -2.74415 0
M  V30 11252 N 1071.76 5.22778 -2.06541 0
M  V30 11253 H 1063.91 1.37405 -1.61968 0
M  V30 11254 H 1066.17 0.65962 -0.680886 0
M  V30 11255 H 1065.88 2.83714 -2.07844 0
M  V30 11256 H 1065.75 3.72836 -0.572114 0
M  V30 11257 H 1068.14 2.95068 0.0434919 0
M  V30 11258 H 1068.22 2.07704 -1.49307 0
M  V30 11259 H 1067.86 4.27804 -2.73763 0
M  V30 11260 H 1067.79 5.13296 -1.17622 0
M  V30 11261 H 1070.28 3.57232 -1.23264 0
M  V30 11262 H 1070.6 7.07743 -3.10355 0
M  V30 11263 H 1068.94 6.36771 -2.78474 0
M  V30 11264 H 1072.13 4.39678 -1.60625 0
M  V30 11265 H 1072.3 5.99523 -2.45919 0
M  V30 11266 N 1065.71 0.390394 1.52688 0
M  V30 11267 C 1067.13 0.0404028 1.59549 0
M  V30 11268 C 1067.33 -1.44503 1.40432 0
M  V30 11269 O 1066.38 -2.20968 1.22187 0
M  V30 11270 C 1067.7 0.518561 2.96195 0
M  V30 11271 C 1069.24 0.474913 3.09376 0
M  V30 11272 C 1069.72 0.929278 4.48473 0
M  V30 11273 N 1071.21 0.885335 4.5466 0
M  V30 11274 C 1071.94 1.2083 5.60524 0
M  V30 11275 N 1071.44 1.6018 6.74028 0
M  V30 11276 N 1073.23 1.12949 5.50635 0
M  V30 11277 H 1065.38 1.35743 1.63363 0
M  V30 11278 H 1067.65 0.556453 0.767505 0
M  V30 11279 H 1067.35 1.55606 3.15404 0
M  V30 11280 H 1067.23 -0.081779 3.77111 0
M  V30 11281 H 1069.61 -0.553503 2.89863 0
M  V30 11282 H 1069.7 1.11107 2.3041 0
M  V30 11283 H 1069.34 1.95593 4.68728 0
M  V30 11284 H 1069.27 0.270121 5.25907 0
M  V30 11285 H 1071.76 0.595787 3.73174 0
M  V30 11286 H 1072.07 1.83184 7.50775 0
M  V30 11287 H 1070.42 1.64067 6.75357 0
M  V30 11288 H 1073.61 0.821074 4.60843 0
M  V30 11289 H 1073.78 1.3845 6.33037 0
M  V30 11290 N 1067.19 -1.57141 0.120249 0
M  V30 11291 C 1068.1 -2.18925 -0.843155 0
M  V30 11292 C 1069.11 -1.16575 -1.29175 0
M  V30 11293 O 1070.29 -1.4905 -1.35448 0
M  V30 11294 C 1067.36 -2.7775 -2.075 0
M  V30 11295 C 1066.42 -3.95139 -1.6782 0
M  V30 11296 C 1065.65 -4.51149 -2.85132 0
M  V30 11297 O 1065.87 -4.06056 -4.00593 0
M  V30 11298 O 1064.81 -5.41815 -2.62145 0
M  V30 11299 H 1068.63 -3.01707 -0.347357 0
M  V30 11300 H 1066.22 -1.49028 -0.105427 0
M  V30 11301 H 1068.1 -3.15243 -2.79643 0
M  V30 11302 H 1066.77 -1.97998 -2.56083 0
M  V30 11303 H 1065.68 -3.62412 -0.927807 0
M  V30 11304 H 1067.01 -4.7633 -1.23977 0
M  V30 11305 N 1068.67 0.153526 -1.5685 0
M  V30 11306 C 1069.91 0.873522 -1.84794 0
M  V30 11307 C 1070.27 1.78642 -0.703648 0
M  V30 11308 O 1071.47 2.54537 -0.863972 0
M  V30 11309 C 1069.74 1.63316 -3.17904 0
M  V30 11310 S 1071.3 2.39948 -3.67383 0
M  V30 11311 H 1068.12 0.292233 -0.648167 0
M  V30 11312 H 1070.72 0.133949 -1.95041 0
M  V30 11313 H 1069.43 0.95387 -3.99161 0
M  V30 11314 H 1068.96 2.41377 -3.10646 0
M  V30 11315 H 1070.97 3.65011 -3.36127 0
M  V30 11316 N 1070.14 1.51827 0.422667 0
M  V30 11317 C 1071.07 1.77152 1.52117 0
M  V30 11318 C 1072.06 0.621895 1.58324 0
M  V30 11319 O 1073.24 0.866118 1.73816 0
M  V30 11320 C 1070.37 1.90991 2.90068 0
M  V30 11321 C 1069.32 3.06516 2.98717 0
M  V30 11322 C 1068.65 3.05559 4.38791 0
M  V30 11323 C 1069.95 4.46223 2.71445 0
M  V30 11324 H 1071.64 2.69135 1.31175 0
M  V30 11325 H 1069.19 1.29507 0.629607 0
M  V30 11326 H 1071.14 2.07291 3.6689 0
M  V30 11327 H 1069.87 0.956688 3.12274 0
M  V30 11328 H 1068.53 2.89945 2.24338 0
M  V30 11329 H 1068.17 2.07985 4.57986 0
M  V30 11330 H 1067.87 3.83144 4.45505 0
M  V30 11331 H 1069.4 3.23971 5.17566 0
M  V30 11332 H 1070.81 4.63069 3.37994 0
M  V30 11333 H 1069.21 5.25623 2.89552 0
M  V30 11334 H 1070.28 4.5525 1.6696 0
M  V30 11335 N 1071.62 -0.679052 1.4222 0
M  V30 11336 C 1072.85 -1.46747 1.45852 0
M  V30 11337 C 1073.27 -1.88675 0.0685937 0
M  V30 11338 O 1072.62 -1.57861 -0.915757 0
M  V30 11339 C 1072.67 -2.71935 2.38188 0
M  V30 11340 O 1072.39 -2.31768 3.71773 0
M  V30 11341 C 1073.9 -3.65536 2.50796 0
M  V30 11342 H 1071.12 -0.451682 0.49621 0
M  V30 11343 H 1073.66 -0.834723 1.86689 0
M  V30 11344 H 1071.81 -3.31409 2.00616 0
M  V30 11345 H 1072.23 -3.12579 4.21182 0
M  V30 11346 H 1073.7 -4.50113 3.19535 0
M  V30 11347 H 1074.18 -4.11148 1.54447 0
M  V30 11348 H 1074.79 -3.11957 2.89072 0
M  V30 11349 N 1073.1 -1.28322 -0.914942 0
M  V30 11350 C 1074.51 -1.13937 -1.47903 0
M  V30 11351 C 1074.86 0.271072 -1.94318 0
M  V30 11352 O 1073.99 1.16522 -1.8235 0
M  V30 11353 C 1074.58 -2.06221 -2.68809 0
M  V30 11354 C 1073.14 -1.95903 -3.21402 0
M  V30 11355 C 1072.29 -1.98031 -1.94111 0
M  V30 11356 H 1075.24 -1.41029 -0.727772 0
M  V30 11357 H 1075.26 -1.6255 -3.44031 0
M  V30 11358 H 1074.77 -3.08866 -2.34997 0
M  V30 11359 H 1072.87 -0.962907 -3.59943 0
M  V30 11360 H 1072.99 -2.82799 -3.86732 0
M  V30 11361 H 1071.35 -1.42423 -2.11158 0
M  V30 11362 H 1072.13 -3.02354 -1.62595 0
M  V30 11363 N 1074.58 1.12322 -1.10551 0
M  V30 11364 C 1075.81 1.87407 -0.869607 0
M  V30 11365 C 1076.22 1.79976 0.58356 0
M  V30 11366 O 1075.56 1.1725 1.41415 0
M  V30 11367 C 1075.62 3.37401 -1.24099 0
M  V30 11368 C 1075.29 3.68607 -2.70144 0
M  V30 11369 C 1076.28 3.66869 -3.68379 0
M  V30 11370 C 1073.97 3.97903 -3.06559 0
M  V30 11371 C 1075.96 3.93987 -5.01052 0
M  V30 11372 C 1073.65 4.24681 -4.39419 0
M  V30 11373 C 1074.65 4.2271 -5.36475 0
M  V30 11374 O 1074.33 4.48823 -6.66943 0
M  V30 11375 H 1074.07 0.59978 -0.311834 0
M  V30 11376 H 1076.62 1.43037 -1.4741 0
M  V30 11377 H 1074.85 3.82332 -0.579606 0
M  V30 11378 H 1076.54 3.93833 -0.982378 0
M  V30 11379 H 1077.31 3.44297 -3.41591 0
M  V30 11380 H 1073.18 3.98578 -2.31638 0
M  V30 11381 H 1076.73 3.92364 -5.76798 0
M  V30 11382 H 1072.63 4.46727 -4.65945 0
M  V30 11383 H 1073.39 4.66436 -6.72592 0
M  V30 11384 N 1076.06 0.894434 1.2976 0
M  V30 11385 C 1077.02 0.373094 2.26143 0
M  V30 11386 C 1078.02 -0.489756 1.5316 0
M  V30 11387 O 1079.21 -0.29556 1.71674 0
M  V30 11388 C 1076.34 -0.467234 3.37683 0
M  V30 11389 H 1077.53 1.22427 2.73773 0
M  V30 11390 H 1075.09 0.672112 1.41111 0
M  V30 11391 H 1075.82 -1.33861 2.95384 0
M  V30 11392 H 1075.61 0.150954 3.91809 0
M  V30 11393 H 1077.1 -0.823469 4.094 0
M  V30 11394 N 1077.53 -1.43282 0.656365 0
M  V30 11395 C 1078.46 -2.33492 -0.0196962 0
M  V30 11396 C 1079.45 -1.49647 -0.80868 0
M  V30 11397 O 1080.63 -1.78303 -0.769529 0
M  V30 11398 C 1077.76 -3.33052 -0.984574 0
M  V30 11399 C 1076.71 -4.26908 -0.305483 0
M  V30 11400 C 1076.04 -5.16531 -1.38202 0
M  V30 11401 C 1077.34 -5.16073 0.804081 0
M  V30 11402 H 1079.03 -2.90272 0.733661 0
M  V30 11403 H 1076.58 -1.39574 0.354259 0
M  V30 11404 H 1078.53 -3.9506 -1.46647 0
M  V30 11405 H 1077.26 -2.74535 -1.76913 0
M  V30 11406 H 1075.92 -3.66268 0.155995 0
M  V30 11407 H 1075.56 -4.54351 -2.1581 0
M  V30 11408 H 1075.26 -5.80148 -0.932878 0
M  V30 11409 H 1076.79 -5.81414 -1.86522 0
M  V30 11410 H 1078.2 -5.71873 0.404212 0
M  V30 11411 H 1076.6 -5.88427 1.17789 0
M  V30 11412 H 1077.67 -4.55574 1.66073 0
M  V30 11413 N 1079.01 -0.398486 -1.52479 0
M  V30 11414 C 1079.98 0.420206 -2.25315 0
M  V30 11415 C 1080.98 0.982559 -1.27289 0
M  V30 11416 O 1082.17 0.863113 -1.51314 0
M  V30 11417 C 1079.3 1.59045 -3.01525 0
M  V30 11418 H 1080.49 -0.217599 -2.9911 0
M  V30 11419 H 1078.04 -0.150784 -1.55571 0
M  V30 11420 H 1078.78 2.26542 -2.32054 0
M  V30 11421 H 1078.56 1.19382 -3.73484 0
M  V30 11422 H 1080.05 2.16984 -3.56802 0
M  V30 11423 N 1080.49 1.57075 -0.12858 0
M  V30 11424 C 1081.9 1.82468 0.39526 0
M  V30 11425 C 1082.25 1.0463 1.65973 0
M  V30 11426 O 1081.38 0.285835 2.14504 0
M  V30 11427 C 1081.97 3.30976 0.723889 0
M  V30 11428 C 1080.53 3.57016 1.19232 0
M  V30 11429 C 1079.68 2.76534 0.205907 0
M  V30 11430 H 1082.63 1.54711 -0.353571 0
M  V30 11431 H 1082.65 3.46127 1.58039 0
M  V30 11432 H 1082.16 3.87602 -0.196595 0
M  V30 11433 H 1080.26 3.05758 2.12938 0
M  V30 11434 H 1080.38 4.65558 1.13103 0
M  V30 11435 H 1078.74 2.45038 0.694872 0
M  V30 11436 H 1079.52 3.35923 -0.707842 0
M  V30 11437 N 1081.97 -0.145205 1.5693 0
M  V30 11438 C 1082.92 -1.19841 1.99351 0
M  V30 11439 C 1083.91 -1.44371 0.886197 0
M  V30 11440 O 1085.12 -1.44642 1.07138 0
M  V30 11441 H 1081.49 -0.403437 0.63462 0
M  V30 11442 H 1083.46 -0.813932 2.87085 0
M  V30 11443 C 1082.21 -2.52377 2.39167 0
M  V30 11444 H 1081.54 -2.34332 3.23927 0
M  V30 11445 H 1082.98 -3.24694 2.72671 0
M  V30 11446 C 1081.43 -3.1305 1.24503 0
M  V30 11447 O 1081.96 -3.97962 0.546739 0
M  V30 11448 N 1080.17 -2.72528 1.00882 0
M  V30 11449 H 1079.72 -2.03576 1.57843 0
M  V30 11450 H 1079.68 -3.13456 0.24351 0
M  V30 11451 N 1083.45 -1.52049 -0.414609 0
M  V30 11452 C 1084.41 -1.74382 -1.4874 0
M  V30 11453 C 1085.41 -0.613701 -1.48628 0
M  V30 11454 O 1086.6 -0.88152 -1.50249 0
M  V30 11455 C 1083.73 -1.82116 -2.88178 0
M  V30 11456 H 1084.93 -2.70147 -1.30233 0
M  V30 11457 H 1082.48 -1.42382 -0.644756 0
M  V30 11458 H 1083.21 -0.882457 -3.12063 0
M  V30 11459 H 1083 -2.64268 -2.89663 0
M  V30 11460 H 1084.49 -2.01155 -3.65959 0
M  V30 11461 N 1084.93 0.6715 -1.42579 0
M  V30 11462 C 1086.17 1.43366 -1.43436 0
M  V30 11463 C 1086.5 1.94131 -0.0517339 0
M  V30 11464 O 1085.78 1.71121 0.924548 0
M  V30 11465 C 1086.06 2.62832 -2.46154 0
M  V30 11466 C 1085.92 2.17677 -3.9362 0
M  V30 11467 C 1087.23 3.65049 -2.4582 0
M  V30 11468 H 1084.35 0.519967 -0.522306 0
M  V30 11469 H 1087 0.762849 -1.74013 0
M  V30 11470 H 1085.15 3.20062 -2.2021 0
M  V30 11471 H 1086.82 1.65588 -4.30556 0
M  V30 11472 H 1085.06 1.49219 -4.07328 0
M  V30 11473 H 1085.73 3.03503 -4.61075 0
M  V30 11474 H 1088.21 3.17541 -2.68899 0
M  V30 11475 H 1087.08 4.46213 -3.19664 0
M  V30 11476 H 1087.34 4.16401 -1.48536 0
M  V30 11477 N 1086.4 1.28806 0.908124 0
M  V30 11478 C 1087.65 1.15663 1.65242 0
M  V30 11479 C 1087.97 -0.292883 1.93395 0
M  V30 11480 O 1089.17 -0.545509 2.65963 0
M  V30 11481 C 1087.63 2.02233 2.97707 0
M  V30 11482 C 1087.24 3.51958 2.77181 0
M  V30 11483 C 1088.98 1.97792 3.75604 0
M  V30 11484 C 1086.89 4.3066 4.05322 0
M  V30 11485 H 1085.82 0.42928 0.619867 0
M  V30 11486 H 1088.47 1.5338 1.00731 0
M  V30 11487 H 1086.85 1.57377 3.63385 0
M  V30 11488 H 1088.02 4.0481 2.20149 0
M  V30 11489 H 1086.34 3.57983 2.12691 0
M  V30 11490 H 1088.94 2.53858 4.70596 0
M  V30 11491 H 1089.28 0.955956 4.05175 0
M  V30 11492 H 1089.81 2.40648 3.16755 0
M  V30 11493 H 1086.55 5.3346 3.8092 0
M  V30 11494 H 1086.07 3.8258 4.61944 0
M  V30 11495 H 1087.75 4.40878 4.73535 0
M  V30 11496 N 1087.88 -1.11734 1.11145 0
M  V30 11497 C 1089.29 -1.64928 0.874959 0
M  V30 11498 C 1089.64 -1.87012 -0.593375 0
M  V30 11499 O 1088.77 -1.60206 -1.45475 0
M  V30 11500 C 1089.36 -2.99608 1.58178 0
M  V30 11501 C 1087.92 -3.49723 1.39179 0
M  V30 11502 C 1087.07 -2.24595 1.62642 0
M  V30 11503 H 1090.02 -0.954154 1.26813 0
M  V30 11504 H 1090.04 -3.66434 1.02501 0
M  V30 11505 H 1089.55 -2.83504 2.65042 0
M  V30 11506 H 1087.65 -3.70998 0.345111 0
M  V30 11507 H 1087.77 -4.28711 2.13878 0
M  V30 11508 H 1086.13 -2.32067 1.04961 0
M  V30 11509 H 1086.91 -2.11036 2.70774 0
M  V30 11510 N 1089.36 -0.901303 -1.29284 0
M  V30 11511 C 1090.59 -0.543511 -1.99634 0
M  V30 11512 C 1091 0.872154 -1.67448 0
M  V30 11513 O 1090.36 1.57591 -0.920406 0
M  V30 11514 C 1090.41 -0.728148 -3.54091 0
M  V30 11515 O 1090.13 -2.08809 -3.85137 0
M  V30 11516 C 1091.63 -0.375519 -4.41707 0
M  V30 11517 H 1088.85 -0.208405 -0.637815 0
M  V30 11518 H 1091.4 -1.21109 -1.64781 0
M  V30 11519 H 1089.55 -0.107728 -3.8725 0
M  V30 11520 H 1089.97 -2.11863 -4.79807 0
M  V30 11521 H 1091.44 -0.555538 -5.49197 0
M  V30 11522 H 1091.92 0.687532 -4.33785 0
M  V30 11523 H 1092.52 -0.972949 -4.14021 0
M  V30 11524 N 1090.84 1.42931 -0.663954 0
M  V30 11525 C 1092.06 2.06544 -0.188201 0
M  V30 11526 C 1092.49 1.495 1.14155 0
M  V30 11527 O 1091.85 0.609164 1.7076 0
M  V30 11528 C 1091.89 3.60393 -0.122105 0
M  V30 11529 O 1091 4.02176 0.91258 0
M  V30 11530 H 1090.34 0.656458 -0.0997967 0
M  V30 11531 H 1092.87 1.83253 -0.909909 0
M  V30 11532 H 1092.88 4.07959 0.0576568 0
M  V30 11533 H 1091.55 4.01287 -1.09276 0
M  V30 11534 H 1090.13 3.6618 0.704738 0
M  V30 11535 N 1092.32 0.406567 1.52266 0
M  V30 11536 C 1093.25 -0.411314 2.29849 0
M  V30 11537 C 1094.23 -1.04838 1.33952 0
M  V30 11538 O 1095.41 -1.05788 1.62857 0
M  V30 11539 C 1092.54 -1.52961 3.11802 0
M  V30 11540 C 1091.5 -1.01768 4.15725 0
M  V30 11541 C 1090.82 -2.22938 4.86007 0
M  V30 11542 C 1092.12 -0.073515 5.22248 0
M  V30 11543 H 1093.82 0.236054 2.98468 0
M  V30 11544 H 1091.36 0.114968 1.4354 0
M  V30 11545 H 1093.31 -2.10874 3.64843 0
M  V30 11546 H 1092.04 -2.20482 2.40947 0
M  V30 11547 H 1090.7 -0.46097 3.6369 0
M  V30 11548 H 1090.35 -2.89007 4.11684 0
M  V30 11549 H 1090.05 -1.89338 5.5626 0
M  V30 11550 H 1091.57 -2.81462 5.41859 0
M  V30 11551 H 1092.98 -0.561367 5.70545 0
M  V30 11552 H 1091.38 0.173551 5.99849 0
M  V30 11553 H 1092.45 0.872524 4.76985 0
M  V30 11554 N 1093.79 -1.57004 0.136909 0
M  V30 11555 C 1094.76 -2.15066 -0.792419 0
M  V30 11556 C 1095.76 -1.08991 -1.18226 0
M  V30 11557 O 1096.95 -1.34681 -1.10484 0
M  V30 11558 C 1094.08 -2.70554 -2.07397 0
M  V30 11559 H 1095.27 -2.98519 -0.28752 0
M  V30 11560 H 1092.83 -1.55895 -0.112469 0
M  V30 11561 H 1093.56 -1.90739 -2.62277 0
M  V30 11562 H 1093.35 -3.48149 -1.80374 0
M  V30 11563 H 1094.84 -3.15322 -2.73792 0
M  V30 11564 N 1095.27 0.136881 -1.57004 0
M  V30 11565 C 1096.2 1.17026 -2.02057 0
M  V30 11566 C 1097.18 1.44223 -0.901866 0
M  V30 11567 O 1098.37 1.54971 -1.17037 0
M  V30 11568 C 1095.5 2.50095 -2.40977 0
M  V30 11569 C 1094.45 2.37398 -3.56127 0
M  V30 11570 C 1093.78 3.75268 -3.80891 0
M  V30 11571 C 1095.08 1.84952 -4.88457 0
M  V30 11572 H 1096.77 0.795601 -2.88636 0
M  V30 11573 H 1094.32 0.381266 -1.38861 0
M  V30 11574 H 1096.27 3.22621 -2.71097 0
M  V30 11575 H 1095 2.89416 -1.51348 0
M  V30 11576 H 1093.65 1.67322 -3.26188 0
M  V30 11577 H 1093.3 4.12043 -2.88496 0
M  V30 11578 H 1093 3.67631 -4.5839 0
M  V30 11579 H 1094.53 4.49327 -4.13446 0
M  V30 11580 H 1095.94 2.4728 -5.17229 0
M  V30 11581 H 1094.34 1.88181 -5.69832 0
M  V30 11582 H 1095.41 0.805848 -4.78157 0
M  V30 11583 N 1096.75 1.52266 0.40654 0
M  V30 11584 C 1097.68 1.78755 1.50229 0
M  V30 11585 C 1098.66 0.638652 1.57655 0
M  V30 11586 O 1099.85 0.884505 1.72888 0
M  V30 11587 C 1096.98 1.94057 2.88026 0
M  V30 11588 C 1095.93 3.09667 2.95449 0
M  V30 11589 C 1095.26 3.10196 4.35526 0
M  V30 11590 C 1096.56 4.49077 2.66697 0
M  V30 11591 H 1098.25 2.70511 1.28313 0
M  V30 11592 H 1095.8 1.30167 0.615836 0
M  V30 11593 H 1097.75 2.11171 3.64671 0
M  V30 11594 H 1096.47 0.989755 3.11242 0
M  V30 11595 H 1095.13 2.92308 2.2125 0
M  V30 11596 H 1094.78 2.12831 4.55754 0
M  V30 11597 H 1094.48 3.87847 4.41416 0
M  V30 11598 H 1096 3.29443 5.14101 0
M  V30 11599 H 1097.42 4.66628 3.33064 0
M  V30 11600 H 1095.82 5.28665 2.8396 0
M  V30 11601 H 1096.89 4.56995 1.62122 0
M  V30 11602 N 1098.23 -0.663929 1.42933 0
M  V30 11603 C 1099.47 -1.43583 1.45476 0
M  V30 11604 C 1099.83 -1.91862 0.0728387 0
M  V30 11605 O 1101.03 -2.68786 -0.0270249 0
M  V30 11606 C 1099.3 -2.59316 2.45947 0
M  V30 11607 S 1100.86 -3.48004 2.6728 0
M  V30 11608 H 1097.68 -0.490261 0.514942 0
M  V30 11609 H 1100.28 -0.771834 1.79619 0
M  V30 11610 H 1098.99 -2.22104 3.45106 0
M  V30 11611 H 1098.52 -3.30577 2.13266 0
M  V30 11612 H 1100.53 -4.55677 1.96399 0
M  V30 11613 N 1099.71 -1.29285 -0.901281 0
M  V30 11614 C 1100.95 -1.18431 -1.66594 0
M  V30 11615 C 1101.31 0.260312 -1.90227 0
M  V30 11616 O 1102.51 0.4918 -2.64263 0
M  V30 11617 C 1100.78 -1.97357 -2.97968 0
M  V30 11618 S 1102.34 -2.03019 -3.8901 0
M  V30 11619 H 1099.16 -0.422323 -0.571983 0
M  V30 11620 H 1101.76 -1.63551 -1.07105 0
M  V30 11621 H 1100.47 -3.01459 -2.78479 0
M  V30 11622 H 1100 -1.52836 -3.62498 0
M  V30 11623 H 1102.01 -1.14572 -4.82791 0
M  V30 11624 N 1101.18 1.11143 -1.11736 0
M  V30 11625 C 1102.43 1.83219 -0.869413 0
M  V30 11626 C 1102.76 1.84588 0.603402 0
M  V30 11627 O 1102.04 1.30119 1.44566 0
M  V30 11628 C 1102.32 3.30247 -1.43559 0
M  V30 11629 C 1102.17 3.37253 -2.97624 0
M  V30 11630 C 1103.49 4.26412 -1.08907 0
M  V30 11631 H 1100.61 0.665205 -0.317286 0
M  V30 11632 H 1103.25 1.30307 -1.38275 0
M  V30 11633 H 1101.4 3.75437 -0.998978 0
M  V30 11634 H 1103.08 3.00599 -3.49911 0
M  V30 11635 H 1101.32 2.77378 -3.33532 0
M  V30 11636 H 1101.99 4.40752 -3.32328 0
M  V30 11637 H 1104.47 3.89418 -1.46604 0
M  V30 11638 H 1103.34 5.27666 -1.51195 0
M  V30 11639 H 1103.6 4.421 -0.000259009 0
M  V30 11640 N 1102.66 0.908147 1.28804 0
M  V30 11641 C 1104.08 0.605474 1.47669 0
M  V30 11642 C 1104.28 -0.850759 1.82659 0
M  V30 11643 O 1103.33 -1.63029 1.92816 0
M  V30 11644 C 1104.65 1.53856 2.58358 0
M  V30 11645 C 1106.2 1.54467 2.7223 0
M  V30 11646 C 1106.67 2.46424 3.86056 0
M  V30 11647 N 1108.16 2.44519 3.93402 0
M  V30 11648 C 1108.9 3.12371 4.80845 0
M  V30 11649 N 1108.39 3.89533 5.72919 0
M  V30 11650 N 1110.19 3.01486 4.74407 0
M  V30 11651 H 1102.34 1.84988 1.04371 0
M  V30 11652 H 1104.6 0.793132 0.519274 0
M  V30 11653 H 1104.31 2.57651 2.39393 0
M  V30 11654 H 1104.18 1.26543 3.5534 0
M  V30 11655 H 1106.57 0.514127 2.90587 0
M  V30 11656 H 1106.65 1.85821 1.75796 0
M  V30 11657 H 1106.29 3.49577 3.68454 0
M  V30 11658 H 1106.22 2.12375 4.81876 0
M  V30 11659 H 1108.71 1.88464 3.27551 0
M  V30 11660 H 1109.03 4.3834 6.36457 0
M  V30 11661 H 1107.37 3.93639 5.72777 0
M  V30 11662 H 1110.56 2.40713 4.01466 0
M  V30 11663 H 1110.73 3.5464 5.42342 0
M  V30 11664 N 1104.14 -1.42577 0.671525 0
M  V30 11665 C 1105.37 -2.06442 0.199152 0
M  V30 11666 C 1105.79 -1.50104 -1.1336 0
M  V30 11667 O 1105.15 -0.618211 -1.70434 0
M  V30 11668 C 1105.2 -3.60323 0.141215 0
M  V30 11669 O 1104.3 -4.02655 -0.891238 0
M  V30 11670 H 1103.64 -0.655919 0.103277 0
M  V30 11671 H 1106.17 -1.82768 0.919614 0
M  V30 11672 H 1106.18 -4.07984 -0.0360209 0
M  V30 11673 H 1104.86 -4.00702 1.11403 0
M  V30 11674 H 1103.43 -3.66549 -0.685309 0
M  V30 11675 N 1105.62 -0.414636 -1.52048 0
M  V30 11676 C 1106.58 0.396285 -2.25748 0
M  V30 11677 C 1107.58 0.969003 -1.28324 0
M  V30 11678 O 1108.77 0.847016 -1.52221 0
M  V30 11679 C 1105.9 1.55838 -3.03195 0
M  V30 11680 H 1107.1 -0.249311 -2.98862 0
M  V30 11681 H 1104.65 -0.167276 -1.55402 0
M  V30 11682 H 1105.38 2.24068 -2.34444 0
M  V30 11683 H 1105.17 1.15414 -3.74729 0
M  V30 11684 H 1106.66 2.13187 -3.59084 0
M  V30 11685 N 1107.1 1.56929 -0.145233 0
M  V30 11686 C 1108.04 2.17958 0.812237 0
M  V30 11687 C 1109.04 1.13608 1.25657 0
M  V30 11688 O 1110.24 1.31861 1.22526 0
M  V30 11689 H 1106.62 0.697876 0.28013 0
M  V30 11690 H 1108.59 2.97146 0.273297 0
M  V30 11691 C 1107.34 2.81418 2.04203 0
M  V30 11692 H 1106.66 3.61427 1.70911 0
M  V30 11693 H 1108.1 3.27624 2.69144 0
M  V30 11694 C 1106.56 1.79835 2.84888 0
M  V30 11695 O 1107.09 1.26773 3.81171 0
M  V30 11696 N 1105.3 1.49179 2.49387 0
M  V30 11697 H 1104.84 1.9252 1.71154 0
M  V30 11698 H 1104.8 0.81458 3.03664 0
M  V30 11699 N 1108.58 -0.128553 1.57075 0
M  V30 11700 C 1109.54 -1.14215 1.98715 0
M  V30 11701 C 1110.54 -1.34843 0.876019 0
M  V30 11702 O 1111.73 -1.31522 1.14227 0
M  V30 11703 C 1108.86 -2.49865 2.31905 0
M  V30 11704 H 1110.05 -0.784481 2.89458 0
M  V30 11705 H 1107.61 -0.372531 1.51796 0
M  V30 11706 H 1108.34 -2.9057 1.44012 0
M  V30 11707 H 1108.13 -2.3625 3.12935 0
M  V30 11708 H 1109.62 -3.22832 2.64895 0
M  V30 11709 N 1110.05 -1.5248 -0.398459 0
M  V30 11710 C 1110.96 -1.79492 -1.51062 0
M  V30 11711 C 1111.98 -0.681101 -1.60116 0
M  V30 11712 O 1113.16 -0.967671 -1.7663 0
M  V30 11713 C 1110.22 -1.94958 -2.86692 0
M  V30 11714 C 1109.28 -3.1887 -2.87438 0
M  V30 11715 C 1108.51 -3.33588 -4.16599 0
M  V30 11716 O 1108.74 -2.53327 -5.11059 0
M  V30 11717 O 1107.67 -4.26795 -4.24416 0
M  V30 11718 H 1111.5 -2.73913 -1.31169 0
M  V30 11719 H 1109.08 -1.37455 -0.585372 0
M  V30 11720 H 1110.96 -2.06891 -3.67116 0
M  V30 11721 H 1109.64 -1.03726 -3.06631 0
M  V30 11722 H 1108.55 -3.12386 -2.0583 0
M  V30 11723 H 1109.88 -4.09917 -2.7245 0
M  V30 11724 N 1111.53 0.65634 -1.43283 0
M  V30 11725 C 1112.76 1.44408 -1.48168 0
M  V30 11726 C 1113.17 1.88542 -0.0986016 0
M  V30 11727 O 1112.53 1.59298 0.890527 0
M  V30 11728 C 1112.58 2.68111 -2.42484 0
M  V30 11729 O 1112.3 2.25824 -3.75413 0
M  V30 11730 C 1113.8 3.61499 -2.56579 0
M  V30 11731 H 1111.02 0.443731 -0.503333 0
M  V30 11732 H 1113.57 0.804917 -1.87993 0
M  V30 11733 H 1111.72 3.28175 -2.05863 0
M  V30 11734 H 1112.14 3.05839 -4.26102 0
M  V30 11735 H 1113.61 4.44972 -3.26655 0
M  V30 11736 H 1114.09 4.08639 -1.60969 0
M  V30 11737 H 1114.69 3.07319 -2.93998 0
M  V30 11738 N 1113.01 1.29761 0.894412 0
M  V30 11739 C 1114.26 1.18039 1.64539 0
M  V30 11740 C 1114.58 -0.26697 1.92659 0
M  V30 11741 O 1113.84 -1.20865 1.53916 0
M  V30 11742 C 1114.14 1.94458 2.99868 0
M  V30 11743 C 1113.8 3.44143 2.91336 0
M  V30 11744 C 1112.47 3.84963 2.88716 0
M  V30 11745 C 1114.82 4.39503 2.80154 0
M  V30 11746 C 1112.15 5.19451 2.72741 0
M  V30 11747 C 1114.5 5.74088 2.65718 0
M  V30 11748 C 1113.16 6.14159 2.61467 0
M  V30 11749 H 1112.43 0.431936 0.60209 0
M  V30 11750 H 1115.08 1.60758 1.04063 0
M  V30 11751 H 1113.38 1.44346 3.64241 0
M  V30 11752 H 1115.08 1.82788 3.56917 0
M  V30 11753 H 1111.67 3.11699 2.9418 0
M  V30 11754 H 1115.86 4.08915 2.81251 0
M  V30 11755 H 1111.11 5.49602 2.67858 0
M  V30 11756 H 1115.29 6.47625 2.56038 0
M  V30 11757 H 1112.91 7.18317 2.48847 0
M  V30 11758 N 1114.49 -1.10549 1.12324 0
M  V30 11759 C 1115.72 -1.8627 0.900618 0
M  V30 11760 C 1116.13 -1.80609 -0.550069 0
M  V30 11761 O 1115.49 -1.19396 -1.38025 0
M  V30 11762 C 1115.54 -3.34716 1.36556 0
M  V30 11763 O 1115.26 -3.40279 2.75938 0
M  V30 11764 C 1116.76 -4.27315 1.17969 0
M  V30 11765 H 1113.98 -0.588741 0.321908 0
M  V30 11766 H 1116.52 -1.39759 1.49291 0
M  V30 11767 H 1114.68 -3.78697 0.81652 0
M  V30 11768 H 1115.09 -4.32781 2.96312 0
M  V30 11769 H 1116.57 -5.29677 1.55391 0
M  V30 11770 H 1117.04 -4.39036 0.120158 0
M  V30 11771 H 1117.65 -3.89137 1.71617 0
M  V30 11772 N 1115.97 -0.914965 -1.28321 0
M  V30 11773 C 1116.88 -0.409424 -2.31 0
M  V30 11774 C 1117.89 0.503526 -1.66555 0
M  V30 11775 O 1119.07 0.38942 -1.97599 0
M  V30 11776 C 1116.13 0.34123 -3.45017 0
M  V30 11777 C 1115.19 -0.605087 -4.25014 0
M  V30 11778 C 1114.43 0.109837 -5.33587 0
M  V30 11779 O 1114.65 1.33136 -5.54645 0
M  V30 11780 O 1113.58 -0.555474 -5.99331 0
M  V30 11781 H 1117.41 -1.26167 -2.76253 0
M  V30 11782 H 1114.99 -0.679831 -1.33036 0
M  V30 11783 H 1116.88 0.765132 -4.14396 0
M  V30 11784 H 1115.55 1.16929 -3.01843 0
M  V30 11785 H 1114.46 -1.07841 -3.58219 0
M  V30 11786 H 1115.79 -1.39999 -4.7187 0
M  V30 11787 N 1117.44 1.42219 -0.679077 0
M  V30 11788 C 1118.67 2.05815 -0.211649 0
M  V30 11789 C 1119.09 1.51037 1.13284 0
M  V30 11790 O 1118.44 0.651894 1.7046 0
M  V30 11791 C 1118.49 3.61218 -0.142663 0
M  V30 11792 O 1118.22 4.13965 -1.43402 0
M  V30 11793 C 1119.72 4.41934 0.347746 0
M  V30 11794 H 1116.94 0.663215 -0.101914 0
M  V30 11795 H 1119.48 1.82282 -0.927017 0
M  V30 11796 H 1117.64 3.83848 0.52342 0
M  V30 11797 H 1118.05 5.07872 -1.31021 0
M  V30 11798 H 1119.52 5.50921 0.344916 0
M  V30 11799 H 1120 4.16832 1.38377 0
M  V30 11800 H 1120.61 4.24332 -0.286751 0
M  V30 11801 N 1118.92 0.422693 1.51826 0
M  V30 11802 C 1119.85 -0.440987 2.23899 0
M  V30 11803 C 1120.83 -1.03685 1.25252 0
M  V30 11804 O 1122.02 -1.08212 1.54345 0
M  V30 11805 C 1119.14 -1.61331 2.97809 0
M  V30 11806 C 1118.19 -1.13954 4.10995 0
M  V30 11807 S 1119.02 -0.0935426 5.35418 0
M  V30 11808 C 1120.18 -1.27087 6.12862 0
M  V30 11809 H 1120.41 0.170945 2.96808 0
M  V30 11810 H 1117.94 0.20709 1.53005 0
M  V30 11811 H 1119.9 -2.28546 3.40994 0
M  V30 11812 H 1118.56 -2.19662 2.24516 0
M  V30 11813 H 1117.76 -2.01578 4.61933 0
M  V30 11814 H 1117.36 -0.545838 3.69995 0
M  V30 11815 H 1119.65 -2.19199 6.4106 0
M  V30 11816 H 1120.59 -0.801752 7.03546 0
M  V30 11817 H 1121 -1.50281 5.44129 0
M  V30 11818 N 1120.4 -1.5685 0.153553 0
M  V30 11819 C 1121.62 -2.01135 -0.505904 0
M  V30 11820 C 1122.05 -1.03301 -1.57196 0
M  V30 11821 O 1121.41 -0.00976022 -1.81297 0
M  V30 11822 C 1121.46 -3.44129 -1.0774 0
M  V30 11823 O 1120.56 -3.49318 -2.19205 0
M  V30 11824 H 1119.9 -0.652496 -0.123062 0
M  V30 11825 H 1122.43 -2.03039 0.252216 0
M  V30 11826 H 1122.44 -3.83066 -1.40444 0
M  V30 11827 H 1121.12 -4.1484 -0.296754 0
M  V30 11828 H 1119.69 -3.22227 -1.8768 0
M  V30 11829 N 1121.88 0.120221 -1.57141 0
M  V30 11830 C 1123.11 0.841219 -1.88698 0
M  V30 11831 C 1123.52 1.7401 -0.74277 0
M  V30 11832 O 1122.86 1.81308 0.295497 0
M  V30 11833 C 1122.92 1.72781 -3.15257 0
M  V30 11834 C 1122.58 1.00336 -4.45849 0
M  V30 11835 C 1123.58 0.344734 -5.18756 0
M  V30 11836 C 1121.27 0.984899 -4.9255 0
M  V30 11837 C 1123.26 -0.322664 -6.36583 0
M  V30 11838 C 1120.95 0.313702 -6.10294 0
M  V30 11839 C 1121.95 -0.338926 -6.82159 0
M  V30 11840 O 1121.63 -0.999416 -7.97663 0
M  V30 11841 H 1121.37 0.247195 -0.629182 0
M  V30 11842 H 1123.92 0.109542 -2.05108 0
M  V30 11843 H 1122.15 2.5011 -2.94927 0
M  V30 11844 H 1123.84 2.32313 -3.32845 0
M  V30 11845 H 1124.6 0.350623 -4.83731 0
M  V30 11846 H 1120.48 1.4823 -4.36519 0
M  V30 11847 H 1124.03 -0.832643 -6.92613 0
M  V30 11848 H 1119.92 0.305572 -6.44776 0
M  V30 11849 H 1120.69 -0.90377 -8.13495 0
M  V30 11850 N 1123.36 1.52689 0.390367 0
M  V30 11851 C 1124.29 1.80338 1.48325 0
M  V30 11852 C 1125.27 0.655338 1.56969 0
M  V30 11853 O 1126.45 0.902792 1.7194 0
M  V30 11854 C 1123.58 1.97101 2.85952 0
M  V30 11855 C 1122.54 3.12783 2.92148 0
M  V30 11856 C 1121.86 3.14798 4.32211 0
M  V30 11857 C 1123.16 4.5188 2.61919 0
M  V30 11858 H 1124.86 2.71857 1.25437 0
M  V30 11859 H 1122.4 1.30813 0.601995 0
M  V30 11860 H 1124.36 2.15027 3.62411 0
M  V30 11861 H 1123.08 1.02271 3.10174 0
M  V30 11862 H 1121.74 2.94638 2.18137 0
M  V30 11863 H 1121.39 2.17653 4.53471 0
M  V30 11864 H 1121.09 3.92507 4.37278 0
M  V30 11865 H 1122.61 3.34877 5.10578 0
M  V30 11866 H 1124.02 4.70134 3.28096 0
M  V30 11867 H 1122.42 5.31647 2.78337 0
M  V30 11868 H 1123.49 4.58689 1.57266 0
M  V30 11869 N 1124.83 -0.648732 1.43629 0
M  V30 11870 C 1126.08 -1.40898 1.46695 0
M  V30 11871 C 1126.44 -1.92183 0.0914565 0
M  V30 11872 O 1125.73 -1.69642 -0.890623 0
M  V30 11873 C 1125.92 -2.60394 2.44806 0
M  V30 11874 C 1125.75 -2.20805 3.91759 0
M  V30 11875 C 1124.52 -2.08918 4.60088 0
M  V30 11876 C 1126.72 -1.80811 4.81469 0
M  V30 11877 N 1124.7 -1.62707 5.91946 0
M  V30 11878 C 1126.07 -1.45715 6.02633 0
M  V30 11879 C 1128.13 -1.68034 4.68689 0
M  V30 11880 C 1126.83 -0.991224 7.12438 0
M  V30 11881 C 1128.86 -1.22846 5.78501 0
M  V30 11882 C 1128.22 -0.886902 6.98794 0
M  V30 11883 H 1124.32 -0.511063 0.591894 0
M  V30 11884 H 1126.9 -0.746064 1.79839 0
M  V30 11885 H 1125.07 -3.24338 2.13681 0
M  V30 11886 H 1126.8 -3.27115 2.38281 0
M  V30 11887 H 1123.56 -2.28818 4.14656 0
M  V30 11888 H 1123.98 -1.41951 6.61951 0
M  V30 11889 H 1128.63 -1.93078 3.76139 0
M  V30 11890 H 1126.34 -0.728271 8.04812 0
M  V30 11891 H 1129.93 -1.13443 5.70633 0
M  V30 11892 H 1128.81 -0.542577 7.82321 0
M  V30 11893 N 1126.31 -1.30234 -0.887518 0
M  V30 11894 C 1127.54 -1.21955 -1.67755 0
M  V30 11895 C 1127.96 0.214701 -1.86871 0
M  V30 11896 O 1127.32 1.15459 -1.39782 0
M  V30 11897 C 1127.37 -1.95079 -3.03276 0
M  V30 11898 O 1126.47 -1.27615 -3.92158 0
M  V30 11899 H 1125.81 -0.421948 -0.512695 0
M  V30 11900 H 1128.34 -1.72011 -1.10785 0
M  V30 11901 H 1128.35 -2.04004 -3.53336 0
M  V30 11902 H 1127.03 -2.99392 -2.88682 0
M  V30 11903 H 1125.61 -1.27029 -3.50597 0
M  V30 11904 N 1127.79 1.09952 -1.12909 0
M  V30 11905 C 1128.74 2.18525 -0.796849 0
M  V30 11906 C 1129.73 1.67985 0.218483 0
M  V30 11907 O 1130.94 1.79839 0.07618 0
M  V30 11908 H 1127.31 0.712714 -0.239882 0
M  V30 11909 H 1129.28 2.43783 -1.72083 0
M  V30 11910 C 1128.03 3.46625 -0.273237 0
M  V30 11911 H 1127.36 3.85879 -1.04582 0
M  V30 11912 H 1128.8 4.23926 -0.0791355 0
M  V30 11913 C 1127.26 3.2172 0.999903 0
M  V30 11914 O 1127.79 3.43851 2.07676 0
M  V30 11915 N 1125.99 2.75356 0.928833 0
M  V30 11916 H 1125.54 2.57547 0.052379 0
M  V30 11917 H 1125.5 2.5907 1.78129 0
M  V30 11918 N 1129.27 0.921757 1.27833 0
M  V30 11919 C 1130.49 0.574599 1.99281 0
M  V30 11920 C 1130.92 -0.838905 1.68357 0
M  V30 11921 O 1130.28 -1.56196 0.920468 0
M  V30 11922 C 1130.32 0.800027 3.51613 0
M  V30 11923 O 1129.43 -0.137215 4.12172 0
M  V30 11924 H 1128.77 0.221887 0.625829 0
M  V30 11925 H 1131.3 1.23939 1.62789 0
M  V30 11926 H 1131.31 0.71326 4.01717 0
M  V30 11927 H 1129.98 1.83042 3.73455 0
M  V30 11928 H 1128.56 -0.00103872 3.729 0
M  V30 11929 N 1130.75 -1.41857 0.686609 0
M  V30 11930 C 1131.68 -2.29188 -0.0234289 0
M  V30 11931 C 1132.69 -1.44311 -0.753541 0
M  V30 11932 O 1133.88 -1.67908 -0.605734 0
M  V30 11933 C 1130.98 -3.21991 -1.05713 0
M  V30 11934 C 1130.15 -4.35581 -0.398453 0
M  V30 11935 C 1129.21 -5.09022 -1.33354 0
M  V30 11936 O 1128.24 -5.63126 -0.829334 0
M  V30 11937 N 1129.44 -5.15643 -2.66632 0
M  V30 11938 H 1132.21 -2.90766 0.726295 0
M  V30 11939 H 1129.77 -1.52912 0.531937 0
M  V30 11940 H 1131.76 -3.6799 -1.68421 0
M  V30 11941 H 1130.33 -2.61782 -1.70847 0
M  V30 11942 H 1129.55 -3.92079 0.408358 0
M  V30 11943 H 1130.84 -5.08765 0.0599239 0
M  V30 11944 H 1130.23 -4.73118 -3.10122 0
M  V30 11945 H 1128.79 -5.65248 -3.24558 0
M  V30 11946 N 1132.22 -0.430739 -1.51599 0
M  V30 11947 C 1133.64 0.0339139 -1.86669 0
M  V30 11948 C 1133.99 1.42533 -1.34829 0
M  V30 11949 O 1133.11 2.04889 -0.696376 0
M  V30 11950 C 1133.71 0.0683174 -3.38731 0
M  V30 11951 C 1132.27 0.477363 -3.73361 0
M  V30 11952 C 1131.41 -0.334258 -2.75278 0
M  V30 11953 H 1134.36 -0.646875 -1.44918 0
M  V30 11954 H 1134.38 0.879179 -3.70204 0
M  V30 11955 H 1133.9 -0.944501 -3.76432 0
M  V30 11956 H 1132 1.49603 -3.41247 0
M  V30 11957 H 1132.11 0.206744 -4.78654 0
M  V30 11958 H 1130.47 0.206503 -2.53861 0
M  V30 11959 H 1131.26 -1.34583 -3.1582 0
M  V30 11960 N 1133.7 1.56767 -0.161869 0
M  V30 11961 C 1134.95 1.96594 0.485496 0
M  V30 11962 C 1135.28 1.04743 1.63887 0
M  V30 11963 O 1134.53 0.079602 1.95538 0
M  V30 11964 C 1134.83 3.42567 1.01894 0
M  V30 11965 C 1134.5 4.50897 -0.0175419 0
M  V30 11966 C 1133.16 4.80249 -0.302429 0
M  V30 11967 C 1135.51 5.16181 -0.721572 0
M  V30 11968 C 1132.84 5.72187 -1.2969 0
M  V30 11969 C 1135.19 6.09191 -1.70496 0
M  V30 11970 C 1133.86 6.36915 -1.99739 0
M  V30 11971 H 1133.13 0.719388 0.177656 0
M  V30 11972 H 1135.77 1.89837 -0.251839 0
M  V30 11973 H 1134.08 3.4623 1.83391 0
M  V30 11974 H 1135.77 3.70719 1.52867 0
M  V30 11975 H 1132.36 4.28062 0.21468 0
M  V30 11976 H 1136.55 4.93624 -0.514681 0
M  V30 11977 H 1131.8 5.91953 -1.52974 0
M  V30 11978 H 1135.98 6.58849 -2.25591 0
M  V30 11979 H 1133.61 7.07958 -2.76948 0
M  V30 11980 N 1135.18 -0.111886 1.57202 0
M  V30 11981 C 1136.43 -0.818411 1.85225 0
M  V30 11982 C 1136.76 -1.79542 0.747991 0
M  V30 11983 O 1136.01 -1.93965 -0.260013 0
M  V30 11984 C 1136.31 -1.59644 3.19763 0
M  V30 11985 C 1135.98 -0.76308 4.44396 0
M  V30 11986 C 1134.64 -0.53329 4.78236 0
M  V30 11987 C 1136.99 -0.18266 5.2088 0
M  V30 11988 C 1134.32 0.287056 5.85997 0
M  V30 11989 C 1136.67 0.624916 6.29506 0
M  V30 11990 C 1135.33 0.864955 6.61872 0
M  V30 11991 H 1134.6 -0.299478 0.677786 0
M  V30 11992 H 1137.25 -0.0805082 1.91331 0
M  V30 11993 H 1135.56 -2.40545 3.09266 0
M  V30 11994 H 1137.25 -2.1472 3.38669 0
M  V30 11995 H 1133.84 -0.952278 4.17887 0
M  V30 11996 H 1138.03 -0.34739 4.95083 0
M  V30 11997 H 1133.28 0.482179 6.09496 0
M  V30 11998 H 1137.46 1.08162 6.87949 0
M  V30 11999 H 1135.08 1.50244 7.45205 0
M  V30 12000 N 1136.66 -1.52894 -0.382264 0
M  V30 12001 C 1137.9 -1.69465 -1.12486 0
M  V30 12002 C 1138.26 -0.432631 -1.87473 0
M  V30 12003 O 1137.55 0.573901 -1.82803 0
M  V30 12004 C 1137.75 -2.87309 -2.12576 0
M  V30 12005 C 1137.58 -4.24849 -1.47421 0
M  V30 12006 C 1136.35 -4.89965 -1.23542 0
M  V30 12007 C 1138.54 -5.05991 -0.920733 0
M  V30 12008 N 1136.53 -6.1147 -0.545631 0
M  V30 12009 C 1137.9 -6.18958 -0.359379 0
M  V30 12010 C 1139.95 -4.91138 -0.817797 0
M  V30 12011 C 1138.65 -7.18695 0.294853 0
M  V30 12012 C 1140.68 -5.91134 -0.177375 0
M  V30 12013 C 1140.04 -7.03411 0.373179 0
M  V30 12014 H 1136.14 -0.673527 -0.397347 0
M  V30 12015 H 1138.73 -1.90259 -0.413479 0
M  V30 12016 H 1136.9 -2.68083 -2.81044 0
M  V30 12017 H 1138.63 -2.92784 -2.79392 0
M  V30 12018 H 1135.38 -4.48808 -1.51223 0
M  V30 12019 H 1135.81 -6.76653 -0.216582 0
M  V30 12020 H 1140.45 -4.04536 -1.22924 0
M  V30 12021 H 1138.17 -8.04901 0.718285 0
M  V30 12022 H 1141.75 -5.81716 -0.0988833 0
M  V30 12023 H 1140.63 -7.7946 0.860905 0
M  V30 12024 N 1138.14 0.641106 -1.43971 0
M  V30 12025 C 1139.38 1.40291 -1.46445 0
M  V30 12026 C 1139.72 1.93978 -0.0929004 0
M  V30 12027 O 1138.99 1.73043 0.888043 0
M  V30 12028 C 1139.27 2.57551 -2.51673 0
M  V30 12029 C 1139.13 2.09279 -3.98149 0
M  V30 12030 C 1140.45 3.59752 -2.53508 0
M  V30 12031 H 1137.57 0.508771 -0.533218 0
M  V30 12032 H 1140.21 0.725767 -1.75592 0
M  V30 12033 H 1138.36 3.15319 -2.2695 0
M  V30 12034 H 1140.03 1.56418 -4.33971 0
M  V30 12035 H 1138.27 1.40545 -4.10402 0
M  V30 12036 H 1138.94 2.93655 -4.67409 0
M  V30 12037 H 1141.42 3.11766 -2.75574 0
M  V30 12038 H 1140.3 4.39332 -3.29057 0
M  V30 12039 H 1140.56 4.13156 -1.57335 0
M  V30 12040 N 1139.62 1.30703 0.880598 0
M  V30 12041 C 1140.55 1.1327 1.99255 0
M  V30 12042 C 1141.56 0.0747186 1.62628 0
M  V30 12043 O 1142.75 0.321169 1.75587 0
M  V30 12044 C 1139.85 0.706179 3.31461 0
M  V30 12045 C 1139.02 1.84687 3.96497 0
M  V30 12046 C 1138.08 1.40817 5.07008 0
M  V30 12047 O 1137.11 2.1161 5.28403 0
M  V30 12048 N 1138.31 0.289619 5.79777 0
M  V30 12049 H 1141.07 2.09043 2.14759 0
M  V30 12050 H 1138.64 1.22896 1.05395 0
M  V30 12051 H 1140.63 0.395617 4.02762 0
M  V30 12052 H 1139.2 -0.159631 3.12192 0
M  V30 12053 H 1138.42 2.32531 3.18312 0
M  V30 12054 H 1139.71 2.61117 4.36687 0
M  V30 12055 H 1139.1 -0.300177 5.64903 0
M  V30 12056 H 1137.66 0.0385346 6.51789 0
M  V30 12057 N 1141.09 -1.09351 1.1349 0
M  V30 12058 C 1142.02 -2.18037 0.835588 0
M  V30 12059 C 1143 -1.68856 -0.205373 0
M  V30 12060 O 1144.19 -1.94094 -0.0641357 0
M  V30 12061 C 1141.32 -3.45987 0.301661 0
M  V30 12062 C 1140.27 -4.08507 1.27696 0
M  V30 12063 C 1139.6 -5.31292 0.602758 0
M  V30 12064 C 1140.9 -4.50916 2.63575 0
M  V30 12065 H 1142.59 -2.43332 1.74441 0
M  V30 12066 H 1140.14 -1.1695 0.840166 0
M  V30 12067 H 1142.09 -4.21324 0.079928 0
M  V30 12068 H 1140.82 -3.20217 -0.642552 0
M  V30 12069 H 1139.48 -3.3519 1.4847 0
M  V30 12070 H 1139.12 -5.01802 -0.346953 0
M  V30 12071 H 1138.82 -5.74075 1.25345 0
M  V30 12072 H 1140.35 -6.09351 0.390325 0
M  V30 12073 H 1141.76 -5.17474 2.46765 0
M  V30 12074 H 1140.16 -5.04586 3.24827 0
M  V30 12075 H 1141.23 -3.63279 3.2118 0
M  V30 12076 N 1142.57 -0.928524 -1.27343 0
M  V30 12077 C 1143.81 -0.576696 -1.96096 0
M  V30 12078 C 1144.18 0.866074 -1.71357 0
M  V30 12079 O 1145.38 1.32621 -2.33805 0
M  V30 12080 C 1143.65 -0.894692 -3.4602 0
M  V30 12081 S 1145.21 -0.651503 -4.33936 0
M  V30 12082 H 1142.02 -0.212847 -0.678393 0
M  V30 12083 H 1144.63 -1.19714 -1.5456 0
M  V30 12084 H 1143.33 -1.94239 -3.61524 0
M  V30 12085 H 1142.86 -0.263478 -3.92517 0
M  V30 12086 H 1144.88 0.490314 -4.93772 0
M  V30 12087 N 1144.05 1.41491 -0.694123 0
M  V30 12088 C 1145.3 2.00479 -0.221585 0
M  V30 12089 C 1145.61 1.55605 1.18518 0
M  V30 12090 O 1146.82 2.07143 1.7551 0
M  V30 12091 C 1145.27 3.5824 -0.345264 0
M  V30 12092 C 1144.88 4.12096 -1.7573 0
M  V30 12093 C 1146.63 4.24446 0.0675731 0
M  V30 12094 C 1144.53 5.62286 -1.83271 0
M  V30 12095 H 1143.46 0.749841 -0.0790854 0
M  V30 12096 H 1146.11 1.61987 -0.86211 0
M  V30 12097 H 1144.5 3.94328 0.363487 0
M  V30 12098 H 1145.67 3.8743 -2.49469 0
M  V30 12099 H 1143.98 3.58411 -2.11969 0
M  V30 12100 H 1146.58 5.34691 0.0316485 0
M  V30 12101 H 1146.92 4.01338 1.10606 0
M  V30 12102 H 1147.46 3.93388 -0.59085 0
M  V30 12103 H 1144.2 5.9022 -2.85168 0
M  V30 12104 H 1143.72 5.88883 -1.13914 0
M  V30 12105 H 1145.4 6.27033 -1.59494 0
M  V30 12106 N 1145.53 0.438773 1.51369 0
M  V30 12107 C 1146.94 -0.0240139 1.86685 0
M  V30 12108 C 1147.29 -1.41816 1.35583 0
M  V30 12109 O 1146.41 -2.04517 0.707232 0
M  V30 12110 C 1147.01 -0.0503527 3.38763 0
M  V30 12111 C 1145.57 -0.457556 3.73609 0
M  V30 12112 C 1144.72 0.348852 2.75097 0
M  V30 12113 H 1147.67 0.654552 1.44573 0
M  V30 12114 H 1147.69 -0.859534 3.70665 0
M  V30 12115 H 1147.2 0.964451 3.75925 0
M  V30 12116 H 1145.3 -1.47791 3.42036 0
M  V30 12117 H 1145.41 -0.181357 4.78757 0
M  V30 12118 H 1143.78 -0.193037 2.53967 0
M  V30 12119 H 1144.56 1.36256 3.15102 0
M  V30 12120 N 1147.01 -1.56678 0.170181 0
M  V30 12121 C 1147.94 -2.20916 -0.756213 0
M  V30 12122 C 1148.92 -1.16442 -1.23997 0
M  V30 12123 O 1150.1 -1.44867 -1.29333 0
M  V30 12124 C 1147.23 -2.84901 -1.98617 0
M  V30 12125 C 1146.19 -3.95403 -1.63831 0
M  V30 12126 C 1145.51 -4.46432 -2.94282 0
M  V30 12127 C 1146.81 -5.15051 -0.867195 0
M  V30 12128 H 1148.51 -2.98585 -0.220776 0
M  V30 12129 H 1146.05 -1.43619 -0.104748 0
M  V30 12130 H 1148 -3.28514 -2.63926 0
M  V30 12131 H 1146.73 -2.04598 -2.54572 0
M  V30 12132 H 1145.39 -3.52444 -1.00891 0
M  V30 12133 H 1145.04 -3.62923 -3.48276 0
M  V30 12134 H 1144.74 -5.20979 -2.71762 0
M  V30 12135 H 1146.26 -4.92731 -3.60622 0
M  V30 12136 H 1147.67 -5.55363 -1.42285 0
M  V30 12137 H 1146.07 -5.95507 -0.741065 0
M  V30 12138 H 1147.14 -4.84707 0.136693 0
M  V30 12139 N 1148.48 0.103547 -1.57259 0
M  V30 12140 C 1149.45 1.11039 -2.00507 0
M  V30 12141 C 1150.45 1.33432 -0.897361 0
M  V30 12142 O 1151.64 1.29688 -1.16304 0
M  V30 12143 C 1148.77 2.46144 -2.35851 0
M  V30 12144 H 1149.96 0.738332 -2.90669 0
M  V30 12145 H 1147.51 0.348334 -1.52369 0
M  V30 12146 H 1148.25 2.88242 -1.48617 0
M  V30 12147 H 1148.03 2.31241 -3.16654 0
M  V30 12148 H 1149.52 3.18577 -2.69997 0
M  V30 12149 N 1149.96 1.53094 0.37415 0
M  V30 12150 C 1150.92 1.78264 1.44065 0
M  V30 12151 C 1151.92 0.652892 1.46949 0
M  V30 12152 O 1153.11 0.921046 1.47859 0
M  V30 12153 C 1150.25 1.89693 2.83248 0
M  V30 12154 H 1151.44 2.73505 1.23025 0
M  V30 12155 H 1148.99 1.44041 0.60678 0
M  V30 12156 H 1149.73 0.964884 3.09613 0
M  V30 12157 H 1149.51 2.71855 2.82554 0
M  V30 12158 H 1151 2.10787 3.60498 0
M  V30 12159 N 1151.44 -0.633461 1.44309 0
M  V30 12160 C 1152.69 -1.39306 1.46969 0
M  V30 12161 C 1153.01 -1.94235 0.101403 0
M  V30 12162 O 1152.27 -1.73959 -0.896475 0
M  V30 12163 C 1152.57 -2.57783 2.47554 0
M  V30 12164 C 1152.23 -2.21156 3.92939 0
M  V30 12165 C 1150.9 -2.1088 4.32531 0
M  V30 12166 C 1153.25 -1.9218 4.84475 0
M  V30 12167 C 1150.58 -1.69812 5.61588 0
M  V30 12168 C 1152.93 -1.52605 6.13917 0
M  V30 12169 C 1151.59 -1.40868 6.52466 0
M  V30 12170 H 1150.86 -0.509758 0.537799 0
M  V30 12171 H 1153.51 -0.718552 1.77508 0
M  V30 12172 H 1151.81 -3.30456 2.1049 0
M  V30 12173 H 1153.51 -3.16009 2.46859 0
M  V30 12174 H 1150.1 -2.30072 3.61614 0
M  V30 12175 H 1154.29 -1.9903 4.54644 0
M  V30 12176 H 1149.54 -1.59327 5.90275 0
M  V30 12177 H 1153.72 -1.29221 6.84306 0
M  V30 12178 H 1151.34 -1.08818 7.52371 0
M  V30 12179 N 1152.92 -1.31168 -0.873655 0
M  V30 12180 C 1154.17 -1.20003 -1.62118 0
M  V30 12181 C 1154.48 0.241505 -1.94103 0
M  V30 12182 O 1155.69 0.474801 -2.67316 0
M  V30 12183 C 1154.14 -2.10055 -2.92241 0
M  V30 12184 C 1153.75 -3.59183 -2.67752 0
M  V30 12185 C 1155.49 -2.07681 -3.70228 0
M  V30 12186 C 1153.4 -4.41255 -3.93761 0
M  V30 12187 H 1152.33 -0.445564 -0.608267 0
M  V30 12188 H 1154.98 -1.55997 -0.966287 0
M  V30 12189 H 1153.36 -1.66956 -3.59085 0
M  V30 12190 H 1154.54 -4.10504 -2.09339 0
M  V30 12191 H 1152.85 -3.63496 -2.03125 0
M  V30 12192 H 1155.45 -2.66246 -4.637 0
M  V30 12193 H 1155.79 -1.06304 -4.02499 0
M  V30 12194 H 1156.33 -2.48961 -3.10263 0
M  V30 12195 H 1153.07 -5.43372 -3.66643 0
M  V30 12196 H 1152.59 -3.94694 -4.51638 0
M  V30 12197 H 1154.26 -4.53278 -4.6168 0
M  V30 12198 N 1154.4 1.08748 -1.14068 0
M  V30 12199 C 1155.64 1.81333 -0.908081 0
M  V30 12200 C 1155.98 1.85826 0.564112 0
M  V30 12201 O 1155.25 1.33157 1.41773 0
M  V30 12202 C 1155.53 3.27127 -1.50531 0
M  V30 12203 C 1155.39 3.30865 -3.04711 0
M  V30 12204 C 1156.71 4.24006 -1.17928 0
M  V30 12205 H 1153.82 0.658326 -0.331325 0
M  V30 12206 H 1156.47 1.27345 -1.41008 0
M  V30 12207 H 1154.62 3.73233 -1.07839 0
M  V30 12208 H 1156.29 2.93109 -3.56209 0
M  V30 12209 H 1154.53 2.70241 -3.39341 0
M  V30 12210 H 1155.2 4.33603 -3.41603 0
M  V30 12211 H 1157.68 3.86221 -1.54831 0
M  V30 12212 H 1156.55 5.2434 -1.62353 0
M  V30 12213 H 1156.82 4.42 -0.0940349 0
M  V30 12214 N 1155.87 0.935264 1.26849 0
M  V30 12215 C 1156.8 0.457776 2.28969 0
M  V30 12216 C 1157.79 -0.48587 1.63013 0
M  V30 12217 O 1158.97 -0.388998 1.90264 0
M  V30 12218 C 1156.1 -0.283332 3.46142 0
M  V30 12219 C 1155.05 0.573196 4.24144 0
M  V30 12220 C 1154.38 -0.297525 5.33872 0
M  V30 12221 C 1155.68 1.84153 4.88759 0
M  V30 12222 H 1157.37 1.31125 2.69159 0
M  V30 12223 H 1154.92 0.631956 1.29392 0
M  V30 12224 H 1156.87 -0.628366 4.16689 0
M  V30 12225 H 1155.6 -1.1709 3.04889 0
M  V30 12226 H 1154.26 0.901043 3.55354 0
M  V30 12227 H 1153.9 -1.18427 4.8886 0
M  V30 12228 H 1153.6 0.272126 5.8697 0
M  V30 12229 H 1155.13 -0.637961 6.07258 0
M  V30 12230 H 1156.54 1.5641 5.51551 0
M  V30 12231 H 1154.94 2.35528 5.51948 0
M  V30 12232 H 1156.01 2.5565 4.12033 0
M  V30 12233 N 1157.35 -1.41121 0.701616 0
M  V30 12234 C 1158.29 -2.28198 -0.010533 0
M  V30 12235 C 1159.26 -1.42569 -0.78185 0
M  V30 12236 O 1160.45 -1.71993 -0.771408 0
M  V30 12237 C 1157.57 -3.22903 -1.02231 0
M  V30 12238 C 1156.62 -4.25115 -0.343454 0
M  V30 12239 S 1157.45 -5.27563 0.918553 0
M  V30 12240 C 1158.61 -6.25833 -0.0914763 0
M  V30 12241 H 1158.84 -2.88249 0.727995 0
M  V30 12242 H 1156.38 -1.46348 0.492112 0
M  V30 12243 H 1158.33 -3.77997 -1.60089 0
M  V30 12244 H 1156.99 -2.61936 -1.73345 0
M  V30 12245 H 1156.19 -4.91674 -1.10782 0
M  V30 12246 H 1155.79 -3.73648 0.162206 0
M  V30 12247 H 1158.08 -6.70908 -0.942826 0
M  V30 12248 H 1159.02 -7.06035 0.540351 0
M  V30 12249 H 1159.43 -5.62712 -0.448956 0
M  V30 12250 N 1158.83 -0.446794 -1.51134 0
M  V30 12251 C 1160.25 -0.0995905 -1.59289 0
M  V30 12252 C 1160.45 1.39191 -1.45699 0
M  V30 12253 O 1159.5 2.1628 -1.30303 0
M  V30 12254 C 1160.82 -0.628135 -2.94066 0
M  V30 12255 C 1162.36 -0.589409 -3.074 0
M  V30 12256 C 1162.84 -1.09509 -4.44715 0
M  V30 12257 N 1164.33 -1.05347 -4.51061 0
M  V30 12258 C 1165.06 -1.41551 -5.55654 0
M  V30 12259 N 1164.56 -1.85086 -6.67619 0
M  V30 12260 N 1166.35 -1.33307 -5.46064 0
M  V30 12261 H 1158.5 -1.41713 -1.58213 0
M  V30 12262 H 1160.77 -0.584555 -0.746324 0
M  V30 12263 H 1160.47 -1.67205 -3.09411 0
M  V30 12264 H 1160.35 -0.0582398 -3.77155 0
M  V30 12265 H 1162.73 0.445541 -2.91717 0
M  V30 12266 H 1162.82 -1.19582 -2.26128 0
M  V30 12267 H 1162.46 -2.12855 -4.61146 0
M  V30 12268 H 1162.39 -0.465122 -5.24542 0
M  V30 12269 H 1164.88 -0.733877 -3.70706 0
M  V30 12270 H 1165.19 -2.10923 -7.43459 0
M  V30 12271 H 1163.54 -1.8902 -6.68802 0
M  V30 12272 H 1166.73 -0.991547 -4.57478 0
M  V30 12273 H 1166.9 -1.6185 -6.27462 0
M  V30 12274 N 1160.31 1.56586 -0.178487 0
M  V30 12275 C 1161.55 1.98994 0.466987 0
M  V30 12276 C 1161.91 1.06229 1.59935 0
M  V30 12277 O 1163.11 1.37806 2.30788 0
M  V30 12278 C 1161.38 3.45064 0.930899 0
M  V30 12279 S 1162.94 4.095 1.57655 0
M  V30 12280 H 1159.76 0.695007 0.149955 0
M  V30 12281 H 1162.36 1.93519 -0.27764 0
M  V30 12282 H 1161.07 4.10287 0.0964476 0
M  V30 12283 H 1160.6 3.54321 1.70939 0
M  V30 12284 H 1162.61 4.05139 2.86491 0
M  V30 12285 N 1161.79 -0.095206 1.57312 0
M  V30 12286 C 1163.03 -0.804335 1.87909 0
M  V30 12287 C 1163.39 -1.75907 0.769465 0
M  V30 12288 O 1164.59 -2.51155 0.957846 0
M  V30 12289 C 1162.86 -1.51405 3.23746 0
M  V30 12290 S 1164.42 -2.26147 3.76036 0
M  V30 12291 H 1161.24 -0.267976 0.658567 0
M  V30 12292 H 1163.84 -0.0614682 1.95403 0
M  V30 12293 H 1162.55 -0.805066 4.02426 0
M  V30 12294 H 1162.08 -2.29681 3.1939 0
M  V30 12295 H 1164.09 -3.52284 3.49443 0
M  V30 12296 N 1163.26 -1.53291 -0.366026 0
M  V30 12297 C 1164.49 -1.73665 -1.13381 0
M  V30 12298 C 1164.91 -0.464284 -1.8228 0
M  V30 12299 O 1164.27 0.581645 -1.71717 0
M  V30 12300 C 1164.32 -2.90225 -2.14013 0
M  V30 12301 O 1163.42 -2.58803 -3.21084 0
M  V30 12302 H 1162.77 -0.576762 -0.329 0
M  V30 12303 H 1165.3 -2.00174 -0.423287 0
M  V30 12304 H 1165.31 -3.16378 -2.57622 0
M  V30 12305 H 1163.98 -3.82518 -1.63257 0
M  V30 12306 H 1162.56 -2.43466 -2.82451 0
M  V30 12307 N 1164.74 0.6258 -1.44643 0
M  V30 12308 C 1165.98 1.39676 -1.49232 0
M  V30 12309 C 1166.35 1.91601 -0.123682 0
M  V30 12310 O 1167.55 2.68764 -0.0442486 0
M  V30 12311 C 1165.82 2.52704 -2.52736 0
M  V30 12312 S 1167.38 3.40795 -2.76413 0
M  V30 12313 H 1164.2 0.476436 -0.527759 0
M  V30 12314 H 1166.8 0.72394 -1.81602 0
M  V30 12315 H 1165.5 2.12876 -3.50873 0
M  V30 12316 H 1165.03 3.24806 -2.21956 0
M  V30 12317 H 1167.05 4.5031 -2.08412 0
M  V30 12318 N 1166.22 1.31629 0.866686 0
M  V30 12319 C 1167.46 1.22806 1.63395 0
M  V30 12320 C 1167.82 -0.209785 1.9085 0
M  V30 12321 O 1169.03 -0.421562 2.65474 0
M  V30 12322 C 1167.3 2.05187 2.92631 0
M  V30 12323 S 1168.86 2.13261 3.83491 0
M  V30 12324 H 1165.67 0.437339 0.560585 0
M  V30 12325 H 1168.28 1.66333 1.02731 0
M  V30 12326 H 1166.98 3.08736 2.70389 0
M  V30 12327 H 1166.51 1.62393 3.58318 0
M  V30 12328 H 1168.53 1.27333 4.79584 0
M  V30 12329 N 1167.7 -1.08142 1.14644 0
M  V30 12330 C 1168.63 -2.17139 0.858667 0
M  V30 12331 C 1169.61 -1.69064 -0.187452 0
M  V30 12332 O 1170.8 -1.94151 -0.0435458 0
M  V30 12333 C 1167.93 -3.45648 0.33834 0
M  V30 12334 C 1166.88 -4.07129 1.32021 0
M  V30 12335 C 1166.21 -5.30623 0.659075 0
M  V30 12336 C 1167.51 -4.48095 2.68343 0
M  V30 12337 H 1169.2 -2.41468 1.77012 0
M  V30 12338 H 1166.75 -1.16052 0.852523 0
M  V30 12339 H 1168.7 -4.21216 0.124611 0
M  V30 12340 H 1167.42 -3.2088 -0.608553 0
M  V30 12341 H 1166.08 -3.33596 1.52016 0
M  V30 12342 H 1165.73 -5.02142 -0.293711 0
M  V30 12343 H 1165.43 -5.72714 1.31427 0
M  V30 12344 H 1166.95 -6.08903 0.454933 0
M  V30 12345 H 1168.37 -5.14828 2.5224 0
M  V30 12346 H 1166.76 -5.01113 3.30161 0
M  V30 12347 H 1167.83 -3.59852 3.25015 0
M  V30 12348 N 1169.18 -0.941978 -1.26351 0
M  V30 12349 C 1170.59 -0.632522 -1.75659 0
M  V30 12350 C 1170.94 0.852287 -1.76722 0
M  V30 12351 O 1170.06 1.66701 -1.37985 0
M  V30 12352 C 1170.66 -1.14145 -3.18993 0
M  V30 12353 C 1169.22 -0.882391 -3.65911 0
M  V30 12354 C 1168.37 -1.29189 -2.45368 0
M  V30 12355 H 1171.32 -1.12019 -1.12416 0
M  V30 12356 H 1171.34 -0.495639 -3.77258 0
M  V30 12357 H 1170.85 -2.22213 -3.18187 0
M  V30 12358 H 1168.95 0.183873 -3.72146 0
M  V30 12359 H 1169.06 -1.50996 -4.54683 0
M  V30 12360 H 1167.43 -0.710316 -2.44595 0
M  V30 12361 H 1168.21 -2.38152 -2.47262 0
M  V30 12362 N 1170.66 1.40747 -0.709091 0
M  V30 12363 C 1171.9 2.01003 -0.24581 0
M  V30 12364 C 1172.23 1.56203 1.15891 0
M  V30 12365 O 1171.49 0.770166 1.79908 0
M  V30 12366 C 1171.78 3.56404 -0.266685 0
M  V30 12367 C 1171.45 4.20762 -1.6208 0
M  V30 12368 C 1170.11 4.38056 -1.99148 0
M  V30 12369 C 1172.46 4.56723 -2.51105 0
M  V30 12370 C 1169.79 4.88591 -3.248 0
M  V30 12371 C 1172.14 5.08654 -3.76103 0
M  V30 12372 C 1170.81 5.24158 -4.13297 0
M  V30 12373 H 1170.08 0.73552 -0.0899481 0
M  V30 12374 H 1172.73 1.68451 -0.910844 0
M  V30 12375 H 1171.03 3.88825 0.481915 0
M  V30 12376 H 1172.73 4.0085 0.109509 0
M  V30 12377 H 1169.32 4.07685 -1.32252 0
M  V30 12378 H 1173.5 4.43004 -2.23744 0
M  V30 12379 H 1168.76 4.98779 -3.53595 0
M  V30 12380 H 1172.93 5.35457 -4.45262 0
M  V30 12381 H 1170.56 5.63079 -5.10731 0
M  V30 12382 N 1172.13 0.454803 1.50895 0
M  V30 12383 C 1173.06 -0.337982 2.31041 0
M  V30 12384 C 1174.04 -1.00523 1.37219 0
M  V30 12385 O 1175.23 -1.00553 1.66141 0
M  V30 12386 C 1172.36 -1.42964 3.1651 0
M  V30 12387 C 1171.31 -0.884907 4.18752 0
M  V30 12388 C 1170.64 -2.07363 4.92854 0
M  V30 12389 C 1171.94 0.0926716 5.22218 0
M  V30 12390 H 1173.63 0.33089 2.97566 0
M  V30 12391 H 1171.18 0.160577 1.43102 0
M  V30 12392 H 1173.13 -1.9916 3.71367 0
M  V30 12393 H 1171.86 -2.12705 2.47839 0
M  V30 12394 H 1170.52 -0.345031 3.64973 0
M  V30 12395 H 1170.16 -2.75764 4.2067 0
M  V30 12396 H 1169.86 -1.71545 5.62002 0
M  V30 12397 H 1171.39 -2.6408 5.5054 0
M  V30 12398 H 1172.8 -0.379568 5.72042 0
M  V30 12399 H 1171.2 0.3643 5.98993 0
M  V30 12400 H 1172.27 1.02383 4.73968 0
M  V30 12401 N 1173.61 -1.56489 0.186789 0
M  V30 12402 C 1174.86 -1.97634 -0.454831 0
M  V30 12403 C 1175.19 -1.07334 -1.61843 0
M  V30 12404 O 1174.47 -0.123612 -1.94107 0
M  V30 12405 C 1174.75 -3.48071 -0.922962 0
M  V30 12406 C 1174.6 -4.49149 0.241877 0
M  V30 12407 C 1175.92 -4.01994 -1.79134 0
M  V30 12408 H 1173.04 -0.718555 -0.163854 0
M  V30 12409 H 1175.68 -1.87984 0.27604 0
M  V30 12410 H 1173.83 -3.56425 -1.54575 0
M  V30 12411 H 1175.5 -4.52841 0.87936 0
M  V30 12412 H 1173.75 -4.24468 0.894964 0
M  V30 12413 H 1174.42 -5.51851 -0.128051 0
M  V30 12414 H 1176.89 -3.96367 -1.26618 0
M  V30 12415 H 1175.77 -5.07641 -2.08787 0
M  V30 12416 H 1176.03 -3.46747 -2.74261 0
M  V30 12417 N 1175.09 0.086862 -1.5736 0
M  V30 12418 C 1176.34 0.790008 -1.8678 0
M  V30 12419 C 1176.67 1.77977 -0.777042 0
M  V30 12420 O 1175.94 1.93317 0.21419 0
M  V30 12421 C 1176.23 1.51143 -3.26845 0
M  V30 12422 C 1176.08 0.539106 -4.46558 0
M  V30 12423 C 1177.4 2.46003 -3.64926 0
M  V30 12424 H 1174.52 0.285741 -0.679354 0
M  V30 12425 H 1177.16 0.0534655 -1.89925 0
M  V30 12426 H 1175.31 2.13928 -3.24295 0
M  V30 12427 H 1176.98 -0.0823679 -4.61226 0
M  V30 12428 H 1175.22 -0.146842 -4.33551 0
M  V30 12429 H 1175.9 1.0812 -5.41308 0
M  V30 12430 H 1178.37 1.93306 -3.68473 0
M  V30 12431 H 1177.25 2.93493 -4.63846 0
M  V30 12432 H 1177.51 3.30133 -2.94049 0
M  V30 12433 N 1176.57 1.53483 0.357892 0
M  V30 12434 C 1177.53 1.79782 1.42166 0
M  V30 12435 C 1178.53 0.668441 1.46248 0
M  V30 12436 O 1179.72 0.936677 1.46874 0
M  V30 12437 C 1176.85 1.92686 2.8122 0
M  V30 12438 H 1178.05 2.74794 1.20117 0
M  V30 12439 H 1175.6 1.44677 0.591468 0
M  V30 12440 H 1176.33 0.997669 3.08573 0
M  V30 12441 H 1176.12 2.74837 2.79655 0
M  V30 12442 H 1177.61 2.14599 3.58242 0
M  V30 12443 N 1178.05 -0.61812 1.44973 0
M  V30 12444 C 1179.29 -1.37468 1.48145 0
M  V30 12445 C 1179.61 -1.94628 0.120366 0
M  V30 12446 O 1178.88 -1.76548 -0.848982 0
M  V30 12447 H 1177.46 -0.510293 0.545536 0
M  V30 12448 H 1180.13 -0.726598 1.8085 0
M  V30 12449 H 1179.22 -2.19944 2.2143 0
M  V30 12450 N 1179.52 -1.32087 -0.859693 0
M  V30 12451 C 1180.49 -1.20546 -1.94939 0
M  V30 12452 C 1181.49 -0.12982 -1.60275 0
M  V30 12453 O 1182.68 -0.379853 -1.70008 0
M  V30 12454 C 1179.81 -0.852717 -3.30063 0
M  V30 12455 H 1181 -2.17384 -2.06602 0
M  V30 12456 H 1178.55 -1.15846 -1.04926 0
M  V30 12457 H 1179.29 0.114059 -3.24099 0
M  V30 12458 H 1179.07 -1.63035 -3.56598 0
M  V30 12459 H 1180.56 -0.796145 -4.09941 0
M  V30 12460 N 1181 1.07532 -1.15215 0
M  V30 12461 C 1182.23 1.8355 -0.94831 0
M  V30 12462 C 1182.64 1.82289 0.506701 0
M  V30 12463 O 1181.98 1.23142 1.36314 0
M  V30 12464 C 1182.04 3.31834 -1.38298 0
M  V30 12465 C 1181.71 3.56818 -2.85535 0
M  V30 12466 C 1182.71 3.50915 -3.83608 0
M  V30 12467 C 1180.39 3.84543 -3.23159 0
M  V30 12468 C 1182.38 3.72382 -5.17311 0
M  V30 12469 C 1180.07 4.05662 -4.57036 0
M  V30 12470 C 1181.07 3.99576 -5.53921 0
M  V30 12471 O 1180.76 4.20132 -6.85379 0
M  V30 12472 H 1180.49 0.586014 -0.336992 0
M  V30 12473 H 1183.04 1.36656 -1.53344 0
M  V30 12474 H 1181.27 3.79529 -0.741244 0
M  V30 12475 H 1182.96 3.89312 -1.14853 0
M  V30 12476 H 1183.73 3.295 -3.55886 0
M  V30 12477 H 1179.61 3.88395 -2.48335 0
M  V30 12478 H 1183.15 3.67547 -5.92921 0
M  V30 12479 H 1179.05 4.26563 -4.84473 0
M  V30 12480 H 1179.82 4.3749 -6.91769 0
M  V30 12481 N 1182.48 0.948665 1.2585 0
M  V30 12482 C 1183.41 0.482036 2.2847 0
M  V30 12483 C 1184.39 -0.468553 1.63519 0
M  V30 12484 O 1185.58 -0.368796 1.90666 0
M  V30 12485 C 1182.71 -0.246603 3.46423 0
M  V30 12486 C 1181.66 0.61815 4.23513 0
M  V30 12487 C 1180.99 -0.240884 5.34157 0
M  V30 12488 C 1182.29 1.89327 4.86778 0
M  V30 12489 H 1183.98 1.33973 2.67753 0
M  V30 12490 H 1181.53 0.645645 1.28715 0
M  V30 12491 H 1183.48 -0.584135 4.17332 0
M  V30 12492 H 1182.2 -1.13849 3.06114 0
M  V30 12493 H 1180.86 0.938682 3.54379 0
M  V30 12494 H 1180.51 -1.13235 4.90089 0
M  V30 12495 H 1180.21 0.334367 5.86648 0
M  V30 12496 H 1181.73 -0.573517 6.07901 0
M  V30 12497 H 1183.15 1.62252 5.49861 0
M  V30 12498 H 1181.55 2.41369 5.49419 0
M  V30 12499 H 1182.62 2.60006 4.09298 0
M  V30 12500 N 1183.96 -1.40369 0.716545 0
M  V30 12501 C 1184.92 -2.29083 0.0733105 0
M  V30 12502 C 1185.92 -1.45415 -0.686378 0
M  V30 12503 O 1187.11 -1.66316 -0.518139 0
M  V30 12504 C 1184.24 -3.28639 -0.906032 0
M  V30 12505 H 1185.44 -2.87464 0.85467 0
M  V30 12506 H 1182.99 -1.48706 0.481256 0
M  V30 12507 H 1183.72 -2.75279 -1.71441 0
M  V30 12508 H 1183.51 -3.90405 -0.364163 0
M  V30 12509 H 1185 -3.95066 -1.35324 0
M  V30 12510 N 1185.44 -0.462799 -1.50652 0
M  V30 12511 C 1186.38 0.335664 -2.28346 0
M  V30 12512 C 1187.35 0.994541 -1.33034 0
M  V30 12513 O 1188.54 1.00857 -1.61964 0
M  V30 12514 C 1185.68 1.41648 -3.1469 0
M  V30 12515 C 1184.79 0.773207 -4.25024 0
M  V30 12516 C 1183.93 1.83121 -4.98638 0
M  V30 12517 C 1182.97 1.16774 -6.00858 0
M  V30 12518 N 1182.1 2.16823 -6.67782 0
M  V30 12519 H 1186.94 -0.333202 -2.96131 0
M  V30 12520 H 1184.48 -0.176166 -1.46041 0
M  V30 12521 H 1186.44 2.05468 -3.63096 0
M  V30 12522 H 1185.07 2.05462 -2.48968 0
M  V30 12523 H 1184.12 0.0226444 -3.80393 0
M  V30 12524 H 1185.43 0.249061 -4.98178 0
M  V30 12525 H 1184.59 2.54543 -5.5072 0
M  V30 12526 H 1183.32 2.38915 -4.25172 0
M  V30 12527 H 1182.33 0.439112 -5.48044 0
M  V30 12528 H 1183.55 0.616809 -6.76293 0
M  V30 12529 H 1181.5 2.71649 -5.97112 0
M  V30 12530 H 1181.42 1.69371 -7.36783 0
M  V30 12531 H 1182.69 2.8765 -7.24484 0
M  V30 12532 N 1186.91 1.56388 -0.195085 0
M  V30 12533 C 1188.16 1.97872 0.444344 0
M  V30 12534 C 1188.49 1.0819 1.61271 0
M  V30 12535 O 1187.77 0.133904 1.94039 0
M  V30 12536 C 1188.05 3.48556 0.90449 0
M  V30 12537 C 1187.9 4.49015 -0.265693 0
M  V30 12538 C 1189.22 4.02938 1.76999 0
M  V30 12539 H 1186.34 0.719413 0.160041 0
M  V30 12540 H 1188.98 1.87835 -0.286005 0
M  V30 12541 H 1187.13 3.5724 1.52682 0
M  V30 12542 H 1188.81 4.52368 -0.903363 0
M  V30 12543 H 1187.05 4.23987 -0.917462 0
M  V30 12544 H 1187.72 5.51912 0.0987834 0
M  V30 12545 H 1190.2 3.97033 1.24514 0
M  V30 12546 H 1189.07 5.08741 2.06092 0
M  V30 12547 H 1189.33 3.48197 2.72418 0
M  V30 12548 N 1188.39 -0.0785156 1.57404 0
M  V30 12549 C 1189.67 -0.811557 1.77969 0
M  V30 12550 C 1190.05 -1.96123 0.780966 0
M  V30 12551 O 1189.4 -2.27731 -0.18726 0
M  V30 12552 C 1189.61 -1.29075 3.24254 0
M  V30 12553 C 1190.96 -1.72685 3.87898 0
M  V30 12554 O 1191.98 -1.38658 3.28104 0
M  V30 12555 O 1190.84 -2.3566 4.93079 0
M  V30 12556 H 1187.93 -0.388361 0.73014 0
M  V30 12557 H 1190.48 -0.0591118 1.69597 0
M  V30 12558 H 1189.25 -0.467813 3.88494 0
M  V30 12559 H 1188.87 -2.10472 3.37324 0
M  V30 12560 N 1189.87 -1.5367 -0.349747 0
M  V30 12561 C 1190.83 -1.80533 -1.41211 0
M  V30 12562 C 1191.83 -0.676188 -1.45892 0
M  V30 12563 O 1193.02 -0.944453 -1.46375 0
M  V30 12564 C 1190.16 -1.94175 -2.80195 0
M  V30 12565 H 1191.35 -2.75428 -1.18658 0
M  V30 12566 H 1188.9 -1.44988 -0.583787 0
M  V30 12567 H 1189.64 -1.01402 -3.08039 0
M  V30 12568 H 1189.42 -2.76316 -2.78194 0
M  V30 12569 H 1190.91 -2.16496 -3.57098 0
M  V30 12570 N 1191.35 0.610423 -1.45298 0
M  V30 12571 C 1192.58 1.39419 -1.52466 0
M  V30 12572 C 1192.99 1.88563 -0.1551 0
M  V30 12573 O 1192.33 1.62692 0.853061 0
M  V30 12574 C 1192.39 2.63515 -2.44541 0
M  V30 12575 C 1192.06 2.36028 -3.91331 0
M  V30 12576 C 1193.05 1.96567 -4.81308 0
M  V30 12577 C 1190.74 2.49028 -4.36223 0
M  V30 12578 C 1192.73 1.70461 -6.14184 0
M  V30 12579 C 1190.42 2.22536 -5.6914 0
M  V30 12580 C 1191.42 1.83314 -6.5794 0
M  V30 12581 O 1191.1 1.57131 -7.88394 0
M  V30 12582 H 1190.84 0.433278 -0.518889 0
M  V30 12583 H 1193.39 0.751803 -1.91147 0
M  V30 12584 H 1191.62 3.30463 -2.00826 0
M  V30 12585 H 1193.31 3.25554 -2.42424 0
M  V30 12586 H 1194.08 1.86062 -4.4789 0
M  V30 12587 H 1189.95 2.78524 -3.67349 0
M  V30 12588 H 1193.5 1.39773 -6.83454 0
M  V30 12589 H 1189.4 2.32657 -6.02114 0
M  V30 12590 H 1190.16 1.71207 -8.00394 0
M  V30 12591 N 1192.83 1.32541 0.852676 0
M  V30 12592 C 1193.74 1.23646 1.99371 0
M  V30 12593 C 1194.75 0.149673 1.73355 0
M  V30 12594 O 1195.93 0.370716 1.97959 0
M  V30 12595 C 1192.99 0.961873 3.3309 0
M  V30 12596 C 1192.05 2.1373 3.72315 0
M  V30 12597 C 1191.29 1.87572 4.99652 0
M  V30 12598 O 1191.51 0.819247 5.64486 0
M  V30 12599 O 1190.44 2.73732 5.36054 0
M  V30 12600 H 1194.27 2.19573 2.09813 0
M  V30 12601 H 1191.86 1.12451 0.983627 0
M  V30 12602 H 1193.74 0.825316 4.13239 0
M  V30 12603 H 1192.41 0.0327745 3.23683 0
M  V30 12604 H 1191.32 2.32933 2.92733 0
M  V30 12605 H 1192.65 3.04925 3.86369 0
M  V30 12606 N 1194.3 -1.0692 1.15784 0
M  V30 12607 C 1195.25 -2.12473 0.826994 0
M  V30 12608 C 1196.24 -1.59766 -0.19073 0
M  V30 12609 O 1197.43 -1.76998 0.00917115 0
M  V30 12610 C 1194.56 -3.41779 0.322847 0
M  V30 12611 C 1193.65 -4.01329 1.37098 0
M  V30 12612 N 1194.04 -4.35077 2.57957 0
M  V30 12613 C 1192.33 -4.28854 1.22475 0
M  V30 12614 C 1193.04 -4.82326 3.25171 0
M  V30 12615 N 1192.01 -4.81369 2.52556 0
M  V30 12616 H 1195.81 -2.36404 1.74614 0
M  V30 12617 H 1193.33 -1.244 1.04395 0
M  V30 12618 H 1195.32 -4.16845 0.0674576 0
M  V30 12619 H 1193.98 -3.19289 -0.590311 0
M  V30 12620 H 1195 -4.25626 2.95065 0
M  V30 12621 H 1191.67 -4.15841 0.371839 0
M  V30 12622 H 1193.06 -5.17695 4.28301 0
M  V30 12623 N 1195.78 -0.955326 -1.25345 0
M  V30 12624 C 1196.75 -0.480564 -2.24105 0
M  V30 12625 C 1197.75 0.416123 -1.55322 0
M  V30 12626 O 1198.94 0.213315 -1.72889 0
M  V30 12627 C 1196.07 0.305589 -3.39528 0
M  V30 12628 H 1197.26 -1.35349 -2.6762 0
M  V30 12629 H 1194.81 -0.738673 -1.37744 0
M  V30 12630 H 1195.55 1.19615 -3.01434 0
M  V30 12631 H 1195.33 -0.337719 -3.90643 0
M  V30 12632 H 1196.82 0.627201 -4.12863 0
M  V30 12633 N 1197.26 1.39987 -0.723979 0
M  V30 12634 C 1198.49 2.05037 -0.27702 0
M  V30 12635 C 1198.9 1.54565 1.08421 0
M  V30 12636 O 1198.26 0.705795 1.683 0
M  V30 12637 C 1198.31 3.60582 -0.25751 0
M  V30 12638 O 1198.03 4.09194 -1.565 0
M  V30 12639 C 1199.53 4.42817 0.206972 0
M  V30 12640 H 1196.75 0.659637 -0.122963 0
M  V30 12641 H 1199.3 1.7924 -0.98454 0
M  V30 12642 H 1197.45 3.85319 0.401037 0
M  V30 12643 H 1197.87 5.03447 -1.47112 0
M  V30 12644 H 1199.34 5.5174 0.16947 0
M  V30 12645 H 1199.82 4.21023 1.25045 0
M  V30 12646 H 1200.42 4.23205 -0.421604 0
M  V30 12647 N 1198.74 0.470782 1.50404 0
M  V30 12648 C 1199.97 -0.0820134 2.06737 0
M  V30 12649 C 1200.38 -1.33535 1.33468 0
M  V30 12650 O 1199.74 -1.77975 0.403872 0
M  V30 12651 C 1199.79 -0.370427 3.59597 0
M  V30 12652 O 1199.51 0.8332 4.30104 0
M  V30 12653 C 1201.01 -0.970222 4.32552 0
M  V30 12654 H 1198.23 0.00694502 0.670964 0
M  V30 12655 H 1200.78 0.659476 1.93575 0
M  V30 12656 H 1198.93 -1.06185 3.72563 0
M  V30 12657 H 1199.35 0.577614 5.2131 0
M  V30 12658 H 1200.82 -1.1218 5.40481 0
M  V30 12659 H 1201.3 -1.96024 3.93028 0
M  V30 12660 H 1201.9 -0.31719 4.24116 0
M  V30 12661 N 1200.22 -1.56282 0.203376 0
M  V30 12662 C 1201.46 -1.98105 -0.433844 0
M  V30 12663 C 1201.8 -1.09044 -1.60695 0
M  V30 12664 O 1201.07 -0.144193 -1.93965 0
M  V30 12665 C 1201.35 -3.4903 -0.885992 0
M  V30 12666 C 1201.21 -4.48867 0.289501 0
M  V30 12667 C 1202.53 -4.03871 -1.7486 0
M  V30 12668 H 1199.65 -0.720252 -0.156224 0
M  V30 12669 H 1202.29 -1.87681 0.295963 0
M  V30 12670 H 1200.44 -3.58045 -1.50785 0
M  V30 12671 H 1202.11 -4.51883 0.92734 0
M  V30 12672 H 1200.35 -4.23495 0.939934 0
M  V30 12673 H 1201.02 -5.51956 -0.0695128 0
M  V30 12674 H 1203.5 -3.97688 -1.22407 0
M  V30 12675 H 1202.38 -5.09827 -2.03391 0
M  V30 12676 H 1202.64 -3.49637 -2.70567 0
M  V30 12677 N 1201.7 0.070167 -1.57444 0
M  V30 12678 C 1203.11 0.621805 -1.76041 0
M  V30 12679 C 1203.46 1.77824 -0.829047 0
M  V30 12680 O 1202.58 2.16396 -0.0135453 0
M  V30 12681 C 1203.18 1.13476 -3.19231 0
M  V30 12682 C 1201.74 1.63225 -3.39167 0
M  V30 12683 C 1200.88 0.552369 -2.71743 0
M  V30 12684 H 1203.83 -0.156009 -1.57931 0
M  V30 12685 H 1203.86 2.00352 -3.2348 0
M  V30 12686 H 1203.37 0.29288 -3.86993 0
M  V30 12687 H 1201.47 2.49733 -2.76522 0
M  V30 12688 H 1201.58 1.70807 -4.47618 0
M  V30 12689 H 1199.95 0.997797 -2.34342 0
M  V30 12690 H 1200.73 -0.279354 -3.42162 0
M  V30 12691 N 1203.17 1.53854 0.341593 0
M  V30 12692 C 1204.12 1.8268 1.43982 0
M  V30 12693 C 1205.12 0.697415 1.54378 0
M  V30 12694 O 1206.32 0.880785 1.56978 0
M  V30 12695 H 1202.7 0.578788 0.480113 0
M  V30 12696 H 1204.67 2.74556 1.16884 0
M  V30 12697 C 1203.42 2.05496 2.80476 0
M  V30 12698 H 1202.74 2.91852 2.73244 0
M  V30 12699 H 1204.18 2.2963 3.56435 0
M  V30 12700 C 1202.64 0.841061 3.26233 0
M  V30 12701 O 1203.17 0.0414376 4.01679 0
M  V30 12702 N 1201.37 0.657736 2.83059 0
M  V30 12703 H 1200.92 1.30962 2.21826 0
M  V30 12704 H 1200.88 -0.153003 3.14027 0
M  V30 12705 N 1204.65 -0.602709 1.4562 0
M  V30 12706 C 1205.9 -1.36359 1.50113 0
M  V30 12707 C 1206.23 -1.93663 0.144297 0
M  V30 12708 O 1205.51 -1.75337 -0.841851 0
M  V30 12709 C 1205.79 -2.50788 2.58413 0
M  V30 12710 C 1205.64 -1.98649 4.03557 0
M  V30 12711 C 1206.96 -3.52905 2.62957 0
M  V30 12712 H 1204.08 -0.494455 0.54652 0
M  V30 12713 H 1206.72 -0.678957 1.77455 0
M  V30 12714 H 1204.87 -3.09191 2.3523 0
M  V30 12715 H 1206.54 -1.44857 4.37966 0
M  V30 12716 H 1204.79 -1.29615 4.13984 0
M  V30 12717 H 1205.46 -2.81159 4.7503 0
M  V30 12718 H 1207.93 -3.0435 2.83743 0
M  V30 12719 H 1206.81 -4.30454 3.40589 0
M  V30 12720 H 1207.07 -4.0884 1.68233 0
M  V30 12721 N 1206.13 -1.32992 -0.845635 0
M  V30 12722 C 1207.54 -1.21616 -1.41656 0
M  V30 12723 C 1207.89 0.167687 -1.95482 0
M  V30 12724 O 1207.02 1.06692 -1.8827 0
M  V30 12725 C 1207.61 -2.2018 -2.575 0
M  V30 12726 C 1206.17 -2.12664 -3.10565 0
M  V30 12727 C 1205.32 -2.08042 -1.83341 0
M  V30 12728 H 1208.27 -1.44688 -0.651993 0
M  V30 12729 H 1208.29 -1.80558 -3.34931 0
M  V30 12730 H 1207.8 -3.20888 -2.18294 0
M  V30 12731 H 1205.9 -1.15235 -3.54333 0
M  V30 12732 H 1206.02 -3.02902 -3.71197 0
M  V30 12733 H 1204.38 -1.53416 -2.03312 0
M  V30 12734 H 1205.16 -3.10547 -1.46339 0
M  V30 12735 N 1207.61 1.06304 -1.1635 0
M  V30 12736 C 1208.54 2.13732 -0.827721 0
M  V30 12737 C 1209.55 1.61962 0.164983 0
M  V30 12738 O 1210.74 1.784 -0.0597591 0
M  V30 12739 C 1207.84 3.38239 -0.211623 0
M  V30 12740 C 1207.01 4.19325 -1.2444 0
M  V30 12741 C 1206.07 5.22193 -0.648127 0
M  V30 12742 O 1205.1 5.53755 -1.31695 0
M  V30 12743 N 1206.3 5.77742 0.565179 0
M  V30 12744 H 1209.07 2.43136 -1.75228 0
M  V30 12745 H 1206.63 1.22304 -1.06081 0
M  V30 12746 H 1208.62 4.04204 0.200306 0
M  V30 12747 H 1207.19 3.06461 0.616491 0
M  V30 12748 H 1206.41 3.49017 -1.83251 0
M  V30 12749 H 1207.7 4.70306 -1.94138 0
M  V30 12750 H 1207.1 5.54366 1.12673 0
M  V30 12751 H 1205.65 6.45284 0.919321 0
M  V30 12752 N 1209.09 0.96196 1.24836 0
M  V30 12753 C 1210.33 0.616342 1.92052 0
M  V30 12754 C 1210.65 -0.851601 1.76088 0
M  V30 12755 O 1211.85 -1.3075 2.37943 0
M  V30 12756 C 1210.31 1.05168 3.44191 0
M  V30 12757 C 1209.92 2.54268 3.68852 0
M  V30 12758 C 1211.66 0.778938 4.17292 0
M  V30 12759 C 1209.57 2.91564 5.14533 0
M  V30 12760 H 1208.5 0.22681 0.719078 0
M  V30 12761 H 1211.15 1.1674 1.41577 0
M  V30 12762 H 1209.53 0.428979 3.9367 0
M  V30 12763 H 1210.71 3.21619 3.29997 0
M  V30 12764 H 1209.02 2.79091 3.09026 0
M  V30 12765 H 1211.62 1.03366 5.24614 0
M  V30 12766 H 1211.96 -0.284772 4.15325 0
M  V30 12767 H 1212.49 1.36233 3.73745 0
M  V30 12768 H 1209.23 3.96982 5.21618 0
M  V30 12769 H 1208.75 2.28892 5.54408 0
M  V30 12770 H 1210.43 2.81155 5.82718 0
M  V30 12771 N 1210.56 -1.39601 0.731392 0
M  V30 12772 C 1211.97 -1.83424 0.348194 0
M  V30 12773 C 1212.33 -1.61106 -1.11979 0
M  V30 12774 O 1211.45 -1.1003 -1.86339 0
M  V30 12775 C 1212.05 -3.32982 0.6252 0
M  V30 12776 C 1210.6 -3.75238 0.295536 0
M  V30 12777 C 1209.75 -2.62642 0.88964 0
M  V30 12778 H 1212.7 -1.28644 0.929318 0
M  V30 12779 H 1212.72 -3.80357 -0.104254 0
M  V30 12780 H 1212.24 -3.49193 1.69368 0
M  V30 12781 H 1210.34 -3.64615 -0.767254 0
M  V30 12782 H 1210.45 -4.72781 0.775576 0
M  V30 12783 H 1208.81 -2.52726 0.316529 0
M  V30 12784 H 1209.6 -2.81661 1.96271 0
M  V30 12785 N 1212.04 -0.478751 -1.50152 0
M  V30 12786 C 1213.27 0.0709455 -2.06478 0
M  V30 12787 C 1213.68 1.33376 -1.34192 0
M  V30 12788 O 1213.02 1.79133 -0.40707 0
M  V30 12789 C 1213.09 0.417322 -3.5707 0
M  V30 12790 C 1212.75 -0.744563 -4.50894 0
M  V30 12791 C 1213.75 -1.62879 -4.93727 0
M  V30 12792 C 1211.43 -0.937062 -4.93482 0
M  V30 12793 C 1213.43 -2.68985 -5.77863 0
M  V30 12794 C 1211.11 -2.00134 -5.77399 0
M  V30 12795 C 1212.11 -2.87609 -6.19492 0
M  V30 12796 O 1211.8 -3.92203 -7.01735 0
M  V30 12797 H 1211.53 -0.00720177 -0.675962 0
M  V30 12798 H 1214.08 -0.668797 -1.94207 0
M  V30 12799 H 1212.31 1.21036 -3.6727 0
M  V30 12800 H 1214 0.903002 -3.95728 0
M  V30 12801 H 1214.77 -1.49179 -4.61488 0
M  V30 12802 H 1210.65 -0.265636 -4.60234 0
M  V30 12803 H 1214.19 -3.37293 -6.10639 0
M  V30 12804 H 1210.09 -2.13837 -6.09052 0
M  V30 12805 H 1210.86 -3.89284 -7.2 0
M  V30 12806 N 1213.52 1.56172 -0.211661 0
M  V30 12807 C 1214.47 2.19849 0.702515 0
M  V30 12808 C 1215.44 1.15091 1.19763 0
M  V30 12809 O 1216.62 1.43408 1.25852 0
M  V30 12810 C 1213.76 2.87468 1.90935 0
M  V30 12811 C 1212.88 4.06794 1.45406 0
M  V30 12812 C 1212.01 4.62224 2.61769 0
M  V30 12813 C 1211.05 5.73872 2.12926 0
M  V30 12814 N 1210.19 6.23635 3.22526 0
M  V30 12815 H 1215.03 2.97608 0.152777 0
M  V30 12816 H 1212.56 1.46962 0.0636596 0
M  V30 12817 H 1214.52 3.24851 2.61777 0
M  V30 12818 H 1213.15 2.12244 2.43213 0
M  V30 12819 H 1212.2 3.74962 0.640907 0
M  V30 12820 H 1213.52 4.87497 1.05584 0
M  V30 12821 H 1212.67 5.01999 3.40709 0
M  V30 12822 H 1211.41 3.80662 3.04873 0
M  V30 12823 H 1210.41 5.33609 1.32445 0
M  V30 12824 H 1211.64 6.57262 1.70833 0
M  V30 12825 H 1209.58 5.44991 3.65131 0
M  V30 12826 H 1209.5 6.99435 2.86926 0
M  V30 12827 H 1210.77 6.68066 4.01631 0
M  V30 12828 N 1215 -0.0618163 1.57479 0
M  V30 12829 C 1215.96 -1.05684 2.0338 0
M  V30 12830 C 1216.96 -1.31006 0.932423 0
M  V30 12831 O 1218.15 -1.26559 1.19702 0
M  V30 12832 C 1215.28 -2.39805 2.42294 0
M  V30 12833 H 1216.48 -0.661006 2.92525 0
M  V30 12834 H 1214.03 -0.307814 1.53239 0
M  V30 12835 H 1214.76 -2.84201 1.56207 0
M  V30 12836 H 1214.55 -2.22764 3.22674 0
M  V30 12837 H 1216.04 -3.11307 2.78349 0
M  V30 12838 N 1216.48 -1.54033 -0.333429 0
M  V30 12839 C 1217.41 -1.85719 -1.4153 0
M  V30 12840 C 1218.39 -0.713144 -1.54429 0
M  V30 12841 O 1219.57 -0.965984 -1.68471 0
M  V30 12842 C 1216.7 -2.07578 -2.78439 0
M  V30 12843 C 1215.66 -3.23411 -2.80338 0
M  V30 12844 C 1214.98 -3.30622 -4.2023 0
M  V30 12845 C 1216.28 -4.6129 -2.44968 0
M  V30 12846 H 1217.98 -2.76325 -1.15261 0
M  V30 12847 H 1215.52 -1.32957 -0.55303 0
M  V30 12848 H 1217.48 -2.28329 -3.5418 0
M  V30 12849 H 1216.2 -1.13713 -3.06165 0
M  V30 12850 H 1214.86 -3.02531 -2.07052 0
M  V30 12851 H 1214.51 -2.34333 -4.45081 0
M  V30 12852 H 1214.21 -4.08466 -4.22409 0
M  V30 12853 H 1215.73 -3.53596 -4.97798 0
M  V30 12854 H 1217.14 -4.81987 -3.10421 0
M  V30 12855 H 1215.54 -5.41611 -2.58414 0
M  V30 12856 H 1216.61 -4.6421 -1.40134 0
M  V30 12857 N 1217.95 0.594978 -1.45938 0
M  V30 12858 C 1219.2 1.35561 -1.50834 0
M  V30 12859 C 1219.53 1.93584 -0.154566 0
M  V30 12860 O 1218.81 1.75781 0.832541 0
M  V30 12861 C 1219.09 2.49414 -2.5974 0
M  V30 12862 C 1218.94 1.96506 -4.04605 0
M  V30 12863 C 1220.26 3.51505 -2.64825 0
M  V30 12864 H 1217.38 0.491549 -0.549134 0
M  V30 12865 H 1220.02 0.669536 -1.77812 0
M  V30 12866 H 1218.17 3.07939 -2.36866 0
M  V30 12867 H 1219.85 1.42533 -4.38728 0
M  V30 12868 H 1218.09 1.27418 -4.14665 0
M  V30 12869 H 1218.76 2.78636 -4.76515 0
M  V30 12870 H 1221.24 3.02841 -2.85353 0
M  V30 12871 H 1220.11 4.28641 -3.42867 0
M  V30 12872 H 1220.37 4.07942 -1.70399 0
M  V30 12873 N 1219.43 1.33438 0.838571 0
M  V30 12874 C 1220.34 1.25753 1.98049 0
M  V30 12875 C 1221.36 0.168051 1.73187 0
M  V30 12876 O 1222.53 0.391691 1.97554 0
M  V30 12877 C 1219.6 0.997148 3.32051 0
M  V30 12878 C 1218.66 2.17667 3.70027 0
M  V30 12879 C 1217.89 1.92861 4.97635 0
M  V30 12880 O 1218.12 0.879072 5.63585 0
M  V30 12881 O 1217.05 2.79402 5.33121 0
M  V30 12882 H 1220.88 2.21786 2.07472 0
M  V30 12883 H 1218.46 1.13488 0.971645 0
M  V30 12884 H 1220.34 0.869099 4.1234 0
M  V30 12885 H 1219.02 0.0671036 3.2363 0
M  V30 12886 H 1217.93 2.36025 2.90246 0
M  V30 12887 H 1219.26 3.09006 3.83114 0
M  V30 12888 N 1220.91 -1.05686 1.16912 0
M  V30 12889 C 1222.33 -1.30744 0.915327 0
M  V30 12890 C 1222.53 -1.96895 -0.428344 0
M  V30 12891 O 1221.58 -2.23941 -1.16647 0
M  V30 12892 C 1222.9 -2.18209 2.06894 0
M  V30 12893 C 1224.44 -2.31607 2.1054 0
M  V30 12894 C 1224.92 -3.2243 3.25273 0
M  V30 12895 N 1226.41 -3.30015 3.2503 0
M  V30 12896 C 1227.14 -4.00401 4.10447 0
M  V30 12897 N 1226.64 -4.73256 5.05965 0
M  V30 12898 N 1228.43 -3.96514 3.98413 0
M  V30 12899 H 1220.58 -0.611449 2.03409 0
M  V30 12900 H 1222.85 -0.332188 0.887894 0
M  V30 12901 H 1222.55 -1.76887 3.0398 0
M  V30 12902 H 1222.43 -3.18823 2.01573 0
M  V30 12903 H 1224.81 -2.72173 1.14044 0
M  V30 12904 H 1224.9 -1.30639 2.19925 0
M  V30 12905 H 1224.54 -2.82579 4.22032 0
M  V30 12906 H 1224.47 -4.23392 3.13125 0
M  V30 12907 H 1226.96 -2.781 2.55869 0
M  V30 12908 H 1227.27 -5.24509 5.67547 0
M  V30 12909 H 1225.62 -4.72215 5.09939 0
M  V30 12910 H 1228.81 -3.38719 3.2309 0
M  V30 12911 H 1228.98 -4.511 4.65202 0
M  V30 12912 N 1222.39 -0.968567 -1.24324 0
M  V30 12913 C 1223.35 -0.504307 -2.23583 0
M  V30 12914 C 1224.35 0.399626 -1.55755 0
M  V30 12915 O 1225.54 0.194966 -1.73106 0
M  V30 12916 C 1222.67 0.26956 -3.39833 0
M  V30 12917 H 1223.87 -1.3818 -2.6617 0
M  V30 12918 H 1221.42 -0.753241 -1.36952 0
M  V30 12919 H 1222.15 1.16411 -3.02686 0
M  V30 12920 H 1221.94 -0.379133 -3.90263 0
M  V30 12921 H 1223.43 0.583376 -4.13505 0
M  V30 12922 N 1223.87 1.39211 -0.738786 0
M  V30 12923 C 1225.11 2.0004 -0.28782 0
M  V30 12924 C 1225.44 1.58921 1.13 0
M  V30 12925 O 1224.71 0.839193 1.77015 0
M  V30 12926 H 1223.29 0.739805 -0.103425 0
M  V30 12927 H 1225.95 1.70202 -0.949587 0
M  V30 12928 H 1225.04 3.10251 -0.339208 0
M  V30 12929 N 1225.34 0.486708 1.49896 0
M  V30 12930 C 1226.57 -0.0599944 2.06513 0
M  V30 12931 C 1226.98 -1.32662 1.34898 0
M  V30 12932 O 1226.33 -1.78915 0.416565 0
M  V30 12933 C 1226.39 -0.39838 3.57286 0
M  V30 12934 C 1226.05 0.768465 4.50493 0
M  V30 12935 C 1227.05 1.65495 4.92856 0
M  V30 12936 C 1224.73 0.96322 4.92978 0
M  V30 12937 C 1226.73 2.72046 5.76429 0
M  V30 12938 C 1224.41 2.03193 5.7633 0
M  V30 12939 C 1225.41 2.9089 6.17958 0
M  V30 12940 O 1225.1 3.95919 6.99645 0
M  V30 12941 H 1224.83 0.0107865 0.675914 0
M  V30 12942 H 1227.39 0.679087 1.93849 0
M  V30 12943 H 1225.62 -1.19086 3.67907 0
M  V30 12944 H 1227.31 -0.882003 3.96201 0
M  V30 12945 H 1228.07 1.51624 4.6069 0
M  V30 12946 H 1223.95 0.29004 4.60087 0
M  V30 12947 H 1227.49 3.40526 6.08841 0
M  V30 12948 H 1223.39 2.17064 6.07909 0
M  V30 12949 H 1224.16 3.93097 7.17925 0
M  V30 12950 N 1226.82 -1.56058 0.219941 0
M  V30 12951 C 1227.79 -2.18964 -0.677303 0
M  V30 12952 C 1228.79 -1.15105 -1.12283 0
M  V30 12953 O 1229.98 -1.40348 -1.03189 0
M  V30 12954 C 1227.11 -2.81167 -1.92764 0
M  V30 12955 H 1228.3 -2.99623 -0.128877 0
M  V30 12956 H 1225.85 -1.56272 -0.0296744 0
M  V30 12957 H 1226.59 -2.04374 -2.51797 0
M  V30 12958 H 1226.37 -3.5722 -1.61666 0
M  V30 12959 H 1227.86 -3.29391 -2.56693 0
M  V30 12960 N 1228.3 0.053464 -1.57509 0
M  V30 12961 C 1229.71 0.603099 -1.76691 0
M  V30 12962 C 1230.06 1.76934 -0.847861 0
M  V30 12963 O 1229.19 2.16369 -0.0364962 0
M  V30 12964 C 1229.78 1.10084 -3.20417 0
M  V30 12965 C 1228.34 1.59618 -3.4088 0
M  V30 12966 C 1227.49 0.523516 -2.72313 0
M  V30 12967 H 1230.44 -0.172751 -1.57757 0
M  V30 12968 H 1230.46 1.9691 -3.25587 0
M  V30 12969 H 1229.97 0.251818 -3.87282 0
M  V30 12970 H 1228.07 2.46786 -2.79155 0
M  V30 12971 H 1228.19 1.6605 -4.49404 0
M  V30 12972 H 1226.55 0.972886 -2.35387 0
M  V30 12973 H 1227.33 -0.315629 -3.41846 0
M  V30 12974 N 1229.78 1.54207 0.325255 0
M  V30 12975 C 1230.71 1.86467 1.40543 0
M  V30 12976 C 1231.69 0.721324 1.54048 0
M  V30 12977 O 1232.88 0.974905 1.67956 0
M  V30 12978 C 1230.01 2.09052 2.77335 0
M  V30 12979 C 1228.96 3.24893 2.78619 0
M  V30 12980 C 1228.29 3.32846 4.1847 0
M  V30 12981 C 1229.59 4.62582 2.42518 0
M  V30 12982 H 1231.28 2.76932 1.13794 0
M  V30 12983 H 1228.83 1.33248 0.545971 0
M  V30 12984 H 1230.78 2.30204 3.52964 0
M  V30 12985 H 1229.5 1.15335 3.05558 0
M  V30 12986 H 1228.16 3.03625 2.05444 0
M  V30 12987 H 1227.81 2.3669 4.43832 0
M  V30 12988 H 1227.51 4.10701 4.20237 0
M  V30 12989 H 1229.03 3.56231 4.95915 0
M  V30 12990 H 1230.45 4.83627 3.07861 0
M  V30 12991 H 1228.84 5.42974 2.55538 0
M  V30 12992 H 1229.91 4.64946 1.3767 0
M  V30 12993 N 1231.26 -0.58723 1.46251 0
M  V30 12994 C 1232.21 -1.71771 1.56836 0
M  V30 12995 C 1233.2 -1.63664 0.437096 0
M  V30 12996 O 1234.41 -1.69212 0.613797 0
M  V30 12997 H 1230.78 -0.567841 0.493012 0
M  V30 12998 H 1232.75 -1.59974 2.51895 0
M  V30 12999 C 1231.5 -3.10159 1.57152 0
M  V30 13000 H 1230.82 -3.17066 2.43535 0
M  V30 13001 H 1232.26 -3.89032 1.68613 0
M  V30 13002 C 1230.72 -3.35567 0.299374 0
M  V30 13003 O 1231.25 -3.97006 -0.612291 0
M  V30 13004 N 1229.46 -2.89987 0.188695 0
M  V30 13005 H 1229.01 -2.4017 0.93147 0
M  V30 13006 H 1228.96 -3.0736 -0.661612 0
M  V30 13007 N 1232.74 -1.33881 -0.831482 0
M  V30 13008 C 1233.67 -1.27384 -1.95693 0
M  V30 13009 C 1234.65 -0.152943 -1.69411 0
M  V30 13010 O 1235.83 -0.34392 -1.9113 0
M  V30 13011 C 1232.96 -1.01982 -3.31989 0
M  V30 13012 C 1231.92 -2.10445 -3.72689 0
M  V30 13013 C 1231.24 -1.70245 -5.06873 0
M  V30 13014 C 1232.54 -3.52194 -3.8569 0
M  V30 13015 H 1234.24 -2.21549 -2.01386 0
M  V30 13016 H 1231.78 -1.06653 -0.967526 0
M  V30 13017 H 1233.73 -0.960841 -4.103 0
M  V30 13018 H 1232.46 -0.0425709 -3.26572 0
M  V30 13019 H 1231.12 -2.15398 -2.96647 0
M  V30 13020 H 1230.77 -0.712036 -4.97935 0
M  V30 13021 H 1230.47 -2.42834 -5.35075 0
M  V30 13022 H 1231.99 -1.65827 -5.87651 0
M  V30 13023 H 1233.4 -3.49701 -4.54293 0
M  V30 13024 H 1231.8 -4.23331 -4.25336 0
M  V30 13025 H 1232.87 -3.9016 -2.87929 0
M  V30 13026 N 1234.21 1.05064 -1.1747 0
M  V30 13027 C 1235.12 2.16346 -0.907286 0
M  V30 13028 C 1236.14 1.7355 0.125013 0
M  V30 13029 O 1237.32 2.01326 -0.0545551 0
M  V30 13030 C 1234.38 3.44077 -0.425681 0
M  V30 13031 C 1233.44 4.01311 -1.52473 0
M  V30 13032 C 1232.67 5.22946 -1.06601 0
M  V30 13033 O 1232.9 5.70345 0.0793329 0
M  V30 13034 O 1231.83 5.72454 -1.85958 0
M  V30 13035 H 1235.66 2.41754 -1.83817 0
M  V30 13036 H 1233.24 1.14834 -0.955693 0
M  V30 13037 H 1235.12 4.21078 -0.164689 0
M  V30 13038 H 1233.8 3.20166 0.477037 0
M  V30 13039 H 1232.71 3.25744 -1.83961 0
M  V30 13040 H 1234.04 4.29543 -2.4032 0
M  V30 13041 N 1235.69 0.975146 1.23809 0
M  V30 13042 C 1236.94 0.636678 1.91388 0
M  V30 13043 C 1237.25 -0.832876 1.76982 0
M  V30 13044 O 1238.46 -1.28218 2.39316 0
M  V30 13045 C 1236.92 1.08813 3.43057 0
M  V30 13046 C 1236.52 2.58165 3.66135 0
M  V30 13047 C 1238.27 0.823154 4.16443 0
M  V30 13048 C 1236.17 2.97004 5.11412 0
M  V30 13049 H 1235.1 0.234424 0.716632 0
M  V30 13050 H 1237.76 1.18235 1.40331 0
M  V30 13051 H 1236.14 0.470709 3.93192 0
M  V30 13052 H 1237.31 3.25101 3.26567 0
M  V30 13053 H 1235.63 2.82353 3.06049 0
M  V30 13054 H 1238.22 1.08925 5.23488 0
M  V30 13055 H 1238.57 -0.240705 4.15604 0
M  V30 13056 H 1239.1 1.4019 3.72279 0
M  V30 13057 H 1235.84 4.02492 5.17378 0
M  V30 13058 H 1235.36 2.34759 5.51949 0
M  V30 13059 H 1237.04 2.8732 5.79704 0
M  V30 13060 N 1237.17 -1.38817 0.746158 0
M  V30 13061 C 1238.4 -2.0457 0.309605 0
M  V30 13062 C 1238.81 -1.5627 -1.05948 0
M  V30 13063 O 1238.17 -0.73248 -1.67156 0
M  V30 13064 C 1238.22 -3.60126 0.314843 0
M  V30 13065 O 1237.94 -4.06652 1.6299 0
M  V30 13066 C 1239.44 -4.4309 -0.136497 0
M  V30 13067 H 1236.66 -0.657597 0.133441 0
M  V30 13068 H 1239.21 -1.77651 1.01293 0
M  V30 13069 H 1237.36 -3.85908 -0.339685 0
M  V30 13070 H 1237.78 -5.01042 1.55103 0
M  V30 13071 H 1239.25 -5.5194 -0.0816714 0
M  V30 13072 H 1239.73 -4.22959 -1.18332 0
M  V30 13073 H 1240.33 -4.22481 0.488879 0
M  V30 13074 N 1238.65 -0.49465 -1.49636 0
M  V30 13075 C 1239.89 0.0521945 -2.02733 0
M  V30 13076 C 1240.23 1.3723 -1.37411 0
M  V30 13077 O 1239.5 1.87758 -0.507642 0
M  V30 13078 C 1239.78 0.2114 -3.59479 0
M  V30 13079 C 1239.64 -1.13138 -4.35339 0
M  V30 13080 C 1240.96 0.955015 -4.29613 0
M  V30 13081 H 1238.08 0.0174946 -0.736792 0
M  V30 13082 H 1240.72 -0.644827 -1.78723 0
M  V30 13083 H 1238.87 0.805078 -3.80067 0
M  V30 13084 H 1240.54 -1.76345 -4.26263 0
M  V30 13085 H 1238.78 -1.72224 -3.98147 0
M  V30 13086 H 1239.45 -0.97336 -5.4335 0
M  V30 13087 H 1241.93 0.451575 -4.13642 0
M  V30 13088 H 1240.81 1.03524 -5.39049 0
M  V30 13089 H 1241.07 1.99724 -3.94414 0
M  V30 13090 N 1240.13 1.55939 -0.228214 0
M  V30 13091 C 1241.06 2.16566 0.719321 0
M  V30 13092 C 1242.04 1.11204 1.18627 0
M  V30 13093 O 1243.22 1.39495 1.2678 0
M  V30 13094 C 1240.35 2.75132 1.97536 0
M  V30 13095 C 1239.39 3.93381 1.64783 0
M  V30 13096 S 1240.23 5.29982 0.76678 0
M  V30 13097 C 1241.38 5.91989 2.03223 0
M  V30 13098 H 1241.62 2.96599 0.204035 0
M  V30 13099 H 1239.15 1.54395 -0.0128406 0
M  V30 13100 H 1241.11 3.09512 2.69652 0
M  V30 13101 H 1239.77 1.95079 2.46176 0
M  V30 13102 H 1238.96 4.32884 2.58122 0
M  V30 13103 H 1238.56 3.60181 1.00724 0
M  V30 13104 H 1240.85 6.08368 2.98152 0
M  V30 13105 H 1241.8 6.87858 1.68099 0
M  V30 13106 H 1242.21 5.20883 2.1758 0
M  V30 13107 N 1241.6 -0.0451101 1.57535 0
M  V30 13108 C 1242.83 -0.755068 1.93167 0
M  V30 13109 C 1243.25 -1.68949 0.826915 0
M  V30 13110 O 1242.61 -1.79978 -0.218534 0
M  V30 13111 C 1242.66 -1.50201 3.27829 0
M  V30 13112 O 1241.76 -2.61434 3.18945 0
M  V30 13113 H 1241.11 -0.204219 0.631815 0
M  V30 13114 H 1243.64 -0.00537504 2.04599 0
M  V30 13115 H 1243.65 -1.87547 3.6234 0
M  V30 13116 H 1242.32 -0.816591 4.07805 0
M  V30 13117 H 1240.9 -2.26749 2.96039 0
M  V30 13118 N 1243.08 -1.54377 -0.317073 0
M  V30 13119 C 1244.31 -1.77184 -1.07798 0
M  V30 13120 C 1244.73 -0.52204 -1.80711 0
M  V30 13121 O 1244.09 0.52672 -1.7348 0
M  V30 13122 C 1244.14 -2.96887 -2.04671 0
M  V30 13123 O 1243.24 -2.68887 -3.12688 0
M  V30 13124 H 1242.58 -0.586937 -0.310485 0
M  V30 13125 H 1245.11 -2.01419 -0.35939 0
M  V30 13126 H 1245.12 -3.24414 -2.47426 0
M  V30 13127 H 1243.8 -3.87518 -1.51005 0
M  V30 13128 H 1242.38 -2.52329 -2.74562 0
M  V30 13129 N 1244.56 0.579466 -1.4656 0
M  V30 13130 C 1245.47 1.71609 -1.59961 0
M  V30 13131 C 1246.49 1.67162 -0.483002 0
M  V30 13132 O 1247.66 1.87012 -0.747561 0
M  V30 13133 C 1244.73 3.08114 -1.58954 0
M  V30 13134 C 1243.79 3.238 -2.81872 0
M  V30 13135 C 1243.02 4.53794 -2.80904 0
M  V30 13136 O 1243.24 5.37884 -1.89835 0
M  V30 13137 O 1242.18 4.72796 -3.72488 0
M  V30 13138 H 1246 1.6325 -2.56092 0
M  V30 13139 H 1243.59 0.746891 -1.2939 0
M  V30 13140 H 1245.47 3.8939 -1.611 0
M  V30 13141 H 1244.15 3.16903 -0.65984 0
M  V30 13142 H 1243.05 2.42006 -2.85279 0
M  V30 13143 H 1244.39 3.19904 -3.74062 0
M  V30 13144 N 1246.04 1.3432 0.824371 0
M  V30 13145 C 1247.28 1.26783 1.58284 0
M  V30 13146 C 1247.62 -0.162282 1.93521 0
M  V30 13147 O 1246.89 -1.1073 1.59903 0
M  V30 13148 C 1247.18 2.15725 2.88331 0
M  V30 13149 C 1247.03 3.67266 2.59684 0
M  V30 13150 C 1248.35 2.04141 3.8989 0
M  V30 13151 H 1245.47 0.461893 0.574303 0
M  V30 13152 H 1248.11 1.64558 0.949769 0
M  V30 13153 H 1246.26 1.83639 3.42358 0
M  V30 13154 H 1247.93 4.09711 2.11978 0
M  V30 13155 H 1246.17 3.88426 1.93151 0
M  V30 13156 H 1246.84 4.24863 3.52414 0
M  V30 13157 H 1249.32 2.3231 3.45212 0
M  V30 13158 H 1248.2 2.68601 4.7869 0
M  V30 13159 H 1248.46 1.01795 4.30221 0
M  V30 13160 N 1247.52 -1.0444 1.18026 0
M  V30 13161 C 1248.45 -2.14297 0.927314 0
M  V30 13162 C 1249.43 -1.69575 -0.13357 0
M  V30 13163 O 1250.61 -1.94191 0.0182439 0
M  V30 13164 C 1247.74 -3.44397 0.448134 0
M  V30 13165 C 1246.7 -4.02723 1.44907 0
M  V30 13166 C 1246.02 -5.28257 0.827555 0
M  V30 13167 C 1247.32 -4.39331 2.82463 0
M  V30 13168 H 1249.02 -2.35715 1.84605 0
M  V30 13169 H 1246.56 -1.13281 0.889012 0
M  V30 13170 H 1248.52 -4.20606 0.258554 0
M  V30 13171 H 1247.24 -3.22654 -0.506159 0
M  V30 13172 H 1245.9 -3.28591 1.62552 0
M  V30 13173 H 1245.55 -5.02822 -0.13381 0
M  V30 13174 H 1245.25 -5.68242 1.49581 0
M  V30 13175 H 1246.77 -6.07147 0.64842 0
M  V30 13176 H 1248.18 -5.06543 2.68491 0
M  V30 13177 H 1246.58 -4.90355 3.45936 0
M  V30 13178 H 1247.65 -3.4933 3.36299 0
M  V30 13179 N 1248.99 -0.981699 -1.2329 0
M  V30 13180 C 1250.41 -0.688087 -1.73558 0
M  V30 13181 C 1250.76 0.795633 -1.79344 0
M  V30 13182 O 1249.88 1.62227 -1.43218 0
M  V30 13183 C 1250.48 -1.24235 -3.152 0
M  V30 13184 C 1249.04 -0.998356 -3.62918 0
M  V30 13185 C 1248.18 -1.3693 -2.41134 0
M  V30 13186 H 1251.13 -1.15539 -1.08795 0
M  V30 13187 H 1251.15 -0.61541 -3.7549 0
M  V30 13188 H 1250.67 -2.32223 -3.10957 0
M  V30 13189 H 1248.77 0.0653847 -3.72543 0
M  V30 13190 H 1248.88 -1.65385 -4.49649 0
M  V30 13191 H 1247.24 -0.787773 -2.42211 0
M  V30 13192 H 1248.03 -2.45898 -2.39561 0
M  V30 13193 N 1250.47 1.3842 -0.753509 0
M  V30 13194 C 1251.7 2.04929 -0.319174 0
M  V30 13195 C 1252.12 1.56457 1.04416 0
M  V30 13196 O 1251.48 0.716527 1.6654 0
M  V30 13197 C 1251.53 3.58887 -0.351054 0
M  V30 13198 O 1250.63 4.07166 0.654963 0
M  V30 13199 H 1249.97 0.648782 -0.141343 0
M  V30 13200 H 1252.5 1.77096 -1.02461 0
M  V30 13201 H 1252.51 4.075 -0.201907 0
M  V30 13202 H 1251.19 3.93525 -1.34576 0
M  V30 13203 H 1249.77 3.69921 0.470435 0
M  V30 13204 N 1251.95 0.502579 1.49372 0
M  V30 13205 C 1253.18 -0.0381429 2.06865 0
M  V30 13206 C 1253.59 -1.30674 1.36271 0
M  V30 13207 O 1252.95 -1.77078 0.441532 0
M  V30 13208 C 1253 -0.294068 3.60302 0
M  V30 13209 O 1252.72 0.924244 4.2824 0
M  V30 13210 C 1254.22 -0.878253 4.34513 0
M  V30 13211 H 1251.44 0.0211756 0.670666 0
M  V30 13212 H 1253.99 0.700387 1.92132 0
M  V30 13213 H 1252.14 -0.982583 3.74732 0
M  V30 13214 H 1252.56 0.688062 5.19967 0
M  V30 13215 H 1254.03 -1.0069 5.42739 0
M  V30 13216 H 1254.51 -1.87643 3.97098 0
M  V30 13217 H 1255.11 -0.227157 4.24693 0
M  V30 13218 N 1253.43 -1.55816 0.23648 0
M  V30 13219 C 1254.38 -2.22322 -0.68378 0
M  V30 13220 C 1255.37 -1.2074 -1.1882 0
M  V30 13221 O 1256.58 -1.38781 -1.14629 0
M  V30 13222 H 1252.95 -0.713021 -0.238966 0
M  V30 13223 H 1254.92 -2.98234 -0.0995879 0
M  V30 13224 C 1253.67 -2.92845 -1.87449 0
M  V30 13225 H 1252.99 -3.70777 -1.49548 0
M  V30 13226 H 1254.43 -3.42758 -2.49585 0
M  V30 13227 C 1252.89 -1.96139 -2.73918 0
M  V30 13228 O 1253.42 -1.48781 -3.73132 0
M  V30 13229 N 1251.63 -1.63465 -2.40266 0
M  V30 13230 H 1251.18 -2.02171 -1.59639 0
M  V30 13231 H 1251.13 -0.990239 -2.98398 0
M  V30 13232 N 1254.91 0.036755 -1.57557 0
M  V30 13233 C 1255.84 1.06718 -2.0284 0
M  V30 13234 C 1256.85 1.32926 -0.939917 0
M  V30 13235 O 1258.04 1.30549 -1.21734 0
M  V30 13236 C 1255.14 2.41054 -2.38214 0
M  V30 13237 C 1254.31 2.3431 -3.69347 0
M  V30 13238 C 1253.37 3.51034 -3.91997 0
M  V30 13239 O 1252.4 3.30875 -4.63152 0
M  V30 13240 N 1253.6 4.72634 -3.37042 0
M  V30 13241 H 1256.37 0.681275 -2.91854 0
M  V30 13242 H 1253.93 0.224836 -1.60331 0
M  V30 13243 H 1255.92 3.17847 -2.5051 0
M  V30 13244 H 1254.49 2.71517 -1.5491 0
M  V30 13245 H 1253.71 1.42668 -3.67477 0
M  V30 13246 H 1255 2.2694 -4.55385 0
M  V30 13247 H 1254.39 4.91914 -2.79352 0
M  V30 13248 H 1252.95 5.46818 -3.5473 0
M  V30 13249 N 1256.39 1.54543 0.308881 0
M  V30 13250 C 1257.3 1.87994 1.4034 0
M  V30 13251 C 1258.31 0.773294 1.55872 0
M  V30 13252 O 1259.49 1.069 1.70688 0
M  V30 13253 C 1256.55 2.11341 2.74838 0
M  V30 13254 C 1255.61 3.35086 2.68358 0
M  V30 13255 C 1254.85 3.5731 3.96441 0
M  V30 13256 O 1255.07 2.82692 4.9542 0
M  V30 13257 O 1254 4.50814 3.98811 0
M  V30 13258 H 1257.83 2.81094 1.14976 0
M  V30 13259 H 1255.41 1.40634 0.504236 0
M  V30 13260 H 1257.3 2.27943 3.54429 0
M  V30 13261 H 1255.97 1.21427 3.00062 0
M  V30 13262 H 1254.88 3.23855 1.87267 0
M  V30 13263 H 1256.21 4.25104 2.48087 0
M  V30 13264 N 1257.86 -0.571685 1.46866 0
M  V30 13265 C 1259.09 -1.35327 1.56109 0
M  V30 13266 C 1259.5 -1.88086 0.20504 0
M  V30 13267 O 1258.84 -1.64896 -0.809626 0
M  V30 13268 C 1258.91 -2.56939 2.51441 0
M  V30 13269 C 1258.57 -2.2557 3.97451 0
M  V30 13270 C 1259.57 -1.83737 4.86351 0
M  V30 13271 C 1257.25 -2.37375 4.42672 0
M  V30 13272 C 1259.25 -1.54118 6.18487 0
M  V30 13273 C 1256.93 -2.07368 5.7484 0
M  V30 13274 C 1257.93 -1.65806 6.62569 0
M  V30 13275 O 1257.62 -1.36173 7.92283 0
M  V30 13276 H 1257.35 -0.419368 0.530194 0
M  V30 13277 H 1259.91 -0.700859 1.93073 0
M  V30 13278 H 1258.14 -3.25023 2.09517 0
M  V30 13279 H 1259.82 -3.19012 2.5097 0
M  V30 13280 H 1260.59 -1.74122 4.52666 0
M  V30 13281 H 1256.47 -2.68686 3.74605 0
M  V30 13282 H 1260.01 -1.21603 6.8692 0
M  V30 13283 H 1255.91 -2.16611 6.08071 0
M  V30 13284 H 1256.68 -1.49926 8.04652 0
M  V30 13285 N 1259.34 -1.34755 -0.817236 0
M  V30 13286 C 1260.59 -1.26771 -1.56882 0
M  V30 13287 C 1260.9 0.158962 -1.94953 0
M  V30 13288 O 1262.11 0.360996 -2.69089 0
M  V30 13289 C 1260.57 -2.22261 -2.83069 0
M  V30 13290 C 1260.17 -3.70216 -2.52277 0
M  V30 13291 C 1261.92 -2.23197 -3.61086 0
M  V30 13292 C 1259.82 -4.57559 -3.74691 0
M  V30 13293 H 1258.75 -0.470961 -0.588822 0
M  V30 13294 H 1261.41 -1.59955 -0.899254 0
M  V30 13295 H 1259.79 -1.82036 -3.5168 0
M  V30 13296 H 1260.96 -4.19014 -1.9174 0
M  V30 13297 H 1259.28 -3.71784 -1.87525 0
M  V30 13298 H 1261.87 -2.85673 -4.5199 0
M  V30 13299 H 1262.22 -1.2328 -3.97628 0
M  V30 13300 H 1262.75 -2.61897 -2.99424 0
M  V30 13301 H 1259.49 -5.58434 -3.43267 0
M  V30 13302 H 1259.01 -4.13494 -4.34491 0
M  V30 13303 H 1260.69 -4.72451 -4.42039 0
M  V30 13304 N 1260.82 1.03812 -1.18578 0
M  V30 13305 C 1262.05 1.80702 -1.00769 0
M  V30 13306 C 1262.46 1.83509 0.443833 0
M  V30 13307 O 1261.82 1.2724 1.30829 0
M  V30 13308 C 1261.87 3.26185 -1.55838 0
M  V30 13309 O 1261.59 3.23612 -2.95308 0
M  V30 13310 C 1263.09 4.1971 -1.42682 0
M  V30 13311 H 1260.31 0.568972 -0.355685 0
M  V30 13312 H 1262.86 1.30817 -1.57185 0
M  V30 13313 H 1261.01 3.73293 -1.03592 0
M  V30 13314 H 1261.43 4.14769 -3.2104 0
M  V30 13315 H 1262.9 5.19716 -1.86008 0
M  V30 13316 H 1263.38 4.37588 -0.375924 0
M  V30 13317 H 1263.98 3.78469 -1.94013 0
M  V30 13318 N 1262.3 0.988223 1.22768 0
M  V30 13319 C 1263.54 0.669599 1.93121 0
M  V30 13320 C 1263.9 -0.783331 1.75294 0
M  V30 13321 O 1265.1 -1.21315 2.39867 0
M  V30 13322 C 1263.37 1.05876 3.41358 0
M  V30 13323 S 1264.93 0.857797 4.30334 0
M  V30 13324 H 1261.75 0.244972 0.667465 0
M  V30 13325 H 1264.35 1.26952 1.48673 0
M  V30 13326 H 1263.06 2.11267 3.51844 0
M  V30 13327 H 1262.59 0.450453 3.90813 0
M  V30 13328 H 1264.6 -0.254171 4.95549 0
M  V30 13329 N 1263.78 -1.38018 0.760839 0
M  V30 13330 C 1264.72 -2.30387 0.13796 0
M  V30 13331 C 1265.69 -1.50548 -0.701754 0
M  V30 13332 O 1266.88 -1.79154 -0.656381 0
M  V30 13333 C 1264.02 -3.36993 -0.743642 0
M  V30 13334 C 1263.13 -4.31856 0.111489 0
M  V30 13335 C 1262.27 -5.25534 -0.773796 0
M  V30 13336 C 1261.3 -6.12042 0.0845311 0
M  V30 13337 N 1260.44 -6.97995 -0.758118 0
M  V30 13338 H 1265.28 -2.83077 0.931212 0
M  V30 13339 H 1262.82 -1.39361 0.470833 0
M  V30 13340 H 1264.78 -3.97417 -1.26948 0
M  V30 13341 H 1263.41 -2.85695 -1.50261 0
M  V30 13342 H 1262.46 -3.72832 0.755031 0
M  V30 13343 H 1263.77 -4.92758 0.774042 0
M  V30 13344 H 1262.92 -5.9111 -1.36653 0
M  V30 13345 H 1261.66 -4.65017 -1.47006 0
M  V30 13346 H 1260.67 -5.45455 0.689883 0
M  V30 13347 H 1261.89 -6.74629 0.777966 0
M  V30 13348 H 1259.84 -6.40018 -1.4392 0
M  V30 13349 H 1259.76 -7.55846 -0.152623 0
M  V30 13350 H 1261.02 -7.67973 -1.33559 0
M  V30 13351 N 1265.25 -0.510493 -1.49103 0
M  V30 13352 C 1266.5 0.0306436 -2.02477 0
M  V30 13353 C 1266.83 1.36113 -1.38937 0
M  V30 13354 O 1266.08 1.88731 -0.517584 0
M  V30 13355 C 1266.38 0.221921 -3.5671 0
M  V30 13356 C 1266.05 -1.03176 -4.38937 0
M  V30 13357 C 1264.71 -1.37539 -4.61125 0
M  V30 13358 C 1267.06 -1.86464 -4.86704 0
M  V30 13359 C 1264.39 -2.55124 -5.28326 0
M  V30 13360 C 1266.74 -3.03211 -5.55199 0
M  V30 13361 C 1265.41 -3.37943 -5.75631 0
M  V30 13362 H 1264.68 0.0112133 -0.740915 0
M  V30 13363 H 1267.32 -0.672574 -1.79301 0
M  V30 13364 H 1265.63 1.00775 -3.78618 0
M  V30 13365 H 1267.33 0.655223 -3.95611 0
M  V30 13366 H 1263.92 -0.754105 -4.21914 0
M  V30 13367 H 1268.1 -1.61229 -4.69381 0
M  V30 13368 H 1263.36 -2.8226 -5.42346 0
M  V30 13369 H 1267.53 -3.68068 -5.91185 0
M  V30 13370 H 1265.16 -4.29158 -6.27477 0
M  V30 13371 N 1266.73 1.55688 -0.24474 0
M  V30 13372 C 1267.96 2.0329 0.384808 0
M  V30 13373 C 1268.37 1.12405 1.51692 0
M  V30 13374 O 1267.73 0.138056 1.81977 0
M  V30 13375 C 1267.78 3.50255 0.894635 0
M  V30 13376 O 1267.5 4.37677 -0.192365 0
M  V30 13377 C 1269 4.13608 1.59509 0
M  V30 13378 H 1266.22 0.664706 0.0916908 0
M  V30 13379 H 1268.77 2.01162 -0.367973 0
M  V30 13380 H 1266.92 3.52924 1.5976 0
M  V30 13381 H 1267.34 5.2414 0.194424 0
M  V30 13382 H 1268.81 5.1814 1.90356 0
M  V30 13383 H 1269.29 3.5997 2.51631 0
M  V30 13384 H 1269.89 4.14856 0.936749 0
M  V30 13385 N 1268.21 -0.0283989 1.57574 0
M  V30 13386 C 1269.44 -0.730831 1.93563 0
M  V30 13387 C 1269.85 -1.68857 0.844556 0
M  V30 13388 O 1269.21 -1.8162 -0.178971 0
M  V30 13389 C 1269.26 -1.48731 3.29486 0
M  V30 13390 O 1268.98 -0.568017 4.34402 0
M  V30 13391 C 1270.48 -2.28684 3.79761 0
M  V30 13392 H 1267.7 -0.205346 0.638807 0
M  V30 13393 H 1270.25 0.0142728 2.04495 0
M  V30 13394 H 1268.4 -2.18429 3.19949 0
M  V30 13395 H 1268.82 -1.09861 5.12865 0
M  V30 13396 H 1270.29 -2.77157 4.77376 0
M  V30 13397 H 1270.77 -3.10133 3.10989 0
M  V30 13398 H 1271.37 -1.64059 3.92383 0
M  V30 13399 N 1269.69 -1.54705 -0.300681 0
M  V30 13400 C 1270.93 -1.74259 -1.03738 0
M  V30 13401 C 1271.27 -0.52703 -1.86912 0
M  V30 13402 O 1270.54 0.475862 -1.88589 0
M  V30 13403 C 1270.82 -3.03175 -1.94311 0
M  V30 13404 C 1270.68 -4.35031 -1.14315 0
M  V30 13405 C 1272 -3.27962 -2.93478 0
M  V30 13406 H 1269.12 -0.634031 -0.37573 0
M  V30 13407 H 1271.76 -1.87421 -0.312012 0
M  V30 13408 H 1269.91 -2.92086 -2.5616 0
M  V30 13409 H 1271.58 -4.5804 -0.547489 0
M  V30 13410 H 1269.82 -4.31503 -0.44587 0
M  V30 13411 H 1270.49 -5.21502 -1.80941 0
M  V30 13412 H 1272.97 -3.38663 -2.41757 0
M  V30 13413 H 1271.85 -4.19481 -3.54016 0
M  V30 13414 H 1272.11 -2.46273 -3.67154 0
M  V30 13415 N 1271.17 0.563888 -1.47167 0
M  V30 13416 C 1272.41 1.32331 -1.53676 0
M  V30 13417 C 1272.75 1.93213 -0.195593 0
M  V30 13418 O 1272.02 1.77508 0.795068 0
M  V30 13419 C 1272.3 2.43848 -2.64972 0
M  V30 13420 C 1272.16 1.8788 -4.08682 0
M  V30 13421 C 1273.48 3.45809 -2.72221 0
M  V30 13422 H 1270.59 0.479791 -0.559437 0
M  V30 13423 H 1273.24 0.631669 -1.79192 0
M  V30 13424 H 1271.39 3.02846 -2.43345 0
M  V30 13425 H 1273.06 1.33195 -4.41652 0
M  V30 13426 H 1271.3 1.18593 -4.17275 0
M  V30 13427 H 1271.97 2.68465 -4.82318 0
M  V30 13428 H 1274.45 2.9672 -2.91713 0
M  V30 13429 H 1273.32 4.21272 -3.51882 0
M  V30 13430 H 1273.59 4.04236 -1.79014 0
M  V30 13431 N 1272.64 1.35187 0.810078 0
M  V30 13432 C 1274.06 1.25329 1.38381 0
M  V30 13433 C 1274.41 -0.115799 1.95858 0
M  V30 13434 O 1273.53 -1.01663 1.91033 0
M  V30 13435 C 1274.13 2.2693 2.51572 0
M  V30 13436 C 1272.69 2.20824 3.04818 0
M  V30 13437 C 1271.83 2.1283 1.7776 0
M  V30 13438 H 1274.78 1.46366 0.613402 0
M  V30 13439 H 1274.8 1.89375 3.30026 0
M  V30 13440 H 1274.32 3.26563 2.09709 0
M  V30 13441 H 1272.42 1.24589 3.51153 0
M  V30 13442 H 1272.53 3.12637 3.63036 0
M  V30 13443 H 1270.89 1.58752 1.99173 0
M  V30 13444 H 1271.68 3.14318 1.38054 0
M  V30 13445 N 1274.12 -1.03182 1.19127 0
M  V30 13446 C 1275.35 -1.80703 1.01791 0
M  V30 13447 C 1275.77 -1.83147 -0.428824 0
M  V30 13448 O 1275.13 -1.2553 -1.30812 0
M  V30 13449 C 1275.18 -3.23754 1.58794 0
M  V30 13450 O 1274.28 -4.04261 0.815274 0
M  V30 13451 H 1273.62 -0.557944 0.359992 0
M  V30 13452 H 1276.15 -1.29887 1.58084 0
M  V30 13453 H 1276.16 -3.7451 1.61884 0
M  V30 13454 H 1274.84 -3.2129 2.64094 0
M  V30 13455 H 1273.42 -3.62909 0.857392 0
M  V30 13456 N 1275.6 -0.99472 -1.22242 0
M  V30 13457 C 1277.01 -0.706456 -1.72818 0
M  V30 13458 C 1277.36 0.776566 -1.80177 0
M  V30 13459 O 1276.49 1.60698 -1.44931 0
M  V30 13460 C 1277.08 -1.27571 -3.13865 0
M  V30 13461 C 1275.64 -1.03679 -3.61839 0
M  V30 13462 C 1274.79 -1.3948 -2.39668 0
M  V30 13463 H 1277.74 -1.16687 -1.07564 0
M  V30 13464 H 1277.76 -0.655202 -3.74816 0
M  V30 13465 H 1277.27 -2.35508 -3.08476 0
M  V30 13466 H 1275.37 0.0258679 -3.72591 0
M  V30 13467 H 1275.49 -1.70145 -4.4787 0
M  V30 13468 H 1273.85 -0.813418 -2.41362 0
M  V30 13469 H 1274.63 -2.48425 -2.36939 0
M  V30 13470 N 1277.08 1.37613 -0.768148 0
M  V30 13471 C 1278.03 2.30311 -0.150176 0
M  V30 13472 C 1279 1.50918 0.69376 0
M  V30 13473 O 1280.18 1.795 0.64687 0
M  V30 13474 C 1277.32 3.37382 0.72576 0
M  V30 13475 C 1276.43 4.31791 -0.13439 0
M  V30 13476 C 1275.57 5.25937 0.745915 0
M  V30 13477 C 1274.61 6.11988 -0.116988 0
M  V30 13478 N 1273.74 6.98387 0.721091 0
M  V30 13479 H 1278.58 2.82579 -0.946212 0
M  V30 13480 H 1276.12 1.3911 -0.478217 0
M  V30 13481 H 1278.08 3.98084 1.24839 0
M  V30 13482 H 1276.71 2.86488 1.48743 0
M  V30 13483 H 1275.76 3.72426 -0.774793 0
M  V30 13484 H 1277.07 4.9234 -0.800163 0
M  V30 13485 H 1276.23 5.91826 1.33516 0
M  V30 13486 H 1274.97 4.6579 1.44538 0
M  V30 13487 H 1273.97 5.45081 -0.7188 0
M  V30 13488 H 1275.2 6.74207 -0.813732 0
M  V30 13489 H 1273.14 6.40772 1.40524 0
M  V30 13490 H 1273.06 7.55916 0.112536 0
M  V30 13491 H 1274.33 7.6867 1.29485 0
M  V30 13492 N 1278.56 0.518393 1.4883 0
M  V30 13493 C 1279.81 -0.0218436 2.01688 0
M  V30 13494 C 1280.12 -1.36421 1.40174 0
M  V30 13495 O 1281.32 -1.99214 1.84461 0
M  V30 13496 C 1279.78 -0.0893538 3.59789 0
M  V30 13497 C 1279.39 1.24741 4.30283 0
M  V30 13498 C 1281.13 -0.579032 4.20532 0
M  V30 13499 C 1279.04 1.14112 5.80286 0
M  V30 13500 H 1277.97 -0.0119353 0.753906 0
M  V30 13501 H 1280.62 0.660432 1.71203 0
M  V30 13502 H 1279 -0.836458 3.87065 0
M  V30 13503 H 1280.18 2.00917 4.14691 0
M  V30 13504 H 1278.49 1.67191 3.81361 0
M  V30 13505 H 1281.09 -0.676343 5.30405 0
M  V30 13506 H 1281.43 -1.58207 3.85067 0
M  V30 13507 H 1281.96 0.112046 3.97642 0
M  V30 13508 H 1278.7 2.11895 6.20307 0
M  V30 13509 H 1278.22 0.420535 5.98324 0
M  V30 13510 H 1279.9 0.826992 6.41693 0
M  V30 13511 N 1280.03 -1.55556 0.252993 0
M  V30 13512 C 1280.98 -2.21634 -0.643979 0
M  V30 13513 C 1281.95 -1.18226 -1.1667 0
M  V30 13514 O 1283.14 -1.46694 -1.22006 0
M  V30 13515 C 1280.28 -2.92429 -1.83246 0
M  V30 13516 C 1279.39 -4.10506 -1.34569 0
M  V30 13517 C 1278.52 -4.69001 -2.49421 0
M  V30 13518 C 1277.56 -5.79315 -1.97636 0
M  V30 13519 N 1276.7 -6.31967 -3.05878 0
M  V30 13520 H 1281.54 -2.97909 -0.0738178 0
M  V30 13521 H 1279.08 -1.47079 -0.0246728 0
M  V30 13522 H 1281.04 -3.31678 -2.53072 0
M  V30 13523 H 1279.67 -2.18617 -2.375 0
M  V30 13524 H 1278.72 -3.76529 -0.541268 0
M  V30 13525 H 1280.03 -4.90125 -0.92622 0
M  V30 13526 H 1279.18 -5.10855 -3.27279 0
M  V30 13527 H 1277.92 -3.88612 -2.94673 0
M  V30 13528 H 1276.93 -5.36933 -1.18251 0
M  V30 13529 H 1278.15 -6.6156 -1.53347 0
M  V30 13530 H 1276.1 -5.5448 -3.50553 0
M  V30 13531 H 1276.02 -7.06797 -2.68281 0
M  V30 13532 H 1277.28 -6.7848 -3.83777 0
M  V30 13533 N 1281.51 0.0200419 -1.57587 0
M  V30 13534 C 1282.75 0.713765 -1.91533 0
M  V30 13535 C 1283.12 1.72035 -0.852516 0
M  V30 13536 O 1284.32 2.46299 -1.07658 0
M  V30 13537 C 1282.59 1.35786 -3.30601 0
M  V30 13538 S 1284.15 2.07948 -3.86397 0
M  V30 13539 H 1280.97 0.236249 -0.670602 0
M  V30 13540 H 1283.57 -0.0318313 -1.95474 0
M  V30 13541 H 1282.27 0.612147 -4.05809 0
M  V30 13542 H 1281.8 2.14181 -3.29985 0
M  V30 13543 H 1283.82 3.3521 -3.65853 0
M  V30 13544 N 1282.99 1.54862 0.292472 0
M  V30 13545 C 1284.23 1.76289 1.03448 0
M  V30 13546 C 1284.59 0.541914 1.84194 0
M  V30 13547 O 1285.8 0.634075 2.61214 0
M  V30 13548 C 1284.07 3.02112 1.90953 0
M  V30 13549 S 1285.63 3.44577 2.71683 0
M  V30 13550 H 1282.44 0.619596 0.348744 0
M  V30 13551 H 1285.05 1.93075 0.306952 0
M  V30 13552 H 1283.75 3.89091 1.30523 0
M  V30 13553 H 1283.28 2.87937 2.68059 0
M  V30 13554 H 1285.3 3.02318 3.93469 0
M  V30 13555 N 1284.47 -0.556076 1.47464 0
M  V30 13556 C 1285.72 -1.31061 1.53842 0
M  V30 13557 C 1286.04 -1.93943 0.202806 0
M  V30 13558 O 1285.31 -1.7999 -0.773338 0
M  V30 13559 H 1283.89 -0.486696 0.566689 0
M  V30 13560 H 1286.55 -0.64924 1.83769 0
M  V30 13561 H 1285.65 -2.10354 2.30559 0
M  V30 13562 N 1285.95 -1.35615 -0.802897 0
M  V30 13563 C 1287.17 -1.32377 -1.59659 0
M  V30 13564 C 1287.6 0.0954235 -1.87858 0
M  V30 13565 O 1286.96 1.06336 -1.46842 0
M  V30 13566 C 1287 -2.13972 -2.90256 0
M  V30 13567 O 1286.11 -1.52296 -3.83249 0
M  V30 13568 H 1285.45 -0.453699 -0.484823 0
M  V30 13569 H 1287.98 -1.78708 -0.996217 0
M  V30 13570 H 1287.99 -2.26061 -3.39647 0
M  V30 13571 H 1286.66 -3.17145 -2.69057 0
M  V30 13572 H 1285.24 -1.49068 -3.41809 0
M  V30 13573 N 1287.43 1.02549 -1.19673 0
M  V30 13574 C 1288.36 2.12794 -0.961289 0
M  V30 13575 C 1289.34 1.69766 0.106575 0
M  V30 13576 O 1290.52 1.94138 -0.0491358 0
M  V30 13577 C 1287.65 3.4364 -0.502868 0
M  V30 13578 C 1286.61 4.00367 -1.51296 0
M  V30 13579 C 1285.93 5.26874 -0.911491 0
M  V30 13580 C 1287.23 4.34782 -2.89416 0
M  V30 13581 H 1288.93 2.32748 -1.88331 0
M  V30 13582 H 1286.47 1.11852 -0.906922 0
M  V30 13583 H 1288.42 4.20141 -0.325436 0
M  V30 13584 H 1287.15 3.23418 0.454764 0
M  V30 13585 H 1285.81 3.25964 -1.67759 0
M  V30 13586 H 1285.46 5.02971 0.0537982 0
M  V30 13587 H 1285.16 5.65791 -1.58602 0
M  V30 13588 H 1286.68 6.06039 -0.74493 0
M  V30 13589 H 1288.09 5.02207 -2.76516 0
M  V30 13590 H 1286.49 4.8479 -3.53693 0
M  V30 13591 H 1287.56 3.43935 -3.41814 0
M  V30 13592 N 1288.9 1.00119 1.21713 0
M  V30 13593 C 1289.81 0.567582 2.27631 0
M  V30 13594 C 1290.83 -0.387593 1.69628 0
M  V30 13595 O 1292.01 -0.252372 1.99813 0
M  V30 13596 C 1289.07 -0.102745 3.46548 0
M  V30 13597 C 1288.13 0.896433 4.19836 0
M  V30 13598 C 1287.36 0.258 5.33076 0
M  V30 13599 O 1287.59 -0.946118 5.62499 0
M  V30 13600 O 1286.52 0.967021 5.94081 0
M  V30 13601 H 1290.35 1.44898 2.66905 0
M  V30 13602 H 1287.93 0.769862 1.28037 0
M  V30 13603 H 1289.81 -0.477846 4.18682 0
M  V30 13604 H 1288.49 -0.958576 3.09181 0
M  V30 13605 H 1287.4 1.32262 3.49939 0
M  V30 13606 H 1288.73 1.72173 4.61104 0
M  V30 13607 N 1290.38 -1.37203 0.775435 0
M  V30 13608 C 1291.62 -2.01439 0.346649 0
M  V30 13609 C 1291.99 -1.60223 -1.05795 0
M  V30 13610 O 1293.19 -2.16947 -1.58706 0
M  V30 13611 C 1291.46 -3.54031 0.489584 0
M  V30 13612 S 1293.02 -4.38555 0.146606 0
M  V30 13613 H 1289.83 -0.698417 0.133173 0
M  V30 13614 H 1292.44 -1.67338 1.01086 0
M  V30 13615 H 1291.14 -3.81516 1.51241 0
M  V30 13616 H 1290.67 -3.92936 -0.19105 0
M  V30 13617 H 1292.69 -4.8482 -1.05661 0
M  V30 13618 N 1291.86 -0.526279 -1.48553 0
M  V30 13619 C 1292.79 0.275579 -2.27537 0
M  V30 13620 C 1293.8 0.90782 -1.35139 0
M  V30 13621 O 1294.99 0.786887 -1.6022 0
M  V30 13622 C 1292.09 1.40515 -3.08397 0
M  V30 13623 C 1291.27 0.875523 -4.28548 0
M  V30 13624 C 1290.33 1.88577 -4.91249 0
M  V30 13625 O 1289.35 1.44419 -5.50574 0
M  V30 13626 N 1290.55 3.21774 -4.83158 0
M  V30 13627 H 1293.32 -0.401803 -2.96994 0
M  V30 13628 H 1290.88 -0.360378 -1.57838 0
M  V30 13629 H 1292.87 2.07907 -3.47213 0
M  V30 13630 H 1291.44 1.98626 -2.41384 0
M  V30 13631 H 1290.66 0.025728 -3.94192 0
M  V30 13632 H 1291.95 0.500493 -5.06332 0
M  V30 13633 H 1291.35 3.60319 -4.36104 0
M  V30 13634 H 1289.9 3.84808 -5.26085 0
M  V30 13635 N 1293.34 1.5542 -0.261239 0
M  V30 13636 C 1294.75 1.85161 0.239195 0
M  V30 13637 C 1295.1 1.18319 1.56509 0
M  V30 13638 O 1294.22 0.4666 2.1131 0
M  V30 13639 C 1294.82 3.3592 0.440781 0
M  V30 13640 C 1293.38 3.65837 0.885461 0
M  V30 13641 C 1292.53 2.77285 -0.0291982 0
M  V30 13642 H 1295.48 1.51158 -0.483417 0
M  V30 13643 H 1295.5 3.58276 1.28136 0
M  V30 13644 H 1295.01 3.84541 -0.524382 0
M  V30 13645 H 1293.11 3.22705 1.86259 0
M  V30 13646 H 1293.22 4.73469 0.732394 0
M  V30 13647 H 1291.59 2.50045 0.484701 0
M  V30 13648 H 1292.37 3.28716 -0.989992 0
M  V30 13649 N 1294.82 -0.0116844 1.57596 0
M  V30 13650 C 1295.78 -0.991601 2.0664 0
M  V30 13651 C 1296.78 -1.27973 0.973629 0
M  V30 13652 O 1297.97 -1.22686 1.23668 0
M  V30 13653 C 1295.1 -2.31975 2.49801 0
M  V30 13654 H 1296.29 -0.567607 2.9448 0
M  V30 13655 H 1293.85 -0.258906 1.54141 0
M  V30 13656 H 1294.58 -2.79087 1.65169 0
M  V30 13657 H 1294.37 -2.12386 3.29598 0
M  V30 13658 H 1295.86 -3.02294 2.88112 0
M  V30 13659 N 1296.29 -1.55015 -0.284256 0
M  V30 13660 C 1297.26 -1.8636 -1.33426 0
M  V30 13661 C 1298.26 -0.737457 -1.42892 0
M  V30 13662 O 1299.45 -1.00569 -1.42238 0
M  V30 13663 C 1296.58 -2.05884 -2.71707 0
M  V30 13664 H 1297.77 -2.80212 -1.06869 0
M  V30 13665 H 1295.32 -1.47334 -0.521767 0
M  V30 13666 H 1296.06 -1.14376 -3.03461 0
M  V30 13667 H 1295.84 -2.87867 -2.66224 0
M  V30 13668 H 1297.33 -2.31447 -3.47595 0
M  V30 13669 N 1297.77 0.548248 -1.47757 0
M  V30 13670 C 1298.72 1.65028 -1.57321 0
M  V30 13671 C 1299.71 1.55006 -0.431489 0
M  V30 13672 O 1300.9 1.63337 -0.681919 0
M  V30 13673 C 1298.03 3.0379 -1.59896 0
M  V30 13674 C 1297.11 3.18982 -2.79484 0
M  V30 13675 N 1297.5 3.04208 -4.04093 0
M  V30 13676 C 1295.8 3.50001 -2.76433 0
M  V30 13677 C 1296.5 3.2233 -4.8423 0
M  V30 13678 N 1295.48 3.49073 -4.16712 0
M  V30 13679 H 1299.28 1.52187 -2.51428 0
M  V30 13680 H 1296.79 0.753242 -1.43875 0
M  V30 13681 H 1298.79 3.82928 -1.64839 0
M  V30 13682 H 1297.45 3.17735 -0.668912 0
M  V30 13683 H 1298.46 2.81348 -4.34814 0
M  V30 13684 H 1295.14 3.70418 -1.92606 0
M  V30 13685 H 1296.53 3.15799 -5.9306 0
M  V30 13686 N 1299.25 1.36039 0.795694 0
M  V30 13687 C 1300.21 1.29709 1.88966 0
M  V30 13688 C 1301.21 0.206142 1.59473 0
M  V30 13689 O 1302.4 0.460534 1.68002 0
M  V30 13690 C 1299.53 1.00922 3.25619 0
M  V30 13691 H 1300.73 2.26993 1.95995 0
M  V30 13692 H 1298.28 1.2072 0.992791 0
M  V30 13693 H 1299.02 0.0407027 3.24274 0
M  V30 13694 H 1298.8 1.79863 3.48413 0
M  V30 13695 H 1300.29 0.990826 4.05675 0
M  V30 13696 N 1300.73 -1.01913 1.20215 0
M  V30 13697 C 1302.01 -1.7262 0.919867 0
M  V30 13698 C 1302.39 -2.03203 -0.572001 0
M  V30 13699 O 1301.73 -1.69448 -1.53296 0
M  V30 13700 C 1301.94 -2.9959 1.79016 0
M  V30 13701 C 1303.29 -3.72905 2.03045 0
M  V30 13702 O 1304.32 -3.0954 1.76249 0
M  V30 13703 O 1303.17 -4.86844 2.48285 0
M  V30 13704 H 1300.27 -0.752194 0.343705 0
M  V30 13705 H 1302.81 -1.07783 1.31076 0
M  V30 13706 H 1301.59 -2.73292 2.80048 0
M  V30 13707 H 1301.21 -3.72168 1.39918 0
M  V30 13708 N 1302.21 -1.00763 -1.2118 0
M  V30 13709 C 1303.44 -0.709715 -1.94027 0
M  V30 13710 C 1303.84 0.732135 -1.7446 0
M  V30 13711 O 1303.19 1.50731 -1.05004 0
M  V30 13712 C 1303.25 -0.95427 -3.46603 0
M  V30 13713 C 1302.91 -2.38347 -3.89923 0
M  V30 13714 C 1303.91 -3.36383 -3.96412 0
M  V30 13715 C 1301.6 -2.72183 -4.22163 0
M  V30 13716 C 1303.59 -4.66321 -4.34538 0
M  V30 13717 C 1301.28 -4.02336 -4.59966 0
M  V30 13718 C 1302.27 -4.99216 -4.66125 0
M  V30 13719 O 1301.96 -6.27041 -5.03065 0
M  V30 13720 H 1301.69 -0.260545 -0.623773 0
M  V30 13721 H 1304.25 -1.34922 -1.54872 0
M  V30 13722 H 1302.48 -0.257599 -3.85841 0
M  V30 13723 H 1304.17 -0.649333 -4.00673 0
M  V30 13724 H 1304.93 -3.11578 -3.71677 0
M  V30 13725 H 1300.81 -1.97468 -4.16566 0
M  V30 13726 H 1304.36 -5.41938 -4.3926 0
M  V30 13727 H 1300.25 -4.26924 -4.84155 0
M  V30 13728 H 1301.02 -6.31196 -5.21089 0
M  V30 13729 N 1303.68 1.3679 -0.7827 0
M  V30 13730 C 1304.91 2.03678 -0.363734 0
M  V30 13731 C 1305.33 1.59024 1.01768 0
M  V30 13732 O 1304.68 0.776541 1.65155 0
M  V30 13733 C 1304.74 3.59165 -0.410213 0
M  V30 13734 O 1304.46 4.02188 -1.73714 0
M  V30 13735 C 1305.96 4.43296 0.018972 0
M  V30 13736 H 1303.18 0.653828 -0.150829 0
M  V30 13737 H 1305.72 1.74903 -1.05968 0
M  V30 13738 H 1303.88 3.86673 0.237249 0
M  V30 13739 H 1304.29 4.96754 -1.68332 0
M  V30 13740 H 1305.76 5.51962 -0.0646943 0
M  V30 13741 H 1306.24 4.25948 1.07076 0
M  V30 13742 H 1306.85 4.21036 -0.600721 0
M  V30 13743 N 1305.16 0.53415 1.48272 0
M  V30 13744 C 1306.4 0.00363134 2.044 0
M  V30 13745 C 1306.77 -1.31187 1.40193 0
M  V30 13746 O 1307.97 -1.92867 1.87232 0
M  V30 13747 C 1306.24 -0.111574 3.57226 0
M  V30 13748 S 1307.8 -0.591554 4.34794 0
M  V30 13749 H 1304.62 0.0140602 0.710861 0
M  V30 13750 H 1307.22 0.715656 1.8193 0
M  V30 13751 H 1305.92 0.850608 4.01488 0
M  V30 13752 H 1305.45 -0.847852 3.84155 0
M  V30 13753 H 1307.47 -1.85535 4.60208 0
M  V30 13754 N 1306.64 -1.55279 0.269478 0
M  V30 13755 C 1307.59 -2.22304 -0.620435 0
M  V30 13756 C 1308.56 -1.19457 -1.15409 0
M  V30 13757 O 1309.74 -1.4798 -1.20443 0
M  V30 13758 C 1306.88 -2.94356 -1.80134 0
M  V30 13759 C 1306 -4.1191 -1.30207 0
M  V30 13760 C 1305.13 -4.71621 -2.44433 0
M  V30 13761 C 1304.17 -5.81379 -1.91481 0
M  V30 13762 N 1303.31 -6.35176 -2.99158 0
M  V30 13763 H 1308.15 -2.9797 -0.0422165 0
M  V30 13764 H 1305.68 -1.47097 -0.00907173 0
M  V30 13765 H 1307.64 -3.34343 -2.4954 0
M  V30 13766 H 1306.27 -2.21124 -2.35168 0
M  V30 13767 H 1305.32 -3.77082 -0.501301 0
M  V30 13768 H 1306.64 -4.9108 -0.874183 0
M  V30 13769 H 1305.79 -5.14298 -3.21842 0
M  V30 13770 H 1304.53 -3.91715 -2.90535 0
M  V30 13771 H 1303.53 -5.38157 -1.12549 0
M  V30 13772 H 1304.76 -6.63149 -1.46322 0
M  V30 13773 H 1302.7 -5.58167 -3.44652 0
M  V30 13774 H 1302.62 -7.09602 -2.60769 0
M  V30 13775 H 1303.89 -6.82512 -3.7656 0
M  V30 13776 N 1308.12 0.00332656 -1.576 0
M  V30 13777 C 1309.36 0.68989 -1.90705 0
M  V30 13778 C 1309.7 1.73608 -0.870291 0
M  V30 13779 O 1308.97 1.94181 0.111416 0
M  V30 13780 C 1309.26 1.33605 -3.34397 0
M  V30 13781 C 1309.11 0.301638 -4.48787 0
M  V30 13782 C 1310.43 2.26313 -3.77453 0
M  V30 13783 H 1307.55 0.249328 -0.693545 0
M  V30 13784 H 1310.19 -0.0472847 -1.89941 0
M  V30 13785 H 1308.34 1.96437 -3.35179 0
M  V30 13786 H 1310.01 -0.326738 -4.60141 0
M  V30 13787 H 1308.25 -0.376451 -4.32163 0
M  V30 13788 H 1308.92 0.792741 -5.46278 0
M  V30 13789 H 1311.4 1.73502 -3.78201 0
M  V30 13790 H 1310.28 2.68492 -4.78752 0
M  V30 13791 H 1310.54 3.14082 -3.11135 0
M  V30 13792 N 1309.6 1.55164 0.276031 0
M  V30 13793 C 1310.84 1.75627 1.00803 0
M  V30 13794 C 1311.17 0.555696 1.86393 0
M  V30 13795 O 1310.43 -0.461872 1.90172 0
M  V30 13796 C 1310.73 3.0127 1.92279 0
M  V30 13797 C 1310.39 4.33951 1.22464 0
M  V30 13798 C 1309.05 4.70013 1.03158 0
M  V30 13799 C 1311.41 5.16097 0.72758 0
M  V30 13800 C 1308.73 5.85779 0.328699 0
M  V30 13801 C 1311.09 6.32588 0.0383001 0
M  V30 13802 C 1309.75 6.67292 -0.166494 0
M  V30 13803 H 1309.02 0.642665 0.368866 0
M  V30 13804 H 1311.67 1.89433 0.280595 0
M  V30 13805 H 1309.97 2.82351 2.71634 0
M  V30 13806 H 1311.67 3.14299 2.49032 0
M  V30 13807 H 1308.26 4.05605 1.38501 0
M  V30 13808 H 1312.44 4.88715 0.864365 0
M  V30 13809 H 1307.7 6.11192 0.159279 0
M  V30 13810 H 1311.87 6.95496 -0.354631 0
M  V30 13811 H 1309.5 7.56848 -0.713124 0
M  V30 13812 N 1311.07 -0.540404 1.48045 0
M  V30 13813 C 1312.32 -1.29422 1.55224 0
M  V30 13814 C 1312.64 -1.93716 0.223365 0
M  V30 13815 O 1311.91 -1.808 -0.754204 0
M  V30 13816 H 1310.49 -0.480658 0.571819 0
M  V30 13817 H 1313.16 -0.629712 1.84447 0
M  V30 13818 H 1312.25 -2.07897 2.32777 0
M  V30 13819 N 1312.55 -1.36459 -0.788468 0
M  V30 13820 C 1313.8 -1.30483 -1.54333 0
M  V30 13821 C 1314.12 0.115266 -1.94659 0
M  V30 13822 O 1313.39 1.05573 -1.65019 0
M  V30 13823 H 1311.97 -0.480004 -0.572368 0
M  V30 13824 H 1314.63 -1.70765 -0.939428 0
M  V30 13825 H 1313.73 -1.93284 -2.45046 0
M  V30 13826 N 1314.03 1.01274 -1.20754 0
M  V30 13827 C 1315.28 1.75191 -1.02156 0
M  V30 13828 C 1315.61 1.89038 0.444791 0
M  V30 13829 O 1314.88 1.41903 1.33018 0
M  V30 13830 C 1315.17 3.16892 -1.71031 0
M  V30 13831 C 1315.02 3.10816 -3.25136 0
M  V30 13832 C 1316.34 4.15648 -1.44654 0
M  V30 13833 H 1313.46 0.635922 -0.372521 0
M  V30 13834 H 1316.1 1.18119 -1.48822 0
M  V30 13835 H 1314.25 3.6562 -1.31357 0
M  V30 13836 H 1315.92 2.69863 -3.74128 0
M  V30 13837 H 1314.17 2.48113 -3.5584 0
M  V30 13838 H 1314.84 4.11001 -3.68487 0
M  V30 13839 H 1317.31 3.75592 -1.7908 0
M  V30 13840 H 1316.19 5.12954 -1.95371 0
M  V30 13841 H 1316.45 4.40507 -0.37494 0
M  V30 13842 N 1315.51 1.01404 1.20644 0
M  V30 13843 C 1316.74 0.719995 1.93648 0
M  V30 13844 C 1317.15 -0.722872 1.74846 0
M  V30 13845 O 1316.49 -1.50172 1.05802 0
M  V30 13846 C 1316.55 0.972637 3.46092 0
M  V30 13847 C 1316.22 2.40412 3.88653 0
M  V30 13848 C 1317.21 3.38481 3.94622 0
M  V30 13849 C 1314.9 2.74418 4.20714 0
M  V30 13850 C 1316.89 4.68619 4.32059 0
M  V30 13851 C 1314.58 4.04769 4.57826 0
M  V30 13852 C 1315.58 5.01681 4.63471 0
M  V30 13853 O 1315.27 6.297 4.99733 0
M  V30 13854 H 1315 0.263849 0.622382 0
M  V30 13855 H 1317.55 1.35741 1.54154 0
M  V30 13856 H 1315.78 0.278057 3.85699 0
M  V30 13857 H 1317.47 0.670572 4.00323 0
M  V30 13858 H 1318.24 3.13545 3.7002 0
M  V30 13859 H 1314.12 1.99675 4.15513 0
M  V30 13860 H 1317.66 5.4426 4.3638 0
M  V30 13861 H 1313.56 4.29486 4.81884 0
M  V30 13862 H 1314.32 6.3395 5.17735 0
M  V30 13863 N 1316.99 -1.36373 0.789944 0
M  V30 13864 C 1318.4 -1.81783 0.425677 0
M  V30 13865 C 1318.75 -1.65711 -1.05045 0
M  V30 13866 O 1317.87 -1.17835 -1.81505 0
M  V30 13867 C 1318.47 -3.3003 0.765866 0
M  V30 13868 C 1317.03 -3.73647 0.454421 0
M  V30 13869 C 1316.18 -2.58632 1.00023 0
M  V30 13870 H 1319.13 -1.24587 0.983044 0
M  V30 13871 H 1319.15 -3.80457 0.0571624 0
M  V30 13872 H 1318.66 -3.41696 1.84026 0
M  V30 13873 H 1316.76 -3.67541 -0.611918 0
M  V30 13874 H 1316.87 -4.69066 0.975401 0
M  V30 13875 H 1315.24 -2.51156 0.423434 0
M  V30 13876 H 1316.02 -2.73083 2.0804 0
M  V30 13877 N 1318.47 -0.542005 -1.47987 0
M  V30 13878 C 1319.71 -0.0123116 -2.02496 0
M  V30 13879 C 1320.04 1.33136 -1.41793 0
M  V30 13880 O 1319.3 1.87591 -0.557501 0
M  V30 13881 C 1319.59 0.146208 -3.57101 0
M  V30 13882 C 1319.26 -1.12463 -4.3665 0
M  V30 13883 C 1317.92 -1.47289 -4.58104 0
M  V30 13884 C 1320.27 -1.96746 -4.82639 0
M  V30 13885 C 1317.6 -2.66273 -5.22796 0
M  V30 13886 C 1319.95 -3.14919 -5.48643 0
M  V30 13887 C 1318.62 -3.50077 -5.68333 0
M  V30 13888 H 1317.89 -0.00450514 -0.740986 0
M  V30 13889 H 1320.54 -0.710455 -1.77834 0
M  V30 13890 H 1318.84 0.927209 -3.80671 0
M  V30 13891 H 1320.54 0.571161 -3.96912 0
M  V30 13892 H 1317.13 -0.843429 -4.20219 0
M  V30 13893 H 1321.31 -1.71149 -4.65856 0
M  V30 13894 H 1316.57 -2.937 -5.36237 0
M  V30 13895 H 1320.74 -3.80525 -5.83244 0
M  V30 13896 H 1318.37 -4.42371 -6.18233 0
M  V30 13897 N 1319.94 1.55134 -0.277709 0
M  V30 13898 C 1320.88 2.18745 0.650058 0
M  V30 13899 C 1321.85 1.14922 1.15029 0
M  V30 13900 O 1323.04 1.43458 1.22278 0
M  V30 13901 C 1320.17 2.81277 1.88683 0
M  V30 13902 C 1319.21 3.98425 1.52185 0
M  V30 13903 S 1320.04 5.32153 0.597782 0
M  V30 13904 C 1321.2 5.98155 1.84287 0
M  V30 13905 H 1321.43 2.97098 0.109571 0
M  V30 13906 H 1318.97 1.54276 -0.0619536 0
M  V30 13907 H 1320.92 3.17934 2.59669 0
M  V30 13908 H 1319.59 2.02813 2.39845 0
M  V30 13909 H 1318.78 4.40877 2.4422 0
M  V30 13910 H 1318.38 3.63203 0.892146 0
M  V30 13911 H 1320.67 6.17546 2.78646 0
M  V30 13912 H 1321.62 6.92857 1.46131 0
M  V30 13913 H 1322.02 5.27541 2.00899 0
M  V30 13914 N 1321.42 0.00503138 1.57599 0
M  V30 13915 C 1322.67 -0.674107 1.91905 0
M  V30 13916 C 1323.02 -1.71101 0.8799 0
M  V30 13917 O 1322.32 -1.913 -0.107261 0
M  V30 13918 C 1322.51 -1.35485 3.30724 0
M  V30 13919 C 1322.34 -0.385403 4.48045 0
M  V30 13920 C 1321.11 0.00602574 5.053 0
M  V30 13921 C 1323.31 0.350442 5.13105 0
M  V30 13922 N 1321.29 0.97316 6.06138 0
M  V30 13923 C 1322.66 1.1721 6.0882 0
M  V30 13924 C 1324.71 0.413738 4.96178 0
M  V30 13925 C 1323.42 2.05129 6.89431 0
M  V30 13926 C 1325.44 1.28018 5.77378 0
M  V30 13927 C 1324.81 2.08967 6.7269 0
M  V30 13928 H 1320.9 -0.219721 0.750498 0
M  V30 13929 H 1323.49 0.0665598 1.94586 0
M  V30 13930 H 1321.66 -2.06578 3.28907 0
M  V30 13931 H 1323.39 -1.98909 3.52445 0
M  V30 13932 H 1320.15 -0.363403 4.72204 0
M  V30 13933 H 1320.57 1.45225 6.6124 0
M  V30 13934 H 1325.21 -0.19783 4.22337 0
M  V30 13935 H 1322.93 2.67351 7.62594 0
M  V30 13936 H 1326.52 1.33313 5.66321 0
M  V30 13937 H 1325.4 2.74926 7.34428 0
M  V30 13938 N 1322.9 -1.55308 -0.267798 0
M  V30 13939 C 1324.15 -1.75811 -0.996734 0
M  V30 13940 C 1324.47 -0.565161 -1.8663 0
M  V30 13941 O 1323.74 0.419775 -1.9135 0
M  V30 13942 H 1322.32 -0.648353 -0.371008 0
M  V30 13943 H 1324.98 -1.92719 -0.290775 0
M  V30 13944 H 1324.08 -2.66113 -1.63064 0
M  V30 13945 N 1324.38 0.532545 -1.4833 0
M  V30 13946 C 1325.63 1.28597 -1.55908 0
M  V30 13947 C 1325.95 1.93595 -0.233635 0
M  V30 13948 O 1325.22 1.81197 0.744605 0
M  V30 13949 H 1323.8 0.477619 -0.57436 0
M  V30 13950 H 1326.46 0.619922 -1.84778 0
M  V30 13951 H 1325.55 2.0666 -2.33877 0
M  V30 13952 N 1325.86 1.36875 0.78122 0
M  V30 13953 C 1326.82 1.31706 1.8758 0
M  V30 13954 C 1327.82 0.223044 1.59246 0
M  V30 13955 O 1329.01 0.478327 1.67504 0
M  V30 13956 C 1326.14 1.0437 3.2453 0
M  V30 13957 H 1327.33 2.29059 1.93576 0
M  V30 13958 H 1324.89 1.21766 0.979931 0
M  V30 13959 H 1325.62 0.0750941 3.24213 0
M  V30 13960 H 1325.41 1.83548 3.46486 0
M  V30 13961 H 1326.9 1.0338 4.04602 0
M  V30 13962 N 1327.33 -1.00632 1.21289 0
M  V30 13963 C 1328.27 -2.0954 0.928753 0
M  V30 13964 C 1329.28 -1.62565 -0.0875212 0
M  V30 13965 O 1330.47 -1.77912 0.144808 0
M  V30 13966 C 1327.57 -3.36844 0.37276 0
M  V30 13967 C 1326.74 -4.1291 1.44305 0
M  V30 13968 C 1325.8 -5.18506 0.896534 0
M  V30 13969 O 1324.83 -5.46841 1.57966 0
M  V30 13970 N 1326.03 -5.79781 -0.288888 0
M  V30 13971 H 1328.79 -2.34499 1.86629 0
M  V30 13972 H 1326.35 -1.17104 1.11796 0
M  V30 13973 H 1328.35 -4.04699 -0.00722737 0
M  V30 13974 H 1326.92 -3.09053 -0.469572 0
M  V30 13975 H 1326.14 -3.39876 1.99694 0
M  V30 13976 H 1327.42 -4.60508 2.16356 0
M  V30 13977 H 1326.82 -5.5911 -0.860951 0
M  V30 13978 H 1325.38 -6.48936 -0.6104 0
M  V30 13979 N 1328.81 -1.02043 -1.20104 0
M  V30 13980 C 1330.05 -0.720566 -1.91278 0
M  V30 13981 C 1330.42 0.73658 -1.77309 0
M  V30 13982 O 1331.62 1.14913 -2.42999 0
M  V30 13983 C 1329.89 -1.1489 -3.3843 0
M  V30 13984 S 1331.45 -0.971591 -4.27908 0
M  V30 13985 H 1328.26 -0.262582 -0.660736 0
M  V30 13986 H 1330.87 -1.30849 -1.45254 0
M  V30 13987 H 1329.57 -2.20521 -3.46119 0
M  V30 13988 H 1329.1 -0.553911 -3.89481 0
M  V30 13989 H 1331.12 0.122695 -4.96048 0
M  V30 13990 N 1330.29 1.35952 -0.797165 0
M  V30 13991 C 1331.54 1.99032 -0.373142 0
M  V30 13992 C 1331.87 1.63257 1.05723 0
M  V30 13993 O 1331.12 0.883022 1.74646 0
M  V30 13994 C 1331.42 3.53986 -0.492805 0
M  V30 13995 C 1331.09 4.09603 -1.88511 0
M  V30 13996 C 1329.75 4.24505 -2.26604 0
M  V30 13997 C 1332.1 4.39829 -2.79643 0
M  V30 13998 C 1329.43 4.66946 -3.55215 0
M  V30 13999 C 1331.78 4.83706 -4.0769 0
M  V30 14000 C 1330.44 4.96813 -4.45795 0
M  V30 14001 H 1329.71 0.728311 -0.136542 0
M  V30 14002 H 1332.36 1.62318 -1.01613 0
M  V30 14003 H 1330.67 3.91103 0.233661 0
M  V30 14004 H 1332.36 4.00735 -0.145638 0
M  V30 14005 H 1328.95 3.98449 -1.57912 0
M  V30 14006 H 1333.14 4.27878 -2.51464 0
M  V30 14007 H 1328.39 4.75282 -3.84599 0
M  V30 14008 H 1332.57 5.06057 -4.78414 0
M  V30 14009 H 1330.19 5.29458 -5.45507 0
M  V30 14010 N 1331.77 0.549846 1.47697 0
M  V30 14011 C 1333.01 0.0253105 2.04384 0
M  V30 14012 C 1333.37 -1.29692 1.41576 0
M  V30 14013 O 1334.57 -1.9087 1.89267 0
M  V30 14014 C 1332.84 -0.0736795 3.57324 0
M  V30 14015 S 1334.4 -0.545405 4.35397 0
M  V30 14016 H 1331.22 0.0215991 0.710672 0
M  V30 14017 H 1333.82 0.734912 1.81161 0
M  V30 14018 H 1332.53 0.893144 4.00563 0
M  V30 14019 H 1332.06 -0.80706 3.85033 0
M  V30 14020 H 1334.07 -1.80644 4.6215 0
M  V30 14021 N 1333.25 -1.54984 0.285932 0
M  V30 14022 C 1334.52 -1.91872 -0.380083 0
M  V30 14023 C 1334.9 -1.21146 -1.72878 0
M  V30 14024 O 1334.25 -0.341999 -2.25926 0
M  V30 14025 C 1334.46 -3.45258 -0.509667 0
M  V30 14026 C 1335.81 -4.17232 -0.787549 0
M  V30 14027 O 1336.83 -3.51211 -0.594062 0
M  V30 14028 O 1335.69 -5.34085 -1.15826 0
M  V30 14029 H 1332.79 -0.799931 -0.209856 0
M  V30 14030 H 1335.33 -1.66403 0.332882 0
M  V30 14031 H 1334.1 -3.88829 0.439049 0
M  V30 14032 H 1333.73 -3.76715 -1.27168 0
M  V30 14033 N 1334.72 -0.0133892 -1.57594 0
M  V30 14034 C 1335.95 0.682855 -1.95836 0
M  V30 14035 C 1336.37 1.65763 -0.889049 0
M  V30 14036 O 1335.73 1.80665 0.151585 0
M  V30 14037 C 1335.78 1.37931 -3.33178 0
M  V30 14038 O 1334.88 2.49416 -3.28429 0
M  V30 14039 H 1334.23 0.180629 -0.638959 0
M  V30 14040 H 1336.76 -0.0705644 -2.04478 0
M  V30 14041 H 1336.77 1.73969 -3.69051 0
M  V30 14042 H 1335.44 0.664675 -4.10554 0
M  V30 14043 H 1334.02 2.15606 -3.04251 0
M  V30 14044 N 1336.2 1.55448 0.259558 0
M  V30 14045 C 1337.11 1.92364 1.34289 0
M  V30 14046 C 1338.13 0.822492 1.53333 0
M  V30 14047 O 1339.3 1.12277 1.672 0
M  V30 14048 C 1336.37 2.19978 2.67975 0
M  V30 14049 C 1335.43 3.43454 2.57562 0
M  V30 14050 C 1334.66 3.69741 3.84873 0
M  V30 14051 O 1334.89 2.9831 4.86176 0
M  V30 14052 O 1333.82 4.63274 3.84267 0
M  V30 14053 H 1337.65 2.8461 1.05975 0
M  V30 14054 H 1335.23 1.42167 0.459239 0
M  V30 14055 H 1337.11 2.39104 3.46998 0
M  V30 14056 H 1335.79 1.30912 2.96047 0
M  V30 14057 H 1334.7 3.29649 1.76869 0
M  V30 14058 H 1336.03 4.32782 2.34437 0
M  V30 14059 N 1337.68 -0.524672 1.4861 0
M  V30 14060 C 1338.63 -1.64965 1.6398 0
M  V30 14061 C 1339.62 -1.61663 0.506118 0
M  V30 14062 O 1340.83 -1.66456 0.685013 0
M  V30 14063 H 1337.2 -0.546419 0.516653 0
M  V30 14064 H 1339.17 -1.49146 2.58453 0
M  V30 14065 C 1337.92 -3.03215 1.70165 0
M  V30 14066 H 1337.25 -3.06451 2.56764 0
M  V30 14067 H 1338.69 -3.8153 1.84962 0
M  V30 14068 C 1337.15 -3.33996 0.44143 0
M  V30 14069 O 1337.68 -3.99246 -0.443356 0
M  V30 14070 N 1335.88 -2.88925 0.311518 0
M  V30 14071 H 1335.43 -2.36003 1.0325 0
M  V30 14072 H 1335.39 -3.09889 -0.530655 0
M  V30 14073 N 1339.16 -1.37287 -0.77395 0
M  V30 14074 C 1340.38 -1.35734 -1.56815 0
M  V30 14075 C 1340.81 0.0555546 -1.88018 0
M  V30 14076 O 1340.17 1.03197 -1.49064 0
M  V30 14077 C 1340.21 -2.2008 -2.85652 0
M  V30 14078 O 1339.32 -1.60391 -3.79932 0
M  V30 14079 H 1338.66 -0.463881 -0.47509 0
M  V30 14080 H 1341.19 -1.80781 -0.958087 0
M  V30 14081 H 1341.2 -2.33215 -3.34776 0
M  V30 14082 H 1339.87 -3.22781 -2.6227 0
M  V30 14083 H 1338.45 -1.56285 -3.3857 0
M  V30 14084 N 1340.64 0.999871 -1.21821 0
M  V30 14085 C 1341.57 2.09044 -0.939852 0
M  V30 14086 C 1342.58 1.62609 0.0788987 0
M  V30 14087 O 1343.77 1.77832 -0.154241 0
M  V30 14088 C 1340.87 3.36641 -0.390618 0
M  V30 14089 C 1340.04 4.12139 -1.46493 0
M  V30 14090 C 1339.1 5.18023 -0.924019 0
M  V30 14091 O 1338.13 5.45996 -1.60864 0
M  V30 14092 N 1339.33 5.79926 0.258136 0
M  V30 14093 H 1342.1 2.33506 -1.8787 0
M  V30 14094 H 1339.66 1.16509 -1.12415 0
M  V30 14095 H 1341.65 4.04697 -0.0142349 0
M  V30 14096 H 1340.22 3.09298 0.453176 0
M  V30 14097 H 1339.44 3.38813 -2.01494 0
M  V30 14098 H 1340.73 4.59354 -2.18795 0
M  V30 14099 H 1340.12 5.59559 0.831288 0
M  V30 14100 H 1338.68 6.4925 0.575977 0
M  V30 14101 N 1342.11 1.02678 1.19562 0
M  V30 14102 C 1343.05 0.550355 2.21464 0
M  V30 14103 C 1344.03 -0.407674 1.57406 0
M  V30 14104 O 1345.21 -0.325272 1.85672 0
M  V30 14105 C 1342.34 -0.197777 3.38122 0
M  V30 14106 C 1341.38 0.711362 4.20526 0
M  V30 14107 S 1342.22 2.18636 4.88834 0
M  V30 14108 C 1343.37 1.44868 6.08904 0
M  V30 14109 H 1343.6 1.41377 2.61534 0
M  V30 14110 H 1341.14 0.836535 1.29775 0
M  V30 14111 H 1343.1 -0.62329 4.0574 0
M  V30 14112 H 1341.76 -1.03689 2.96492 0
M  V30 14113 H 1340.95 0.133916 5.03822 0
M  V30 14114 H 1340.55 1.0751 3.58214 0
M  V30 14115 H 1342.84 0.734143 6.73511 0
M  V30 14116 H 1343.79 2.25816 6.71128 0
M  V30 14117 H 1344.19 0.947098 5.56498 0
M  V30 14118 N 1343.59 -1.35528 0.804364 0
M  V30 14119 C 1344.82 -2.03604 0.395013 0
M  V30 14120 C 1345.24 -1.60225 -0.985371 0
M  V30 14121 O 1344.6 -0.777844 -1.63766 0
M  V30 14122 C 1344.65 -3.57337 0.484011 0
M  V30 14123 O 1343.75 -4.09316 -0.503395 0
M  V30 14124 H 1343.09 -0.643089 0.165325 0
M  V30 14125 H 1345.62 -1.73171 1.08963 0
M  V30 14126 H 1345.63 -4.0647 0.353009 0
M  V30 14127 H 1344.31 -3.8826 1.49088 0
M  V30 14128 H 1342.89 -3.71412 -0.332817 0
M  V30 14129 N 1345.07 -0.557671 -1.47404 0
M  V30 14130 C 1345.98 0.19289 -2.33806 0
M  V30 14131 C 1347 0.911424 -1.4822 0
M  V30 14132 O 1348.17 0.880214 -1.81147 0
M  V30 14133 C 1345.24 1.20937 -3.24923 0
M  V30 14134 C 1344.3 0.498209 -4.26399 0
M  V30 14135 C 1343.53 1.46626 -5.13163 0
M  V30 14136 O 1343.76 2.70111 -5.0239 0
M  V30 14137 O 1342.69 0.990497 -5.93694 0
M  V30 14138 H 1346.52 -0.515861 -2.99287 0
M  V30 14139 H 1344.1 -0.318283 -1.4597 0
M  V30 14140 H 1345.98 1.7961 -3.81206 0
M  V30 14141 H 1344.66 1.90003 -2.6207 0
M  V30 14142 H 1343.56 -0.129736 -3.73875 0
M  V30 14143 H 1344.9 -0.151015 -4.91968 0
M  V30 14144 N 1346.55 1.54831 -0.294147 0
M  V30 14145 C 1347.51 2.21946 0.572061 0
M  V30 14146 C 1348.51 1.20331 1.06663 0
M  V30 14147 O 1349.7 1.45112 0.963757 0
M  V30 14148 C 1346.83 2.90044 1.7913 0
M  V30 14149 H 1348.03 2.99897 -0.0142234 0
M  V30 14150 H 1345.58 1.56235 -0.0449187 0
M  V30 14151 H 1346.32 2.16154 2.4176 0
M  V30 14152 H 1346.1 3.64527 1.44439 0
M  V30 14153 H 1347.59 3.41263 2.40684 0
M  V30 14154 N 1348.03 0.0217466 1.57585 0
M  V30 14155 C 1349.26 -0.667911 1.95506 0
M  V30 14156 C 1349.67 -1.66616 0.89642 0
M  V30 14157 O 1349.01 -1.83232 -0.131059 0
M  V30 14158 C 1349.07 -1.43696 3.29533 0
M  V30 14159 C 1348.73 -0.59787 4.53072 0
M  V30 14160 C 1349.73 0.12372 5.19753 0
M  V30 14161 C 1347.42 -0.53744 4.99417 0
M  V30 14162 C 1349.41 0.894491 6.31092 0
M  V30 14163 C 1347.1 0.237041 6.1064 0
M  V30 14164 C 1348.1 0.95172 6.76337 0
M  V30 14165 O 1347.78 1.71352 7.85426 0
M  V30 14166 H 1347.52 -0.189544 0.648883 0
M  V30 14167 H 1350.07 0.0755682 2.05261 0
M  V30 14168 H 1348.3 -2.22541 3.16247 0
M  V30 14169 H 1349.99 -2.01402 3.52409 0
M  V30 14170 H 1350.75 0.0863208 4.84923 0
M  V30 14171 H 1346.63 -1.08327 4.48092 0
M  V30 14172 H 1350.18 1.45285 6.82304 0
M  V30 14173 H 1346.07 0.276183 6.44909 0
M  V30 14174 H 1346.84 1.63252 8.02054 0
M  V30 14175 N 1349.51 -1.55583 -0.251311 0
M  V30 14176 C 1350.75 -1.77471 -0.981418 0
M  V30 14177 C 1351.08 -0.586228 -1.85141 0
M  V30 14178 O 1350.36 0.415623 -1.90007 0
M  V30 14179 C 1350.64 -3.09204 -1.84567 0
M  V30 14180 C 1350.5 -4.38448 -1.00417 0
M  V30 14181 C 1351.81 -3.37133 -2.82895 0
M  V30 14182 H 1348.93 -0.645664 -0.355369 0
M  V30 14183 H 1351.58 -1.88318 -0.252228 0
M  V30 14184 H 1349.73 -3.00087 -2.46738 0
M  V30 14185 H 1351.4 -4.5955 -0.40149 0
M  V30 14186 H 1349.64 -4.32703 -0.308365 0
M  V30 14187 H 1350.31 -5.26995 -1.64258 0
M  V30 14188 H 1352.79 -3.46183 -2.3086 0
M  V30 14189 H 1351.66 -4.30531 -3.40491 0
M  V30 14190 H 1351.92 -2.57829 -3.59133 0
M  V30 14191 N 1350.98 0.516783 -1.48886 0
M  V30 14192 C 1351.89 1.6467 -1.67095 0
M  V30 14193 C 1352.91 1.64963 -0.553466 0
M  V30 14194 O 1354.09 1.83673 -0.826206 0
M  V30 14195 C 1351.15 3.01095 -1.71879 0
M  V30 14196 C 1350.21 3.11554 -2.95352 0
M  V30 14197 C 1349.44 4.41471 -2.99898 0
M  V30 14198 O 1349.67 5.29348 -2.12477 0
M  V30 14199 O 1348.6 4.56573 -3.92205 0
M  V30 14200 H 1352.43 1.52242 -2.62785 0
M  V30 14201 H 1350.01 0.69134 -1.32442 0
M  V30 14202 H 1351.89 3.82207 -1.77471 0
M  V30 14203 H 1350.57 3.1382 -0.793656 0
M  V30 14204 H 1349.48 2.29689 -2.95286 0
M  V30 14205 H 1350.81 3.03751 -3.87294 0
M  V30 14206 N 1352.46 1.37696 0.766659 0
M  V30 14207 C 1353.39 1.36576 1.89392 0
M  V30 14208 C 1354.37 0.233597 1.68488 0
M  V30 14209 O 1355.56 0.434719 1.89272 0
M  V30 14210 C 1352.69 1.17705 3.26746 0
M  V30 14211 C 1351.64 2.27987 3.62224 0
M  V30 14212 C 1350.97 1.94235 4.98174 0
M  V30 14213 C 1352.27 3.70195 3.68447 0
M  V30 14214 H 1353.96 2.30905 1.90587 0
M  V30 14215 H 1351.51 1.11148 0.915538 0
M  V30 14216 H 1353.46 1.15551 4.05248 0
M  V30 14217 H 1352.18 0.198334 3.25997 0
M  V30 14218 H 1350.84 2.29306 2.86032 0
M  V30 14219 H 1350.49 0.948796 4.93971 0
M  V30 14220 H 1350.19 2.68086 5.2288 0
M  V30 14221 H 1351.72 1.93676 5.7907 0
M  V30 14222 H 1353.13 3.70978 4.37091 0
M  V30 14223 H 1351.53 4.43142 4.04654 0
M  V30 14224 H 1352.6 4.03453 2.68986 0
M  V30 14225 N 1353.94 -0.993397 1.22349 0
M  V30 14226 C 1355.16 -1.77373 1.07488 0
M  V30 14227 C 1355.59 -1.84418 -0.37034 0
M  V30 14228 O 1354.95 -1.29629 -1.26752 0
M  V30 14229 C 1355 -3.18538 1.69014 0
M  V30 14230 O 1354.1 -4.01463 0.943474 0
M  V30 14231 H 1353.44 -0.546209 0.37756 0
M  V30 14232 H 1355.97 -1.24792 1.62136 0
M  V30 14233 H 1355.98 -3.6917 1.73717 0
M  V30 14234 H 1354.66 -3.12725 2.74182 0
M  V30 14235 H 1353.23 -3.59998 0.972415 0
M  V30 14236 N 1355.42 -1.03311 -1.19015 0
M  V30 14237 C 1356.38 -0.622114 -2.20596 0
M  V30 14238 C 1357.38 0.316502 -1.57654 0
M  V30 14239 O 1358.57 0.102932 -1.73896 0
M  V30 14240 C 1355.7 0.0890432 -3.40784 0
M  V30 14241 H 1356.9 -1.52095 -2.58471 0
M  V30 14242 H 1354.45 -0.824777 -1.32767 0
M  V30 14243 H 1355.18 1.00203 -3.08431 0
M  V30 14244 H 1354.97 -0.58547 -3.87704 0
M  V30 14245 H 1356.46 0.363366 -4.16016 0
M  V30 14246 N 1356.9 1.35099 -0.81154 0
M  V30 14247 C 1358.17 1.93009 -0.317289 0
M  V30 14248 C 1358.55 1.74101 1.19382 0
M  V30 14249 O 1357.9 1.11295 1.99564 0
M  V30 14250 C 1358.11 3.41191 -0.734123 0
M  V30 14251 C 1359.46 4.1834 -0.726437 0
M  V30 14252 O 1360.48 3.49727 -0.67598 0
M  V30 14253 O 1359.34 5.4077 -0.789291 0
M  V30 14254 H 1356.44 0.822707 -0.084153 0
M  V30 14255 H 1358.98 1.44145 -0.895569 0
M  V30 14256 H 1357.75 3.48705 -1.7754 0
M  V30 14257 H 1357.38 3.97384 -0.130919 0
M  V30 14258 N 1358.37 0.56548 1.47106 0
M  V30 14259 C 1359.61 0.0469867 2.04346 0
M  V30 14260 C 1359.98 -1.28183 1.42944 0
M  V30 14261 O 1361.18 -1.88852 1.91281 0
M  V30 14262 C 1359.45 -0.0357764 3.57382 0
M  V30 14263 S 1361.01 -0.499194 4.35951 0
M  V30 14264 H 1357.83 0.0291355 0.710403 0
M  V30 14265 H 1360.43 0.754085 1.80371 0
M  V30 14266 H 1359.13 0.935578 3.99594 0
M  V30 14267 H 1358.66 -0.766177 3.85867 0
M  V30 14268 H 1360.68 -1.75732 4.6404 0
M  V30 14269 N 1359.85 -1.54672 0.302354 0
M  V30 14270 C 1360.82 -2.22246 -0.560283 0
M  V30 14271 C 1361.82 -1.20895 -1.06023 0
M  V30 14272 O 1363.01 -1.45621 -0.956047 0
M  V30 14273 C 1360.14 -2.9099 -1.77589 0
M  V30 14274 H 1361.33 -2.99885 0.0301274 0
M  V30 14275 H 1358.88 -1.56209 0.0532036 0
M  V30 14276 H 1359.62 -2.17433 -2.4061 0
M  V30 14277 H 1359.4 -3.65288 -1.42503 0
M  V30 14278 H 1360.89 -3.42535 -2.38871 0
M  V30 14279 N 1361.33 -0.0301034 -1.57571 0
M  V30 14280 C 1362.56 0.662045 -1.9655 0
M  V30 14281 C 1362.98 1.64811 -0.906581 0
M  V30 14282 O 1362.34 1.80816 0.132415 0
M  V30 14283 C 1362.39 1.34389 -3.34622 0
M  V30 14284 O 1361.49 2.45919 -3.31056 0
M  V30 14285 H 1360.83 0.173842 -0.640839 0
M  V30 14286 H 1363.36 -0.092248 -2.04392 0
M  V30 14287 H 1363.37 1.70045 -3.70875 0
M  V30 14288 H 1362.05 0.621092 -4.11236 0
M  V30 14289 H 1360.62 2.12367 -3.06521 0
M  V30 14290 N 1362.81 1.55714 0.243056 0
M  V30 14291 C 1364.09 1.68483 0.993614 0
M  V30 14292 C 1364.47 0.571112 2.03228 0
M  V30 14293 O 1363.81 -0.42491 2.24515 0
M  V30 14294 C 1364.02 3.0894 1.62349 0
M  V30 14295 C 1365.37 3.67663 2.12389 0
M  V30 14296 O 1366.4 3.11764 1.72283 0
M  V30 14297 O 1365.25 4.65664 2.8604 0
M  V30 14298 H 1362.35 0.685415 0.462747 0
M  V30 14299 H 1364.89 1.68043 0.236538 0
M  V30 14300 H 1363.67 3.81451 0.87241 0
M  V30 14301 H 1363.29 3.13407 2.44667 0
M  V30 14302 N 1364.29 -0.50888 1.49158 0
M  V30 14303 C 1365.24 -1.60799 1.61641 0
M  V30 14304 C 1366.22 -1.53808 0.472434 0
M  V30 14305 O 1367.41 -1.61471 0.724985 0
M  V30 14306 C 1364.54 -2.99444 1.67894 0
M  V30 14307 C 1363.63 -3.1146 2.87843 0
M  V30 14308 N 1364.02 -2.93387 4.12016 0
M  V30 14309 C 1362.32 -3.42549 2.85616 0
M  V30 14310 C 1363.02 -3.09378 4.92606 0
M  V30 14311 N 1361.99 -3.37902 4.2582 0
M  V30 14312 H 1365.8 -1.45468 2.55375 0
M  V30 14313 H 1363.31 -0.714832 1.45822 0
M  V30 14314 H 1365.31 -3.78423 1.74934 0
M  V30 14315 H 1363.97 -3.1585 0.752919 0
M  V30 14316 H 1364.98 -2.69721 4.42121 0
M  V30 14317 H 1361.65 -3.65181 2.02359 0
M  V30 14318 H 1363.04 -2.99964 6.01225 0
M  V30 14319 N 1365.76 -1.381 -0.759346 0
M  V30 14320 C 1366.73 -1.34674 -1.8546 0
M  V30 14321 C 1367.73 -0.248351 -1.58871 0
M  V30 14322 O 1368.92 -0.504915 -1.66722 0
M  V30 14323 C 1366.05 -1.0952 -3.22828 0
M  V30 14324 H 1367.24 -2.3211 -1.89908 0
M  V30 14325 H 1364.8 -1.2331 -0.960435 0
M  V30 14326 H 1365.53 -0.126664 -3.24053 0
M  V30 14327 H 1365.32 -1.89037 -3.43522 0
M  V30 14328 H 1366.81 -1.09804 -4.02906 0
M  V30 14329 N 1367.24 0.986894 -1.22875 0
M  V30 14330 C 1368.17 2.08035 -0.961971 0
M  V30 14331 C 1369.19 1.62683 0.0616475 0
M  V30 14332 O 1370.38 1.77659 -0.173094 0
M  V30 14333 C 1367.48 3.36208 -0.426302 0
M  V30 14334 C 1366.65 4.10562 -1.50856 0
M  V30 14335 C 1365.71 5.17014 -0.97891 0
M  V30 14336 O 1364.73 5.44259 -1.66645 0
M  V30 14337 N 1365.94 5.80167 0.196613 0
M  V30 14338 H 1368.7 2.315 -1.90336 0
M  V30 14339 H 1366.26 1.1531 -1.13645 0
M  V30 14340 H 1368.25 4.0466 -0.0571577 0
M  V30 14341 H 1366.82 3.09761 0.420345 0
M  V30 14342 H 1366.04 3.36656 -2.05076 0
M  V30 14343 H 1367.33 4.57007 -2.23655 0
M  V30 14344 H 1366.73 5.60409 0.771892 0
M  V30 14345 H 1365.29 6.49825 0.507083 0
M  V30 14346 N 1368.72 1.0394 1.18466 0
M  V30 14347 C 1369.68 0.633804 2.20262 0
M  V30 14348 C 1370.68 -0.308136 1.5782 0
M  V30 14349 O 1371.87 -0.0937087 1.73948 0
M  V30 14350 C 1369.01 -0.0709693 3.40826 0
M  V30 14351 H 1370.2 1.53463 2.57661 0
M  V30 14352 H 1367.75 0.831806 1.32328 0
M  V30 14353 H 1368.49 -0.985659 3.08958 0
M  V30 14354 H 1368.27 0.606023 3.87388 0
M  V30 14355 H 1369.76 -0.341298 4.16203 0
M  V30 14356 N 1370.2 -1.34667 0.818693 0
M  V30 14357 C 1371.45 -1.9767 0.401184 0
M  V30 14358 C 1371.76 -1.65644 -1.04027 0
M  V30 14359 O 1372.97 -2.22104 -1.56148 0
M  V30 14360 C 1371.42 -3.53677 0.666398 0
M  V30 14361 C 1371.03 -3.94601 2.12119 0
M  V30 14362 C 1372.77 -4.23331 0.314845 0
M  V30 14363 C 1370.68 -5.43502 2.33151 0
M  V30 14364 H 1369.61 -0.739675 0.146275 0
M  V30 14365 H 1372.26 -1.53568 1.00445 0
M  V30 14366 H 1370.64 -3.95999 -0.00698307 0
M  V30 14367 H 1371.82 -3.63396 2.83338 0
M  V30 14368 H 1370.13 -3.37871 2.43377 0
M  V30 14369 H 1372.73 -5.32804 0.449881 0
M  V30 14370 H 1373.07 -4.09666 -0.740235 0
M  V30 14371 H 1373.61 -3.8647 0.942631 0
M  V30 14372 H 1370.35 -5.62148 3.37149 0
M  V30 14373 H 1369.87 -5.76236 1.66471 0
M  V30 14374 H 1371.54 -6.10127 2.153 0
M  V30 14375 N 1371.68 -0.573274 -1.46804 0
M  V30 14376 C 1372.62 0.165358 -2.30207 0
M  V30 14377 C 1373.59 0.89312 -1.40045 0
M  V30 14378 O 1374.78 0.885653 -1.68999 0
M  V30 14379 C 1371.92 1.17915 -3.2433 0
M  V30 14380 C 1371.03 0.455805 -4.29589 0
M  V30 14381 C 1370.17 1.45629 -5.10848 0
M  V30 14382 C 1369.21 0.718822 -6.07865 0
M  V30 14383 N 1368.34 1.66691 -6.82025 0
M  V30 14384 H 1373.18 -0.551947 -2.92844 0
M  V30 14385 H 1370.72 -0.28401 -1.44332 0
M  V30 14386 H 1372.68 1.77969 -3.77337 0
M  V30 14387 H 1371.31 1.86429 -2.63523 0
M  V30 14388 H 1370.36 -0.259584 -3.79513 0
M  V30 14389 H 1371.67 -0.121161 -4.98653 0
M  V30 14390 H 1370.83 2.1299 -5.68084 0
M  V30 14391 H 1369.56 2.06718 -4.41723 0
M  V30 14392 H 1368.57 0.0313773 -5.49791 0
M  V30 14393 H 1369.79 0.113452 -6.79005 0
M  V30 14394 H 1367.74 2.26608 -6.15617 0
M  V30 14395 H 1367.66 1.14251 -7.47317 0
M  V30 14396 H 1368.93 2.33117 -7.43826 0
M  V30 14397 N 1373.15 1.5451 -0.310553 0
M  V30 14398 C 1374.4 2.00623 0.296343 0
M  V30 14399 C 1374.73 1.19855 1.52802 0
M  V30 14400 O 1374.01 0.277468 1.92511 0
M  V30 14401 C 1374.29 3.54305 0.643448 0
M  V30 14402 C 1374.14 4.45807 -0.598029 0
M  V30 14403 C 1375.46 4.14958 1.46623 0
M  V30 14404 H 1372.58 0.729303 0.106236 0
M  V30 14405 H 1375.22 1.85196 -0.424549 0
M  V30 14406 H 1373.37 3.67581 1.25762 0
M  V30 14407 H 1375.05 4.44421 -1.23643 0
M  V30 14408 H 1373.29 4.16014 -1.22944 0
M  V30 14409 H 1373.96 5.51124 -0.310883 0
M  V30 14410 H 1376.44 4.05176 0.947199 0
M  V30 14411 H 1375.31 5.22627 1.67787 0
M  V30 14412 H 1375.57 3.67445 2.45839 0
M  V30 14413 N 1374.63 0.0384594 1.57553 0
M  V30 14414 C 1375.58 -0.949625 2.07283 0
M  V30 14415 C 1376.57 -1.27973 0.975284 0
M  V30 14416 O 1377.76 -1.26428 1.23875 0
M  V30 14417 C 1374.89 -2.22887 2.61106 0
M  V30 14418 C 1373.97 -1.92672 3.77807 0
M  V30 14419 N 1374.37 -1.32764 4.88065 0
M  V30 14420 C 1372.66 -2.22612 3.86471 0
M  V30 14421 C 1373.36 -1.19892 5.69211 0
M  V30 14422 N 1372.34 -1.69757 5.16414 0
M  V30 14423 H 1376.14 -0.481562 2.89928 0
M  V30 14424 H 1373.66 -0.166321 1.61546 0
M  V30 14425 H 1375.65 -2.94556 2.9503 0
M  V30 14426 H 1374.31 -2.70311 1.79895 0
M  V30 14427 H 1375.32 -1.00146 5.08125 0
M  V30 14428 H 1372 -2.72645 3.16182 0
M  V30 14429 H 1373.39 -0.734892 6.67869 0
M  V30 14430 N 1376.11 -1.55841 -0.234795 0
M  V30 14431 C 1377.34 -1.82307 -0.978355 0
M  V30 14432 C 1377.75 -0.615825 -1.78474 0
M  V30 14433 O 1377.11 0.4156 -1.77705 0
M  V30 14434 C 1377.16 -3.07136 -1.90655 0
M  V30 14435 O 1376.88 -4.23202 -1.13278 0
M  V30 14436 C 1378.38 -3.46492 -2.76511 0
M  V30 14437 H 1375.6 -0.606361 -0.287345 0
M  V30 14438 H 1378.15 -2.02916 -0.254023 0
M  V30 14439 H 1376.3 -2.88542 -2.58501 0
M  V30 14440 H 1376.72 -4.94029 -1.76168 0
M  V30 14441 H 1378.19 -4.36908 -3.37366 0
M  V30 14442 H 1378.67 -2.67633 -3.48238 0
M  V30 14443 H 1379.27 -3.6748 -2.14099 0
M  V30 14444 N 1377.59 0.500963 -1.49426 0
M  V30 14445 C 1378.55 1.58478 -1.65582 0
M  V30 14446 C 1379.55 1.51897 -0.52762 0
M  V30 14447 O 1380.74 1.55049 -0.794071 0
M  V30 14448 C 1377.87 2.9813 -1.65322 0
M  V30 14449 H 1379.07 1.45483 -2.6225 0
M  V30 14450 H 1376.62 0.725199 -1.38458 0
M  V30 14451 H 1377.36 3.16602 -0.702384 0
M  V30 14452 H 1377.14 3.04315 -2.47255 0
M  V30 14453 H 1378.63 3.76874 -1.79878 0
M  V30 14454 N 1379.07 1.38501 0.752011 0
M  V30 14455 C 1380.03 1.35655 1.84744 0
M  V30 14456 C 1381.03 0.256772 1.58737 0
M  V30 14457 O 1382.22 0.513749 1.66452 0
M  V30 14458 C 1379.35 1.11231 3.22243 0
M  V30 14459 H 1380.55 2.33114 1.88674 0
M  V30 14460 H 1378.1 1.23818 0.953882 0
M  V30 14461 H 1378.83 0.143848 3.23981 0
M  V30 14462 H 1378.62 1.90857 3.42515 0
M  V30 14463 H 1380.11 1.11939 4.02318 0
M  V30 14464 N 1380.55 -0.980364 1.23396 0
M  V30 14465 C 1381.48 -2.07099 0.958403 0
M  V30 14466 C 1382.46 -1.62272 -0.1033 0
M  V30 14467 O 1383.64 -1.88475 0.0309639 0
M  V30 14468 C 1380.77 -3.35779 0.443864 0
M  V30 14469 C 1379.81 -3.99545 1.49218 0
M  V30 14470 S 1380.65 -4.3879 3.06958 0
M  V30 14471 C 1381.8 -5.70624 2.57174 0
M  V30 14472 H 1382.04 -2.30154 1.88192 0
M  V30 14473 H 1379.57 -1.11656 1.06641 0
M  V30 14474 H 1381.53 -4.10213 0.153603 0
M  V30 14475 H 1380.19 -3.10732 -0.458738 0
M  V30 14476 H 1379.38 -4.92242 1.0823 0
M  V30 14477 H 1378.98 -3.31489 1.73179 0
M  V30 14478 H 1381.27 -6.47555 1.99197 0
M  V30 14479 H 1382.22 -6.16454 3.48411 0
M  V30 14480 H 1382.63 -5.28626 1.98028 0
M  V30 14481 N 1382.02 -1.04567 -1.17913 0
M  V30 14482 C 1382.97 -0.641119 -2.21717 0
M  V30 14483 C 1383.94 0.353585 -1.62293 0
M  V30 14484 O 1385.13 0.246427 -1.89202 0
M  V30 14485 C 1382.27 -0.0154726 -3.45097 0
M  V30 14486 C 1381.38 -1.05825 -4.18838 0
M  V30 14487 C 1380.51 -0.400588 -5.29687 0
M  V30 14488 C 1379.55 -1.42811 -5.95207 0
M  V30 14489 N 1378.69 -0.795059 -6.97584 0
M  V30 14490 H 1383.53 -1.5308 -2.55676 0
M  V30 14491 H 1381.07 -0.765715 -1.25599 0
M  V30 14492 H 1383.02 0.364653 -4.15603 0
M  V30 14493 H 1381.65 0.837704 -3.11741 0
M  V30 14494 H 1380.71 -1.55627 -3.47109 0
M  V30 14495 H 1382.02 -1.83849 -4.63682 0
M  V30 14496 H 1381.17 0.0334682 -6.06691 0
M  V30 14497 H 1379.91 0.411696 -4.85959 0
M  V30 14498 H 1378.92 -1.87225 -5.1694 0
M  V30 14499 H 1380.14 -2.24218 -6.41017 0
M  V30 14500 H 1378.09 -0.00317202 -6.56 0
M  V30 14501 H 1378 -1.51293 -7.40707 0
M  V30 14502 H 1379.27 -0.385567 -7.78546 0
M  V30 14503 N 1383.5 1.34231 -0.825823 0
M  V30 14504 C 1384.75 1.9849 -0.415891 0
M  V30 14505 C 1385.08 1.6531 1.01913 0
M  V30 14506 O 1384.36 0.926223 1.7103 0
M  V30 14507 C 1384.64 3.54691 -0.621785 0
M  V30 14508 C 1384.49 3.97603 -2.10313 0
M  V30 14509 C 1385.81 4.4006 -0.0595871 0
M  V30 14510 H 1382.93 0.721032 -0.152582 0
M  V30 14511 H 1385.57 1.5908 -1.03892 0
M  V30 14512 H 1383.72 3.88392 -0.0914439 0
M  V30 14513 H 1385.39 3.74221 -2.69733 0
M  V30 14514 H 1383.64 3.47809 -2.59251 0
M  V30 14515 H 1384.31 5.06352 -2.19799 0
M  V30 14516 H 1386.78 4.12929 -0.512743 0
M  V30 14517 H 1385.66 5.48403 -0.233431 0
M  V30 14518 H 1385.92 4.29798 1.03568 0
M  V30 14519 N 1384.98 0.581051 1.46498 0
M  V30 14520 C 1386.23 0.0658652 2.01993 0
M  V30 14521 C 1386.55 -1.29807 1.45516 0
M  V30 14522 O 1385.82 -1.85177 0.639233 0
M  V30 14523 H 1384.4 0.0213584 0.746695 0
M  V30 14524 H 1387.06 0.756456 1.79621 0
M  V30 14525 H 1386.16 -0.00438128 3.121 0
M  V30 14526 N 1386.46 -1.54343 0.318742 0
M  V30 14527 C 1387.39 -2.27118 -0.542206 0
M  V30 14528 C 1388.37 -1.27731 -1.12334 0
M  V30 14529 O 1389.55 -1.56535 -1.14937 0
M  V30 14530 C 1386.68 -3.02535 -1.70558 0
M  V30 14531 C 1385.64 -4.09218 -1.25398 0
M  V30 14532 C 1384.96 -4.72449 -2.50391 0
M  V30 14533 C 1386.26 -5.20971 -0.372332 0
M  V30 14534 H 1387.96 -2.9933 0.0648226 0
M  V30 14535 H 1385.5 -1.43963 0.0326168 0
M  V30 14536 H 1387.46 -3.52174 -2.31412 0
M  V30 14537 H 1386.18 -2.27931 -2.33912 0
M  V30 14538 H 1384.84 -3.60455 -0.668392 0
M  V30 14539 H 1384.49 -3.94466 -3.12099 0
M  V30 14540 H 1384.19 -5.4451 -2.20868 0
M  V30 14541 H 1385.71 -5.2486 -3.12016 0
M  V30 14542 H 1387.13 -5.66396 -0.887029 0
M  V30 14543 H 1385.52 -5.99859 -0.17009 0
M  V30 14544 H 1386.59 -4.81198 0.598064 0
M  V30 14545 N 1387.94 -0.0468143 -1.5753 0
M  V30 14546 C 1389.35 0.309707 -1.56566 0
M  V30 14547 C 1389.55 1.7173 -1.05408 0
M  V30 14548 O 1388.61 2.4235 -0.708723 0
M  V30 14549 C 1389.92 0.142151 -3.00364 0
M  V30 14550 C 1391.47 0.213585 -3.1227 0
M  V30 14551 C 1391.94 0.0746102 -4.57939 0
M  V30 14552 N 1393.43 0.131027 -4.63015 0
M  V30 14553 C 1394.17 0.0475409 -5.7338 0
M  V30 14554 N 1393.67 -0.0880445 -6.92744 0
M  V30 14555 N 1395.46 0.102809 -5.62006 0
M  V30 14556 H 1387.61 -0.967057 -1.89108 0
M  V30 14557 H 1389.87 -0.375018 -0.870669 0
M  V30 14558 H 1389.58 -0.828171 -3.4181 0
M  V30 14559 H 1389.45 0.905006 -3.66182 0
M  V30 14560 H 1391.84 1.17438 -2.70726 0
M  V30 14561 H 1391.92 -0.57995 -2.49139 0
M  V30 14562 H 1391.56 -0.882839 -5.00168 0
M  V30 14563 H 1391.49 0.887235 -5.19072 0
M  V30 14564 H 1393.99 0.235246 -3.77167 0
M  V30 14565 H 1394.3 -0.144574 -7.72665 0
M  V30 14566 H 1392.64 -0.12307 -6.94891 0
M  V30 14567 H 1395.83 0.207259 -4.67641 0
M  V30 14568 H 1396.01 0.0342865 -6.47991 0
M  V30 14569 N 1389.41 1.55964 0.226527 0
M  V30 14570 C 1390.66 1.77944 0.94967 0
M  V30 14571 C 1390.98 0.614478 1.85697 0
M  V30 14572 O 1392.18 0.717793 2.6184 0
M  V30 14573 C 1390.64 3.15108 1.73881 0
M  V30 14574 C 1390.25 4.39314 0.877894 0
M  V30 14575 C 1391.99 3.46418 2.45347 0
M  V30 14576 C 1389.9 5.67505 1.6641 0
M  V30 14577 H 1388.83 0.663412 0.35833 0
M  V30 14578 H 1391.48 1.82366 0.203695 0
M  V30 14579 H 1389.86 3.04849 2.52751 0
M  V30 14580 H 1391.03 4.60616 0.130089 0
M  V30 14581 H 1389.35 4.15487 0.2756 0
M  V30 14582 H 1391.95 4.39416 3.0466 0
M  V30 14583 H 1392.29 2.68685 3.17985 0
M  V30 14584 H 1392.82 3.57984 1.73471 0
M  V30 14585 H 1389.56 6.48116 0.981089 0
M  V30 14586 H 1389.08 5.50272 2.38665 0
M  V30 14587 H 1390.76 6.075 2.22605 0
M  V30 14588 N 1390.89 -0.493031 1.4969 0
M  V30 14589 C 1392.14 -1.24849 1.59814 0
M  V30 14590 C 1392.47 -1.92059 0.287555 0
M  V30 14591 O 1391.75 -1.81099 -0.709471 0
M  V30 14592 C 1392.03 -2.30929 2.76304 0
M  V30 14593 C 1391.88 -1.68167 4.17181 0
M  V30 14594 C 1393.2 -3.32427 2.8841 0
M  V30 14595 H 1390.32 -0.452553 0.581691 0
M  V30 14596 H 1392.96 -0.545455 1.82002 0
M  V30 14597 H 1391.11 -2.9089 2.57517 0
M  V30 14598 H 1392.78 -1.11971 4.47504 0
M  V30 14599 H 1391.03 -0.985496 4.22458 0
M  V30 14600 H 1391.7 -2.45148 4.94577 0
M  V30 14601 H 1394.17 -2.82464 3.05537 0
M  V30 14602 H 1393.05 -4.04004 3.71581 0
M  V30 14603 H 1393.31 -3.95234 1.98097 0
M  V30 14604 N 1392.37 -1.38898 -0.744656 0
M  V30 14605 C 1393.6 -1.38647 -1.53169 0
M  V30 14606 C 1394.01 0.0233199 -1.89186 0
M  V30 14607 O 1393.35 1.00261 -1.53927 0
M  V30 14608 C 1393.41 -2.18615 -2.85391 0
M  V30 14609 C 1393.08 -3.67342 -2.71862 0
M  V30 14610 C 1394.07 -4.60638 -2.41057 0
M  V30 14611 C 1391.76 -4.10809 -2.89035 0
M  V30 14612 C 1393.75 -5.95383 -2.27592 0
M  V30 14613 C 1391.44 -5.45632 -2.7519 0
M  V30 14614 C 1392.44 -6.37733 -2.44512 0
M  V30 14615 O 1392.13 -7.70074 -2.30741 0
M  V30 14616 H 1391.86 -0.475741 -0.480257 0
M  V30 14617 H 1394.41 -1.8321 -0.928621 0
M  V30 14618 H 1392.64 -1.68784 -3.47921 0
M  V30 14619 H 1394.33 -2.1066 -3.46954 0
M  V30 14620 H 1395.1 -4.28359 -2.2745 0
M  V30 14621 H 1390.98 -3.39462 -3.11908 0
M  V30 14622 H 1394.52 -6.67237 -2.03569 0
M  V30 14623 H 1390.42 -5.77504 -2.88373 0
M  V30 14624 H 1391.19 -7.80694 -2.45885 0
M  V30 14625 N 1393.85 0.973806 -1.23914 0
M  V30 14626 C 1395.1 1.71259 -1.07307 0
M  V30 14627 C 1395.42 1.91064 0.389831 0
M  V30 14628 O 1394.69 1.48401 1.27883 0
M  V30 14629 H 1393.27 0.634588 -0.39409 0
M  V30 14630 H 1395.93 1.17184 -1.55737 0
M  V30 14631 H 1395.03 2.69953 -1.56626 0
M  V30 14632 N 1395.33 1.05191 1.17357 0
M  V30 14633 C 1396.27 0.646796 2.23426 0
M  V30 14634 C 1397.27 -0.331918 1.66116 0
M  V30 14635 O 1398.47 -0.197982 1.78908 0
M  V30 14636 H 1394.85 0.190988 0.727343 0
M  V30 14637 H 1396.82 1.55152 2.54893 0
M  V30 14638 C 1395.57 0.037505 3.4768 0
M  V30 14639 H 1394.89 0.781686 3.92084 0
M  V30 14640 H 1396.33 -0.20858 4.23487 0
M  V30 14641 C 1394.79 -1.21581 3.14197 0
M  V30 14642 O 1395.32 -2.3052 3.28973 0
M  V30 14643 N 1393.53 -1.11346 2.68422 0
M  V30 14644 H 1393.07 -0.226943 2.56598 0
M  V30 14645 H 1393.03 -1.95291 2.46392 0
M  V30 14646 N 1396.8 -1.33791 0.83293 0
M  V30 14647 C 1398.03 -2.02187 0.439077 0
M  V30 14648 C 1398.45 -1.62692 -0.957958 0
M  V30 14649 O 1397.8 -0.837302 -1.62159 0
M  V30 14650 C 1397.86 -3.57395 0.543232 0
M  V30 14651 O 1397.58 -3.95463 1.88522 0
M  V30 14652 C 1399.08 -4.43061 0.145567 0
M  V30 14653 H 1396.3 -0.64778 0.174992 0
M  V30 14654 H 1398.84 -1.7085 1.12386 0
M  V30 14655 H 1397 -3.87287 -0.0935746 0
M  V30 14656 H 1397.41 -4.90164 1.86653 0
M  V30 14657 H 1398.88 -5.51342 0.269507 0
M  V30 14658 H 1399.36 -4.29628 -0.911934 0
M  V30 14659 H 1399.97 -4.18517 0.756572 0
M  V30 14660 N 1398.28 -0.588812 -1.46187 0
M  V30 14661 C 1399.51 -0.0825301 -2.06735 0
M  V30 14662 C 1399.93 1.22507 -1.43658 0
M  V30 14663 O 1399.28 1.74203 -0.544022 0
M  V30 14664 C 1399.33 0.083501 -3.61404 0
M  V30 14665 O 1399.05 -1.17235 -4.22123 0
M  V30 14666 C 1400.56 0.623425 -4.38894 0
M  V30 14667 H 1397.78 -0.0602413 -0.66829 0
M  V30 14668 H 1400.32 -0.811215 -1.87722 0
M  V30 14669 H 1398.47 0.762432 -3.79823 0
M  V30 14670 H 1398.89 -0.990047 -5.15071 0
M  V30 14671 H 1400.36 0.688755 -5.47686 0
M  V30 14672 H 1400.84 1.64172 -4.07362 0
M  V30 14673 H 1401.45 -0.0208373 -4.25295 0
M  V30 14674 N 1399.76 1.54172 -0.326923 0
M  V30 14675 C 1400.99 2.05512 0.279231 0
M  V30 14676 C 1401.41 1.20131 1.44741 0
M  V30 14677 O 1400.77 0.211191 1.80066 0
M  V30 14678 C 1400.82 3.53971 0.688263 0
M  V30 14679 O 1399.92 3.71516 1.79025 0
M  V30 14680 H 1399.26 0.662131 0.0497826 0
M  V30 14681 H 1401.79 1.98979 -0.476309 0
M  V30 14682 H 1401.8 3.96302 0.970002 0
M  V30 14683 H 1400.48 4.15568 -0.166132 0
M  V30 14684 H 1399.05 3.4109 1.50706 0
M  V30 14685 N 1401.24 0.0551678 1.57503 0
M  V30 14686 C 1402.49 -0.61772 1.92848 0
M  V30 14687 C 1402.81 -1.70614 0.933862 0
M  V30 14688 O 1402.07 -1.95628 -0.0532073 0
M  V30 14689 C 1402.37 -1.24895 3.34867 0
M  V30 14690 C 1402.03 -0.288325 4.49977 0
M  V30 14691 C 1400.7 -0.0240016 4.81194 0
M  V30 14692 C 1403.05 0.369804 5.19886 0
M  V30 14693 C 1400.38 0.905818 5.79665 0
M  V30 14694 C 1402.73 1.28784 6.19352 0
M  V30 14695 C 1401.39 1.5608 6.48996 0
M  V30 14696 H 1400.66 -0.22604 0.705682 0
M  V30 14697 H 1403.31 0.1225 1.91108 0
M  V30 14698 H 1401.61 -2.06452 3.32993 0
M  V30 14699 H 1403.31 -1.77659 3.59497 0
M  V30 14700 H 1399.9 -0.504524 4.2562 0
M  V30 14701 H 1404.08 0.178689 4.95978 0
M  V30 14702 H 1399.34 1.12472 6.00966 0
M  V30 14703 H 1403.51 1.80385 6.72632 0
M  V30 14704 H 1401.14 2.28292 7.25112 0
M  V30 14705 N 1402.72 -1.56081 -0.218252 0
M  V30 14706 C 1403.65 -1.95706 -1.27364 0
M  V30 14707 C 1404.63 -0.825731 -1.48713 0
M  V30 14708 O 1405.81 -1.08829 -1.60841 0
M  V30 14709 C 1402.94 -2.2766 -2.62275 0
M  V30 14710 C 1401.9 -3.43314 -2.55576 0
M  V30 14711 C 1401.22 -3.60883 -3.94547 0
M  V30 14712 C 1402.52 -4.7819 -2.10075 0
M  V30 14713 H 1404.22 -2.84113 -0.944459 0
M  V30 14714 H 1401.76 -1.36693 -0.452882 0
M  V30 14715 H 1403.72 -2.53973 -3.36268 0
M  V30 14716 H 1402.44 -1.3611 -2.96887 0
M  V30 14717 H 1401.1 -3.17056 -1.8404 0
M  V30 14718 H 1400.75 -2.66703 -4.26472 0
M  V30 14719 H 1400.45 -4.38674 -3.90946 0
M  V30 14720 H 1401.97 -3.89547 -4.70197 0
M  V30 14721 H 1403.38 -5.03686 -2.73813 0
M  V30 14722 H 1401.78 -5.59287 -2.17527 0
M  V30 14723 H 1402.85 -4.73325 -1.05314 0
M  V30 14724 N 1404.2 0.485086 -1.49949 0
M  V30 14725 C 1405.47 1.24639 -1.50747 0
M  V30 14726 C 1405.85 2.09683 -0.244162 0
M  V30 14727 O 1405.2 2.1503 0.772949 0
M  V30 14728 C 1405.41 2.08946 -2.7954 0
M  V30 14729 C 1406.76 2.67604 -3.29656 0
M  V30 14730 O 1407.78 2.192 -2.80766 0
M  V30 14731 O 1406.64 3.55761 -4.14845 0
M  V30 14732 H 1403.74 0.564849 -0.604049 0
M  V30 14733 H 1406.28 0.498052 -1.62227 0
M  V30 14734 H 1405.05 1.46185 -3.62968 0
M  V30 14735 H 1404.68 2.90941 -2.70997 0
M  V30 14736 N 1405.67 1.39291 0.737279 0
M  V30 14737 C 1406.92 1.36592 1.49901 0
M  V30 14738 C 1407.25 -0.0388812 1.94161 0
M  V30 14739 O 1406.53 -1.00337 1.66622 0
M  V30 14740 C 1406.81 2.33625 2.74028 0
M  V30 14741 C 1406.66 3.83037 2.35802 0
M  V30 14742 C 1407.98 2.28524 3.76118 0
M  V30 14743 H 1405.1 0.497482 0.543765 0
M  V30 14744 H 1407.74 1.70265 0.843193 0
M  V30 14745 H 1405.89 2.0504 3.29986 0
M  V30 14746 H 1407.57 4.22363 1.85493 0
M  V30 14747 H 1405.81 3.99924 1.68058 0
M  V30 14748 H 1406.48 4.46415 3.24681 0
M  V30 14749 H 1408.96 2.53794 3.29739 0
M  V30 14750 H 1407.83 2.98501 4.60639 0
M  V30 14751 H 1408.09 1.28949 4.22876 0
M  V30 14752 N 1407.15 -0.967221 1.24429 0
M  V30 14753 C 1408.38 -1.74267 1.10972 0
M  V30 14754 C 1408.79 -1.8611 -0.340522 0
M  V30 14755 O 1408.13 -1.34915 -1.24674 0
M  V30 14756 C 1408.19 -3.18035 1.67613 0
M  V30 14757 C 1407.86 -3.29661 3.16501 0
M  V30 14758 C 1408.86 -3.14952 4.13644 0
M  V30 14759 C 1406.54 -3.53886 3.56469 0
M  V30 14760 C 1408.53 -3.24294 5.48737 0
M  V30 14761 C 1406.22 -3.62866 4.91703 0
M  V30 14762 C 1407.22 -3.48082 5.87646 0
M  V30 14763 O 1406.91 -3.56719 7.20421 0
M  V30 14764 H 1406.64 -0.553293 0.388384 0
M  V30 14765 H 1409.19 -1.22295 1.65025 0
M  V30 14766 H 1407.42 -3.71314 1.07994 0
M  V30 14767 H 1409.11 -3.7739 1.49438 0
M  V30 14768 H 1409.88 -2.9612 3.84107 0
M  V30 14769 H 1405.76 -3.64459 2.82295 0
M  V30 14770 H 1409.3 -3.12672 6.23604 0
M  V30 14771 H 1405.2 -3.81212 5.20911 0
M  V30 14772 H 1405.97 -3.73431 7.28349 0
M  V30 14773 N 1408.63 -1.05812 -1.16797 0
M  V30 14774 C 1409.88 -0.773066 -1.87487 0
M  V30 14775 C 1410.21 0.698471 -1.81204 0
M  V30 14776 O 1409.48 1.51129 -1.22434 0
M  V30 14777 C 1409.77 -1.2621 -3.37258 0
M  V30 14778 C 1409.62 -2.79704 -3.52258 0
M  V30 14779 C 1410.94 -0.866104 -4.31494 0
M  V30 14780 H 1408.06 -0.282304 -0.680789 0
M  V30 14781 H 1410.7 -1.3132 -1.37314 0
M  V30 14782 H 1408.85 -0.802608 -3.80119 0
M  V30 14783 H 1410.52 -3.33824 -3.1837 0
M  V30 14784 H 1408.76 -3.18673 -2.94329 0
M  V30 14785 H 1409.44 -3.08985 -4.57419 0
M  V30 14786 H 1411.91 -1.26178 -3.96508 0
M  V30 14787 H 1410.79 -1.23581 -5.34807 0
M  V30 14788 H 1411.05 0.229391 -4.41504 0
M  V30 14789 N 1410.11 1.33347 -0.840014 0
M  V30 14790 C 1411.06 2.31113 -0.262617 0
M  V30 14791 C 1412.05 1.58189 0.606023 0
M  V30 14792 O 1413.26 1.73047 0.495457 0
M  V30 14793 H 1409.63 0.74908 -0.0662003 0
M  V30 14794 H 1411.6 2.77318 -1.10169 0
M  V30 14795 C 1410.35 3.43377 0.54658 0
M  V30 14796 H 1409.67 3.99642 -0.112514 0
M  V30 14797 H 1411.11 4.13978 0.91641 0
M  V30 14798 C 1409.57 2.89333 1.72592 0
M  V30 14799 O 1410.1 2.85615 2.82466 0
M  V30 14800 N 1408.31 2.45926 1.54819 0
M  V30 14801 H 1407.86 2.49149 0.654404 0
M  V30 14802 H 1407.81 2.10119 2.33875 0
M  V30 14803 N 1411.59 0.596556 1.45873 0
M  V30 14804 C 1412.83 0.0872856 2.01911 0
M  V30 14805 C 1413.15 -1.28257 1.46885 0
M  V30 14806 O 1412.42 -1.84489 0.658837 0
M  V30 14807 H 1411 0.0292769 0.746426 0
M  V30 14808 H 1413.67 0.775464 1.78809 0
M  V30 14809 H 1412.76 0.0287213 3.12087 0
M  V30 14810 N 1413.06 -1.53996 0.335095 0
M  V30 14811 C 1414.31 -2.01069 -0.264388 0
M  V30 14812 C 1414.64 -1.22271 -1.50876 0
M  V30 14813 O 1413.92 -0.30806 -1.92045 0
M  V30 14814 C 1414.2 -3.55283 -0.587 0
M  V30 14815 C 1414.05 -4.44799 0.668877 0
M  V30 14816 C 1415.37 -4.17238 -1.40003 0
M  V30 14817 H 1412.49 -0.730901 -0.0946202 0
M  V30 14818 H 1415.13 -1.84497 0.453958 0
M  V30 14819 H 1413.28 -3.69536 -1.19899 0
M  V30 14820 H 1414.96 -4.42398 1.30698 0
M  V30 14821 H 1413.2 -4.14005 1.29547 0
M  V30 14822 H 1413.87 -5.5056 0.398523 0
M  V30 14823 H 1416.35 -4.06631 -0.88262 0
M  V30 14824 H 1415.22 -5.2523 -1.59451 0
M  V30 14825 H 1415.48 -3.71309 -2.39962 0
M  V30 14826 N 1414.54 -0.0635198 -1.57472 0
M  V30 14827 C 1415.77 0.616735 -1.97494 0
M  V30 14828 C 1416.18 1.63646 -0.941568 0
M  V30 14829 O 1415.54 1.82355 0.0727768 0
M  V30 14830 C 1415.59 1.29268 -3.37597 0
M  V30 14831 O 1415.31 0.313781 -4.36975 0
M  V30 14832 C 1416.81 2.06154 -3.92448 0
M  V30 14833 H 1414.03 0.167753 -0.649692 0
M  V30 14834 H 1416.58 -0.133475 -2.04064 0
M  V30 14835 H 1414.73 1.99404 -3.3214 0
M  V30 14836 H 1415.15 0.797723 -5.18398 0
M  V30 14837 H 1416.62 2.48853 -4.92723 0
M  V30 14838 H 1417.1 2.91474 -3.28541 0
M  V30 14839 H 1417.7 1.40903 -4.01281 0
M  V30 14840 N 1416.02 1.56195 0.209972 0
M  V30 14841 C 1417.43 1.69811 0.775969 0
M  V30 14842 C 1417.78 0.667543 1.84495 0
M  V30 14843 O 1416.91 -0.179043 2.15658 0
M  V30 14844 C 1417.5 3.07869 1.41429 0
M  V30 14845 C 1416.06 3.233 1.92755 0
M  V30 14846 C 1415.21 2.6575 0.791958 0
M  V30 14847 H 1418.16 1.58693 -0.0148727 0
M  V30 14848 H 1418.18 3.04371 2.28339 0
M  V30 14849 H 1417.69 3.82853 0.63604 0
M  V30 14850 H 1415.79 2.53206 2.73345 0
M  V30 14851 H 1415.91 4.30645 2.09956 0
M  V30 14852 H 1414.27 2.24535 1.20234 0
M  V30 14853 H 1415.05 3.4329 0.0261877 0
M  V30 14854 N 1417.5 -0.477127 1.50204 0
M  V30 14855 C 1418.75 -1.22722 1.60573 0
M  V30 14856 C 1419.07 -1.92595 0.305326 0
M  V30 14857 O 1418.34 -1.83836 -0.676842 0
M  V30 14858 H 1416.92 -0.455973 0.591691 0
M  V30 14859 H 1419.58 -0.550915 1.86952 0
M  V30 14860 H 1418.67 -1.97837 2.41385 0
M  V30 14861 N 1418.98 -1.3968 -0.729882 0
M  V30 14862 C 1420.2 -1.40467 -1.5191 0
M  V30 14863 C 1420.62 -0.000529943 -1.888 0
M  V30 14864 O 1419.98 0.972072 -1.54457 0
M  V30 14865 C 1420.03 -2.2823 -2.80345 0
M  V30 14866 O 1419.75 -3.63176 -2.4502 0
M  V30 14867 C 1421.25 -2.37455 -3.74339 0
M  V30 14868 H 1418.47 -0.479604 -0.469277 0
M  V30 14869 H 1421.01 -1.83558 -0.901484 0
M  V30 14870 H 1419.17 -1.88538 -3.38426 0
M  V30 14871 H 1419.58 -4.0964 -3.2756 0
M  V30 14872 H 1421.06 -3.031 -4.6134 0
M  V30 14873 H 1421.53 -1.39525 -4.16449 0
M  V30 14874 H 1422.14 -2.77638 -3.22176 0
M  V30 14875 N 1420.45 0.960609 -1.2494 0
M  V30 14876 C 1421.68 1.7446 -1.12153 0
M  V30 14877 C 1422.1 1.85335 0.321315 0
M  V30 14878 O 1421.46 1.32944 1.23271 0
M  V30 14879 C 1421.51 3.13945 -1.774 0
M  V30 14880 O 1420.61 3.9882 -1.04958 0
M  V30 14881 H 1419.96 0.536007 -0.391909 0
M  V30 14882 H 1422.49 1.2045 -1.65388 0
M  V30 14883 H 1422.5 3.64434 -1.83444 0
M  V30 14884 H 1421.17 3.05346 -2.82377 0
M  V30 14885 H 1419.75 3.57293 -1.06752 0
M  V30 14886 N 1421.93 1.0643 1.16234 0
M  V30 14887 C 1422.88 0.676311 2.20669 0
M  V30 14888 C 1423.85 -0.327721 1.62835 0
M  V30 14889 O 1425.03 -0.216296 1.8957 0
M  V30 14890 C 1422.17 0.0703726 3.45028 0
M  V30 14891 C 1421.29 1.12475 4.17101 0
M  V30 14892 C 1420.42 0.484806 5.28983 0
M  V30 14893 C 1419.46 1.52262 5.9286 0
M  V30 14894 N 1418.6 0.905938 6.96231 0
M  V30 14895 H 1423.44 1.57129 2.53209 0
M  V30 14896 H 1420.98 0.7856 1.24365 0
M  V30 14897 H 1422.93 -0.298488 4.16131 0
M  V30 14898 H 1421.56 -0.788002 3.13034 0
M  V30 14899 H 1420.62 1.6113 3.44589 0
M  V30 14900 H 1421.93 1.91202 4.60698 0
M  V30 14901 H 1421.08 0.0630553 6.06667 0
M  V30 14902 H 1419.82 -0.334332 4.86553 0
M  V30 14903 H 1418.83 1.95425 5.13896 0
M  V30 14904 H 1420.05 2.34388 6.37369 0
M  V30 14905 H 1418 0.107536 6.55912 0
M  V30 14906 H 1417.91 1.63058 7.38206 0
M  V30 14907 H 1419.18 0.509378 7.77834 0
M  V30 14908 N 1423.41 -1.329 0.847073 0
M  V30 14909 C 1424.69 -1.921 0.368351 0
M  V30 14910 C 1425.07 -1.77205 -1.14724 0
M  V30 14911 O 1424.42 -1.16547 -1.96543 0
M  V30 14912 C 1424.63 -3.39125 0.824326 0
M  V30 14913 C 1425.97 -4.16267 0.837097 0
M  V30 14914 O 1427 -3.47812 0.768466 0
M  V30 14915 O 1425.86 -5.38487 0.932389 0
M  V30 14916 H 1422.95 -0.820187 0.105936 0
M  V30 14917 H 1425.5 -1.41719 0.933471 0
M  V30 14918 H 1424.27 -3.43875 1.86723 0
M  V30 14919 H 1423.89 -3.96898 0.236233 0
M  V30 14920 N 1424.89 -0.604284 -1.45555 0
M  V30 14921 C 1425.82 0.103859 -2.33269 0
M  V30 14922 C 1426.8 0.862104 -1.46635 0
M  V30 14923 O 1427.98 0.833308 -1.75413 0
M  V30 14924 C 1425.11 1.104 -3.29286 0
M  V30 14925 C 1424.07 0.459189 -4.2553 0
M  V30 14926 C 1423.39 1.56734 -5.11213 0
M  V30 14927 C 1424.69 -0.617509 -5.18637 0
M  V30 14928 H 1426.39 -0.628538 -2.92728 0
M  V30 14929 H 1423.93 -0.303711 -1.40761 0
M  V30 14930 H 1425.89 1.60794 -3.89517 0
M  V30 14931 H 1424.61 1.86695 -2.67979 0
M  V30 14932 H 1423.27 -0.0238508 -3.66592 0
M  V30 14933 H 1422.92 2.32049 -4.46276 0
M  V30 14934 H 1422.62 1.14142 -5.76407 0
M  V30 14935 H 1424.14 2.07361 -5.74312 0
M  V30 14936 H 1425.56 -0.197784 -5.72959 0
M  V30 14937 H 1423.95 -0.96499 -5.9229 0
M  V30 14938 H 1425.02 -1.49541 -4.61265 0
M  V30 14939 N 1426.37 1.53816 -0.343257 0
M  V30 14940 C 1427.31 2.25011 0.513664 0
M  V30 14941 C 1428.28 1.24827 1.09578 0
M  V30 14942 O 1429.47 1.53558 1.13245 0
M  V30 14943 C 1426.61 3.02616 1.65885 0
M  V30 14944 C 1425.72 4.17653 1.10406 0
M  V30 14945 C 1424.86 4.82746 2.21653 0
M  V30 14946 C 1423.9 5.89853 1.63524 0
M  V30 14947 N 1423.03 6.48726 2.68512 0
M  V30 14948 H 1427.87 2.97832 -0.099997 0
M  V30 14949 H 1425.41 1.46973 -0.0611206 0
M  V30 14950 H 1427.37 3.45868 2.33304 0
M  V30 14951 H 1426 2.32092 2.2435 0
M  V30 14952 H 1425.05 3.79045 0.320819 0
M  V30 14953 H 1426.36 4.94691 0.638887 0
M  V30 14954 H 1425.52 5.29068 2.96938 0
M  V30 14955 H 1424.25 4.05131 2.71515 0
M  V30 14956 H 1423.26 5.42914 0.86745 0
M  V30 14957 H 1424.48 6.69375 1.14515 0
M  V30 14958 H 1422.43 5.73975 3.17629 0
M  V30 14959 H 1422.35 7.21236 2.26616 0
M  V30 14960 H 1423.62 6.99701 3.43567 0
M  V30 14961 N 1427.84 0.0718701 1.57436 0
M  V30 14962 C 1429.09 -0.598116 1.93779 0
M  V30 14963 C 1429.42 -1.69258 0.952131 0
M  V30 14964 O 1428.7 -1.94491 -0.0186426 0
M  V30 14965 C 1428.98 -1.17499 3.40391 0
M  V30 14966 C 1428.83 -0.0871719 4.49716 0
M  V30 14967 C 1430.15 -2.08047 3.8782 0
M  V30 14968 H 1427.27 -0.215954 0.704651 0
M  V30 14969 H 1429.91 0.137854 1.89499 0
M  V30 14970 H 1428.06 -1.80221 3.44169 0
M  V30 14971 H 1429.74 0.545906 4.58058 0
M  V30 14972 H 1427.98 0.582213 4.29875 0
M  V30 14973 H 1428.65 -0.531202 5.49438 0
M  V30 14974 H 1431.13 -1.5526 3.86049 0
M  V30 14975 H 1430 -2.45345 4.91016 0
M  V30 14976 H 1430.26 -2.98879 3.25766 0
M  V30 14977 N 1429.32 -1.56304 -0.201686 0
M  V30 14978 C 1430.57 -1.79433 -0.921241 0
M  V30 14979 C 1430.88 -0.643943 -1.84696 0
M  V30 14980 O 1432.09 -0.759359 -2.60665 0
M  V30 14981 C 1430.55 -3.17835 -1.68846 0
M  V30 14982 C 1430.15 -4.40655 -0.807892 0
M  V30 14983 C 1431.9 -3.50277 -2.39805 0
M  V30 14984 C 1429.81 -5.7008 -1.5736 0
M  V30 14985 H 1428.74 -0.669029 -0.34773 0
M  V30 14986 H 1431.39 -1.82667 -0.174657 0
M  V30 14987 H 1429.77 -3.08832 -2.47869 0
M  V30 14988 H 1430.94 -4.60765 -0.0567923 0
M  V30 14989 H 1429.26 -4.15873 -0.209465 0
M  V30 14990 H 1431.85 -4.44207 -2.97631 0
M  V30 14991 H 1432.2 -2.7371 -3.1367 0
M  V30 14992 H 1432.73 -3.60698 -1.67754 0
M  V30 14993 H 1429.47 -6.49595 -0.877855 0
M  V30 14994 H 1428.99 -5.53999 -2.2988 0
M  V30 14995 H 1430.67 -6.10964 -2.12912 0
M  V30 14996 N 1430.8 0.469154 -1.50455 0
M  V30 14997 C 1431.76 1.5493 -1.68906 0
M  V30 14998 C 1432.76 1.50744 -0.559721 0
M  V30 14999 O 1433.95 1.5333 -0.826781 0
M  V30 15000 C 1431.09 2.94556 -1.71609 0
M  V30 15001 H 1432.28 1.39887 -2.65276 0
M  V30 15002 H 1429.83 0.695667 -1.39965 0
M  V30 15003 H 1430.57 3.15041 -0.769382 0
M  V30 15004 H 1430.35 2.99002 -2.53654 0
M  V30 15005 H 1431.84 3.72973 -1.87831 0
M  V30 15006 N 1432.28 1.40065 0.722464 0
M  V30 15007 C 1433.53 1.37698 1.47932 0
M  V30 15008 C 1433.85 -0.0222608 1.94987 0
M  V30 15009 O 1433.12 -0.975795 1.69868 0
M  V30 15010 H 1431.7 0.506766 0.548815 0
M  V30 15011 H 1434.36 1.75053 0.856884 0
M  V30 15012 H 1433.46 2.04756 2.35545 0
M  V30 15013 N 1433.76 -0.95397 1.25448 0
M  V30 15014 C 1435.17 -1.51337 1.09335 0
M  V30 15015 C 1435.52 -1.93393 -0.330698 0
M  V30 15016 O 1434.64 -1.78681 -1.22074 0
M  V30 15017 C 1435.24 -2.75024 1.97857 0
M  V30 15018 C 1433.8 -3.27274 1.85927 0
M  V30 15019 C 1432.95 -2.00108 1.91969 0
M  V30 15020 H 1435.9 -0.770795 1.38724 0
M  V30 15021 H 1435.92 -3.48867 1.51894 0
M  V30 15022 H 1435.43 -2.44383 3.01494 0
M  V30 15023 H 1433.53 -3.62734 0.851767 0
M  V30 15024 H 1433.64 -3.95245 2.70773 0
M  V30 15025 H 1432.01 -2.15438 1.35862 0
M  V30 15026 H 1432.79 -1.71816 2.97211 0
M  V30 15027 N 1435.24 -1.07045 -1.15668 0
M  V30 15028 C 1436.48 -0.786751 -1.85723 0
M  V30 15029 C 1436.8 0.689604 -1.83041 0
M  V30 15030 O 1438 1.08796 -2.48748 0
M  V30 15031 C 1436.46 -1.35729 -3.33325 0
M  V30 15032 C 1436.07 -2.86444 -3.44462 0
M  V30 15033 C 1437.81 -1.15148 -4.08584 0
M  V30 15034 C 1435.72 -3.36705 -4.86193 0
M  V30 15035 H 1434.65 -0.29063 -0.695737 0
M  V30 15036 H 1437.3 -1.29012 -1.30492 0
M  V30 15037 H 1435.68 -0.781671 -3.88209 0
M  V30 15038 H 1436.86 -3.50023 -2.997 0
M  V30 15039 H 1435.17 -3.0578 -2.82644 0
M  V30 15040 H 1437.77 -1.50179 -5.13177 0
M  V30 15041 H 1438.11 -0.0903159 -4.16202 0
M  V30 15042 H 1438.64 -1.6933 -3.59962 0
M  V30 15043 H 1435.38 -4.42333 -4.83758 0
M  V30 15044 H 1434.9 -2.77877 -5.31549 0
M  V30 15045 H 1436.58 -3.32478 -5.55038 0
M  V30 15046 N 1436.71 1.32449 -0.85411 0
M  V30 15047 C 1437.94 2.01997 -0.470307 0
M  V30 15048 C 1438.36 1.63772 0.925225 0
M  V30 15049 O 1437.72 0.838089 1.60766 0
M  V30 15050 C 1437.77 3.55294 -0.616301 0
M  V30 15051 O 1436.87 4.10902 0.351133 0
M  V30 15052 H 1436.21 0.63651 -0.189079 0
M  V30 15053 H 1438.74 1.69008 -1.15315 0
M  V30 15054 H 1438.75 4.0488 -0.503624 0
M  V30 15055 H 1437.43 3.82459 -1.63396 0
M  V30 15056 H 1436.01 3.72391 0.194741 0
M  V30 15057 N 1438.19 0.611994 1.45232 0
M  V30 15058 C 1439.15 -0.0943825 2.29006 0
M  V30 15059 C 1440.15 -0.790863 1.40007 0
M  V30 15060 O 1441.34 -0.638356 1.62082 0
M  V30 15061 C 1438.48 -1.1439 3.21135 0
M  V30 15062 H 1439.67 0.6422 2.92943 0
M  V30 15063 H 1437.22 0.37124 1.51827 0
M  V30 15064 H 1437.96 -1.9111 2.62007 0
M  V30 15065 H 1437.74 -0.648638 3.86698 0
M  V30 15066 H 1439.23 -1.63848 3.84114 0
M  V30 15067 N 1439.67 -1.53632 0.351409 0
M  V30 15068 C 1440.89 -2.0593 -0.246501 0
M  V30 15069 C 1441.32 -1.22419 -1.42812 0
M  V30 15070 O 1440.68 -0.239811 -1.79707 0
M  V30 15071 C 1440.73 -3.55021 -0.631862 0
M  V30 15072 O 1439.83 -3.74317 -1.73092 0
M  V30 15073 H 1439.17 -0.662839 -0.0392424 0
M  V30 15074 H 1441.7 -1.98196 0.507904 0
M  V30 15075 H 1441.71 -3.97795 -0.906831 0
M  V30 15076 H 1440.39 -4.15251 0.232224 0
M  V30 15077 H 1438.96 -3.43444 -1.4526 0
M  V30 15078 N 1441.15 -0.0802183 -1.57396 0
M  V30 15079 C 1442.39 0.586962 -1.93807 0
M  V30 15080 C 1442.72 1.69107 -0.960887 0
M  V30 15081 O 1441.98 1.95688 0.0220779 0
M  V30 15082 C 1442.28 1.19551 -3.36812 0
M  V30 15083 C 1441.94 0.216701 -4.50379 0
M  V30 15084 C 1440.6 -0.0525552 -4.81171 0
M  V30 15085 C 1442.96 -0.452467 -5.19232 0
M  V30 15086 C 1440.28 -0.997923 -5.78151 0
M  V30 15087 C 1442.64 -1.38621 -6.17225 0
M  V30 15088 C 1441.3 -1.66385 -6.4643 0
M  V30 15089 H 1440.57 0.214785 -0.709189 0
M  V30 15090 H 1443.22 -0.152888 -1.90889 0
M  V30 15091 H 1441.52 2.01129 -3.36236 0
M  V30 15092 H 1443.22 1.71918 -3.62278 0
M  V30 15093 H 1439.81 0.436747 -4.26369 0
M  V30 15094 H 1443.99 -0.257573 -4.95631 0
M  V30 15095 H 1439.25 -1.22019 -5.991 0
M  V30 15096 H 1443.42 -1.91063 -6.69677 0
M  V30 15097 H 1441.05 -2.39799 -7.21388 0
M  V30 15098 N 1442.63 1.56409 0.193394 0
M  V30 15099 C 1443.85 1.84837 0.929676 0
M  V30 15100 C 1444.27 0.662928 1.76779 0
M  V30 15101 O 1443.63 -0.368339 1.78744 0
M  V30 15102 C 1443.68 3.12083 1.82445 0
M  V30 15103 O 1443.4 4.26056 1.02018 0
M  V30 15104 C 1444.9 3.53701 2.67227 0
M  V30 15105 H 1442.12 0.613766 0.271168 0
M  V30 15106 H 1444.66 2.03518 0.200134 0
M  V30 15107 H 1442.82 2.95294 2.5076 0
M  V30 15108 H 1443.23 4.98526 1.63008 0
M  V30 15109 H 1444.71 4.45699 3.25663 0
M  V30 15110 H 1445.18 2.76771 3.41019 0
M  V30 15111 H 1445.79 3.73027 2.04281 0
M  V30 15112 N 1444.1 -0.461169 1.50702 0
M  V30 15113 C 1445.51 -1.04177 1.54932 0
M  V30 15114 C 1445.87 -1.92894 0.358648 0
M  V30 15115 O 1444.99 -2.09876 -0.527346 0
M  V30 15116 C 1445.59 -1.8961 2.80773 0
M  V30 15117 C 1444.14 -2.42761 2.87652 0
M  V30 15118 C 1443.29 -1.21356 2.49335 0
M  V30 15119 H 1446.24 -0.243379 1.56823 0
M  V30 15120 H 1446.26 -2.74794 2.63189 0
M  V30 15121 H 1445.78 -1.25014 3.67414 0
M  V30 15122 H 1443.88 -3.10881 2.05386 0
M  V30 15123 H 1443.99 -2.77189 3.90772 0
M  V30 15124 H 1442.35 -1.55146 2.01995 0
M  V30 15125 H 1443.14 -0.584069 3.38295 0
M  V30 15126 N 1445.58 -1.40446 -0.715026 0
M  V30 15127 C 1446.83 -1.38754 -1.47491 0
M  V30 15128 C 1447.16 0.0099443 -1.94497 0
M  V30 15129 O 1446.41 0.99458 -1.68543 0
M  V30 15130 C 1446.71 -2.32392 -2.7153 0
M  V30 15131 C 1446.38 -3.79635 -2.43286 0
M  V30 15132 C 1445.04 -4.19751 -2.35293 0
M  V30 15133 C 1447.39 -4.72681 -2.19596 0
M  V30 15134 C 1444.72 -5.50947 -2.01679 0
M  V30 15135 C 1447.07 -6.04176 -1.87495 0
M  V30 15136 C 1445.73 -6.43333 -1.77985 0
M  V30 15137 H 1445 -0.507738 -0.539706 0
M  V30 15138 H 1447.65 -1.73104 -0.81898 0
M  V30 15139 H 1445.96 -1.91229 -3.41963 0
M  V30 15140 H 1447.65 -2.28366 -3.29621 0
M  V30 15141 H 1444.24 -3.47852 -2.50393 0
M  V30 15142 H 1448.43 -4.42506 -2.24727 0
M  V30 15143 H 1443.68 -5.80187 -1.92854 0
M  V30 15144 H 1447.86 -6.75788 -1.68179 0
M  V30 15145 H 1445.48 -7.44909 -1.51706 0
M  V30 15146 N 1447.06 0.947303 -1.25952 0
M  V30 15147 C 1448.34 1.66964 -1.01894 0
M  V30 15148 C 1448.72 2.06192 0.452555 0
M  V30 15149 O 1448.06 1.78098 1.43156 0
M  V30 15150 C 1448.27 2.88643 -1.96179 0
M  V30 15151 C 1449.62 3.60432 -2.24441 0
M  V30 15152 O 1450.65 2.98737 -1.93996 0
M  V30 15153 O 1449.51 4.7154 -2.76247 0
M  V30 15154 H 1446.6 0.730875 -0.386976 0
M  V30 15155 H 1449.15 0.999577 -1.37137 0
M  V30 15156 H 1447.92 2.565 -2.95506 0
M  V30 15157 H 1447.54 3.63377 -1.61379 0
M  V30 15158 N 1448.54 1.07657 1.15099 0
M  V30 15159 C 1449.49 0.669428 2.17951 0
M  V30 15160 C 1450.47 -0.307034 1.57943 0
M  V30 15161 O 1451.66 -0.120267 1.76591 0
M  V30 15162 C 1448.79 0.0720873 3.43224 0
M  V30 15163 C 1447.88 1.07388 4.10279 0
M  V30 15164 N 1448.27 2.25455 4.52773 0
M  V30 15165 C 1446.57 0.907909 4.36661 0
M  V30 15166 C 1447.27 2.89035 5.0481 0
M  V30 15167 N 1446.25 2.16684 4.98547 0
M  V30 15168 H 1450.05 1.56862 2.48539 0
M  V30 15169 H 1447.56 0.950198 1.317 0
M  V30 15170 H 1449.56 -0.237505 4.16223 0
M  V30 15171 H 1448.22 -0.822183 3.14118 0
M  V30 15172 H 1449.23 2.63155 4.4606 0
M  V30 15173 H 1445.91 0.0667966 4.17447 0
M  V30 15174 H 1447.3 3.89303 5.47625 0
M  V30 15175 N 1450.02 -1.31994 0.861122 0
M  V30 15176 C 1450.96 -2.28729 0.308476 0
M  V30 15177 C 1451.93 -1.55338 -0.588148 0
M  V30 15178 O 1453.12 -1.8353 -0.52168 0
M  V30 15179 C 1450.26 -3.4158 -0.491621 0
M  V30 15180 C 1449.37 -4.29839 0.431522 0
M  V30 15181 C 1448.51 -5.29826 -0.381836 0
M  V30 15182 C 1447.55 -6.09728 0.538296 0
M  V30 15183 N 1446.68 -7.01696 -0.238274 0
M  V30 15184 H 1451.52 -2.75389 1.13863 0
M  V30 15185 H 1449.06 -1.35485 0.572911 0
M  V30 15186 H 1451.02 -4.05738 -0.971193 0
M  V30 15187 H 1449.65 -2.96054 -1.28654 0
M  V30 15188 H 1448.7 -3.66204 1.02951 0
M  V30 15189 H 1450.01 -4.85658 1.13742 0
M  V30 15190 H 1449.17 -5.99618 -0.924297 0
M  V30 15191 H 1447.9 -4.7464 -1.12107 0
M  V30 15192 H 1446.91 -5.38834 1.09259 0
M  V30 15193 H 1448.13 -6.67 1.27625 0
M  V30 15194 H 1446.08 -6.4893 -0.960486 0
M  V30 15195 H 1446 -7.54896 0.408466 0
M  V30 15196 H 1447.27 -7.75764 -0.762252 0
M  V30 15197 N 1451.49 -0.619688 -1.44906 0
M  V30 15198 C 1452.74 -0.11981 -2.02446 0
M  V30 15199 C 1453.07 1.2509 -1.48546 0
M  V30 15200 O 1452.35 1.82781 -0.664942 0
M  V30 15201 C 1452.63 -0.0940205 -3.59977 0
M  V30 15202 C 1452.48 -1.49626 -4.24184 0
M  V30 15203 C 1453.8 0.58748 -4.36161 0
M  V30 15204 H 1450.92 -0.0450119 -0.735624 0
M  V30 15205 H 1453.56 -0.793975 -1.72615 0
M  V30 15206 H 1451.71 0.480073 -3.85522 0
M  V30 15207 H 1453.39 -2.11836 -4.09784 0
M  V30 15208 H 1451.63 -2.05348 -3.82119 0
M  V30 15209 H 1452.3 -1.43035 -5.33146 0
M  V30 15210 H 1454.78 0.0993863 -4.15981 0
M  V30 15211 H 1453.65 0.574672 -5.45883 0
M  V30 15212 H 1453.91 1.65579 -4.09922 0
M  V30 15213 N 1452.97 1.53444 -0.359552 0
M  V30 15214 C 1454.22 2.01464 0.232366 0
M  V30 15215 C 1454.55 1.24656 1.48911 0
M  V30 15216 O 1453.83 0.338574 1.9153 0
M  V30 15217 C 1454.11 3.56172 0.530403 0
M  V30 15218 C 1453.96 4.43678 -0.739556 0
M  V30 15219 C 1455.28 4.19412 1.33347 0
M  V30 15220 H 1452.4 0.732314 0.0829802 0
M  V30 15221 H 1455.04 1.83752 -0.483253 0
M  V30 15222 H 1453.19 3.71396 1.14004 0
M  V30 15223 H 1454.86 4.40263 -1.37719 0
M  V30 15224 H 1453.11 4.11892 -1.36117 0
M  V30 15225 H 1453.78 5.49856 -0.486062 0
M  V30 15226 H 1456.25 4.07984 0.817816 0
M  V30 15227 H 1455.13 5.277 1.51075 0
M  V30 15228 H 1455.39 3.7508 2.34024 0
M  V30 15229 N 1454.45 0.0885642 1.57351 0
M  V30 15230 C 1455.7 -0.57633 1.93291 0
M  V30 15231 C 1456.01 -1.69743 0.971934 0
M  V30 15232 O 1457.22 -2.42304 1.22479 0
M  V30 15233 C 1455.67 -1.07655 3.43422 0
M  V30 15234 C 1455.28 0.0144488 4.47998 0
M  V30 15235 C 1457.03 -1.71455 3.88334 0
M  V30 15236 C 1454.93 -0.500758 5.89276 0
M  V30 15237 H 1453.86 -0.219055 0.721478 0
M  V30 15238 H 1456.51 0.163511 1.8277 0
M  V30 15239 H 1454.9 -1.86988 3.49072 0
M  V30 15240 H 1456.07 0.789696 4.53983 0
M  V30 15241 H 1454.39 0.557237 4.12655 0
M  V30 15242 H 1456.98 -2.11063 4.91281 0
M  V30 15243 H 1457.33 -2.58116 3.26621 0
M  V30 15244 H 1457.86 -0.987159 3.85357 0
M  V30 15245 H 1454.6 0.329088 6.54673 0
M  V30 15246 H 1454.12 -1.24315 5.86776 0
M  V30 15247 H 1455.8 -0.971821 6.3966 0
M  V30 15248 N 1455.93 -1.56509 -0.185096 0
M  V30 15249 C 1456.88 -1.91742 -1.23366 0
M  V30 15250 C 1457.86 -0.784182 -1.40497 0
M  V30 15251 O 1459.05 -1.04718 -1.42699 0
M  V30 15252 C 1456.18 -2.26903 -2.57624 0
M  V30 15253 C 1455.27 -3.46707 -2.44244 0
M  V30 15254 N 1455.66 -4.64338 -2.00558 0
M  V30 15255 C 1453.96 -3.51042 -2.7511 0
M  V30 15256 C 1454.66 -5.46489 -1.9931 0
M  V30 15257 N 1453.64 -4.87162 -2.41193 0
M  V30 15258 H 1457.44 -2.80184 -0.887378 0
M  V30 15259 H 1454.95 -1.57561 -0.393468 0
M  V30 15260 H 1456.95 -2.50332 -3.33376 0
M  V30 15261 H 1455.61 -1.39792 -2.93067 0
M  V30 15262 H 1456.62 -4.88817 -1.7111 0
M  V30 15263 H 1453.3 -2.74375 -3.14682 0
M  V30 15264 H 1454.69 -6.50726 -1.67349 0
M  V30 15265 N 1457.41 0.45317 -1.50944 0
M  V30 15266 C 1458.82 0.788393 -1.38768 0
M  V30 15267 C 1459.02 1.96233 -0.457676 0
M  V30 15268 O 1458.08 2.52328 0.0930651 0
M  V30 15269 C 1459.39 1.08363 -2.80496 0
M  V30 15270 C 1460.94 1.18901 -2.89537 0
M  V30 15271 C 1461.41 1.51727 -4.32138 0
M  V30 15272 N 1462.91 1.58683 -4.35171 0
M  V30 15273 C 1463.64 1.85623 -5.42523 0
M  V30 15274 N 1463.14 2.10462 -6.60059 0
M  V30 15275 N 1464.93 1.87274 -5.29986 0
M  V30 15276 H 1457.08 -0.320216 -2.09972 0
M  V30 15277 H 1459.34 -0.0808021 -0.94455 0
M  V30 15278 H 1459.05 0.293897 -3.5047 0
M  V30 15279 H 1458.92 2.01532 -3.18849 0
M  V30 15280 H 1461.31 1.96939 -2.19771 0
M  V30 15281 H 1461.39 0.236691 -2.54703 0
M  V30 15282 H 1461.04 0.74223 -5.02447 0
M  V30 15283 H 1460.97 2.48139 -4.64472 0
M  V30 15284 H 1463.46 1.41455 -3.50427 0
M  V30 15285 H 1463.77 2.30343 -7.37673 0
M  V30 15286 H 1462.11 2.07817 -6.63202 0
M  V30 15287 H 1465.31 1.67377 -4.37153 0
M  V30 15288 H 1465.48 2.07933 -6.13733 0
M  V30 15289 N 1458.88 1.40823 0.707568 0
M  V30 15290 C 1460.13 1.39259 1.46463 0
M  V30 15291 C 1460.45 -0.00157854 1.95 0
M  V30 15292 O 1459.72 -0.957723 1.70893 0
M  V30 15293 H 1458.3 0.512558 0.543409 0
M  V30 15294 H 1460.97 1.75952 0.838269 0
M  V30 15295 H 1460.06 2.07243 2.3336 0
M  V30 15296 N 1460.36 -0.94061 1.26453 0
M  V30 15297 C 1461.29 -2.05667 1.10559 0
M  V30 15298 C 1462.27 -1.70097 0.0106258 0
M  V30 15299 O 1463.46 -1.93338 0.182756 0
M  V30 15300 C 1460.59 -3.3936 0.7384 0
M  V30 15301 C 1459.54 -3.88993 1.78517 0
M  V30 15302 C 1458.87 -5.19343 1.27228 0
M  V30 15303 C 1460.17 -4.13812 3.1868 0
M  V30 15304 H 1461.86 -2.19221 2.03918 0
M  V30 15305 H 1459.41 -1.05339 0.98182 0
M  V30 15306 H 1461.36 -4.16902 0.61409 0
M  V30 15307 H 1460.09 -3.25783 -0.230887 0
M  V30 15308 H 1458.74 -3.13633 1.89816 0
M  V30 15309 H 1458.39 -5.02147 0.292816 0
M  V30 15310 H 1458.09 -5.53521 1.97201 0
M  V30 15311 H 1459.62 -5.99468 1.16065 0
M  V30 15312 H 1461.03 -4.81966 3.10455 0
M  V30 15313 H 1459.43 -4.59273 3.86249 0
M  V30 15314 H 1460.5 -3.19571 3.64695 0
M  V30 15315 N 1461.84 -1.08266 -1.14527 0
M  V30 15316 C 1463.09 -0.812661 -1.85805 0
M  V30 15317 C 1463.42 0.659878 -1.82645 0
M  V30 15318 O 1462.69 1.48498 -1.25612 0
M  V30 15319 C 1462.98 -1.33335 -3.34505 0
M  V30 15320 C 1462.83 -2.87113 -3.46246 0
M  V30 15321 C 1464.15 -0.957435 -4.29559 0
M  V30 15322 H 1461.27 -0.296681 -0.674648 0
M  V30 15323 H 1463.91 -1.34203 -1.34497 0
M  V30 15324 H 1462.06 -0.883056 -3.78331 0
M  V30 15325 H 1463.73 -3.40502 -3.11217 0
M  V30 15326 H 1461.98 -3.24845 -2.87504 0
M  V30 15327 H 1462.65 -3.18618 -4.50762 0
M  V30 15328 H 1465.12 -1.3456 -3.93742 0
M  V30 15329 H 1464 -1.34897 -5.32066 0
M  V30 15330 H 1464.26 0.135689 -4.41892 0
M  V30 15331 N 1463.32 1.31536 -0.86811 0
M  V30 15332 C 1464.55 2.00661 -0.491815 0
M  V30 15333 C 1464.96 1.65341 0.919733 0
M  V30 15334 O 1464.3 0.87773 1.61374 0
M  V30 15335 C 1464.36 3.55002 -0.566926 0
M  V30 15336 C 1464.03 4.1379 -1.93976 0
M  V30 15337 C 1465.02 4.31032 -2.90702 0
M  V30 15338 C 1462.71 4.4956 -2.24056 0
M  V30 15339 C 1464.7 4.8323 -4.15653 0
M  V30 15340 C 1462.39 5.01461 -3.49257 0
M  V30 15341 C 1463.39 5.18246 -4.44871 0
M  V30 15342 O 1463.08 5.69033 -5.67852 0
M  V30 15343 H 1462.81 0.648663 -0.190296 0
M  V30 15344 H 1465.36 1.68783 -1.17053 0
M  V30 15345 H 1463.59 3.86332 0.168704 0
M  V30 15346 H 1465.28 4.05385 -0.204323 0
M  V30 15347 H 1466.05 4.03717 -2.6877 0
M  V30 15348 H 1461.93 4.35772 -1.50412 0
M  V30 15349 H 1465.47 4.96247 -4.9029 0
M  V30 15350 H 1461.37 5.28209 -3.71033 0
M  V30 15351 H 1462.13 5.87405 -5.69998 0
M  V30 15352 N 1464.8 0.627364 1.44575 0
M  V30 15353 C 1465.75 -0.0920488 2.32418 0
M  V30 15354 C 1466.74 -0.839633 1.47128 0
M  V30 15355 O 1467.95 -0.752958 1.63495 0
M  V30 15356 H 1464.32 -0.0485336 0.750432 0
M  V30 15357 H 1466.29 0.666959 2.90851 0
M  V30 15358 C 1465.04 -1.06262 3.31064 0
M  V30 15359 H 1464.36 -0.4968 3.96701 0
M  V30 15360 H 1465.8 -1.53556 3.95217 0
M  V30 15361 C 1464.26 -2.14601 2.59707 0
M  V30 15362 O 1464.79 -3.2263 2.39317 0
M  V30 15363 N 1463 -1.90431 2.19509 0
M  V30 15364 H 1462.55 -1.02584 2.36293 0
M  V30 15365 H 1462.5 -2.6312 1.72091 0
M  V30 15366 N 1466.28 -1.53251 0.367684 0
M  V30 15367 C 1467.51 -2.05407 -0.221725 0
M  V30 15368 C 1467.91 -1.24081 -1.4283 0
M  V30 15369 O 1467.26 -0.275005 -1.8163 0
M  V30 15370 C 1467.32 -3.53063 -0.677281 0
M  V30 15371 C 1466.98 -4.55131 0.412894 0
M  V30 15372 C 1467.98 -5.04315 1.26343 0
M  V30 15373 C 1465.66 -4.99013 0.573739 0
M  V30 15374 C 1467.66 -5.95984 2.26014 0
M  V30 15375 C 1465.35 -5.90487 1.57381 0
M  V30 15376 C 1466.34 -6.38863 2.41544 0
M  V30 15377 O 1466.03 -7.28533 3.39845 0
M  V30 15378 H 1465.76 -0.674679 -0.0422413 0
M  V30 15379 H 1468.32 -1.98577 0.52501 0
M  V30 15380 H 1466.55 -3.57437 -1.47565 0
M  V30 15381 H 1468.24 -3.88066 -1.18993 0
M  V30 15382 H 1469 -4.7116 1.15037 0
M  V30 15383 H 1464.88 -4.60944 -0.0715806 0
M  V30 15384 H 1468.43 -6.33666 2.91742 0
M  V30 15385 H 1464.32 -6.23056 1.68734 0
M  V30 15386 H 1465.09 -7.46536 3.35598 0
M  V30 15387 N 1467.75 -0.0969077 -1.57302 0
M  V30 15388 C 1469.03 0.608737 -1.85886 0
M  V30 15389 C 1469.41 1.86228 -0.994096 0
M  V30 15390 O 1468.76 2.28402 -0.0669975 0
M  V30 15391 C 1468.97 0.922385 -3.3659 0
M  V30 15392 C 1470.32 1.28505 -4.04687 0
M  V30 15393 O 1471.34 1.01334 -3.41482 0
M  V30 15394 O 1470.2 1.794 -5.16215 0
M  V30 15395 H 1467.29 0.304808 -0.768779 0
M  V30 15396 H 1469.84 -0.129742 -1.69203 0
M  V30 15397 H 1468.61 0.0331488 -3.91286 0
M  V30 15398 H 1468.23 1.71678 -3.58626 0
M  V30 15399 N 1469.23 1.56605 0.176793 0
M  V30 15400 C 1470.48 1.81682 0.894302 0
M  V30 15401 C 1470.81 0.67311 1.82481 0
M  V30 15402 O 1470.06 -0.339995 1.92724 0
M  V30 15403 C 1470.36 3.12888 1.7273 0
M  V30 15404 C 1470.03 4.40861 0.946186 0
M  V30 15405 C 1468.69 4.75622 0.730586 0
M  V30 15406 C 1471.04 5.19679 0.397889 0
M  V30 15407 C 1468.37 5.86683 -0.0444995 0
M  V30 15408 C 1470.72 6.31551 -0.36408 0
M  V30 15409 C 1469.38 6.64883 -0.59053 0
M  V30 15410 H 1468.65 0.664823 0.327248 0
M  V30 15411 H 1471.3 1.90834 0.159555 0
M  V30 15412 H 1469.61 2.99055 2.53128 0
M  V30 15413 H 1471.3 3.295 2.2854 0
M  V30 15414 H 1467.89 4.13592 1.12426 0
M  V30 15415 H 1472.08 4.93223 0.55181 0
M  V30 15416 H 1467.33 6.10968 -0.229739 0
M  V30 15417 H 1471.51 6.91833 -0.796223 0
M  V30 15418 H 1469.13 7.50781 -1.19301 0
M  V30 15419 N 1470.71 -0.445159 1.51182 0
M  V30 15420 C 1472.12 -1.02528 1.56028 0
M  V30 15421 C 1472.47 -1.92503 0.379087 0
M  V30 15422 O 1471.6 -2.10424 -0.505056 0
M  V30 15423 C 1472.19 -1.86621 2.82768 0
M  V30 15424 C 1470.75 -2.39697 2.90211 0
M  V30 15425 C 1469.9 -1.18705 2.50608 0
M  V30 15426 H 1472.85 -0.226732 1.57072 0
M  V30 15427 H 1472.87 -2.71987 2.66089 0
M  V30 15428 H 1472.38 -1.2111 3.68719 0
M  V30 15429 H 1470.48 -3.08686 2.08672 0
M  V30 15430 H 1470.6 -2.73029 3.9369 0
M  V30 15431 H 1468.96 -1.52995 2.03629 0
M  V30 15432 H 1469.74 -0.548156 3.38895 0
M  V30 15433 N 1472.19 -1.41197 -0.700089 0
M  V30 15434 C 1473.1 -1.45038 -1.84394 0
M  V30 15435 C 1474.11 -0.34141 -1.70618 0
M  V30 15436 O 1475.29 -0.588428 -1.92612 0
M  V30 15437 C 1472.35 -1.32611 -3.20336 0
M  V30 15438 C 1471.42 -2.53784 -3.46254 0
M  V30 15439 C 1470.65 -2.4194 -4.75711 0
M  V30 15440 O 1470.87 -1.44153 -5.51884 0
M  V30 15441 O 1469.81 -3.31613 -5.02311 0
M  V30 15442 H 1473.63 -2.41531 -1.8411 0
M  V30 15443 H 1471.22 -1.22686 -0.852558 0
M  V30 15444 H 1473.1 -1.27947 -4.01507 0
M  V30 15445 H 1471.77 -0.392309 -3.21314 0
M  V30 15446 H 1470.68 -2.64024 -2.65032 0
M  V30 15447 H 1472.01 -3.45977 -3.50087 0
M  V30 15448 N 1473.67 0.933891 -1.2695 0
M  V30 15449 C 1474.9 1.71263 -1.15553 0
M  V30 15450 C 1475.3 1.86948 0.291059 0
M  V30 15451 O 1474.65 1.38173 1.21053 0
M  V30 15452 C 1474.71 3.13479 -1.75986 0
M  V30 15453 C 1474.37 3.21154 -3.2513 0
M  V30 15454 C 1475.37 3.03874 -4.21849 0
M  V30 15455 C 1473.05 3.44311 -3.65726 0
M  V30 15456 C 1475.05 3.09631 -5.57142 0
M  V30 15457 C 1472.74 3.49702 -5.01151 0
M  V30 15458 C 1473.73 3.32379 -5.96668 0
M  V30 15459 O 1473.42 3.37493 -7.29626 0
M  V30 15460 H 1473.15 0.542801 -0.402918 0
M  V30 15461 H 1475.71 1.17877 -1.68209 0
M  V30 15462 H 1473.94 3.6832 -1.178 0
M  V30 15463 H 1475.63 3.73295 -1.59391 0
M  V30 15464 H 1476.39 2.85832 -3.91823 0
M  V30 15465 H 1472.27 3.56847 -2.91859 0
M  V30 15466 H 1475.82 2.96028 -6.31675 0
M  V30 15467 H 1471.71 3.67267 -5.30835 0
M  V30 15468 H 1472.48 3.53988 -7.37994 0
M  V30 15469 N 1475.14 1.08871 1.13951 0
M  V30 15470 C 1476.39 0.819665 1.84732 0
M  V30 15471 C 1476.71 -0.656535 1.83615 0
M  V30 15472 O 1475.98 -1.47614 1.28791 0
M  V30 15473 H 1474.56 0.30023 0.684011 0
M  V30 15474 H 1477.22 1.37568 1.38062 0
M  V30 15475 H 1476.32 1.16809 2.89417 0
M  V30 15476 N 1476.62 -1.31073 0.875073 0
M  V30 15477 C 1477.58 -2.26672 0.339481 0
M  V30 15478 C 1478.58 -1.52416 -0.512439 0
M  V30 15479 O 1479.77 -1.71217 -0.321012 0
M  V30 15480 C 1476.91 -3.36952 -0.517311 0
M  V30 15481 H 1478.1 -2.7556 1.18349 0
M  V30 15482 H 1475.65 -1.42093 0.65109 0
M  V30 15483 H 1476.39 -2.93364 -1.38231 0
M  V30 15484 H 1476.17 -3.9199 0.092773 0
M  V30 15485 H 1477.66 -4.08133 -0.884154 0
M  V30 15486 N 1478.1 -0.635022 -1.4424 0
M  V30 15487 C 1479.03 0.116972 -2.279 0
M  V30 15488 C 1480.01 0.847505 -1.38766 0
M  V30 15489 O 1481.2 0.8508 -1.68207 0
M  V30 15490 C 1478.32 1.17183 -3.17783 0
M  V30 15491 C 1477.37 0.541389 -4.2305 0
M  V30 15492 S 1478.2 -0.671454 -5.31274 0
M  V30 15493 C 1479.36 0.383317 -6.24725 0
M  V30 15494 H 1479.59 -0.592739 -2.91331 0
M  V30 15495 H 1477.12 -0.423307 -1.48484 0
M  V30 15496 H 1479.08 1.77548 -3.70118 0
M  V30 15497 H 1477.74 1.85375 -2.53564 0
M  V30 15498 H 1476.94 1.33597 -4.85971 0
M  V30 15499 H 1476.54 0.0122707 -3.73998 0
M  V30 15500 H 1478.83 1.25477 -6.65779 0
M  V30 15501 H 1479.77 -0.21041 -7.07787 0
M  V30 15502 H 1480.18 0.710963 -5.60005 0
M  V30 15503 N 1479.58 1.53054 -0.375806 0
M  V30 15504 C 1480.53 2.2605 0.46582 0
M  V30 15505 C 1481.5 1.27123 1.06906 0
M  V30 15506 O 1482.68 1.55926 1.09963 0
M  V30 15507 C 1479.82 3.06066 1.59429 0
M  V30 15508 C 1478.93 4.19901 1.01523 0
M  V30 15509 C 1478.07 4.87339 2.11363 0
M  V30 15510 C 1477.11 5.93189 1.50976 0
M  V30 15511 N 1476.24 6.54276 2.54692 0
M  V30 15512 H 1481.08 2.97553 -0.163149 0
M  V30 15513 H 1478.62 1.4681 -0.092282 0
M  V30 15514 H 1480.58 3.50739 2.25915 0
M  V30 15515 H 1479.21 2.36799 2.19377 0
M  V30 15516 H 1478.26 3.7964 0.240346 0
M  V30 15517 H 1479.57 4.95935 0.533812 0
M  V30 15518 H 1478.73 5.35247 2.85649 0
M  V30 15519 H 1477.47 4.10799 2.6286 0
M  V30 15520 H 1476.47 5.44632 0.752095 0
M  V30 15521 H 1477.7 6.71654 1.00291 0
M  V30 15522 H 1475.64 5.80584 3.05383 0
M  V30 15523 H 1475.56 7.2588 2.11267 0
M  V30 15524 H 1476.83 7.06831 3.28648 0
M  V30 15525 N 1481.06 0.105248 1.57248 0
M  V30 15526 C 1482.47 -0.422304 1.81861 0
M  V30 15527 C 1482.82 -1.67508 1.02154 0
M  V30 15528 O 1481.94 -2.14905 0.253961 0
M  V30 15529 C 1482.54 -0.772943 3.29865 0
M  V30 15530 C 1481.1 -1.24519 3.55207 0
M  V30 15531 C 1480.24 -0.246936 2.76198 0
M  V30 15532 H 1483.2 0.330565 1.55219 0
M  V30 15533 H 1483.22 -1.6316 3.43743 0
M  V30 15534 H 1482.73 0.139033 3.87851 0
M  V30 15535 H 1480.83 -2.17453 3.02564 0
M  V30 15536 H 1480.94 -1.20001 4.63828 0
M  V30 15537 H 1479.31 -0.731171 2.43979 0
M  V30 15538 H 1480.09 0.657896 3.36937 0
M  V30 15539 N 1482.53 -1.56697 -0.168486 0
M  V30 15540 C 1483.78 -1.81794 -0.882907 0
M  V30 15541 C 1484.1 -0.682707 -1.82658 0
M  V30 15542 O 1483.37 0.297234 -1.93632 0
M  V30 15543 H 1481.95 -0.670636 -0.329024 0
M  V30 15544 H 1484.62 -1.94178 -0.167625 0
M  V30 15545 H 1483.71 -2.75945 -1.45811 0
M  V30 15546 N 1484.01 0.437135 -1.51416 0
M  V30 15547 C 1484.98 1.51313 -1.72154 0
M  V30 15548 C 1485.98 1.49523 -0.59157 0
M  V30 15549 O 1487.17 1.51541 -0.859118 0
M  V30 15550 C 1484.3 2.9085 -1.77818 0
M  V30 15551 H 1485.49 1.34229 -2.68184 0
M  V30 15552 H 1483.04 0.665822 -1.41409 0
M  V30 15553 H 1483.78 3.13338 -0.836033 0
M  V30 15554 H 1483.56 2.93554 -2.59939 0
M  V30 15555 H 1485.05 3.68905 -1.957 0
M  V30 15556 N 1485.49 1.41566 0.692592 0
M  V30 15557 C 1486.74 1.41083 1.45265 0
M  V30 15558 C 1487.07 0.0209998 1.94489 0
M  V30 15559 O 1486.32 -0.96764 1.70104 0
M  V30 15560 C 1486.62 2.36683 2.67799 0
M  V30 15561 C 1486.29 3.83458 2.37215 0
M  V30 15562 C 1484.95 4.23441 2.28585 0
M  V30 15563 C 1487.3 4.76114 2.12048 0
M  V30 15564 C 1484.63 5.54086 1.92888 0
M  V30 15565 C 1486.98 6.07082 1.7786 0
M  V30 15566 C 1485.64 6.46083 1.67727 0
M  V30 15567 H 1484.91 0.51626 0.531561 0
M  V30 15568 H 1487.56 1.74385 0.791337 0
M  V30 15569 H 1485.87 1.96645 3.38877 0
M  V30 15570 H 1487.56 2.33581 3.25946 0
M  V30 15571 H 1484.15 3.51792 2.44828 0
M  V30 15572 H 1488.34 4.46025 2.17659 0
M  V30 15573 H 1483.59 5.83182 1.83599 0
M  V30 15574 H 1487.77 6.78378 1.57407 0
M  V30 15575 H 1485.39 7.47228 1.39836 0
M  V30 15576 N 1486.97 -0.927146 1.27443 0
M  V30 15577 C 1488.22 -1.67159 1.13589 0
M  V30 15578 C 1488.54 -1.92379 -0.31865 0
M  V30 15579 O 1487.81 -1.53045 -1.22287 0
M  V30 15580 H 1486.39 -0.619524 0.417371 0
M  V30 15581 H 1489.05 -1.11323 1.59979 0
M  V30 15582 H 1488.15 -2.63954 1.66537 0
M  V30 15583 N 1488.45 -1.09474 -1.13372 0
M  V30 15584 C 1489.72 -0.743485 -1.80919 0
M  V30 15585 C 1490.1 0.771414 -1.965 0
M  V30 15586 O 1489.45 1.694 -1.53349 0
M  V30 15587 C 1489.66 -1.48309 -3.1592 0
M  V30 15588 C 1491.01 -1.64921 -3.91263 0
M  V30 15589 O 1492.03 -1.44564 -3.25545 0
M  V30 15590 O 1490.89 -1.98595 -5.09139 0
M  V30 15591 H 1487.99 -0.26713 -0.782669 0
M  V30 15592 H 1490.53 -1.19697 -1.20294 0
M  V30 15593 H 1489.3 -2.51456 -2.99809 0
M  V30 15594 H 1488.93 -1.02181 -3.84246 0
M  V30 15595 N 1489.92 1.30607 -0.882012 0
M  V30 15596 C 1491.17 1.95531 -0.495038 0
M  V30 15597 C 1491.49 1.70418 0.96005 0
M  V30 15598 O 1492.69 2.29301 1.45373 0
M  V30 15599 C 1491.15 3.50094 -0.834382 0
M  V30 15600 C 1490.76 3.84031 -2.30704 0
M  V30 15601 C 1492.5 4.21347 -0.516463 0
M  V30 15602 C 1490.41 5.31759 -2.58817 0
M  V30 15603 H 1489.34 0.731854 -0.181399 0
M  V30 15604 H 1491.99 1.486 -1.07658 0
M  V30 15605 H 1490.37 3.95582 -0.181961 0
M  V30 15606 H 1491.54 3.49463 -3.00353 0
M  V30 15607 H 1489.86 3.25874 -2.5922 0
M  V30 15608 H 1492.46 5.30051 -0.703576 0
M  V30 15609 H 1492.8 4.12731 0.543935 0
M  V30 15610 H 1493.33 3.81533 -1.12595 0
M  V30 15611 H 1490.07 5.45422 -3.63586 0
M  V30 15612 H 1489.59 5.67637 -1.93774 0
M  V30 15613 H 1491.27 5.9916 -2.44165 0
M  V30 15614 N 1491.4 0.642663 1.43901 0
M  V30 15615 C 1492.33 -0.0938945 2.29008 0
M  V30 15616 C 1493.35 -0.797561 1.41925 0
M  V30 15617 O 1494.54 -0.65708 1.65966 0
M  V30 15618 C 1491.64 -1.15564 3.18588 0
M  V30 15619 C 1490.81 -0.532208 4.3415 0
M  V30 15620 C 1489.87 -1.48943 5.0468 0
M  V30 15621 O 1488.89 -1.00211 5.60309 0
M  V30 15622 N 1490.1 -2.82362 5.072 0
M  V30 15623 H 1492.86 0.636539 2.92862 0
M  V30 15624 H 1490.42 0.484665 1.54475 0
M  V30 15625 H 1492.41 -1.79658 3.62636 0
M  V30 15626 H 1490.98 -1.78816 2.56405 0
M  V30 15627 H 1490.2 0.287598 3.93149 0
M  V30 15628 H 1491.49 -0.0965526 5.08708 0
M  V30 15629 H 1490.89 -3.24524 4.63358 0
M  V30 15630 H 1489.45 -3.41786 5.55001 0
M  V30 15631 N 1492.88 -1.52852 0.383918 0
M  V30 15632 C 1493.84 -2.24904 -0.441687 0
M  V30 15633 C 1494.84 -1.26345 -0.99466 0
M  V30 15634 O 1496.03 -1.50484 -0.877513 0
M  V30 15635 C 1493.17 -2.99994 -1.61915 0
M  V30 15636 H 1494.36 -2.99304 0.189047 0
M  V30 15637 H 1491.91 -1.55708 0.135932 0
M  V30 15638 H 1492.65 -2.29882 -2.28746 0
M  V30 15639 H 1492.43 -3.72328 -1.2294 0
M  V30 15640 H 1493.92 -3.54716 -2.20378 0
M  V30 15641 N 1494.36 -0.113586 -1.5719 0
M  V30 15642 C 1495.59 0.553592 -1.99356 0
M  V30 15643 C 1496 1.60567 -0.993154 0
M  V30 15644 O 1495.36 1.82494 0.0147252 0
M  V30 15645 C 1495.41 1.18462 -3.41539 0
M  V30 15646 O 1495.13 0.174602 -4.37752 0
M  V30 15647 C 1496.63 1.93564 -3.98808 0
M  V30 15648 H 1493.85 0.146998 -0.6547 0
M  V30 15649 H 1496.4 -0.198329 -2.03536 0
M  V30 15650 H 1494.55 1.88736 -3.38316 0
M  V30 15651 H 1494.97 0.632395 -5.20674 0
M  V30 15652 H 1496.44 2.33051 -5.00391 0
M  V30 15653 H 1496.92 2.80874 -3.37648 0
M  V30 15654 H 1497.52 1.28066 -4.0556 0
M  V30 15655 N 1495.84 1.56784 0.160173 0
M  V30 15656 C 1497.06 1.87129 0.894283 0
M  V30 15657 C 1497.49 0.701172 1.74543 0
M  V30 15658 O 1496.85 -0.349542 1.77899 0
M  V30 15659 C 1496.89 3.15969 1.73769 0
M  V30 15660 O 1496 2.98977 2.84054 0
M  V30 15661 H 1495.34 0.615192 0.249869 0
M  V30 15662 H 1497.87 2.04012 0.154956 0
M  V30 15663 H 1497.88 3.47657 2.13538 0
M  V30 15664 H 1496.55 4.00742 1.11258 0
M  V30 15665 H 1495.13 2.78668 2.47788 0
M  V30 15666 N 1497.32 -0.429099 1.51646 0
M  V30 15667 C 1498.25 -1.52867 1.76505 0
M  V30 15668 C 1499.23 -1.58586 0.615178 0
M  V30 15669 O 1500.41 -1.74182 0.858742 0
M  V30 15670 C 1497.54 -2.90875 1.8976 0
M  V30 15671 C 1496.5 -3.00014 3.05247 0
M  V30 15672 C 1495.82 -4.40082 3.03696 0
M  V30 15673 C 1497.12 -2.73334 4.45068 0
M  V30 15674 H 1498.82 -1.32315 2.68576 0
M  V30 15675 H 1496.36 -0.635091 1.29238 0
M  V30 15676 H 1498.31 -3.67765 2.05734 0
M  V30 15677 H 1497.04 -3.12677 0.943442 0
M  V30 15678 H 1495.7 -2.25565 2.88991 0
M  V30 15679 H 1495.35 -4.58864 2.06042 0
M  V30 15680 H 1495.05 -4.47125 3.81252 0
M  V30 15681 H 1496.57 -5.18935 3.21774 0
M  V30 15682 H 1497.98 -3.39954 4.61632 0
M  V30 15683 H 1496.38 -2.91777 5.24391 0
M  V30 15684 H 1497.45 -1.68889 4.54538 0
M  V30 15685 N 1498.79 -1.41931 -0.685074 0
M  V30 15686 C 1500.02 -1.45229 -1.47364 0
M  V30 15687 C 1500.44 -0.060595 -1.88703 0
M  V30 15688 O 1499.79 0.92244 -1.57472 0
M  V30 15689 C 1499.84 -2.37033 -2.72942 0
M  V30 15690 O 1499.57 -3.70787 -2.33342 0
M  V30 15691 C 1501.07 -2.49244 -3.66596 0
M  V30 15692 H 1498.29 -0.494291 -0.453781 0
M  V30 15693 H 1500.83 -1.86333 -0.84263 0
M  V30 15694 H 1498.99 -1.9921 -3.32256 0
M  V30 15695 H 1499.4 -4.19853 -3.14362 0
M  V30 15696 H 1500.87 -3.17624 -4.51463 0
M  V30 15697 H 1501.35 -1.52703 -4.11799 0
M  V30 15698 H 1501.96 -2.87747 -3.1318 0
M  V30 15699 N 1500.27 0.920374 -1.27933 0
M  V30 15700 C 1501.5 1.70804 -1.17647 0
M  V30 15701 C 1501.92 1.86264 0.262189 0
M  V30 15702 O 1501.28 1.36798 1.18979 0
M  V30 15703 C 1501.33 3.08142 -1.87298 0
M  V30 15704 O 1500.43 3.95279 -1.17593 0
M  V30 15705 H 1499.77 0.523267 -0.408763 0
M  V30 15706 H 1502.3 1.15127 -1.69136 0
M  V30 15707 H 1502.31 3.58414 -1.94945 0
M  V30 15708 H 1500.99 2.96208 -2.91948 0
M  V30 15709 H 1499.56 3.53716 -1.18065 0
M  V30 15710 N 1501.75 1.10074 1.1279 0
M  V30 15711 C 1502.7 0.746173 2.18405 0
M  V30 15712 C 1503.67 -0.275751 1.63795 0
M  V30 15713 O 1504.85 -0.155876 1.90162 0
M  V30 15714 C 1501.99 0.180105 3.4463 0
M  V30 15715 C 1501.1 1.25688 4.13312 0
M  V30 15716 C 1500.24 0.652852 5.27173 0
M  V30 15717 C 1499.28 1.71046 5.87716 0
M  V30 15718 N 1498.42 1.12698 6.92996 0
M  V30 15719 H 1503.26 1.65105 2.48081 0
M  V30 15720 H 1500.79 0.824768 1.21803 0
M  V30 15721 H 1502.75 -0.165948 4.1687 0
M  V30 15722 H 1501.38 -0.688014 3.15383 0
M  V30 15723 H 1500.43 1.72011 3.39288 0
M  V30 15724 H 1501.74 2.05762 4.54382 0
M  V30 15725 H 1500.9 0.25603 6.0616 0
M  V30 15726 H 1499.64 -0.17937 4.8737 0
M  V30 15727 H 1498.64 2.11676 5.07418 0
M  V30 15728 H 1499.87 2.54547 6.29589 0
M  V30 15729 H 1497.81 0.316154 6.55238 0
M  V30 15730 H 1497.73 1.86461 7.32645 0
M  V30 15731 H 1499 0.756582 7.7582 0
M  V30 15732 N 1503.23 -1.30138 0.888926 0
M  V30 15733 C 1504.5 -1.90831 0.42928 0
M  V30 15734 C 1504.88 -1.80765 -1.09028 0
M  V30 15735 O 1504.23 -1.22741 -1.92735 0
M  V30 15736 C 1504.44 -3.36331 0.931798 0
M  V30 15737 C 1505.79 -4.13393 0.969106 0
M  V30 15738 O 1506.81 -3.45191 0.878731 0
M  V30 15739 O 1505.67 -5.35249 1.10323 0
M  V30 15740 H 1502.77 -0.816401 0.131976 0
M  V30 15741 H 1505.31 -1.38678 0.978086 0
M  V30 15742 H 1504.09 -3.37761 1.97568 0
M  V30 15743 H 1503.71 -3.95945 0.362383 0
M  V30 15744 N 1504.71 -0.650285 -1.43559 0
M  V30 15745 C 1505.64 0.0295939 -2.33481 0
M  V30 15746 C 1506.62 0.815017 -1.49303 0
M  V30 15747 O 1507.8 0.77708 -1.77975 0
M  V30 15748 C 1504.93 0.998683 -3.32631 0
M  V30 15749 C 1503.89 0.323577 -4.26775 0
M  V30 15750 C 1503.21 1.40391 -5.1594 0
M  V30 15751 C 1504.51 -0.782197 -5.1641 0
M  V30 15752 H 1506.21 -0.721349 -2.9058 0
M  V30 15753 H 1503.75 -0.348339 -1.39723 0
M  V30 15754 H 1505.7 1.4832 -3.94435 0
M  V30 15755 H 1504.43 1.78075 -2.73782 0
M  V30 15756 H 1503.09 -0.140467 -3.66331 0
M  V30 15757 H 1502.74 2.17734 -4.53432 0
M  V30 15758 H 1502.44 0.957462 -5.79747 0
M  V30 15759 H 1503.96 1.88985 -5.80618 0
M  V30 15760 H 1505.37 -0.379966 -5.72039 0
M  V30 15761 H 1503.77 -1.15293 -5.88921 0
M  V30 15762 H 1504.84 -1.6414 -4.56274 0
M  V30 15763 N 1506.18 1.52647 -0.392018 0
M  V30 15764 C 1507.43 2.00798 0.19056 0
M  V30 15765 C 1507.75 1.28265 1.47673 0
M  V30 15766 O 1508.95 1.67142 2.13953 0
M  V30 15767 C 1507.41 3.57779 0.390148 0
M  V30 15768 C 1507.02 4.39213 -0.882933 0
M  V30 15769 C 1508.76 4.14211 0.928945 0
M  V30 15770 C 1506.67 5.87801 -0.651474 0
M  V30 15771 H 1505.6 0.750262 0.0749879 0
M  V30 15772 H 1508.25 1.7613 -0.514835 0
M  V30 15773 H 1506.63 3.78707 1.15746 0
M  V30 15774 H 1507.8 4.30051 -1.65507 0
M  V30 15775 H 1506.12 3.94015 -1.34688 0
M  V30 15776 H 1508.72 5.22884 1.11787 0
M  V30 15777 H 1509.06 3.70475 1.89878 0
M  V30 15778 H 1509.59 3.97185 0.221135 0
M  V30 15779 H 1506.33 6.35864 -1.59239 0
M  V30 15780 H 1505.85 5.99744 0.0816786 0
M  V30 15781 H 1507.53 6.46363 -0.287057 0
M  V30 15782 N 1507.66 0.121921 1.57128 0
M  V30 15783 C 1508.63 -0.812905 2.143 0
M  V30 15784 C 1509.63 -1.19261 1.07858 0
M  V30 15785 O 1510.82 -1.11764 1.33621 0
M  V30 15786 C 1507.95 -2.09969 2.68562 0
M  V30 15787 H 1509.14 -0.315992 2.98231 0
M  V30 15788 H 1506.69 -0.12734 1.5578 0
M  V30 15789 H 1507.43 -2.64085 1.88228 0
M  V30 15790 H 1507.21 -1.83688 3.46412 0
M  V30 15791 H 1508.7 -2.76788 3.12695 0
M  V30 15792 N 1509.14 -1.56867 -0.151857 0
M  V30 15793 C 1510.37 -1.87601 -0.884347 0
M  V30 15794 C 1510.79 -0.710419 -1.74168 0
M  V30 15795 O 1510.15 0.340103 -1.78081 0
M  V30 15796 C 1510.2 -3.16887 -1.72091 0
M  V30 15797 O 1509.3 -3.00479 -2.82464 0
M  V30 15798 H 1508.64 -0.616509 -0.246603 0
M  V30 15799 H 1511.17 -2.04092 -0.144135 0
M  V30 15800 H 1511.18 -3.48785 -2.11691 0
M  V30 15801 H 1509.86 -4.01327 -1.09131 0
M  V30 15802 H 1508.43 -2.79978 -2.46306 0
M  V30 15803 N 1510.62 0.421051 -1.51871 0
M  V30 15804 C 1511.85 1.1911 -1.69175 0
M  V30 15805 C 1512.26 1.84599 -0.39606 0
M  V30 15806 O 1511.62 1.71395 0.626907 0
M  V30 15807 C 1511.67 2.26309 -2.81898 0
M  V30 15808 O 1511.39 1.63496 -4.06449 0
M  V30 15809 C 1512.89 3.16285 -3.10611 0
M  V30 15810 H 1510.11 0.358385 -0.567275 0
M  V30 15811 H 1512.66 0.496919 -1.98371 0
M  V30 15812 H 1510.81 2.91416 -2.55255 0
M  V30 15813 H 1511.22 2.3447 -4.69174 0
M  V30 15814 H 1512.7 3.87601 -3.93026 0
M  V30 15815 H 1513.18 3.77976 -2.23676 0
M  V30 15816 H 1513.78 2.5686 -3.38973 0
M  V30 15817 N 1512.1 1.42293 0.677538 0
M  V30 15818 C 1513.37 1.331 1.43331 0
M  V30 15819 C 1513.75 -0.0329227 2.11074 0
M  V30 15820 O 1513.1 -1.04826 2.03036 0
M  V30 15821 C 1513.31 2.49725 2.438 0
M  V30 15822 C 1514.66 2.91716 3.08524 0
M  V30 15823 O 1515.68 2.49596 2.54127 0
M  V30 15824 O 1514.54 3.64609 4.07091 0
M  V30 15825 H 1511.64 0.524758 0.639185 0
M  V30 15826 H 1514.18 1.54294 0.706493 0
M  V30 15827 H 1512.95 3.40663 1.92522 0
M  V30 15828 H 1512.58 2.30503 3.23966 0
M  V30 15829 N 1513.57 -0.913576 1.28419 0
M  V30 15830 C 1514.82 -1.65731 1.14961 0
M  V30 15831 C 1515.14 -1.93269 -0.301079 0
M  V30 15832 O 1516.34 -2.6573 -0.556778 0
M  V30 15833 C 1514.8 -2.98562 2.00969 0
M  V30 15834 C 1514.41 -2.78671 3.5078 0
M  V30 15835 C 1516.15 -3.76439 1.96198 0
M  V30 15836 C 1514.06 -4.07144 4.28938 0
M  V30 15837 H 1512.99 -0.621681 0.426648 0
M  V30 15838 H 1515.64 -1.0138 1.52952 0
M  V30 15839 H 1514.02 -3.64049 1.55835 0
M  V30 15840 H 1515.19 -2.21864 4.03873 0
M  V30 15841 H 1513.51 -2.14206 3.57078 0
M  V30 15842 H 1516.11 -4.71668 2.51861 0
M  V30 15843 H 1516.45 -4.05577 0.938771 0
M  V30 15844 H 1516.98 -3.17772 2.39303 0
M  V30 15845 H 1513.72 -3.83178 5.31841 0
M  V30 15846 H 1513.24 -4.63562 3.80619 0
M  V30 15847 H 1514.92 -4.754 4.38866 0
M  V30 15848 N 1515.05 -1.1067 -1.12204 0
M  V30 15849 C 1516.47 -0.838988 -1.35769 0
M  V30 15850 C 1516.67 0.540345 -1.9412 0
M  V30 15851 O 1515.72 1.29274 -2.16897 0
M  V30 15852 C 1517.04 -1.94065 -2.29694 0
M  V30 15853 C 1518.59 -1.96938 -2.43279 0
M  V30 15854 C 1519.06 -3.06284 -3.4052 0
M  V30 15855 N 1520.55 -3.05607 -3.48079 0
M  V30 15856 C 1521.29 -3.86855 -4.23238 0
M  V30 15857 N 1520.78 -4.78046 -5.01442 0
M  V30 15858 N 1522.58 -3.75064 -4.18669 0
M  V30 15859 H 1514.73 -1.99575 -0.726878 0
M  V30 15860 H 1516.99 -0.867423 -0.382467 0
M  V30 15861 H 1516.7 -2.93356 -1.93997 0
M  V30 15862 H 1516.57 -1.82992 -3.29839 0
M  V30 15863 H 1518.96 -0.982774 -2.78254 0
M  V30 15864 H 1519.04 -2.12087 -1.43014 0
M  V30 15865 H 1518.68 -4.05165 -3.06273 0
M  V30 15866 H 1518.61 -2.88376 -4.40621 0
M  V30 15867 H 1521.1 -2.39531 -2.9229 0
M  V30 15868 H 1521.42 -5.36594 -5.56136 0
M  V30 15869 H 1519.76 -4.82073 -5.0063 0
M  V30 15870 H 1522.95 -3.03172 -3.56657 0
M  V30 15871 H 1523.12 -4.38618 -4.76988 0
M  V30 15872 N 1516.53 1.29665 -0.895815 0
M  V30 15873 C 1517.46 2.30268 -0.387151 0
M  V30 15874 C 1518.44 1.61442 0.535768 0
M  V30 15875 O 1519.63 1.88978 0.447321 0
M  V30 15876 C 1516.76 3.45107 0.389639 0
M  V30 15877 C 1515.71 4.25706 -0.442498 0
M  V30 15878 C 1515.04 5.32704 0.461552 0
M  V30 15879 C 1516.34 4.9419 -1.69036 0
M  V30 15880 H 1518.03 2.73064 -1.22786 0
M  V30 15881 H 1515.58 1.31274 -0.591869 0
M  V30 15882 H 1517.53 4.14559 0.756203 0
M  V30 15883 H 1516.25 3.01145 1.2641 0
M  V30 15884 H 1514.91 3.57957 -0.791343 0
M  V30 15885 H 1514.56 4.84987 1.33403 0
M  V30 15886 H 1514.26 5.87529 -0.0915006 0
M  V30 15887 H 1515.78 6.05009 0.824395 0
M  V30 15888 H 1517.2 5.561 -1.39376 0
M  V30 15889 H 1515.6 5.5893 -2.18444 0
M  V30 15890 H 1516.67 4.19699 -2.42859 0
M  V30 15891 N 1518.01 0.657889 1.43212 0
M  V30 15892 C 1518.94 -0.0172114 2.33494 0
M  V30 15893 C 1519.92 -0.807087 1.49733 0
M  V30 15894 O 1521.1 -0.767631 1.78385 0
M  V30 15895 C 1518.23 -0.981029 3.33156 0
M  V30 15896 C 1517.19 -0.30094 4.26941 0
M  V30 15897 C 1516.51 -1.37653 5.16678 0
M  V30 15898 C 1517.81 0.809572 5.15988 0
M  V30 15899 H 1519.51 0.736749 2.90194 0
M  V30 15900 H 1517.05 0.355744 1.39537 0
M  V30 15901 H 1519.01 -1.46226 3.95216 0
M  V30 15902 H 1517.73 -1.76621 2.74723 0
M  V30 15903 H 1516.39 0.159893 3.66251 0
M  V30 15904 H 1516.04 -2.15326 4.54581 0
M  V30 15905 H 1515.74 -0.926704 5.80246 0
M  V30 15906 H 1517.26 -1.85903 5.81612 0
M  V30 15907 H 1518.68 0.410297 5.7183 0
M  V30 15908 H 1517.07 1.18415 5.88301 0
M  V30 15909 H 1518.14 1.66558 4.55397 0
M  V30 15910 N 1519.49 -1.52437 0.400108 0
M  V30 15911 C 1520.43 -2.26763 -0.429799 0
M  V30 15912 C 1521.4 -1.28808 -1.0487 0
M  V30 15913 O 1522.59 -1.57655 -1.07468 0
M  V30 15914 C 1519.73 -3.08564 -1.54539 0
M  V30 15915 C 1518.84 -4.21463 -0.948294 0
M  V30 15916 C 1517.98 -4.9064 -2.03584 0
M  V30 15917 C 1517.02 -5.95515 -1.4152 0
M  V30 15918 N 1516.15 -6.58245 -2.4425 0
M  V30 15919 H 1520.99 -2.97256 0.210467 0
M  V30 15920 H 1518.53 -1.46645 0.115627 0
M  V30 15921 H 1520.49 -3.54289 -2.20307 0
M  V30 15922 H 1519.12 -2.40259 -2.15582 0
M  V30 15923 H 1518.17 -3.79974 -0.179918 0
M  V30 15924 H 1519.48 -4.96722 -0.454845 0
M  V30 15925 H 1518.64 -5.39724 -2.77097 0
M  V30 15926 H 1517.37 -4.14929 -2.56291 0
M  V30 15927 H 1516.38 -5.45759 -0.665354 0
M  V30 15928 H 1517.6 -6.73164 -0.89593 0
M  V30 15929 H 1515.55 -5.85369 -2.96107 0
M  V30 15930 H 1515.47 -7.2915 -1.99692 0
M  V30 15931 H 1516.74 -7.1197 -3.17362 0
M  V30 15932 N 1520.96 -0.130252 -1.57061 0
M  V30 15933 C 1522.38 0.393318 -1.8251 0
M  V30 15934 C 1522.73 1.65862 -1.04806 0
M  V30 15935 O 1521.85 2.14473 -0.288118 0
M  V30 15936 C 1522.45 0.720366 -3.31053 0
M  V30 15937 C 1521.01 1.18852 -3.57143 0
M  V30 15938 C 1520.15 0.202964 -2.76556 0
M  V30 15939 H 1523.1 -0.355217 -1.54674 0
M  V30 15940 H 1523.12 1.57671 -3.46295 0
M  V30 15941 H 1522.64 -0.200719 -3.87581 0
M  V30 15942 H 1520.74 2.12612 -3.05985 0
M  V30 15943 H 1520.85 1.12607 -4.65678 0
M  V30 15944 H 1519.21 0.692264 -2.45112 0
M  V30 15945 H 1520 -0.711417 -3.35848 0
M  V30 15946 N 1522.44 1.56945 0.143535 0
M  V30 15947 C 1523.67 1.88067 0.874385 0
M  V30 15948 C 1524.09 0.719645 1.73789 0
M  V30 15949 O 1523.45 -0.330654 1.78259 0
M  V30 15950 C 1523.5 3.17795 1.70408 0
M  V30 15951 O 1522.6 3.01973 2.80867 0
M  V30 15952 H 1521.94 0.617808 0.24333 0
M  V30 15953 H 1524.47 2.04165 0.133309 0
M  V30 15954 H 1524.48 3.49903 2.09838 0
M  V30 15955 H 1523.16 4.019 1.07001 0
M  V30 15956 H 1521.74 2.8128 2.44818 0
M  V30 15957 N 1523.92 -0.412991 1.52093 0
M  V30 15958 C 1524.88 -1.48555 1.7454 0
M  V30 15959 C 1525.88 -1.48563 0.615283 0
M  V30 15960 O 1527.07 -1.50155 0.883119 0
M  V30 15961 C 1524.21 -2.87984 1.82423 0
M  V30 15962 H 1525.4 -1.29945 2.70285 0
M  V30 15963 H 1522.95 -0.643241 1.4245 0
M  V30 15964 H 1523.69 -3.11969 0.885777 0
M  V30 15965 H 1523.47 -2.89381 2.64577 0
M  V30 15966 H 1524.96 -3.65745 2.01545 0
M  V30 15967 N 1525.4 -1.4265 -0.669982 0
M  V30 15968 C 1526.35 -1.46504 -1.7834 0
M  V30 15969 C 1527.32 -0.316478 -1.63057 0
M  V30 15970 O 1528.5 -0.521245 -1.83542 0
M  V30 15971 C 1525.64 -1.37784 -3.16401 0
M  V30 15972 C 1524.75 -2.62714 -3.42937 0
M  V30 15973 C 1523.89 -2.46101 -4.70752 0
M  V30 15974 C 1522.93 -3.66381 -4.90338 0
M  V30 15975 N 1522.07 -3.48681 -6.09398 0
M  V30 15976 H 1526.91 -2.41651 -1.74381 0
M  V30 15977 H 1524.44 -1.1997 -0.851215 0
M  V30 15978 H 1526.4 -1.30725 -3.9619 0
M  V30 15979 H 1525.03 -0.462291 -3.19473 0
M  V30 15980 H 1524.08 -2.8012 -2.57366 0
M  V30 15981 H 1525.39 -3.52108 -3.53301 0
M  V30 15982 H 1524.55 -2.36655 -5.58641 0
M  V30 15983 H 1523.29 -1.54204 -4.6268 0
M  V30 15984 H 1522.29 -3.76254 -4.00891 0
M  V30 15985 H 1523.52 -4.59265 -5.00253 0
M  V30 15986 H 1521.46 -2.59505 -6.02489 0
M  V30 15987 H 1521.38 -4.31666 -6.20645 0
M  V30 15988 H 1522.65 -3.43056 -6.99952 0
M  V30 15989 N 1526.88 0.906753 -1.28902 0
M  V30 15990 C 1527.83 2.03141 -1.13299 0
M  V30 15991 C 1528.82 1.69325 -0.0504114 0
M  V30 15992 O 1530.03 1.78774 -0.209696 0
M  V30 15993 H 1526.4 0.665709 -0.349766 0
M  V30 15994 H 1528.37 2.13441 -2.08531 0
M  V30 15995 C 1527.12 3.37918 -0.818935 0
M  V30 15996 H 1526.44 3.64437 -1.64395 0
M  V30 15997 H 1527.88 4.17318 -0.749753 0
M  V30 15998 C 1526.34 3.33498 0.477582 0
M  V30 15999 O 1526.87 3.7241 1.50578 0
M  V30 16000 N 1525.08 2.86594 0.480862 0
M  V30 16001 H 1524.63 2.55124 -0.356308 0
M  V30 16002 H 1524.58 2.84019 1.34835 0
M  V30 16003 N 1528.36 1.11264 1.11616 0
M  V30 16004 C 1529.6 0.861639 1.83585 0
M  V30 16005 C 1529.93 -0.611221 1.8433 0
M  V30 16006 O 1529.21 -1.45116 1.29505 0
M  V30 16007 C 1529.49 1.42157 3.30852 0
M  V30 16008 C 1529.35 2.96192 3.38512 0
M  V30 16009 C 1530.66 1.07099 4.2687 0
M  V30 16010 H 1527.78 0.314464 0.666545 0
M  V30 16011 H 1530.43 1.37722 1.30892 0
M  V30 16012 H 1528.58 0.983054 3.75857 0
M  V30 16013 H 1530.25 3.48634 3.0208 0
M  V30 16014 H 1528.49 3.32353 2.7879 0
M  V30 16015 H 1529.16 3.30457 4.42156 0
M  V30 16016 H 1531.64 1.44952 3.90036 0
M  V30 16017 H 1530.51 1.48957 5.28302 0
M  V30 16018 H 1530.77 -0.018482 4.42096 0
M  V30 16019 N 1529.83 -1.29188 0.902679 0
M  V30 16020 C 1530.78 -2.25236 0.353959 0
M  V30 16021 C 1531.77 -1.52002 -0.527659 0
M  V30 16022 O 1532.96 -1.73107 -0.369189 0
M  V30 16023 C 1530.09 -3.40785 -0.414803 0
M  V30 16024 C 1529.17 -4.21353 0.481904 0
M  V30 16025 N 1529.57 -4.80143 1.59048 0
M  V30 16026 C 1527.86 -4.45119 0.280241 0
M  V30 16027 C 1528.56 -5.40661 2.14616 0
M  V30 16028 N 1527.54 -5.24213 1.43882 0
M  V30 16029 H 1531.34 -2.68252 1.20076 0
M  V30 16030 H 1528.86 -1.43832 0.754069 0
M  V30 16031 H 1530.85 -4.08662 -0.824674 0
M  V30 16032 H 1529.51 -2.99305 -1.25883 0
M  V30 16033 H 1530.52 -4.78838 1.97319 0
M  V30 16034 H 1527.2 -4.14184 -0.525174 0
M  V30 16035 H 1528.59 -5.97246 3.07809 0
M  V30 16036 N 1531.31 -0.665475 -1.42861 0
M  V30 16037 C 1532.56 -0.184156 -2.01962 0
M  V30 16038 C 1532.89 1.20301 -1.52451 0
M  V30 16039 O 1532.17 1.80573 -0.722756 0
M  V30 16040 C 1532.45 -0.208497 -3.59496 0
M  V30 16041 C 1532.3 -1.63045 -4.19209 0
M  V30 16042 C 1533.62 0.448421 -4.3781 0
M  V30 16043 H 1530.74 -0.0683924 -0.73382 0
M  V30 16044 H 1533.38 -0.84849 -1.70002 0
M  V30 16045 H 1531.53 0.357179 -3.86855 0
M  V30 16046 H 1533.2 -2.24766 -4.02837 0
M  V30 16047 H 1531.45 -2.17401 -3.75392 0
M  V30 16048 H 1532.12 -1.59924 -5.28326 0
M  V30 16049 H 1534.59 -0.0330053 -4.16087 0
M  V30 16050 H 1533.47 0.400713 -5.47435 0
M  V30 16051 H 1533.73 1.52454 -4.14982 0
M  V30 16052 N 1532.79 1.52222 -0.408187 0
M  V30 16053 C 1534.2 1.86598 0.0616213 0
M  V30 16054 C 1534.55 1.32698 1.44519 0
M  V30 16055 O 1533.68 0.665883 2.059 0
M  V30 16056 C 1534.27 3.38592 0.118595 0
M  V30 16057 C 1532.83 3.72611 0.532737 0
M  V30 16058 C 1531.98 2.75744 -0.293356 0
M  V30 16059 H 1534.93 1.45862 -0.625291 0
M  V30 16060 H 1534.95 3.68858 0.934039 0
M  V30 16061 H 1534.46 3.77792 -0.888516 0
M  V30 16062 H 1532.56 3.38989 1.54652 0
M  V30 16063 H 1532.68 4.78294 0.277777 0
M  V30 16064 H 1531.04 2.53527 0.244166 0
M  V30 16065 H 1531.82 3.17783 -1.2988 0
M  V30 16066 N 1534.27 0.138579 1.5699 0
M  V30 16067 C 1535.5 -0.521049 1.99922 0
M  V30 16068 C 1535.91 -1.59508 1.01754 0
M  V30 16069 O 1535.25 -1.83699 0.00521913 0
M  V30 16070 C 1535.31 -1.18856 3.39284 0
M  V30 16071 C 1534.97 -0.260145 4.56259 0
M  V30 16072 C 1535.97 0.508919 5.17403 0
M  V30 16073 C 1533.66 -0.165504 5.02027 0
M  V30 16074 C 1535.65 1.36016 6.22719 0
M  V30 16075 C 1533.34 0.689346 6.07199 0
M  V30 16076 C 1534.34 1.45079 6.67414 0
M  V30 16077 O 1534.02 2.29141 7.70551 0
M  V30 16078 H 1533.76 -0.140889 0.661155 0
M  V30 16079 H 1536.31 0.227618 2.04135 0
M  V30 16080 H 1534.54 -1.9847 3.31883 0
M  V30 16081 H 1536.23 -1.74706 3.66377 0
M  V30 16082 H 1536.99 0.445787 4.82947 0
M  V30 16083 H 1532.87 -0.747903 4.54893 0
M  V30 16084 H 1536.42 1.95496 6.69647 0
M  V30 16085 H 1532.31 0.7538 6.41084 0
M  V30 16086 H 1533.08 2.22296 7.87735 0
M  V30 16087 N 1535.75 -1.57019 -0.13521 0
M  V30 16088 C 1536.97 -1.8816 -0.860434 0
M  V30 16089 C 1537.39 -0.728081 -1.74196 0
M  V30 16090 O 1536.75 0.301745 -1.79988 0
M  V30 16091 C 1536.8 -3.1864 -1.70737 0
M  V30 16092 O 1536.52 -4.29549 -0.861347 0
M  V30 16093 C 1538.02 -3.63376 -2.53915 0
M  V30 16094 H 1535.24 -0.623408 -0.248201 0
M  V30 16095 H 1537.78 -2.04121 -0.124461 0
M  V30 16096 H 1535.94 -3.04397 -2.39627 0
M  V30 16097 H 1536.35 -5.04233 -1.44393 0
M  V30 16098 H 1537.83 -4.57478 -3.08897 0
M  V30 16099 H 1538.3 -2.89238 -3.30512 0
M  V30 16100 H 1538.91 -3.80352 -1.90296 0
M  V30 16101 N 1537.22 0.404919 -1.52309 0
M  V30 16102 C 1538.16 1.51276 -1.72186 0
M  V30 16103 C 1539.17 1.5125 -0.602276 0
M  V30 16104 O 1540.36 1.55439 -0.877549 0
M  V30 16105 C 1537.46 2.90162 -1.75099 0
M  V30 16106 C 1536.63 3.14333 -3.04161 0
M  V30 16107 C 1535.69 4.33113 -2.9883 0
M  V30 16108 O 1534.72 4.30189 -3.72728 0
M  V30 16109 N 1535.92 5.38451 -2.16911 0
M  V30 16110 H 1538.68 1.34618 -2.67765 0
M  V30 16111 H 1536.24 0.594264 -1.50599 0
M  V30 16112 H 1538.24 3.67697 -1.69058 0
M  V30 16113 H 1536.81 3.00257 -0.869756 0
M  V30 16114 H 1536.03 2.24803 -3.23817 0
M  V30 16115 H 1537.31 3.27327 -3.89531 0
M  V30 16116 H 1536.71 5.43676 -1.56309 0
M  V30 16117 H 1535.27 6.14715 -2.16724 0
M  V30 16118 N 1538.7 1.43003 0.662408 0
M  V30 16119 C 1539.67 1.4713 1.75743 0
M  V30 16120 C 1540.67 0.357203 1.56782 0
M  V30 16121 O 1541.86 0.618566 1.62848 0
M  V30 16122 C 1538.99 1.31499 3.14517 0
M  V30 16123 H 1540.18 2.44641 1.73467 0
M  V30 16124 H 1537.73 1.29633 0.873208 0
M  V30 16125 H 1538.47 0.349596 3.2241 0
M  V30 16126 H 1538.25 2.12253 3.29683 0
M  V30 16127 H 1539.74 1.37298 3.94384 0
M  V30 16128 N 1540.18 -0.899904 1.29381 0
M  V30 16129 C 1541.41 -1.68911 1.20349 0
M  V30 16130 C 1541.83 -1.86657 -0.232523 0
M  V30 16131 O 1541.19 -1.38674 -1.16787 0
M  V30 16132 C 1541.24 -3.05124 1.92177 0
M  V30 16133 O 1540.34 -3.93358 1.23867 0
M  V30 16134 H 1539.68 -0.516698 0.417036 0
M  V30 16135 H 1542.21 -1.12422 1.70946 0
M  V30 16136 H 1542.22 -3.55267 2.00623 0
M  V30 16137 H 1540.9 -2.91525 2.96624 0
M  V30 16138 H 1539.47 -3.51793 1.23677 0
M  V30 16139 N 1541.66 -1.11854 -1.11024 0
M  V30 16140 C 1542.88 -0.892999 -1.8719 0
M  V30 16141 C 1543.31 0.552058 -1.79816 0
M  V30 16142 O 1542.67 1.39025 -1.16369 0
M  V30 16143 C 1542.71 -1.3647 -3.33779 0
M  V30 16144 O 1541.82 -0.539202 -4.0886 0
M  V30 16145 H 1541.16 -0.321319 -0.581076 0
M  V30 16146 H 1543.69 -1.4891 -1.4031 0
M  V30 16147 H 1543.7 -1.3611 -3.84627 0
M  V30 16148 H 1542.37 -2.41694 -3.38462 0
M  V30 16149 H 1540.95 -0.60927 -3.67889 0
M  V30 16150 N 1543.14 1.28707 -0.909517 0
M  V30 16151 C 1544.38 1.94768 -0.539413 0
M  V30 16152 C 1544.71 1.7198 0.919133 0
M  V30 16153 O 1543.98 1.0571 1.64931 0
M  V30 16154 H 1542.56 0.720693 -0.196496 0
M  V30 16155 H 1545.22 1.56772 -1.15795 0
M  V30 16156 H 1544.31 3.03436 -0.730281 0
M  V30 16157 N 1544.61 0.673042 1.42506 0
M  V30 16158 C 1545.86 0.194576 2.01563 0
M  V30 16159 C 1546.19 -1.19829 1.53203 0
M  V30 16160 O 1545.44 -1.8181 0.724131 0
M  V30 16161 C 1545.74 0.175896 3.56967 0
M  V30 16162 C 1545.41 1.51319 4.24751 0
M  V30 16163 C 1544.07 1.87936 4.42983 0
M  V30 16164 C 1546.42 2.394 4.62965 0
M  V30 16165 C 1543.75 3.12261 4.96699 0
M  V30 16166 C 1546.1 3.63036 5.18061 0
M  V30 16167 C 1544.77 3.99824 5.34506 0
M  V30 16168 H 1544.04 0.0712004 0.737571 0
M  V30 16169 H 1546.68 0.867679 1.70715 0
M  V30 16170 H 1544.99 -0.580712 3.87473 0
M  V30 16171 H 1546.69 -0.211488 4.00442 0
M  V30 16172 H 1543.28 1.21834 4.10919 0
M  V30 16173 H 1547.46 2.12397 4.48555 0
M  V30 16174 H 1542.72 3.40787 5.07617 0
M  V30 16175 H 1546.89 4.31491 5.46616 0
M  V30 16176 H 1544.52 4.96236 5.75894 0
M  V30 16177 N 1546.09 -1.52004 0.416254 0
M  V30 16178 C 1547 -2.30947 -0.412403 0
M  V30 16179 C 1548.02 -1.38969 -1.04707 0
M  V30 16180 O 1549.19 -1.72044 -1.04703 0
M  V30 16181 C 1546.26 -3.12078 -1.51024 0
M  V30 16182 C 1545.32 -4.19805 -0.897892 0
M  V30 16183 C 1544.55 -4.97059 -1.94341 0
M  V30 16184 O 1544.78 -4.74695 -3.16261 0
M  V30 16185 O 1543.71 -5.81715 -1.54567 0
M  V30 16186 H 1547.54 -3.02817 0.231473 0
M  V30 16187 H 1545.12 -1.4832 0.179283 0
M  V30 16188 H 1547 -3.6258 -2.14741 0
M  V30 16189 H 1545.68 -2.42995 -2.13858 0
M  V30 16190 H 1544.59 -3.73433 -0.223236 0
M  V30 16191 H 1545.92 -4.91201 -0.31336 0
M  V30 16192 N 1547.57 -0.146903 -1.56914 0
M  V30 16193 C 1548.5 0.830846 -2.12538 0
M  V30 16194 C 1549.48 1.24243 -1.04892 0
M  V30 16195 O 1550.67 1.33855 -1.32721 0
M  V30 16196 C 1547.79 2.11561 -2.64499 0
M  V30 16197 C 1546.84 1.84995 -3.8429 0
M  V30 16198 S 1547.67 1.04104 -5.25283 0
M  V30 16199 C 1548.83 2.337 -5.80633 0
M  V30 16200 H 1549.06 0.357829 -2.95139 0
M  V30 16201 H 1546.59 0.0673772 -1.54253 0
M  V30 16202 H 1548.55 2.85366 -2.95087 0
M  V30 16203 H 1547.21 2.55977 -1.82028 0
M  V30 16204 H 1546.41 2.8026 -4.18892 0
M  V30 16205 H 1546.01 1.19298 -3.54463 0
M  V30 16206 H 1548.3 3.29351 -5.92059 0
M  V30 16207 H 1549.24 2.03603 -6.78197 0
M  V30 16208 H 1549.65 2.44344 -5.08878 0
M  V30 16209 N 1549.05 1.57088 0.126881 0
M  V30 16210 C 1550.29 1.8559 0.832347 0
M  V30 16211 C 1550.65 0.733619 1.77865 0
M  V30 16212 O 1549.94 -0.266984 1.89731 0
M  V30 16213 C 1550.14 3.18225 1.62688 0
M  V30 16214 C 1549.97 4.43248 0.759021 0
M  V30 16215 C 1548.74 5.03577 0.416881 0
M  V30 16216 C 1550.93 5.14237 0.080205 0
M  V30 16217 N 1548.92 6.12156 -0.462469 0
M  V30 16218 C 1550.29 6.16494 -0.658463 0
M  V30 16219 C 1552.34 4.979 0.00296555 0
M  V30 16220 C 1551.04 7.04179 -1.46711 0
M  V30 16221 C 1553.07 5.86066 -0.792477 0
M  V30 16222 C 1552.43 6.87819 -1.51936 0
M  V30 16223 H 1548.53 0.729476 0.281759 0
M  V30 16224 H 1551.12 1.94461 0.0965231 0
M  V30 16225 H 1549.29 3.10465 2.3338 0
M  V30 16226 H 1551.02 3.34562 2.27707 0
M  V30 16227 H 1547.77 4.67506 0.757316 0
M  V30 16228 H 1548.2 6.71074 -0.893761 0
M  V30 16229 H 1552.84 4.192 0.55059 0
M  V30 16230 H 1550.56 7.82293 -2.02592 0
M  V30 16231 H 1554.14 5.75491 -0.854496 0
M  V30 16232 H 1553.02 7.54861 -2.12498 0
M  V30 16233 N 1550.53 -0.396836 1.52522 0
M  V30 16234 C 1551.47 -1.48427 1.76743 0
M  V30 16235 C 1552.44 -1.54481 0.610321 0
M  V30 16236 O 1553.63 -1.7086 0.849201 0
M  V30 16237 C 1550.77 -2.85744 1.93505 0
M  V30 16238 C 1549.88 -2.88904 3.21183 0
M  V30 16239 C 1549.02 -4.17598 3.28307 0
M  V30 16240 C 1548.06 -4.14779 4.50138 0
M  V30 16241 N 1547.19 -5.35065 4.54587 0
M  V30 16242 H 1552.03 -1.27075 2.69548 0
M  V30 16243 H 1549.57 -0.61661 1.33553 0
M  V30 16244 H 1551.53 -3.65474 2.01208 0
M  V30 16245 H 1550.16 -3.05564 1.04069 0
M  V30 16246 H 1549.21 -2.01592 3.22591 0
M  V30 16247 H 1550.52 -2.82688 4.10961 0
M  V30 16248 H 1549.68 -5.05727 3.35149 0
M  V30 16249 H 1548.41 -4.26526 2.36489 0
M  V30 16250 H 1547.42 -3.25039 4.4343 0
M  V30 16251 H 1548.64 -4.07481 5.43264 0
M  V30 16252 H 1546.59 -5.44638 3.65658 0
M  V30 16253 H 1546.51 -5.30894 5.38227 0
M  V30 16254 H 1547.78 -6.25114 4.65675 0
M  V30 16255 N 1552.01 -1.43353 -0.654814 0
M  V30 16256 C 1552.95 -1.48652 -1.789 0
M  V30 16257 C 1553.95 -0.360274 -1.65525 0
M  V30 16258 O 1555.15 -0.534194 -1.71891 0
M  V30 16259 H 1551.53 -0.465987 -0.590221 0
M  V30 16260 H 1553.5 -2.44158 -1.7155 0
M  V30 16261 C 1552.25 -1.42512 -3.17152 0
M  V30 16262 H 1551.57 -2.28479 -3.28081 0
M  V30 16263 H 1553.01 -1.50282 -3.96474 0
M  V30 16264 C 1551.47 -0.142511 -3.36598 0
M  V30 16265 O 1552 0.796821 -3.93718 0
M  V30 16266 N 1550.21 -0.0532157 -2.90551 0
M  V30 16267 H 1549.75 -0.818421 -2.44253 0
M  V30 16268 H 1549.71 0.80427 -3.03939 0
M  V30 16269 N 1553.48 0.89303 -1.29857 0
M  V30 16270 C 1554.43 2.01928 -1.15447 0
M  V30 16271 C 1555.43 1.69262 -0.0683677 0
M  V30 16272 O 1556.63 1.78542 -0.228646 0
M  V30 16273 H 1553.01 0.661961 -0.356807 0
M  V30 16274 H 1554.98 2.11218 -2.10784 0
M  V30 16275 C 1553.73 3.37031 -0.85473 0
M  V30 16276 H 1553.05 3.62673 -1.68251 0
M  V30 16277 H 1554.49 4.165 -0.793973 0
M  V30 16278 C 1552.95 3.33986 0.442183 0
M  V30 16279 O 1553.48 3.73986 1.4662 0
M  V30 16280 N 1551.68 2.87088 0.450438 0
M  V30 16281 H 1551.23 2.54732 -0.383347 0
M  V30 16282 H 1551.19 2.85433 1.31815 0
M  V30 16283 N 1554.96 1.12442 1.10429 0
M  V30 16284 C 1556.19 0.902914 1.86714 0
M  V30 16285 C 1556.61 -0.542514 1.80107 0
M  V30 16286 O 1555.97 -1.38406 1.17105 0
M  V30 16287 C 1556.02 1.38238 3.33051 0
M  V30 16288 O 1555.12 0.560877 4.08568 0
M  V30 16289 H 1554.46 0.324397 0.579364 0
M  V30 16290 H 1556.99 1.49652 1.39519 0
M  V30 16291 H 1557 1.38148 3.839 0
M  V30 16292 H 1555.68 2.43486 3.37176 0
M  V30 16293 H 1554.25 0.628771 3.67561 0
M  V30 16294 N 1556.44 -1.28223 0.91633 0
M  V30 16295 C 1557.69 -1.9448 0.549734 0
M  V30 16296 C 1558.01 -1.72465 -0.909999 0
M  V30 16297 O 1557.28 -1.06583 -1.64368 0
M  V30 16298 H 1555.86 -0.719641 0.200315 0
M  V30 16299 H 1558.52 -1.56156 1.16625 0
M  V30 16300 H 1557.62 -3.03044 0.746363 0
M  V30 16301 N 1557.92 -0.68059 -1.42147 0
M  V30 16302 C 1559.33 -0.350691 -1.55699 0
M  V30 16303 C 1559.53 1.1435 -1.6591 0
M  V30 16304 O 1558.59 1.92905 -1.62923 0
M  V30 16305 C 1559.9 -1.08608 -2.80401 0
M  V30 16306 C 1561.45 -1.06897 -2.9418 0
M  V30 16307 C 1561.93 -1.78581 -4.2175 0
M  V30 16308 N 1563.42 -1.75477 -4.28675 0
M  V30 16309 C 1564.15 -2.27794 -5.26211 0
M  V30 16310 N 1563.65 -2.88518 -6.29865 0
M  V30 16311 N 1565.44 -2.18135 -5.18048 0
M  V30 16312 H 1557.59 -1.64988 -1.33763 0
M  V30 16313 H 1559.85 -0.695411 -0.644289 0
M  V30 16314 H 1559.56 -2.14113 -2.79014 0
M  V30 16315 H 1559.43 -0.655022 -3.71469 0
M  V30 16316 H 1561.82 -0.0222464 -2.95092 0
M  V30 16317 H 1561.9 -1.53897 -2.04327 0
M  V30 16318 H 1561.55 -2.83225 -4.21599 0
M  V30 16319 H 1561.48 -1.29027 -5.10548 0
M  V30 16320 H 1563.97 -1.31191 -3.54397 0
M  V30 16321 H 1564.28 -3.26043 -7.00654 0
M  V30 16322 H 1562.63 -2.92589 -6.3041 0
M  V30 16323 H 1565.82 -1.7038 -4.35991 0
M  V30 16324 H 1565.99 -2.59213 -5.93896 0
M  V30 16325 N 1559.4 1.51781 -0.424309 0
M  V30 16326 C 1560.81 1.86653 0.0418266 0
M  V30 16327 C 1561.16 1.34224 1.43103 0
M  V30 16328 O 1560.28 0.687684 2.05183 0
M  V30 16329 C 1560.88 3.38699 0.0826759 0
M  V30 16330 C 1559.44 3.73155 0.493186 0
M  V30 16331 C 1558.58 2.75417 -0.322586 0
M  V30 16332 H 1561.53 1.45191 -0.640726 0
M  V30 16333 H 1561.56 3.69828 0.894864 0
M  V30 16334 H 1561.07 3.76829 -0.928536 0
M  V30 16335 H 1559.17 3.4061 1.51048 0
M  V30 16336 H 1559.28 4.78562 0.227032 0
M  V30 16337 H 1557.65 2.53772 0.217262 0
M  V30 16338 H 1558.43 3.16388 -1.33243 0
M  V30 16339 N 1560.87 0.155222 1.56834 0
M  V30 16340 C 1561.8 -0.777258 2.20184 0
M  V30 16341 C 1562.78 -1.25102 1.15254 0
M  V30 16342 O 1563.97 -1.3071 1.43627 0
M  V30 16343 C 1561.1 -2.01326 2.82993 0
M  V30 16344 C 1560.05 -1.67596 3.93822 0
M  V30 16345 C 1559.38 -2.98529 4.43604 0
M  V30 16346 C 1560.68 -0.916302 5.142 0
M  V30 16347 H 1562.37 -0.249257 2.98361 0
M  V30 16348 H 1559.92 -0.118448 1.43512 0
M  V30 16349 H 1561.87 -2.67048 3.2598 0
M  V30 16350 H 1560.6 -2.56513 2.0216 0
M  V30 16351 H 1559.26 -1.0425 3.51465 0
M  V30 16352 H 1558.9 -3.51723 3.59583 0
M  V30 16353 H 1558.6 -2.76721 5.18362 0
M  V30 16354 H 1560.13 -3.65308 4.89267 0
M  V30 16355 H 1561.54 -1.47577 5.5398 0
M  V30 16356 H 1559.94 -0.797856 5.94772 0
M  V30 16357 H 1561.01 0.0904351 4.84816 0
M  V30 16358 N 1562.35 -1.57153 -0.118549 0
M  V30 16359 C 1563.28 -1.97022 -1.1711 0
M  V30 16360 C 1564.3 -0.869599 -1.37629 0
M  V30 16361 O 1565.49 -1.14788 -1.36696 0
M  V30 16362 C 1562.59 -2.25371 -2.53103 0
M  V30 16363 C 1561.76 -3.56677 -2.5318 0
M  V30 16364 C 1560.82 -3.73233 -3.70922 0
M  V30 16365 O 1559.84 -4.4534 -3.54487 0
M  V30 16366 N 1561.05 -3.12036 -4.89504 0
M  V30 16367 H 1563.81 -2.87921 -0.831959 0
M  V30 16368 H 1561.37 -1.58947 -0.307817 0
M  V30 16369 H 1563.36 -2.33662 -3.3043 0
M  V30 16370 H 1561.93 -1.40597 -2.79197 0
M  V30 16371 H 1561.15 -3.5957 -1.61564 0
M  V30 16372 H 1562.44 -4.42982 -2.50288 0
M  V30 16373 H 1561.84 -2.53422 -5.05761 0
M  V30 16374 H 1560.4 -3.25846 -5.64506 0
M  V30 16375 N 1563.83 0.388742 -1.5273 0
M  V30 16376 C 1564.74 1.49916 -1.8045 0
M  V30 16377 C 1565.76 1.59679 -0.691282 0
M  V30 16378 O 1566.93 1.7601 -0.978898 0
M  V30 16379 C 1564 2.85445 -1.96779 0
M  V30 16380 C 1563.06 2.85402 -3.20693 0
M  V30 16381 C 1562.29 4.14466 -3.36234 0
M  V30 16382 O 1562.51 5.09436 -2.56576 0
M  V30 16383 O 1561.45 4.2169 -4.29489 0
M  V30 16384 H 1565.27 1.29423 -2.74743 0
M  V30 16385 H 1562.86 0.576607 -1.37825 0
M  V30 16386 H 1564.74 3.65791 -2.09224 0
M  V30 16387 H 1563.42 3.05964 -1.05676 0
M  V30 16388 H 1562.32 2.03836 -3.1369 0
M  V30 16389 H 1563.66 2.69835 -4.11643 0
M  V30 16390 N 1565.31 1.43698 0.647203 0
M  V30 16391 C 1566.54 1.49085 1.43462 0
M  V30 16392 C 1566.95 0.110605 1.88476 0
M  V30 16393 O 1566.31 -0.880365 1.59862 0
M  V30 16394 C 1566.36 2.44186 2.66562 0
M  V30 16395 O 1566.08 3.76844 2.23429 0
M  V30 16396 C 1567.58 2.58876 3.59858 0
M  V30 16397 H 1564.8 0.506148 0.440517 0
M  V30 16398 H 1567.34 1.88502 0.792931 0
M  V30 16399 H 1565.5 2.07949 3.26858 0
M  V30 16400 H 1565.91 4.2804 3.0312 0
M  V30 16401 H 1567.39 3.29482 4.42883 0
M  V30 16402 H 1567.86 1.63567 4.07606 0
M  V30 16403 H 1568.47 2.95949 3.05441 0
M  V30 16404 N 1566.79 -0.886131 1.30328 0
M  V30 16405 C 1567.75 -1.97328 1.16594 0
M  V30 16406 C 1568.75 -1.60504 0.0975023 0
M  V30 16407 O 1569.94 -1.70739 0.345524 0
M  V30 16408 C 1567.07 -3.31714 0.786045 0
M  V30 16409 H 1568.26 -2.1094 2.13177 0
M  V30 16410 H 1565.82 -1.07238 1.13708 0
M  V30 16411 H 1566.55 -3.23804 -0.179334 0
M  V30 16412 H 1566.34 -3.5981 1.55817 0
M  V30 16413 H 1567.83 -4.11461 0.71339 0
M  V30 16414 N 1568.26 -1.13026 -1.09832 0
M  V30 16415 C 1569.68 -0.902826 -1.6342 0
M  V30 16416 C 1570.03 0.561547 -1.87992 0
M  V30 16417 O 1569.15 1.42735 -1.62652 0
M  V30 16418 C 1569.75 -1.6324 -2.96881 0
M  V30 16419 C 1568.31 -1.45095 -3.4731 0
M  V30 16420 C 1567.45 -1.66431 -2.21802 0
M  V30 16421 H 1570.4 -1.28414 -0.932492 0
M  V30 16422 H 1570.42 -1.08706 -3.64641 0
M  V30 16423 H 1569.94 -2.69816 -2.78964 0
M  V30 16424 H 1568.04 -0.408031 -3.70359 0
M  V30 16425 H 1568.15 -2.21123 -4.25019 0
M  V30 16426 H 1566.51 -1.08885 -2.30252 0
M  V30 16427 H 1567.3 -2.74317 -2.0641 0
M  V30 16428 N 1569.74 1.27735 -0.923117 0
M  V30 16429 C 1570.99 1.9457 -0.561149 0
M  V30 16430 C 1571.32 1.72591 0.896805 0
M  V30 16431 O 1570.57 1.04546 1.65434 0
M  V30 16432 C 1570.87 3.47677 -0.827959 0
M  V30 16433 C 1570.54 3.8977 -2.26693 0
M  V30 16434 C 1569.2 4.00973 -2.66033 0
M  V30 16435 C 1571.55 4.11173 -3.20291 0
M  V30 16436 C 1568.88 4.30963 -3.98105 0
M  V30 16437 C 1571.23 4.42645 -4.51938 0
M  V30 16438 C 1569.9 4.52061 -4.91119 0
M  V30 16439 H 1569.17 0.711981 -0.205339 0
M  V30 16440 H 1571.81 1.51894 -1.16621 0
M  V30 16441 H 1570.12 3.91549 -0.140178 0
M  V30 16442 H 1571.81 3.97523 -0.526932 0
M  V30 16443 H 1568.4 3.81584 -1.95171 0
M  V30 16444 H 1572.59 4.01962 -2.91102 0
M  V30 16445 H 1567.84 4.36461 -4.28149 0
M  V30 16446 H 1572.02 4.58153 -5.2447 0
M  V30 16447 H 1569.65 4.75053 -5.93488 0
M  V30 16448 N 1571.22 0.688118 1.41784 0
M  V30 16449 C 1572.47 0.215517 2.00948 0
M  V30 16450 C 1572.79 -1.18656 1.54744 0
M  V30 16451 O 1572.06 -1.79925 0.774831 0
M  V30 16452 H 1570.64 0.0766876 0.743053 0
M  V30 16453 H 1573.3 0.88761 1.73515 0
M  V30 16454 H 1572.4 0.227139 3.11272 0
M  V30 16455 N 1572.7 -1.51554 0.432352 0
M  V30 16456 C 1573.94 -2.03954 -0.135014 0
M  V30 16457 C 1574.3 -1.30972 -1.40393 0
M  V30 16458 O 1575.5 -1.73719 -2.05122 0
M  V30 16459 C 1573.77 -3.55646 -0.35361 0
M  V30 16460 S 1575.33 -4.29781 -0.885096 0
M  V30 16461 H 1572.15 -0.710178 -0.0341871 0
M  V30 16462 H 1574.75 -1.86365 0.590612 0
M  V30 16463 H 1573.46 -4.06333 0.576335 0
M  V30 16464 H 1572.99 -3.7752 -1.10646 0
M  V30 16465 H 1575 -4.46564 -2.16322 0
M  V30 16466 N 1574.18 -0.163538 -1.56749 0
M  V30 16467 C 1575.12 0.769787 -2.17584 0
M  V30 16468 C 1576.09 1.23246 -1.11354 0
M  V30 16469 O 1577.28 1.30203 -1.3947 0
M  V30 16470 C 1574.42 1.99685 -2.81461 0
M  V30 16471 C 1573.53 1.57846 -4.0213 0
M  V30 16472 C 1572.67 2.75858 -4.53955 0
M  V30 16473 C 1571.71 2.30473 -5.67053 0
M  V30 16474 N 1570.84 3.41551 -6.13423 0
M  V30 16475 H 1575.68 0.244221 -2.96998 0
M  V30 16476 H 1573.22 0.108821 -1.46697 0
M  V30 16477 H 1575.18 2.71643 -3.16648 0
M  V30 16478 H 1573.81 2.49624 -2.04664 0
M  V30 16479 H 1572.86 0.755907 -3.72814 0
M  V30 16480 H 1574.17 1.20525 -4.8402 0
M  V30 16481 H 1573.33 3.55984 -4.91284 0
M  V30 16482 H 1572.06 3.16434 -3.71107 0
M  V30 16483 H 1571.07 1.48791 -5.29284 0
M  V30 16484 H 1572.29 1.90964 -6.51698 0
M  V30 16485 H 1570.24 3.81717 -5.33506 0
M  V30 16486 H 1570.16 3.08298 -6.90281 0
M  V30 16487 H 1571.43 4.21985 -6.554 0
M  V30 16488 N 1575.65 1.57214 0.110213 0
M  V30 16489 C 1576.9 1.84498 0.815059 0
M  V30 16490 C 1577.22 0.750531 1.80628 0
M  V30 16491 O 1578.42 0.910042 2.55794 0
M  V30 16492 C 1576.88 3.27138 1.50028 0
M  V30 16493 C 1576.49 4.44616 0.549603 0
M  V30 16494 C 1578.23 3.63662 2.18975 0
M  V30 16495 C 1576.14 5.78285 1.23855 0
M  V30 16496 H 1575.07 0.688165 0.308132 0
M  V30 16497 H 1577.72 1.83374 0.0678595 0
M  V30 16498 H 1576.1 3.22758 2.29441 0
M  V30 16499 H 1577.27 4.60312 -0.211944 0
M  V30 16500 H 1575.59 4.16387 -0.0333571 0
M  V30 16501 H 1578.19 4.60804 2.71226 0
M  V30 16502 H 1578.53 2.91532 2.97178 0
M  V30 16503 H 1579.06 3.69865 1.46439 0
M  V30 16504 H 1575.8 6.53608 0.497629 0
M  V30 16505 H 1575.32 5.66459 1.9719 0
M  V30 16506 H 1577 6.22338 1.76929 0
M  V30 16507 N 1577.13 -0.380637 1.52934 0
M  V30 16508 C 1578.1 -1.44819 1.77652 0
M  V30 16509 C 1579.1 -1.47224 0.646657 0
M  V30 16510 O 1580.29 -1.48248 0.91477 0
M  V30 16511 C 1577.42 -2.8405 1.8849 0
M  V30 16512 H 1578.61 -1.24183 2.72981 0
M  V30 16513 H 1576.16 -0.61288 1.43783 0
M  V30 16514 H 1576.9 -3.1002 0.951751 0
M  V30 16515 H 1576.68 -2.83704 2.70655 0
M  V30 16516 H 1578.17 -3.61388 2.09257 0
M  V30 16517 N 1578.61 -1.44039 -0.639573 0
M  V30 16518 C 1579.86 -1.46594 -1.40136 0
M  V30 16519 C 1580.19 -0.0949646 -1.93968 0
M  V30 16520 O 1579.46 0.886201 -1.73138 0
M  V30 16521 C 1579.75 -2.51947 -2.57283 0
M  V30 16522 C 1579.6 -3.98371 -2.08855 0
M  V30 16523 C 1580.92 -2.53891 -3.59482 0
M  V30 16524 H 1578.04 -0.533759 -0.508203 0
M  V30 16525 H 1580.68 -1.75669 -0.723898 0
M  V30 16526 H 1578.83 -2.27285 -3.15077 0
M  V30 16527 H 1580.5 -4.34137 -1.55956 0
M  V30 16528 H 1578.75 -4.10551 -1.40109 0
M  V30 16529 H 1579.42 -4.67721 -2.93157 0
M  V30 16530 H 1581.89 -2.75906 -3.11473 0
M  V30 16531 H 1580.77 -3.29524 -4.38982 0
M  V30 16532 H 1581.03 -1.57774 -4.12989 0
M  V30 16533 N 1580.09 0.879207 -1.30796 0
M  V30 16534 C 1581.04 2.00692 -1.17582 0
M  V30 16535 C 1582.03 1.6918 -0.0863163 0
M  V30 16536 O 1583.24 1.78289 -0.24757 0
M  V30 16537 H 1579.61 0.65814 -0.363808 0
M  V30 16538 H 1581.58 2.0897 -2.13012 0
M  V30 16539 C 1580.33 3.36105 -0.890429 0
M  V30 16540 H 1579.65 3.60868 -1.72088 0
M  V30 16541 H 1581.09 4.15634 -0.838103 0
M  V30 16542 C 1579.55 3.34436 0.406734 0
M  V30 16543 O 1580.08 3.7552 1.42645 0
M  V30 16544 N 1578.29 2.87549 0.419963 0
M  V30 16545 H 1577.84 2.54311 -0.410343 0
M  V30 16546 H 1577.79 2.86815 1.28781 0
M  V30 16547 N 1581.57 1.13606 1.09231 0
M  V30 16548 C 1582.98 0.91148 1.62938 0
M  V30 16549 C 1583.33 -0.55157 1.88287 0
M  V30 16550 O 1582.45 -1.4187 1.63407 0
M  V30 16551 C 1583.05 1.64812 2.96011 0
M  V30 16552 C 1581.61 1.46935 3.46536 0
M  V30 16553 C 1580.76 1.67605 2.20916 0
M  V30 16554 H 1583.71 1.28907 0.925669 0
M  V30 16555 H 1583.73 1.10638 3.6406 0
M  V30 16556 H 1583.24 2.71291 2.77529 0
M  V30 16557 H 1581.34 0.427667 3.70138 0
M  V30 16558 H 1581.45 2.23374 4.2384 0
M  V30 16559 H 1579.82 1.10105 2.29672 0
M  V30 16560 H 1580.6 2.75408 2.04952 0
M  V30 16561 N 1583.05 -1.27244 0.929878 0
M  V30 16562 C 1583.98 -2.29161 0.448066 0
M  V30 16563 C 1584.96 -1.62806 -0.492776 0
M  V30 16564 O 1586.14 -1.90098 -0.39706 0
M  V30 16565 C 1583.27 -3.46019 -0.298002 0
M  V30 16566 C 1582.23 -4.24384 0.555211 0
M  V30 16567 C 1581.55 -5.33741 -0.320153 0
M  V30 16568 C 1582.85 -4.89535 1.8208 0
M  V30 16569 H 1584.55 -2.69712 1.29983 0
M  V30 16570 H 1582.09 -1.29659 0.626466 0
M  V30 16571 H 1584.04 -4.16419 -0.646024 0
M  V30 16572 H 1582.77 -3.0439 -1.18381 0
M  V30 16573 H 1581.43 -3.55733 0.885971 0
M  V30 16574 H 1581.08 -4.88354 -1.20498 0
M  V30 16575 H 1580.78 -5.8708 0.247241 0
M  V30 16576 H 1582.3 -6.06982 -0.663697 0
M  V30 16577 H 1583.71 -5.52209 1.54071 0
M  V30 16578 H 1582.11 -5.52941 2.33186 0
M  V30 16579 H 1583.18 -4.13113 2.53901 0
M  V30 16580 N 1584.52 -0.695628 -1.41417 0
M  V30 16581 C 1585.94 -0.367185 -1.55319 0
M  V30 16582 C 1586.14 1.12584 -1.67114 0
M  V30 16583 O 1585.2 1.91166 -1.64959 0
M  V30 16584 C 1586.51 -1.11576 -2.79233 0
M  V30 16585 C 1588.06 -1.10011 -2.9303 0
M  V30 16586 C 1588.53 -1.83044 -4.19832 0
M  V30 16587 N 1590.02 -1.80014 -4.26789 0
M  V30 16588 C 1590.76 -2.33362 -5.23765 0
M  V30 16589 N 1590.25 -2.95182 -6.26769 0
M  V30 16590 N 1592.05 -2.23618 -5.15705 0
M  V30 16591 H 1584.2 -1.66398 -1.32006 0
M  V30 16592 H 1586.46 -0.702205 -0.636877 0
M  V30 16593 H 1586.17 -2.1706 -2.76727 0
M  V30 16594 H 1586.04 -0.694385 -3.70753 0
M  V30 16595 H 1588.43 -0.0535436 -2.95051 0
M  V30 16596 H 1588.51 -1.56055 -2.02683 0
M  V30 16597 H 1588.15 -2.8768 -4.18572 0
M  V30 16598 H 1588.08 -1.34434 -5.09151 0
M  V30 16599 H 1590.57 -1.34942 -3.52986 0
M  V30 16600 H 1590.89 -3.33456 -6.97156 0
M  V30 16601 H 1589.23 -2.99259 -6.27271 0
M  V30 16602 H 1592.42 -1.74994 -4.3416 0
M  V30 16603 H 1592.6 -2.65497 -5.91113 0
M  V30 16604 N 1586 1.51322 -0.440383 0
M  V30 16605 C 1586.96 2.26388 0.357911 0
M  V30 16606 C 1587.96 1.2995 0.947083 0
M  V30 16607 O 1589.15 1.53637 0.821057 0
M  V30 16608 C 1586.29 3.05797 1.50669 0
M  V30 16609 H 1587.48 2.98396 -0.300002 0
M  V30 16610 H 1585.03 1.55096 -0.193628 0
M  V30 16611 H 1585.77 2.38213 2.20057 0
M  V30 16612 H 1585.55 3.76634 1.09037 0
M  V30 16613 H 1587.04 3.6265 2.07062 0
M  V30 16614 N 1587.48 0.171848 1.5666 0
M  V30 16615 C 1588.73 -0.473669 1.97191 0
M  V30 16616 C 1589.06 -1.6286 1.05784 0
M  V30 16617 O 1588.33 -1.94216 0.105084 0
M  V30 16618 C 1588.62 -0.956134 3.47174 0
M  V30 16619 C 1588.47 0.199007 4.4936 0
M  V30 16620 C 1589.79 -1.82962 4.00266 0
M  V30 16621 H 1586.91 -0.170704 0.716958 0
M  V30 16622 H 1589.55 0.25809 1.88239 0
M  V30 16623 H 1587.7 -1.57969 3.54934 0
M  V30 16624 H 1589.37 0.836109 4.53659 0
M  V30 16625 H 1587.61 0.85442 4.25302 0
M  V30 16626 H 1588.29 -0.180704 5.51704 0
M  V30 16627 H 1590.76 -1.30394 3.95141 0
M  V30 16628 H 1589.64 -2.13621 5.05625 0
M  V30 16629 H 1589.9 -2.77557 3.44114 0
M  V30 16630 N 1588.96 -1.5727 -0.101874 0
M  V30 16631 C 1590.23 -1.76745 -0.837888 0
M  V30 16632 C 1590.61 -0.751766 -1.9726 0
M  V30 16633 O 1589.96 0.221046 -2.27428 0
M  V30 16634 C 1590.17 -3.22302 -1.33875 0
M  V30 16635 C 1591.52 -3.85292 -1.78425 0
M  V30 16636 O 1592.54 -3.2601 -1.43514 0
M  V30 16637 O 1591.4 -4.89526 -2.42953 0
M  V30 16638 H 1588.5 -0.724294 -0.399157 0
M  V30 16639 H 1591.04 -1.69491 -0.0842821 0
M  V30 16640 H 1589.82 -3.87756 -0.525434 0
M  V30 16641 H 1589.44 -3.34162 -2.15456 0
M  V30 16642 N 1590.44 0.372521 -1.53134 0
M  V30 16643 C 1591.68 1.12465 -1.70678 0
M  V30 16644 C 1592.04 1.8676 -0.445503 0
M  V30 16645 O 1593.24 2.64155 -0.497531 0
M  V30 16646 C 1591.51 2.06389 -2.91785 0
M  V30 16647 S 1593.07 2.89216 -3.3 0
M  V30 16648 H 1589.89 0.380458 -0.600644 0
M  V30 16649 H 1592.49 0.406831 -1.9122 0
M  V30 16650 H 1591.19 1.50559 -3.81786 0
M  V30 16651 H 1590.73 2.82654 -2.73624 0
M  V30 16652 H 1592.74 4.08642 -2.81471 0
M  V30 16653 N 1591.91 1.44376 0.631925 0
M  V30 16654 C 1593.14 1.5082 1.42366 0
M  V30 16655 C 1593.56 0.133858 1.87623 0
M  V30 16656 O 1592.92 -0.876789 1.58689 0
M  V30 16657 C 1592.97 2.47698 2.62065 0
M  V30 16658 O 1592.07 1.97796 3.61871 0
M  V30 16659 H 1591.41 0.509318 0.426018 0
M  V30 16660 H 1593.94 1.89502 0.771376 0
M  V30 16661 H 1593.95 2.65708 3.09618 0
M  V30 16662 H 1592.63 3.47526 2.2847 0
M  V30 16663 H 1591.21 1.89549 3.21131 0
M  V30 16664 N 1593.39 -0.872258 1.31261 0
M  V30 16665 C 1594.62 -1.65555 1.23593 0
M  V30 16666 C 1595.03 -1.88124 -0.201532 0
M  V30 16667 O 1594.37 -1.43792 -1.14323 0
M  V30 16668 C 1594.43 -3.04726 1.90742 0
M  V30 16669 C 1594.1 -3.05276 3.40082 0
M  V30 16670 C 1595.1 -2.83401 4.35867 0
M  V30 16671 C 1592.78 -3.26469 3.81737 0
M  V30 16672 C 1594.77 -2.82697 5.71281 0
M  V30 16673 C 1592.46 -3.25393 5.17265 0
M  V30 16674 C 1593.46 -3.03533 6.11847 0
M  V30 16675 O 1593.15 -3.02297 7.44897 0
M  V30 16676 H 1592.88 -0.52296 0.428356 0
M  V30 16677 H 1595.43 -1.09717 1.73641 0
M  V30 16678 H 1593.66 -3.62281 1.35239 0
M  V30 16679 H 1595.35 -3.65265 1.7702 0
M  V30 16680 H 1596.12 -2.66812 4.05014 0
M  V30 16681 H 1592 -3.42515 3.08552 0
M  V30 16682 H 1595.54 -2.65553 6.45079 0
M  V30 16683 H 1591.44 -3.41522 5.47753 0
M  V30 16684 H 1592.21 -3.18375 7.54042 0
M  V30 16685 N 1594.87 -1.14184 -1.08627 0
M  V30 16686 C 1596.12 -0.906869 -1.80611 0
M  V30 16687 C 1596.44 0.568182 -1.86539 0
M  V30 16688 O 1595.71 1.41301 -1.35687 0
M  V30 16689 H 1594.29 -0.332523 -0.668908 0
M  V30 16690 H 1596.95 -1.43998 -1.31341 0
M  V30 16691 H 1596.05 -1.30484 -2.83514 0
M  V30 16692 N 1596.35 1.26749 -0.936613 0
M  V30 16693 C 1597.3 2.28528 -0.433328 0
M  V30 16694 C 1598.29 1.62248 0.487012 0
M  V30 16695 O 1599.5 1.76245 0.36573 0
M  V30 16696 H 1595.87 0.742106 -0.121583 0
M  V30 16697 H 1597.84 2.68382 -1.30436 0
M  V30 16698 C 1596.59 3.46485 0.290366 0
M  V30 16699 H 1595.91 3.97706 -0.408649 0
M  V30 16700 H 1597.35 4.19635 0.606807 0
M  V30 16701 C 1595.81 3.01339 1.50654 0
M  V30 16702 O 1596.34 3.05781 2.60501 0
M  V30 16703 N 1594.55 2.56732 1.3615 0
M  V30 16704 H 1594.1 2.53317 0.467788 0
M  V30 16705 H 1594.05 2.26888 2.17645 0
M  V30 16706 N 1597.83 0.703118 1.41046 0
M  V30 16707 C 1599.08 0.234346 2.00334 0
M  V30 16708 C 1599.39 -1.17524 1.56357 0
M  V30 16709 O 1600.59 -1.74188 2.08257 0
M  V30 16710 C 1599.05 0.368067 3.58013 0
M  V30 16711 C 1598.66 1.7835 4.10969 0
M  V30 16712 C 1600.4 -0.0405456 4.24481 0
M  V30 16713 C 1598.31 1.86848 5.61108 0
M  V30 16714 H 1597.24 0.0838583 0.749322 0
M  V30 16715 H 1599.89 0.872407 1.61435 0
M  V30 16716 H 1598.27 -0.338371 3.94552 0
M  V30 16717 H 1599.45 2.51931 3.85833 0
M  V30 16718 H 1597.76 2.14246 3.57054 0
M  V30 16719 H 1600.36 0.00239803 5.347 0
M  V30 16720 H 1600.7 -1.08049 4.02034 0
M  V30 16721 H 1601.23 0.615887 3.93003 0
M  V30 16722 H 1597.97 2.8892 5.88392 0
M  V30 16723 H 1597.49 1.17662 5.88146 0
M  V30 16724 H 1599.17 1.63484 6.26005 0
M  V30 16725 N 1599.3 -1.51086 0.448402 0
M  V30 16726 C 1600.72 -1.86696 -0.0121264 0
M  V30 16727 C 1601.07 -1.36483 -1.40949 0
M  V30 16728 O 1600.19 -0.72024 -2.04062 0
M  V30 16729 C 1600.79 -3.38788 -0.0287814 0
M  V30 16730 C 1599.35 -3.73892 -0.433758 0
M  V30 16731 C 1598.49 -2.74869 0.366362 0
M  V30 16732 H 1601.44 -1.44153 0.663744 0
M  V30 16733 H 1601.46 -3.71204 -0.835915 0
M  V30 16734 H 1600.98 -3.75304 0.988368 0
M  V30 16735 H 1599.08 -3.4297 -1.4561 0
M  V30 16736 H 1599.19 -4.78862 -0.150869 0
M  V30 16737 H 1597.55 -2.54085 -0.176862 0
M  V30 16738 H 1598.34 -3.14228 1.3826 0
M  V30 16739 N 1600.78 -0.180154 -1.56567 0
M  V30 16740 C 1602.03 0.462656 -1.96322 0
M  V30 16741 C 1602.34 1.63788 -1.06925 0
M  V30 16742 O 1603.55 2.34751 -1.36398 0
M  V30 16743 C 1602.01 0.874492 -3.49114 0
M  V30 16744 C 1601.61 -0.27562 -4.47151 0
M  V30 16745 C 1603.36 1.48522 -3.9767 0
M  V30 16746 C 1601.27 0.156341 -5.91193 0
M  V30 16747 H 1600.2 0.176619 -0.733022 0
M  V30 16748 H 1602.85 -0.269793 -1.81506 0
M  V30 16749 H 1601.23 1.66318 -3.59381 0
M  V30 16750 H 1602.4 -1.05304 -4.48606 0
M  V30 16751 H 1600.72 -0.796878 -4.08704 0
M  V30 16752 H 1603.31 1.8206 -5.02751 0
M  V30 16753 H 1603.66 2.38634 -3.41115 0
M  V30 16754 H 1604.19 0.760806 -3.90457 0
M  V30 16755 H 1600.93 -0.710221 -6.51641 0
M  V30 16756 H 1600.45 0.898933 -5.93025 0
M  V30 16757 H 1602.13 0.597228 -6.44238 0
M  V30 16758 N 1602.26 1.57322 0.0935319 0
M  V30 16759 C 1603.49 1.90754 0.814111 0
M  V30 16760 C 1603.91 0.774571 1.71412 0
M  V30 16761 O 1603.27 -0.273775 1.79221 0
M  V30 16762 C 1603.32 3.23055 1.60211 0
M  V30 16763 O 1602.42 3.10755 2.71118 0
M  V30 16764 H 1601.76 0.625237 0.223552 0
M  V30 16765 H 1604.29 2.04486 0.068288 0
M  V30 16766 H 1604.3 3.56401 1.986 0
M  V30 16767 H 1602.98 4.05101 0.941607 0
M  V30 16768 H 1601.55 2.88926 2.35745 0
M  V30 16769 N 1603.74 -0.364395 1.53329 0
M  V30 16770 C 1604.99 -1.10423 1.68789 0
M  V30 16771 C 1605.3 -1.90428 0.446819 0
M  V30 16772 O 1606.51 -2.67188 0.481978 0
M  V30 16773 C 1604.96 -2.01228 2.98388 0
M  V30 16774 C 1604.57 -1.26529 4.29761 0
M  V30 16775 C 1606.31 -2.75196 3.23214 0
M  V30 16776 C 1604.22 -2.16243 5.50448 0
M  V30 16777 H 1603.15 -0.415935 0.628899 0
M  V30 16778 H 1605.8 -0.365145 1.7983 0
M  V30 16779 H 1604.18 -2.78872 2.81152 0
M  V30 16780 H 1605.36 -0.5394 4.57632 0
M  V30 16781 H 1603.67 -0.644181 4.11387 0
M  V30 16782 H 1606.27 -3.42548 4.10567 0
M  V30 16783 H 1606.61 -3.40629 2.39327 0
M  V30 16784 H 1607.15 -2.04635 3.4113 0
M  V30 16785 H 1603.89 -1.55385 6.36817 0
M  V30 16786 H 1603.41 -2.86678 5.26855 0
M  V30 16787 H 1605.08 -2.75774 5.85284 0
M  V30 16788 N 1605.22 -1.44709 -0.62426 0
M  V30 16789 C 1606.49 -1.38328 -1.38292 0
M  V30 16790 C 1606.87 -0.0454388 -2.11051 0
M  V30 16791 O 1606.22 0.972183 -2.06787 0
M  V30 16792 C 1606.43 -2.58602 -2.34364 0
M  V30 16793 C 1607.78 -3.02966 -2.97484 0
M  V30 16794 O 1608.8 -2.58856 -2.44688 0
M  V30 16795 O 1607.66 -3.79466 -3.93278 0
M  V30 16796 H 1604.76 -0.54812 -0.619269 0
M  V30 16797 H 1607.3 -1.5681 -0.648741 0
M  V30 16798 H 1606.07 -3.47573 -1.79746 0
M  V30 16799 H 1605.7 -2.42368 -3.15188 0
M  V30 16800 N 1606.69 0.865285 -1.31722 0
M  V30 16801 C 1607.94 1.6135 -1.21033 0
M  V30 16802 C 1608.26 1.94253 0.229141 0
M  V30 16803 O 1609.46 2.67613 0.457771 0
M  V30 16804 C 1607.92 2.90898 -2.11912 0
M  V30 16805 C 1607.53 2.6546 -3.60881 0
M  V30 16806 C 1609.27 3.68898 -2.10035 0
M  V30 16807 C 1607.18 3.90943 -4.43754 0
M  V30 16808 H 1606.11 0.605418 -0.449428 0
M  V30 16809 H 1608.76 0.956335 -1.56609 0
M  V30 16810 H 1607.14 3.58014 -1.69239 0
M  V30 16811 H 1608.31 2.06721 -4.11829 0
M  V30 16812 H 1606.63 2.00806 -3.64782 0
M  V30 16813 H 1609.23 4.61995 -2.69193 0
M  V30 16814 H 1609.57 4.01813 -1.08865 0
M  V30 16815 H 1610.1 3.08671 -2.50932 0
M  V30 16816 H 1606.84 3.63176 -5.45696 0
M  V30 16817 H 1606.36 4.49116 -3.97561 0
M  V30 16818 H 1608.04 4.58784 -4.56208 0
M  V30 16819 N 1608.17 1.14759 1.0802 0
M  V30 16820 C 1609.58 0.928711 1.61963 0
M  V30 16821 C 1609.93 -0.531568 1.88862 0
M  V30 16822 O 1609.06 -1.40129 1.64902 0
M  V30 16823 C 1609.65 1.67943 2.94246 0
M  V30 16824 C 1608.21 1.50602 3.44958 0
M  V30 16825 C 1607.36 1.69938 2.19126 0
M  V30 16826 H 1610.31 1.29882 0.911945 0
M  V30 16827 H 1610.33 1.14493 3.62866 0
M  V30 16828 H 1609.84 2.7422 2.74636 0
M  V30 16829 H 1607.95 0.466901 3.69663 0
M  V30 16830 H 1608.06 2.27857 4.21447 0
M  V30 16831 H 1606.42 1.12534 2.28491 0
M  V30 16832 H 1607.21 2.77566 2.0202 0
M  V30 16833 N 1609.65 -1.26251 0.943322 0
M  V30 16834 C 1610.6 -2.28295 0.445441 0
M  V30 16835 C 1611.59 -1.62504 -0.478401 0
M  V30 16836 O 1612.8 -1.76437 -0.356378 0
M  V30 16837 H 1609.17 -0.741451 0.125517 0
M  V30 16838 H 1611.14 -2.67687 1.31858 0
M  V30 16839 C 1609.89 -3.46635 -0.271987 0
M  V30 16840 H 1609.22 -3.97484 0.429734 0
M  V30 16841 H 1610.66 -4.19951 -0.584544 0
M  V30 16842 C 1609.12 -3.02133 -1.49054 0
M  V30 16843 O 1609.65 -3.07158 -2.58876 0
M  V30 16844 N 1607.85 -2.57451 -1.34787 0
M  V30 16845 H 1607.4 -2.53562 -0.454347 0
M  V30 16846 H 1607.36 -2.28039 -2.16438 0
M  V30 16847 N 1611.13 -0.710588 -1.40671 0
M  V30 16848 C 1612.09 -0.0635988 -2.29112 0
M  V30 16849 C 1613.09 0.692537 -1.45123 0
M  V30 16850 O 1614.28 0.525184 -1.66095 0
M  V30 16851 C 1611.41 0.919955 -3.28252 0
M  V30 16852 H 1612.61 -0.842477 -2.87823 0
M  V30 16853 H 1610.16 -0.474948 -1.48909 0
M  V30 16854 H 1610.9 1.72607 -2.7455 0
M  V30 16855 H 1610.68 0.38071 -3.90247 0
M  V30 16856 H 1612.17 1.36997 -3.94489 0
M  V30 16857 N 1612.61 1.50847 -0.456408 0
M  V30 16858 C 1613.57 2.26755 0.33388 0
M  V30 16859 C 1614.57 1.30947 0.933247 0
M  V30 16860 O 1615.76 1.54499 0.804716 0
M  V30 16861 C 1612.89 3.07378 1.47417 0
M  V30 16862 H 1614.09 2.98061 -0.331634 0
M  V30 16863 H 1611.64 1.54882 -0.210067 0
M  V30 16864 H 1612.37 2.40534 2.17518 0
M  V30 16865 H 1612.16 3.7777 1.05036 0
M  V30 16866 H 1613.65 3.64826 2.03204 0
M  V30 16867 N 1614.09 0.188454 1.56469 0
M  V30 16868 C 1615.33 -0.452058 1.9739 0
M  V30 16869 C 1615.66 -1.62086 1.0751 0
M  V30 16870 O 1614.92 -1.95375 0.11278 0
M  V30 16871 C 1615.21 -0.960652 3.44247 0
M  V30 16872 C 1614.88 0.0940708 4.50802 0
M  V30 16873 C 1613.54 0.383899 4.79666 0
M  V30 16874 C 1615.89 0.80908 5.14882 0
M  V30 16875 C 1613.22 1.39383 5.69903 0
M  V30 16876 C 1615.57 1.80811 6.0621 0
M  V30 16877 C 1614.24 2.10521 6.33433 0
M  V30 16878 H 1613.51 -0.16542 0.7223 0
M  V30 16879 H 1616.16 0.284024 1.89382 0
M  V30 16880 H 1614.46 -1.77488 3.49292 0
M  V30 16881 H 1616.16 -1.46553 3.7326 0
M  V30 16882 H 1612.75 -0.141993 4.28365 0
M  V30 16883 H 1616.93 0.598391 4.92679 0
M  V30 16884 H 1612.19 1.63 5.89272 0
M  V30 16885 H 1616.36 2.36742 6.54925 0
M  V30 16886 H 1613.99 2.88924 7.03155 0
M  V30 16887 N 1615.56 -1.5737 -0.0851874 0
M  V30 16888 C 1616.81 -1.85772 -0.785604 0
M  V30 16889 C 1617.13 -0.779172 -1.79411 0
M  V30 16890 O 1618.33 -0.950621 -2.54314 0
M  V30 16891 C 1616.79 -3.29484 -1.44805 0
M  V30 16892 C 1616.4 -4.45434 -0.478799 0
M  V30 16893 C 1618.14 -3.671 -2.13161 0
M  V30 16894 C 1616.05 -5.80183 -1.1464 0
M  V30 16895 H 1614.98 -0.69298 -0.297145 0
M  V30 16896 H 1617.63 -1.83459 -0.0386776 0
M  V30 16897 H 1616.01 -3.26367 -2.24278 0
M  V30 16898 H 1617.18 -4.59917 0.285148 0
M  V30 16899 H 1615.5 -4.16281 0.0995964 0
M  V30 16900 H 1618.1 -4.65061 -2.6386 0
M  V30 16901 H 1618.44 -2.96223 -2.92503 0
M  V30 16902 H 1618.97 -3.72148 -1.40536 0
M  V30 16903 H 1615.71 -6.54317 -0.393583 0
M  V30 16904 H 1615.23 -5.69525 -1.88153 0
M  V30 16905 H 1616.91 -6.25074 -1.67006 0
M  V30 16906 N 1617.04 0.356258 -1.53521 0
M  V30 16907 C 1618.46 0.698546 -1.43501 0
M  V30 16908 C 1618.66 1.92926 -0.581547 0
M  V30 16909 O 1617.71 2.5241 -0.0675947 0
M  V30 16910 C 1619.03 0.903047 -2.8682 0
M  V30 16911 C 1620.57 1.00247 -2.96512 0
M  V30 16912 C 1621.05 1.23938 -4.40912 0
M  V30 16913 N 1622.54 1.30687 -4.44382 0
M  V30 16914 C 1623.28 1.50745 -5.5323 0
M  V30 16915 N 1622.77 1.68058 -6.72107 0
M  V30 16916 N 1624.56 1.5319 -5.40823 0
M  V30 16917 H 1616.72 -0.453102 -2.07511 0
M  V30 16918 H 1618.98 -0.140708 -0.937499 0
M  V30 16919 H 1618.68 0.070416 -3.5163 0
M  V30 16920 H 1618.56 1.80847 -3.3102 0
M  V30 16921 H 1620.95 1.82564 -2.3185 0
M  V30 16922 H 1621.03 0.0742303 -2.55692 0
M  V30 16923 H 1620.67 0.421189 -5.06151 0
M  V30 16924 H 1620.6 2.18098 -4.79313 0
M  V30 16925 H 1623.09 1.18883 -3.58713 0
M  V30 16926 H 1623.4 1.82963 -7.50829 0
M  V30 16927 H 1621.75 1.65219 -6.75076 0
M  V30 16928 H 1624.94 1.39237 -4.46912 0
M  V30 16929 H 1625.11 1.6848 -6.25714 0
M  V30 16930 N 1618.52 1.45038 0.616577 0
M  V30 16931 C 1619.75 1.52094 1.40267 0
M  V30 16932 C 1620.16 0.150558 1.88199 0
M  V30 16933 O 1619.52 -0.846258 1.61693 0
M  V30 16934 C 1619.57 2.49786 2.61322 0
M  V30 16935 O 1619.29 3.81498 2.15385 0
M  V30 16936 C 1620.79 2.66451 3.54286 0
M  V30 16937 H 1618.01 0.515378 0.429681 0
M  V30 16938 H 1620.56 1.90141 0.752768 0
M  V30 16939 H 1618.71 2.14835 3.22373 0
M  V30 16940 H 1619.13 4.34374 2.93972 0
M  V30 16941 H 1620.6 3.38802 4.35795 0
M  V30 16942 H 1621.08 1.72177 4.04044 0
M  V30 16943 H 1621.68 3.02362 2.99095 0
M  V30 16944 N 1620 -0.858287 1.32179 0
M  V30 16945 C 1621.22 -1.64997 1.25662 0
M  V30 16946 C 1621.65 -1.87303 -0.173021 0
M  V30 16947 O 1621.01 -1.42319 -1.12317 0
M  V30 16948 C 1621.05 -2.98855 2.01787 0
M  V30 16949 O 1620.16 -3.89218 1.36319 0
M  V30 16950 H 1619.5 -0.503169 0.433264 0
M  V30 16951 H 1622.03 -1.06926 1.74436 0
M  V30 16952 H 1622.04 -3.48704 2.11824 0
M  V30 16953 H 1620.71 -2.81941 3.05748 0
M  V30 16954 H 1619.29 -3.4768 1.34807 0
M  V30 16955 N 1621.48 -1.1533 -1.07409 0
M  V30 16956 C 1622.75 -0.838341 -1.76724 0
M  V30 16957 C 1623.13 0.666169 -2.00313 0
M  V30 16958 O 1622.48 1.61033 -1.62113 0
M  V30 16959 C 1622.69 -1.64846 -3.07615 0
M  V30 16960 C 1624.04 -1.85429 -3.8197 0
M  V30 16961 O 1625.06 -1.61617 -3.17424 0
M  V30 16962 O 1623.92 -2.25305 -4.97896 0
M  V30 16963 H 1621.02 -0.308242 -0.767408 0
M  V30 16964 H 1623.56 -1.25905 -1.1378 0
M  V30 16965 H 1622.33 -2.66995 -2.86058 0
M  V30 16966 H 1621.96 -1.22405 -3.78289 0
M  V30 16967 N 1622.95 1.25748 -0.950004 0
M  V30 16968 C 1623.92 2.24307 -0.47106 0
M  V30 16969 C 1624.92 1.55145 0.422704 0
M  V30 16970 O 1626.11 1.72797 0.220642 0
M  V30 16971 C 1623.24 3.39395 0.319979 0
M  V30 16972 H 1624.43 2.68192 -1.34214 0
M  V30 16973 H 1621.98 1.38056 -0.732827 0
M  V30 16974 H 1622.72 3.00925 1.20892 0
M  V30 16975 H 1622.5 3.90783 -0.321157 0
M  V30 16976 H 1623.99 4.12594 0.644697 0
M  V30 16977 N 1624.43 0.718038 1.40292 0
M  V30 16978 C 1625.84 0.330675 1.83748 0
M  V30 16979 C 1626.19 -1.13511 1.6003 0
M  V30 16980 O 1625.32 -1.87381 1.08247 0
M  V30 16981 C 1625.91 0.593398 3.33563 0
M  V30 16982 C 1624.47 0.259717 3.75503 0
M  V30 16983 C 1623.62 0.864537 2.63479 0
M  V30 16984 H 1626.57 0.917 1.29525 0
M  V30 16985 H 1626.59 -0.140544 3.8024 0
M  V30 16986 H 1626.1 1.66028 3.50794 0
M  V30 16987 H 1624.2 -0.802011 3.63866 0
M  V30 16988 H 1624.32 0.730427 4.73499 0
M  V30 16989 H 1622.68 0.292399 2.53016 0
M  V30 16990 H 1623.46 1.93574 2.83521 0
M  V30 16991 N 1625.91 -1.50602 0.464402 0
M  V30 16992 C 1626.84 -2.31252 -0.323263 0
M  V30 16993 C 1627.82 -1.37856 -0.996476 0
M  V30 16994 O 1629.01 -1.66777 -0.994933 0
M  V30 16995 C 1626.14 -3.17414 -1.40945 0
M  V30 16996 C 1625.09 -4.19307 -0.858226 0
M  V30 16997 C 1624.42 -4.94164 -2.0422 0
M  V30 16998 C 1625.72 -5.22148 0.125921 0
M  V30 16999 H 1627.41 -2.97349 0.34983 0
M  V30 17000 H 1624.96 -1.42997 0.169685 0
M  V30 17001 H 1626.91 -3.72627 -1.96791 0
M  V30 17002 H 1625.63 -2.49189 -2.11122 0
M  V30 17003 H 1624.29 -3.65185 -0.321785 0
M  V30 17004 H 1623.94 -4.22417 -2.7308 0
M  V30 17005 H 1623.64 -5.63083 -1.67963 0
M  V30 17006 H 1625.16 -5.5221 -2.60569 0
M  V30 17007 H 1626.58 -5.72272 -0.343136 0
M  V30 17008 H 1624.98 -5.98749 0.402433 0
M  V30 17009 H 1626.05 -4.73307 1.05399 0
M  V30 17010 N 1627.39 -0.19675 -1.56367 0
M  V30 17011 C 1628.63 0.442238 -1.97919 0
M  V30 17012 C 1628.97 1.61156 -1.08362 0
M  V30 17013 O 1628.24 1.94024 -0.135969 0
M  V30 17014 C 1628.53 0.90078 -3.48652 0
M  V30 17015 C 1628.38 -0.270471 -4.48986 0
M  V30 17016 C 1629.7 1.7657 -4.03126 0
M  V30 17017 H 1626.82 0.159276 -0.719583 0
M  V30 17018 H 1629.46 -0.288004 -1.87805 0
M  V30 17019 H 1627.61 1.52302 -3.57402 0
M  V30 17020 H 1629.28 -0.908176 -4.52272 0
M  V30 17021 H 1627.52 -0.921973 -4.23889 0
M  V30 17022 H 1628.19 0.0929101 -5.51922 0
M  V30 17023 H 1630.67 1.24091 -3.97166 0
M  V30 17024 H 1629.55 2.0555 -5.0896 0
M  V30 17025 H 1629.81 2.72047 -3.48486 0
M  V30 17026 N 1628.87 1.57413 0.0768405 0
M  V30 17027 C 1630.09 1.91607 0.793833 0
M  V30 17028 C 1630.52 0.792708 1.70581 0
M  V30 17029 O 1629.87 -0.25475 1.79501 0
M  V30 17030 C 1629.92 3.24736 1.56776 0
M  V30 17031 O 1629.03 3.13613 2.67807 0
M  V30 17032 H 1628.37 0.627572 0.216908 0
M  V30 17033 H 1630.9 2.04547 0.0465957 0
M  V30 17034 H 1630.91 3.58488 1.94809 0
M  V30 17035 H 1629.58 4.06077 0.898588 0
M  V30 17036 H 1628.16 2.91411 2.32668 0
M  V30 17037 N 1630.34 -0.348112 1.53707 0
M  V30 17038 C 1631.57 -1.10903 1.74666 0
M  V30 17039 C 1631.99 -1.82499 0.483683 0
M  V30 17040 O 1631.34 -1.74191 -0.544419 0
M  V30 17041 C 1631.4 -2.12602 2.92374 0
M  V30 17042 O 1631.12 -1.43918 4.13787 0
M  V30 17043 C 1632.62 -3.01105 3.25347 0
M  V30 17044 H 1629.84 -0.330911 0.583728 0
M  V30 17045 H 1632.38 -0.401707 2.00516 0
M  V30 17046 H 1630.54 -2.78906 2.68869 0
M  V30 17047 H 1630.95 -2.11818 4.79826 0
M  V30 17048 H 1632.42 -3.68408 4.11071 0
M  V30 17049 H 1632.9 -3.66874 2.41455 0
M  V30 17050 H 1633.51 -2.40395 3.50842 0
M  V30 17051 N 1631.82 -1.45363 -0.608876 0
M  V30 17052 C 1633.07 -1.49534 -1.36995 0
M  V30 17053 C 1633.4 -0.136087 -1.93723 0
M  V30 17054 O 1632.68 0.849276 -1.74979 0
M  V30 17055 C 1632.96 -2.57348 -2.51881 0
M  V30 17056 C 1632.81 -4.02712 -2.00358 0
M  V30 17057 C 1634.13 -2.61459 -3.54016 0
M  V30 17058 H 1631.25 -0.544419 -0.496767 0
M  V30 17059 H 1633.89 -1.77165 -0.686473 0
M  V30 17060 H 1632.04 -2.33917 -3.10185 0
M  V30 17061 H 1633.71 -4.37348 -1.46713 0
M  V30 17062 H 1631.96 -4.1343 -1.31369 0
M  V30 17063 H 1632.63 -4.73834 -2.8317 0
M  V30 17064 H 1635.1 -2.8245 -3.0555 0
M  V30 17065 H 1633.98 -3.38761 -4.31894 0
M  V30 17066 H 1634.24 -1.66499 -4.09549 0
M  V30 17067 N 1633.3 0.851265 -1.32632 0
M  V30 17068 C 1634.25 1.96012 -1.21852 0
M  V30 17069 C 1635.22 1.65799 -0.0999141 0
M  V30 17070 O 1636.4 1.88793 -0.276049 0
M  V30 17071 C 1633.54 3.31737 -0.951014 0
M  V30 17072 C 1632.66 3.74427 -2.15472 0
M  V30 17073 C 1631.79 4.9896 -1.82242 0
M  V30 17074 C 1630.83 5.3415 -2.98914 0
M  V30 17075 N 1629.97 6.49861 -2.65754 0
M  V30 17076 H 1634.81 2.04565 -2.16696 0
M  V30 17077 H 1632.34 1.00119 -1.07771 0
M  V30 17078 H 1634.3 4.09912 -0.776401 0
M  V30 17079 H 1632.93 3.22776 -0.0393461 0
M  V30 17080 H 1631.98 2.91878 -2.4395 0
M  V30 17081 H 1633.3 3.96425 -3.02736 0
M  V30 17082 H 1632.45 5.84851 -1.61352 0
M  V30 17083 H 1631.19 4.78906 -0.921971 0
M  V30 17084 H 1630.19 4.4677 -3.20432 0
M  V30 17085 H 1631.42 5.5616 -3.89696 0
M  V30 17086 H 1629.36 6.31317 -1.78254 0
M  V30 17087 H 1629.28 6.71894 -3.46547 0
M  V30 17088 H 1630.55 7.38895 -2.48302 0
M  V30 17089 N 1634.78 1.15898 1.06796 0
M  V30 17090 C 1636.02 0.947946 1.81089 0
M  V30 17091 C 1636.38 -0.51537 1.84954 0
M  V30 17092 O 1637.58 -0.844928 2.55175 0
M  V30 17093 C 1635.85 1.55214 3.21937 0
M  V30 17094 S 1637.41 1.48502 4.12907 0
M  V30 17095 H 1634.23 0.341025 0.623877 0
M  V30 17096 H 1636.83 1.4755 1.28254 0
M  V30 17097 H 1635.54 2.60996 3.16716 0
M  V30 17098 H 1635.07 1.02369 3.79848 0
M  V30 17099 H 1637.08 0.481773 4.93856 0
M  V30 17100 N 1636.26 -1.25243 0.956659 0
M  V30 17101 C 1637.17 -2.29529 0.48515 0
M  V30 17102 C 1638.18 -1.68121 -0.448494 0
M  V30 17103 O 1639.36 -1.98773 -0.324243 0
M  V30 17104 C 1636.42 -3.45952 -0.227611 0
M  V30 17105 C 1635.48 -4.22795 0.744495 0
M  V30 17106 C 1634.72 -5.3366 0.0656539 0
M  V30 17107 O 1634.94 -5.58722 -1.14829 0
M  V30 17108 O 1633.87 -5.97181 0.75222 0
M  V30 17109 H 1637.7 -2.71955 1.35181 0
M  V30 17110 H 1635.29 -1.30729 0.723203 0
M  V30 17111 H 1637.17 -4.16687 -0.628474 0
M  V30 17112 H 1635.84 -3.05524 -1.06942 0
M  V30 17113 H 1634.75 -3.5448 1.1956 0
M  V30 17114 H 1636.08 -4.67012 1.55438 0
M  V30 17115 N 1637.73 -0.725468 -1.3991 0
M  V30 17116 C 1638.98 -0.26965 -2.00999 0
M  V30 17117 C 1639.31 1.13727 -1.57416 0
M  V30 17118 O 1638.59 1.77345 -0.798693 0
M  V30 17119 C 1638.87 -0.360784 -3.58288 0
M  V30 17120 C 1638.72 -1.80679 -4.11916 0
M  V30 17121 C 1640.04 0.262328 -4.39317 0
M  V30 17122 H 1637.16 -0.0994547 -0.730259 0
M  V30 17123 H 1639.8 -0.91983 -1.6625 0
M  V30 17124 H 1637.95 0.192779 -3.88021 0
M  V30 17125 H 1639.63 -2.4165 -3.92942 0
M  V30 17126 H 1637.87 -2.33127 -3.65834 0
M  V30 17127 H 1638.54 -1.82189 -5.21068 0
M  V30 17128 H 1641.02 -0.209452 -4.15573 0
M  V30 17129 H 1639.89 0.168166 -5.48642 0
M  V30 17130 H 1640.15 1.34716 -4.21075 0
M  V30 17131 N 1639.21 1.50354 -0.472382 0
M  V30 17132 C 1640.44 2.07238 0.0820787 0
M  V30 17133 C 1640.86 1.3338 1.32632 0
M  V30 17134 O 1640.22 0.381857 1.77233 0
M  V30 17135 C 1640.27 3.58919 0.347746 0
M  V30 17136 O 1639.37 3.86888 1.42799 0
M  V30 17137 H 1638.71 0.663862 -0.0135544 0
M  V30 17138 H 1641.24 1.93533 -0.663795 0
M  V30 17139 H 1641.25 4.03743 0.587855 0
M  V30 17140 H 1639.93 4.12093 -0.56147 0
M  V30 17141 H 1638.51 3.53901 1.17509 0
M  V30 17142 N 1640.69 0.205039 1.56261 0
M  V30 17143 C 1641.6 -0.723548 2.23164 0
M  V30 17144 C 1642.62 -1.22683 1.23389 0
M  V30 17145 O 1643.79 -1.27191 1.56155 0
M  V30 17146 C 1640.86 -1.92178 2.88563 0
M  V30 17147 C 1639.92 -1.46209 4.03635 0
M  V30 17148 C 1639.15 -2.60321 4.65906 0
M  V30 17149 O 1639.38 -3.78051 4.27122 0
M  V30 17150 O 1638.31 -2.32465 5.55197 0
M  V30 17151 H 1642.14 -0.183715 3.03144 0
M  V30 17152 H 1639.72 -0.0246933 1.4938 0
M  V30 17153 H 1641.6 -2.62188 3.29902 0
M  V30 17154 H 1640.28 -2.45003 2.11555 0
M  V30 17155 H 1639.18 -0.730492 3.66899 0
M  V30 17156 H 1640.52 -0.980402 4.82337 0
M  V30 17157 N 1642.17 -1.57451 -0.0684915 0
M  V30 17158 C 1643.41 -1.89247 -0.772325 0
M  V30 17159 C 1643.77 -0.799211 -1.74576 0
M  V30 17160 O 1644.97 -1.00034 -2.49493 0
M  V30 17161 C 1643.25 -3.26269 -1.45888 0
M  V30 17162 S 1644.8 -3.7982 -2.19732 0
M  V30 17163 H 1641.62 -0.66302 -0.256759 0
M  V30 17164 H 1644.22 -1.9548 -0.0282932 0
M  V30 17165 H 1642.93 -4.03735 -0.736646 0
M  V30 17166 H 1642.46 -3.23242 -2.24227 0
M  V30 17167 H 1644.47 -3.55372 -3.46302 0
M  V30 17168 N 1643.65 0.339955 -1.5389 0
M  V30 17169 C 1644.88 1.09975 -1.75251 0
M  V30 17170 C 1645.29 1.8224 -0.493355 0
M  V30 17171 O 1644.65 1.74477 0.535173 0
M  V30 17172 C 1644.7 2.11048 -2.93498 0
M  V30 17173 O 1644.42 1.41721 -4.14544 0
M  V30 17174 C 1645.92 2.99375 -3.26939 0
M  V30 17175 H 1643.14 0.327811 -0.585475 0
M  V30 17176 H 1645.68 0.391068 -2.00726 0
M  V30 17177 H 1643.84 2.77476 -2.70344 0
M  V30 17178 H 1644.25 2.09271 -4.80943 0
M  V30 17179 H 1645.73 3.66223 -4.13019 0
M  V30 17180 H 1646.2 3.65588 -2.43397 0
M  V30 17181 H 1646.81 2.38531 -3.52112 0
M  V30 17182 N 1645.13 1.45684 0.601159 0
M  V30 17183 C 1646.36 1.53351 1.38445 0
M  V30 17184 C 1646.76 0.167103 1.88461 0
M  V30 17185 O 1646.11 -0.842684 1.63231 0
M  V30 17186 C 1646.17 2.46214 2.61952 0
M  V30 17187 C 1645.83 3.92826 2.33532 0
M  V30 17188 C 1646.83 4.8255 1.93498 0
M  V30 17189 C 1644.51 4.378 2.46245 0
M  V30 17190 C 1646.51 6.15257 1.66547 0
M  V30 17191 C 1644.2 5.70546 2.18908 0
M  V30 17192 C 1645.19 6.59094 1.79121 0
M  V30 17193 O 1644.88 7.89378 1.52108 0
M  V30 17194 H 1644.61 0.521638 0.429965 0
M  V30 17195 H 1647.17 1.91622 0.739617 0
M  V30 17196 H 1645.4 2.02926 3.29178 0
M  V30 17197 H 1647.09 2.44492 3.24004 0
M  V30 17198 H 1647.85 4.49066 1.83207 0
M  V30 17199 H 1643.73 3.69115 2.76179 0
M  V30 17200 H 1647.28 6.8433 1.35418 0
M  V30 17201 H 1643.17 6.03583 2.28818 0
M  V30 17202 H 1643.94 8.01468 1.66107 0
M  V30 17203 N 1646.6 -0.84422 1.33082 0
M  V30 17204 C 1647.83 -1.63654 1.27405 0
M  V30 17205 C 1648.25 -1.87476 -0.153146 0
M  V30 17206 O 1647.61 -1.43502 -1.10801 0
M  V30 17207 C 1647.66 -2.96698 2.04945 0
M  V30 17208 O 1646.76 -3.87751 1.40439 0
M  V30 17209 H 1646.1 -0.498545 0.438576 0
M  V30 17210 H 1648.63 -1.0507 1.7556 0
M  V30 17211 H 1648.64 -3.46438 2.1551 0
M  V30 17212 H 1647.32 -2.78682 3.08722 0
M  V30 17213 H 1645.9 -3.46231 1.38487 0
M  V30 17214 N 1648.08 -1.16463 -1.0618 0
M  V30 17215 C 1649.04 -0.874674 -2.11854 0
M  V30 17216 C 1650.04 0.130829 -1.60267 0
M  V30 17217 O 1651.23 -0.100195 -1.73912 0
M  V30 17218 C 1648.37 -0.30826 -3.39503 0
M  V30 17219 H 1649.56 -1.81149 -2.39009 0
M  V30 17220 H 1647.11 -0.973721 -1.22264 0
M  V30 17221 H 1647.85 0.636181 -3.17999 0
M  V30 17222 H 1647.63 -1.03281 -3.78253 0
M  V30 17223 H 1649.12 -0.123378 -4.17418 0
M  V30 17224 N 1649.56 1.24734 -0.963288 0
M  V30 17225 C 1650.84 1.88004 -0.539809 0
M  V30 17226 C 1651.22 1.86814 0.983035 0
M  V30 17227 O 1650.56 1.33769 1.85251 0
M  V30 17228 C 1650.77 3.30326 -1.1263 0
M  V30 17229 C 1652.12 4.07039 -1.20848 0
M  V30 17230 O 1653.15 3.3948 -1.07849 0
M  V30 17231 O 1652.01 5.27906 -1.41342 0
M  V30 17232 H 1649.1 0.807318 -0.17935 0
M  V30 17233 H 1651.65 1.3274 -1.05727 0
M  V30 17234 H 1650.42 3.25668 -2.16925 0
M  V30 17235 H 1650.04 3.93159 -0.592614 0
M  V30 17236 N 1651.04 0.732878 1.39523 0
M  V30 17237 C 1652.28 0.279891 2.00556 0
M  V30 17238 C 1652.61 -1.13223 1.58148 0
M  V30 17239 O 1651.87 -1.78575 0.800591 0
M  V30 17240 C 1652.17 0.32714 3.559 0
M  V30 17241 C 1651.83 1.69198 4.17951 0
M  V30 17242 C 1650.49 2.06555 4.34613 0
M  V30 17243 C 1652.85 2.58821 4.52395 0
M  V30 17244 C 1650.17 3.33047 4.83008 0
M  V30 17245 C 1652.53 3.84682 5.02197 0
M  V30 17246 C 1651.19 4.22134 5.17068 0
M  V30 17247 H 1650.46 0.102419 0.733888 0
M  V30 17248 H 1653.11 0.939304 1.66881 0
M  V30 17249 H 1651.41 -0.415849 3.89587 0
M  V30 17250 H 1653.11 -0.0414564 4.00979 0
M  V30 17251 H 1649.7 1.39153 4.05382 0
M  V30 17252 H 1653.88 2.31231 4.39142 0
M  V30 17253 H 1649.14 3.6201 4.92706 0
M  V30 17254 H 1653.31 4.54286 5.27823 0
M  V30 17255 H 1650.94 5.20215 5.54329 0
M  V30 17256 N 1652.52 -1.50101 0.480349 0
M  V30 17257 C 1653.76 -2.01974 -0.0712904 0
M  V30 17258 C 1654.08 -1.36377 -1.39378 0
M  V30 17259 O 1653.35 -0.512162 -1.89087 0
M  V30 17260 H 1651.93 -0.746424 -0.0293362 0
M  V30 17261 H 1654.6 -1.84338 0.632883 0
M  V30 17262 H 1653.69 -3.11351 -0.216057 0
M  V30 17263 N 1653.99 -0.213323 -1.5615 0
M  V30 17264 C 1655.24 0.419767 -1.97693 0
M  V30 17265 C 1655.56 1.60878 -1.10197 0
M  V30 17266 O 1654.83 1.95097 -0.177185 0
M  V30 17267 H 1653.41 0.158075 -0.730083 0
M  V30 17268 H 1656.07 -0.304303 -1.9251 0
M  V30 17269 H 1655.17 0.751645 -3.02914 0
M  V30 17270 N 1655.47 1.57485 0.0601405 0
M  V30 17271 C 1656.41 1.99806 1.10239 0
M  V30 17272 C 1657.38 0.876931 1.36926 0
M  V30 17273 O 1658.57 1.14022 1.50104 0
M  V30 17274 C 1655.69 2.34471 2.4442 0
M  V30 17275 C 1654.74 3.56712 2.33793 0
M  V30 17276 S 1655.57 5.07095 1.7209 0
M  V30 17277 C 1656.73 5.44972 3.07825 0
M  V30 17278 H 1656.96 2.87897 0.74178 0
M  V30 17279 H 1654.5 1.52037 0.269081 0
M  V30 17280 H 1656.45 2.55116 3.21599 0
M  V30 17281 H 1655.11 1.46888 2.77638 0
M  V30 17282 H 1654.31 3.78521 3.32773 0
M  V30 17283 H 1653.91 3.35757 1.64752 0
M  V30 17284 H 1656.2 5.43756 4.04148 0
M  V30 17285 H 1657.14 6.4564 2.90783 0
M  V30 17286 H 1657.55 4.7244 3.08967 0
M  V30 17287 N 1656.95 -0.331789 1.54068 0
M  V30 17288 C 1657.91 -1.39094 1.82169 0
M  V30 17289 C 1658.91 -1.45092 0.693168 0
M  V30 17290 O 1660.1 -1.45263 0.961471 0
M  V30 17291 C 1657.24 -2.77909 1.97432 0
M  V30 17292 H 1658.43 -1.15435 2.76794 0
M  V30 17293 H 1655.98 -0.566827 1.4566 0
M  V30 17294 H 1656.72 -3.06835 1.0499 0
M  V30 17295 H 1656.5 -2.7495 2.79544 0
M  V30 17296 H 1657.99 -3.54548 2.20649 0
M  V30 17297 N 1658.43 -1.46001 -0.593424 0
M  V30 17298 C 1659.66 -1.54307 -1.3783 0
M  V30 17299 C 1660.07 -0.18048 -1.87935 0
M  V30 17300 O 1659.43 0.820427 -1.63019 0
M  V30 17301 C 1659.48 -2.53911 -2.57316 0
M  V30 17302 O 1659.2 -3.84876 -2.09289 0
M  V30 17303 C 1660.7 -2.72054 -3.50002 0
M  V30 17304 H 1657.92 -0.522149 -0.421428 0
M  V30 17305 H 1660.47 -1.91315 -0.722423 0
M  V30 17306 H 1658.62 -2.19937 -3.18915 0
M  V30 17307 H 1659.03 -4.38996 -2.87025 0
M  V30 17308 H 1660.51 -3.45692 -4.3035 0
M  V30 17309 H 1660.99 -1.78583 -4.01254 0
M  V30 17310 H 1661.59 -3.07082 -2.94246 0
M  V30 17311 N 1659.91 0.83715 -1.33527 0
M  V30 17312 C 1660.84 1.96231 -1.26553 0
M  V30 17313 C 1661.82 1.69474 -0.14576 0
M  V30 17314 O 1663 1.91274 -0.335815 0
M  V30 17315 C 1660.13 3.32419 -1.00574 0
M  V30 17316 C 1659.09 3.73577 -2.08864 0
M  V30 17317 C 1658.41 5.07591 -1.68095 0
M  V30 17318 C 1659.71 3.87179 -3.50556 0
M  V30 17319 H 1661.41 2.02324 -2.20693 0
M  V30 17320 H 1658.95 0.972038 -1.06242 0
M  V30 17321 H 1660.91 4.10703 -0.943439 0
M  V30 17322 H 1659.63 3.26587 -0.0287268 0
M  V30 17323 H 1658.29 2.97557 -2.14139 0
M  V30 17324 H 1657.94 4.98232 -0.690922 0
M  V30 17325 H 1657.64 5.361 -2.40563 0
M  V30 17326 H 1659.16 5.88349 -1.63334 0
M  V30 17327 H 1660.57 4.55771 -3.47772 0
M  V30 17328 H 1658.97 4.27127 -4.21524 0
M  V30 17329 H 1660.04 2.8958 -3.88936 0
M  V30 17330 N 1661.38 1.17024 1.05561 0
M  V30 17331 C 1662.32 0.841314 2.13201 0
M  V30 17332 C 1663.33 -0.154667 1.62064 0
M  V30 17333 O 1664.52 0.0711173 1.78358 0
M  V30 17334 C 1661.62 0.233156 3.38097 0
M  V30 17335 C 1660.79 1.27108 4.18524 0
M  V30 17336 C 1659.85 0.681364 5.2177 0
M  V30 17337 O 1658.88 1.35219 5.52906 0
M  V30 17338 N 1660.08 -0.528381 5.7809 0
M  V30 17339 H 1662.84 1.76773 2.42015 0
M  V30 17340 H 1660.4 1.06858 1.21626 0
M  V30 17341 H 1662.4 -0.174565 4.04323 0
M  V30 17342 H 1660.97 -0.596965 3.06847 0
M  V30 17343 H 1660.19 1.85469 3.47843 0
M  V30 17344 H 1661.47 1.97129 4.6906 0
M  V30 17345 H 1660.87 -1.09141 5.55072 0
M  V30 17346 H 1659.43 -0.878214 6.45857 0
M  V30 17347 N 1662.86 -1.24221 0.969889 0
M  V30 17348 C 1664.09 -1.96118 0.649715 0
M  V30 17349 C 1664.5 -1.72127 -0.785436 0
M  V30 17350 O 1663.84 -1.00319 -1.53889 0
M  V30 17351 C 1663.91 -3.49374 0.847236 0
M  V30 17352 C 1663.57 -3.97067 2.26244 0
M  V30 17353 C 1664.57 -4.06568 3.24034 0
M  V30 17354 C 1662.25 -4.30333 2.59072 0
M  V30 17355 C 1664.25 -4.48672 4.52738 0
M  V30 17356 C 1661.93 -4.72121 3.88001 0
M  V30 17357 C 1662.93 -4.81256 4.84646 0
M  V30 17358 O 1662.62 -5.22109 6.11275 0
M  V30 17359 H 1662.35 -0.63149 0.24124 0
M  V30 17360 H 1664.9 -1.58948 1.30095 0
M  V30 17361 H 1663.13 -3.86451 0.138828 0
M  V30 17362 H 1664.82 -4.0248 0.525817 0
M  V30 17363 H 1665.59 -3.81083 3.00002 0
M  V30 17364 H 1661.47 -4.22441 1.84565 0
M  V30 17365 H 1665.01 -4.55717 5.28174 0
M  V30 17366 H 1660.91 -4.97054 4.11834 0
M  V30 17367 H 1661.68 -5.40252 6.14874 0
M  V30 17368 N 1664.34 -0.740267 -1.39132 0
M  V30 17369 C 1665.59 -0.290953 -2.00702 0
M  V30 17370 C 1665.92 1.12051 -1.58613 0
M  V30 17371 O 1665.19 1.76488 -0.817457 0
M  V30 17372 C 1665.48 -0.398765 -3.57885 0
M  V30 17373 C 1665.33 -1.85038 -4.09977 0
M  V30 17374 C 1666.65 0.215717 -4.39571 0
M  V30 17375 H 1663.77 -0.107194 -0.729163 0
M  V30 17376 H 1666.41 -0.937411 -1.65265 0
M  V30 17377 H 1664.56 0.151613 -3.88204 0
M  V30 17378 H 1666.23 -2.45804 -3.90357 0
M  V30 17379 H 1664.48 -2.36994 -3.63341 0
M  V30 17380 H 1665.15 -1.87705 -5.19106 0
M  V30 17381 H 1667.62 -0.253518 -4.15327 0
M  V30 17382 H 1666.5 0.109966 -5.4879 0
M  V30 17383 H 1666.76 1.30242 -4.2248 0
M  V30 17384 N 1665.82 1.49844 -0.488302 0
M  V30 17385 C 1667.04 2.07313 0.0600937 0
M  V30 17386 C 1667.47 1.3478 1.3121 0
M  V30 17387 O 1666.83 0.400634 1.76818 0
M  V30 17388 C 1666.87 3.59268 0.309658 0
M  V30 17389 O 1665.98 3.88381 1.38688 0
M  V30 17390 H 1665.32 0.663681 -0.0205947 0
M  V30 17391 H 1667.85 1.92818 -0.684284 0
M  V30 17392 H 1667.86 4.04344 0.545 0
M  V30 17393 H 1666.53 4.11474 -0.605146 0
M  V30 17394 H 1665.11 3.55128 1.13749 0
M  V30 17395 N 1667.3 0.221601 1.56034 0
M  V30 17396 C 1668.57 -0.459097 1.90136 0
M  V30 17397 C 1668.95 -1.7774 1.13894 0
M  V30 17398 O 1668.3 -2.27147 0.248285 0
M  V30 17399 C 1668.51 -0.651996 3.42856 0
M  V30 17400 C 1669.86 -0.959402 4.13619 0
M  V30 17401 O 1670.88 -0.73878 3.48454 0
M  V30 17402 O 1669.74 -1.37811 5.28839 0
M  V30 17403 H 1666.84 -0.242753 0.790569 0
M  V30 17404 H 1669.38 0.263789 1.67637 0
M  V30 17405 H 1668.15 0.277892 3.90312 0
M  V30 17406 H 1667.78 -1.42637 3.71134 0
M  V30 17407 N 1668.77 -1.57515 -0.0517878 0
M  V30 17408 C 1670.19 -1.54323 -0.407009 0
M  V30 17409 C 1670.39 -0.944629 -1.77986 0
M  V30 17410 O 1669.45 -0.555785 -2.46307 0
M  V30 17411 C 1670.76 -2.98887 -0.329703 0
M  V30 17412 C 1672.31 -3.10324 -0.408443 0
M  V30 17413 C 1672.78 -4.56576 -0.360833 0
M  V30 17414 N 1674.27 -4.61289 -0.420313 0
M  V30 17415 C 1675.01 -5.71961 -0.406007 0
M  V30 17416 N 1674.5 -6.91939 -0.34533 0
M  V30 17417 N 1676.3 -5.60263 -0.454054 0
M  V30 17418 H 1668.45 -1.94785 0.846907 0
M  V30 17419 H 1670.71 -0.892417 0.319838 0
M  V30 17420 H 1670.42 -3.4632 0.612802 0
M  V30 17421 H 1670.29 -3.59806 -1.13222 0
M  V30 17422 H 1672.68 -2.62852 -1.34138 0
M  V30 17423 H 1672.76 -2.52278 0.423018 0
M  V30 17424 H 1672.4 -5.0471 0.568335 0
M  V30 17425 H 1672.33 -5.12508 -1.2101 0
M  V30 17426 H 1674.82 -3.74958 -0.470644 0
M  V30 17427 H 1675.14 -7.72057 -0.338889 0
M  V30 17428 H 1673.48 -6.94301 -0.311715 0
M  V30 17429 H 1676.67 -4.6543 -0.499289 0
M  V30 17430 H 1676.85 -6.46508 -0.439435 0
M  V30 17431 N 1670.25 0.323614 -1.54242 0
M  V30 17432 C 1671.16 1.42128 -1.86646 0
M  V30 17433 C 1672.18 1.56603 -0.758385 0
M  V30 17434 O 1673.36 1.717 -1.05267 0
M  V30 17435 C 1670.42 2.76842 -2.08709 0
M  V30 17436 C 1669.48 2.71543 -3.3251 0
M  V30 17437 C 1668.71 3.99833 -3.5351 0
M  V30 17438 O 1668.94 4.98095 -2.77952 0
M  V30 17439 O 1667.87 4.03095 -4.46988 0
M  V30 17440 H 1671.7 1.17653 -2.79985 0
M  V30 17441 H 1669.28 0.517632 -1.40146 0
M  V30 17442 H 1671.16 3.56588 -2.24551 0
M  V30 17443 H 1669.84 3.01207 -1.18558 0
M  V30 17444 H 1668.75 1.90348 -3.22053 0
M  V30 17445 H 1670.08 2.52133 -4.22717 0
M  V30 17446 N 1671.73 1.46313 0.585673 0
M  V30 17447 C 1672.98 1.51171 1.34134 0
M  V30 17448 C 1673.3 0.163691 1.94312 0
M  V30 17449 O 1672.57 -0.809444 1.78395 0
M  V30 17450 H 1671.15 0.556768 0.498014 0
M  V30 17451 H 1673.81 1.82423 0.686133 0
M  V30 17452 H 1672.91 2.26274 2.14957 0
M  V30 17453 N 1673.21 -0.830057 1.33969 0
M  V30 17454 C 1674.14 -1.94785 1.20795 0
M  V30 17455 C 1675.15 -1.62225 0.136752 0
M  V30 17456 O 1676.34 -1.74233 0.38797 0
M  V30 17457 C 1673.44 -3.28523 0.832209 0
M  V30 17458 C 1672.62 -3.89157 1.99689 0
M  V30 17459 C 1671.68 -5.01262 1.6007 0
M  V30 17460 O 1670.7 -5.19939 2.31629 0
M  V30 17461 N 1671.9 -5.78249 0.510754 0
M  V30 17462 H 1674.67 -2.06621 2.17089 0
M  V30 17463 H 1672.23 -1.00626 1.26831 0
M  V30 17464 H 1674.22 -4.00958 0.549094 0
M  V30 17465 H 1672.79 -3.12574 -0.0403271 0
M  V30 17466 H 1672.01 -3.09203 2.44514 0
M  V30 17467 H 1673.3 -4.26399 2.77599 0
M  V30 17468 H 1672.7 -5.65637 -0.0842912 0
M  V30 17469 H 1671.25 -6.51166 0.287345 0
M  V30 17470 N 1674.69 -1.17582 -1.04939 0
M  V30 17471 C 1675.93 -0.976635 -1.79558 0
M  V30 17472 C 1676.29 0.48588 -1.8575 0
M  V30 17473 O 1677.49 0.804225 -2.56487 0
M  V30 17474 C 1675.76 -1.60316 -3.19427 0
M  V30 17475 S 1677.32 -1.55052 -4.10493 0
M  V30 17476 H 1674.14 -0.350907 -0.618373 0
M  V30 17477 H 1676.74 -1.49572 -1.25891 0
M  V30 17478 H 1675.45 -2.66002 -3.12524 0
M  V30 17479 H 1674.98 -1.08399 -3.78171 0
M  V30 17480 H 1676.99 -0.56028 -4.93027 0
M  V30 17481 N 1676.17 1.23705 -0.976463 0
M  V30 17482 C 1677.58 1.73848 -0.680723 0
M  V30 17483 C 1677.93 1.79005 0.803228 0
M  V30 17484 O 1677.05 1.42529 1.62832 0
M  V30 17485 C 1677.65 3.15724 -1.22898 0
M  V30 17486 C 1676.21 3.63338 -0.982963 0
M  V30 17487 C 1675.35 2.41712 -1.35906 0
M  V30 17488 H 1678.3 1.09284 -1.15077 0
M  V30 17489 H 1678.33 3.75748 -0.599487 0
M  V30 17490 H 1677.84 3.11938 -2.30903 0
M  V30 17491 H 1675.94 3.72512 0.0811766 0
M  V30 17492 H 1676.05 4.50347 -1.63477 0
M  V30 17493 H 1674.42 2.42543 -0.777498 0
M  V30 17494 H 1675.2 2.40601 -2.4488 0
M  V30 17495 N 1677.64 0.747635 1.38738 0
M  V30 17496 C 1678.89 0.301593 2.00545 0
M  V30 17497 C 1679.22 -1.11208 1.59205 0
M  V30 17498 O 1678.5 -1.76052 0.826806 0
M  V30 17499 C 1678.78 0.417739 3.57669 0
M  V30 17500 C 1678.63 1.87209 4.0899 0
M  V30 17501 C 1679.95 -0.192403 4.39679 0
M  V30 17502 H 1677.07 0.11106 0.728584 0
M  V30 17503 H 1679.71 0.946162 1.64766 0
M  V30 17504 H 1677.86 -0.131024 3.88279 0
M  V30 17505 H 1679.54 2.4787 3.89048 0
M  V30 17506 H 1677.78 2.38917 3.62079 0
M  V30 17507 H 1678.45 1.90455 5.18103 0
M  V30 17508 H 1680.93 0.27554 4.15187 0
M  V30 17509 H 1679.8 -0.0808605 5.4884 0
M  V30 17510 H 1680.06 -1.28 4.23165 0
M  V30 17511 N 1679.12 -1.49583 0.496242 0
M  V30 17512 C 1680.07 -2.25966 -0.303873 0
M  V30 17513 C 1681.06 -1.30609 -0.939693 0
M  V30 17514 O 1682.25 -1.5536 -0.848079 0
M  V30 17515 C 1679.38 -3.14755 -1.37055 0
M  V30 17516 C 1678.46 -4.17573 -0.741214 0
M  V30 17517 N 1678.85 -5.05567 0.153357 0
M  V30 17518 C 1677.15 -4.34591 -1.00234 0
M  V30 17519 C 1677.85 -5.79432 0.513115 0
M  V30 17520 N 1676.83 -5.43472 -0.117819 0
M  V30 17521 H 1680.63 -2.91369 0.384854 0
M  V30 17522 H 1678.14 -1.59375 0.312007 0
M  V30 17523 H 1680.14 -3.68104 -1.95717 0
M  V30 17524 H 1678.8 -2.50903 -2.06101 0
M  V30 17525 H 1679.81 -5.15244 0.523862 0
M  V30 17526 H 1676.49 -3.81947 -1.6859 0
M  V30 17527 H 1677.88 -6.60271 1.24468 0
M  V30 17528 N 1680.6 -0.229873 -1.55915 0
M  V30 17529 C 1681.82 0.4072 -2.03363 0
M  V30 17530 C 1682.25 1.5197 -1.10845 0
M  V30 17531 O 1681.61 1.81034 -0.098175 0
M  V30 17532 C 1681.66 0.908268 -3.48974 0
M  V30 17533 O 1680.76 2.01907 -3.59593 0
M  V30 17534 H 1680.1 0.091091 -0.657722 0
M  V30 17535 H 1682.63 -0.350947 -2.01568 0
M  V30 17536 H 1682.64 1.21593 -3.8946 0
M  V30 17537 H 1681.32 0.0940655 -4.15794 0
M  V30 17538 H 1679.89 1.71741 -3.30998 0
M  V30 17539 N 1682.08 1.5754 0.0434337 0
M  V30 17540 C 1683.03 2.0207 1.05602 0
M  V30 17541 C 1684.01 0.907491 1.32866 0
M  V30 17542 O 1685.2 1.17141 1.32692 0
M  V30 17543 C 1682.33 2.49176 2.36149 0
M  V30 17544 C 1681.42 3.67289 2.12037 0
M  V30 17545 N 1681.81 4.8051 1.57937 0
M  V30 17546 C 1680.11 3.74386 2.42387 0
M  V30 17547 C 1680.81 5.62214 1.49298 0
M  V30 17548 N 1679.78 5.06899 1.96353 0
M  V30 17549 H 1683.59 2.87035 0.631515 0
M  V30 17550 H 1681.1 1.60464 0.250012 0
M  V30 17551 H 1683.1 2.79331 3.09483 0
M  V30 17552 H 1681.76 1.65611 2.79291 0
M  V30 17553 H 1682.77 5.02237 1.26405 0
M  V30 17554 H 1679.45 3.01592 2.88701 0
M  V30 17555 H 1680.84 6.6315 1.08082 0
M  V30 17556 N 1683.56 -0.31543 1.54411 0
M  V30 17557 C 1684.78 -1.0761 1.77299 0
M  V30 17558 C 1685.21 -1.80655 0.523963 0
M  V30 17559 O 1684.56 -1.73536 -0.524874 0
M  V30 17560 C 1684.61 -2.04355 2.97105 0
M  V30 17561 O 1683.72 -3.12401 2.69219 0
M  V30 17562 H 1683.06 -0.30986 0.587267 0
M  V30 17563 H 1685.59 -0.357246 2.01457 0
M  V30 17564 H 1685.6 -2.47081 3.24677 0
M  V30 17565 H 1684.27 -1.50592 3.87679 0
M  V30 17566 H 1682.85 -2.74294 2.52621 0
M  V30 17567 N 1685.03 -1.46622 -0.577906 0
M  V30 17568 C 1686.26 -1.56 -1.36671 0
M  V30 17569 C 1686.68 -0.2034 -1.86997 0
M  V30 17570 O 1686.04 0.817288 -1.61834 0
M  V30 17571 C 1686.09 -2.57254 -2.52691 0
M  V30 17572 O 1685.19 -2.1109 -3.54281 0
M  V30 17573 H 1684.54 -0.524779 -0.406821 0
M  V30 17574 H 1687.07 -1.92234 -0.700512 0
M  V30 17575 H 1687.08 -2.77016 -2.99543 0
M  V30 17576 H 1685.75 -3.55766 -2.15415 0
M  V30 17577 H 1684.33 -2.01337 -3.13875 0
M  V30 17578 N 1686.51 0.822941 -1.34408 0
M  V30 17579 C 1687.74 1.61087 -1.2984 0
M  V30 17580 C 1688.16 1.88369 0.127527 0
M  V30 17581 O 1687.51 1.47508 1.0746 0
M  V30 17582 C 1687.56 2.9518 -2.08689 0
M  V30 17583 O 1687.28 2.69089 -3.45721 0
M  V30 17584 C 1688.79 3.89583 -2.11518 0
M  V30 17585 H 1686.01 0.500726 -0.44667 0
M  V30 17586 H 1688.55 1.02391 -1.77021 0
M  V30 17587 H 1686.7 3.50434 -1.6515 0
M  V30 17588 H 1687.12 3.5459 -3.86479 0
M  V30 17589 H 1688.59 4.80835 -2.71111 0
M  V30 17590 H 1689.07 4.24953 -1.10957 0
M  V30 17591 H 1689.68 3.40265 -2.55146 0
M  V30 17592 N 1687.99 1.18137 1.04314 0
M  V30 17593 C 1688.95 0.908268 2.10436 0
M  V30 17594 C 1689.95 -0.105315 1.60455 0
M  V30 17595 O 1691.14 0.12785 1.7373 0
M  V30 17596 C 1688.28 0.362233 3.3897 0
M  V30 17597 H 1689.47 1.84928 2.36096 0
M  V30 17598 H 1687.02 0.993048 1.20699 0
M  V30 17599 H 1687.76 -0.58551 3.18971 0
M  V30 17600 H 1687.54 1.09285 3.76562 0
M  V30 17601 H 1689.03 0.18977 4.17169 0
M  V30 17602 N 1689.47 -1.23186 0.98301 0
M  V30 17603 C 1690.7 -1.95702 0.671453 0
M  V30 17604 C 1691.11 -1.72737 -0.76206 0
M  V30 17605 O 1690.47 -1.02037 -1.5131 0
M  V30 17606 C 1690.52 -3.48642 0.955573 0
M  V30 17607 O 1690.24 -3.70829 2.33275 0
M  V30 17608 C 1691.74 -4.38354 0.660333 0
M  V30 17609 H 1688.96 -0.623006 0.249209 0
M  V30 17610 H 1691.51 -1.56606 1.3151 0
M  V30 17611 H 1689.66 -3.85743 0.357892 0
M  V30 17612 H 1690.07 -4.65104 2.42443 0
M  V30 17613 H 1691.55 -5.44456 0.909477 0
M  V30 17614 H 1692.03 -4.37323 -0.405615 0
M  V30 17615 H 1692.63 -4.06864 1.23861 0
M  V30 17616 N 1690.95 -0.754982 -1.38339 0
M  V30 17617 C 1691.88 -0.143678 -2.33058 0
M  V30 17618 C 1692.86 0.702022 -1.54938 0
M  V30 17619 O 1694.04 0.642922 -1.83249 0
M  V30 17620 C 1691.17 0.749194 -3.39123 0
M  V30 17621 C 1690.13 0.00611459 -4.28 0
M  V30 17622 C 1689.45 1.01733 -5.24933 0
M  V30 17623 C 1690.75 -1.1631 -5.09185 0
M  V30 17624 H 1692.45 -0.934907 -2.84429 0
M  V30 17625 H 1689.99 -0.451023 -1.36754 0
M  V30 17626 H 1691.95 1.18653 -4.04351 0
M  V30 17627 H 1690.67 1.57276 -2.86237 0
M  V30 17628 H 1689.33 -0.411816 -3.6428 0
M  V30 17629 H 1688.98 1.83499 -4.68334 0
M  V30 17630 H 1688.68 0.524783 -5.85252 0
M  V30 17631 H 1690.2 1.45395 -5.93037 0
M  V30 17632 H 1691.61 -0.803244 -5.67645 0
M  V30 17633 H 1690.01 -1.5866 -5.78746 0
M  V30 17634 H 1691.08 -1.97533 -4.42842 0
M  V30 17635 N 1692.42 1.49318 -0.504168 0
M  V30 17636 C 1693.36 2.27103 0.309327 0
M  V30 17637 C 1694.37 1.33776 0.927781 0
M  V30 17638 O 1695.56 1.59034 0.810585 0
M  V30 17639 C 1692.66 3.06277 1.45078 0
M  V30 17640 C 1691.83 4.27201 0.939045 0
M  V30 17641 C 1690.89 4.88395 1.95849 0
M  V30 17642 O 1689.92 5.4837 1.52576 0
M  V30 17643 N 1691.12 4.78328 3.28911 0
M  V30 17644 H 1693.88 2.97558 -0.35767 0
M  V30 17645 H 1691.44 1.58356 -0.336907 0
M  V30 17646 H 1693.44 3.44088 2.13038 0
M  V30 17647 H 1692.01 2.38409 2.02188 0
M  V30 17648 H 1691.23 3.9411 0.0842433 0
M  V30 17649 H 1692.51 5.05534 0.575603 0
M  V30 17650 H 1691.91 4.30707 3.66753 0
M  V30 17651 H 1690.47 5.20315 3.92576 0
M  V30 17652 N 1693.9 0.238138 1.5579 0
M  V30 17653 C 1694.81 -0.676049 2.24648 0
M  V30 17654 C 1695.83 -1.20038 1.25964 0
M  V30 17655 O 1697 -1.2385 1.58818 0
M  V30 17656 C 1694.07 -1.86014 2.92574 0
M  V30 17657 C 1693.13 -1.37615 4.06646 0
M  V30 17658 C 1692.36 -2.5038 4.71323 0
M  V30 17659 O 1692.59 -3.68906 4.35045 0
M  V30 17660 O 1691.52 -2.20636 5.60003 0
M  V30 17661 H 1695.35 -0.119372 3.03465 0
M  V30 17662 H 1692.93 0.00699789 1.49398 0
M  V30 17663 H 1694.81 -2.55132 3.35389 0
M  V30 17664 H 1693.49 -2.4046 2.16704 0
M  V30 17665 H 1692.4 -0.652503 3.68366 0
M  V30 17666 H 1693.73 -0.877871 4.84308 0
M  V30 17667 N 1695.38 -1.57561 -0.0350783 0
M  V30 17668 C 1696.61 -1.93644 -0.742753 0
M  V30 17669 C 1697.03 -0.837655 -1.68419 0
M  V30 17670 O 1696.39 0.207069 -1.80114 0
M  V30 17671 C 1696.44 -3.28779 -1.48111 0
M  V30 17672 O 1695.54 -3.20604 -2.59398 0
M  V30 17673 H 1694.88 -0.633103 -0.200192 0
M  V30 17674 H 1697.41 -2.04599 0.00765271 0
M  V30 17675 H 1697.42 -3.63527 -1.85236 0
M  V30 17676 H 1696.1 -4.08316 -0.790608 0
M  V30 17677 H 1694.67 -2.97477 -2.2486 0
M  V30 17678 N 1696.86 0.307236 -1.54576 0
M  V30 17679 C 1698.09 1.06233 -1.77545 0
M  V30 17680 C 1698.5 1.81153 -0.5319 0
M  V30 17681 O 1697.86 1.75573 0.498044 0
M  V30 17682 C 1697.91 2.04775 -2.97908 0
M  V30 17683 O 1697.63 1.32896 -4.17457 0
M  V30 17684 C 1699.13 2.92373 -3.33216 0
M  V30 17685 H 1696.35 0.315318 -0.592297 0
M  V30 17686 H 1698.9 0.348403 -2.0151 0
M  V30 17687 H 1697.05 2.71679 -2.76169 0
M  V30 17688 H 1697.46 1.99022 -4.85274 0
M  V30 17689 H 1698.94 3.5738 -4.20694 0
M  V30 17690 H 1699.42 3.60343 -2.51097 0
M  V30 17691 H 1700.02 2.31009 -3.57093 0
M  V30 17692 N 1698.34 1.46926 0.570122 0
M  V30 17693 C 1699.58 1.53113 1.32982 0
M  V30 17694 C 1699.92 0.187401 1.93294 0
M  V30 17695 O 1699.19 -0.802585 1.77169 0
M  V30 17696 C 1699.47 2.63936 2.44969 0
M  V30 17697 C 1699.33 4.07882 1.8961 0
M  V30 17698 C 1700.65 2.70753 3.46959 0
M  V30 17699 H 1697.76 0.557398 0.482158 0
M  V30 17700 H 1700.41 1.78923 0.639259 0
M  V30 17701 H 1698.56 2.42059 3.03874 0
M  V30 17702 H 1700.23 4.41084 1.35066 0
M  V30 17703 H 1698.47 4.16768 1.20361 0
M  V30 17704 H 1699.14 4.81175 2.70508 0
M  V30 17705 H 1701.62 2.90452 2.97954 0
M  V30 17706 H 1700.49 3.50093 4.2276 0
M  V30 17707 H 1700.76 1.77299 4.04991 0
M  V30 17708 N 1699.82 -0.815801 1.34842 0
M  V30 17709 C 1700.77 -1.9162 1.23555 0
M  V30 17710 C 1701.75 -1.6035 0.132922 0
M  V30 17711 O 1702.94 -1.73232 0.363269 0
M  V30 17712 C 1700.07 -3.284 1.00043 0
M  V30 17713 C 1699.16 -3.65765 2.14655 0
M  V30 17714 N 1699.55 -3.74639 3.39822 0
M  V30 17715 C 1697.85 -3.9566 2.05837 0
M  V30 17716 C 1698.55 -4.07478 4.15135 0
M  V30 17717 N 1697.52 -4.21075 3.43797 0
M  V30 17718 H 1701.32 -1.96669 2.184 0
M  V30 17719 H 1698.84 -1.00987 1.27183 0
M  V30 17720 H 1700.84 -4.07059 0.900462 0
M  V30 17721 H 1699.5 -3.24643 0.0607337 0
M  V30 17722 H 1700.51 -3.57951 3.74288 0
M  V30 17723 H 1697.18 -3.99982 1.19667 0
M  V30 17724 H 1698.57 -4.21488 5.23257 0
M  V30 17725 N 1701.29 -1.18689 -1.03686 0
M  V30 17726 C 1702.54 -0.98606 -1.77214 0
M  V30 17727 C 1702.87 0.482788 -1.88103 0
M  V30 17728 O 1702.15 1.3585 -1.39194 0
M  V30 17729 C 1702.43 -1.64611 -3.20274 0
M  V30 17730 C 1702.28 -3.18808 -3.17304 0
M  V30 17731 C 1703.6 -1.36251 -4.18478 0
M  V30 17732 H 1700.72 -0.359634 -0.643298 0
M  V30 17733 H 1703.36 -1.46412 -1.21094 0
M  V30 17734 H 1701.51 -1.23964 -3.68192 0
M  V30 17735 H 1703.19 -3.68615 -2.77346 0
M  V30 17736 H 1701.43 -3.50769 -2.55232 0
M  V30 17737 H 1702.1 -3.60131 -4.18341 0
M  V30 17738 H 1704.58 -1.71476 -3.79124 0
M  V30 17739 H 1703.45 -1.84997 -5.16786 0
M  V30 17740 H 1703.71 -0.286113 -4.41173 0
M  V30 17741 N 1702.77 1.22662 -0.989529 0
M  V30 17742 C 1703.7 2.26762 -0.556891 0
M  V30 17743 C 1704.68 1.64971 0.414538 0
M  V30 17744 O 1705.87 1.91775 0.305909 0
M  V30 17745 C 1703 3.47047 0.132573 0
M  V30 17746 C 1701.95 4.21251 -0.757058 0
M  V30 17747 C 1701.28 5.3466 0.065134 0
M  V30 17748 C 1702.58 4.8029 -2.05229 0
M  V30 17749 H 1704.27 2.63204 -1.42703 0
M  V30 17750 H 1701.82 1.26522 -0.687614 0
M  V30 17751 H 1703.77 4.19027 0.446609 0
M  V30 17752 H 1702.49 3.09692 1.03723 0
M  V30 17753 H 1701.15 3.51101 -1.05469 0
M  V30 17754 H 1700.8 4.93547 0.970607 0
M  V30 17755 H 1700.5 5.85231 -0.527063 0
M  V30 17756 H 1702.03 6.09458 0.373342 0
M  V30 17757 H 1703.44 5.44229 -1.80242 0
M  V30 17758 H 1701.84 5.41186 -2.59302 0
M  V30 17759 H 1702.91 4.00529 -2.73322 0
M  V30 17760 N 1704.25 0.762308 1.37937 0
M  V30 17761 C 1705.16 0.142724 2.34165 0
M  V30 17762 C 1706.18 -0.690588 1.59709 0
M  V30 17763 O 1707.35 -0.61271 1.91854 0
M  V30 17764 C 1704.42 -0.733325 3.38856 0
M  V30 17765 C 1703.48 0.115359 4.29145 0
M  V30 17766 C 1702.71 -0.718972 5.28835 0
M  V30 17767 O 1702.93 -1.95656 5.35794 0
M  V30 17768 O 1701.87 -0.133162 6.01753 0
M  V30 17769 H 1705.69 0.937662 2.88863 0
M  V30 17770 H 1703.28 0.523325 1.39935 0
M  V30 17771 H 1705.16 -1.23374 4.02935 0
M  V30 17772 H 1703.84 -1.50661 2.86501 0
M  V30 17773 H 1702.74 0.661926 3.68197 0
M  V30 17774 H 1704.08 0.851505 4.84779 0
M  V30 17775 N 1705.73 -1.49049 0.51208 0
M  V30 17776 C 1706.67 -2.29326 -0.260408 0
M  V30 17777 C 1707.64 -1.36232 -0.950265 0
M  V30 17778 O 1708.83 -1.65193 -0.954777 0
M  V30 17779 C 1705.97 -3.19177 -1.31225 0
M  V30 17780 C 1705.08 -4.27336 -0.63305 0
M  V30 17781 C 1704.22 -5.04389 -1.66628 0
M  V30 17782 C 1703.26 -6.04372 -0.969561 0
M  V30 17783 N 1702.39 -6.74549 -1.94751 0
M  V30 17784 H 1707.23 -2.94876 0.430384 0
M  V30 17785 H 1704.77 -1.45383 0.224086 0
M  V30 17786 H 1706.73 -3.69655 -1.9342 0
M  V30 17787 H 1705.36 -2.55588 -1.97166 0
M  V30 17788 H 1704.41 -3.80262 0.102433 0
M  V30 17789 H 1705.72 -4.98727 -0.0851363 0
M  V30 17790 H 1704.88 -5.58791 -2.36299 0
M  V30 17791 H 1703.62 -4.32797 -2.24807 0
M  V30 17792 H 1702.62 -5.49191 -0.25869 0
M  V30 17793 H 1703.85 -6.77955 -0.394125 0
M  V30 17794 H 1701.79 -6.0572 -2.5187 0
M  V30 17795 H 1701.71 -7.41954 -1.45055 0
M  V30 17796 H 1702.98 -7.3355 -2.63675 0
M  V30 17797 N 1707.21 -0.246397 -1.55662 0
M  V30 17798 C 1708.45 0.377739 -1.98539 0
M  V30 17799 C 1708.77 1.58504 -1.13585 0
M  V30 17800 O 1708.04 1.94677 -0.218528 0
M  V30 17801 H 1706.62 0.142554 -0.733272 0
M  V30 17802 H 1709.29 -0.345069 -1.91821 0
M  V30 17803 H 1708.38 0.687224 -3.0444 0
M  V30 17804 N 1708.68 1.57577 0.026722 0
M  V30 17805 C 1709.65 2.05684 1.01127 0
M  V30 17806 C 1710.65 0.961373 1.28896 0
M  V30 17807 O 1711.84 1.22491 1.23861 0
M  V30 17808 C 1708.97 2.47576 2.34348 0
M  V30 17809 H 1710.16 2.93925 0.595681 0
M  V30 17810 H 1707.71 1.53887 0.273603 0
M  V30 17811 H 1708.45 1.62498 2.80651 0
M  V30 17812 H 1708.23 3.27556 2.15521 0
M  V30 17813 H 1709.72 2.85214 3.05029 0
M  V30 17814 N 1710.16 -0.299034 1.54737 0
M  V30 17815 C 1711.41 -1.03553 1.74369 0
M  V30 17816 C 1711.74 -1.86856 0.529019 0
M  V30 17817 O 1711.02 -1.8864 -0.473854 0
M  V30 17818 C 1711.3 -1.93988 3.03382 0
M  V30 17819 C 1711.15 -1.13852 4.35153 0
M  V30 17820 C 1712.47 -2.93128 3.28274 0
M  V30 17821 H 1709.59 -0.375055 0.634431 0
M  V30 17822 H 1712.23 -0.310018 1.87454 0
M  V30 17823 H 1710.38 -2.5585 2.92358 0
M  V30 17824 H 1712.05 -0.542614 4.58098 0
M  V30 17825 H 1710.3 -0.441278 4.3155 0
M  V30 17826 H 1710.97 -1.80385 5.21694 0
M  V30 17827 H 1713.44 -2.41396 3.38921 0
M  V30 17828 H 1712.32 -3.53569 4.19857 0
M  V30 17829 H 1712.58 -3.66892 2.46663 0
M  V30 17830 N 1711.64 -1.47227 -0.562322 0
M  V30 17831 C 1712.87 -1.57196 -1.34526 0
M  V30 17832 C 1713.28 -0.220303 -1.8751 0
M  V30 17833 O 1712.64 0.785664 -1.64723 0
M  V30 17834 C 1712.69 -2.59312 -2.51872 0
M  V30 17835 O 1712.41 -3.89229 -2.01078 0
M  V30 17836 C 1713.91 -2.79416 -3.44153 0
M  V30 17837 H 1711.13 -0.530971 -0.410257 0
M  V30 17838 H 1713.68 -1.92804 -0.68168 0
M  V30 17839 H 1711.83 -2.26652 -3.14178 0
M  V30 17840 H 1712.25 -4.44985 -2.77648 0
M  V30 17841 H 1713.72 -3.54743 -4.2292 0
M  V30 17842 H 1714.2 -1.87054 -3.97376 0
M  V30 17843 H 1714.8 -3.13254 -2.87667 0
M  V30 17844 N 1713.12 0.808639 -1.35273 0
M  V30 17845 C 1714.36 1.56794 -1.28621 0
M  V30 17846 C 1714.7 1.93697 0.139686 0
M  V30 17847 O 1713.97 1.61185 1.08856 0
M  V30 17848 C 1714.25 2.85794 -2.19075 0
M  V30 17849 C 1714.11 2.5538 -3.70271 0
M  V30 17850 C 1715.43 3.87481 -2.08678 0
M  V30 17851 H 1712.55 0.568873 -0.468564 0
M  V30 17852 H 1715.19 0.930499 -1.65655 0
M  V30 17853 H 1713.34 3.40191 -1.87622 0
M  V30 17854 H 1715.01 2.07182 -4.12157 0
M  V30 17855 H 1713.25 1.88605 -3.90654 0
M  V30 17856 H 1713.92 3.47432 -4.28947 0
M  V30 17857 H 1716.4 3.42478 -2.36323 0
M  V30 17858 H 1715.28 4.75523 -2.7417 0
M  V30 17859 H 1715.54 4.29004 -1.06809 0
M  V30 17860 N 1714.6 1.19237 1.03055 0
M  V30 17861 C 1715.55 0.896404 2.09639 0
M  V30 17862 C 1716.53 -0.138099 1.60306 0
M  V30 17863 O 1717.72 0.0673592 1.76872 0
M  V30 17864 C 1714.85 0.435042 3.40532 0
M  V30 17865 C 1713.94 1.50219 3.96604 0
M  V30 17866 N 1714.33 2.72121 4.26361 0
M  V30 17867 C 1712.63 1.36509 4.24596 0
M  V30 17868 C 1713.33 3.40853 4.71374 0
M  V30 17869 N 1712.3 2.68246 4.72806 0
M  V30 17870 H 1716.11 1.82292 2.30536 0
M  V30 17871 H 1713.62 1.08428 1.20901 0
M  V30 17872 H 1715.62 0.204471 4.16398 0
M  V30 17873 H 1714.28 -0.485016 3.21057 0
M  V30 17874 H 1715.29 3.08899 4.15694 0
M  V30 17875 H 1711.96 0.508358 4.14394 0
M  V30 17876 H 1713.35 4.4509 5.03333 0
M  V30 17877 N 1716.07 -1.22136 0.99602 0
M  V30 17878 C 1717.32 -1.90967 0.673634 0
M  V30 17879 C 1717.65 -1.77526 -0.794654 0
M  V30 17880 O 1716.9 -1.14014 -1.59058 0
M  V30 17881 C 1717.2 -3.42259 1.02926 0
M  V30 17882 C 1716.87 -3.75891 2.49032 0
M  V30 17883 C 1715.53 -3.84781 2.88959 0
M  V30 17884 C 1717.88 -3.91799 3.43719 0
M  V30 17885 C 1715.21 -4.0702 4.22554 0
M  V30 17886 C 1717.56 -4.15543 4.76977 0
M  V30 17887 C 1716.23 -4.22658 5.1664 0
M  V30 17888 H 1715.5 -0.698798 0.2465 0
M  V30 17889 H 1718.14 -1.44836 1.25279 0
M  V30 17890 H 1716.45 -3.90066 0.368224 0
M  V30 17891 H 1718.15 -3.93774 0.757803 0
M  V30 17892 H 1714.74 -3.69556 2.17086 0
M  V30 17893 H 1718.92 -3.84306 3.14042 0
M  V30 17894 H 1714.18 -4.10756 4.52868 0
M  V30 17895 H 1718.35 -4.26796 5.50289 0
M  V30 17896 H 1715.98 -4.39643 6.20176 0
M  V30 17897 N 1717.55 -0.769612 -1.37531 0
M  V30 17898 C 1718.78 -0.343069 -2.04543 0
M  V30 17899 C 1719.2 1.02583 -1.57665 0
M  V30 17900 O 1718.56 1.65692 -0.735915 0
M  V30 17901 C 1718.61 -0.392914 -3.58453 0
M  V30 17902 O 1717.71 0.607401 -4.07902 0
M  V30 17903 H 1717.05 -0.148905 -0.647088 0
M  V30 17904 H 1719.58 -1.04521 -1.75888 0
M  V30 17905 H 1719.59 -0.24945 -4.07237 0
M  V30 17906 H 1718.27 -1.39159 -3.91928 0
M  V30 17907 H 1716.85 0.427231 -3.70445 0
M  V30 17908 N 1719.03 1.48775 -0.519977 0
M  V30 17909 C 1720.26 2.06895 0.0139983 0
M  V30 17910 C 1720.67 1.37786 1.29075 0
M  V30 17911 O 1720.03 0.462168 1.76551 0
M  V30 17912 C 1720.08 3.60621 0.251999 0
M  V30 17913 O 1719.8 4.27132 -0.974158 0
M  V30 17914 C 1721.3 4.35508 0.827483 0
M  V30 17915 H 1718.52 0.670373 -0.0290011 0
M  V30 17916 H 1721.07 1.91302 -0.722762 0
M  V30 17917 H 1719.22 3.75853 0.938783 0
M  V30 17918 H 1719.64 5.19129 -0.748697 0
M  V30 17919 H 1721.11 5.43877 0.943492 0
M  V30 17920 H 1721.59 3.99261 1.82996 0
M  V30 17921 H 1722.19 4.24929 0.177578 0
M  V30 17922 N 1720.51 0.254649 1.55529 0
M  V30 17923 C 1721.47 -0.62836 2.20418 0
M  V30 17924 C 1722.47 -1.09691 1.17578 0
M  V30 17925 O 1723.66 -1.00037 1.42612 0
M  V30 17926 C 1720.79 -1.86453 2.85391 0
M  V30 17927 H 1721.99 -0.0621032 2.99836 0
M  V30 17928 H 1719.54 0.00514311 1.56299 0
M  V30 17929 H 1720.27 -2.47182 2.09932 0
M  V30 17930 H 1720.06 -1.53669 3.60733 0
M  V30 17931 H 1721.55 -2.49291 3.35028 0
M  V30 17932 N 1721.99 -1.57589 -0.0183649 0
M  V30 17933 C 1723.21 -1.94421 -0.722172 0
M  V30 17934 C 1723.64 -0.855471 -1.67521 0
M  V30 17935 O 1722.99 0.187954 -1.80323 0
M  V30 17936 C 1723.04 -3.30331 -1.44615 0
M  V30 17937 O 1722.15 -3.23337 -2.55982 0
M  V30 17938 H 1721.49 -0.63519 -0.193466 0
M  V30 17939 H 1724.02 -2.04579 0.0293527 0
M  V30 17940 H 1724.03 -3.65471 -1.8137 0
M  V30 17941 H 1722.7 -4.09132 -0.747256 0
M  V30 17942 H 1721.28 -2.99845 -2.21692 0
M  V30 17943 N 1723.46 0.290824 -1.54893 0
M  V30 17944 C 1724.88 0.86313 -1.6555 0
M  V30 17945 C 1725.23 1.87713 -0.570806 0
M  V30 17946 O 1724.35 2.14437 0.290826 0
M  V30 17947 C 1724.95 1.57231 -3.00107 0
M  V30 17948 C 1723.51 2.09288 -3.1285 0
M  V30 17949 C 1722.65 0.928933 -2.61278 0
M  V30 17950 H 1725.6 0.0675807 -1.58556 0
M  V30 17951 H 1725.62 2.43841 -2.92099 0
M  V30 17952 H 1725.14 0.834055 -3.79032 0
M  V30 17953 H 1723.24 2.86129 -2.38665 0
M  V30 17954 H 1723.35 2.32042 -4.19158 0
M  V30 17955 H 1721.71 1.31735 -2.17986 0
M  V30 17956 H 1722.5 0.204475 -3.42691 0
M  V30 17957 N 1724.94 1.47523 0.554506 0
M  V30 17958 C 1725.87 1.56275 1.67663 0
M  V30 17959 C 1726.89 0.448743 1.56493 0
M  V30 17960 O 1728.08 0.718478 1.63402 0
M  V30 17961 C 1725.18 1.45348 3.06149 0
M  V30 17962 C 1724.35 2.71364 3.43046 0
M  V30 17963 C 1723.41 2.54237 4.60706 0
M  V30 17964 O 1722.43 3.28059 4.65152 0
M  V30 17965 N 1723.64 1.6224 5.57367 0
M  V30 17966 H 1726.4 2.53036 1.60601 0
M  V30 17967 H 1723.96 1.43936 0.741209 0
M  V30 17968 H 1725.95 1.31621 3.82698 0
M  V30 17969 H 1724.52 0.566583 3.07423 0
M  V30 17970 H 1723.74 2.99833 2.55917 0
M  V30 17971 H 1725.03 3.55017 3.64473 0
M  V30 17972 H 1724.43 1.01419 5.56534 0
M  V30 17973 H 1722.99 1.54463 6.33233 0
M  V30 17974 N 1726.42 -0.801453 1.357 0
M  V30 17975 C 1727.38 -1.89514 1.28907 0
M  V30 17976 C 1728.38 -1.59559 0.19938 0
M  V30 17977 O 1729.57 -1.68196 0.453408 0
M  V30 17978 C 1726.71 -3.26044 0.995411 0
M  V30 17979 H 1727.9 -1.96956 2.2616 0
M  V30 17980 H 1725.45 -0.997899 1.20298 0
M  V30 17981 H 1726.19 -3.24289 0.0269561 0
M  V30 17982 H 1725.97 -3.49172 1.78385 0
M  V30 17983 H 1727.46 -4.06092 0.97362 0
M  V30 17984 N 1727.9 -1.19782 -1.02421 0
M  V30 17985 C 1728.85 -0.936475 -2.12915 0
M  V30 17986 C 1729.84 0.10941 -1.69046 0
M  V30 17987 O 1731.05 -0.04026 -1.79955 0
M  V30 17988 H 1727.42 -0.285462 -0.695712 0
M  V30 17989 H 1729.39 -1.87485 -2.32146 0
M  V30 17990 C 1728.14 -0.496786 -3.44133 0
M  V30 17991 H 1727.46 -1.29314 -3.78309 0
M  V30 17992 H 1728.9 -0.353073 -4.22527 0
M  V30 17993 C 1727.36 0.789792 -3.27512 0
M  V30 17994 O 1727.89 1.85009 -3.56559 0
M  V30 17995 N 1726.1 0.748849 -2.80786 0
M  V30 17996 H 1725.65 -0.114256 -2.57346 0
M  V30 17997 H 1725.6 1.61005 -2.70046 0
M  V30 17998 N 1729.38 1.21606 -1.00248 0
M  V30 17999 C 1730.62 1.90607 -0.683752 0
M  V30 18000 C 1730.95 1.77945 0.785228 0
M  V30 18001 O 1730.21 1.14856 1.58451 0
M  V30 18002 C 1730.51 3.41708 -1.04739 0
M  V30 18003 C 1730.17 3.74565 -2.51022 0
M  V30 18004 C 1728.83 3.83243 -2.90995 0
M  V30 18005 C 1731.19 3.89971 -3.45792 0
M  V30 18006 C 1728.51 4.04773 -4.24707 0
M  V30 18007 C 1730.87 4.13008 -4.79174 0
M  V30 18008 C 1729.53 4.19912 -5.18874 0
M  V30 18009 H 1728.8 0.697481 -0.250203 0
M  V30 18010 H 1731.45 1.4417 -1.26045 0
M  V30 18011 H 1729.75 3.89865 -0.388905 0
M  V30 18012 H 1731.45 3.93367 -0.778675 0
M  V30 18013 H 1728.04 3.68399 -2.19043 0
M  V30 18014 H 1732.22 3.82635 -3.16076 0
M  V30 18015 H 1727.48 4.08349 -4.5504 0
M  V30 18016 H 1731.65 4.23871 -5.52545 0
M  V30 18017 H 1729.28 4.36348 -6.22499 0
M  V30 18018 N 1730.86 0.776895 1.37121 0
M  V30 18019 C 1732.1 0.340209 1.9881 0
M  V30 18020 C 1732.42 -1.09071 1.62367 0
M  V30 18021 O 1733.62 -1.62904 2.17197 0
M  V30 18022 C 1732.08 0.557325 3.55559 0
M  V30 18023 C 1731.69 1.99884 4.00937 0
M  V30 18024 C 1733.43 0.184519 4.24099 0
M  V30 18025 C 1731.34 2.16328 5.50415 0
M  V30 18026 H 1730.27 0.12346 0.743824 0
M  V30 18027 H 1732.92 0.956754 1.56584 0
M  V30 18028 H 1731.3 -0.128752 3.95791 0
M  V30 18029 H 1732.48 2.72029 3.71937 0
M  V30 18030 H 1730.79 2.32872 3.45195 0
M  V30 18031 H 1733.39 0.285827 5.33935 0
M  V30 18032 H 1733.73 -0.865859 4.07196 0
M  V30 18033 H 1734.26 0.823343 3.89186 0
M  V30 18034 H 1731 3.19703 5.7225 0
M  V30 18035 H 1730.52 1.48673 5.81082 0
M  V30 18036 H 1732.2 1.96437 6.16459 0
M  V30 18037 N 1732.33 -1.48497 0.527859 0
M  V30 18038 C 1733.58 -2.02799 -0.00702196 0
M  V30 18039 C 1733.91 -1.40433 -1.34135 0
M  V30 18040 O 1733.19 -0.54934 -1.86581 0
M  V30 18041 C 1733.47 -3.59861 -0.131272 0
M  V30 18042 C 1733.32 -4.32711 1.22807 0
M  V30 18043 C 1734.64 -4.31634 -0.85908 0
M  V30 18044 H 1731.76 -0.736999 -0.00107787 0
M  V30 18045 H 1734.4 -1.77242 0.684478 0
M  V30 18046 H 1732.55 -3.81766 -0.720216 0
M  V30 18047 H 1734.23 -4.22229 1.85796 0
M  V30 18048 H 1732.47 -3.94212 1.8105 0
M  V30 18049 H 1733.14 -5.41047 1.09415 0
M  V30 18050 H 1735.62 -4.14546 -0.359322 0
M  V30 18051 H 1734.49 -5.41221 -0.914911 0
M  V30 18052 H 1734.75 -3.98765 -1.90889 0
M  V30 18053 N 1733.81 -0.262893 -1.55392 0
M  V30 18054 C 1735.04 0.363972 -2.04181 0
M  V30 18055 C 1735.46 1.49585 -1.14044 0
M  V30 18056 O 1734.82 1.80785 -0.136553 0
M  V30 18057 C 1734.87 0.834041 -3.50822 0
M  V30 18058 O 1733.97 1.94234 -3.63795 0
M  V30 18059 H 1733.31 0.0771193 -0.659506 0
M  V30 18060 H 1735.84 -0.393623 -2.00778 0
M  V30 18061 H 1735.85 1.13304 -3.91952 0
M  V30 18062 H 1734.53 0.00584833 -4.159 0
M  V30 18063 H 1733.1 1.64681 -3.34566 0
M  V30 18064 N 1735.29 1.57597 0.0100073 0
M  V30 18065 C 1736.22 2.10825 1.00375 0
M  V30 18066 C 1737.2 1.01507 1.36493 0
M  V30 18067 O 1738.39 1.29136 1.45043 0
M  V30 18068 C 1735.52 2.60334 2.29878 0
M  V30 18069 C 1734.47 3.74087 2.07949 0
M  V30 18070 C 1733.8 4.09873 3.43378 0
M  V30 18071 C 1735.1 5.01764 1.45018 0
M  V30 18072 H 1736.79 2.94105 0.560591 0
M  V30 18073 H 1734.34 1.4148 0.268208 0
M  V30 18074 H 1736.29 2.96196 2.99743 0
M  V30 18075 H 1735.01 1.74162 2.76288 0
M  V30 18076 H 1733.67 3.38603 1.40512 0
M  V30 18077 H 1733.32 3.20739 3.87473 0
M  V30 18078 H 1733.02 4.86505 3.29525 0
M  V30 18079 H 1734.54 4.48285 4.14575 0
M  V30 18080 H 1735.96 5.35462 2.04826 0
M  V30 18081 H 1734.35 5.83135 1.41683 0
M  V30 18082 H 1735.42 4.83093 0.41819 0
M  V30 18083 N 1736.77 -0.282606 1.55045 0
M  V30 18084 C 1738.01 -1.02323 1.76945 0
M  V30 18085 C 1738.37 -1.83845 0.553631 0
M  V30 18086 O 1739.57 -2.60805 0.650695 0
M  V30 18087 C 1737.84 -1.89026 3.03322 0
M  V30 18088 S 1739.4 -2.69484 3.463 0
M  V30 18089 H 1736.22 -0.344792 0.621804 0
M  V30 18090 H 1738.82 -0.294652 1.93267 0
M  V30 18091 H 1737.53 -1.28043 3.89914 0
M  V30 18092 H 1737.06 -2.6622 2.89638 0
M  V30 18093 H 1739.07 -3.91537 3.04817 0
M  V30 18094 N 1738.25 -1.47815 -0.546675 0
M  V30 18095 C 1739.49 -1.54674 -1.30078 0
M  V30 18096 C 1739.81 -0.215151 -1.93809 0
M  V30 18097 O 1739.08 0.761862 -1.80478 0
M  V30 18098 H 1737.66 -0.569776 -0.483078 0
M  V30 18099 H 1740.33 -1.84178 -0.637525 0
M  V30 18100 H 1739.42 -2.31894 -2.08882 0
M  V30 18101 N 1739.72 0.794246 -1.36123 0
M  V30 18102 C 1740.67 1.90668 -1.30056 0
M  V30 18103 C 1741.64 1.65226 -0.170145 0
M  V30 18104 O 1742.83 1.87452 -0.355874 0
M  V30 18105 C 1739.97 3.27405 -1.09086 0
M  V30 18106 C 1739.08 3.64951 -2.31159 0
M  V30 18107 C 1738.21 4.90782 -2.0324 0
M  V30 18108 C 1737.25 5.20992 -3.21301 0
M  V30 18109 N 1736.39 6.38005 -2.93078 0
M  V30 18110 H 1741.23 1.9519 -2.25178 0
M  V30 18111 H 1738.77 0.95458 -1.1192 0
M  V30 18112 H 1740.72 4.0625 -0.94956 0
M  V30 18113 H 1739.35 3.22319 -0.176211 0
M  V30 18114 H 1738.41 2.81268 -2.5611 0
M  V30 18115 H 1739.72 3.83228 -3.19277 0
M  V30 18116 H 1738.87 5.77481 -1.86012 0
M  V30 18117 H 1737.61 4.74565 -1.12426 0
M  V30 18118 H 1736.62 4.32777 -3.39093 0
M  V30 18119 H 1737.84 5.39131 -4.12934 0
M  V30 18120 H 1735.79 6.23189 -2.0487 0
M  V30 18121 H 1735.7 6.56591 -3.74733 0
M  V30 18122 H 1736.97 7.27699 -2.79418 0
M  V30 18123 N 1741.2 1.20323 1.01785 0
M  V30 18124 C 1742.15 0.950946 2.10299 0
M  V30 18125 C 1743.12 -0.118376 1.65678 0
M  V30 18126 O 1744.3 0.0260849 1.90782 0
M  V30 18127 C 1741.44 0.507765 3.41344 0
M  V30 18128 C 1740.56 1.6451 3.9945 0
M  V30 18129 C 1739.69 1.15235 5.1855 0
M  V30 18130 C 1738.73 2.26285 5.68737 0
M  V30 18131 N 1737.87 1.78237 6.79099 0
M  V30 18132 H 1742.71 1.87999 2.31215 0
M  V30 18133 H 1740.24 0.937108 1.13387 0
M  V30 18134 H 1742.2 0.232143 4.16554 0
M  V30 18135 H 1740.83 -0.384278 3.20505 0
M  V30 18136 H 1739.88 2.03567 3.21348 0
M  V30 18137 H 1741.2 2.48135 4.32702 0
M  V30 18138 H 1740.35 0.832619 6.0096 0
M  V30 18139 H 1739.09 0.285978 4.86861 0
M  V30 18140 H 1738.09 2.59076 4.84933 0
M  V30 18141 H 1739.32 3.13397 6.02461 0
M  V30 18142 H 1737.27 0.939248 6.49241 0
M  V30 18143 H 1737.18 2.55443 7.11537 0
M  V30 18144 H 1738.45 1.4926 7.65076 0
M  V30 18145 N 1742.68 -1.21073 1.00892 0
M  V30 18146 C 1743.91 -1.94233 0.712813 0
M  V30 18147 C 1744.32 -1.74315 -0.725249 0
M  V30 18148 O 1743.68 -1.05224 -1.49111 0
M  V30 18149 C 1743.73 -3.46536 1.02931 0
M  V30 18150 O 1743.45 -3.65798 2.41088 0
M  V30 18151 C 1744.95 -4.36855 0.753166 0
M  V30 18152 H 1742.17 -0.617579 0.262367 0
M  V30 18153 H 1744.72 -1.53781 1.34802 0
M  V30 18154 H 1742.87 -3.84897 0.439634 0
M  V30 18155 H 1743.29 -4.59857 2.52254 0
M  V30 18156 H 1744.76 -5.42405 1.02476 0
M  V30 18157 H 1745.24 -4.38085 -0.312761 0
M  V30 18158 H 1745.84 -4.04145 1.32464 0
M  V30 18159 N 1744.16 -0.784156 -1.36707 0
M  V30 18160 C 1745.39 -0.365901 -2.03639 0
M  V30 18161 C 1745.8 1.01599 -1.59132 0
M  V30 18162 O 1745.16 1.65072 -0.778298 0
M  V30 18163 C 1745.21 -0.414035 -3.59121 0
M  V30 18164 O 1744.93 -1.74142 -4.02003 0
M  V30 18165 C 1746.43 0.0142546 -4.43298 0
M  V30 18166 H 1743.65 -0.151525 -0.653667 0
M  V30 18167 H 1746.2 -1.06154 -1.7479 0
M  V30 18168 H 1744.35 0.233134 -3.86698 0
M  V30 18169 H 1744.76 -1.68861 -4.96575 0
M  V30 18170 H 1746.24 -0.0705681 -5.51955 0
M  V30 18171 H 1746.72 1.06623 -4.26061 0
M  V30 18172 H 1747.32 -0.605201 -4.20972 0
M  V30 18173 N 1745.64 1.48215 -0.535727 0
M  V30 18174 C 1746.88 2.04399 -0.0058065 0
M  V30 18175 C 1747.24 1.40332 1.31037 0
M  V30 18176 O 1748.44 1.87437 1.92668 0
M  V30 18177 C 1746.71 3.57237 0.107773 0
M  V30 18178 S 1748.27 4.34857 0.586926 0
M  V30 18179 H 1745.09 0.710846 -0.0148167 0
M  V30 18180 H 1747.69 1.81854 -0.717592 0
M  V30 18181 H 1746.4 4.01398 -0.85488 0
M  V30 18182 H 1745.93 3.84245 0.843764 0
M  V30 18183 H 1747.94 4.60405 1.85045 0
M  V30 18184 N 1747.11 0.27113 1.5525 0
M  V30 18185 C 1748.06 -0.634087 2.2379 0
M  V30 18186 C 1749.06 -1.16101 1.23357 0
M  V30 18187 O 1750.26 -1.1151 1.413 0
M  V30 18188 H 1746.64 -0.223023 0.718168 0
M  V30 18189 H 1748.61 -0.0331304 2.98382 0
M  V30 18190 C 1747.36 -1.80879 2.96948 0
M  V30 18191 H 1746.68 -1.41252 3.74016 0
M  V30 18192 H 1748.12 -2.41888 3.48233 0
M  V30 18193 C 1746.58 -2.69481 2.02192 0
M  V30 18194 O 1747.11 -3.69725 1.57056 0
M  V30 18195 N 1745.32 -2.36565 1.68776 0
M  V30 18196 H 1744.86 -1.55096 2.05677 0
M  V30 18197 H 1744.82 -2.96119 1.05646 0
M  V30 18198 N 1748.59 -1.576 -0.00164943 0
M  V30 18199 C 1749.56 -2.07267 -0.978423 0
M  V30 18200 C 1750.56 -0.981758 -1.27351 0
M  V30 18201 O 1751.75 -1.24446 -1.21896 0
M  V30 18202 C 1748.88 -2.51273 -2.30379 0
M  V30 18203 H 1750.07 -2.94835 -0.548845 0
M  V30 18204 H 1747.62 -1.54302 -0.249086 0
M  V30 18205 H 1748.36 -1.66943 -2.7803 0
M  V30 18206 H 1748.14 -3.30943 -2.10283 0
M  V30 18207 H 1749.63 -2.90031 -3.00453 0
M  V30 18208 N 1750.07 0.274379 -1.55193 0
M  V30 18209 C 1750.98 1.36118 -1.91073 0
M  V30 18210 C 1752 1.54111 -0.807823 0
M  V30 18211 O 1753.17 1.68264 -1.10676 0
M  V30 18212 C 1750.24 2.70062 -2.17411 0
M  V30 18213 C 1749.3 2.60827 -3.4098 0
M  V30 18214 C 1748.53 3.88384 -3.66052 0
M  V30 18215 O 1748.75 4.89 -2.93657 0
M  V30 18216 O 1747.69 3.8867 -4.59586 0
M  V30 18217 H 1751.51 1.08686 -2.83586 0
M  V30 18218 H 1749.1 0.472784 -1.41722 0
M  V30 18219 H 1750.98 3.49264 -2.35782 0
M  V30 18220 H 1749.66 2.97283 -1.28081 0
M  V30 18221 H 1748.56 1.80006 -3.27946 0
M  V30 18222 H 1749.9 2.38556 -4.30525 0
M  V30 18223 N 1751.55 1.48103 0.538828 0
M  V30 18224 C 1752.79 1.5726 1.3057 0
M  V30 18225 C 1753.15 0.237208 1.90529 0
M  V30 18226 O 1754.35 0.203723 2.68027 0
M  V30 18227 C 1752.62 2.67292 2.37254 0
M  V30 18228 S 1754.18 2.96157 3.23785 0
M  V30 18229 H 1751 0.555112 0.444265 0
M  V30 18230 H 1753.6 1.8558 0.614855 0
M  V30 18231 H 1752.31 3.62892 1.91671 0
M  V30 18232 H 1751.84 2.40846 3.11057 0
M  V30 18233 H 1753.85 2.34777 4.37143 0
M  V30 18234 N 1753.03 -0.787016 1.36542 0
M  V30 18235 C 1753.97 -1.89975 1.31065 0
M  V30 18236 C 1754.94 -1.65134 0.178905 0
M  V30 18237 O 1756.13 -1.8726 0.36581 0
M  V30 18238 C 1753.27 -3.26822 1.10821 0
M  V30 18239 C 1752.38 -3.6372 2.33091 0
M  V30 18240 C 1751.52 -4.89697 2.0584 0
M  V30 18241 C 1750.56 -5.1928 3.24059 0
M  V30 18242 N 1749.69 -6.36441 2.96457 0
M  V30 18243 H 1754.53 -1.93993 2.2621 0
M  V30 18244 H 1752.07 -0.948631 1.12425 0
M  V30 18245 H 1754.03 -4.05741 0.971091 0
M  V30 18246 H 1752.66 -3.22221 0.193302 0
M  V30 18247 H 1751.71 -2.79906 2.57598 0
M  V30 18248 H 1753.02 -3.81529 3.21305 0
M  V30 18249 H 1752.18 -5.76486 1.89072 0
M  V30 18250 H 1750.91 -4.73962 1.14941 0
M  V30 18251 H 1749.92 -4.30973 3.41383 0
M  V30 18252 H 1751.14 -5.36934 4.15787 0
M  V30 18253 H 1749.09 -6.22093 2.08172 0
M  V30 18254 H 1749.01 -6.54594 3.78209 0
M  V30 18255 H 1750.28 -7.26207 2.83273 0
M  V30 18256 N 1754.5 -1.20861 -1.01145 0
M  V30 18257 C 1755.92 -1.02156 -1.56272 0
M  V30 18258 C 1756.27 0.420552 -1.9164 0
M  V30 18259 O 1755.39 1.30277 -1.72792 0
M  V30 18260 C 1755.99 -1.84812 -2.83954 0
M  V30 18261 C 1754.55 -1.70458 -3.35591 0
M  V30 18262 C 1753.69 -1.82425 -2.08846 0
M  V30 18263 H 1756.64 -1.34978 -0.834669 0
M  V30 18264 H 1756.66 -1.35455 -3.55573 0
M  V30 18265 H 1756.18 -2.89765 -2.58181 0
M  V30 18266 H 1754.28 -0.681631 -3.66312 0
M  V30 18267 H 1754.39 -2.52041 -4.07446 0
M  V30 18268 H 1752.75 -1.25665 -2.21541 0
M  V30 18269 H 1753.54 -2.88872 -1.85493 0
M  V30 18270 N 1755.98 1.20536 -1.01532 0
M  V30 18271 C 1757.39 1.71594 -0.735687 0
M  V30 18272 C 1757.74 1.81469 0.745873 0
M  V30 18273 O 1756.87 1.47638 1.58215 0
M  V30 18274 C 1757.46 3.11654 -1.3288 0
M  V30 18275 C 1756.02 3.60027 -1.09806 0
M  V30 18276 C 1755.17 2.37266 -1.43528 0
M  V30 18277 H 1758.12 1.05568 -1.18495 0
M  V30 18278 H 1758.14 3.7365 -0.718725 0
M  V30 18279 H 1757.65 3.04434 -2.4071 0
M  V30 18280 H 1755.76 3.72581 -0.0373763 0
M  V30 18281 H 1755.87 4.44918 -1.77722 0
M  V30 18282 H 1754.23 2.39947 -0.854268 0
M  V30 18283 H 1755.02 2.32688 -2.5241 0
M  V30 18284 N 1757.46 0.791395 1.36289 0
M  V30 18285 C 1758.42 0.197069 2.28351 0
M  V30 18286 C 1759.42 -0.606748 1.48913 0
M  V30 18287 O 1760.61 -0.427453 1.68874 0
M  V30 18288 C 1757.75 -0.727009 3.33058 0
M  V30 18289 H 1758.94 1.00885 2.82422 0
M  V30 18290 H 1756.49 0.560959 1.45887 0
M  V30 18291 H 1757.23 -1.56306 2.84146 0
M  V30 18292 H 1757.01 -0.152537 3.91803 0
M  V30 18293 H 1758.5 -1.13765 4.01805 0
M  V30 18294 N 1758.94 -1.47929 0.54358 0
M  V30 18295 C 1760.22 -1.95535 -0.0505687 0
M  V30 18296 C 1760.6 -1.48603 -1.49934 0
M  V30 18297 O 1759.94 -0.718655 -2.16905 0
M  V30 18298 C 1760.15 -3.48907 0.0807654 0
M  V30 18299 C 1761.5 -4.2454 -0.0715671 0
M  V30 18300 O 1762.53 -3.56199 0.007637 0
M  V30 18301 O 1761.39 -5.45975 -0.239596 0
M  V30 18302 H 1758.48 -0.823883 -0.0717396 0
M  V30 18303 H 1761.03 -1.58391 0.60914 0
M  V30 18304 H 1759.8 -3.75828 1.08944 0
M  V30 18305 H 1759.42 -3.92781 -0.617178 0
M  V30 18306 N 1760.42 -0.27936 -1.55104 0
M  V30 18307 C 1761.37 0.620882 -2.19383 0
M  V30 18308 C 1762.35 1.11522 -1.15981 0
M  V30 18309 O 1763.54 1.05959 -1.4178 0
M  V30 18310 C 1760.67 1.80257 -2.92168 0
M  V30 18311 C 1759.76 1.32522 -4.02863 0
M  V30 18312 N 1760.15 0.564305 -5.02642 0
M  V30 18313 C 1758.45 1.60781 -4.16011 0
M  V30 18314 C 1759.15 0.312802 -5.80858 0
M  V30 18315 N 1758.12 0.886439 -5.36324 0
M  V30 18316 H 1761.93 0.0317396 -2.93883 0
M  V30 18317 H 1759.44 -0.083113 -1.62187 0
M  V30 18318 H 1761.44 2.45884 -3.3667 0
M  V30 18319 H 1760.1 2.39562 -2.1918 0
M  V30 18320 H 1761.11 0.211243 -5.17469 0
M  V30 18321 H 1757.79 2.20991 -3.54216 0
M  V30 18322 H 1759.18 -0.296885 -6.71244 0
M  V30 18323 N 1761.9 1.57599 -0.0067085 0
M  V30 18324 C 1763.14 1.90036 0.675957 0
M  V30 18325 C 1763.46 0.882449 1.74563 0
M  V30 18326 O 1764.66 1.09728 2.48339 0
M  V30 18327 C 1763.12 3.37366 1.25349 0
M  V30 18328 C 1762.73 4.47468 0.218284 0
M  V30 18329 C 1764.47 3.78904 1.91396 0
M  V30 18330 C 1762.38 5.85879 0.806182 0
M  V30 18331 H 1761.31 0.709125 0.256237 0
M  V30 18332 H 1763.96 1.83373 -0.0683502 0
M  V30 18333 H 1762.34 3.38888 2.04868 0
M  V30 18334 H 1763.52 4.57472 -0.552808 0
M  V30 18335 H 1761.83 4.14992 -0.342131 0
M  V30 18336 H 1764.43 4.79654 2.36297 0
M  V30 18337 H 1764.77 3.12773 2.74734 0
M  V30 18338 H 1765.3 3.79709 1.186 0
M  V30 18339 H 1762.04 6.55499 0.0114275 0
M  V30 18340 H 1761.56 5.79526 1.54628 0
M  V30 18341 H 1763.24 6.33748 1.30278 0
M  V30 18342 N 1763.37 -0.266145 1.55336 0
M  V30 18343 C 1764.62 -0.998308 1.76527 0
M  V30 18344 C 1764.95 -1.85691 0.568535 0
M  V30 18345 O 1764.23 -1.89602 -0.433735 0
M  V30 18346 C 1764.51 -1.87509 3.07429 0
M  V30 18347 C 1764.36 -1.04596 4.3747 0
M  V30 18348 C 1765.68 -2.86099 3.34418 0
M  V30 18349 H 1762.8 -0.361514 0.642244 0
M  V30 18350 H 1765.44 -0.270186 1.88069 0
M  V30 18351 H 1763.59 -2.49591 2.97719 0
M  V30 18352 H 1765.27 -0.445323 4.59145 0
M  V30 18353 H 1763.51 -0.349641 4.32389 0
M  V30 18354 H 1764.18 -1.69279 5.25403 0
M  V30 18355 H 1766.66 -2.34153 3.43965 0
M  V30 18356 H 1765.53 -3.44584 4.27262 0
M  V30 18357 H 1765.79 -3.61577 2.5439 0
M  V30 18358 N 1764.85 -1.48386 -0.530967 0
M  V30 18359 C 1766.08 -1.60269 -1.31638 0
M  V30 18360 C 1766.5 -0.262789 -1.86255 0
M  V30 18361 O 1765.86 0.765389 -1.64352 0
M  V30 18362 C 1765.91 -2.65163 -2.44379 0
M  V30 18363 O 1765.01 -2.22254 -3.47386 0
M  V30 18364 H 1764.35 -0.537456 -0.38992 0
M  V30 18365 H 1766.88 -1.94366 -0.639 0
M  V30 18366 H 1766.89 -2.86405 -2.90579 0
M  V30 18367 H 1765.57 -3.62439 -2.03987 0
M  V30 18368 H 1764.14 -2.11221 -3.07311 0
M  V30 18369 N 1766.33 0.779763 -1.36958 0
M  V30 18370 C 1767.56 1.56875 -1.34899 0
M  V30 18371 C 1767.97 1.88679 0.0675345 0
M  V30 18372 O 1767.33 1.50852 1.02712 0
M  V30 18373 C 1767.38 2.88391 -2.17975 0
M  V30 18374 O 1767.1 2.57954 -3.54107 0
M  V30 18375 C 1768.6 3.82657 -2.23805 0
M  V30 18376 H 1765.82 0.486262 -0.462374 0
M  V30 18377 H 1768.37 0.967072 -1.80189 0
M  V30 18378 H 1766.52 3.45003 -1.76215 0
M  V30 18379 H 1766.94 3.42115 -3.97564 0
M  V30 18380 H 1768.41 4.71967 -2.86272 0
M  V30 18381 H 1768.89 4.21208 -1.24421 0
M  V30 18382 H 1769.49 3.31976 -2.65843 0
M  V30 18383 N 1767.81 1.21396 1.00503 0
M  V30 18384 C 1769.22 1.02983 1.55728 0
M  V30 18385 C 1769.57 -0.410383 1.9186 0
M  V30 18386 O 1768.69 -1.29358 1.7348 0
M  V30 18387 C 1769.29 1.86316 2.8297 0
M  V30 18388 C 1767.85 1.72235 3.34682 0
M  V30 18389 C 1767 1.8353 2.07875 0
M  V30 18390 H 1769.95 1.35418 0.827499 0
M  V30 18391 H 1769.97 1.37339 3.5485 0
M  V30 18392 H 1769.48 2.91131 2.56641 0
M  V30 18393 H 1767.58 0.701047 3.65945 0
M  V30 18394 H 1767.69 2.54198 4.06103 0
M  V30 18395 H 1766.06 1.26838 2.20872 0
M  V30 18396 H 1766.84 2.89852 1.83958 0
M  V30 18397 N 1769.29 -1.19996 1.0217 0
M  V30 18398 C 1770.24 -2.20837 0.567029 0
M  V30 18399 C 1771.22 -1.56339 -0.380377 0
M  V30 18400 O 1772.41 -1.75838 -0.202513 0
M  V30 18401 C 1769.54 -3.43187 -0.0880995 0
M  V30 18402 C 1768.63 -4.14842 0.881318 0
M  V30 18403 N 1769.02 -4.62798 2.04088 0
M  V30 18404 C 1767.32 -4.40421 0.703226 0
M  V30 18405 C 1768.02 -5.17744 2.65172 0
M  V30 18406 N 1766.99 -5.08112 1.93192 0
M  V30 18407 H 1770.79 -2.55586 1.45097 0
M  V30 18408 H 1768.31 -1.3599 0.887727 0
M  V30 18409 H 1770.31 -4.14662 -0.431407 0
M  V30 18410 H 1768.97 -3.09941 -0.967819 0
M  V30 18411 H 1769.98 -4.57851 2.42061 0
M  V30 18412 H 1766.65 -4.17304 -0.128008 0
M  V30 18413 H 1768.04 -5.65189 3.63333 0
M  V30 18414 N 1770.76 -0.798611 -1.35867 0
M  V30 18415 C 1771.71 -0.201442 -2.29919 0
M  V30 18416 C 1772.68 0.659971 -1.52426 0
M  V30 18417 O 1773.87 0.606726 -1.80896 0
M  V30 18418 C 1771.01 0.650427 -3.38915 0
M  V30 18419 C 1770.12 -0.230539 -4.31384 0
M  V30 18420 C 1769.25 0.628575 -5.27468 0
M  V30 18421 C 1768.29 -0.253282 -6.11576 0
M  V30 18422 N 1767.43 0.565343 -6.9982 0
M  V30 18423 H 1772.27 -1.00892 -2.80401 0
M  V30 18424 H 1769.81 -0.509085 -1.3801 0
M  V30 18425 H 1771.76 1.15941 -4.00766 0
M  V30 18426 H 1770.39 1.42325 -2.8973 0
M  V30 18427 H 1769.45 -0.85756 -3.70608 0
M  V30 18428 H 1770.76 -0.909635 -4.90436 0
M  V30 18429 H 1769.91 1.203 -5.94653 0
M  V30 18430 H 1768.65 1.34127 -4.68894 0
M  V30 18431 H 1767.66 -0.84004 -5.43345 0
M  V30 18432 H 1768.88 -0.963713 -6.72227 0
M  V30 18433 H 1766.83 1.26216 -6.43743 0
M  V30 18434 H 1766.74 -0.0558752 -7.55979 0
M  V30 18435 H 1768.01 1.1233 -7.71364 0
M  V30 18436 N 1772.24 1.47639 -0.551417 0
M  V30 18437 C 1773.19 2.31626 0.212654 0
M  V30 18438 C 1774.18 1.42567 0.914925 0
M  V30 18439 O 1775.39 1.59363 0.836869 0
M  V30 18440 H 1771.76 0.746898 0.0874493 0
M  V30 18441 H 1773.74 2.93923 -0.514976 0
M  V30 18442 C 1772.48 3.25098 1.23316 0
M  V30 18443 H 1771.81 3.93585 0.702196 0
M  V30 18444 H 1773.25 3.86707 1.73878 0
M  V30 18445 C 1771.71 2.48209 2.27802 0
M  V30 18446 O 1772.24 2.22235 3.34626 0
M  V30 18447 N 1770.44 2.09321 2.01577 0
M  V30 18448 H 1769.99 2.30645 1.14719 0
M  V30 18449 H 1769.95 1.58191 2.71704 0
M  V30 18450 N 1773.72 0.287581 1.54954 0
M  V30 18451 C 1775 -0.378041 1.91912 0
M  V30 18452 C 1775.38 -1.72749 1.2133 0
M  V30 18453 O 1774.73 -2.2589 0.344403 0
M  V30 18454 C 1774.94 -0.505993 3.45312 0
M  V30 18455 C 1776.28 -0.783109 4.17316 0
M  V30 18456 O 1777.31 -0.590324 3.51274 0
M  V30 18457 O 1776.17 -1.15257 5.34208 0
M  V30 18458 H 1773.26 -0.209004 0.800154 0
M  V30 18459 H 1775.81 0.334653 1.66368 0
M  V30 18460 H 1774.58 0.443187 3.88782 0
M  V30 18461 H 1774.2 -1.26767 3.7685 0
M  V30 18462 N 1775.2 -1.57593 0.0150662 0
M  V30 18463 C 1776.13 -2.06239 -0.999912 0
M  V30 18464 C 1777.14 -0.983112 -1.29764 0
M  V30 18465 O 1778.33 -1.25961 -1.26476 0
M  V30 18466 C 1775.43 -2.46011 -2.33092 0
M  V30 18467 C 1774.61 -3.76851 -2.2204 0
M  V30 18468 C 1773.66 -4.03326 -3.37956 0
M  V30 18469 O 1772.69 -4.73781 -3.15469 0
M  V30 18470 N 1773.89 -3.52399 -4.61298 0
M  V30 18471 H 1776.66 -2.93936 -0.584952 0
M  V30 18472 H 1774.22 -1.60984 -0.172001 0
M  V30 18473 H 1776.21 -2.60825 -3.09439 0
M  V30 18474 H 1774.78 -1.63753 -2.66277 0
M  V30 18475 H 1774 -3.71969 -1.30509 0
M  V30 18476 H 1775.29 -4.626 -2.11845 0
M  V30 18477 H 1774.69 -2.95374 -4.82463 0
M  V30 18478 H 1773.24 -3.72516 -5.3486 0
M  V30 18479 N 1776.68 0.257904 -1.55475 0
M  V30 18480 C 1777.59 1.34084 -1.92506 0
M  V30 18481 C 1778.6 1.53246 -0.824123 0
M  V30 18482 O 1779.78 1.67081 -1.12455 0
M  V30 18483 C 1776.84 2.67741 -2.20263 0
M  V30 18484 C 1775.9 2.57196 -3.43728 0
M  V30 18485 C 1775.14 3.84479 -3.7015 0
M  V30 18486 O 1775.36 4.85858 -2.98827 0
M  V30 18487 O 1774.29 3.83774 -4.63682 0
M  V30 18488 H 1778.12 1.05672 -2.84723 0
M  V30 18489 H 1775.71 0.457726 -1.42215 0
M  V30 18490 H 1777.59 3.46743 -2.39473 0
M  V30 18491 H 1776.26 2.95907 -1.31227 0
M  V30 18492 H 1775.17 1.76518 -3.29837 0
M  V30 18493 H 1776.5 2.33977 -4.33031 0
M  V30 18494 N 1778.15 1.48666 0.52309 0
M  V30 18495 C 1779.4 1.57034 1.27854 0
M  V30 18496 C 1779.73 0.247256 1.92922 0
M  V30 18497 O 1778.98 -0.763049 1.80211 0
M  V30 18498 C 1779.28 2.66247 2.38426 0
M  V30 18499 C 1778.95 4.08464 1.90965 0
M  V30 18500 C 1777.61 4.47171 1.77739 0
M  V30 18501 C 1779.96 4.97562 1.55184 0
M  V30 18502 C 1777.29 5.72772 1.27077 0
M  V30 18503 C 1779.64 6.23659 1.05982 0
M  V30 18504 C 1778.31 6.61216 0.913782 0
M  V30 18505 H 1777.58 0.574628 0.46785 0
M  V30 18506 H 1780.22 1.82411 0.582961 0
M  V30 18507 H 1778.53 2.34756 3.13682 0
M  V30 18508 H 1780.23 2.69936 2.9654 0
M  V30 18509 H 1776.82 3.779 2.02212 0
M  V30 18510 H 1781 4.6833 1.64259 0
M  V30 18511 H 1776.26 6.0059 1.14464 0
M  V30 18512 H 1780.43 6.92089 0.773684 0
M  V30 18513 H 1778.06 7.58426 0.519021 0
M  V30 18514 N 1779.63 -0.772489 1.37369 0
M  V30 18515 C 1780.56 -1.89487 1.28948 0
M  V30 18516 C 1781.58 -1.61499 0.205434 0
M  V30 18517 O 1782.77 -1.7243 0.461519 0
M  V30 18518 C 1779.87 -3.24698 0.970798 0
M  V30 18519 C 1779.04 -3.80337 2.16015 0
M  V30 18520 C 1778.1 -4.94022 1.81187 0
M  V30 18521 O 1777.12 -5.09647 2.53473 0
M  V30 18522 N 1778.33 -5.75562 0.755549 0
M  V30 18523 H 1781.09 -1.97228 2.25658 0
M  V30 18524 H 1778.65 -0.951562 1.30984 0
M  V30 18525 H 1780.64 -3.98268 0.71866 0
M  V30 18526 H 1779.21 -3.12464 0.0922825 0
M  V30 18527 H 1778.43 -2.98554 2.57409 0
M  V30 18528 H 1779.72 -4.14242 2.95434 0
M  V30 18529 H 1779.12 -5.65486 0.155691 0
M  V30 18530 H 1777.68 -6.49362 0.563268 0
M  V30 18531 N 1781.11 -1.21927 -0.998575 0
M  V30 18532 C 1782.07 -0.985744 -2.0692 0
M  V30 18533 C 1783.07 0.0456907 -1.60735 0
M  V30 18534 O 1784.26 -0.192241 -1.73136 0
M  V30 18535 C 1781.4 -0.48779 -3.37392 0
M  V30 18536 H 1782.59 -1.93563 -2.2907 0
M  V30 18537 H 1780.14 -1.03716 -1.1693 0
M  V30 18538 H 1780.88 0.466723 -3.20924 0
M  V30 18539 H 1780.66 -1.23186 -3.72247 0
M  V30 18540 H 1782.15 -0.344469 -4.16177 0
M  V30 18541 N 1782.59 1.19452 -1.02805 0
M  V30 18542 C 1783.55 2.20857 -0.612757 0
M  V30 18543 C 1784.55 1.57519 0.323182 0
M  V30 18544 O 1785.74 1.7385 0.110303 0
M  V30 18545 C 1782.87 3.40743 0.103488 0
M  V30 18546 H 1784.07 2.59113 -1.50998 0
M  V30 18547 H 1781.62 1.33116 -0.819142 0
M  V30 18548 H 1782.35 3.08004 1.0151 0
M  V30 18549 H 1782.14 3.87949 -0.56903 0
M  V30 18550 H 1783.63 4.15858 0.380998 0
M  V30 18551 N 1784.07 0.805805 1.35442 0
M  V30 18552 C 1785.32 0.382303 1.98044 0
M  V30 18553 C 1785.63 -1.05602 1.64644 0
M  V30 18554 O 1786.83 -1.5826 2.20604 0
M  V30 18555 C 1785.29 0.632619 3.54296 0
M  V30 18556 C 1784.9 2.08344 3.96607 0
M  V30 18557 C 1786.64 0.274435 4.23612 0
M  V30 18558 C 1784.55 2.27954 5.45702 0
M  V30 18559 H 1783.48 0.13921 0.741037 0
M  V30 18560 H 1786.13 0.989752 1.54519 0
M  V30 18561 H 1784.51 -0.0447699 3.95975 0
M  V30 18562 H 1785.69 2.79857 3.66083 0
M  V30 18563 H 1784 2.40142 3.40178 0
M  V30 18564 H 1786.6 0.399019 5.33209 0
M  V30 18565 H 1786.94 -0.779292 4.08941 0
M  V30 18566 H 1787.47 0.90571 3.87352 0
M  V30 18567 H 1784.21 3.3177 5.6534 0
M  V30 18568 H 1783.73 1.60965 5.77798 0
M  V30 18569 H 1785.41 2.09469 6.12153 0
M  V30 18570 N 1785.54 -1.47344 0.559239 0
M  V30 18571 C 1786.77 -2.07364 0.0388864 0
M  V30 18572 C 1787.19 -1.40886 -1.2463 0
M  V30 18573 O 1786.55 -0.48454 -1.74705 0
M  V30 18574 C 1786.6 -3.60336 -0.137894 0
M  V30 18575 O 1785.7 -3.94555 -1.2 0
M  V30 18576 H 1785.05 -0.661942 0.0522363 0
M  V30 18577 H 1787.58 -1.89333 0.7755 0
M  V30 18578 H 1787.59 -4.06483 -0.351462 0
M  V30 18579 H 1786.26 -4.08118 0.800776 0
M  V30 18580 H 1784.84 -3.6015 -0.966757 0
M  V30 18581 N 1787.02 -0.295795 -1.54799 0
M  V30 18582 C 1787.97 0.582614 -2.23325 0
M  V30 18583 C 1788.94 1.13365 -1.21398 0
M  V30 18584 O 1790.12 1.17914 -1.50003 0
M  V30 18585 C 1787.26 1.75112 -2.97371 0
M  V30 18586 C 1786.38 1.23197 -4.14061 0
M  V30 18587 C 1785.51 2.36393 -4.75701 0
M  V30 18588 C 1784.55 1.81585 -5.84545 0
M  V30 18589 N 1783.69 2.88334 -6.40162 0
M  V30 18590 H 1788.53 -0.00836451 -2.97999 0
M  V30 18591 H 1786.07 -0.0158966 -1.47091 0
M  V30 18592 H 1788.02 2.4383 -3.38531 0
M  V30 18593 H 1786.65 2.31381 -2.25084 0
M  V30 18594 H 1785.71 0.437226 -3.77879 0
M  V30 18595 H 1787.02 0.790706 -4.92493 0
M  V30 18596 H 1786.17 3.13067 -5.19687 0
M  V30 18597 H 1784.91 2.83844 -3.9659 0
M  V30 18598 H 1783.92 1.03399 -5.3999 0
M  V30 18599 H 1785.14 1.35045 -6.65537 0
M  V30 18600 H 1783.09 3.35129 -5.63937 0
M  V30 18601 H 1783 2.48687 -7.13926 0
M  V30 18602 H 1784.27 3.64921 -6.88805 0
M  V30 18603 N 1788.5 1.57583 -0.0234236 0
M  V30 18604 C 1789.73 1.95861 0.666797 0
M  V30 18605 C 1790.14 0.899616 1.65989 0
M  V30 18606 O 1789.5 -0.119162 1.82111 0
M  V30 18607 C 1789.55 3.34198 1.37818 0
M  V30 18608 O 1789.27 4.36035 0.424887 0
M  V30 18609 C 1790.77 3.87074 2.16075 0
M  V30 18610 H 1787.99 0.645213 0.184233 0
M  V30 18611 H 1790.54 2.04338 -0.0814987 0
M  V30 18612 H 1788.69 3.26958 2.07792 0
M  V30 18613 H 1789.11 5.162 0.929394 0
M  V30 18614 H 1790.58 4.8623 2.61312 0
M  V30 18615 H 1791.06 3.21017 2.99741 0
M  V30 18616 H 1791.66 3.97565 1.5107 0
M  V30 18617 N 1789.98 -0.249655 1.5561 0
M  V30 18618 C 1791.2 -0.999931 1.81703 0
M  V30 18619 C 1791.63 -1.7827 0.600113 0
M  V30 18620 O 1790.99 -1.75606 -0.450799 0
M  V30 18621 C 1791.04 -1.9157 3.05505 0
M  V30 18622 O 1790.14 -3.00702 2.82227 0
M  V30 18623 H 1789.48 -0.284673 0.599881 0
M  V30 18624 H 1792.01 -0.27148 2.02791 0
M  V30 18625 H 1792.02 -2.33088 3.34864 0
M  V30 18626 H 1790.7 -1.34014 3.93717 0
M  V30 18627 H 1789.27 -2.63332 2.64027 0
M  V30 18628 N 1791.46 -1.48941 -0.515198 0
M  V30 18629 C 1792.7 -1.5892 -1.26949 0
M  V30 18630 C 1793.06 -0.266142 -1.9055 0
M  V30 18631 O 1792.35 0.732387 -1.7705 0
M  V30 18632 C 1792.55 -2.67508 -2.37011 0
M  V30 18633 C 1792.37 -4.10244 -1.84201 0
M  V30 18634 C 1791.14 -4.77207 -1.66139 0
M  V30 18635 C 1793.34 -4.95937 -1.362 0
M  V30 18636 N 1791.32 -6.04306 -1.08108 0
M  V30 18637 C 1792.7 -6.13402 -0.902136 0
M  V30 18638 C 1794.75 -4.82047 -1.24641 0
M  V30 18639 C 1793.45 -7.18505 -0.33812 0
M  V30 18640 C 1795.48 -5.87286 -0.696375 0
M  V30 18641 C 1794.84 -7.03968 -0.24666 0
M  V30 18642 H 1790.94 -0.635987 -0.455021 0
M  V30 18643 H 1793.52 -1.85887 -0.579142 0
M  V30 18644 H 1791.7 -2.42338 -3.03524 0
M  V30 18645 H 1793.43 -2.67088 -3.0405 0
M  V30 18646 H 1790.18 -4.33776 -1.90094 0
M  V30 18647 H 1790.61 -6.72129 -0.810614 0
M  V30 18648 H 1795.25 -3.92163 -1.58012 0
M  V30 18649 H 1792.97 -8.081 0.00788597 0
M  V30 18650 H 1796.55 -5.78594 -0.609908 0
M  V30 18651 H 1795.43 -7.84011 0.172321 0
M  V30 18652 N 1792.94 0.765193 -1.37777 0
M  V30 18653 C 1794.16 1.55948 -1.3673 0
M  V30 18654 C 1794.59 1.8805 0.0435817 0
M  V30 18655 O 1793.94 1.49718 1.02246 0
M  V30 18656 C 1793.99 2.84245 -2.21895 0
M  V30 18657 O 1793.1 3.78903 -1.62807 0
M  V30 18658 H 1792.44 0.472127 -0.466897 0
M  V30 18659 H 1794.97 0.946556 -1.81388 0
M  V30 18660 H 1794.98 3.33284 -2.35342 0
M  V30 18661 H 1793.65 2.60209 -3.24444 0
M  V30 18662 H 1792.23 3.37568 -1.58437 0
M  V30 18663 N 1794.41 1.22455 0.992094 0
M  V30 18664 C 1795.66 1.06121 1.73522 0
M  V30 18665 C 1796.01 -0.399412 1.88209 0
M  V30 18666 O 1795.31 -1.2921 1.41476 0
M  V30 18667 C 1795.5 1.70683 3.1401 0
M  V30 18668 C 1795.33 3.22872 3.13023 0
M  V30 18669 C 1794.1 3.91981 3.18872 0
M  V30 18670 C 1796.3 4.19796 2.97113 0
M  V30 18671 N 1794.28 5.3125 3.07648 0
M  V30 18672 C 1795.65 5.45901 2.93926 0
M  V30 18673 C 1797.71 4.10678 2.8151 0
M  V30 18674 C 1796.41 6.63936 2.76734 0
M  V30 18675 C 1798.44 5.28364 2.65679 0
M  V30 18676 C 1797.8 6.53388 2.6318 0
M  V30 18677 H 1793.9 0.442766 0.644579 0
M  V30 18678 H 1796.48 1.55008 1.17816 0
M  V30 18679 H 1794.65 1.24345 3.67958 0
M  V30 18680 H 1796.38 1.47434 3.76889 0
M  V30 18681 H 1793.14 3.42985 3.26586 0
M  V30 18682 H 1793.56 6.04231 3.05343 0
M  V30 18683 H 1798.2 3.14803 2.8224 0
M  V30 18684 H 1795.92 7.59959 2.7475 0
M  V30 18685 H 1799.51 5.23141 2.54587 0
M  V30 18686 H 1798.39 7.42919 2.51079 0
M  V30 18687 N 1795.89 -1.18905 1.03437 0
M  V30 18688 C 1796.82 -2.24539 0.640669 0
M  V30 18689 C 1797.8 -1.66396 -0.353024 0
M  V30 18690 O 1798.99 -1.92779 -0.234522 0
M  V30 18691 C 1796.12 -3.473 -0.00367731 0
M  V30 18692 C 1795.07 -4.18151 0.912881 0
M  V30 18693 C 1794.4 -5.34534 0.133347 0
M  V30 18694 C 1795.7 -4.72342 2.22913 0
M  V30 18695 H 1797.39 -2.57726 1.52374 0
M  V30 18696 H 1794.94 -1.23883 0.734098 0
M  V30 18697 H 1796.89 -4.20396 -0.290783 0
M  V30 18698 H 1795.61 -3.13328 -0.921578 0
M  V30 18699 H 1794.27 -3.46945 1.18427 0
M  V30 18700 H 1793.92 -4.96809 -0.786762 0
M  V30 18701 H 1793.62 -5.82872 0.743905 0
M  V30 18702 H 1795.15 -6.10423 -0.146889 0
M  V30 18703 H 1796.56 -5.37165 2.00317 0
M  V30 18704 H 1794.96 -5.31189 2.79209 0
M  V30 18705 H 1796.03 -3.90108 2.87999 0
M  V30 18706 N 1797.37 -0.812977 -1.35013 0
M  V30 18707 C 1798.62 -0.396345 -1.98583 0
M  V30 18708 C 1798.94 1.0381 -1.6448 0
M  V30 18709 O 1798.2 1.73604 -0.903344 0
M  V30 18710 C 1798.5 -0.534083 -3.53387 0
M  V30 18711 C 1798.16 -1.93278 -4.07375 0
M  V30 18712 C 1796.83 -2.31543 -4.21831 0
M  V30 18713 C 1799.18 -2.84756 -4.36535 0
M  V30 18714 C 1796.51 -3.60641 -4.62769 0
M  V30 18715 C 1798.86 -4.13308 -4.78915 0
M  V30 18716 C 1797.52 -4.51563 -4.91576 0
M  V30 18717 H 1796.79 -0.145033 -0.726668 0
M  V30 18718 H 1799.44 -1.035 -1.61121 0
M  V30 18719 H 1797.74 0.188002 -3.91349 0
M  V30 18720 H 1799.44 -0.192396 -4.00538 0
M  V30 18721 H 1796.03 -1.62551 -3.96579 0
M  V30 18722 H 1800.22 -2.56441 -4.24914 0
M  V30 18723 H 1795.47 -3.9012 -4.70761 0
M  V30 18724 H 1799.65 -4.84287 -5.00439 0
M  V30 18725 H 1797.27 -5.51649 -5.23056 0
M  V30 18726 N 1798.85 1.47045 -0.567045 0
M  V30 18727 C 1799.81 2.28607 0.164758 0
M  V30 18728 C 1800.81 1.37509 0.833542 0
M  V30 18729 O 1802 1.60043 0.687895 0
M  V30 18730 C 1799.13 3.17466 1.24211 0
M  V30 18731 H 1800.33 2.9478 -0.551814 0
M  V30 18732 H 1797.88 1.52897 -0.324376 0
M  V30 18733 H 1798.61 2.56006 1.99076 0
M  V30 18734 H 1798.4 3.8452 0.767243 0
M  V30 18735 H 1799.89 3.78894 1.75582 0
M  V30 18736 N 1800.33 0.304 1.5464 0
M  V30 18737 C 1801.26 -0.563854 2.2659 0
M  V30 18738 C 1802.24 -1.13547 1.26653 0
M  V30 18739 O 1803.42 -1.16425 1.55431 0
M  V30 18740 C 1800.55 -1.73437 3.00894 0
M  V30 18741 C 1799.51 -1.29297 4.08003 0
M  V30 18742 C 1798.83 -2.54888 4.70038 0
M  V30 18743 C 1800.13 -0.422027 5.20592 0
M  V30 18744 H 1801.83 0.0362569 2.99378 0
M  V30 18745 H 1799.37 0.0188781 1.43988 0
M  V30 18746 H 1801.32 -2.34762 3.4995 0
M  V30 18747 H 1800.05 -2.36076 2.25689 0
M  V30 18748 H 1798.71 -0.702757 3.59801 0
M  V30 18749 H 1798.36 -3.15848 3.9147 0
M  V30 18750 H 1798.06 -2.26054 5.42378 0
M  V30 18751 H 1799.58 -3.17011 5.21859 0
M  V30 18752 H 1800.99 -0.941036 5.65524 0
M  V30 18753 H 1799.39 -0.227323 5.99669 0
M  V30 18754 H 1800.46 0.55212 4.81746 0
M  V30 18755 N 1801.8 -1.57568 0.0317802 0
M  V30 18756 C 1803.05 -1.9191 -0.646281 0
M  V30 18757 C 1803.38 -0.908432 -1.71982 0
M  V30 18758 O 1802.63 0.0822426 -1.95527 0
M  V30 18759 C 1802.93 -3.32976 -1.29852 0
M  V30 18760 C 1802.6 -4.495 -0.355092 0
M  V30 18761 C 1801.26 -4.81105 -0.0954326 0
M  V30 18762 C 1803.61 -5.20378 0.292586 0
M  V30 18763 C 1800.94 -5.80946 0.819667 0
M  V30 18764 C 1803.29 -6.21196 1.19576 0
M  V30 18765 C 1801.96 -6.51241 1.46428 0
M  V30 18766 H 1801.23 -0.702249 -0.236491 0
M  V30 18767 H 1803.87 -1.91269 0.0941159 0
M  V30 18768 H 1802.18 -3.29892 -2.11373 0
M  V30 18769 H 1803.88 -3.5682 -1.82977 0
M  V30 18770 H 1800.47 -4.24824 -0.567652 0
M  V30 18771 H 1804.65 -4.96189 0.105041 0
M  V30 18772 H 1799.91 -6.02569 1.03538 0
M  V30 18773 H 1804.08 -6.75236 1.7038 0
M  V30 18774 H 1801.71 -7.28421 2.17502 0
M  V30 18775 N 1803.28 0.241399 -1.5574 0
M  V30 18776 C 1804.53 0.96675 -1.77478 0
M  V30 18777 C 1804.85 1.85644 -0.596757 0
M  V30 18778 O 1804.12 1.92035 0.387236 0
M  V30 18779 H 1802.7 0.35995 -0.654557 0
M  V30 18780 H 1805.36 0.258023 -1.93185 0
M  V30 18781 H 1804.46 1.58524 -2.68843 0
M  V30 18782 N 1804.76 1.49212 0.507292 0
M  V30 18783 C 1806.01 1.58068 1.25932 0
M  V30 18784 C 1806.33 0.266461 1.93171 0
M  V30 18785 O 1805.6 -0.713743 1.82435 0
M  V30 18786 H 1804.18 0.582384 0.467801 0
M  V30 18787 H 1806.84 1.85804 0.58847 0
M  V30 18788 H 1805.94 2.37351 2.0266 0
M  V30 18789 N 1806.24 -0.757876 1.38181 0
M  V30 18790 C 1807.2 -1.85317 1.34871 0
M  V30 18791 C 1808.2 -1.58844 0.250041 0
M  V30 18792 O 1809.39 -1.66668 0.506688 0
M  V30 18793 C 1806.52 -3.22712 1.09864 0
M  V30 18794 H 1807.72 -1.89661 2.32312 0
M  V30 18795 H 1805.27 -0.959122 1.23412 0
M  V30 18796 H 1806 -3.24039 0.130112 0
M  V30 18797 H 1805.79 -3.4332 1.89403 0
M  V30 18798 H 1807.28 -4.02789 1.10232 0
M  V30 18799 N 1807.72 -1.22979 -0.985586 0
M  V30 18800 C 1808.94 -1.08615 -1.76685 0
M  V30 18801 C 1809.37 0.35859 -1.8465 0
M  V30 18802 O 1808.72 1.25924 -1.30433 0
M  V30 18803 C 1808.77 -1.71039 -3.17456 0
M  V30 18804 O 1807.88 -0.969018 -4.00854 0
M  V30 18805 H 1807.22 -0.38103 -0.543794 0
M  V30 18806 H 1809.75 -1.62927 -1.23757 0
M  V30 18807 H 1809.76 -1.76064 -3.68056 0
M  V30 18808 H 1808.43 -2.76168 -3.10973 0
M  V30 18809 H 1807.01 -0.995318 -3.59371 0
M  V30 18810 N 1809.19 1.18355 -1.04066 0
M  V30 18811 C 1810.42 1.92816 -0.763979 0
M  V30 18812 C 1810.84 1.75658 0.672749 0
M  V30 18813 O 1810.2 1.06671 1.46598 0
M  V30 18814 C 1810.25 3.42267 -1.13516 0
M  V30 18815 O 1809.35 4.11576 -0.260646 0
M  V30 18816 H 1808.7 0.601532 -0.281167 0
M  V30 18817 H 1811.23 1.50087 -1.3905 0
M  V30 18818 H 1811.24 3.92973 -1.09709 0
M  V30 18819 H 1809.91 3.54076 -2.18181 0
M  V30 18820 H 1808.49 3.71174 -0.358342 0
M  V30 18821 N 1810.67 0.820125 1.3458 0
M  V30 18822 C 1811.6 0.254709 2.32107 0
M  V30 18823 C 1812.58 -0.6273 1.58111 0
M  V30 18824 O 1813.77 -0.554759 1.86108 0
M  V30 18825 C 1810.9 -0.586541 3.42311 0
M  V30 18826 C 1809.85 0.198096 4.27541 0
M  V30 18827 C 1809.18 -0.765718 5.29189 0
M  V30 18828 C 1810.48 1.40472 5.03056 0
M  V30 18829 H 1812.17 1.06955 2.79644 0
M  V30 18830 H 1809.72 0.515756 1.34447 0
M  V30 18831 H 1811.67 -0.992259 4.09551 0
M  V30 18832 H 1810.4 -1.4344 2.93415 0
M  V30 18833 H 1809.05 0.585149 3.619 0
M  V30 18834 H 1808.7 -1.60946 4.76556 0
M  V30 18835 H 1808.4 -0.244954 5.87089 0
M  V30 18836 H 1809.93 -1.16935 5.99298 0
M  V30 18837 H 1811.34 1.07316 5.63166 0
M  V30 18838 H 1809.74 1.86092 5.70517 0
M  V30 18839 H 1810.81 2.18437 4.32913 0
M  V30 18840 N 1812.15 -1.46743 0.574835 0
M  V30 18841 C 1813.08 -2.33012 -0.150836 0
M  V30 18842 C 1814.06 -1.44868 -0.891472 0
M  V30 18843 O 1815.25 -1.73698 -0.868481 0
M  V30 18844 C 1812.38 -3.26995 -1.17012 0
M  V30 18845 C 1811.33 -4.24518 -0.544829 0
M  V30 18846 C 1810.66 -5.07951 -1.67002 0
M  V30 18847 C 1811.96 -5.19776 0.512891 0
M  V30 18848 H 1813.65 -2.93935 0.569433 0
M  V30 18849 H 1811.2 -1.41344 0.275289 0
M  V30 18850 H 1813.15 -3.86198 -1.68609 0
M  V30 18851 H 1811.87 -2.64163 -1.92056 0
M  V30 18852 H 1810.53 -3.66566 -0.0500133 0
M  V30 18853 H 1810.18 -4.4151 -2.40993 0
M  V30 18854 H 1809.88 -5.73991 -1.25732 0
M  V30 18855 H 1811.4 -5.70017 -2.1889 0
M  V30 18856 H 1812.82 -5.73241 0.0823064 0
M  V30 18857 H 1811.22 -5.94114 0.845462 0
M  V30 18858 H 1812.29 -4.64184 1.40217 0
M  V30 18859 N 1813.63 -0.312197 -1.54477 0
M  V30 18860 C 1814.88 0.294607 -1.99537 0
M  V30 18861 C 1815.19 1.54137 -1.20421 0
M  V30 18862 O 1816.4 2.22346 -1.55803 0
M  V30 18863 C 1814.85 0.57547 -3.55269 0
M  V30 18864 C 1814.46 -0.653591 -4.43207 0
M  V30 18865 C 1816.2 1.14285 -4.08827 0
M  V30 18866 C 1814.11 -0.345261 -5.90391 0
M  V30 18867 H 1813.04 0.113859 -0.745354 0
M  V30 18868 H 1815.69 -0.42265 -1.78566 0
M  V30 18869 H 1814.07 1.35262 -3.72183 0
M  V30 18870 H 1815.25 -1.42945 -4.38068 0
M  V30 18871 H 1813.56 -1.14039 -4.0048 0
M  V30 18872 H 1816.16 1.38797 -5.16371 0
M  V30 18873 H 1816.5 2.08866 -3.60112 0
M  V30 18874 H 1817.04 0.427154 -3.955 0
M  V30 18875 H 1813.78 -1.25994 -6.43277 0
M  V30 18876 H 1813.3 0.393106 -5.9851 0
M  V30 18877 H 1814.97 0.0490847 -6.46981 0
M  V30 18878 N 1815.11 1.57549 -0.040136 0
M  V30 18879 C 1816.36 1.91427 0.635496 0
M  V30 18880 C 1816.67 0.919277 1.72652 0
M  V30 18881 O 1817.87 1.14971 2.45955 0
M  V30 18882 C 1816.33 3.39949 1.18164 0
M  V30 18883 C 1815.94 4.4783 0.12332 0
M  V30 18884 C 1817.68 3.82878 1.83315 0
M  V30 18885 C 1815.59 5.87458 0.681727 0
M  V30 18886 H 1814.52 0.714401 0.241138 0
M  V30 18887 H 1817.17 1.83186 -0.107231 0
M  V30 18888 H 1815.55 3.43157 1.97633 0
M  V30 18889 H 1816.73 4.56197 -0.64972 0
M  V30 18890 H 1815.04 4.14173 -0.43008 0
M  V30 18891 H 1817.64 4.84558 2.2607 0
M  V30 18892 H 1817.98 3.1853 2.68038 0
M  V30 18893 H 1818.51 3.82139 1.10519 0
M  V30 18894 H 1815.25 6.55376 -0.127616 0
M  V30 18895 H 1814.77 5.82675 1.423 0
M  V30 18896 H 1816.45 6.36369 1.16806 0
M  V30 18897 N 1816.58 -0.233136 1.55866 0
M  V30 18898 C 1817.83 -0.957324 1.77988 0
M  V30 18899 C 1818.15 -1.85325 0.606593 0
M  V30 18900 O 1817.42 -1.92237 -0.377047 0
M  V30 18901 H 1816 -0.356474 0.656457 0
M  V30 18902 H 1818.67 -0.247774 1.93319 0
M  V30 18903 H 1817.76 -1.57096 2.6968 0
M  V30 18904 N 1818.06 -1.49479 -0.499372 0
M  V30 18905 C 1818.99 -1.69182 -1.60934 0
M  V30 18906 C 1819.97 -0.54053 -1.61283 0
M  V30 18907 O 1821.16 -0.776554 -1.77998 0
M  V30 18908 C 1818.29 -1.75985 -2.99411 0
M  V30 18909 C 1817.24 -2.9092 -3.13926 0
M  V30 18910 C 1816.57 -2.82837 -4.5377 0
M  V30 18911 C 1817.87 -4.31833 -2.93799 0
M  V30 18912 H 1819.56 -2.62112 -1.44699 0
M  V30 18913 H 1817.11 -1.26135 -0.694688 0
M  V30 18914 H 1819.06 -1.88354 -3.76962 0
M  V30 18915 H 1817.79 -0.796557 -3.16737 0
M  V30 18916 H 1816.45 -2.78155 -2.388 0
M  V30 18917 H 1816.09 -1.84412 -4.67976 0
M  V30 18918 H 1815.79 -3.59979 -4.64423 0
M  V30 18919 H 1817.32 -2.97217 -5.3338 0
M  V30 18920 H 1818.73 -4.45271 -3.61119 0
M  V30 18921 H 1817.13 -5.10209 -3.15922 0
M  V30 18922 H 1818.2 -4.46165 -1.89908 0
M  V30 18923 N 1819.54 0.750537 -1.38581 0
M  V30 18924 C 1820.47 1.87248 -1.30435 0
M  V30 18925 C 1821.45 1.61591 -0.180819 0
M  V30 18926 O 1822.64 1.85057 -0.358655 0
M  V30 18927 C 1819.76 3.22922 -1.02173 0
M  V30 18928 C 1818.81 3.67461 -2.16505 0
M  V30 18929 S 1819.64 3.78642 -3.7867 0
M  V30 18930 C 1820.8 5.1713 -3.52601 0
M  V30 18931 H 1821.03 1.93872 -2.25391 0
M  V30 18932 H 1818.56 0.913828 -1.24453 0
M  V30 18933 H 1820.52 4.01272 -0.865502 0
M  V30 18934 H 1819.18 3.13973 -0.0893025 0
M  V30 18935 H 1818.38 4.65879 -1.92284 0
M  V30 18936 H 1817.98 2.96273 -2.28251 0
M  V30 18937 H 1820.27 6.0298 -3.08904 0
M  V30 18938 H 1821.21 5.46374 -4.50423 0
M  V30 18939 H 1821.62 4.86071 -2.87045 0
M  V30 18940 N 1821.02 1.235 0.979051 0
M  V30 18941 C 1822.27 1.06197 1.71479 0
M  V30 18942 C 1822.58 -0.401066 1.91444 0
M  V30 18943 O 1823.79 -0.69406 2.62479 0
M  V30 18944 C 1822.24 1.85189 3.08598 0
M  V30 18945 C 1821.85 3.35831 2.96516 0
M  V30 18946 C 1823.6 1.76379 3.86122 0
M  V30 18947 C 1821.5 4.0721 4.28875 0
M  V30 18948 H 1820.43 0.393779 0.643004 0
M  V30 18949 H 1823.08 1.47479 1.09188 0
M  V30 18950 H 1821.47 1.36714 3.71652 0
M  V30 18951 H 1822.64 3.91803 2.42543 0
M  V30 18952 H 1820.95 3.45469 2.32466 0
M  V30 18953 H 1823.55 2.2702 4.84114 0
M  V30 18954 H 1823.89 0.726826 4.09906 0
M  V30 18955 H 1824.43 2.22473 3.29773 0
M  V30 18956 H 1821.17 5.11218 4.10288 0
M  V30 18957 H 1820.69 3.56025 4.82707 0
M  V30 18958 H 1822.37 4.13579 4.97555 0
M  V30 18959 N 1822.5 -1.17802 1.04693 0
M  V30 18960 C 1823.74 -1.87938 0.754024 0
M  V30 18961 C 1824.07 -1.80737 -0.718644 0
M  V30 18962 O 1823.33 -1.20657 -1.54079 0
M  V30 18963 C 1823.63 -3.37585 1.17349 0
M  V30 18964 C 1823.29 -3.6499 2.64751 0
M  V30 18965 C 1821.95 -3.72179 3.05019 0
M  V30 18966 C 1824.31 -3.76869 3.60027 0
M  V30 18967 C 1821.63 -3.88731 4.39437 0
M  V30 18968 C 1823.99 -3.94939 4.94172 0
M  V30 18969 C 1822.65 -4.00365 5.34101 0
M  V30 18970 H 1821.92 -0.687714 0.275917 0
M  V30 18971 H 1824.57 -1.39392 1.31309 0
M  V30 18972 H 1822.87 -3.88153 0.533333 0
M  V30 18973 H 1824.57 -3.90206 0.924134 0
M  V30 18974 H 1821.16 -3.60016 2.32565 0
M  V30 18975 H 1825.34 -3.70641 3.30059 0
M  V30 18976 H 1820.6 -3.91179 4.69882 0
M  V30 18977 H 1824.77 -4.03072 5.67896 0
M  V30 18978 H 1822.4 -4.12944 6.38264 0
M  V30 18979 N 1823.98 -0.827251 -1.34143 0
M  V30 18980 C 1824.94 -0.257543 -2.27748 0
M  V30 18981 C 1825.94 0.567053 -1.5047 0
M  V30 18982 O 1827.13 0.382529 -1.69948 0
M  V30 18983 C 1824.26 0.638449 -3.34868 0
M  V30 18984 H 1825.45 -1.08338 -2.79648 0
M  V30 18985 H 1823.01 -0.599441 -1.44348 0
M  V30 18986 H 1823.74 1.48717 -2.8819 0
M  V30 18987 H 1823.53 0.0486033 -3.9207 0
M  V30 18988 H 1825.02 1.03071 -4.0468 0
M  V30 18989 N 1825.45 1.46436 -0.582609 0
M  V30 18990 C 1826.69 2.04277 -0.0708316 0
M  V30 18991 C 1827.06 1.4443 1.26507 0
M  V30 18992 O 1828.26 1.93472 1.86607 0
M  V30 18993 C 1826.53 3.574 -0.00593413 0
M  V30 18994 S 1828.09 4.36504 0.448283 0
M  V30 18995 H 1824.91 0.710014 -0.0374242 0
M  V30 18996 H 1827.51 1.79479 -0.775084 0
M  V30 18997 H 1826.21 3.98475 -0.982149 0
M  V30 18998 H 1825.74 3.86735 0.721092 0
M  V30 18999 H 1827.76 4.66059 1.70304 0
M  V30 19000 N 1826.93 0.320385 1.54309 0
M  V30 19001 C 1828.16 -0.28794 2.05391 0
M  V30 19002 C 1828.58 -1.45249 1.19517 0
M  V30 19003 O 1827.94 -1.80154 0.203556 0
M  V30 19004 C 1827.99 -0.703261 3.53676 0
M  V30 19005 O 1827.09 -1.80598 3.70753 0
M  V30 19006 H 1826.43 -0.052589 0.661914 0
M  V30 19007 H 1828.96 0.46787 1.99179 0
M  V30 19008 H 1828.97 -0.986793 3.95887 0
M  V30 19009 H 1827.65 0.148514 4.15635 0
M  V30 19010 H 1826.22 -1.5215 3.40448 0
M  V30 19011 N 1828.41 -1.57525 0.0484906 0
M  V30 19012 C 1829.34 -2.06926 -0.962128 0
M  V30 19013 C 1830.32 -0.969173 -1.3056 0
M  V30 19014 O 1831.5 -1.24091 -1.41893 0
M  V30 19015 C 1828.63 -2.50752 -2.27687 0
M  V30 19016 C 1827.68 -3.7197 -2.08664 0
M  V30 19017 S 1828.51 -5.17745 -1.36749 0
M  V30 19018 C 1829.67 -5.64883 -2.69552 0
M  V30 19019 H 1829.9 -2.92323 -0.541691 0
M  V30 19020 H 1827.43 -1.5353 -0.163706 0
M  V30 19021 H 1829.39 -2.76665 -3.03261 0
M  V30 19022 H 1828.05 -1.65665 -2.66859 0
M  V30 19023 H 1827.24 -4.00546 -3.05907 0
M  V30 19024 H 1826.85 -3.46309 -1.41231 0
M  V30 19025 H 1829.14 -5.70305 -3.6573 0
M  V30 19026 H 1830.08 -6.64138 -2.45615 0
M  V30 19027 H 1830.49 -4.92602 -2.75688 0
M  V30 19028 N 1829.89 0.224867 -1.55988 0
M  V30 19029 C 1830.82 1.30573 -1.87152 0
M  V30 19030 C 1831.8 1.45363 -0.728591 0
M  V30 19031 O 1832.98 1.61228 -0.976615 0
M  V30 19032 C 1830.11 2.67648 -2.07563 0
M  V30 19033 C 1829.16 2.69891 -3.30244 0
M  V30 19034 S 1829.99 2.2429 -4.86265 0
M  V30 19035 C 1831.14 3.63247 -5.09708 0
M  V30 19036 H 1831.38 1.03943 -2.78537 0
M  V30 19037 H 1828.91 0.426946 -1.4838 0
M  V30 19038 H 1830.87 3.46566 -2.20005 0
M  V30 19039 H 1829.53 2.91504 -1.1698 0
M  V30 19040 H 1828.72 3.70612 -3.41559 0
M  V30 19041 H 1828.32 1.99034 -3.16641 0
M  V30 19042 H 1830.62 4.58913 -4.98403 0
M  V30 19043 H 1831.56 3.5685 -6.11608 0
M  V30 19044 H 1831.97 3.56781 -4.37456 0
M  V30 19045 N 1831.37 1.49742 0.491438 0
M  V30 19046 C 1832.3 1.70033 1.60034 0
M  V30 19047 C 1833.28 0.549076 1.60994 0
M  V30 19048 O 1834.46 0.785983 1.77584 0
M  V30 19049 C 1831.59 1.7757 2.98473 0
M  V30 19050 C 1830.55 2.9258 3.12379 0
M  V30 19051 C 1829.87 2.85239 4.52264 0
M  V30 19052 C 1831.17 4.33385 2.91504 0
M  V30 19053 H 1832.87 2.62875 1.43307 0
M  V30 19054 H 1830.41 1.26502 0.687989 0
M  V30 19055 H 1832.36 1.90351 3.75958 0
M  V30 19056 H 1831.09 0.813343 3.1631 0
M  V30 19057 H 1829.75 2.79417 2.37322 0
M  V30 19058 H 1829.4 1.86892 4.66991 0
M  V30 19059 H 1829.1 3.62437 4.62508 0
M  V30 19060 H 1830.62 3.00041 5.31797 0
M  V30 19061 H 1832.03 4.4718 3.58752 0
M  V30 19062 H 1830.43 5.11878 3.13211 0
M  V30 19063 H 1831.5 4.47166 1.87539 0
M  V30 19064 N 1832.84 -0.743177 1.38977 0
M  V30 19065 C 1834.07 -1.53243 1.39011 0
M  V30 19066 C 1834.49 -1.88792 -0.0174858 0
M  V30 19067 O 1833.84 -1.53523 -0.986766 0
M  V30 19068 C 1833.9 -2.8251 2.25544 0
M  V30 19069 O 1833.62 -2.48474 3.60821 0
M  V30 19070 C 1835.12 -3.76588 2.33872 0
M  V30 19071 H 1832.34 -0.473832 0.475104 0
M  V30 19072 H 1834.88 -0.918958 1.82689 0
M  V30 19073 H 1833.04 -3.4021 1.853 0
M  V30 19074 H 1833.45 -3.31454 4.06495 0
M  V30 19075 H 1834.92 -4.64211 2.98684 0
M  V30 19076 H 1835.4 -4.17761 1.35544 0
M  V30 19077 H 1836.01 -3.24811 2.74551 0
M  V30 19078 N 1834.32 -1.24018 -0.972487 0
M  V30 19079 C 1835.55 -1.10483 -1.75523 0
M  V30 19080 C 1835.97 0.338985 -1.8502 0
M  V30 19081 O 1835.33 1.24534 -1.31761 0
M  V30 19082 C 1835.38 -1.74396 -3.15624 0
M  V30 19083 O 1834.48 -1.01148 -3.99804 0
M  V30 19084 H 1833.82 -0.386777 -0.539722 0
M  V30 19085 H 1836.35 -1.64231 -1.22022 0
M  V30 19086 H 1836.36 -1.79958 -3.66168 0
M  V30 19087 H 1835.04 -2.7945 -3.08026 0
M  V30 19088 H 1833.62 -1.03338 -3.58296 0
M  V30 19089 N 1835.8 1.17245 -1.05316 0
M  V30 19090 C 1837.03 1.91454 -0.78441 0
M  V30 19091 C 1837.44 1.76886 0.660053 0
M  V30 19092 O 1836.8 1.10686 1.45103 0
M  V30 19093 C 1836.85 3.42477 -1.15722 0
M  V30 19094 O 1836.57 3.56598 -2.54498 0
M  V30 19095 C 1838.07 4.33759 -0.914783 0
M  V30 19096 H 1835.29 0.607416 -0.285108 0
M  V30 19097 H 1837.84 1.48672 -1.40417 0
M  V30 19098 H 1835.99 3.83001 -0.582183 0
M  V30 19099 H 1836.41 4.50178 -2.69147 0
M  V30 19100 H 1837.88 5.38227 -1.22536 0
M  V30 19101 H 1838.36 4.38944 0.149953 0
M  V30 19102 H 1838.96 3.98951 -1.47372 0
M  V30 19103 N 1837.28 0.834353 1.33702 0
M  V30 19104 C 1838.69 0.52156 1.50837 0
M  V30 19105 C 1838.89 -0.95203 1.77591 0
M  V30 19106 O 1837.95 -1.73603 1.83353 0
M  V30 19107 C 1839.26 1.39099 2.66593 0
M  V30 19108 C 1840.81 1.3893 2.80477 0
M  V30 19109 C 1841.29 2.24347 3.9929 0
M  V30 19110 N 1842.78 2.22032 4.06517 0
M  V30 19111 C 1843.51 2.84865 4.97634 0
M  V30 19112 N 1843.01 3.56732 5.93897 0
M  V30 19113 N 1844.8 2.74359 4.90595 0
M  V30 19114 H 1836.95 1.78832 1.14598 0
M  V30 19115 H 1839.22 0.762708 0.563011 0
M  V30 19116 H 1838.92 2.43795 2.53489 0
M  V30 19117 H 1838.8 1.06381 3.61888 0
M  V30 19118 H 1841.18 0.350069 2.93016 0
M  V30 19119 H 1841.26 1.75652 1.85957 0
M  V30 19120 H 1840.91 3.28326 3.8751 0
M  V30 19121 H 1840.84 1.84969 4.93046 0
M  V30 19122 H 1843.33 1.69765 3.37621 0
M  V30 19123 H 1843.64 4.01893 6.60077 0
M  V30 19124 H 1841.99 3.6084 5.93986 0
M  V30 19125 H 1845.18 2.17779 4.14355 0
M  V30 19126 H 1845.35 3.23612 5.61408 0
M  V30 19127 N 1838.76 -1.46125 0.590367 0
M  V30 19128 C 1840.17 -1.57588 0.252639 0
M  V30 19129 C 1840.37 -1.58435 -1.24502 0
M  V30 19130 O 1839.43 -1.50541 -2.02716 0
M  V30 19131 C 1840.74 -2.86644 0.908612 0
M  V30 19132 C 1842.29 -3.00289 0.882917 0
M  V30 19133 C 1842.76 -4.32092 1.51858 0
M  V30 19134 N 1844.26 -4.38809 1.48327 0
M  V30 19135 C 1844.99 -5.39426 1.94442 0
M  V30 19136 N 1844.49 -6.46674 2.48565 0
M  V30 19137 N 1846.28 -5.30675 1.85313 0
M  V30 19138 H 1838.43 -1.43819 1.56301 0
M  V30 19139 H 1840.69 -0.686515 0.653759 0
M  V30 19140 H 1840.4 -2.91857 1.96246 0
M  V30 19141 H 1840.27 -3.74838 0.421445 0
M  V30 19142 H 1842.66 -2.94653 -0.16233 0
M  V30 19143 H 1842.74 -2.13551 1.40818 0
M  V30 19144 H 1842.39 -4.38486 2.56306 0
M  V30 19145 H 1842.32 -5.17618 0.968474 0
M  V30 19146 H 1844.81 -3.61907 1.08772 0
M  V30 19147 H 1845.12 -7.19671 2.8159 0
M  V30 19148 H 1843.46 -6.47473 2.52595 0
M  V30 19149 H 1846.66 -4.45793 1.42782 0
M  V30 19150 H 1846.83 -6.08943 2.21567 0
M  V30 19151 O 1840.27 -0.470719 -1.54488 0
M  V30 19152 H 1840.96 0.0546937 -1.93623 0
M  V30 END ATOM
M  V30 BEGIN BOND
M  V30 END BOND
M  V30 END CTAB
M  END
$$$$
